ZINC00000640
  -OEChem-08230709403D

 43 45  0     0  0  0  0  0  0999 V2000
    3.5065    8.2770   -0.3471 C   0  0  0  0  0  0  0  0  0  0  0  0
    3.5106    7.2923   -1.4879 C   0  0  0  0  0  0  0  0  0  0  0  0
    3.5305    5.9421   -1.2542 C   0  0  0  0  0  0  0  0  0  0  0  0
    3.5392    5.0549   -2.3234 C   0  0  0  0  0  0  0  0  0  0  0  0
    3.5174    5.4726   -3.5696 N   0  0  0  0  0  0  0  0  0  0  0  0
    3.4976    6.7731   -3.8623 C   0  0  0  0  0  0  0  0  0  0  0  0
    3.4936    7.7296   -2.8172 C   0  0  0  0  0  0  0  0  0  0  0  0
    3.4719    9.1049   -3.1575 C   0  0  0  0  0  0  0  0  0  0  0  0
    3.4563    9.4333   -4.4415 N   0  0  0  0  0  0  0  0  0  0  0  0
    3.4607    8.5036   -5.3924 C   0  0  0  0  0  0  0  0  0  0  0  0
    3.4806    7.2104   -5.1296 N   0  0  0  0  0  0  0  0  0  0  0  0
    3.4432    8.9092   -6.7132 N   0  0  0  0  0  0  0  0  0  0  0  0
    3.4667   10.0751   -2.1796 N   0  0  0  0  0  0  0  0  0  0  0  0
    3.5493    5.4207    0.1596 C   0  0  0  0  0  0  0  0  0  0  0  0
    3.7139    3.9228    0.1405 C   0  0  0  0  0  0  0  0  0  0  0  0
    2.6074    3.1047    0.2626 C   0  0  0  0  0  0  0  0  0  0  0  0
    2.7589    1.7263    0.2455 C   0  0  0  0  0  0  0  0  0  0  0  0
    4.0221    1.1690    0.1115 C   0  0  0  0  0  0  0  0  0  0  0  0
    5.1277    1.9869   -0.0164 C   0  0  0  0  0  0  0  0  0  0  0  0
    4.9761    3.3657    0.0008 C   0  0  0  0  0  0  0  0  0  0  0  0
    6.0652    4.1710   -0.1199 O   0  0  0  0  0  0  0  0  0  0  0  0
    7.3342    3.5292   -0.2604 C   0  0  0  0  0  0  0  0  0  0  0  0
    1.6698    0.9210    0.3657 O   0  0  0  0  0  0  0  0  0  0  0  0
    1.8996   -0.4891    0.3399 C   0  0  0  0  0  0  0  0  0  0  0  0
    4.5237    8.6214   -0.1608 H   0  0  0  0  0  0  0  0  0  0  0  0
    2.8761    9.1282   -0.6042 H   0  0  0  0  0  0  0  0  0  0  0  0
    3.1167    7.7937    0.5487 H   0  0  0  0  0  0  0  0  0  0  0  0
    3.5599    3.9935   -2.1253 H   0  0  0  0  0  0  0  0  0  0  0  0
    3.4458    8.2486   -7.4235 H   0  0  0  0  0  0  0  0  0  0  0  0
    3.4285    9.8546   -6.9301 H   0  0  0  0  0  0  0  0  0  0  0  0
    4.0336    9.9793   -1.3984 H   0  0  0  0  0  0  0  0  0  0  0  0
    2.8962   10.8541   -2.2722 H   0  0  0  0  0  0  0  0  0  0  0  0
    2.6122    5.6769    0.6538 H   0  0  0  0  0  0  0  0  0  0  0  0
    4.3809    5.8707    0.7018 H   0  0  0  0  0  0  0  0  0  0  0  0
    1.6244    3.5386    0.3718 H   0  0  0  0  0  0  0  0  0  0  0  0
    4.1407    0.0956    0.1029 H   0  0  0  0  0  0  0  0  0  0  0  0
    6.1107    1.5530   -0.1252 H   0  0  0  0  0  0  0  0  0  0  0  0
    7.3295    2.9068   -1.1552 H   0  0  0  0  0  0  0  0  0  0  0  0
    8.1156    4.2842   -0.3470 H   0  0  0  0  0  0  0  0  0  0  0  0
    7.5254    2.9070    0.6139 H   0  0  0  0  0  0  0  0  0  0  0  0
    0.9500   -1.0140    0.4447 H   0  0  0  0  0  0  0  0  0  0  0  0
    2.3642   -0.7643   -0.6070 H   0  0  0  0  0  0  0  0  0  0  0  0
    2.5598   -0.7648    1.1622 H   0  0  0  0  0  0  0  0  0  0  0  0
  1  2  1  0  0  0  0
  1 25  1  0  0  0  0
  1 26  1  0  0  0  0
  1 27  1  0  0  0  0
  2  7  2  0  0  0  0
  2  3  1  0  0  0  0
  3  4  2  0  0  0  0
  3 14  1  0  0  0  0
  4  5  1  0  0  0  0
  4 28  1  0  0  0  0
  5  6  2  0  0  0  0
  6 11  1  0  0  0  0
  6  7  1  0  0  0  0
  7  8  1  0  0  0  0
  8  9  2  0  0  0  0
  8 13  1  0  0  0  0
  9 10  1  0  0  0  0
 10 11  2  0  0  0  0
 10 12  1  0  0  0  0
 12 29  1  0  0  0  0
 12 30  1  0  0  0  0
 13 31  1  0  0  0  0
 13 32  1  0  0  0  0
 14 15  1  0  0  0  0
 14 33  1  0  0  0  0
 14 34  1  0  0  0  0
 15 20  2  0  0  0  0
 15 16  1  0  0  0  0
 16 17  2  0  0  0  0
 16 35  1  0  0  0  0
 17 18  1  0  0  0  0
 17 23  1  0  0  0  0
 18 19  2  0  0  0  0
 18 36  1  0  0  0  0
 19 20  1  0  0  0  0
 19 37  1  0  0  0  0
 20 21  1  0  0  0  0
 21 22  1  0  0  0  0
 22 38  1  0  0  0  0
 22 39  1  0  0  0  0
 22 40  1  0  0  0  0
 23 24  1  0  0  0  0
 24 41  1  0  0  0  0
 24 42  1  0  0  0  0
 24 43  1  0  0  0  0
M  END
$$$$
ZINC00000640
  -OEChem-08230709403D

 44 46  0     0  0  0  0  0  0999 V2000
    3.5065    8.2770   -0.3471 C   0  0  0  0  0  0  0  0  0  0  0  0
    3.5106    7.2923   -1.4879 C   0  0  0  0  0  0  0  0  0  0  0  0
    3.5305    5.9421   -1.2542 C   0  0  0  0  0  0  0  0  0  0  0  0
    3.5392    5.0549   -2.3234 C   0  0  0  0  0  0  0  0  0  0  0  0
    3.5174    5.4726   -3.5696 N   0  0  0  0  0  0  0  0  0  0  0  0
    3.4976    6.7731   -3.8623 C   0  0  0  0  0  0  0  0  0  0  0  0
    3.4936    7.7296   -2.8172 C   0  0  0  0  0  0  0  0  0  0  0  0
    3.4719    9.1049   -3.1575 C   0  0  0  0  0  0  0  0  0  0  0  0
    3.4563    9.4333   -4.4415 N   0  0  0  0  0  0  0  0  0  0  0  0
    3.4607    8.5036   -5.3924 C   0  0  0  0  0  0  0  0  0  0  0  0
    3.4432    8.9092   -6.7132 N   0  0  0  0  0  0  0  0  0  0  0  0
    3.4667   10.0751   -2.1796 N   0  0  0  0  0  0  0  0  0  0  0  0
    3.5493    5.4207    0.1596 C   0  0  0  0  0  0  0  0  0  0  0  0
    3.7139    3.9228    0.1405 C   0  0  0  0  0  0  0  0  0  0  0  0
    2.6074    3.1047    0.2626 C   0  0  0  0  0  0  0  0  0  0  0  0
    2.7589    1.7263    0.2455 C   0  0  0  0  0  0  0  0  0  0  0  0
    4.0221    1.1690    0.1115 C   0  0  0  0  0  0  0  0  0  0  0  0
    5.1277    1.9869   -0.0164 C   0  0  0  0  0  0  0  0  0  0  0  0
    4.9761    3.3657    0.0008 C   0  0  0  0  0  0  0  0  0  0  0  0
    6.0652    4.1710   -0.1199 O   0  0  0  0  0  0  0  0  0  0  0  0
    7.3342    3.5292   -0.2604 C   0  0  0  0  0  0  0  0  0  0  0  0
    1.6698    0.9210    0.3657 O   0  0  0  0  0  0  0  0  0  0  0  0
    1.8996   -0.4891    0.3399 C   0  0  0  0  0  0  0  0  0  0  0  0
    4.5237    8.6214   -0.1608 H   0  0  0  0  0  0  0  0  0  0  0  0
    2.8761    9.1282   -0.6042 H   0  0  0  0  0  0  0  0  0  0  0  0
    3.1167    7.7937    0.5487 H   0  0  0  0  0  0  0  0  0  0  0  0
    3.5599    3.9935   -2.1253 H   0  0  0  0  0  0  0  0  0  0  0  0
    3.4458    8.2486   -7.4235 H   0  0  0  0  0  0  0  0  0  0  0  0
    3.4285    9.8546   -6.9301 H   0  0  0  0  0  0  0  0  0  0  0  0
    4.0336    9.9793   -1.3984 H   0  0  0  0  0  0  0  0  0  0  0  0
    2.8962   10.8541   -2.2722 H   0  0  0  0  0  0  0  0  0  0  0  0
    2.6122    5.6769    0.6538 H   0  0  0  0  0  0  0  0  0  0  0  0
    4.3809    5.8707    0.7018 H   0  0  0  0  0  0  0  0  0  0  0  0
    1.6244    3.5386    0.3718 H   0  0  0  0  0  0  0  0  0  0  0  0
    4.1407    0.0956    0.1029 H   0  0  0  0  0  0  0  0  0  0  0  0
    6.1107    1.5530   -0.1252 H   0  0  0  0  0  0  0  0  0  0  0  0
    7.3295    2.9068   -1.1552 H   0  0  0  0  0  0  0  0  0  0  0  0
    8.1156    4.2842   -0.3470 H   0  0  0  0  0  0  0  0  0  0  0  0
    7.5254    2.9070    0.6139 H   0  0  0  0  0  0  0  0  0  0  0  0
    0.9500   -1.0140    0.4447 H   0  0  0  0  0  0  0  0  0  0  0  0
    2.3642   -0.7643   -0.6070 H   0  0  0  0  0  0  0  0  0  0  0  0
    2.5598   -0.7648    1.1622 H   0  0  0  0  0  0  0  0  0  0  0  0
    3.4808    7.1631   -5.1841 N   0  3  0  0  0  0  0  0  0  0  0  0
    3.4825    6.5360   -5.9630 H   0  0  0  0  0  0  0  0  0  0  0  0
  1  2  1  0  0  0  0
  1 24  1  0  0  0  0
  1 25  1  0  0  0  0
  1 26  1  0  0  0  0
  2  7  2  0  0  0  0
  2  3  1  0  0  0  0
  3  4  2  0  0  0  0
  3 13  1  0  0  0  0
  4  5  1  0  0  0  0
  4 27  1  0  0  0  0
  5  6  2  0  0  0  0
  6  7  1  0  0  0  0
  6 43  1  0  0  0  0
  7  8  1  0  0  0  0
  8  9  2  0  0  0  0
  8 12  1  0  0  0  0
  9 10  1  0  0  0  0
 10 11  1  0  0  0  0
 10 43  2  0  0  0  0
 11 28  1  0  0  0  0
 11 29  1  0  0  0  0
 12 30  1  0  0  0  0
 12 31  1  0  0  0  0
 13 14  1  0  0  0  0
 13 32  1  0  0  0  0
 13 33  1  0  0  0  0
 14 19  2  0  0  0  0
 14 15  1  0  0  0  0
 15 16  2  0  0  0  0
 15 34  1  0  0  0  0
 16 17  1  0  0  0  0
 16 22  1  0  0  0  0
 17 18  2  0  0  0  0
 17 35  1  0  0  0  0
 18 19  1  0  0  0  0
 18 36  1  0  0  0  0
 19 20  1  0  0  0  0
 20 21  1  0  0  0  0
 21 37  1  0  0  0  0
 21 38  1  0  0  0  0
 21 39  1  0  0  0  0
 22 23  1  0  0  0  0
 23 40  1  0  0  0  0
 23 41  1  0  0  0  0
 23 42  1  0  0  0  0
 43 44  1  0  0  0  0
M  CHG  1  43   1
M  END
$$$$
ZINC00006585
  -OEChem-08230709403D

 45 47  0     1  0  0  0  0  0999 V2000
   -1.0805   -2.5424    1.8193 C   0  0  0  0  0  0  0  0  0  0  0  0
   -1.5760   -1.2385    1.3714 N   0  0  3  0  0  0  0  0  0  0  0  0
   -1.2926   -0.7753    0.0107 C   0  0  0  0  0  0  0  0  0  0  0  0
    0.0021   -0.0041    0.0020 C   0  0  0  0  0  0  0  0  0  0  0  0
   -0.0167    1.3773    0.0096 C   0  0  0  0  0  0  0  0  0  0  0  0
    1.1747    2.0870    0.0021 C   0  0  0  0  0  0  0  0  0  0  0  0
    2.3853    1.4098   -0.0136 C   0  0  0  0  0  0  0  0  0  0  0  0
    2.4041    0.0289   -0.0207 C   0  0  0  0  0  0  0  0  0  0  0  0
    1.2123   -0.6810   -0.0132 C   0  0  0  0  0  0  0  0  0  0  0  0
    1.2307   -2.0407   -0.0211 O   0  0  0  0  0  0  0  0  0  0  0  0
    2.5126   -2.6721   -0.0367 C   0  0  0  0  0  0  0  0  0  0  0  0
    1.1563    3.4467    0.0091 O   0  0  0  0  0  0  0  0  0  0  0  0
    2.4206    4.1127    0.0006 C   0  0  0  0  0  0  0  0  0  0  0  0
   -2.3199   -0.4355    2.2432 C   0  0  0  0  0  0  0  0  0  0  0  0
   -2.5906   -0.8692    3.5312 C   0  0  0  0  0  0  0  0  0  0  0  0
   -3.3387   -0.0273    4.3620 C   0  0  0  0  0  0  0  0  0  0  0  0
   -3.6656   -0.3830    5.6941 C   0  0  0  0  0  0  0  0  0  0  0  0
   -4.3771    0.4711    6.4154 N   0  0  0  0  0  0  0  0  0  0  0  0
   -4.7792    1.6340    5.9104 C   0  0  0  0  0  0  0  0  0  0  0  0
   -4.5024    2.0133    4.6777 N   0  0  0  0  0  0  0  0  0  0  0  0
   -3.7869    1.2210    3.8645 C   0  0  0  0  0  0  0  0  0  0  0  0
   -3.4952    1.5843    2.6158 N   0  0  0  0  0  0  0  0  0  0  0  0
   -2.7894    0.8102    1.8231 C   0  0  0  0  0  0  0  0  0  0  0  0
   -5.5193    2.4827    6.7128 N   0  0  0  0  0  0  0  0  0  0  0  0
   -3.2534   -1.5859    6.2261 N   0  0  0  0  0  0  0  0  0  0  0  0
   -0.0914   -2.4229    2.2615 H   0  0  0  0  0  0  0  0  0  0  0  0
   -1.7632   -2.9549    2.5621 H   0  0  0  0  0  0  0  0  0  0  0  0
   -1.0182   -3.2196    0.9674 H   0  0  0  0  0  0  0  0  0  0  0  0
   -2.1024   -0.1297   -0.3293 H   0  0  0  0  0  0  0  0  0  0  0  0
   -1.2085   -1.6340   -0.6553 H   0  0  0  0  0  0  0  0  0  0  0  0
   -0.9592    1.9045    0.0169 H   0  0  0  0  0  0  0  0  0  0  0  0
    3.3132    1.9625   -0.0198 H   0  0  0  0  0  0  0  0  0  0  0  0
    3.3466   -0.4984   -0.0325 H   0  0  0  0  0  0  0  0  0  0  0  0
    3.0572   -2.3665   -0.9300 H   0  0  0  0  0  0  0  0  0  0  0  0
    3.0739   -2.3767    0.8498 H   0  0  0  0  0  0  0  0  0  0  0  0
    2.3845   -3.7545   -0.0416 H   0  0  0  0  0  0  0  0  0  0  0  0
    2.2631    5.1912    0.0075 H   0  0  0  0  0  0  0  0  0  0  0  0
    2.9898    3.8229    0.8838 H   0  0  0  0  0  0  0  0  0  0  0  0
    2.9732    3.8319   -0.8960 H   0  0  0  0  0  0  0  0  0  0  0  0
   -2.2351   -1.8265    3.8830 H   0  0  0  0  0  0  0  0  0  0  0  0
   -2.5706    1.1440    0.8195 H   0  0  0  0  0  0  0  0  0  0  0  0
   -5.8231    3.3360    6.3658 H   0  0  0  0  0  0  0  0  0  0  0  0
   -5.7349    2.2246    7.6226 H   0  0  0  0  0  0  0  0  0  0  0  0
   -2.7325   -2.2015    5.6870 H   0  0  0  0  0  0  0  0  0  0  0  0
   -3.4842   -1.8167    7.1395 H   0  0  0  0  0  0  0  0  0  0  0  0
  1  2  1  0  0  0  0
  1 26  1  0  0  0  0
  1 27  1  0  0  0  0
  1 28  1  0  0  0  0
  2  3  1  0  0  0  0
  2 14  1  0  0  0  0
  3  4  1  0  0  0  0
  3 29  1  0  0  0  0
  3 30  1  0  0  0  0
  4  9  2  0  0  0  0
  4  5  1  0  0  0  0
  5  6  2  0  0  0  0
  5 31  1  0  0  0  0
  6  7  1  0  0  0  0
  6 12  1  0  0  0  0
  7  8  2  0  0  0  0
  7 32  1  0  0  0  0
  8  9  1  0  0  0  0
  8 33  1  0  0  0  0
  9 10  1  0  0  0  0
 10 11  1  0  0  0  0
 11 34  1  0  0  0  0
 11 35  1  0  0  0  0
 11 36  1  0  0  0  0
 12 13  1  0  0  0  0
 13 37  1  0  0  0  0
 13 38  1  0  0  0  0
 13 39  1  0  0  0  0
 14 23  2  0  0  0  0
 14 15  1  0  0  0  0
 15 16  2  0  0  0  0
 15 40  1  0  0  0  0
 16 21  1  0  0  0  0
 16 17  1  0  0  0  0
 17 18  2  0  0  0  0
 17 25  1  0  0  0  0
 18 19  1  0  0  0  0
 19 20  2  0  0  0  0
 19 24  1  0  0  0  0
 20 21  1  0  0  0  0
 21 22  2  0  0  0  0
 22 23  1  0  0  0  0
 23 41  1  0  0  0  0
 24 42  1  0  0  0  0
 24 43  1  0  0  0  0
 25 44  1  0  0  0  0
 25 45  1  0  0  0  0
M  END
$$$$
ZINC00006585
  -OEChem-08230709403D

 46 48  0     1  0  0  0  0  0999 V2000
   -1.0805   -2.5424    1.8193 C   0  0  0  0  0  0  0  0  0  0  0  0
   -1.5760   -1.2385    1.3714 N   0  0  3  0  0  0  0  0  0  0  0  0
   -1.2926   -0.7753    0.0107 C   0  0  0  0  0  0  0  0  0  0  0  0
    0.0021   -0.0041    0.0020 C   0  0  0  0  0  0  0  0  0  0  0  0
   -0.0167    1.3773    0.0096 C   0  0  0  0  0  0  0  0  0  0  0  0
    1.1747    2.0870    0.0021 C   0  0  0  0  0  0  0  0  0  0  0  0
    2.3853    1.4098   -0.0136 C   0  0  0  0  0  0  0  0  0  0  0  0
    2.4041    0.0289   -0.0207 C   0  0  0  0  0  0  0  0  0  0  0  0
    1.2123   -0.6810   -0.0132 C   0  0  0  0  0  0  0  0  0  0  0  0
    1.2307   -2.0407   -0.0211 O   0  0  0  0  0  0  0  0  0  0  0  0
    2.5126   -2.6721   -0.0367 C   0  0  0  0  0  0  0  0  0  0  0  0
    1.1563    3.4467    0.0091 O   0  0  0  0  0  0  0  0  0  0  0  0
    2.4206    4.1127    0.0006 C   0  0  0  0  0  0  0  0  0  0  0  0
   -2.3199   -0.4355    2.2432 C   0  0  0  0  0  0  0  0  0  0  0  0
   -2.5906   -0.8692    3.5312 C   0  0  0  0  0  0  0  0  0  0  0  0
   -3.3387   -0.0273    4.3620 C   0  0  0  0  0  0  0  0  0  0  0  0
   -3.6656   -0.3830    5.6941 C   0  0  0  0  0  0  0  0  0  0  0  0
   -4.3771    0.4711    6.4154 N   0  0  0  0  0  0  0  0  0  0  0  0
   -4.7792    1.6340    5.9104 C   0  0  0  0  0  0  0  0  0  0  0  0
   -3.7869    1.2210    3.8645 C   0  0  0  0  0  0  0  0  0  0  0  0
   -3.4952    1.5843    2.6158 N   0  0  0  0  0  0  0  0  0  0  0  0
   -2.7894    0.8102    1.8231 C   0  0  0  0  0  0  0  0  0  0  0  0
   -5.5193    2.4827    6.7128 N   0  0  0  0  0  0  0  0  0  0  0  0
   -3.2534   -1.5859    6.2261 N   0  0  0  0  0  0  0  0  0  0  0  0
   -0.0914   -2.4229    2.2615 H   0  0  0  0  0  0  0  0  0  0  0  0
   -1.7632   -2.9549    2.5621 H   0  0  0  0  0  0  0  0  0  0  0  0
   -1.0182   -3.2196    0.9674 H   0  0  0  0  0  0  0  0  0  0  0  0
   -2.1024   -0.1297   -0.3293 H   0  0  0  0  0  0  0  0  0  0  0  0
   -1.2085   -1.6340   -0.6553 H   0  0  0  0  0  0  0  0  0  0  0  0
   -0.9592    1.9045    0.0169 H   0  0  0  0  0  0  0  0  0  0  0  0
    3.3132    1.9625   -0.0198 H   0  0  0  0  0  0  0  0  0  0  0  0
    3.3466   -0.4984   -0.0325 H   0  0  0  0  0  0  0  0  0  0  0  0
    3.0572   -2.3665   -0.9300 H   0  0  0  0  0  0  0  0  0  0  0  0
    3.0739   -2.3767    0.8498 H   0  0  0  0  0  0  0  0  0  0  0  0
    2.3845   -3.7545   -0.0416 H   0  0  0  0  0  0  0  0  0  0  0  0
    2.2631    5.1912    0.0075 H   0  0  0  0  0  0  0  0  0  0  0  0
    2.9898    3.8229    0.8838 H   0  0  0  0  0  0  0  0  0  0  0  0
    2.9732    3.8319   -0.8960 H   0  0  0  0  0  0  0  0  0  0  0  0
   -2.2351   -1.8265    3.8830 H   0  0  0  0  0  0  0  0  0  0  0  0
   -2.5706    1.1440    0.8195 H   0  0  0  0  0  0  0  0  0  0  0  0
   -5.8231    3.3360    6.3658 H   0  0  0  0  0  0  0  0  0  0  0  0
   -5.7349    2.2246    7.6226 H   0  0  0  0  0  0  0  0  0  0  0  0
   -2.7325   -2.2015    5.6870 H   0  0  0  0  0  0  0  0  0  0  0  0
   -3.4842   -1.8167    7.1395 H   0  0  0  0  0  0  0  0  0  0  0  0
   -4.5261    2.0774    4.6540 N   0  3  0  0  0  0  0  0  0  0  0  0
   -4.8697    2.9693    4.3598 H   0  0  0  0  0  0  0  0  0  0  0  0
  1  2  1  0  0  0  0
  1 25  1  0  0  0  0
  1 26  1  0  0  0  0
  1 27  1  0  0  0  0
  2  3  1  0  0  0  0
  2 14  1  0  0  0  0
  3  4  1  0  0  0  0
  3 28  1  0  0  0  0
  3 29  1  0  0  0  0
  4  9  2  0  0  0  0
  4  5  1  0  0  0  0
  5  6  2  0  0  0  0
  5 30  1  0  0  0  0
  6  7  1  0  0  0  0
  6 12  1  0  0  0  0
  7  8  2  0  0  0  0
  7 31  1  0  0  0  0
  8  9  1  0  0  0  0
  8 32  1  0  0  0  0
  9 10  1  0  0  0  0
 10 11  1  0  0  0  0
 11 33  1  0  0  0  0
 11 34  1  0  0  0  0
 11 35  1  0  0  0  0
 12 13  1  0  0  0  0
 13 36  1  0  0  0  0
 13 37  1  0  0  0  0
 13 38  1  0  0  0  0
 14 22  2  0  0  0  0
 14 15  1  0  0  0  0
 15 16  2  0  0  0  0
 15 39  1  0  0  0  0
 16 20  1  0  0  0  0
 16 17  1  0  0  0  0
 17 18  2  0  0  0  0
 17 24  1  0  0  0  0
 18 19  1  0  0  0  0
 19 23  1  0  0  0  0
 19 45  2  0  0  0  0
 20 21  2  0  0  0  0
 20 45  1  0  0  0  0
 21 22  1  0  0  0  0
 22 40  1  0  0  0  0
 23 41  1  0  0  0  0
 23 42  1  0  0  0  0
 24 43  1  0  0  0  0
 24 44  1  0  0  0  0
 45 46  1  0  0  0  0
M  CHG  1  45   1
M  END
$$$$
ZINC00006585
  -OEChem-08230709403D

 46 48  0     1  0  0  0  0  0999 V2000
   -1.0805   -2.5424    1.8193 C   0  0  0  0  0  0  0  0  0  0  0  0
   -1.5760   -1.2385    1.3714 N   0  0  3  0  0  0  0  0  0  0  0  0
   -1.2926   -0.7753    0.0107 C   0  0  0  0  0  0  0  0  0  0  0  0
    0.0021   -0.0041    0.0020 C   0  0  0  0  0  0  0  0  0  0  0  0
   -0.0167    1.3773    0.0096 C   0  0  0  0  0  0  0  0  0  0  0  0
    1.1747    2.0870    0.0021 C   0  0  0  0  0  0  0  0  0  0  0  0
    2.3853    1.4098   -0.0136 C   0  0  0  0  0  0  0  0  0  0  0  0
    2.4041    0.0289   -0.0207 C   0  0  0  0  0  0  0  0  0  0  0  0
    1.2123   -0.6810   -0.0132 C   0  0  0  0  0  0  0  0  0  0  0  0
    1.2307   -2.0407   -0.0211 O   0  0  0  0  0  0  0  0  0  0  0  0
    2.5126   -2.6721   -0.0367 C   0  0  0  0  0  0  0  0  0  0  0  0
    1.1563    3.4467    0.0091 O   0  0  0  0  0  0  0  0  0  0  0  0
    2.4206    4.1127    0.0006 C   0  0  0  0  0  0  0  0  0  0  0  0
   -2.3199   -0.4355    2.2432 C   0  0  0  0  0  0  0  0  0  0  0  0
   -2.5906   -0.8692    3.5312 C   0  0  0  0  0  0  0  0  0  0  0  0
   -3.3387   -0.0273    4.3620 C   0  0  0  0  0  0  0  0  0  0  0  0
   -3.6656   -0.3830    5.6941 C   0  0  0  0  0  0  0  0  0  0  0  0
   -4.3771    0.4711    6.4154 N   0  0  0  0  0  0  0  0  0  0  0  0
   -4.7792    1.6340    5.9104 C   0  0  0  0  0  0  0  0  0  0  0  0
   -3.7869    1.2210    3.8645 C   0  0  0  0  0  0  0  0  0  0  0  0
   -3.4952    1.5843    2.6158 N   0  0  0  0  0  0  0  0  0  0  0  0
   -2.7894    0.8102    1.8231 C   0  0  0  0  0  0  0  0  0  0  0  0
   -5.5193    2.4827    6.7128 N   0  0  0  0  0  0  0  0  0  0  0  0
   -3.2534   -1.5859    6.2261 N   0  0  0  0  0  0  0  0  0  0  0  0
   -0.0914   -2.4229    2.2615 H   0  0  0  0  0  0  0  0  0  0  0  0
   -1.7632   -2.9549    2.5621 H   0  0  0  0  0  0  0  0  0  0  0  0
   -1.0182   -3.2196    0.9674 H   0  0  0  0  0  0  0  0  0  0  0  0
   -2.1024   -0.1297   -0.3293 H   0  0  0  0  0  0  0  0  0  0  0  0
   -1.2085   -1.6340   -0.6553 H   0  0  0  0  0  0  0  0  0  0  0  0
   -0.9592    1.9045    0.0169 H   0  0  0  0  0  0  0  0  0  0  0  0
    3.3132    1.9625   -0.0198 H   0  0  0  0  0  0  0  0  0  0  0  0
    3.3466   -0.4984   -0.0325 H   0  0  0  0  0  0  0  0  0  0  0  0
    3.0572   -2.3665   -0.9300 H   0  0  0  0  0  0  0  0  0  0  0  0
    3.0739   -2.3767    0.8498 H   0  0  0  0  0  0  0  0  0  0  0  0
    2.3845   -3.7545   -0.0416 H   0  0  0  0  0  0  0  0  0  0  0  0
    2.2631    5.1912    0.0075 H   0  0  0  0  0  0  0  0  0  0  0  0
    2.9898    3.8229    0.8838 H   0  0  0  0  0  0  0  0  0  0  0  0
    2.9732    3.8319   -0.8960 H   0  0  0  0  0  0  0  0  0  0  0  0
   -2.2351   -1.8265    3.8830 H   0  0  0  0  0  0  0  0  0  0  0  0
   -2.5706    1.1440    0.8195 H   0  0  0  0  0  0  0  0  0  0  0  0
   -5.8231    3.3360    6.3658 H   0  0  0  0  0  0  0  0  0  0  0  0
   -5.7349    2.2246    7.6226 H   0  0  0  0  0  0  0  0  0  0  0  0
   -2.7325   -2.2015    5.6870 H   0  0  0  0  0  0  0  0  0  0  0  0
   -3.4842   -1.8167    7.1395 H   0  0  0  0  0  0  0  0  0  0  0  0
   -4.5261    2.0774    4.6540 N   0  3  0  0  0  0  0  0  0  0  0  0
   -4.8697    2.9693    4.3598 H   0  0  0  0  0  0  0  0  0  0  0  0
  1  2  1  0  0  0  0
  1 25  1  0  0  0  0
  1 26  1  0  0  0  0
  1 27  1  0  0  0  0
  2  3  1  0  0  0  0
  2 14  1  0  0  0  0
  3  4  1  0  0  0  0
  3 28  1  0  0  0  0
  3 29  1  0  0  0  0
  4  9  2  0  0  0  0
  4  5  1  0  0  0  0
  5  6  2  0  0  0  0
  5 30  1  0  0  0  0
  6  7  1  0  0  0  0
  6 12  1  0  0  0  0
  7  8  2  0  0  0  0
  7 31  1  0  0  0  0
  8  9  1  0  0  0  0
  8 32  1  0  0  0  0
  9 10  1  0  0  0  0
 10 11  1  0  0  0  0
 11 33  1  0  0  0  0
 11 34  1  0  0  0  0
 11 35  1  0  0  0  0
 12 13  1  0  0  0  0
 13 36  1  0  0  0  0
 13 37  1  0  0  0  0
 13 38  1  0  0  0  0
 14 22  2  0  0  0  0
 14 15  1  0  0  0  0
 15 16  2  0  0  0  0
 15 39  1  0  0  0  0
 16 20  1  0  0  0  0
 16 17  1  0  0  0  0
 17 18  2  0  0  0  0
 17 24  1  0  0  0  0
 18 19  1  0  0  0  0
 19 23  1  0  0  0  0
 19 45  2  0  0  0  0
 20 21  2  0  0  0  0
 20 45  1  0  0  0  0
 21 22  1  0  0  0  0
 22 40  1  0  0  0  0
 23 41  1  0  0  0  0
 23 42  1  0  0  0  0
 24 43  1  0  0  0  0
 24 44  1  0  0  0  0
 45 46  1  0  0  0  0
M  CHG  1  45   1
M  END
$$$$
ZINC00006616
  -OEChem-08230709403D

 42 43  0     0  0  0  0  0  0999 V2000
   -4.1189   -4.1410    1.6757 C   0  0  0  0  0  0  0  0  0  0  0  0
   -3.8898   -2.6308    1.5889 C   0  0  0  0  0  0  0  0  0  0  0  0
   -2.5139   -2.2897    2.1646 C   0  0  0  0  0  0  0  0  0  0  0  0
   -3.9544   -2.1884    0.1257 C   0  0  0  0  0  0  0  0  0  0  0  0
   -3.8725   -0.6855    0.0512 C   0  0  0  0  0  0  0  0  0  0  0  0
   -5.0444    0.0676   -0.0134 C   0  0  0  0  0  0  0  0  0  0  0  0
   -4.9983    1.3813   -0.0790 N   0  0  0  0  0  0  0  0  0  0  0  0
   -3.8147    1.9995   -0.0838 C   0  0  0  0  0  0  0  0  0  0  0  0
   -2.6268    1.2293   -0.0185 C   0  0  0  0  0  0  0  0  0  0  0  0
   -2.6956   -0.0965    0.0473 N   0  0  0  0  0  0  0  0  0  0  0  0
   -1.3484    1.9425   -0.0261 C   0  0  0  0  0  0  0  0  0  0  0  0
   -1.3819    3.2665   -0.0880 N   0  0  0  0  0  0  0  0  0  0  0  0
   -2.5346    3.9254   -0.1524 C   0  0  0  0  0  0  0  0  0  0  0  0
   -3.7120    3.3327   -0.1487 N   0  0  0  0  0  0  0  0  0  0  0  0
   -2.4967    5.3050   -0.2205 N   0  0  0  0  0  0  0  0  0  0  0  0
   -0.1522    1.2619    0.0347 N   0  0  0  0  0  0  0  0  0  0  0  0
   -6.3796   -0.6311   -0.0074 C   0  0  0  0  0  0  0  0  0  0  0  0
   -6.9209   -0.6844    1.4227 C   0  0  0  0  0  0  0  0  0  0  0  0
   -7.2253    0.7350    1.9059 C   0  0  0  0  0  0  0  0  0  0  0  0
   -8.2029   -1.5190    1.4519 C   0  0  0  0  0  0  0  0  0  0  0  0
   -3.3479   -4.6589    1.1052 H   0  0  0  0  0  0  0  0  0  0  0  0
   -4.0729   -4.4562    2.7182 H   0  0  0  0  0  0  0  0  0  0  0  0
   -5.0992   -4.3840    1.2657 H   0  0  0  0  0  0  0  0  0  0  0  0
   -4.6609   -2.1129    2.1595 H   0  0  0  0  0  0  0  0  0  0  0  0
   -1.7429   -2.8076    1.5940 H   0  0  0  0  0  0  0  0  0  0  0  0
   -2.3507   -1.2138    2.1027 H   0  0  0  0  0  0  0  0  0  0  0  0
   -2.4678   -2.6049    3.2070 H   0  0  0  0  0  0  0  0  0  0  0  0
   -4.8939   -2.5233   -0.3140 H   0  0  0  0  0  0  0  0  0  0  0  0
   -3.1203   -2.6254   -0.4232 H   0  0  0  0  0  0  0  0  0  0  0  0
   -3.3230    5.8113   -0.2640 H   0  0  0  0  0  0  0  0  0  0  0  0
   -1.6439    5.7672   -0.2249 H   0  0  0  0  0  0  0  0  0  0  0  0
   -0.1473    0.2932    0.0835 H   0  0  0  0  0  0  0  0  0  0  0  0
    0.6853    1.7512    0.0245 H   0  0  0  0  0  0  0  0  0  0  0  0
   -7.0786   -0.0845   -0.6404 H   0  0  0  0  0  0  0  0  0  0  0  0
   -6.2607   -1.6453   -0.3889 H   0  0  0  0  0  0  0  0  0  0  0  0
   -6.1765   -1.1390    2.0763 H   0  0  0  0  0  0  0  0  0  0  0  0
   -7.9698    1.1896    1.2523 H   0  0  0  0  0  0  0  0  0  0  0  0
   -7.6110    0.6971    2.9247 H   0  0  0  0  0  0  0  0  0  0  0  0
   -6.3120    1.3296    1.8851 H   0  0  0  0  0  0  0  0  0  0  0  0
   -7.9861   -2.5302    1.1076 H   0  0  0  0  0  0  0  0  0  0  0  0
   -8.5886   -1.5569    2.4707 H   0  0  0  0  0  0  0  0  0  0  0  0
   -8.9474   -1.0644    0.7983 H   0  0  0  0  0  0  0  0  0  0  0  0
  1  2  1  0  0  0  0
  1 21  1  0  0  0  0
  1 22  1  0  0  0  0
  1 23  1  0  0  0  0
  2  3  1  0  0  0  0
  2  4  1  0  0  0  0
  2 24  1  0  0  0  0
  3 25  1  0  0  0  0
  3 26  1  0  0  0  0
  3 27  1  0  0  0  0
  4  5  1  0  0  0  0
  4 28  1  0  0  0  0
  4 29  1  0  0  0  0
  5 10  2  0  0  0  0
  5  6  1  0  0  0  0
  6  7  2  0  0  0  0
  6 17  1  0  0  0  0
  7  8  1  0  0  0  0
  8 14  2  0  0  0  0
  8  9  1  0  0  0  0
  9 10  1  0  0  0  0
  9 11  2  0  0  0  0
 11 12  1  0  0  0  0
 11 16  1  0  0  0  0
 12 13  2  0  0  0  0
 13 14  1  0  0  0  0
 13 15  1  0  0  0  0
 15 30  1  0  0  0  0
 15 31  1  0  0  0  0
 16 32  1  0  0  0  0
 16 33  1  0  0  0  0
 17 18  1  0  0  0  0
 17 34  1  0  0  0  0
 17 35  1  0  0  0  0
 18 19  1  0  0  0  0
 18 20  1  0  0  0  0
 18 36  1  0  0  0  0
 19 37  1  0  0  0  0
 19 38  1  0  0  0  0
 19 39  1  0  0  0  0
 20 40  1  0  0  0  0
 20 41  1  0  0  0  0
 20 42  1  0  0  0  0
M  END
$$$$
ZINC00006616
  -OEChem-08230709403D

 43 44  0     0  0  0  0  0  0999 V2000
   -4.1264   -4.1424    1.6524 C   0  0  0  0  0  0  0  0  0  0  0  0
   -3.8972   -2.6321    1.5672 C   0  0  0  0  0  0  0  0  0  0  0  0
   -2.5246   -2.2908    2.1506 C   0  0  0  0  0  0  0  0  0  0  0  0
   -3.9539   -2.1895    0.1038 C   0  0  0  0  0  0  0  0  0  0  0  0
   -3.8720   -0.6865    0.0300 C   0  0  0  0  0  0  0  0  0  0  0  0
   -5.0437    0.0663   -0.0409 C   0  0  0  0  0  0  0  0  0  0  0  0
   -4.9976    1.3800   -0.1060 N   0  0  0  0  0  0  0  0  0  0  0  0
   -3.8141    1.9985   -0.1041 C   0  0  0  0  0  0  0  0  0  0  0  0
   -2.6264    1.2286   -0.0324 C   0  0  0  0  0  0  0  0  0  0  0  0
   -2.6950   -0.0975    0.0266 N   0  0  0  0  0  0  0  0  0  0  0  0
   -1.3484    1.9425   -0.0262 C   0  0  0  0  0  0  0  0  0  0  0  0
   -1.3817    3.2662   -0.0945 N   0  3  0  0  0  0  0  0  0  0  0  0
   -2.5342    3.9248   -0.1652 C   0  0  0  0  0  0  0  0  0  0  0  0
   -2.4961    5.3040   -0.2398 N   0  0  0  0  0  0  0  0  0  0  0  0
   -0.1522    1.2619    0.0346 N   0  0  0  0  0  0  0  0  0  0  0  0
   -6.3787   -0.6328   -0.0424 C   0  0  0  0  0  0  0  0  0  0  0  0
   -6.9279   -0.6865    1.3846 C   0  0  0  0  0  0  0  0  0  0  0  0
   -7.2354    0.7327    1.8664 C   0  0  0  0  0  0  0  0  0  0  0  0
   -8.2098   -1.5215    1.4066 C   0  0  0  0  0  0  0  0  0  0  0  0
   -3.3521   -4.6600    1.0861 H   0  0  0  0  0  0  0  0  0  0  0  0
   -4.0861   -4.4578    2.6951 H   0  0  0  0  0  0  0  0  0  0  0  0
   -5.1044   -4.3856    1.2369 H   0  0  0  0  0  0  0  0  0  0  0  0
   -4.6716   -2.1146    2.1336 H   0  0  0  0  0  0  0  0  0  0  0  0
   -1.7504   -2.8084    1.5842 H   0  0  0  0  0  0  0  0  0  0  0  0
   -2.3614   -1.2148    2.0898 H   0  0  0  0  0  0  0  0  0  0  0  0
   -2.4842   -2.6062    3.1932 H   0  0  0  0  0  0  0  0  0  0  0  0
   -4.8908   -2.5245   -0.3412 H   0  0  0  0  0  0  0  0  0  0  0  0
   -3.1166   -2.6261   -0.4406 H   0  0  0  0  0  0  0  0  0  0  0  0
   -3.3222    5.8101   -0.2880 H   0  0  0  0  0  0  0  0  0  0  0  0
   -1.6433    5.7662   -0.2441 H   0  0  0  0  0  0  0  0  0  0  0  0
   -0.1473    0.2932    0.0834 H   0  0  0  0  0  0  0  0  0  0  0  0
    0.6853    1.7512    0.0244 H   0  0  0  0  0  0  0  0  0  0  0  0
   -7.0743   -0.0862   -0.6792 H   0  0  0  0  0  0  0  0  0  0  0  0
   -6.2574   -1.6469   -0.4235 H   0  0  0  0  0  0  0  0  0  0  0  0
   -6.1870   -1.1411    2.0423 H   0  0  0  0  0  0  0  0  0  0  0  0
   -7.9763    1.1872    1.2088 H   0  0  0  0  0  0  0  0  0  0  0  0
   -7.6267    0.6945    2.8831 H   0  0  0  0  0  0  0  0  0  0  0  0
   -6.3221    1.3275    1.8508 H   0  0  0  0  0  0  0  0  0  0  0  0
   -7.9908   -2.5325    1.0633 H   0  0  0  0  0  0  0  0  0  0  0  0
   -8.6011   -1.5597    2.4232 H   0  0  0  0  0  0  0  0  0  0  0  0
   -8.9508   -1.0669    0.7489 H   0  0  0  0  0  0  0  0  0  0  0  0
   -3.7742    3.3741   -0.1720 N   0  0  0  0  0  0  0  0  0  0  0  0
   -0.5175    3.7694   -0.0924 H   0  0  0  0  0  0  0  0  0  0  0  0
  1  2  1  0  0  0  0
  1 20  1  0  0  0  0
  1 21  1  0  0  0  0
  1 22  1  0  0  0  0
  2  3  1  0  0  0  0
  2  4  1  0  0  0  0
  2 23  1  0  0  0  0
  3 24  1  0  0  0  0
  3 25  1  0  0  0  0
  3 26  1  0  0  0  0
  4  5  1  0  0  0  0
  4 27  1  0  0  0  0
  4 28  1  0  0  0  0
  5 10  2  0  0  0  0
  5  6  1  0  0  0  0
  6  7  2  0  0  0  0
  6 16  1  0  0  0  0
  7  8  1  0  0  0  0
  8 42  2  0  0  0  0
  8  9  1  0  0  0  0
  9 10  1  0  0  0  0
  9 11  2  0  0  0  0
 11 15  1  0  0  0  0
 11 12  1  0  0  0  0
 12 43  1  0  0  0  0
 12 13  2  0  0  0  0
 13 14  1  0  0  0  0
 13 42  1  0  0  0  0
 14 29  1  0  0  0  0
 14 30  1  0  0  0  0
 15 31  1  0  0  0  0
 15 32  1  0  0  0  0
 16 17  1  0  0  0  0
 16 33  1  0  0  0  0
 16 34  1  0  0  0  0
 17 18  1  0  0  0  0
 17 19  1  0  0  0  0
 17 35  1  0  0  0  0
 18 36  1  0  0  0  0
 18 37  1  0  0  0  0
 18 38  1  0  0  0  0
 19 39  1  0  0  0  0
 19 40  1  0  0  0  0
 19 41  1  0  0  0  0
M  CHG  1  12   1
M  END
$$$$
ZINC00006616
  -OEChem-08230709403D

 43 44  0     0  0  0  0  0  0999 V2000
   -4.1189   -4.1410    1.6757 C   0  0  0  0  0  0  0  0  0  0  0  0
   -3.8898   -2.6308    1.5889 C   0  0  0  0  0  0  0  0  0  0  0  0
   -2.5139   -2.2897    2.1646 C   0  0  0  0  0  0  0  0  0  0  0  0
   -3.9544   -2.1884    0.1257 C   0  0  0  0  0  0  0  0  0  0  0  0
   -3.8725   -0.6855    0.0512 C   0  0  0  0  0  0  0  0  0  0  0  0
   -5.0444    0.0676   -0.0134 C   0  0  0  0  0  0  0  0  0  0  0  0
   -4.9983    1.3813   -0.0790 N   0  0  0  0  0  0  0  0  0  0  0  0
   -3.8147    1.9995   -0.0838 C   0  0  0  0  0  0  0  0  0  0  0  0
   -2.6268    1.2293   -0.0185 C   0  0  0  0  0  0  0  0  0  0  0  0
   -2.6956   -0.0965    0.0473 N   0  0  0  0  0  0  0  0  0  0  0  0
   -1.3484    1.9425   -0.0261 C   0  0  0  0  0  0  0  0  0  0  0  0
   -1.3819    3.2665   -0.0880 N   0  0  0  0  0  0  0  0  0  0  0  0
   -2.5346    3.9254   -0.1524 C   0  0  0  0  0  0  0  0  0  0  0  0
   -2.4967    5.3050   -0.2205 N   0  0  0  0  0  0  0  0  0  0  0  0
   -0.1522    1.2619    0.0347 N   0  0  0  0  0  0  0  0  0  0  0  0
   -6.3796   -0.6311   -0.0074 C   0  0  0  0  0  0  0  0  0  0  0  0
   -6.9209   -0.6844    1.4227 C   0  0  0  0  0  0  0  0  0  0  0  0
   -7.2253    0.7350    1.9059 C   0  0  0  0  0  0  0  0  0  0  0  0
   -8.2029   -1.5190    1.4519 C   0  0  0  0  0  0  0  0  0  0  0  0
   -3.3479   -4.6589    1.1052 H   0  0  0  0  0  0  0  0  0  0  0  0
   -4.0729   -4.4562    2.7182 H   0  0  0  0  0  0  0  0  0  0  0  0
   -5.0992   -4.3840    1.2657 H   0  0  0  0  0  0  0  0  0  0  0  0
   -4.6609   -2.1129    2.1595 H   0  0  0  0  0  0  0  0  0  0  0  0
   -1.7429   -2.8076    1.5940 H   0  0  0  0  0  0  0  0  0  0  0  0
   -2.3507   -1.2138    2.1027 H   0  0  0  0  0  0  0  0  0  0  0  0
   -2.4678   -2.6049    3.2070 H   0  0  0  0  0  0  0  0  0  0  0  0
   -4.8939   -2.5233   -0.3140 H   0  0  0  0  0  0  0  0  0  0  0  0
   -3.1203   -2.6254   -0.4232 H   0  0  0  0  0  0  0  0  0  0  0  0
   -3.3230    5.8113   -0.2640 H   0  0  0  0  0  0  0  0  0  0  0  0
   -1.6439    5.7672   -0.2249 H   0  0  0  0  0  0  0  0  0  0  0  0
   -0.1473    0.2932    0.0835 H   0  0  0  0  0  0  0  0  0  0  0  0
    0.6853    1.7512    0.0245 H   0  0  0  0  0  0  0  0  0  0  0  0
   -7.0786   -0.0845   -0.6404 H   0  0  0  0  0  0  0  0  0  0  0  0
   -6.2607   -1.6453   -0.3889 H   0  0  0  0  0  0  0  0  0  0  0  0
   -6.1765   -1.1390    2.0763 H   0  0  0  0  0  0  0  0  0  0  0  0
   -7.9698    1.1896    1.2523 H   0  0  0  0  0  0  0  0  0  0  0  0
   -7.6110    0.6971    2.9247 H   0  0  0  0  0  0  0  0  0  0  0  0
   -6.3120    1.3296    1.8851 H   0  0  0  0  0  0  0  0  0  0  0  0
   -7.9861   -2.5302    1.1076 H   0  0  0  0  0  0  0  0  0  0  0  0
   -8.5886   -1.5569    2.4707 H   0  0  0  0  0  0  0  0  0  0  0  0
   -8.9474   -1.0644    0.7983 H   0  0  0  0  0  0  0  0  0  0  0  0
   -3.7748    3.3751   -0.1522 N   0  3  0  0  0  0  0  0  0  0  0  0
   -4.6258    3.8983   -0.1975 H   0  0  0  0  0  0  0  0  0  0  0  0
  1  2  1  0  0  0  0
  1 20  1  0  0  0  0
  1 21  1  0  0  0  0
  1 22  1  0  0  0  0
  2  3  1  0  0  0  0
  2  4  1  0  0  0  0
  2 23  1  0  0  0  0
  3 24  1  0  0  0  0
  3 25  1  0  0  0  0
  3 26  1  0  0  0  0
  4  5  1  0  0  0  0
  4 27  1  0  0  0  0
  4 28  1  0  0  0  0
  5 10  2  0  0  0  0
  5  6  1  0  0  0  0
  6  7  2  0  0  0  0
  6 16  1  0  0  0  0
  7  8  1  0  0  0  0
  8  9  2  0  0  0  0
  8 42  1  0  0  0  0
  9 10  1  0  0  0  0
  9 11  1  0  0  0  0
 11 12  2  0  0  0  0
 11 15  1  0  0  0  0
 12 13  1  0  0  0  0
 13 14  1  0  0  0  0
 13 42  2  0  0  0  0
 14 29  1  0  0  0  0
 14 30  1  0  0  0  0
 15 31  1  0  0  0  0
 15 32  1  0  0  0  0
 16 17  1  0  0  0  0
 16 33  1  0  0  0  0
 16 34  1  0  0  0  0
 17 18  1  0  0  0  0
 17 19  1  0  0  0  0
 17 35  1  0  0  0  0
 18 36  1  0  0  0  0
 18 37  1  0  0  0  0
 18 38  1  0  0  0  0
 19 39  1  0  0  0  0
 19 40  1  0  0  0  0
 19 41  1  0  0  0  0
 42 43  1  0  0  0  0
M  CHG  1  42   1
M  END
$$$$
ZINC00007330
  -OEChem-08230709403D

 45 47  0     1  0  0  0  0  0999 V2000
   -0.0127    1.0858    0.0080 C   0  0  0  0  0  0  0  0  0  0  0  0
   -0.6816    1.5467    1.1837 O   0  0  0  0  0  0  0  0  0  0  0  0
   -0.1485    1.1819    2.3803 C   0  0  0  0  0  0  0  0  0  0  0  0
    0.9945    0.3968    2.4200 C   0  0  0  0  0  0  0  0  0  0  0  0
    1.5359    0.0263    3.6353 C   0  0  0  0  0  0  0  0  0  0  0  0
    0.9367    0.4392    4.8163 C   0  0  0  0  0  0  0  0  0  0  0  0
   -0.2059    1.2241    4.7767 C   0  0  0  0  0  0  0  0  0  0  0  0
   -0.7442    1.5994    3.5610 C   0  0  0  0  0  0  0  0  0  0  0  0
   -0.8571    1.6722    6.0597 C   0  0  0  0  0  0  0  0  0  0  0  0
   -0.1756    2.9478    6.5590 C   0  0  1  0  0  0  0  0  0  0  0  0
   -0.1964    3.7051    5.7753 H   0  0  0  0  0  0  0  0  0  0  0  0
   -0.9075    3.4709    7.8005 C   0  0  0  0  0  0  0  0  0  0  0  0
   -0.3573    4.8543    8.1412 C   0  0  0  0  0  0  0  0  0  0  0  0
    1.1459    4.8260    8.2035 C   0  0  0  0  0  0  0  0  0  0  0  0
    1.8907    3.8157    7.6460 C   0  0  0  0  0  0  0  0  0  0  0  0
    3.2865    3.8823    7.7416 C   0  0  0  0  0  0  0  0  0  0  0  0
    3.8454    4.9110    8.3680 N   0  0  0  0  0  0  0  0  0  0  0  0
    3.0924    5.8638    8.8966 C   0  0  0  0  0  0  0  0  0  0  0  0
    1.7723    5.8259    8.8187 N   0  0  0  0  0  0  0  0  0  0  0  0
    3.7009    6.9236    9.5462 N   0  0  0  0  0  0  0  0  0  0  0  0
    4.0748    2.8855    7.1901 N   0  0  0  0  0  0  0  0  0  0  0  0
    1.2726    2.6415    6.9389 C   0  0  0  0  0  0  0  0  0  0  0  0
    1.4696    0.0741    6.0130 O   0  0  0  0  0  0  0  0  0  0  0  0
    2.6468   -0.7352    5.9790 C   0  0  0  0  0  0  0  0  0  0  0  0
    0.0021   -0.0041    0.0020 H   0  0  0  0  0  0  0  0  0  0  0  0
    1.0099    1.4631    0.0003 H   0  0  0  0  0  0  0  0  0  0  0  0
   -0.5399    1.4469   -0.8751 H   0  0  0  0  0  0  0  0  0  0  0  0
    1.4608    0.0750    1.5005 H   0  0  0  0  0  0  0  0  0  0  0  0
    2.4260   -0.5846    3.6662 H   0  0  0  0  0  0  0  0  0  0  0  0
   -1.6315    2.2143    3.5301 H   0  0  0  0  0  0  0  0  0  0  0  0
   -1.9138    1.8710    5.8807 H   0  0  0  0  0  0  0  0  0  0  0  0
   -0.7569    0.8889    6.8109 H   0  0  0  0  0  0  0  0  0  0  0  0
   -1.9757    3.5394    7.5942 H   0  0  0  0  0  0  0  0  0  0  0  0
   -0.7359    2.7955    8.6386 H   0  0  0  0  0  0  0  0  0  0  0  0
   -0.7520    5.1722    9.1062 H   0  0  0  0  0  0  0  0  0  0  0  0
   -0.6730    5.5626    7.3752 H   0  0  0  0  0  0  0  0  0  0  0  0
    3.1602    7.6274    9.9377 H   0  0  0  0  0  0  0  0  0  0  0  0
    4.6680    6.9626    9.6099 H   0  0  0  0  0  0  0  0  0  0  0  0
    3.6607    2.1360    6.7345 H   0  0  0  0  0  0  0  0  0  0  0  0
    5.0409    2.9372    7.2595 H   0  0  0  0  0  0  0  0  0  0  0  0
    1.2965    1.7720    7.5958 H   0  0  0  0  0  0  0  0  0  0  0  0
    1.8442    2.4267    6.0360 H   0  0  0  0  0  0  0  0  0  0  0  0
    2.4317   -1.6678    5.4574 H   0  0  0  0  0  0  0  0  0  0  0  0
    3.4400   -0.2010    5.4560 H   0  0  0  0  0  0  0  0  0  0  0  0
    2.9667   -0.9542    6.9978 H   0  0  0  0  0  0  0  0  0  0  0  0
  1  2  1  0  0  0  0
  1 25  1  0  0  0  0
  1 26  1  0  0  0  0
  1 27  1  0  0  0  0
  2  3  1  0  0  0  0
  3  8  2  0  0  0  0
  3  4  1  0  0  0  0
  4  5  2  0  0  0  0
  4 28  1  0  0  0  0
  5  6  1  0  0  0  0
  5 29  1  0  0  0  0
  6  7  2  0  0  0  0
  6 23  1  0  0  0  0
  7  8  1  0  0  0  0
  7  9  1  0  0  0  0
  8 30  1  0  0  0  0
  9 10  1  0  0  0  0
  9 31  1  0  0  0  0
  9 32  1  0  0  0  0
 10 11  1  0  0  0  0
 10 22  1  0  0  0  0
 10 12  1  0  0  0  0
 12 13  1  0  0  0  0
 12 33  1  0  0  0  0
 12 34  1  0  0  0  0
 13 14  1  0  0  0  0
 13 35  1  0  0  0  0
 13 36  1  0  0  0  0
 14 19  2  0  0  0  0
 14 15  1  0  0  0  0
 15 16  2  0  0  0  0
 15 22  1  0  0  0  0
 16 17  1  0  0  0  0
 16 21  1  0  0  0  0
 17 18  2  0  0  0  0
 18 19  1  0  0  0  0
 18 20  1  0  0  0  0
 20 37  1  0  0  0  0
 20 38  1  0  0  0  0
 21 39  1  0  0  0  0
 21 40  1  0  0  0  0
 22 41  1  0  0  0  0
 22 42  1  0  0  0  0
 23 24  1  0  0  0  0
 24 43  1  0  0  0  0
 24 44  1  0  0  0  0
 24 45  1  0  0  0  0
M  END
$$$$
ZINC00007330
  -OEChem-08230709403D

 46 48  0     1  0  0  0  0  0999 V2000
   -0.0127    1.0858    0.0080 C   0  0  0  0  0  0  0  0  0  0  0  0
   -0.6816    1.5467    1.1837 O   0  0  0  0  0  0  0  0  0  0  0  0
   -0.1485    1.1819    2.3803 C   0  0  0  0  0  0  0  0  0  0  0  0
    0.9945    0.3968    2.4200 C   0  0  0  0  0  0  0  0  0  0  0  0
    1.5359    0.0263    3.6353 C   0  0  0  0  0  0  0  0  0  0  0  0
    0.9367    0.4392    4.8163 C   0  0  0  0  0  0  0  0  0  0  0  0
   -0.2059    1.2241    4.7767 C   0  0  0  0  0  0  0  0  0  0  0  0
   -0.7442    1.5994    3.5610 C   0  0  0  0  0  0  0  0  0  0  0  0
   -0.8571    1.6722    6.0597 C   0  0  0  0  0  0  0  0  0  0  0  0
   -0.1756    2.9478    6.5590 C   0  0  1  0  0  0  0  0  0  0  0  0
   -0.1964    3.7051    5.7753 H   0  0  0  0  0  0  0  0  0  0  0  0
   -0.9075    3.4709    7.8005 C   0  0  0  0  0  0  0  0  0  0  0  0
   -0.3573    4.8543    8.1412 C   0  0  0  0  0  0  0  0  0  0  0  0
    1.1459    4.8260    8.2035 C   0  0  0  0  0  0  0  0  0  0  0  0
    1.8907    3.8157    7.6460 C   0  0  0  0  0  0  0  0  0  0  0  0
    3.2865    3.8823    7.7416 C   0  0  0  0  0  0  0  0  0  0  0  0
    3.8454    4.9110    8.3680 N   0  0  0  0  0  0  0  0  0  0  0  0
    3.0924    5.8638    8.8966 C   0  0  0  0  0  0  0  0  0  0  0  0
    3.7009    6.9236    9.5462 N   0  0  0  0  0  0  0  0  0  0  0  0
    4.0748    2.8855    7.1901 N   0  0  0  0  0  0  0  0  0  0  0  0
    1.2726    2.6415    6.9389 C   0  0  0  0  0  0  0  0  0  0  0  0
    1.4696    0.0741    6.0130 O   0  0  0  0  0  0  0  0  0  0  0  0
    2.6468   -0.7352    5.9790 C   0  0  0  0  0  0  0  0  0  0  0  0
    0.0021   -0.0041    0.0020 H   0  0  0  0  0  0  0  0  0  0  0  0
    1.0099    1.4631    0.0003 H   0  0  0  0  0  0  0  0  0  0  0  0
   -0.5399    1.4469   -0.8751 H   0  0  0  0  0  0  0  0  0  0  0  0
    1.4608    0.0750    1.5005 H   0  0  0  0  0  0  0  0  0  0  0  0
    2.4260   -0.5846    3.6662 H   0  0  0  0  0  0  0  0  0  0  0  0
   -1.6315    2.2143    3.5301 H   0  0  0  0  0  0  0  0  0  0  0  0
   -1.9138    1.8710    5.8807 H   0  0  0  0  0  0  0  0  0  0  0  0
   -0.7569    0.8889    6.8109 H   0  0  0  0  0  0  0  0  0  0  0  0
   -1.9757    3.5394    7.5942 H   0  0  0  0  0  0  0  0  0  0  0  0
   -0.7359    2.7955    8.6386 H   0  0  0  0  0  0  0  0  0  0  0  0
   -0.7520    5.1722    9.1062 H   0  0  0  0  0  0  0  0  0  0  0  0
   -0.6730    5.5626    7.3752 H   0  0  0  0  0  0  0  0  0  0  0  0
    3.1602    7.6274    9.9377 H   0  0  0  0  0  0  0  0  0  0  0  0
    4.6680    6.9626    9.6099 H   0  0  0  0  0  0  0  0  0  0  0  0
    3.6607    2.1360    6.7345 H   0  0  0  0  0  0  0  0  0  0  0  0
    5.0409    2.9372    7.2595 H   0  0  0  0  0  0  0  0  0  0  0  0
    1.2965    1.7720    7.5958 H   0  0  0  0  0  0  0  0  0  0  0  0
    1.8442    2.4267    6.0360 H   0  0  0  0  0  0  0  0  0  0  0  0
    2.4317   -1.6678    5.4574 H   0  0  0  0  0  0  0  0  0  0  0  0
    3.4400   -0.2010    5.4560 H   0  0  0  0  0  0  0  0  0  0  0  0
    2.9667   -0.9542    6.9978 H   0  0  0  0  0  0  0  0  0  0  0  0
    1.7312    5.8824    8.8503 N   0  3  0  0  0  0  0  0  0  0  0  0
    1.1624    6.6014    9.2497 H   0  0  0  0  0  0  0  0  0  0  0  0
  1  2  1  0  0  0  0
  1 24  1  0  0  0  0
  1 25  1  0  0  0  0
  1 26  1  0  0  0  0
  2  3  1  0  0  0  0
  3  8  2  0  0  0  0
  3  4  1  0  0  0  0
  4  5  2  0  0  0  0
  4 27  1  0  0  0  0
  5  6  1  0  0  0  0
  5 28  1  0  0  0  0
  6  7  2  0  0  0  0
  6 22  1  0  0  0  0
  7  8  1  0  0  0  0
  7  9  1  0  0  0  0
  8 29  1  0  0  0  0
  9 10  1  0  0  0  0
  9 30  1  0  0  0  0
  9 31  1  0  0  0  0
 10 11  1  0  0  0  0
 10 21  1  0  0  0  0
 10 12  1  0  0  0  0
 12 13  1  0  0  0  0
 12 32  1  0  0  0  0
 12 33  1  0  0  0  0
 13 14  1  0  0  0  0
 13 34  1  0  0  0  0
 13 35  1  0  0  0  0
 14 15  2  0  0  0  0
 14 45  1  0  0  0  0
 15 16  1  0  0  0  0
 15 21  1  0  0  0  0
 16 17  2  0  0  0  0
 16 20  1  0  0  0  0
 17 18  1  0  0  0  0
 18 19  1  0  0  0  0
 18 45  2  0  0  0  0
 19 36  1  0  0  0  0
 19 37  1  0  0  0  0
 20 38  1  0  0  0  0
 20 39  1  0  0  0  0
 21 40  1  0  0  0  0
 21 41  1  0  0  0  0
 22 23  1  0  0  0  0
 23 42  1  0  0  0  0
 23 43  1  0  0  0  0
 23 44  1  0  0  0  0
 45 46  1  0  0  0  0
M  CHG  1  45   1
M  END
$$$$
ZINC00007330
  -OEChem-08230709403D

 46 48  0     1  0  0  0  0  0999 V2000
    0.0147    1.0632    0.0127 C   0  0  0  0  0  0  0  0  0  0  0  0
   -0.6583    1.5300    1.1837 O   0  0  0  0  0  0  0  0  0  0  0  0
   -0.1318    1.1677    2.3840 C   0  0  0  0  0  0  0  0  0  0  0  0
    1.0087    0.3794    2.4317 C   0  0  0  0  0  0  0  0  0  0  0  0
    1.5434    0.0114    3.6507 C   0  0  0  0  0  0  0  0  0  0  0  0
    0.9399    0.4300    4.8275 C   0  0  0  0  0  0  0  0  0  0  0  0
   -0.2002    1.2180    4.7800 C   0  0  0  0  0  0  0  0  0  0  0  0
   -0.7318    1.5908    3.5605 C   0  0  0  0  0  0  0  0  0  0  0  0
   -0.8561    1.6723    6.0584 C   0  0  0  0  0  0  0  0  0  0  0  0
   -0.1733    2.9476    6.5566 C   0  0  1  0  0  0  0  0  0  0  0  0
   -0.1882    3.7023    5.7703 H   0  0  0  0  0  0  0  0  0  0  0  0
   -0.9094    3.4769    7.7930 C   0  0  0  0  0  0  0  0  0  0  0  0
   -0.3572    4.8562    8.1380 C   0  0  0  0  0  0  0  0  0  0  0  0
    1.1460    4.8274    8.2010 C   0  0  0  0  0  0  0  0  0  0  0  0
    1.8905    3.8131    7.6504 C   0  0  0  0  0  0  0  0  0  0  0  0
    3.2860    3.8757    7.7528 C   0  0  0  0  0  0  0  0  0  0  0  0
    3.8450    4.9052    8.3778 N   0  3  0  0  0  0  0  0  0  0  0  0
    3.0925    5.8653    8.8940 C   0  0  0  0  0  0  0  0  0  0  0  0
    3.7011    6.9259    9.5422 N   0  0  0  0  0  0  0  0  0  0  0  0
    4.0740    2.8756    7.2069 N   0  0  0  0  0  0  0  0  0  0  0  0
    1.2723    2.6392    6.9428 C   0  0  0  0  0  0  0  0  0  0  0  0
    1.4661    0.0673    6.0279 O   0  0  0  0  0  0  0  0  0  0  0  0
    2.6411   -0.7455    6.0021 C   0  0  0  0  0  0  0  0  0  0  0  0
    0.0264   -0.0267    0.0104 H   0  0  0  0  0  0  0  0  0  0  0  0
    1.0385    1.4376    0.0085 H   0  0  0  0  0  0  0  0  0  0  0  0
   -0.5073    1.4229   -0.8740 H   0  0  0  0  0  0  0  0  0  0  0  0
    1.4783    0.0532    1.5154 H   0  0  0  0  0  0  0  0  0  0  0  0
    2.4315   -0.6019    3.6878 H   0  0  0  0  0  0  0  0  0  0  0  0
   -1.6172    2.2082    3.5234 H   0  0  0  0  0  0  0  0  0  0  0  0
   -1.9114    1.8735    5.8738 H   0  0  0  0  0  0  0  0  0  0  0  0
   -0.7617    0.8912    6.8127 H   0  0  0  0  0  0  0  0  0  0  0  0
   -1.9764    3.5478    7.5815 H   0  0  0  0  0  0  0  0  0  0  0  0
   -0.7437    2.8038    8.6341 H   0  0  0  0  0  0  0  0  0  0  0  0
   -0.7522    5.1751    9.1025 H   0  0  0  0  0  0  0  0  0  0  0  0
   -0.6723    5.5638    7.3712 H   0  0  0  0  0  0  0  0  0  0  0  0
    3.1604    7.6303    9.9327 H   0  0  0  0  0  0  0  0  0  0  0  0
    4.6682    6.9649    9.6059 H   0  0  0  0  0  0  0  0  0  0  0  0
    3.6599    2.1261    6.7513 H   0  0  0  0  0  0  0  0  0  0  0  0
    5.0399    2.9250    7.2803 H   0  0  0  0  0  0  0  0  0  0  0  0
    1.2908    1.7710    7.6015 H   0  0  0  0  0  0  0  0  0  0  0  0
    1.8475    2.4210    6.0430 H   0  0  0  0  0  0  0  0  0  0  0  0
    2.4258   -1.6792    5.4826 H   0  0  0  0  0  0  0  0  0  0  0  0
    3.4383   -0.2153    5.4810 H   0  0  0  0  0  0  0  0  0  0  0  0
    2.9557   -0.9620    7.0231 H   0  0  0  0  0  0  0  0  0  0  0  0
    1.7314    5.8843    8.8470 N   0  0  0  0  0  0  0  0  0  0  0  0
    4.8401    4.9478    8.4662 H   0  0  0  0  0  0  0  0  0  0  0  0
  1  2  1  0  0  0  0
  1 24  1  0  0  0  0
  1 25  1  0  0  0  0
  1 26  1  0  0  0  0
  2  3  1  0  0  0  0
  3  8  2  0  0  0  0
  3  4  1  0  0  0  0
  4  5  2  0  0  0  0
  4 27  1  0  0  0  0
  5  6  1  0  0  0  0
  5 28  1  0  0  0  0
  6  7  2  0  0  0  0
  6 22  1  0  0  0  0
  7  8  1  0  0  0  0
  7  9  1  0  0  0  0
  8 29  1  0  0  0  0
  9 10  1  0  0  0  0
  9 30  1  0  0  0  0
  9 31  1  0  0  0  0
 10 11  1  0  0  0  0
 10 21  1  0  0  0  0
 10 12  1  0  0  0  0
 12 13  1  0  0  0  0
 12 32  1  0  0  0  0
 12 33  1  0  0  0  0
 13 14  1  0  0  0  0
 13 34  1  0  0  0  0
 13 35  1  0  0  0  0
 14 45  2  0  0  0  0
 14 15  1  0  0  0  0
 15 21  1  0  0  0  0
 15 16  2  0  0  0  0
 16 20  1  0  0  0  0
 16 17  1  0  0  0  0
 17 46  1  0  0  0  0
 17 18  2  0  0  0  0
 18 19  1  0  0  0  0
 18 45  1  0  0  0  0
 19 36  1  0  0  0  0
 19 37  1  0  0  0  0
 20 38  1  0  0  0  0
 20 39  1  0  0  0  0
 21 40  1  0  0  0  0
 21 41  1  0  0  0  0
 22 23  1  0  0  0  0
 23 42  1  0  0  0  0
 23 43  1  0  0  0  0
 23 44  1  0  0  0  0
M  CHG  1  17   1
M  END
$$$$
ZINC00007486
  -OEChem-08230709403D

 44 46  0     0  0  0  0  0  0999 V2000
    5.0550    1.2987   -2.7102 C   0  0  0  0  0  0  0  0  0  0  0  0
    4.0712    1.6081   -3.8091 C   0  0  0  0  0  0  0  0  0  0  0  0
    4.4821    2.3089   -4.9265 C   0  0  0  0  0  0  0  0  0  0  0  0
    3.5829    2.5934   -5.9363 C   0  0  0  0  0  0  0  0  0  0  0  0
    2.2632    2.1759   -5.8311 C   0  0  0  0  0  0  0  0  0  0  0  0
    1.8479    1.4690   -4.7139 C   0  0  0  0  0  0  0  0  0  0  0  0
    2.7515    1.1881   -3.6981 C   0  0  0  0  0  0  0  0  0  0  0  0
    2.3360    0.4792   -2.5687 N   0  0  0  0  0  0  0  0  0  0  0  0
    0.9442    0.0367   -2.4527 C   0  0  0  0  0  0  0  0  0  0  0  0
    0.7581   -0.7000   -1.1513 C   0  0  0  0  0  0  0  0  0  0  0  0
    0.7545   -2.0896   -1.1322 C   0  0  0  0  0  0  0  0  0  0  0  0
    0.5894   -2.7660   -0.0176 N   0  0  0  0  0  0  0  0  0  0  0  0
    0.4223   -2.1441    1.1501 C   0  0  0  0  0  0  0  0  0  0  0  0
    0.4214   -0.7281    1.1994 C   0  0  0  0  0  0  0  0  0  0  0  0
    0.5967   -0.0010    0.0160 C   0  0  0  0  0  0  0  0  0  0  0  0
    0.6016    1.5059    0.0249 C   0  0  0  0  0  0  0  0  0  0  0  0
    0.2422   -0.0944    2.4535 C   0  0  0  0  0  0  0  0  0  0  0  0
    0.0833   -0.8578    3.5256 N   0  0  0  0  0  0  0  0  0  0  0  0
    0.0906   -2.1844    3.4359 C   0  0  0  0  0  0  0  0  0  0  0  0
    0.2532   -2.8240    2.2927 N   0  0  0  0  0  0  0  0  0  0  0  0
   -0.0800   -2.9256    4.5895 N   0  0  0  0  0  0  0  0  0  0  0  0
    0.2328    1.2794    2.5563 N   0  0  0  0  0  0  0  0  0  0  0  0
    1.3801    2.4565   -6.8251 O   0  0  0  0  0  0  0  0  0  0  0  0
    1.8783    3.1847   -7.9492 C   0  0  0  0  0  0  0  0  0  0  0  0
    5.5342    0.3405   -2.9108 H   0  0  0  0  0  0  0  0  0  0  0  0
    5.8118    2.0820   -2.6690 H   0  0  0  0  0  0  0  0  0  0  0  0
    4.5303    1.2499   -1.7560 H   0  0  0  0  0  0  0  0  0  0  0  0
    5.5083    2.6347   -5.0112 H   0  0  0  0  0  0  0  0  0  0  0  0
    3.9073    3.1411   -6.8087 H   0  0  0  0  0  0  0  0  0  0  0  0
    0.8225    1.1401   -4.6321 H   0  0  0  0  0  0  0  0  0  0  0  0
    2.9688    0.2798   -1.8612 H   0  0  0  0  0  0  0  0  0  0  0  0
    0.7034   -0.6267   -3.2834 H   0  0  0  0  0  0  0  0  0  0  0  0
    0.2841    0.9038   -2.4770 H   0  0  0  0  0  0  0  0  0  0  0  0
    0.8873   -2.6282   -2.0588 H   0  0  0  0  0  0  0  0  0  0  0  0
    1.5930    1.8644    0.3018 H   0  0  0  0  0  0  0  0  0  0  0  0
    0.3455    1.8759   -0.9678 H   0  0  0  0  0  0  0  0  0  0  0  0
   -0.1303    1.8673    0.7473 H   0  0  0  0  0  0  0  0  0  0  0  0
   -0.2015   -2.4769    5.4409 H   0  0  0  0  0  0  0  0  0  0  0  0
   -0.0781   -3.8947    4.5480 H   0  0  0  0  0  0  0  0  0  0  0  0
   -0.4080    1.7178    3.1376 H   0  0  0  0  0  0  0  0  0  0  0  0
    0.8670    1.8081    2.0473 H   0  0  0  0  0  0  0  0  0  0  0  0
    2.2610    4.1495   -7.6164 H   0  0  0  0  0  0  0  0  0  0  0  0
    2.6812    2.6188   -8.4218 H   0  0  0  0  0  0  0  0  0  0  0  0
    1.0729    3.3412   -8.6667 H   0  0  0  0  0  0  0  0  0  0  0  0
  1  2  1  0  0  0  0
  1 25  1  0  0  0  0
  1 26  1  0  0  0  0
  1 27  1  0  0  0  0
  2  7  2  0  0  0  0
  2  3  1  0  0  0  0
  3  4  2  0  0  0  0
  3 28  1  0  0  0  0
  4  5  1  0  0  0  0
  4 29  1  0  0  0  0
  5  6  2  0  0  0  0
  5 23  1  0  0  0  0
  6  7  1  0  0  0  0
  6 30  1  0  0  0  0
  7  8  1  0  0  0  0
  8  9  1  0  0  0  0
  8 31  1  0  0  0  0
  9 10  1  0  0  0  0
  9 32  1  0  0  0  0
  9 33  1  0  0  0  0
 10 15  2  0  0  0  0
 10 11  1  0  0  0  0
 11 12  2  0  0  0  0
 11 34  1  0  0  0  0
 12 13  1  0  0  0  0
 13 20  2  0  0  0  0
 13 14  1  0  0  0  0
 14 15  1  0  0  0  0
 14 17  2  0  0  0  0
 15 16  1  0  0  0  0
 16 35  1  0  0  0  0
 16 36  1  0  0  0  0
 16 37  1  0  0  0  0
 17 18  1  0  0  0  0
 17 22  1  0  0  0  0
 18 19  2  0  0  0  0
 19 20  1  0  0  0  0
 19 21  1  0  0  0  0
 21 38  1  0  0  0  0
 21 39  1  0  0  0  0
 22 40  1  0  0  0  0
 22 41  1  0  0  0  0
 23 24  1  0  0  0  0
 24 42  1  0  0  0  0
 24 43  1  0  0  0  0
 24 44  1  0  0  0  0
M  END
$$$$
ZINC00007486
  -OEChem-08230709403D

 45 47  0     0  0  0  0  0  0999 V2000
    5.0550    1.2987   -2.7102 C   0  0  0  0  0  0  0  0  0  0  0  0
    4.0712    1.6081   -3.8091 C   0  0  0  0  0  0  0  0  0  0  0  0
    4.4821    2.3089   -4.9265 C   0  0  0  0  0  0  0  0  0  0  0  0
    3.5829    2.5934   -5.9363 C   0  0  0  0  0  0  0  0  0  0  0  0
    2.2632    2.1759   -5.8311 C   0  0  0  0  0  0  0  0  0  0  0  0
    1.8479    1.4690   -4.7139 C   0  0  0  0  0  0  0  0  0  0  0  0
    2.7515    1.1881   -3.6981 C   0  0  0  0  0  0  0  0  0  0  0  0
    2.3360    0.4792   -2.5687 N   0  0  0  0  0  0  0  0  0  0  0  0
    0.9442    0.0367   -2.4527 C   0  0  0  0  0  0  0  0  0  0  0  0
    0.7581   -0.7000   -1.1513 C   0  0  0  0  0  0  0  0  0  0  0  0
    0.7545   -2.0896   -1.1322 C   0  0  0  0  0  0  0  0  0  0  0  0
    0.5894   -2.7660   -0.0176 N   0  0  0  0  0  0  0  0  0  0  0  0
    0.4223   -2.1441    1.1501 C   0  0  0  0  0  0  0  0  0  0  0  0
    0.4214   -0.7281    1.1994 C   0  0  0  0  0  0  0  0  0  0  0  0
    0.5967   -0.0010    0.0160 C   0  0  0  0  0  0  0  0  0  0  0  0
    0.6016    1.5059    0.0249 C   0  0  0  0  0  0  0  0  0  0  0  0
    0.2422   -0.0944    2.4535 C   0  0  0  0  0  0  0  0  0  0  0  0
    0.0833   -0.8578    3.5256 N   0  0  0  0  0  0  0  0  0  0  0  0
    0.0906   -2.1844    3.4359 C   0  0  0  0  0  0  0  0  0  0  0  0
   -0.0800   -2.9256    4.5895 N   0  0  0  0  0  0  0  0  0  0  0  0
    0.2328    1.2794    2.5563 N   0  0  0  0  0  0  0  0  0  0  0  0
    1.3801    2.4565   -6.8251 O   0  0  0  0  0  0  0  0  0  0  0  0
    1.8783    3.1847   -7.9492 C   0  0  0  0  0  0  0  0  0  0  0  0
    5.5342    0.3405   -2.9108 H   0  0  0  0  0  0  0  0  0  0  0  0
    5.8118    2.0820   -2.6690 H   0  0  0  0  0  0  0  0  0  0  0  0
    4.5303    1.2499   -1.7560 H   0  0  0  0  0  0  0  0  0  0  0  0
    5.5083    2.6347   -5.0112 H   0  0  0  0  0  0  0  0  0  0  0  0
    3.9073    3.1411   -6.8087 H   0  0  0  0  0  0  0  0  0  0  0  0
    0.8225    1.1401   -4.6321 H   0  0  0  0  0  0  0  0  0  0  0  0
    2.9688    0.2798   -1.8612 H   0  0  0  0  0  0  0  0  0  0  0  0
    0.7034   -0.6267   -3.2834 H   0  0  0  0  0  0  0  0  0  0  0  0
    0.2841    0.9038   -2.4770 H   0  0  0  0  0  0  0  0  0  0  0  0
    0.8873   -2.6282   -2.0588 H   0  0  0  0  0  0  0  0  0  0  0  0
    1.5930    1.8644    0.3018 H   0  0  0  0  0  0  0  0  0  0  0  0
    0.3455    1.8759   -0.9678 H   0  0  0  0  0  0  0  0  0  0  0  0
   -0.1303    1.8673    0.7473 H   0  0  0  0  0  0  0  0  0  0  0  0
   -0.2015   -2.4769    5.4409 H   0  0  0  0  0  0  0  0  0  0  0  0
   -0.0781   -3.8947    4.5480 H   0  0  0  0  0  0  0  0  0  0  0  0
   -0.4080    1.7178    3.1376 H   0  0  0  0  0  0  0  0  0  0  0  0
    0.8670    1.8081    2.0473 H   0  0  0  0  0  0  0  0  0  0  0  0
    2.2610    4.1495   -7.6164 H   0  0  0  0  0  0  0  0  0  0  0  0
    2.6812    2.6188   -8.4218 H   0  0  0  0  0  0  0  0  0  0  0  0
    1.0729    3.3412   -8.6667 H   0  0  0  0  0  0  0  0  0  0  0  0
    0.2529   -2.8962    2.2920 N   0  3  0  0  0  0  0  0  0  0  0  0
    0.2558   -3.8947    2.2380 H   0  0  0  0  0  0  0  0  0  0  0  0
  1  2  1  0  0  0  0
  1 24  1  0  0  0  0
  1 25  1  0  0  0  0
  1 26  1  0  0  0  0
  2  7  2  0  0  0  0
  2  3  1  0  0  0  0
  3  4  2  0  0  0  0
  3 27  1  0  0  0  0
  4  5  1  0  0  0  0
  4 28  1  0  0  0  0
  5  6  2  0  0  0  0
  5 22  1  0  0  0  0
  6  7  1  0  0  0  0
  6 29  1  0  0  0  0
  7  8  1  0  0  0  0
  8  9  1  0  0  0  0
  8 30  1  0  0  0  0
  9 10  1  0  0  0  0
  9 31  1  0  0  0  0
  9 32  1  0  0  0  0
 10 15  2  0  0  0  0
 10 11  1  0  0  0  0
 11 12  2  0  0  0  0
 11 33  1  0  0  0  0
 12 13  1  0  0  0  0
 13 14  2  0  0  0  0
 13 44  1  0  0  0  0
 14 15  1  0  0  0  0
 14 17  1  0  0  0  0
 15 16  1  0  0  0  0
 16 34  1  0  0  0  0
 16 35  1  0  0  0  0
 16 36  1  0  0  0  0
 17 18  2  0  0  0  0
 17 21  1  0  0  0  0
 18 19  1  0  0  0  0
 19 20  1  0  0  0  0
 19 44  2  0  0  0  0
 20 37  1  0  0  0  0
 20 38  1  0  0  0  0
 21 39  1  0  0  0  0
 21 40  1  0  0  0  0
 22 23  1  0  0  0  0
 23 41  1  0  0  0  0
 23 42  1  0  0  0  0
 23 43  1  0  0  0  0
 44 45  1  0  0  0  0
M  CHG  1  44   1
M  END
$$$$
ZINC00007519
  -OEChem-08230709403D

 42 44  0     0  0  0  0  0  0999 V2000
    2.4260   -0.3567    0.0862 C   0  0  0  0  0  0  0  0  0  0  0  0
    2.4018    1.1046   -0.0155 N   0  0  0  0  0  0  0  0  0  0  0  0
    1.1798    1.7871    0.0007 C   0  0  0  0  0  0  0  0  0  0  0  0
    1.1602    3.1756    0.0195 C   0  0  0  0  0  0  0  0  0  0  0  0
   -0.0454    3.8509    0.0354 C   0  0  0  0  0  0  0  0  0  0  0  0
   -1.2371    3.1441    0.0317 C   0  0  0  0  0  0  0  0  0  0  0  0
   -1.2209    1.7529    0.0071 C   0  0  0  0  0  0  0  0  0  0  0  0
   -0.0127    1.0760   -0.0026 C   0  0  0  0  0  0  0  0  0  0  0  0
   -2.3902    1.0587   -0.0018 O   0  0  0  0  0  0  0  0  0  0  0  0
   -2.2980   -0.3672   -0.0212 C   0  0  0  0  0  0  0  0  0  0  0  0
   -2.4234    3.8106    0.0465 O   0  0  0  0  0  0  0  0  0  0  0  0
   -2.3653    5.2383    0.0655 C   0  0  0  0  0  0  0  0  0  0  0  0
    3.5921    1.8132   -0.1279 C   0  0  0  0  0  0  0  0  0  0  0  0
    4.2975    2.1571    1.0337 C   0  0  0  0  0  0  0  0  0  0  0  0
    5.4669    2.8522    0.9381 C   0  0  0  0  0  0  0  0  0  0  0  0
    5.9288    3.2040   -0.3441 C   0  0  0  0  0  0  0  0  0  0  0  0
    5.1696    2.8265   -1.4749 C   0  0  0  0  0  0  0  0  0  0  0  0
    4.0354    2.1424   -1.3245 N   0  0  0  0  0  0  0  0  0  0  0  0
    5.6559    3.1921   -2.7570 C   0  0  0  0  0  0  0  0  0  0  0  0
    6.7928    3.8663   -2.8308 N   0  0  0  0  0  0  0  0  0  0  0  0
    7.4742    4.2003   -1.7387 C   0  0  0  0  0  0  0  0  0  0  0  0
    7.0681    3.8861   -0.5234 N   0  0  0  0  0  0  0  0  0  0  0  0
    8.6568    4.9053   -1.8828 N   0  0  0  0  0  0  0  0  0  0  0  0
    4.9601    2.8532   -3.8995 N   0  0  0  0  0  0  0  0  0  0  0  0
    2.3782   -0.7912   -0.9123 H   0  0  0  0  0  0  0  0  0  0  0  0
    3.3475   -0.6716    0.5758 H   0  0  0  0  0  0  0  0  0  0  0  0
    1.5703   -0.6945    0.6708 H   0  0  0  0  0  0  0  0  0  0  0  0
    2.0881    3.7282    0.0221 H   0  0  0  0  0  0  0  0  0  0  0  0
   -0.0587    4.9307    0.0504 H   0  0  0  0  0  0  0  0  0  0  0  0
    0.0019   -0.0038   -0.0172 H   0  0  0  0  0  0  0  0  0  0  0  0
   -1.7614   -0.7086    0.8640 H   0  0  0  0  0  0  0  0  0  0  0  0
   -3.3000   -0.7961   -0.0266 H   0  0  0  0  0  0  0  0  0  0  0  0
   -1.7621   -0.6845   -0.9158 H   0  0  0  0  0  0  0  0  0  0  0  0
   -1.8327    5.5684    0.9574 H   0  0  0  0  0  0  0  0  0  0  0  0
   -1.8414    5.5925   -0.8223 H   0  0  0  0  0  0  0  0  0  0  0  0
   -3.3773    5.6431    0.0759 H   0  0  0  0  0  0  0  0  0  0  0  0
    3.9154    1.8722    2.0028 H   0  0  0  0  0  0  0  0  0  0  0  0
    6.0236    3.1252    1.8223 H   0  0  0  0  0  0  0  0  0  0  0  0
    8.9733    5.1459   -2.7676 H   0  0  0  0  0  0  0  0  0  0  0  0
    9.1690    5.1587   -1.0990 H   0  0  0  0  0  0  0  0  0  0  0  0
    4.1280    2.3593   -3.8320 H   0  0  0  0  0  0  0  0  0  0  0  0
    5.3031    3.1089   -4.7700 H   0  0  0  0  0  0  0  0  0  0  0  0
  1  2  1  0  0  0  0
  1 25  1  0  0  0  0
  1 26  1  0  0  0  0
  1 27  1  0  0  0  0
  2  3  1  0  0  0  0
  2 13  1  0  0  0  0
  3  8  2  0  0  0  0
  3  4  1  0  0  0  0
  4  5  2  0  0  0  0
  4 28  1  0  0  0  0
  5  6  1  0  0  0  0
  5 29  1  0  0  0  0
  6  7  2  0  0  0  0
  6 11  1  0  0  0  0
  7  8  1  0  0  0  0
  7  9  1  0  0  0  0
  8 30  1  0  0  0  0
  9 10  1  0  0  0  0
 10 31  1  0  0  0  0
 10 32  1  0  0  0  0
 10 33  1  0  0  0  0
 11 12  1  0  0  0  0
 12 34  1  0  0  0  0
 12 35  1  0  0  0  0
 12 36  1  0  0  0  0
 13 18  2  0  0  0  0
 13 14  1  0  0  0  0
 14 15  2  0  0  0  0
 14 37  1  0  0  0  0
 15 16  1  0  0  0  0
 15 38  1  0  0  0  0
 16 22  2  0  0  0  0
 16 17  1  0  0  0  0
 17 18  1  0  0  0  0
 17 19  2  0  0  0  0
 19 20  1  0  0  0  0
 19 24  1  0  0  0  0
 20 21  2  0  0  0  0
 21 22  1  0  0  0  0
 21 23  1  0  0  0  0
 23 39  1  0  0  0  0
 23 40  1  0  0  0  0
 24 41  1  0  0  0  0
 24 42  1  0  0  0  0
M  END
$$$$
ZINC00007519
  -OEChem-08230709403D

 42 44  0     0  0  0  0  0  0999 V2000
    2.4260   -0.3567    0.0862 C   0  0  0  0  0  0  0  0  0  0  0  0
    2.4018    1.1046   -0.0155 N   0  0  0  0  0  0  0  0  0  0  0  0
    1.1798    1.7871    0.0007 C   0  0  0  0  0  0  0  0  0  0  0  0
    1.1602    3.1756    0.0195 C   0  0  0  0  0  0  0  0  0  0  0  0
   -0.0454    3.8509    0.0354 C   0  0  0  0  0  0  0  0  0  0  0  0
   -1.2371    3.1441    0.0317 C   0  0  0  0  0  0  0  0  0  0  0  0
   -1.2209    1.7529    0.0071 C   0  0  0  0  0  0  0  0  0  0  0  0
   -0.0127    1.0760   -0.0026 C   0  0  0  0  0  0  0  0  0  0  0  0
   -2.3902    1.0587   -0.0018 O   0  0  0  0  0  0  0  0  0  0  0  0
   -2.2980   -0.3672   -0.0212 C   0  0  0  0  0  0  0  0  0  0  0  0
   -2.4234    3.8106    0.0465 O   0  0  0  0  0  0  0  0  0  0  0  0
   -2.3653    5.2383    0.0655 C   0  0  0  0  0  0  0  0  0  0  0  0
    3.5921    1.8132   -0.1279 C   0  0  0  0  0  0  0  0  0  0  0  0
    4.2975    2.1571    1.0337 C   0  0  0  0  0  0  0  0  0  0  0  0
    5.4669    2.8522    0.9381 C   0  0  0  0  0  0  0  0  0  0  0  0
    5.9288    3.2040   -0.3441 C   0  0  0  0  0  0  0  0  0  0  0  0
    5.1696    2.8265   -1.4749 C   0  0  0  0  0  0  0  0  0  0  0  0
    4.0354    2.1424   -1.3245 N   0  0  0  0  0  0  0  0  0  0  0  0
    5.6559    3.1921   -2.7570 C   0  0  0  0  0  0  0  0  0  0  0  0
    6.7928    3.8663   -2.8308 N   0  0  0  0  0  0  0  0  0  0  0  0
    7.4742    4.2003   -1.7387 C   0  0  0  0  0  0  0  0  0  0  0  0
    7.0681    3.8861   -0.5234 N   0  0  0  0  0  0  0  0  0  0  0  0
    8.6568    4.9053   -1.8828 N   0  0  0  0  0  0  0  0  0  0  0  0
    4.9601    2.8532   -3.8995 N   0  0  0  0  0  0  0  0  0  0  0  0
    2.3782   -0.7912   -0.9123 H   0  0  0  0  0  0  0  0  0  0  0  0
    3.3475   -0.6716    0.5758 H   0  0  0  0  0  0  0  0  0  0  0  0
    1.5703   -0.6945    0.6708 H   0  0  0  0  0  0  0  0  0  0  0  0
    2.0881    3.7282    0.0221 H   0  0  0  0  0  0  0  0  0  0  0  0
   -0.0587    4.9307    0.0504 H   0  0  0  0  0  0  0  0  0  0  0  0
    0.0019   -0.0038   -0.0172 H   0  0  0  0  0  0  0  0  0  0  0  0
   -1.7614   -0.7086    0.8640 H   0  0  0  0  0  0  0  0  0  0  0  0
   -3.3000   -0.7961   -0.0266 H   0  0  0  0  0  0  0  0  0  0  0  0
   -1.7621   -0.6845   -0.9158 H   0  0  0  0  0  0  0  0  0  0  0  0
   -1.8327    5.5684    0.9574 H   0  0  0  0  0  0  0  0  0  0  0  0
   -1.8414    5.5925   -0.8223 H   0  0  0  0  0  0  0  0  0  0  0  0
   -3.3773    5.6431    0.0759 H   0  0  0  0  0  0  0  0  0  0  0  0
    3.9154    1.8722    2.0028 H   0  0  0  0  0  0  0  0  0  0  0  0
    6.0236    3.1252    1.8223 H   0  0  0  0  0  0  0  0  0  0  0  0
    8.9733    5.1459   -2.7676 H   0  0  0  0  0  0  0  0  0  0  0  0
    9.1690    5.1587   -1.0990 H   0  0  0  0  0  0  0  0  0  0  0  0
    4.1280    2.3593   -3.8320 H   0  0  0  0  0  0  0  0  0  0  0  0
    5.3031    3.1089   -4.7700 H   0  0  0  0  0  0  0  0  0  0  0  0
  1  2  1  0  0  0  0
  1 25  1  0  0  0  0
  1 26  1  0  0  0  0
  1 27  1  0  0  0  0
  2  3  1  0  0  0  0
  2 13  1  0  0  0  0
  3  8  2  0  0  0  0
  3  4  1  0  0  0  0
  4  5  2  0  0  0  0
  4 28  1  0  0  0  0
  5  6  1  0  0  0  0
  5 29  1  0  0  0  0
  6  7  2  0  0  0  0
  6 11  1  0  0  0  0
  7  8  1  0  0  0  0
  7  9  1  0  0  0  0
  8 30  1  0  0  0  0
  9 10  1  0  0  0  0
 10 31  1  0  0  0  0
 10 32  1  0  0  0  0
 10 33  1  0  0  0  0
 11 12  1  0  0  0  0
 12 34  1  0  0  0  0
 12 35  1  0  0  0  0
 12 36  1  0  0  0  0
 13 18  2  0  0  0  0
 13 14  1  0  0  0  0
 14 15  2  0  0  0  0
 14 37  1  0  0  0  0
 15 16  1  0  0  0  0
 15 38  1  0  0  0  0
 16 22  2  0  0  0  0
 16 17  1  0  0  0  0
 17 18  1  0  0  0  0
 17 19  2  0  0  0  0
 19 20  1  0  0  0  0
 19 24  1  0  0  0  0
 20 21  2  0  0  0  0
 21 22  1  0  0  0  0
 21 23  1  0  0  0  0
 23 39  1  0  0  0  0
 23 40  1  0  0  0  0
 24 41  1  0  0  0  0
 24 42  1  0  0  0  0
M  END
$$$$
ZINC00007637
  -OEChem-08230709403D

 37 39  0     0  0  0  0  0  0999 V2000
    0.6018    1.5059    0.0250 C   0  0  0  0  0  0  0  0  0  0  0  0
    0.5970   -0.0011    0.0161 C   0  0  0  0  0  0  0  0  0  0  0  0
    0.7585   -0.7002   -1.1515 C   0  0  0  0  0  0  0  0  0  0  0  0
    0.7532   -2.0894   -1.1326 C   0  0  0  0  0  0  0  0  0  0  0  0
    0.5888   -2.7658   -0.0176 N   0  0  0  0  0  0  0  0  0  0  0  0
    0.4225   -2.1439    1.1498 C   0  0  0  0  0  0  0  0  0  0  0  0
    0.4215   -0.7279    1.1991 C   0  0  0  0  0  0  0  0  0  0  0  0
    0.2422   -0.0940    2.4535 C   0  0  0  0  0  0  0  0  0  0  0  0
    0.0832   -0.8573    3.5253 N   0  0  0  0  0  0  0  0  0  0  0  0
    0.0905   -2.1842    3.4357 C   0  0  0  0  0  0  0  0  0  0  0  0
    0.2532   -2.8238    2.2928 N   0  0  0  0  0  0  0  0  0  0  0  0
   -0.0802   -2.9254    4.5893 N   0  0  0  0  0  0  0  0  0  0  0  0
    0.2328    1.2797    2.5563 N   0  0  0  0  0  0  0  0  0  0  0  0
    0.9447    0.0365   -2.4530 C   0  0  0  0  0  0  0  0  0  0  0  0
    2.3364    0.4790   -2.5689 N   0  0  0  0  0  0  0  0  0  0  0  0
    2.7523    1.1883   -3.6989 C   0  0  0  0  0  0  0  0  0  0  0  0
    1.8490    1.4696   -4.7156 C   0  0  0  0  0  0  0  0  0  0  0  0
    2.2619    2.1754   -5.8287 C   0  0  0  0  0  0  0  0  0  0  0  0
    3.5759    2.5927   -5.9371 C   0  0  0  0  0  0  0  0  0  0  0  0
    4.4798    2.3101   -4.9297 C   0  0  0  0  0  0  0  0  0  0  0  0
    4.0723    1.6088   -3.8106 C   0  0  0  0  0  0  0  0  0  0  0  0
    5.2078    1.2533   -2.5464 Cl  0  0  0  0  0  0  0  0  0  0  0  0
    1.5932    1.8644    0.3020 H   0  0  0  0  0  0  0  0  0  0  0  0
    0.3459    1.8759   -0.9678 H   0  0  0  0  0  0  0  0  0  0  0  0
   -0.1301    1.8674    0.7473 H   0  0  0  0  0  0  0  0  0  0  0  0
    0.8854   -2.6280   -2.0594 H   0  0  0  0  0  0  0  0  0  0  0  0
   -0.2018   -2.4766    5.4406 H   0  0  0  0  0  0  0  0  0  0  0  0
   -0.0784   -3.8945    4.5478 H   0  0  0  0  0  0  0  0  0  0  0  0
   -0.4080    1.7182    3.1377 H   0  0  0  0  0  0  0  0  0  0  0  0
    0.8670    1.8085    2.0474 H   0  0  0  0  0  0  0  0  0  0  0  0
    0.7040   -0.6270   -3.2836 H   0  0  0  0  0  0  0  0  0  0  0  0
    0.2845    0.9035   -2.4774 H   0  0  0  0  0  0  0  0  0  0  0  0
    2.9693    0.2796   -1.8613 H   0  0  0  0  0  0  0  0  0  0  0  0
    0.8237    1.1401   -4.6341 H   0  0  0  0  0  0  0  0  0  0  0  0
    1.5587    2.3976   -6.6177 H   0  0  0  0  0  0  0  0  0  0  0  0
    3.8969    3.1402   -6.8110 H   0  0  0  0  0  0  0  0  0  0  0  0
    5.5052    2.6374   -5.0175 H   0  0  0  0  0  0  0  0  0  0  0  0
  1  2  1  0  0  0  0
  1 23  1  0  0  0  0
  1 24  1  0  0  0  0
  1 25  1  0  0  0  0
  2  7  2  0  0  0  0
  2  3  1  0  0  0  0
  3  4  2  0  0  0  0
  3 14  1  0  0  0  0
  4  5  1  0  0  0  0
  4 26  1  0  0  0  0
  5  6  2  0  0  0  0
  6 11  1  0  0  0  0
  6  7  1  0  0  0  0
  7  8  1  0  0  0  0
  8  9  2  0  0  0  0
  8 13  1  0  0  0  0
  9 10  1  0  0  0  0
 10 11  2  0  0  0  0
 10 12  1  0  0  0  0
 12 27  1  0  0  0  0
 12 28  1  0  0  0  0
 13 29  1  0  0  0  0
 13 30  1  0  0  0  0
 14 15  1  0  0  0  0
 14 31  1  0  0  0  0
 14 32  1  0  0  0  0
 15 16  1  0  0  0  0
 15 33  1  0  0  0  0
 16 21  2  0  0  0  0
 16 17  1  0  0  0  0
 17 18  2  0  0  0  0
 17 34  1  0  0  0  0
 18 19  1  0  0  0  0
 18 35  1  0  0  0  0
 19 20  2  0  0  0  0
 19 36  1  0  0  0  0
 20 21  1  0  0  0  0
 20 37  1  0  0  0  0
 21 22  1  0  0  0  0
M  END
$$$$
ZINC00007637
  -OEChem-08230709403D

 38 40  0     0  0  0  0  0  0999 V2000
    0.6018    1.5059    0.0250 C   0  0  0  0  0  0  0  0  0  0  0  0
    0.5970   -0.0011    0.0161 C   0  0  0  0  0  0  0  0  0  0  0  0
    0.7585   -0.7002   -1.1515 C   0  0  0  0  0  0  0  0  0  0  0  0
    0.7532   -2.0894   -1.1326 C   0  0  0  0  0  0  0  0  0  0  0  0
    0.5888   -2.7658   -0.0176 N   0  0  0  0  0  0  0  0  0  0  0  0
    0.4225   -2.1439    1.1498 C   0  0  0  0  0  0  0  0  0  0  0  0
    0.4215   -0.7279    1.1991 C   0  0  0  0  0  0  0  0  0  0  0  0
    0.2422   -0.0940    2.4535 C   0  0  0  0  0  0  0  0  0  0  0  0
    0.0832   -0.8573    3.5253 N   0  0  0  0  0  0  0  0  0  0  0  0
    0.0905   -2.1842    3.4357 C   0  0  0  0  0  0  0  0  0  0  0  0
   -0.0802   -2.9254    4.5893 N   0  0  0  0  0  0  0  0  0  0  0  0
    0.2328    1.2797    2.5563 N   0  0  0  0  0  0  0  0  0  0  0  0
    0.9447    0.0365   -2.4530 C   0  0  0  0  0  0  0  0  0  0  0  0
    2.3364    0.4790   -2.5689 N   0  0  0  0  0  0  0  0  0  0  0  0
    2.7523    1.1883   -3.6989 C   0  0  0  0  0  0  0  0  0  0  0  0
    1.8490    1.4696   -4.7156 C   0  0  0  0  0  0  0  0  0  0  0  0
    2.2619    2.1754   -5.8287 C   0  0  0  0  0  0  0  0  0  0  0  0
    3.5759    2.5927   -5.9371 C   0  0  0  0  0  0  0  0  0  0  0  0
    4.4798    2.3101   -4.9297 C   0  0  0  0  0  0  0  0  0  0  0  0
    4.0723    1.6088   -3.8106 C   0  0  0  0  0  0  0  0  0  0  0  0
    5.2078    1.2533   -2.5464 Cl  0  0  0  0  0  0  0  0  0  0  0  0
    1.5932    1.8644    0.3020 H   0  0  0  0  0  0  0  0  0  0  0  0
    0.3459    1.8759   -0.9678 H   0  0  0  0  0  0  0  0  0  0  0  0
   -0.1301    1.8674    0.7473 H   0  0  0  0  0  0  0  0  0  0  0  0
    0.8854   -2.6280   -2.0594 H   0  0  0  0  0  0  0  0  0  0  0  0
   -0.2018   -2.4766    5.4406 H   0  0  0  0  0  0  0  0  0  0  0  0
   -0.0784   -3.8945    4.5478 H   0  0  0  0  0  0  0  0  0  0  0  0
   -0.4080    1.7182    3.1377 H   0  0  0  0  0  0  0  0  0  0  0  0
    0.8670    1.8085    2.0474 H   0  0  0  0  0  0  0  0  0  0  0  0
    0.7040   -0.6270   -3.2836 H   0  0  0  0  0  0  0  0  0  0  0  0
    0.2845    0.9035   -2.4774 H   0  0  0  0  0  0  0  0  0  0  0  0
    2.9693    0.2796   -1.8613 H   0  0  0  0  0  0  0  0  0  0  0  0
    0.8237    1.1401   -4.6341 H   0  0  0  0  0  0  0  0  0  0  0  0
    1.5587    2.3976   -6.6177 H   0  0  0  0  0  0  0  0  0  0  0  0
    3.8969    3.1402   -6.8110 H   0  0  0  0  0  0  0  0  0  0  0  0
    5.5052    2.6374   -5.0175 H   0  0  0  0  0  0  0  0  0  0  0  0
    0.2529   -2.8960    2.2921 N   0  3  0  0  0  0  0  0  0  0  0  0
    0.2439   -3.8956    2.3198 H   0  0  0  0  0  0  0  0  0  0  0  0
  1  2  1  0  0  0  0
  1 22  1  0  0  0  0
  1 23  1  0  0  0  0
  1 24  1  0  0  0  0
  2  7  2  0  0  0  0
  2  3  1  0  0  0  0
  3  4  2  0  0  0  0
  3 13  1  0  0  0  0
  4  5  1  0  0  0  0
  4 25  1  0  0  0  0
  5  6  2  0  0  0  0
  6  7  1  0  0  0  0
  6 37  1  0  0  0  0
  7  8  1  0  0  0  0
  8  9  2  0  0  0  0
  8 12  1  0  0  0  0
  9 10  1  0  0  0  0
 10 11  1  0  0  0  0
 10 37  2  0  0  0  0
 11 26  1  0  0  0  0
 11 27  1  0  0  0  0
 12 28  1  0  0  0  0
 12 29  1  0  0  0  0
 13 14  1  0  0  0  0
 13 30  1  0  0  0  0
 13 31  1  0  0  0  0
 14 15  1  0  0  0  0
 14 32  1  0  0  0  0
 15 20  2  0  0  0  0
 15 16  1  0  0  0  0
 16 17  2  0  0  0  0
 16 33  1  0  0  0  0
 17 18  1  0  0  0  0
 17 34  1  0  0  0  0
 18 19  2  0  0  0  0
 18 35  1  0  0  0  0
 19 20  1  0  0  0  0
 19 36  1  0  0  0  0
 20 21  1  0  0  0  0
 37 38  1  0  0  0  0
M  CHG  1  37   1
M  END
$$$$
ZINC00023462
  -OEChem-08230709403D

 41 43  0     1  0  0  0  0  0999 V2000
   -4.0846    3.2183    0.8774 C   0  0  0  0  0  0  0  0  0  0  0  0
   -2.9637    2.6788    0.1741 O   0  0  0  0  0  0  0  0  0  0  0  0
   -3.1789    1.5568   -0.5619 C   0  0  0  0  0  0  0  0  0  0  0  0
   -4.4430    0.9864   -0.6058 C   0  0  0  0  0  0  0  0  0  0  0  0
   -4.6591   -0.1542   -1.3542 C   0  0  0  0  0  0  0  0  0  0  0  0
   -3.6167   -0.7280   -2.0589 C   0  0  0  0  0  0  0  0  0  0  0  0
   -2.3576   -0.1584   -2.0212 C   0  0  0  0  0  0  0  0  0  0  0  0
   -2.1351    0.9796   -1.2699 C   0  0  0  0  0  0  0  0  0  0  0  0
   -0.7610    1.5967   -1.2248 C   0  0  0  0  0  0  0  0  0  0  0  0
   -0.0127    1.0858    0.0080 C   0  0  1  0  0  0  0  0  0  0  0  0
    0.0021   -0.0041    0.0020 H   0  0  0  0  0  0  0  0  0  0  0  0
    1.4241    1.6208   -0.0028 C   0  0  0  0  0  0  0  0  0  0  0  0
    2.2136    0.9111    1.0962 C   0  0  0  0  0  0  0  0  0  0  0  0
    1.4763    0.9853    2.4058 C   0  0  0  0  0  0  0  0  0  0  0  0
    0.1388    1.2865    2.4860 C   0  0  0  0  0  0  0  0  0  0  0  0
   -0.4638    1.3259    3.7497 C   0  0  0  0  0  0  0  0  0  0  0  0
    0.2713    1.0762    4.8269 N   0  0  0  0  0  0  0  0  0  0  0  0
    1.5597    0.7929    4.7086 C   0  0  0  0  0  0  0  0  0  0  0  0
    2.1527    0.7473    3.5269 N   0  0  0  0  0  0  0  0  0  0  0  0
    2.3031    0.5391    5.8480 N   0  0  0  0  0  0  0  0  0  0  0  0
   -1.8113    1.6224    3.8744 N   0  0  0  0  0  0  0  0  0  0  0  0
   -0.7042    1.5832    1.2768 C   0  0  0  0  0  0  0  0  0  0  0  0
   -4.8679    3.4803    0.1661 H   0  0  0  0  0  0  0  0  0  0  0  0
   -4.4646    2.4761    1.5793 H   0  0  0  0  0  0  0  0  0  0  0  0
   -3.7762    4.1101    1.4231 H   0  0  0  0  0  0  0  0  0  0  0  0
   -5.2574    1.4342   -0.0557 H   0  0  0  0  0  0  0  0  0  0  0  0
   -5.6428   -0.5986   -1.3887 H   0  0  0  0  0  0  0  0  0  0  0  0
   -3.7877   -1.6199   -2.6434 H   0  0  0  0  0  0  0  0  0  0  0  0
   -1.5462   -0.6059   -2.5760 H   0  0  0  0  0  0  0  0  0  0  0  0
   -0.8516    2.6816   -1.1712 H   0  0  0  0  0  0  0  0  0  0  0  0
   -0.2097    1.3222   -2.1242 H   0  0  0  0  0  0  0  0  0  0  0  0
    1.8824    1.4198   -0.9711 H   0  0  0  0  0  0  0  0  0  0  0  0
    1.4164    2.6948    0.1828 H   0  0  0  0  0  0  0  0  0  0  0  0
    2.3547   -0.1340    0.8208 H   0  0  0  0  0  0  0  0  0  0  0  0
    3.1884    1.3869    1.2040 H   0  0  0  0  0  0  0  0  0  0  0  0
    3.2477    0.3308    5.7744 H   0  0  0  0  0  0  0  0  0  0  0  0
    1.8797    0.5695    6.7202 H   0  0  0  0  0  0  0  0  0  0  0  0
   -2.2229    1.6486    4.7524 H   0  0  0  0  0  0  0  0  0  0  0  0
   -2.3431    1.8040    3.0838 H   0  0  0  0  0  0  0  0  0  0  0  0
   -0.8623    2.6591    1.2029 H   0  0  0  0  0  0  0  0  0  0  0  0
   -1.6691    1.0866    1.3796 H   0  0  0  0  0  0  0  0  0  0  0  0
  1  2  1  0  0  0  0
  1 23  1  0  0  0  0
  1 24  1  0  0  0  0
  1 25  1  0  0  0  0
  2  3  1  0  0  0  0
  3  8  2  0  0  0  0
  3  4  1  0  0  0  0
  4  5  2  0  0  0  0
  4 26  1  0  0  0  0
  5  6  1  0  0  0  0
  5 27  1  0  0  0  0
  6  7  2  0  0  0  0
  6 28  1  0  0  0  0
  7  8  1  0  0  0  0
  7 29  1  0  0  0  0
  8  9  1  0  0  0  0
  9 10  1  0  0  0  0
  9 30  1  0  0  0  0
  9 31  1  0  0  0  0
 10 11  1  0  0  0  0
 10 22  1  0  0  0  0
 10 12  1  0  0  0  0
 12 13  1  0  0  0  0
 12 32  1  0  0  0  0
 12 33  1  0  0  0  0
 13 14  1  0  0  0  0
 13 34  1  0  0  0  0
 13 35  1  0  0  0  0
 14 19  2  0  0  0  0
 14 15  1  0  0  0  0
 15 16  2  0  0  0  0
 15 22  1  0  0  0  0
 16 17  1  0  0  0  0
 16 21  1  0  0  0  0
 17 18  2  0  0  0  0
 18 19  1  0  0  0  0
 18 20  1  0  0  0  0
 20 36  1  0  0  0  0
 20 37  1  0  0  0  0
 21 38  1  0  0  0  0
 21 39  1  0  0  0  0
 22 40  1  0  0  0  0
 22 41  1  0  0  0  0
M  END
$$$$
ZINC00023462
  -OEChem-08230709403D

 42 44  0     1  0  0  0  0  0999 V2000
   -4.0846    3.2183    0.8774 C   0  0  0  0  0  0  0  0  0  0  0  0
   -2.9637    2.6788    0.1741 O   0  0  0  0  0  0  0  0  0  0  0  0
   -3.1789    1.5568   -0.5619 C   0  0  0  0  0  0  0  0  0  0  0  0
   -4.4430    0.9864   -0.6058 C   0  0  0  0  0  0  0  0  0  0  0  0
   -4.6591   -0.1542   -1.3542 C   0  0  0  0  0  0  0  0  0  0  0  0
   -3.6167   -0.7280   -2.0589 C   0  0  0  0  0  0  0  0  0  0  0  0
   -2.3576   -0.1584   -2.0212 C   0  0  0  0  0  0  0  0  0  0  0  0
   -2.1351    0.9796   -1.2699 C   0  0  0  0  0  0  0  0  0  0  0  0
   -0.7610    1.5967   -1.2248 C   0  0  0  0  0  0  0  0  0  0  0  0
   -0.0127    1.0858    0.0080 C   0  0  1  0  0  0  0  0  0  0  0  0
    0.0021   -0.0041    0.0020 H   0  0  0  0  0  0  0  0  0  0  0  0
    1.4241    1.6208   -0.0028 C   0  0  0  0  0  0  0  0  0  0  0  0
    2.2136    0.9111    1.0962 C   0  0  0  0  0  0  0  0  0  0  0  0
    1.4763    0.9853    2.4058 C   0  0  0  0  0  0  0  0  0  0  0  0
    0.1388    1.2865    2.4860 C   0  0  0  0  0  0  0  0  0  0  0  0
   -0.4638    1.3259    3.7497 C   0  0  0  0  0  0  0  0  0  0  0  0
    0.2713    1.0762    4.8269 N   0  0  0  0  0  0  0  0  0  0  0  0
    1.5597    0.7929    4.7086 C   0  0  0  0  0  0  0  0  0  0  0  0
    2.3031    0.5391    5.8480 N   0  0  0  0  0  0  0  0  0  0  0  0
   -1.8113    1.6224    3.8744 N   0  0  0  0  0  0  0  0  0  0  0  0
   -0.7042    1.5832    1.2768 C   0  0  0  0  0  0  0  0  0  0  0  0
   -4.8679    3.4803    0.1661 H   0  0  0  0  0  0  0  0  0  0  0  0
   -4.4646    2.4761    1.5793 H   0  0  0  0  0  0  0  0  0  0  0  0
   -3.7762    4.1101    1.4231 H   0  0  0  0  0  0  0  0  0  0  0  0
   -5.2574    1.4342   -0.0557 H   0  0  0  0  0  0  0  0  0  0  0  0
   -5.6428   -0.5986   -1.3887 H   0  0  0  0  0  0  0  0  0  0  0  0
   -3.7877   -1.6199   -2.6434 H   0  0  0  0  0  0  0  0  0  0  0  0
   -1.5462   -0.6059   -2.5760 H   0  0  0  0  0  0  0  0  0  0  0  0
   -0.8516    2.6816   -1.1712 H   0  0  0  0  0  0  0  0  0  0  0  0
   -0.2097    1.3222   -2.1242 H   0  0  0  0  0  0  0  0  0  0  0  0
    1.8824    1.4198   -0.9711 H   0  0  0  0  0  0  0  0  0  0  0  0
    1.4164    2.6948    0.1828 H   0  0  0  0  0  0  0  0  0  0  0  0
    2.3547   -0.1340    0.8208 H   0  0  0  0  0  0  0  0  0  0  0  0
    3.1884    1.3869    1.2040 H   0  0  0  0  0  0  0  0  0  0  0  0
    3.2477    0.3308    5.7744 H   0  0  0  0  0  0  0  0  0  0  0  0
    1.8797    0.5695    6.7202 H   0  0  0  0  0  0  0  0  0  0  0  0
   -2.2229    1.6486    4.7524 H   0  0  0  0  0  0  0  0  0  0  0  0
   -2.3431    1.8040    3.0838 H   0  0  0  0  0  0  0  0  0  0  0  0
   -0.8623    2.6591    1.2029 H   0  0  0  0  0  0  0  0  0  0  0  0
   -1.6691    1.0866    1.3796 H   0  0  0  0  0  0  0  0  0  0  0  0
    2.2274    0.7306    3.5230 N   0  3  0  0  0  0  0  0  0  0  0  0
    3.2001    0.5166    3.4335 H   0  0  0  0  0  0  0  0  0  0  0  0
  1  2  1  0  0  0  0
  1 22  1  0  0  0  0
  1 23  1  0  0  0  0
  1 24  1  0  0  0  0
  2  3  1  0  0  0  0
  3  8  2  0  0  0  0
  3  4  1  0  0  0  0
  4  5  2  0  0  0  0
  4 25  1  0  0  0  0
  5  6  1  0  0  0  0
  5 26  1  0  0  0  0
  6  7  2  0  0  0  0
  6 27  1  0  0  0  0
  7  8  1  0  0  0  0
  7 28  1  0  0  0  0
  8  9  1  0  0  0  0
  9 10  1  0  0  0  0
  9 29  1  0  0  0  0
  9 30  1  0  0  0  0
 10 11  1  0  0  0  0
 10 21  1  0  0  0  0
 10 12  1  0  0  0  0
 12 13  1  0  0  0  0
 12 31  1  0  0  0  0
 12 32  1  0  0  0  0
 13 14  1  0  0  0  0
 13 33  1  0  0  0  0
 13 34  1  0  0  0  0
 14 15  2  0  0  0  0
 14 41  1  0  0  0  0
 15 16  1  0  0  0  0
 15 21  1  0  0  0  0
 16 17  2  0  0  0  0
 16 20  1  0  0  0  0
 17 18  1  0  0  0  0
 18 19  1  0  0  0  0
 18 41  2  0  0  0  0
 19 35  1  0  0  0  0
 19 36  1  0  0  0  0
 20 37  1  0  0  0  0
 20 38  1  0  0  0  0
 21 39  1  0  0  0  0
 21 40  1  0  0  0  0
 41 42  1  0  0  0  0
M  CHG  1  41   1
M  END
$$$$
ZINC00023462
  -OEChem-08230709403D

 42 44  0     1  0  0  0  0  0999 V2000
   -4.0723    3.2482    0.8812 C   0  0  0  0  0  0  0  0  0  0  0  0
   -2.9549    2.7028    0.1769 O   0  0  0  0  0  0  0  0  0  0  0  0
   -3.1773    1.5835   -0.5611 C   0  0  0  0  0  0  0  0  0  0  0  0
   -4.4450    1.0213   -0.6060 C   0  0  0  0  0  0  0  0  0  0  0  0
   -4.6684   -0.1166   -1.3564 C   0  0  0  0  0  0  0  0  0  0  0  0
   -3.6297   -0.6957   -2.0622 C   0  0  0  0  0  0  0  0  0  0  0  0
   -2.3670   -0.1342   -2.0236 C   0  0  0  0  0  0  0  0  0  0  0  0
   -2.1372    1.0010   -1.2703 C   0  0  0  0  0  0  0  0  0  0  0  0
   -0.7592    1.6093   -1.2242 C   0  0  0  0  0  0  0  0  0  0  0  0
   -0.0141    1.0914    0.0077 C   0  0  1  0  0  0  0  0  0  0  0  0
   -0.0062    0.0014   -0.0003 H   0  0  0  0  0  0  0  0  0  0  0  0
    1.4261    1.6173   -0.0023 C   0  0  0  0  0  0  0  0  0  0  0  0
    2.2114    0.9018    1.0955 C   0  0  0  0  0  0  0  0  0  0  0  0
    1.4744    0.9771    2.4052 C   0  0  0  0  0  0  0  0  0  0  0  0
    0.1388    1.2866    2.4860 C   0  0  0  0  0  0  0  0  0  0  0  0
   -0.4633    1.3280    3.7499 C   0  0  0  0  0  0  0  0  0  0  0  0
    0.2701    1.0713    4.8265 N   0  3  0  0  0  0  0  0  0  0  0  0
    1.5565    0.7789    4.7075 C   0  0  0  0  0  0  0  0  0  0  0  0
    2.2982    0.5178    5.8464 N   0  0  0  0  0  0  0  0  0  0  0  0
   -1.8106    1.6256    3.8746 N   0  0  0  0  0  0  0  0  0  0  0  0
   -0.7043    1.5829    1.2768 C   0  0  0  0  0  0  0  0  0  0  0  0
   -4.8540    3.5164    0.1705 H   0  0  0  0  0  0  0  0  0  0  0  0
   -4.4570    2.5071    1.5818 H   0  0  0  0  0  0  0  0  0  0  0  0
   -3.7582    4.1370    1.4285 H   0  0  0  0  0  0  0  0  0  0  0  0
   -5.2565    1.4732   -0.0550 H   0  0  0  0  0  0  0  0  0  0  0  0
   -5.6549   -0.5546   -1.3917 H   0  0  0  0  0  0  0  0  0  0  0  0
   -3.8064   -1.5854   -2.6484 H   0  0  0  0  0  0  0  0  0  0  0  0
   -1.5585   -0.5858   -2.5793 H   0  0  0  0  0  0  0  0  0  0  0  0
   -0.8429    2.6946   -1.1686 H   0  0  0  0  0  0  0  0  0  0  0  0
   -0.2097    1.3329   -2.1241 H   0  0  0  0  0  0  0  0  0  0  0  0
    1.8830    1.4151   -0.9710 H   0  0  0  0  0  0  0  0  0  0  0  0
    1.4252    2.6910    0.1853 H   0  0  0  0  0  0  0  0  0  0  0  0
    2.3467   -0.1435    0.8177 H   0  0  0  0  0  0  0  0  0  0  0  0
    3.1888    1.3718    1.2045 H   0  0  0  0  0  0  0  0  0  0  0  0
    3.2416    0.3044    5.7724 H   0  0  0  0  0  0  0  0  0  0  0  0
    1.8748    0.5483    6.7186 H   0  0  0  0  0  0  0  0  0  0  0  0
   -2.2220    1.6525    4.7527 H   0  0  0  0  0  0  0  0  0  0  0  0
   -2.3424    1.8072    3.0840 H   0  0  0  0  0  0  0  0  0  0  0  0
   -0.8616    2.6588    1.2020 H   0  0  0  0  0  0  0  0  0  0  0  0
   -1.6695    1.0870    1.3802 H   0  0  0  0  0  0  0  0  0  0  0  0
    2.2240    0.7156    3.5219 N   0  0  0  0  0  0  0  0  0  0  0  0
   -0.1541    1.1013    5.7315 H   0  0  0  0  0  0  0  0  0  0  0  0
  1  2  1  0  0  0  0
  1 22  1  0  0  0  0
  1 23  1  0  0  0  0
  1 24  1  0  0  0  0
  2  3  1  0  0  0  0
  3  8  2  0  0  0  0
  3  4  1  0  0  0  0
  4  5  2  0  0  0  0
  4 25  1  0  0  0  0
  5  6  1  0  0  0  0
  5 26  1  0  0  0  0
  6  7  2  0  0  0  0
  6 27  1  0  0  0  0
  7  8  1  0  0  0  0
  7 28  1  0  0  0  0
  8  9  1  0  0  0  0
  9 10  1  0  0  0  0
  9 29  1  0  0  0  0
  9 30  1  0  0  0  0
 10 11  1  0  0  0  0
 10 21  1  0  0  0  0
 10 12  1  0  0  0  0
 12 13  1  0  0  0  0
 12 31  1  0  0  0  0
 12 32  1  0  0  0  0
 13 14  1  0  0  0  0
 13 33  1  0  0  0  0
 13 34  1  0  0  0  0
 14 41  2  0  0  0  0
 14 15  1  0  0  0  0
 15 21  1  0  0  0  0
 15 16  2  0  0  0  0
 16 20  1  0  0  0  0
 16 17  1  0  0  0  0
 17 42  1  0  0  0  0
 17 18  2  0  0  0  0
 18 19  1  0  0  0  0
 18 41  1  0  0  0  0
 19 35  1  0  0  0  0
 19 36  1  0  0  0  0
 20 37  1  0  0  0  0
 20 38  1  0  0  0  0
 21 39  1  0  0  0  0
 21 40  1  0  0  0  0
M  CHG  1  17   1
M  END
$$$$
ZINC00023463
  -OEChem-08230709403D

 45 47  0     1  0  0  0  0  0999 V2000
   -2.6035    3.1763    4.5215 C   0  0  0  0  0  0  0  0  0  0  0  0
   -1.9566    2.5733    3.3990 O   0  0  0  0  0  0  0  0  0  0  0  0
   -1.4316    3.4114    2.4654 C   0  0  0  0  0  0  0  0  0  0  0  0
   -1.5318    4.7836    2.6294 C   0  0  0  0  0  0  0  0  0  0  0  0
   -1.0026    5.6341    1.6766 C   0  0  0  0  0  0  0  0  0  0  0  0
   -0.3676    5.1187    0.5619 C   0  0  0  0  0  0  0  0  0  0  0  0
   -0.2592    3.7507    0.3951 C   0  0  0  0  0  0  0  0  0  0  0  0
   -0.7875    2.8927    1.3463 C   0  0  0  0  0  0  0  0  0  0  0  0
   -0.6816    1.5467    1.1837 O   0  0  0  0  0  0  0  0  0  0  0  0
   -0.0127    1.0858    0.0080 C   0  0  0  0  0  0  0  0  0  0  0  0
    0.2079    6.0503   -0.4735 C   0  0  0  0  0  0  0  0  0  0  0  0
   -0.8530    6.3526   -1.5336 C   0  0  1  0  0  0  0  0  0  0  0  0
   -1.7535    6.7340   -1.0524 H   0  0  0  0  0  0  0  0  0  0  0  0
   -0.3140    7.3960   -2.5192 C   0  0  0  0  0  0  0  0  0  0  0  0
   -1.4620    7.8509   -3.4191 C   0  0  0  0  0  0  0  0  0  0  0  0
   -2.1673    6.6624   -4.0142 C   0  0  0  0  0  0  0  0  0  0  0  0
   -2.0427    5.3946   -3.5010 C   0  0  0  0  0  0  0  0  0  0  0  0
   -2.7434    4.3508   -4.1183 C   0  0  0  0  0  0  0  0  0  0  0  0
   -3.5000    4.6145   -5.1771 N   0  0  0  0  0  0  0  0  0  0  0  0
   -3.5917    5.8503   -5.6447 C   0  0  0  0  0  0  0  0  0  0  0  0
   -2.9420    6.8543   -5.0791 N   0  0  0  0  0  0  0  0  0  0  0  0
   -4.3855    6.0969   -6.7512 N   0  0  0  0  0  0  0  0  0  0  0  0
   -2.6478    3.0578   -3.6301 N   0  0  0  0  0  0  0  0  0  0  0  0
   -1.1808    5.0779   -2.3103 C   0  0  0  0  0  0  0  0  0  0  0  0
   -2.9762    2.3979    5.1873 H   0  0  0  0  0  0  0  0  0  0  0  0
   -1.8910    3.8029    5.0580 H   0  0  0  0  0  0  0  0  0  0  0  0
   -3.4366    3.7880    4.1754 H   0  0  0  0  0  0  0  0  0  0  0  0
   -2.0273    5.1888    3.4993 H   0  0  0  0  0  0  0  0  0  0  0  0
   -1.0856    6.7034    1.8031 H   0  0  0  0  0  0  0  0  0  0  0  0
    0.2370    3.3506   -0.4768 H   0  0  0  0  0  0  0  0  0  0  0  0
    0.0021   -0.0041    0.0020 H   0  0  0  0  0  0  0  0  0  0  0  0
    1.0099    1.4631    0.0003 H   0  0  0  0  0  0  0  0  0  0  0  0
   -0.5399    1.4469   -0.8751 H   0  0  0  0  0  0  0  0  0  0  0  0
    0.5178    6.9790    0.0056 H   0  0  0  0  0  0  0  0  0  0  0  0
    1.0703    5.5800   -0.9461 H   0  0  0  0  0  0  0  0  0  0  0  0
    0.0806    8.2502   -1.9689 H   0  0  0  0  0  0  0  0  0  0  0  0
    0.4769    6.9536   -3.1249 H   0  0  0  0  0  0  0  0  0  0  0  0
   -2.1713    8.4337   -2.8314 H   0  0  0  0  0  0  0  0  0  0  0  0
   -1.0660    8.4737   -4.2213 H   0  0  0  0  0  0  0  0  0  0  0  0
   -4.4605    6.9977   -7.1032 H   0  0  0  0  0  0  0  0  0  0  0  0
   -4.8669    5.3690   -7.1747 H   0  0  0  0  0  0  0  0  0  0  0  0
   -3.1352    2.3390   -4.0621 H   0  0  0  0  0  0  0  0  0  0  0  0
   -2.0935    2.8714   -2.8563 H   0  0  0  0  0  0  0  0  0  0  0  0
   -0.2544    4.6141   -2.6491 H   0  0  0  0  0  0  0  0  0  0  0  0
   -1.7097    4.3839   -1.6570 H   0  0  0  0  0  0  0  0  0  0  0  0
  1  2  1  0  0  0  0
  1 25  1  0  0  0  0
  1 26  1  0  0  0  0
  1 27  1  0  0  0  0
  2  3  1  0  0  0  0
  3  8  2  0  0  0  0
  3  4  1  0  0  0  0
  4  5  2  0  0  0  0
  4 28  1  0  0  0  0
  5  6  1  0  0  0  0
  5 29  1  0  0  0  0
  6  7  2  0  0  0  0
  6 11  1  0  0  0  0
  7  8  1  0  0  0  0
  7 30  1  0  0  0  0
  8  9  1  0  0  0  0
  9 10  1  0  0  0  0
 10 31  1  0  0  0  0
 10 32  1  0  0  0  0
 10 33  1  0  0  0  0
 11 12  1  0  0  0  0
 11 34  1  0  0  0  0
 11 35  1  0  0  0  0
 12 13  1  0  0  0  0
 12 24  1  0  0  0  0
 12 14  1  0  0  0  0
 14 15  1  0  0  0  0
 14 36  1  0  0  0  0
 14 37  1  0  0  0  0
 15 16  1  0  0  0  0
 15 38  1  0  0  0  0
 15 39  1  0  0  0  0
 16 21  2  0  0  0  0
 16 17  1  0  0  0  0
 17 18  2  0  0  0  0
 17 24  1  0  0  0  0
 18 19  1  0  0  0  0
 18 23  1  0  0  0  0
 19 20  2  0  0  0  0
 20 21  1  0  0  0  0
 20 22  1  0  0  0  0
 22 40  1  0  0  0  0
 22 41  1  0  0  0  0
 23 42  1  0  0  0  0
 23 43  1  0  0  0  0
 24 44  1  0  0  0  0
 24 45  1  0  0  0  0
M  END
$$$$
ZINC00023463
  -OEChem-08230709403D

 46 48  0     1  0  0  0  0  0999 V2000
   -2.6035    3.1763    4.5215 C   0  0  0  0  0  0  0  0  0  0  0  0
   -1.9566    2.5733    3.3990 O   0  0  0  0  0  0  0  0  0  0  0  0
   -1.4316    3.4114    2.4654 C   0  0  0  0  0  0  0  0  0  0  0  0
   -1.5318    4.7836    2.6294 C   0  0  0  0  0  0  0  0  0  0  0  0
   -1.0026    5.6341    1.6766 C   0  0  0  0  0  0  0  0  0  0  0  0
   -0.3676    5.1187    0.5619 C   0  0  0  0  0  0  0  0  0  0  0  0
   -0.2592    3.7507    0.3951 C   0  0  0  0  0  0  0  0  0  0  0  0
   -0.7875    2.8927    1.3463 C   0  0  0  0  0  0  0  0  0  0  0  0
   -0.6816    1.5467    1.1837 O   0  0  0  0  0  0  0  0  0  0  0  0
   -0.0127    1.0858    0.0080 C   0  0  0  0  0  0  0  0  0  0  0  0
    0.2079    6.0503   -0.4735 C   0  0  0  0  0  0  0  0  0  0  0  0
   -0.8530    6.3526   -1.5336 C   0  0  1  0  0  0  0  0  0  0  0  0
   -1.7535    6.7340   -1.0524 H   0  0  0  0  0  0  0  0  0  0  0  0
   -0.3140    7.3960   -2.5192 C   0  0  0  0  0  0  0  0  0  0  0  0
   -1.4620    7.8509   -3.4191 C   0  0  0  0  0  0  0  0  0  0  0  0
   -2.1673    6.6624   -4.0142 C   0  0  0  0  0  0  0  0  0  0  0  0
   -2.0427    5.3946   -3.5010 C   0  0  0  0  0  0  0  0  0  0  0  0
   -2.7434    4.3508   -4.1183 C   0  0  0  0  0  0  0  0  0  0  0  0
   -3.5000    4.6145   -5.1771 N   0  0  0  0  0  0  0  0  0  0  0  0
   -3.5917    5.8503   -5.6447 C   0  0  0  0  0  0  0  0  0  0  0  0
   -4.3855    6.0969   -6.7512 N   0  0  0  0  0  0  0  0  0  0  0  0
   -2.6478    3.0578   -3.6301 N   0  0  0  0  0  0  0  0  0  0  0  0
   -1.1808    5.0779   -2.3103 C   0  0  0  0  0  0  0  0  0  0  0  0
   -2.9762    2.3979    5.1873 H   0  0  0  0  0  0  0  0  0  0  0  0
   -1.8910    3.8029    5.0580 H   0  0  0  0  0  0  0  0  0  0  0  0
   -3.4366    3.7880    4.1754 H   0  0  0  0  0  0  0  0  0  0  0  0
   -2.0273    5.1888    3.4993 H   0  0  0  0  0  0  0  0  0  0  0  0
   -1.0856    6.7034    1.8031 H   0  0  0  0  0  0  0  0  0  0  0  0
    0.2370    3.3506   -0.4768 H   0  0  0  0  0  0  0  0  0  0  0  0
    0.0021   -0.0041    0.0020 H   0  0  0  0  0  0  0  0  0  0  0  0
    1.0099    1.4631    0.0003 H   0  0  0  0  0  0  0  0  0  0  0  0
   -0.5399    1.4469   -0.8751 H   0  0  0  0  0  0  0  0  0  0  0  0
    0.5178    6.9790    0.0056 H   0  0  0  0  0  0  0  0  0  0  0  0
    1.0703    5.5800   -0.9461 H   0  0  0  0  0  0  0  0  0  0  0  0
    0.0806    8.2502   -1.9689 H   0  0  0  0  0  0  0  0  0  0  0  0
    0.4769    6.9536   -3.1249 H   0  0  0  0  0  0  0  0  0  0  0  0
   -2.1713    8.4337   -2.8314 H   0  0  0  0  0  0  0  0  0  0  0  0
   -1.0660    8.4737   -4.2213 H   0  0  0  0  0  0  0  0  0  0  0  0
   -4.4605    6.9977   -7.1032 H   0  0  0  0  0  0  0  0  0  0  0  0
   -4.8669    5.3690   -7.1747 H   0  0  0  0  0  0  0  0  0  0  0  0
   -3.1352    2.3390   -4.0621 H   0  0  0  0  0  0  0  0  0  0  0  0
   -2.0935    2.8714   -2.8563 H   0  0  0  0  0  0  0  0  0  0  0  0
   -0.2544    4.6141   -2.6491 H   0  0  0  0  0  0  0  0  0  0  0  0
   -1.7097    4.3839   -1.6570 H   0  0  0  0  0  0  0  0  0  0  0  0
   -2.9492    6.9249   -5.1083 N   0  3  0  0  0  0  0  0  0  0  0  0
   -3.0185    7.8580   -5.4611 H   0  0  0  0  0  0  0  0  0  0  0  0
  1  2  1  0  0  0  0
  1 24  1  0  0  0  0
  1 25  1  0  0  0  0
  1 26  1  0  0  0  0
  2  3  1  0  0  0  0
  3  8  2  0  0  0  0
  3  4  1  0  0  0  0
  4  5  2  0  0  0  0
  4 27  1  0  0  0  0
  5  6  1  0  0  0  0
  5 28  1  0  0  0  0
  6  7  2  0  0  0  0
  6 11  1  0  0  0  0
  7  8  1  0  0  0  0
  7 29  1  0  0  0  0
  8  9  1  0  0  0  0
  9 10  1  0  0  0  0
 10 30  1  0  0  0  0
 10 31  1  0  0  0  0
 10 32  1  0  0  0  0
 11 12  1  0  0  0  0
 11 33  1  0  0  0  0
 11 34  1  0  0  0  0
 12 13  1  0  0  0  0
 12 23  1  0  0  0  0
 12 14  1  0  0  0  0
 14 15  1  0  0  0  0
 14 35  1  0  0  0  0
 14 36  1  0  0  0  0
 15 16  1  0  0  0  0
 15 37  1  0  0  0  0
 15 38  1  0  0  0  0
 16 17  2  0  0  0  0
 16 45  1  0  0  0  0
 17 18  1  0  0  0  0
 17 23  1  0  0  0  0
 18 19  2  0  0  0  0
 18 22  1  0  0  0  0
 19 20  1  0  0  0  0
 20 21  1  0  0  0  0
 20 45  2  0  0  0  0
 21 39  1  0  0  0  0
 21 40  1  0  0  0  0
 22 41  1  0  0  0  0
 22 42  1  0  0  0  0
 23 43  1  0  0  0  0
 23 44  1  0  0  0  0
 45 46  1  0  0  0  0
M  CHG  1  45   1
M  END
$$$$
ZINC00023463
  -OEChem-08230709403D

 46 48  0     1  0  0  0  0  0999 V2000
   -2.5622    3.1451    4.5154 C   0  0  0  0  0  0  0  0  0  0  0  0
   -1.9178    2.5485    3.3881 O   0  0  0  0  0  0  0  0  0  0  0  0
   -1.3996    3.3919    2.4554 C   0  0  0  0  0  0  0  0  0  0  0  0
   -1.5041    4.7631    2.6248 C   0  0  0  0  0  0  0  0  0  0  0  0
   -0.9819    5.6190    1.6730 C   0  0  0  0  0  0  0  0  0  0  0  0
   -0.3496    5.1099    0.5538 C   0  0  0  0  0  0  0  0  0  0  0  0
   -0.2370    3.7429    0.3815 C   0  0  0  0  0  0  0  0  0  0  0  0
   -0.7583    2.8796    1.3318 C   0  0  0  0  0  0  0  0  0  0  0  0
   -0.6483    1.5346    1.1638 O   0  0  0  0  0  0  0  0  0  0  0  0
    0.0174    1.0804   -0.0163 C   0  0  0  0  0  0  0  0  0  0  0  0
    0.2182    6.0473   -0.4806 C   0  0  0  0  0  0  0  0  0  0  0  0
   -0.8481    6.3497   -1.5352 C   0  0  1  0  0  0  0  0  0  0  0  0
   -1.7480    6.7261   -1.0489 H   0  0  0  0  0  0  0  0  0  0  0  0
   -0.3169    7.3986   -2.5192 C   0  0  0  0  0  0  0  0  0  0  0  0
   -1.4693    7.8524   -3.4134 C   0  0  0  0  0  0  0  0  0  0  0  0
   -2.1737    6.6638   -4.0092 C   0  0  0  0  0  0  0  0  0  0  0  0
   -2.0425    5.3946   -3.5012 C   0  0  0  0  0  0  0  0  0  0  0  0
   -2.7417    4.3504   -4.1196 C   0  0  0  0  0  0  0  0  0  0  0  0
   -3.5039    4.6153   -5.1741 N   0  3  0  0  0  0  0  0  0  0  0  0
   -3.6028    5.8527   -5.6361 C   0  0  0  0  0  0  0  0  0  0  0  0
   -4.4024    6.1005   -6.7382 N   0  0  0  0  0  0  0  0  0  0  0  0
   -2.6452    3.0572   -3.6321 N   0  0  0  0  0  0  0  0  0  0  0  0
   -1.1809    5.0779   -2.3102 C   0  0  0  0  0  0  0  0  0  0  0  0
   -2.9293    2.3629    5.1799 H   0  0  0  0  0  0  0  0  0  0  0  0
   -1.8497    3.7723    5.0513 H   0  0  0  0  0  0  0  0  0  0  0  0
   -3.3989    3.7551    4.1750 H   0  0  0  0  0  0  0  0  0  0  0  0
   -1.9974    5.1634    3.4982 H   0  0  0  0  0  0  0  0  0  0  0  0
   -1.0682    6.6875    1.8037 H   0  0  0  0  0  0  0  0  0  0  0  0
    0.2570    3.3478   -0.4939 H   0  0  0  0  0  0  0  0  0  0  0  0
    0.0361   -0.0095   -0.0263 H   0  0  0  0  0  0  0  0  0  0  0  0
    1.0386    1.4614   -0.0268 H   0  0  0  0  0  0  0  0  0  0  0  0
   -0.5147    1.4428   -0.8959 H   0  0  0  0  0  0  0  0  0  0  0  0
    0.5268    6.9754    0.0006 H   0  0  0  0  0  0  0  0  0  0  0  0
    1.0804    5.5819   -0.9584 H   0  0  0  0  0  0  0  0  0  0  0  0
    0.0769    8.2522   -1.9674 H   0  0  0  0  0  0  0  0  0  0  0  0
    0.4730    6.9612   -3.1298 H   0  0  0  0  0  0  0  0  0  0  0  0
   -2.1777    8.4314   -2.8209 H   0  0  0  0  0  0  0  0  0  0  0  0
   -1.0785    8.4788   -4.2154 H   0  0  0  0  0  0  0  0  0  0  0  0
   -4.4815    7.0022   -7.0870 H   0  0  0  0  0  0  0  0  0  0  0  0
   -4.8838    5.3726   -7.1617 H   0  0  0  0  0  0  0  0  0  0  0  0
   -3.1320    2.3383   -4.0645 H   0  0  0  0  0  0  0  0  0  0  0  0
   -2.0909    2.8708   -2.8583 H   0  0  0  0  0  0  0  0  0  0  0  0
   -0.2539    4.6151   -2.6488 H   0  0  0  0  0  0  0  0  0  0  0  0
   -1.7095    4.3831   -1.6575 H   0  0  0  0  0  0  0  0  0  0  0  0
   -2.9611    6.9274   -5.0991 N   0  0  0  0  0  0  0  0  0  0  0  0
   -4.0037    3.8733   -5.6208 H   0  0  0  0  0  0  0  0  0  0  0  0
  1  2  1  0  0  0  0
  1 24  1  0  0  0  0
  1 25  1  0  0  0  0
  1 26  1  0  0  0  0
  2  3  1  0  0  0  0
  3  8  2  0  0  0  0
  3  4  1  0  0  0  0
  4  5  2  0  0  0  0
  4 27  1  0  0  0  0
  5  6  1  0  0  0  0
  5 28  1  0  0  0  0
  6  7  2  0  0  0  0
  6 11  1  0  0  0  0
  7  8  1  0  0  0  0
  7 29  1  0  0  0  0
  8  9  1  0  0  0  0
  9 10  1  0  0  0  0
 10 30  1  0  0  0  0
 10 31  1  0  0  0  0
 10 32  1  0  0  0  0
 11 12  1  0  0  0  0
 11 33  1  0  0  0  0
 11 34  1  0  0  0  0
 12 13  1  0  0  0  0
 12 23  1  0  0  0  0
 12 14  1  0  0  0  0
 14 15  1  0  0  0  0
 14 35  1  0  0  0  0
 14 36  1  0  0  0  0
 15 16  1  0  0  0  0
 15 37  1  0  0  0  0
 15 38  1  0  0  0  0
 16 45  2  0  0  0  0
 16 17  1  0  0  0  0
 17 23  1  0  0  0  0
 17 18  2  0  0  0  0
 18 22  1  0  0  0  0
 18 19  1  0  0  0  0
 19 46  1  0  0  0  0
 19 20  2  0  0  0  0
 20 21  1  0  0  0  0
 20 45  1  0  0  0  0
 21 39  1  0  0  0  0
 21 40  1  0  0  0  0
 22 41  1  0  0  0  0
 22 42  1  0  0  0  0
 23 43  1  0  0  0  0
 23 44  1  0  0  0  0
M  CHG  1  19   1
M  END
$$$$
ZINC00591054
  -OEChem-08230709403D

 48 50  0     0  0  0  0  0  0999 V2000
   -2.2927   -0.3706    0.0118 C   0  0  0  0  0  0  0  0  0  0  0  0
   -2.3869    1.0552    0.0195 O   0  0  0  0  0  0  0  0  0  0  0  0
   -1.2184    1.7512    0.0173 C   0  0  0  0  0  0  0  0  0  0  0  0
   -0.0126    1.0758    0.0080 C   0  0  0  0  0  0  0  0  0  0  0  0
    1.1878    1.7917    0.0003 C   0  0  0  0  0  0  0  0  0  0  0  0
    1.1651    3.1891    0.0076 C   0  0  0  0  0  0  0  0  0  0  0  0
   -0.0436    3.8592    0.0222 C   0  0  0  0  0  0  0  0  0  0  0  0
   -1.2380    3.1435    0.0293 C   0  0  0  0  0  0  0  0  0  0  0  0
   -2.4249    3.8049    0.0437 O   0  0  0  0  0  0  0  0  0  0  0  0
   -3.0032    4.1275   -1.2225 C   0  0  0  0  0  0  0  0  0  0  0  0
   -0.0664    5.2191    0.0293 O   0  0  0  0  0  0  0  0  0  0  0  0
    1.1957    5.8891    0.0209 C   0  0  0  0  0  0  0  0  0  0  0  0
    2.4760    1.0738   -0.0148 C   0  0  0  0  0  0  0  0  0  0  0  0
    2.4944   -0.1411   -0.0207 O   0  0  0  0  0  0  0  0  0  0  0  0
    3.6325    1.7652   -0.0221 O   0  0  0  0  0  0  0  0  0  0  0  0
    4.8621    0.9930   -0.0370 C   0  0  0  0  0  0  0  0  0  0  0  0
    6.0431    1.9291   -0.0434 C   0  0  0  0  0  0  0  0  0  0  0  0
    6.5736    2.3567   -1.2571 C   0  0  0  0  0  0  0  0  0  0  0  0
    7.6383    3.2072   -1.2976 C   0  0  0  0  0  0  0  0  0  0  0  0
    8.2158    3.6506   -0.0999 C   0  0  0  0  0  0  0  0  0  0  0  0
    7.6778    3.2101    1.1337 C   0  0  0  0  0  0  0  0  0  0  0  0
    6.5812    2.3415    1.1403 C   0  0  0  0  0  0  0  0  0  0  0  0
    8.2780    3.6719    2.3317 C   0  0  0  0  0  0  0  0  0  0  0  0
    9.3133    4.4936    2.2397 N   0  0  0  0  0  0  0  0  0  0  0  0
    9.7871    4.8827    1.0595 C   0  0  0  0  0  0  0  0  0  0  0  0
    9.2666    4.4839   -0.0855 N   0  0  0  0  0  0  0  0  0  0  0  0
   10.8706    5.7419    1.0311 N   0  0  0  0  0  0  0  0  0  0  0  0
    7.7965    3.2767    3.5613 N   0  0  0  0  0  0  0  0  0  0  0  0
   -3.2942   -0.8009    0.0145 H   0  0  0  0  0  0  0  0  0  0  0  0
   -1.7605   -0.6948   -0.8825 H   0  0  0  0  0  0  0  0  0  0  0  0
   -1.7517   -0.7039    0.8975 H   0  0  0  0  0  0  0  0  0  0  0  0
    0.0021   -0.0041    0.0020 H   0  0  0  0  0  0  0  0  0  0  0  0
    2.0912    3.7447    0.0014 H   0  0  0  0  0  0  0  0  0  0  0  0
   -3.9458    4.6527   -1.0683 H   0  0  0  0  0  0  0  0  0  0  0  0
   -2.3192    4.7653   -1.7824 H   0  0  0  0  0  0  0  0  0  0  0  0
   -3.1857    3.2105   -1.7828 H   0  0  0  0  0  0  0  0  0  0  0  0
    1.7659    5.6012    0.9041 H   0  0  0  0  0  0  0  0  0  0  0  0
    1.7492    5.6101   -0.8757 H   0  0  0  0  0  0  0  0  0  0  0  0
    1.0348    6.9672    0.0278 H   0  0  0  0  0  0  0  0  0  0  0  0
    4.9046    0.3605    0.8497 H   0  0  0  0  0  0  0  0  0  0  0  0
    4.8883    0.3689   -0.9302 H   0  0  0  0  0  0  0  0  0  0  0  0
    6.1323    2.0128   -2.1809 H   0  0  0  0  0  0  0  0  0  0  0  0
    8.0372    3.5337   -2.2466 H   0  0  0  0  0  0  0  0  0  0  0  0
    6.1639    1.9995    2.0759 H   0  0  0  0  0  0  0  0  0  0  0  0
   11.2687    6.0479    1.8610 H   0  0  0  0  0  0  0  0  0  0  0  0
   11.2324    6.0384    0.1814 H   0  0  0  0  0  0  0  0  0  0  0  0
    7.0376    2.6749    3.6144 H   0  0  0  0  0  0  0  0  0  0  0  0
    8.2166    3.6003    4.3735 H   0  0  0  0  0  0  0  0  0  0  0  0
  1  2  1  0  0  0  0
  1 29  1  0  0  0  0
  1 30  1  0  0  0  0
  1 31  1  0  0  0  0
  2  3  1  0  0  0  0
  3  8  2  0  0  0  0
  3  4  1  0  0  0  0
  4  5  2  0  0  0  0
  4 32  1  0  0  0  0
  5  6  1  0  0  0  0
  5 13  1  0  0  0  0
  6  7  2  0  0  0  0
  6 33  1  0  0  0  0
  7  8  1  0  0  0  0
  7 11  1  0  0  0  0
  8  9  1  0  0  0  0
  9 10  1  0  0  0  0
 10 34  1  0  0  0  0
 10 35  1  0  0  0  0
 10 36  1  0  0  0  0
 11 12  1  0  0  0  0
 12 37  1  0  0  0  0
 12 38  1  0  0  0  0
 12 39  1  0  0  0  0
 13 14  2  0  0  0  0
 13 15  1  0  0  0  0
 15 16  1  0  0  0  0
 16 17  1  0  0  0  0
 16 40  1  0  0  0  0
 16 41  1  0  0  0  0
 17 22  2  0  0  0  0
 17 18  1  0  0  0  0
 18 19  2  0  0  0  0
 18 42  1  0  0  0  0
 19 20  1  0  0  0  0
 19 43  1  0  0  0  0
 20 26  2  0  0  0  0
 20 21  1  0  0  0  0
 21 22  1  0  0  0  0
 21 23  2  0  0  0  0
 22 44  1  0  0  0  0
 23 24  1  0  0  0  0
 23 28  1  0  0  0  0
 24 25  2  0  0  0  0
 25 26  1  0  0  0  0
 25 27  1  0  0  0  0
 27 45  1  0  0  0  0
 27 46  1  0  0  0  0
 28 47  1  0  0  0  0
 28 48  1  0  0  0  0
M  END
$$$$
ZINC00591054
  -OEChem-08230709403D

 49 51  0     0  0  0  0  0  0999 V2000
   -2.2922   -0.3702    0.0126 C   0  0  0  0  0  0  0  0  0  0  0  0
   -2.3861    1.0556    0.0205 O   0  0  0  0  0  0  0  0  0  0  0  0
   -1.2174    1.7514    0.0183 C   0  0  0  0  0  0  0  0  0  0  0  0
   -0.0118    1.0758    0.0087 C   0  0  0  0  0  0  0  0  0  0  0  0
    1.1888    1.7914    0.0010 C   0  0  0  0  0  0  0  0  0  0  0  0
    1.1663    3.1888    0.0085 C   0  0  0  0  0  0  0  0  0  0  0  0
   -0.0422    3.8592    0.0234 C   0  0  0  0  0  0  0  0  0  0  0  0
   -1.2368    3.1437    0.0305 C   0  0  0  0  0  0  0  0  0  0  0  0
   -2.4235    3.8053    0.0452 O   0  0  0  0  0  0  0  0  0  0  0  0
   -3.0019    4.1283   -1.2208 C   0  0  0  0  0  0  0  0  0  0  0  0
   -0.0647    5.2191    0.0307 O   0  0  0  0  0  0  0  0  0  0  0  0
    1.1975    5.8888    0.0223 C   0  0  0  0  0  0  0  0  0  0  0  0
    2.4768    1.0733   -0.0145 C   0  0  0  0  0  0  0  0  0  0  0  0
    2.4950   -0.1416   -0.0206 O   0  0  0  0  0  0  0  0  0  0  0  0
    3.6335    1.7644   -0.0218 O   0  0  0  0  0  0  0  0  0  0  0  0
    4.8629    0.9920   -0.0370 C   0  0  0  0  0  0  0  0  0  0  0  0
    6.0441    1.9279   -0.0434 C   0  0  0  0  0  0  0  0  0  0  0  0
    6.5745    2.3556   -1.2571 C   0  0  0  0  0  0  0  0  0  0  0  0
    7.6400    3.2050   -1.2976 C   0  0  0  0  0  0  0  0  0  0  0  0
    8.2171    3.6489   -0.0999 C   0  0  0  0  0  0  0  0  0  0  0  0
    7.6792    3.2083    1.1337 C   0  0  0  0  0  0  0  0  0  0  0  0
    6.5830    2.3392    1.1403 C   0  0  0  0  0  0  0  0  0  0  0  0
    8.2793    3.6703    2.3317 C   0  0  0  0  0  0  0  0  0  0  0  0
    9.3151    4.4913    2.2397 N   0  3  0  0  0  0  0  0  0  0  0  0
    9.7882    4.8813    1.0595 C   0  0  0  0  0  0  0  0  0  0  0  0
   10.8722    5.7398    1.0311 N   0  0  0  0  0  0  0  0  0  0  0  0
    7.7985    3.2742    3.5613 N   0  0  0  0  0  0  0  0  0  0  0  0
   -3.2938   -0.8003    0.0153 H   0  0  0  0  0  0  0  0  0  0  0  0
   -1.7602   -0.6943   -0.8819 H   0  0  0  0  0  0  0  0  0  0  0  0
   -1.7511   -0.7037    0.8981 H   0  0  0  0  0  0  0  0  0  0  0  0
    0.0027   -0.0041    0.0025 H   0  0  0  0  0  0  0  0  0  0  0  0
    2.0926    3.7442    0.0023 H   0  0  0  0  0  0  0  0  0  0  0  0
   -3.9444    4.6536   -1.0664 H   0  0  0  0  0  0  0  0  0  0  0  0
   -2.3179    4.7660   -1.7807 H   0  0  0  0  0  0  0  0  0  0  0  0
   -3.1847    3.2114   -1.7813 H   0  0  0  0  0  0  0  0  0  0  0  0
    1.7678    5.6006    0.9053 H   0  0  0  0  0  0  0  0  0  0  0  0
    1.7508    5.6099   -0.8745 H   0  0  0  0  0  0  0  0  0  0  0  0
    1.0368    6.9670    0.0294 H   0  0  0  0  0  0  0  0  0  0  0  0
    4.9054    0.3593    0.8496 H   0  0  0  0  0  0  0  0  0  0  0  0
    4.8888    0.3680   -0.9303 H   0  0  0  0  0  0  0  0  0  0  0  0
    6.1330    2.0119   -2.1809 H   0  0  0  0  0  0  0  0  0  0  0  0
    8.0394    3.5310   -2.2466 H   0  0  0  0  0  0  0  0  0  0  0  0
    6.1662    1.9966    2.0759 H   0  0  0  0  0  0  0  0  0  0  0  0
   11.2703    6.0459    1.8610 H   0  0  0  0  0  0  0  0  0  0  0  0
   11.2344    6.0358    0.1814 H   0  0  0  0  0  0  0  0  0  0  0  0
    7.0396    2.6724    3.6144 H   0  0  0  0  0  0  0  0  0  0  0  0
    8.2190    3.5973    4.3735 H   0  0  0  0  0  0  0  0  0  0  0  0
    9.2962    4.5051   -0.1469 N   0  0  0  0  0  0  0  0  0  0  0  0
    9.7435    4.8171    3.0825 H   0  0  0  0  0  0  0  0  0  0  0  0
  1  2  1  0  0  0  0
  1 28  1  0  0  0  0
  1 29  1  0  0  0  0
  1 30  1  0  0  0  0
  2  3  1  0  0  0  0
  3  8  2  0  0  0  0
  3  4  1  0  0  0  0
  4  5  2  0  0  0  0
  4 31  1  0  0  0  0
  5  6  1  0  0  0  0
  5 13  1  0  0  0  0
  6  7  2  0  0  0  0
  6 32  1  0  0  0  0
  7  8  1  0  0  0  0
  7 11  1  0  0  0  0
  8  9  1  0  0  0  0
  9 10  1  0  0  0  0
 10 33  1  0  0  0  0
 10 34  1  0  0  0  0
 10 35  1  0  0  0  0
 11 12  1  0  0  0  0
 12 36  1  0  0  0  0
 12 37  1  0  0  0  0
 12 38  1  0  0  0  0
 13 14  2  0  0  0  0
 13 15  1  0  0  0  0
 15 16  1  0  0  0  0
 16 17  1  0  0  0  0
 16 39  1  0  0  0  0
 16 40  1  0  0  0  0
 17 22  2  0  0  0  0
 17 18  1  0  0  0  0
 18 19  2  0  0  0  0
 18 41  1  0  0  0  0
 19 20  1  0  0  0  0
 19 42  1  0  0  0  0
 20 48  2  0  0  0  0
 20 21  1  0  0  0  0
 21 22  1  0  0  0  0
 21 23  2  0  0  0  0
 22 43  1  0  0  0  0
 23 27  1  0  0  0  0
 23 24  1  0  0  0  0
 24 49  1  0  0  0  0
 24 25  2  0  0  0  0
 25 26  1  0  0  0  0
 25 48  1  0  0  0  0
 26 44  1  0  0  0  0
 26 45  1  0  0  0  0
 27 46  1  0  0  0  0
 27 47  1  0  0  0  0
M  CHG  1  24   1
M  END
$$$$
ZINC00591054
  -OEChem-08230709403D

 49 51  0     0  0  0  0  0  0999 V2000
   -2.2927   -0.3706    0.0118 C   0  0  0  0  0  0  0  0  0  0  0  0
   -2.3869    1.0552    0.0195 O   0  0  0  0  0  0  0  0  0  0  0  0
   -1.2184    1.7512    0.0173 C   0  0  0  0  0  0  0  0  0  0  0  0
   -0.0126    1.0758    0.0080 C   0  0  0  0  0  0  0  0  0  0  0  0
    1.1878    1.7917    0.0003 C   0  0  0  0  0  0  0  0  0  0  0  0
    1.1651    3.1891    0.0076 C   0  0  0  0  0  0  0  0  0  0  0  0
   -0.0436    3.8592    0.0222 C   0  0  0  0  0  0  0  0  0  0  0  0
   -1.2380    3.1435    0.0293 C   0  0  0  0  0  0  0  0  0  0  0  0
   -2.4249    3.8049    0.0437 O   0  0  0  0  0  0  0  0  0  0  0  0
   -3.0032    4.1275   -1.2225 C   0  0  0  0  0  0  0  0  0  0  0  0
   -0.0664    5.2191    0.0293 O   0  0  0  0  0  0  0  0  0  0  0  0
    1.1957    5.8891    0.0209 C   0  0  0  0  0  0  0  0  0  0  0  0
    2.4760    1.0738   -0.0148 C   0  0  0  0  0  0  0  0  0  0  0  0
    2.4944   -0.1411   -0.0207 O   0  0  0  0  0  0  0  0  0  0  0  0
    3.6325    1.7652   -0.0221 O   0  0  0  0  0  0  0  0  0  0  0  0
    4.8621    0.9930   -0.0370 C   0  0  0  0  0  0  0  0  0  0  0  0
    6.0431    1.9291   -0.0434 C   0  0  0  0  0  0  0  0  0  0  0  0
    6.5736    2.3567   -1.2571 C   0  0  0  0  0  0  0  0  0  0  0  0
    7.6383    3.2072   -1.2976 C   0  0  0  0  0  0  0  0  0  0  0  0
    8.2158    3.6506   -0.0999 C   0  0  0  0  0  0  0  0  0  0  0  0
    7.6778    3.2101    1.1337 C   0  0  0  0  0  0  0  0  0  0  0  0
    6.5812    2.3415    1.1403 C   0  0  0  0  0  0  0  0  0  0  0  0
    8.2780    3.6719    2.3317 C   0  0  0  0  0  0  0  0  0  0  0  0
    9.3133    4.4936    2.2397 N   0  0  0  0  0  0  0  0  0  0  0  0
    9.7871    4.8827    1.0595 C   0  0  0  0  0  0  0  0  0  0  0  0
   10.8706    5.7419    1.0311 N   0  0  0  0  0  0  0  0  0  0  0  0
    7.7965    3.2767    3.5613 N   0  0  0  0  0  0  0  0  0  0  0  0
   -3.2942   -0.8009    0.0145 H   0  0  0  0  0  0  0  0  0  0  0  0
   -1.7605   -0.6948   -0.8825 H   0  0  0  0  0  0  0  0  0  0  0  0
   -1.7517   -0.7039    0.8975 H   0  0  0  0  0  0  0  0  0  0  0  0
    0.0021   -0.0041    0.0020 H   0  0  0  0  0  0  0  0  0  0  0  0
    2.0912    3.7447    0.0014 H   0  0  0  0  0  0  0  0  0  0  0  0
   -3.9458    4.6527   -1.0683 H   0  0  0  0  0  0  0  0  0  0  0  0
   -2.3192    4.7653   -1.7824 H   0  0  0  0  0  0  0  0  0  0  0  0
   -3.1857    3.2105   -1.7828 H   0  0  0  0  0  0  0  0  0  0  0  0
    1.7659    5.6012    0.9041 H   0  0  0  0  0  0  0  0  0  0  0  0
    1.7492    5.6101   -0.8757 H   0  0  0  0  0  0  0  0  0  0  0  0
    1.0348    6.9672    0.0278 H   0  0  0  0  0  0  0  0  0  0  0  0
    4.9046    0.3605    0.8497 H   0  0  0  0  0  0  0  0  0  0  0  0
    4.8883    0.3689   -0.9302 H   0  0  0  0  0  0  0  0  0  0  0  0
    6.1323    2.0128   -2.1809 H   0  0  0  0  0  0  0  0  0  0  0  0
    8.0372    3.5337   -2.2466 H   0  0  0  0  0  0  0  0  0  0  0  0
    6.1639    1.9995    2.0759 H   0  0  0  0  0  0  0  0  0  0  0  0
   11.2687    6.0479    1.8610 H   0  0  0  0  0  0  0  0  0  0  0  0
   11.2324    6.0384    0.1814 H   0  0  0  0  0  0  0  0  0  0  0  0
    7.0376    2.6749    3.6144 H   0  0  0  0  0  0  0  0  0  0  0  0
    8.2166    3.6003    4.3735 H   0  0  0  0  0  0  0  0  0  0  0  0
    9.2947    4.5070   -0.1469 N   0  3  0  0  0  0  0  0  0  0  0  0
    9.6578    4.8058   -1.0294 H   0  0  0  0  0  0  0  0  0  0  0  0
  1  2  1  0  0  0  0
  1 28  1  0  0  0  0
  1 29  1  0  0  0  0
  1 30  1  0  0  0  0
  2  3  1  0  0  0  0
  3  8  2  0  0  0  0
  3  4  1  0  0  0  0
  4  5  2  0  0  0  0
  4 31  1  0  0  0  0
  5  6  1  0  0  0  0
  5 13  1  0  0  0  0
  6  7  2  0  0  0  0
  6 32  1  0  0  0  0
  7  8  1  0  0  0  0
  7 11  1  0  0  0  0
  8  9  1  0  0  0  0
  9 10  1  0  0  0  0
 10 33  1  0  0  0  0
 10 34  1  0  0  0  0
 10 35  1  0  0  0  0
 11 12  1  0  0  0  0
 12 36  1  0  0  0  0
 12 37  1  0  0  0  0
 12 38  1  0  0  0  0
 13 14  2  0  0  0  0
 13 15  1  0  0  0  0
 15 16  1  0  0  0  0
 16 17  1  0  0  0  0
 16 39  1  0  0  0  0
 16 40  1  0  0  0  0
 17 22  2  0  0  0  0
 17 18  1  0  0  0  0
 18 19  2  0  0  0  0
 18 41  1  0  0  0  0
 19 20  1  0  0  0  0
 19 42  1  0  0  0  0
 20 21  2  0  0  0  0
 20 48  1  0  0  0  0
 21 22  1  0  0  0  0
 21 23  1  0  0  0  0
 22 43  1  0  0  0  0
 23 24  2  0  0  0  0
 23 27  1  0  0  0  0
 24 25  1  0  0  0  0
 25 26  1  0  0  0  0
 25 48  2  0  0  0  0
 26 44  1  0  0  0  0
 26 45  1  0  0  0  0
 27 46  1  0  0  0  0
 27 47  1  0  0  0  0
 48 49  1  0  0  0  0
M  CHG  1  48   1
M  END
$$$$
ZINC00598852
  -OEChem-08230709403D

 50 52  0     0  0  0  0  0  0999 V2000
    2.7182    5.7460    2.6288 C   0  0  0  0  0  0  0  0  0  0  0  0
    2.7520    6.5376    1.3469 C   0  0  0  0  0  0  0  0  0  0  0  0
    3.2704    5.9854    0.2118 C   0  0  0  0  0  0  0  0  0  0  0  0
    3.3031    6.7019   -0.9805 C   0  0  0  0  0  0  0  0  0  0  0  0
    2.8230    7.9766   -1.0476 C   0  0  0  0  0  0  0  0  0  0  0  0
    2.2886    8.5759    0.1006 C   0  0  0  0  0  0  0  0  0  0  0  0
    2.2567    7.8450    1.3132 C   0  0  0  0  0  0  0  0  0  0  0  0
    1.7117    8.4722    2.4619 C   0  0  0  0  0  0  0  0  0  0  0  0
    1.2587    9.7116    2.3455 N   0  0  0  0  0  0  0  0  0  0  0  0
    1.3080   10.3623    1.1863 C   0  0  0  0  0  0  0  0  0  0  0  0
    1.8041    9.8268    0.0875 N   0  0  0  0  0  0  0  0  0  0  0  0
    0.8188   11.6548    1.1308 N   0  0  0  0  0  0  0  0  0  0  0  0
    1.6552    7.8095    3.6691 N   0  0  0  0  0  0  0  0  0  0  0  0
    3.8090    4.5785    0.2485 C   0  0  0  0  0  0  0  0  0  0  0  0
    2.6971    3.6277    0.1713 N   0  0  0  0  0  0  0  0  0  0  0  0
    2.9506    2.2519    0.1883 C   0  0  0  0  0  0  0  0  0  0  0  0
    1.8967    1.3513    0.1151 C   0  0  0  0  0  0  0  0  0  0  0  0
    2.1471   -0.0120    0.1319 C   0  0  0  0  0  0  0  0  0  0  0  0
    3.4535   -0.4771    0.2222 C   0  0  0  0  0  0  0  0  0  0  0  0
    4.5080    0.4250    0.2955 C   0  0  0  0  0  0  0  0  0  0  0  0
    4.2560    1.7881    0.2785 C   0  0  0  0  0  0  0  0  0  0  0  0
    5.7867   -0.0292    0.3842 O   0  0  0  0  0  0  0  0  0  0  0  0
    6.8210    0.9543    0.4561 C   0  0  0  0  0  0  0  0  0  0  0  0
    3.7003   -1.8163    0.2392 O   0  0  0  0  0  0  0  0  0  0  0  0
    3.9055   -2.4543   -1.0229 C   0  0  0  0  0  0  0  0  0  0  0  0
    1.1146   -0.8941    0.0597 O   0  0  0  0  0  0  0  0  0  0  0  0
   -0.2019   -0.3459   -0.0316 C   0  0  0  0  0  0  0  0  0  0  0  0
    3.5754    6.0163    3.2454 H   0  0  0  0  0  0  0  0  0  0  0  0
    1.7978    5.9681    3.1688 H   0  0  0  0  0  0  0  0  0  0  0  0
    2.7570    4.6811    2.3994 H   0  0  0  0  0  0  0  0  0  0  0  0
    3.7147    6.2414   -1.8665 H   0  0  0  0  0  0  0  0  0  0  0  0
    2.8541    8.5206   -1.9800 H   0  0  0  0  0  0  0  0  0  0  0  0
    0.4498   12.0683    1.9269 H   0  0  0  0  0  0  0  0  0  0  0  0
    0.8448   12.1478    0.2959 H   0  0  0  0  0  0  0  0  0  0  0  0
    2.4083    7.2742    3.9643 H   0  0  0  0  0  0  0  0  0  0  0  0
    0.8622    7.8784    4.2235 H   0  0  0  0  0  0  0  0  0  0  0  0
    4.3560    4.4230    1.1784 H   0  0  0  0  0  0  0  0  0  0  0  0
    4.4789    4.4236   -0.5973 H   0  0  0  0  0  0  0  0  0  0  0  0
    1.7851    3.9521    0.1083 H   0  0  0  0  0  0  0  0  0  0  0  0
    0.8817    1.7129    0.0405 H   0  0  0  0  0  0  0  0  0  0  0  0
    5.0754    2.4893    0.3351 H   0  0  0  0  0  0  0  0  0  0  0  0
    6.7928    1.5772   -0.4379 H   0  0  0  0  0  0  0  0  0  0  0  0
    6.6695    1.5771    1.3378 H   0  0  0  0  0  0  0  0  0  0  0  0
    7.7895    0.4588    0.5233 H   0  0  0  0  0  0  0  0  0  0  0  0
    4.7639   -2.0046   -1.5220 H   0  0  0  0  0  0  0  0  0  0  0  0
    4.0915   -3.5169   -0.8669 H   0  0  0  0  0  0  0  0  0  0  0  0
    3.0177   -2.3279   -1.6425 H   0  0  0  0  0  0  0  0  0  0  0  0
   -0.4017    0.2676    0.8469 H   0  0  0  0  0  0  0  0  0  0  0  0
   -0.2782    0.2684   -0.9288 H   0  0  0  0  0  0  0  0  0  0  0  0
   -0.9299   -1.1555   -0.0826 H   0  0  0  0  0  0  0  0  0  0  0  0
  1  2  1  0  0  0  0
  1 28  1  0  0  0  0
  1 29  1  0  0  0  0
  1 30  1  0  0  0  0
  2  7  2  0  0  0  0
  2  3  1  0  0  0  0
  3  4  2  0  0  0  0
  3 14  1  0  0  0  0
  4  5  1  0  0  0  0
  4 31  1  0  0  0  0
  5  6  2  0  0  0  0
  5 32  1  0  0  0  0
  6 11  1  0  0  0  0
  6  7  1  0  0  0  0
  7  8  1  0  0  0  0
  8  9  2  0  0  0  0
  8 13  1  0  0  0  0
  9 10  1  0  0  0  0
 10 11  2  0  0  0  0
 10 12  1  0  0  0  0
 12 33  1  0  0  0  0
 12 34  1  0  0  0  0
 13 35  1  0  0  0  0
 13 36  1  0  0  0  0
 14 15  1  0  0  0  0
 14 37  1  0  0  0  0
 14 38  1  0  0  0  0
 15 16  1  0  0  0  0
 15 39  1  0  0  0  0
 16 21  2  0  0  0  0
 16 17  1  0  0  0  0
 17 18  2  0  0  0  0
 17 40  1  0  0  0  0
 18 19  1  0  0  0  0
 18 26  1  0  0  0  0
 19 20  2  0  0  0  0
 19 24  1  0  0  0  0
 20 21  1  0  0  0  0
 20 22  1  0  0  0  0
 21 41  1  0  0  0  0
 22 23  1  0  0  0  0
 23 42  1  0  0  0  0
 23 43  1  0  0  0  0
 23 44  1  0  0  0  0
 24 25  1  0  0  0  0
 25 45  1  0  0  0  0
 25 46  1  0  0  0  0
 25 47  1  0  0  0  0
 26 27  1  0  0  0  0
 27 48  1  0  0  0  0
 27 49  1  0  0  0  0
 27 50  1  0  0  0  0
M  END
$$$$
ZINC00598852
  -OEChem-08230709403D

 51 53  0     0  0  0  0  0  0999 V2000
    2.7182    5.7460    2.6288 C   0  0  0  0  0  0  0  0  0  0  0  0
    2.7520    6.5376    1.3469 C   0  0  0  0  0  0  0  0  0  0  0  0
    3.2704    5.9854    0.2118 C   0  0  0  0  0  0  0  0  0  0  0  0
    3.3031    6.7019   -0.9805 C   0  0  0  0  0  0  0  0  0  0  0  0
    2.8230    7.9766   -1.0476 C   0  0  0  0  0  0  0  0  0  0  0  0
    2.2886    8.5759    0.1006 C   0  0  0  0  0  0  0  0  0  0  0  0
    2.2567    7.8450    1.3132 C   0  0  0  0  0  0  0  0  0  0  0  0
    1.7117    8.4722    2.4619 C   0  0  0  0  0  0  0  0  0  0  0  0
    1.2587    9.7116    2.3455 N   0  0  0  0  0  0  0  0  0  0  0  0
    1.3080   10.3623    1.1863 C   0  0  0  0  0  0  0  0  0  0  0  0
    0.8188   11.6548    1.1308 N   0  0  0  0  0  0  0  0  0  0  0  0
    1.6552    7.8095    3.6691 N   0  0  0  0  0  0  0  0  0  0  0  0
    3.8090    4.5785    0.2485 C   0  0  0  0  0  0  0  0  0  0  0  0
    2.6971    3.6277    0.1713 N   0  0  0  0  0  0  0  0  0  0  0  0
    2.9506    2.2519    0.1883 C   0  0  0  0  0  0  0  0  0  0  0  0
    1.8967    1.3513    0.1151 C   0  0  0  0  0  0  0  0  0  0  0  0
    2.1471   -0.0120    0.1319 C   0  0  0  0  0  0  0  0  0  0  0  0
    3.4535   -0.4771    0.2222 C   0  0  0  0  0  0  0  0  0  0  0  0
    4.5080    0.4250    0.2955 C   0  0  0  0  0  0  0  0  0  0  0  0
    4.2560    1.7881    0.2785 C   0  0  0  0  0  0  0  0  0  0  0  0
    5.7867   -0.0292    0.3842 O   0  0  0  0  0  0  0  0  0  0  0  0
    6.8210    0.9543    0.4561 C   0  0  0  0  0  0  0  0  0  0  0  0
    3.7003   -1.8163    0.2392 O   0  0  0  0  0  0  0  0  0  0  0  0
    3.9055   -2.4543   -1.0229 C   0  0  0  0  0  0  0  0  0  0  0  0
    1.1146   -0.8941    0.0597 O   0  0  0  0  0  0  0  0  0  0  0  0
   -0.2019   -0.3459   -0.0316 C   0  0  0  0  0  0  0  0  0  0  0  0
    3.5754    6.0163    3.2454 H   0  0  0  0  0  0  0  0  0  0  0  0
    1.7978    5.9681    3.1688 H   0  0  0  0  0  0  0  0  0  0  0  0
    2.7570    4.6811    2.3994 H   0  0  0  0  0  0  0  0  0  0  0  0
    3.7147    6.2414   -1.8665 H   0  0  0  0  0  0  0  0  0  0  0  0
    2.8541    8.5206   -1.9800 H   0  0  0  0  0  0  0  0  0  0  0  0
    0.4498   12.0683    1.9269 H   0  0  0  0  0  0  0  0  0  0  0  0
    0.8448   12.1478    0.2959 H   0  0  0  0  0  0  0  0  0  0  0  0
    2.4083    7.2742    3.9643 H   0  0  0  0  0  0  0  0  0  0  0  0
    0.8622    7.8784    4.2235 H   0  0  0  0  0  0  0  0  0  0  0  0
    4.3560    4.4230    1.1784 H   0  0  0  0  0  0  0  0  0  0  0  0
    4.4789    4.4236   -0.5973 H   0  0  0  0  0  0  0  0  0  0  0  0
    1.7851    3.9521    0.1083 H   0  0  0  0  0  0  0  0  0  0  0  0
    0.8817    1.7129    0.0405 H   0  0  0  0  0  0  0  0  0  0  0  0
    5.0754    2.4893    0.3351 H   0  0  0  0  0  0  0  0  0  0  0  0
    6.7928    1.5772   -0.4379 H   0  0  0  0  0  0  0  0  0  0  0  0
    6.6695    1.5771    1.3378 H   0  0  0  0  0  0  0  0  0  0  0  0
    7.7895    0.4588    0.5233 H   0  0  0  0  0  0  0  0  0  0  0  0
    4.7639   -2.0046   -1.5220 H   0  0  0  0  0  0  0  0  0  0  0  0
    4.0915   -3.5169   -0.8669 H   0  0  0  0  0  0  0  0  0  0  0  0
    3.0177   -2.3279   -1.6425 H   0  0  0  0  0  0  0  0  0  0  0  0
   -0.4017    0.2676    0.8469 H   0  0  0  0  0  0  0  0  0  0  0  0
   -0.2782    0.2684   -0.9288 H   0  0  0  0  0  0  0  0  0  0  0  0
   -0.9299   -1.1555   -0.0826 H   0  0  0  0  0  0  0  0  0  0  0  0
    1.8050    9.8648    0.0271 N   0  3  0  0  0  0  0  0  0  0  0  0
    1.8021   10.4267   -0.8001 H   0  0  0  0  0  0  0  0  0  0  0  0
  1  2  1  0  0  0  0
  1 27  1  0  0  0  0
  1 28  1  0  0  0  0
  1 29  1  0  0  0  0
  2  7  2  0  0  0  0
  2  3  1  0  0  0  0
  3  4  2  0  0  0  0
  3 13  1  0  0  0  0
  4  5  1  0  0  0  0
  4 30  1  0  0  0  0
  5  6  2  0  0  0  0
  5 31  1  0  0  0  0
  6  7  1  0  0  0  0
  6 50  1  0  0  0  0
  7  8  1  0  0  0  0
  8  9  2  0  0  0  0
  8 12  1  0  0  0  0
  9 10  1  0  0  0  0
 10 11  1  0  0  0  0
 10 50  2  0  0  0  0
 11 32  1  0  0  0  0
 11 33  1  0  0  0  0
 12 34  1  0  0  0  0
 12 35  1  0  0  0  0
 13 14  1  0  0  0  0
 13 36  1  0  0  0  0
 13 37  1  0  0  0  0
 14 15  1  0  0  0  0
 14 38  1  0  0  0  0
 15 20  2  0  0  0  0
 15 16  1  0  0  0  0
 16 17  2  0  0  0  0
 16 39  1  0  0  0  0
 17 18  1  0  0  0  0
 17 25  1  0  0  0  0
 18 19  2  0  0  0  0
 18 23  1  0  0  0  0
 19 20  1  0  0  0  0
 19 21  1  0  0  0  0
 20 40  1  0  0  0  0
 21 22  1  0  0  0  0
 22 41  1  0  0  0  0
 22 42  1  0  0  0  0
 22 43  1  0  0  0  0
 23 24  1  0  0  0  0
 24 44  1  0  0  0  0
 24 45  1  0  0  0  0
 24 46  1  0  0  0  0
 25 26  1  0  0  0  0
 26 47  1  0  0  0  0
 26 48  1  0  0  0  0
 26 49  1  0  0  0  0
 50 51  1  0  0  0  0
M  CHG  1  50   1
M  END
$$$$
ZINC01489187
  -OEChem-08230709403D

 44 46  0     0  0  0  0  0  0999 V2000
    0.6018    1.5059    0.0250 C   0  0  0  0  0  0  0  0  0  0  0  0
    0.5970   -0.0011    0.0161 C   0  0  0  0  0  0  0  0  0  0  0  0
    0.7585   -0.7002   -1.1515 C   0  0  0  0  0  0  0  0  0  0  0  0
    0.7532   -2.0894   -1.1326 C   0  0  0  0  0  0  0  0  0  0  0  0
    0.5888   -2.7658   -0.0176 N   0  0  0  0  0  0  0  0  0  0  0  0
    0.4225   -2.1439    1.1498 C   0  0  0  0  0  0  0  0  0  0  0  0
    0.4215   -0.7279    1.1991 C   0  0  0  0  0  0  0  0  0  0  0  0
    0.2422   -0.0940    2.4535 C   0  0  0  0  0  0  0  0  0  0  0  0
    0.0832   -0.8573    3.5253 N   0  0  0  0  0  0  0  0  0  0  0  0
    0.0905   -2.1842    3.4357 C   0  0  0  0  0  0  0  0  0  0  0  0
    0.2532   -2.8238    2.2928 N   0  0  0  0  0  0  0  0  0  0  0  0
   -0.0802   -2.9254    4.5893 N   0  0  0  0  0  0  0  0  0  0  0  0
    0.2328    1.2797    2.5563 N   0  0  0  0  0  0  0  0  0  0  0  0
    0.9447    0.0365   -2.4530 C   0  0  0  0  0  0  0  0  0  0  0  0
    2.3364    0.4790   -2.5689 N   0  0  0  0  0  0  0  0  0  0  0  0
    2.7530    1.1893   -3.7006 C   0  0  0  0  0  0  0  0  0  0  0  0
    1.8508    1.4705   -4.7163 C   0  0  0  0  0  0  0  0  0  0  0  0
    2.2635    2.1764   -5.8308 C   0  0  0  0  0  0  0  0  0  0  0  0
    3.5765    2.5949   -5.9411 C   0  0  0  0  0  0  0  0  0  0  0  0
    4.4826    2.3137   -4.9350 C   0  0  0  0  0  0  0  0  0  0  0  0
    4.0760    1.6110   -3.8128 C   0  0  0  0  0  0  0  0  0  0  0  0
    4.9664    1.3330   -2.8229 O   0  0  0  0  0  0  0  0  0  0  0  0
    6.3057    1.7965   -3.0060 C   0  0  0  0  0  0  0  0  0  0  0  0
    1.2811    2.4856   -6.9309 C   0  0  0  0  0  0  0  0  0  0  0  0
    1.9276    3.1977   -7.9469 F   0  0  0  0  0  0  0  0  0  0  0  0
    0.7715    1.2908   -7.4505 F   0  0  0  0  0  0  0  0  0  0  0  0
    0.2322    3.2554   -6.4167 F   0  0  0  0  0  0  0  0  0  0  0  0
    1.5932    1.8644    0.3020 H   0  0  0  0  0  0  0  0  0  0  0  0
    0.3459    1.8759   -0.9678 H   0  0  0  0  0  0  0  0  0  0  0  0
   -0.1301    1.8674    0.7473 H   0  0  0  0  0  0  0  0  0  0  0  0
    0.8854   -2.6280   -2.0594 H   0  0  0  0  0  0  0  0  0  0  0  0
   -0.2018   -2.4766    5.4406 H   0  0  0  0  0  0  0  0  0  0  0  0
   -0.0784   -3.8945    4.5478 H   0  0  0  0  0  0  0  0  0  0  0  0
   -0.4080    1.7182    3.1377 H   0  0  0  0  0  0  0  0  0  0  0  0
    0.8670    1.8085    2.0474 H   0  0  0  0  0  0  0  0  0  0  0  0
    0.7040   -0.6270   -3.2836 H   0  0  0  0  0  0  0  0  0  0  0  0
    0.2845    0.9035   -2.4774 H   0  0  0  0  0  0  0  0  0  0  0  0
    2.9693    0.2796   -1.8613 H   0  0  0  0  0  0  0  0  0  0  0  0
    0.8255    1.1412   -4.6346 H   0  0  0  0  0  0  0  0  0  0  0  0
    3.8956    3.1426   -6.8155 H   0  0  0  0  0  0  0  0  0  0  0  0
    5.5077    2.6418   -5.0245 H   0  0  0  0  0  0  0  0  0  0  0  0
    6.7237    1.3521   -3.9092 H   0  0  0  0  0  0  0  0  0  0  0  0
    6.3044    2.8822   -3.1023 H   0  0  0  0  0  0  0  0  0  0  0  0
    6.9105    1.5087   -2.1460 H   0  0  0  0  0  0  0  0  0  0  0  0
  1  2  1  0  0  0  0
  1 28  1  0  0  0  0
  1 29  1  0  0  0  0
  1 30  1  0  0  0  0
  2  7  2  0  0  0  0
  2  3  1  0  0  0  0
  3  4  2  0  0  0  0
  3 14  1  0  0  0  0
  4  5  1  0  0  0  0
  4 31  1  0  0  0  0
  5  6  2  0  0  0  0
  6 11  1  0  0  0  0
  6  7  1  0  0  0  0
  7  8  1  0  0  0  0
  8  9  2  0  0  0  0
  8 13  1  0  0  0  0
  9 10  1  0  0  0  0
 10 11  2  0  0  0  0
 10 12  1  0  0  0  0
 12 32  1  0  0  0  0
 12 33  1  0  0  0  0
 13 34  1  0  0  0  0
 13 35  1  0  0  0  0
 14 15  1  0  0  0  0
 14 36  1  0  0  0  0
 14 37  1  0  0  0  0
 15 16  1  0  0  0  0
 15 38  1  0  0  0  0
 16 21  2  0  0  0  0
 16 17  1  0  0  0  0
 17 18  2  0  0  0  0
 17 39  1  0  0  0  0
 18 19  1  0  0  0  0
 18 24  1  0  0  0  0
 19 20  2  0  0  0  0
 19 40  1  0  0  0  0
 20 21  1  0  0  0  0
 20 41  1  0  0  0  0
 21 22  1  0  0  0  0
 22 23  1  0  0  0  0
 23 42  1  0  0  0  0
 23 43  1  0  0  0  0
 23 44  1  0  0  0  0
 24 25  1  0  0  0  0
 24 26  1  0  0  0  0
 24 27  1  0  0  0  0
M  END
$$$$
ZINC01489187
  -OEChem-08230709403D

 45 47  0     0  0  0  0  0  0999 V2000
    0.6018    1.5059    0.0250 C   0  0  0  0  0  0  0  0  0  0  0  0
    0.5970   -0.0011    0.0161 C   0  0  0  0  0  0  0  0  0  0  0  0
    0.7585   -0.7002   -1.1515 C   0  0  0  0  0  0  0  0  0  0  0  0
    0.7532   -2.0894   -1.1326 C   0  0  0  0  0  0  0  0  0  0  0  0
    0.5888   -2.7658   -0.0176 N   0  0  0  0  0  0  0  0  0  0  0  0
    0.4225   -2.1439    1.1498 C   0  0  0  0  0  0  0  0  0  0  0  0
    0.4215   -0.7279    1.1991 C   0  0  0  0  0  0  0  0  0  0  0  0
    0.2422   -0.0940    2.4535 C   0  0  0  0  0  0  0  0  0  0  0  0
    0.0832   -0.8573    3.5253 N   0  0  0  0  0  0  0  0  0  0  0  0
    0.0905   -2.1842    3.4357 C   0  0  0  0  0  0  0  0  0  0  0  0
   -0.0802   -2.9254    4.5893 N   0  0  0  0  0  0  0  0  0  0  0  0
    0.2328    1.2797    2.5563 N   0  0  0  0  0  0  0  0  0  0  0  0
    0.9447    0.0365   -2.4530 C   0  0  0  0  0  0  0  0  0  0  0  0
    2.3364    0.4790   -2.5689 N   0  0  0  0  0  0  0  0  0  0  0  0
    2.7530    1.1893   -3.7006 C   0  0  0  0  0  0  0  0  0  0  0  0
    1.8508    1.4705   -4.7163 C   0  0  0  0  0  0  0  0  0  0  0  0
    2.2635    2.1764   -5.8308 C   0  0  0  0  0  0  0  0  0  0  0  0
    3.5765    2.5949   -5.9411 C   0  0  0  0  0  0  0  0  0  0  0  0
    4.4826    2.3137   -4.9350 C   0  0  0  0  0  0  0  0  0  0  0  0
    4.0760    1.6110   -3.8128 C   0  0  0  0  0  0  0  0  0  0  0  0
    4.9664    1.3330   -2.8229 O   0  0  0  0  0  0  0  0  0  0  0  0
    6.3057    1.7965   -3.0060 C   0  0  0  0  0  0  0  0  0  0  0  0
    1.2811    2.4856   -6.9309 C   0  0  0  0  0  0  0  0  0  0  0  0
    1.9276    3.1977   -7.9469 F   0  0  0  0  0  0  0  0  0  0  0  0
    0.7715    1.2908   -7.4505 F   0  0  0  0  0  0  0  0  0  0  0  0
    0.2322    3.2554   -6.4167 F   0  0  0  0  0  0  0  0  0  0  0  0
    1.5932    1.8644    0.3020 H   0  0  0  0  0  0  0  0  0  0  0  0
    0.3459    1.8759   -0.9678 H   0  0  0  0  0  0  0  0  0  0  0  0
   -0.1301    1.8674    0.7473 H   0  0  0  0  0  0  0  0  0  0  0  0
    0.8854   -2.6280   -2.0594 H   0  0  0  0  0  0  0  0  0  0  0  0
   -0.2018   -2.4766    5.4406 H   0  0  0  0  0  0  0  0  0  0  0  0
   -0.0784   -3.8945    4.5478 H   0  0  0  0  0  0  0  0  0  0  0  0
   -0.4080    1.7182    3.1377 H   0  0  0  0  0  0  0  0  0  0  0  0
    0.8670    1.8085    2.0474 H   0  0  0  0  0  0  0  0  0  0  0  0
    0.7040   -0.6270   -3.2836 H   0  0  0  0  0  0  0  0  0  0  0  0
    0.2845    0.9035   -2.4774 H   0  0  0  0  0  0  0  0  0  0  0  0
    2.9693    0.2796   -1.8613 H   0  0  0  0  0  0  0  0  0  0  0  0
    0.8255    1.1412   -4.6346 H   0  0  0  0  0  0  0  0  0  0  0  0
    3.8956    3.1426   -6.8155 H   0  0  0  0  0  0  0  0  0  0  0  0
    5.5077    2.6418   -5.0245 H   0  0  0  0  0  0  0  0  0  0  0  0
    6.7237    1.3521   -3.9092 H   0  0  0  0  0  0  0  0  0  0  0  0
    6.3044    2.8822   -3.1023 H   0  0  0  0  0  0  0  0  0  0  0  0
    6.9105    1.5087   -2.1460 H   0  0  0  0  0  0  0  0  0  0  0  0
    0.2529   -2.8960    2.2921 N   0  3  0  0  0  0  0  0  0  0  0  0
    0.2439   -3.8956    2.3198 H   0  0  0  0  0  0  0  0  0  0  0  0
  1  2  1  0  0  0  0
  1 27  1  0  0  0  0
  1 28  1  0  0  0  0
  1 29  1  0  0  0  0
  2  7  2  0  0  0  0
  2  3  1  0  0  0  0
  3  4  2  0  0  0  0
  3 13  1  0  0  0  0
  4  5  1  0  0  0  0
  4 30  1  0  0  0  0
  5  6  2  0  0  0  0
  6  7  1  0  0  0  0
  6 44  1  0  0  0  0
  7  8  1  0  0  0  0
  8  9  2  0  0  0  0
  8 12  1  0  0  0  0
  9 10  1  0  0  0  0
 10 11  1  0  0  0  0
 10 44  2  0  0  0  0
 11 31  1  0  0  0  0
 11 32  1  0  0  0  0
 12 33  1  0  0  0  0
 12 34  1  0  0  0  0
 13 14  1  0  0  0  0
 13 35  1  0  0  0  0
 13 36  1  0  0  0  0
 14 15  1  0  0  0  0
 14 37  1  0  0  0  0
 15 20  2  0  0  0  0
 15 16  1  0  0  0  0
 16 17  2  0  0  0  0
 16 38  1  0  0  0  0
 17 18  1  0  0  0  0
 17 23  1  0  0  0  0
 18 19  2  0  0  0  0
 18 39  1  0  0  0  0
 19 20  1  0  0  0  0
 19 40  1  0  0  0  0
 20 21  1  0  0  0  0
 21 22  1  0  0  0  0
 22 41  1  0  0  0  0
 22 42  1  0  0  0  0
 22 43  1  0  0  0  0
 23 24  1  0  0  0  0
 23 25  1  0  0  0  0
 23 26  1  0  0  0  0
 44 45  1  0  0  0  0
M  CHG  1  44   1
M  END
$$$$
ZINC03814826
  -OEChem-08230709403D

 53 55  0     1  0  0  0  0  0999 V2000
    5.6022    3.9702    1.2044 C   0  0  0  0  0  0  0  0  0  0  0  0
    4.8311    4.2260   -0.0195 N   0  0  1  0  0  0  0  0  0  0  0  0
    5.6232    3.9122   -1.2161 C   0  0  0  0  0  0  0  0  0  0  0  0
    6.7827    4.8695   -1.3163 C   0  0  0  0  0  0  0  0  0  0  0  0
    8.0263    4.5039   -0.8019 C   0  0  0  0  0  0  0  0  0  0  0  0
    9.0539    5.3227   -0.8780 N   0  0  0  0  0  0  0  0  0  0  0  0
    8.9029    6.5175   -1.4548 C   0  0  0  0  0  0  0  0  0  0  0  0
    7.6369    6.8840   -1.9758 C   0  0  0  0  0  0  0  0  0  0  0  0
    6.6132    6.0402   -1.8931 N   0  0  0  0  0  0  0  0  0  0  0  0
    7.5103    8.2019   -2.6005 C   0  0  0  0  0  0  0  0  0  0  0  0
    8.5893    8.9715   -2.6396 N   0  0  0  0  0  0  0  0  0  0  0  0
    9.7471    8.5630   -2.1300 C   0  0  0  0  0  0  0  0  0  0  0  0
    9.9152    7.3875   -1.5576 N   0  0  0  0  0  0  0  0  0  0  0  0
   10.8319    9.4156   -2.2045 N   0  0  0  0  0  0  0  0  0  0  0  0
    6.3116    8.6279   -3.1291 N   0  0  0  0  0  0  0  0  0  0  0  0
    3.6344    3.5151   -0.0128 C   0  0  0  0  0  0  0  0  0  0  0  0
    3.6532    2.1239   -0.0205 C   0  0  0  0  0  0  0  0  0  0  0  0
    2.4718    1.4175   -0.0081 C   0  0  0  0  0  0  0  0  0  0  0  0
    1.2512    2.0985    0.0014 C   0  0  0  0  0  0  0  0  0  0  0  0
    1.2338    3.4964    0.0091 C   0  0  0  0  0  0  0  0  0  0  0  0
    2.4196    4.1983    0.0020 C   0  0  0  0  0  0  0  0  0  0  0  0
    2.4047    5.5492    0.0098 F   0  0  0  0  0  0  0  0  0  0  0  0
   -0.0162    1.3436    0.0094 C   0  0  0  0  0  0  0  0  0  0  0  0
   -1.0774    1.9372    0.0177 O   0  0  0  0  0  0  0  0  0  0  0  0
    0.0021   -0.0041    0.0020 N   0  0  0  0  0  0  0  0  0  0  0  0
   -1.2565   -0.7538    0.0100 C   0  0  2  0  0  0  0  0  0  0  0  0
   -1.9938   -0.2196    0.6094 H   0  0  0  0  0  0  0  0  0  0  0  0
   -1.0199   -2.1412    0.6100 C   0  0  0  0  0  0  0  0  0  0  0  0
   -0.6236   -1.9999    2.0810 C   0  0  0  0  0  0  0  0  0  0  0  0
   -0.3906   -3.3665    2.6719 C   0  0  0  0  0  0  0  0  0  0  0  0
   -0.5274   -4.3523    1.9868 O   0  0  0  0  0  0  0  0  0  0  0  0
   -1.7650   -0.8968   -1.4014 C   0  0  0  0  0  0  0  0  0  0  0  0
   -1.1401   -0.4214   -2.3197 O   0  0  0  0  0  0  0  0  0  0  0  0
    5.8282    2.9062    1.2757 H   0  0  0  0  0  0  0  0  0  0  0  0
    6.5322    4.5378    1.1732 H   0  0  0  0  0  0  0  0  0  0  0  0
    5.0185    4.2766    2.0724 H   0  0  0  0  0  0  0  0  0  0  0  0
    5.9996    2.8917   -1.1453 H   0  0  0  0  0  0  0  0  0  0  0  0
    4.9958    4.0074   -2.1024 H   0  0  0  0  0  0  0  0  0  0  0  0
    8.1475    3.5375   -0.3353 H   0  0  0  0  0  0  0  0  0  0  0  0
   11.6889    9.1430   -1.8409 H   0  0  0  0  0  0  0  0  0  0  0  0
   10.7365   10.2867   -2.6205 H   0  0  0  0  0  0  0  0  0  0  0  0
    6.2465    9.5046   -3.5390 H   0  0  0  0  0  0  0  0  0  0  0  0
    5.5326    8.0511   -3.0915 H   0  0  0  0  0  0  0  0  0  0  0  0
    4.5961    1.5974   -0.0319 H   0  0  0  0  0  0  0  0  0  0  0  0
    2.4879    0.3376   -0.0099 H   0  0  0  0  0  0  0  0  0  0  0  0
    0.2923    4.0255    0.0209 H   0  0  0  0  0  0  0  0  0  0  0  0
    0.8486   -0.4776   -0.0086 H   0  0  0  0  0  0  0  0  0  0  0  0
   -1.9340   -2.7302    0.5349 H   0  0  0  0  0  0  0  0  0  0  0  0
   -0.2197   -2.6413    0.0645 H   0  0  0  0  0  0  0  0  0  0  0  0
    0.2905   -1.4109    2.1560 H   0  0  0  0  0  0  0  0  0  0  0  0
   -1.4239   -1.4998    2.6265 H   0  0  0  0  0  0  0  0  0  0  0  0
   -0.0310   -3.4886    3.9594 O   0  5  0  0  0  0  0  0  0  0  0  0
   -2.9120   -1.5525   -1.6383 O   0  5  0  0  0  0  0  0  0  0  0  0
  1  2  1  0  0  0  0
  1 34  1  0  0  0  0
  1 35  1  0  0  0  0
  1 36  1  0  0  0  0
  2  3  1  0  0  0  0
  2 16  1  0  0  0  0
  3  4  1  0  0  0  0
  3 37  1  0  0  0  0
  3 38  1  0  0  0  0
  4  9  2  0  0  0  0
  4  5  1  0  0  0  0
  5  6  2  0  0  0  0
  5 39  1  0  0  0  0
  6  7  1  0  0  0  0
  7 13  2  0  0  0  0
  7  8  1  0  0  0  0
  8  9  1  0  0  0  0
  8 10  2  0  0  0  0
 10 11  1  0  0  0  0
 10 15  1  0  0  0  0
 11 12  2  0  0  0  0
 12 13  1  0  0  0  0
 12 14  1  0  0  0  0
 14 40  1  0  0  0  0
 14 41  1  0  0  0  0
 15 42  1  0  0  0  0
 15 43  1  0  0  0  0
 16 21  2  0  0  0  0
 16 17  1  0  0  0  0
 17 18  2  0  0  0  0
 17 44  1  0  0  0  0
 18 19  1  0  0  0  0
 18 45  1  0  0  0  0
 19 20  2  0  0  0  0
 19 23  1  0  0  0  0
 20 21  1  0  0  0  0
 20 46  1  0  0  0  0
 21 22  1  0  0  0  0
 23 24  2  0  0  0  0
 23 25  1  0  0  0  0
 25 26  1  0  0  0  0
 25 47  1  0  0  0  0
 26 27  1  0  0  0  0
 26 28  1  0  0  0  0
 26 32  1  0  0  0  0
 28 29  1  0  0  0  0
 28 48  1  0  0  0  0
 28 49  1  0  0  0  0
 29 30  1  0  0  0  0
 29 50  1  0  0  0  0
 29 51  1  0  0  0  0
 30 31  2  0  0  0  0
 30 52  1  0  0  0  0
 32 33  2  0  0  0  0
 32 53  1  0  0  0  0
M  CHG  2  52  -1  53  -1
M  END
$$$$
ZINC03814826
  -OEChem-08230709403D

 54 56  0     1  0  0  0  0  0999 V2000
    5.6022    3.9702    1.2044 C   0  0  0  0  0  0  0  0  0  0  0  0
    4.8311    4.2260   -0.0195 N   0  0  1  0  0  0  0  0  0  0  0  0
    5.6232    3.9122   -1.2161 C   0  0  0  0  0  0  0  0  0  0  0  0
    6.7827    4.8695   -1.3163 C   0  0  0  0  0  0  0  0  0  0  0  0
    8.0263    4.5039   -0.8019 C   0  0  0  0  0  0  0  0  0  0  0  0
    9.0539    5.3227   -0.8780 N   0  0  0  0  0  0  0  0  0  0  0  0
    8.9029    6.5175   -1.4548 C   0  0  0  0  0  0  0  0  0  0  0  0
    7.6369    6.8840   -1.9758 C   0  0  0  0  0  0  0  0  0  0  0  0
    6.6132    6.0402   -1.8931 N   0  0  0  0  0  0  0  0  0  0  0  0
    7.5103    8.2019   -2.6005 C   0  0  0  0  0  0  0  0  0  0  0  0
    8.5893    8.9715   -2.6396 N   0  0  0  0  0  0  0  0  0  0  0  0
    9.7471    8.5630   -2.1300 C   0  0  0  0  0  0  0  0  0  0  0  0
   10.8319    9.4156   -2.2045 N   0  0  0  0  0  0  0  0  0  0  0  0
    6.3116    8.6279   -3.1291 N   0  0  0  0  0  0  0  0  0  0  0  0
    3.6344    3.5151   -0.0128 C   0  0  0  0  0  0  0  0  0  0  0  0
    3.6532    2.1239   -0.0205 C   0  0  0  0  0  0  0  0  0  0  0  0
    2.4718    1.4175   -0.0081 C   0  0  0  0  0  0  0  0  0  0  0  0
    1.2512    2.0985    0.0014 C   0  0  0  0  0  0  0  0  0  0  0  0
    1.2338    3.4964    0.0091 C   0  0  0  0  0  0  0  0  0  0  0  0
    2.4196    4.1983    0.0020 C   0  0  0  0  0  0  0  0  0  0  0  0
    2.4047    5.5492    0.0098 F   0  0  0  0  0  0  0  0  0  0  0  0
   -0.0162    1.3436    0.0094 C   0  0  0  0  0  0  0  0  0  0  0  0
   -1.0774    1.9372    0.0177 O   0  0  0  0  0  0  0  0  0  0  0  0
    0.0021   -0.0041    0.0020 N   0  0  0  0  0  0  0  0  0  0  0  0
   -1.2565   -0.7538    0.0100 C   0  0  2  0  0  0  0  0  0  0  0  0
   -1.9938   -0.2196    0.6094 H   0  0  0  0  0  0  0  0  0  0  0  0
   -1.0199   -2.1412    0.6100 C   0  0  0  0  0  0  0  0  0  0  0  0
   -0.6236   -1.9999    2.0810 C   0  0  0  0  0  0  0  0  0  0  0  0
   -0.3906   -3.3665    2.6719 C   0  0  0  0  0  0  0  0  0  0  0  0
   -0.5274   -4.3523    1.9868 O   0  0  0  0  0  0  0  0  0  0  0  0
   -1.7650   -0.8968   -1.4014 C   0  0  0  0  0  0  0  0  0  0  0  0
   -1.1401   -0.4214   -2.3197 O   0  0  0  0  0  0  0  0  0  0  0  0
    5.8282    2.9062    1.2757 H   0  0  0  0  0  0  0  0  0  0  0  0
    6.5322    4.5378    1.1732 H   0  0  0  0  0  0  0  0  0  0  0  0
    5.0185    4.2766    2.0724 H   0  0  0  0  0  0  0  0  0  0  0  0
    5.9996    2.8917   -1.1453 H   0  0  0  0  0  0  0  0  0  0  0  0
    4.9958    4.0074   -2.1024 H   0  0  0  0  0  0  0  0  0  0  0  0
    8.1475    3.5375   -0.3353 H   0  0  0  0  0  0  0  0  0  0  0  0
   11.6889    9.1430   -1.8409 H   0  0  0  0  0  0  0  0  0  0  0  0
   10.7365   10.2867   -2.6205 H   0  0  0  0  0  0  0  0  0  0  0  0
    6.2465    9.5046   -3.5390 H   0  0  0  0  0  0  0  0  0  0  0  0
    5.5326    8.0511   -3.0915 H   0  0  0  0  0  0  0  0  0  0  0  0
    4.5961    1.5974   -0.0319 H   0  0  0  0  0  0  0  0  0  0  0  0
    2.4879    0.3376   -0.0099 H   0  0  0  0  0  0  0  0  0  0  0  0
    0.2923    4.0255    0.0209 H   0  0  0  0  0  0  0  0  0  0  0  0
    0.8486   -0.4776   -0.0086 H   0  0  0  0  0  0  0  0  0  0  0  0
   -1.9340   -2.7302    0.5349 H   0  0  0  0  0  0  0  0  0  0  0  0
   -0.2197   -2.6413    0.0645 H   0  0  0  0  0  0  0  0  0  0  0  0
    0.2905   -1.4109    2.1560 H   0  0  0  0  0  0  0  0  0  0  0  0
   -1.4239   -1.4998    2.6265 H   0  0  0  0  0  0  0  0  0  0  0  0
   -0.0310   -3.4886    3.9594 O   0  5  0  0  0  0  0  0  0  0  0  0
   -2.9120   -1.5525   -1.6383 O   0  5  0  0  0  0  0  0  0  0  0  0
    9.9834    7.3691   -1.5301 N   0  3  0  0  0  0  0  0  0  0  0  0
   10.8675    7.0894   -1.1557 H   0  0  0  0  0  0  0  0  0  0  0  0
  1  2  1  0  0  0  0
  1 33  1  0  0  0  0
  1 34  1  0  0  0  0
  1 35  1  0  0  0  0
  2  3  1  0  0  0  0
  2 15  1  0  0  0  0
  3  4  1  0  0  0  0
  3 36  1  0  0  0  0
  3 37  1  0  0  0  0
  4  9  2  0  0  0  0
  4  5  1  0  0  0  0
  5  6  2  0  0  0  0
  5 38  1  0  0  0  0
  6  7  1  0  0  0  0
  7  8  2  0  0  0  0
  7 53  1  0  0  0  0
  8  9  1  0  0  0  0
  8 10  1  0  0  0  0
 10 11  2  0  0  0  0
 10 14  1  0  0  0  0
 11 12  1  0  0  0  0
 12 13  1  0  0  0  0
 12 53  2  0  0  0  0
 13 39  1  0  0  0  0
 13 40  1  0  0  0  0
 14 41  1  0  0  0  0
 14 42  1  0  0  0  0
 15 20  2  0  0  0  0
 15 16  1  0  0  0  0
 16 17  2  0  0  0  0
 16 43  1  0  0  0  0
 17 18  1  0  0  0  0
 17 44  1  0  0  0  0
 18 19  2  0  0  0  0
 18 22  1  0  0  0  0
 19 20  1  0  0  0  0
 19 45  1  0  0  0  0
 20 21  1  0  0  0  0
 22 23  2  0  0  0  0
 22 24  1  0  0  0  0
 24 25  1  0  0  0  0
 24 46  1  0  0  0  0
 25 26  1  0  0  0  0
 25 27  1  0  0  0  0
 25 31  1  0  0  0  0
 27 28  1  0  0  0  0
 27 47  1  0  0  0  0
 27 48  1  0  0  0  0
 28 29  1  0  0  0  0
 28 49  1  0  0  0  0
 28 50  1  0  0  0  0
 29 30  2  0  0  0  0
 29 51  1  0  0  0  0
 31 32  2  0  0  0  0
 31 52  1  0  0  0  0
 53 54  1  0  0  0  0
M  CHG  3  51  -1  52  -1  53   1
M  END
$$$$
ZINC03814827
  -OEChem-08230709403D

 53 55  0     1  0  0  0  0  0999 V2000
    3.6306   -2.1070   -0.0439 C   0  0  0  0  0  0  0  0  0  0  0  0
    3.6125   -0.6422   -0.0359 N   0  0  3  0  0  0  0  0  0  0  0  0
    4.8720    0.1060   -0.0439 C   0  0  0  0  0  0  0  0  0  0  0  0
    5.3174    0.3550    1.3741 C   0  0  0  0  0  0  0  0  0  0  0  0
    6.2231   -0.5177    1.9765 C   0  0  0  0  0  0  0  0  0  0  0  0
    6.6272   -0.3208    3.2135 N   0  0  0  0  0  0  0  0  0  0  0  0
    6.1638    0.7272    3.8990 C   0  0  0  0  0  0  0  0  0  0  0  0
    5.2435    1.6109    3.2820 C   0  0  0  0  0  0  0  0  0  0  0  0
    4.8521    1.3968    2.0299 N   0  0  0  0  0  0  0  0  0  0  0  0
    4.7579    2.7483    4.0652 C   0  0  0  0  0  0  0  0  0  0  0  0
    5.2096    2.8807    5.3047 N   0  0  0  0  0  0  0  0  0  0  0  0
    6.0736    2.0122    5.8208 C   0  0  0  0  0  0  0  0  0  0  0  0
    6.5422    0.9726    5.1595 N   0  0  0  0  0  0  0  0  0  0  0  0
    6.5036    2.2099    7.1190 N   0  0  0  0  0  0  0  0  0  0  0  0
    3.8622    3.6497    3.5330 N   0  0  0  0  0  0  0  0  0  0  0  0
    2.3998    0.0381   -0.0207 C   0  0  0  0  0  0  0  0  0  0  0  0
    1.2038   -0.6744   -0.0131 C   0  0  0  0  0  0  0  0  0  0  0  0
    0.0021   -0.0041    0.0020 C   0  0  0  0  0  0  0  0  0  0  0  0
   -0.0169    1.3937    0.0097 C   0  0  0  0  0  0  0  0  0  0  0  0
    1.1858    2.1062    0.0020 C   0  0  0  0  0  0  0  0  0  0  0  0
    2.3843    1.4302   -0.0135 C   0  0  0  0  0  0  0  0  0  0  0  0
   -1.3035    2.1154    0.0197 C   0  0  0  0  0  0  0  0  0  0  0  0
   -2.3489    1.4945    0.0213 O   0  0  0  0  0  0  0  0  0  0  0  0
   -1.3201    3.4631    0.0271 N   0  0  0  0  0  0  0  0  0  0  0  0
   -2.5978    4.1798    0.0371 C   0  0  2  0  0  0  0  0  0  0  0  0
   -3.3293    3.6265   -0.5519 H   0  0  0  0  0  0  0  0  0  0  0  0
   -2.4059    5.5728   -0.5659 C   0  0  0  0  0  0  0  0  0  0  0  0
   -2.0269    5.4416   -2.0424 C   0  0  0  0  0  0  0  0  0  0  0  0
   -1.8378    6.8137   -2.6363 C   0  0  0  0  0  0  0  0  0  0  0  0
   -1.9906    7.7957   -1.9491 O   0  0  0  0  0  0  0  0  0  0  0  0
   -3.0898    4.3098    1.4556 C   0  0  0  0  0  0  0  0  0  0  0  0
   -2.4398    3.8509    2.3649 O   0  0  0  0  0  0  0  0  0  0  0  0
    3.6253   -2.4648   -1.0735 H   0  0  0  0  0  0  0  0  0  0  0  0
    4.5299   -2.4620    0.4594 H   0  0  0  0  0  0  0  0  0  0  0  0
    2.7501   -2.4841    0.4763 H   0  0  0  0  0  0  0  0  0  0  0  0
    5.6339   -0.4708   -0.5681 H   0  0  0  0  0  0  0  0  0  0  0  0
    4.7250    1.0595   -0.5512 H   0  0  0  0  0  0  0  0  0  0  0  0
    6.5972   -1.3653    1.4215 H   0  0  0  0  0  0  0  0  0  0  0  0
    7.1341    1.5918    7.5206 H   0  0  0  0  0  0  0  0  0  0  0  0
    6.1749    2.9669    7.6288 H   0  0  0  0  0  0  0  0  0  0  0  0
    3.5512    4.3972    4.0672 H   0  0  0  0  0  0  0  0  0  0  0  0
    3.5426    3.5367    2.6242 H   0  0  0  0  0  0  0  0  0  0  0  0
    1.2191   -1.7542   -0.0186 H   0  0  0  0  0  0  0  0  0  0  0  0
   -0.9254   -0.5573    0.0083 H   0  0  0  0  0  0  0  0  0  0  0  0
    1.1744    3.1862    0.0076 H   0  0  0  0  0  0  0  0  0  0  0  0
    3.3138    1.9800   -0.0194 H   0  0  0  0  0  0  0  0  0  0  0  0
   -0.4862    3.9584    0.0259 H   0  0  0  0  0  0  0  0  0  0  0  0
   -3.3338    6.1378   -0.4778 H   0  0  0  0  0  0  0  0  0  0  0  0
   -1.6112    6.0936   -0.0317 H   0  0  0  0  0  0  0  0  0  0  0  0
   -1.0990    4.8766   -2.1305 H   0  0  0  0  0  0  0  0  0  0  0  0
   -2.8215    4.9208   -2.5766 H   0  0  0  0  0  0  0  0  0  0  0  0
   -1.4998    6.9448   -3.9287 O   0  5  0  0  0  0  0  0  0  0  0  0
   -4.2500    4.9355    1.7088 O   0  5  0  0  0  0  0  0  0  0  0  0
  1  2  1  0  0  0  0
  1 33  1  0  0  0  0
  1 34  1  0  0  0  0
  1 35  1  0  0  0  0
  2  3  1  0  0  0  0
  2 16  1  0  0  0  0
  3  4  1  0  0  0  0
  3 36  1  0  0  0  0
  3 37  1  0  0  0  0
  4  9  2  0  0  0  0
  4  5  1  0  0  0  0
  5  6  2  0  0  0  0
  5 38  1  0  0  0  0
  6  7  1  0  0  0  0
  7 13  2  0  0  0  0
  7  8  1  0  0  0  0
  8  9  1  0  0  0  0
  8 10  2  0  0  0  0
 10 11  1  0  0  0  0
 10 15  1  0  0  0  0
 11 12  2  0  0  0  0
 12 13  1  0  0  0  0
 12 14  1  0  0  0  0
 14 39  1  0  0  0  0
 14 40  1  0  0  0  0
 15 41  1  0  0  0  0
 15 42  1  0  0  0  0
 16 21  2  0  0  0  0
 16 17  1  0  0  0  0
 17 18  2  0  0  0  0
 17 43  1  0  0  0  0
 18 19  1  0  0  0  0
 18 44  1  0  0  0  0
 19 20  2  0  0  0  0
 19 22  1  0  0  0  0
 20 21  1  0  0  0  0
 20 45  1  0  0  0  0
 21 46  1  0  0  0  0
 22 23  2  0  0  0  0
 22 24  1  0  0  0  0
 24 25  1  0  0  0  0
 24 47  1  0  0  0  0
 25 26  1  0  0  0  0
 25 27  1  0  0  0  0
 25 31  1  0  0  0  0
 27 28  1  0  0  0  0
 27 48  1  0  0  0  0
 27 49  1  0  0  0  0
 28 29  1  0  0  0  0
 28 50  1  0  0  0  0
 28 51  1  0  0  0  0
 29 30  2  0  0  0  0
 29 52  1  0  0  0  0
 31 32  2  0  0  0  0
 31 53  1  0  0  0  0
M  CHG  2  52  -1  53  -1
M  END
$$$$
ZINC03814827
  -OEChem-08230709403D

 54 56  0     1  0  0  0  0  0999 V2000
    3.6306   -2.1070   -0.0439 C   0  0  0  0  0  0  0  0  0  0  0  0
    3.6125   -0.6422   -0.0359 N   0  0  3  0  0  0  0  0  0  0  0  0
    4.8720    0.1060   -0.0439 C   0  0  0  0  0  0  0  0  0  0  0  0
    5.3174    0.3550    1.3741 C   0  0  0  0  0  0  0  0  0  0  0  0
    6.2231   -0.5177    1.9765 C   0  0  0  0  0  0  0  0  0  0  0  0
    6.6272   -0.3208    3.2135 N   0  0  0  0  0  0  0  0  0  0  0  0
    6.1638    0.7272    3.8990 C   0  0  0  0  0  0  0  0  0  0  0  0
    5.2435    1.6109    3.2820 C   0  0  0  0  0  0  0  0  0  0  0  0
    4.8521    1.3968    2.0299 N   0  0  0  0  0  0  0  0  0  0  0  0
    4.7579    2.7483    4.0652 C   0  0  0  0  0  0  0  0  0  0  0  0
    5.2096    2.8807    5.3047 N   0  0  0  0  0  0  0  0  0  0  0  0
    6.0736    2.0122    5.8208 C   0  0  0  0  0  0  0  0  0  0  0  0
    6.5036    2.2099    7.1190 N   0  0  0  0  0  0  0  0  0  0  0  0
    3.8622    3.6497    3.5330 N   0  0  0  0  0  0  0  0  0  0  0  0
    2.3998    0.0381   -0.0207 C   0  0  0  0  0  0  0  0  0  0  0  0
    1.2038   -0.6744   -0.0131 C   0  0  0  0  0  0  0  0  0  0  0  0
    0.0021   -0.0041    0.0020 C   0  0  0  0  0  0  0  0  0  0  0  0
   -0.0169    1.3937    0.0097 C   0  0  0  0  0  0  0  0  0  0  0  0
    1.1858    2.1062    0.0020 C   0  0  0  0  0  0  0  0  0  0  0  0
    2.3843    1.4302   -0.0135 C   0  0  0  0  0  0  0  0  0  0  0  0
   -1.3035    2.1154    0.0197 C   0  0  0  0  0  0  0  0  0  0  0  0
   -2.3489    1.4945    0.0213 O   0  0  0  0  0  0  0  0  0  0  0  0
   -1.3201    3.4631    0.0271 N   0  0  0  0  0  0  0  0  0  0  0  0
   -2.5978    4.1798    0.0371 C   0  0  2  0  0  0  0  0  0  0  0  0
   -3.3293    3.6265   -0.5519 H   0  0  0  0  0  0  0  0  0  0  0  0
   -2.4059    5.5728   -0.5659 C   0  0  0  0  0  0  0  0  0  0  0  0
   -2.0269    5.4416   -2.0424 C   0  0  0  0  0  0  0  0  0  0  0  0
   -1.8378    6.8137   -2.6363 C   0  0  0  0  0  0  0  0  0  0  0  0
   -1.9906    7.7957   -1.9491 O   0  0  0  0  0  0  0  0  0  0  0  0
   -3.0898    4.3098    1.4556 C   0  0  0  0  0  0  0  0  0  0  0  0
   -2.4398    3.8509    2.3649 O   0  0  0  0  0  0  0  0  0  0  0  0
    3.6253   -2.4648   -1.0735 H   0  0  0  0  0  0  0  0  0  0  0  0
    4.5299   -2.4620    0.4594 H   0  0  0  0  0  0  0  0  0  0  0  0
    2.7501   -2.4841    0.4763 H   0  0  0  0  0  0  0  0  0  0  0  0
    5.6339   -0.4708   -0.5681 H   0  0  0  0  0  0  0  0  0  0  0  0
    4.7250    1.0595   -0.5512 H   0  0  0  0  0  0  0  0  0  0  0  0
    6.5972   -1.3653    1.4215 H   0  0  0  0  0  0  0  0  0  0  0  0
    7.1341    1.5918    7.5206 H   0  0  0  0  0  0  0  0  0  0  0  0
    6.1749    2.9669    7.6288 H   0  0  0  0  0  0  0  0  0  0  0  0
    3.5512    4.3972    4.0672 H   0  0  0  0  0  0  0  0  0  0  0  0
    3.5426    3.5367    2.6242 H   0  0  0  0  0  0  0  0  0  0  0  0
    1.2191   -1.7542   -0.0186 H   0  0  0  0  0  0  0  0  0  0  0  0
   -0.9254   -0.5573    0.0083 H   0  0  0  0  0  0  0  0  0  0  0  0
    1.1744    3.1862    0.0076 H   0  0  0  0  0  0  0  0  0  0  0  0
    3.3138    1.9800   -0.0194 H   0  0  0  0  0  0  0  0  0  0  0  0
   -0.4862    3.9584    0.0259 H   0  0  0  0  0  0  0  0  0  0  0  0
   -3.3338    6.1378   -0.4778 H   0  0  0  0  0  0  0  0  0  0  0  0
   -1.6112    6.0936   -0.0317 H   0  0  0  0  0  0  0  0  0  0  0  0
   -1.0990    4.8766   -2.1305 H   0  0  0  0  0  0  0  0  0  0  0  0
   -2.8215    4.9208   -2.5766 H   0  0  0  0  0  0  0  0  0  0  0  0
   -1.4998    6.9448   -3.9287 O   0  5  0  0  0  0  0  0  0  0  0  0
   -4.2500    4.9355    1.7088 O   0  5  0  0  0  0  0  0  0  0  0  0
    6.5914    0.9261    5.1937 N   0  3  0  0  0  0  0  0  0  0  0  0
    7.2414    0.2896    5.6089 H   0  0  0  0  0  0  0  0  0  0  0  0
  1  2  1  0  0  0  0
  1 32  1  0  0  0  0
  1 33  1  0  0  0  0
  1 34  1  0  0  0  0
  2  3  1  0  0  0  0
  2 15  1  0  0  0  0
  3  4  1  0  0  0  0
  3 35  1  0  0  0  0
  3 36  1  0  0  0  0
  4  9  2  0  0  0  0
  4  5  1  0  0  0  0
  5  6  2  0  0  0  0
  5 37  1  0  0  0  0
  6  7  1  0  0  0  0
  7  8  2  0  0  0  0
  7 53  1  0  0  0  0
  8  9  1  0  0  0  0
  8 10  1  0  0  0  0
 10 11  2  0  0  0  0
 10 14  1  0  0  0  0
 11 12  1  0  0  0  0
 12 13  1  0  0  0  0
 12 53  2  0  0  0  0
 13 38  1  0  0  0  0
 13 39  1  0  0  0  0
 14 40  1  0  0  0  0
 14 41  1  0  0  0  0
 15 20  2  0  0  0  0
 15 16  1  0  0  0  0
 16 17  2  0  0  0  0
 16 42  1  0  0  0  0
 17 18  1  0  0  0  0
 17 43  1  0  0  0  0
 18 19  2  0  0  0  0
 18 21  1  0  0  0  0
 19 20  1  0  0  0  0
 19 44  1  0  0  0  0
 20 45  1  0  0  0  0
 21 22  2  0  0  0  0
 21 23  1  0  0  0  0
 23 24  1  0  0  0  0
 23 46  1  0  0  0  0
 24 25  1  0  0  0  0
 24 26  1  0  0  0  0
 24 30  1  0  0  0  0
 26 27  1  0  0  0  0
 26 47  1  0  0  0  0
 26 48  1  0  0  0  0
 27 28  1  0  0  0  0
 27 49  1  0  0  0  0
 27 50  1  0  0  0  0
 28 29  2  0  0  0  0
 28 51  1  0  0  0  0
 30 31  2  0  0  0  0
 30 52  1  0  0  0  0
 53 54  1  0  0  0  0
M  CHG  3  51  -1  52  -1  53   1
M  END
$$$$
ZINC03814828
  -OEChem-08230709403D

 55 57  0     1  0  0  0  0  0999 V2000
   -1.2162   -1.2622   -0.2217 C   0  0  0  0  0  0  0  0  0  0  0  0
   -2.4898   -0.4569   -0.2032 C   0  0  0  0  0  0  0  0  0  0  0  0
   -3.6751   -1.0376   -0.5496 C   0  0  0  0  0  0  0  0  0  0  0  0
   -4.8590   -0.3069   -0.5373 C   0  0  0  0  0  0  0  0  0  0  0  0
   -4.8687    1.0092   -0.1799 C   0  0  0  0  0  0  0  0  0  0  0  0
   -3.6692    1.6369    0.1811 C   0  0  0  0  0  0  0  0  0  0  0  0
   -2.4654    0.8911    0.1683 C   0  0  0  0  0  0  0  0  0  0  0  0
   -1.2642    1.5472    0.5378 C   0  0  0  0  0  0  0  0  0  0  0  0
   -1.3266    2.8249    0.8822 N   0  0  0  0  0  0  0  0  0  0  0  0
   -2.4789    3.4896    0.8757 C   0  0  0  0  0  0  0  0  0  0  0  0
   -3.6249    2.9286    0.5409 N   0  0  0  0  0  0  0  0  0  0  0  0
   -2.4761    4.8237    1.2404 N   0  0  0  0  0  0  0  0  0  0  0  0
   -0.0630    0.8714    0.5442 N   0  0  0  0  0  0  0  0  0  0  0  0
   -3.7022   -2.4902   -0.9500 C   0  0  0  0  0  0  0  0  0  0  0  0
   -3.6787   -3.3284    0.2513 N   0  0  0  0  0  0  0  0  0  0  0  0
   -3.6974   -4.7136    0.1329 C   0  0  0  0  0  0  0  0  0  0  0  0
   -3.7441   -5.3025   -1.1278 C   0  0  0  0  0  0  0  0  0  0  0  0
   -3.7570   -6.6733   -1.2484 C   0  0  0  0  0  0  0  0  0  0  0  0
   -3.7342   -7.4745   -0.1030 C   0  0  0  0  0  0  0  0  0  0  0  0
   -3.6930   -6.8801    1.1616 C   0  0  0  0  0  0  0  0  0  0  0  0
   -3.6751   -5.5088    1.2754 C   0  0  0  0  0  0  0  0  0  0  0  0
   -3.7540   -8.9442   -0.2286 C   0  0  0  0  0  0  0  0  0  0  0  0
   -3.7345   -9.6399    0.7684 O   0  0  0  0  0  0  0  0  0  0  0  0
   -3.7936   -9.5158   -1.4485 N   0  0  0  0  0  0  0  0  0  0  0  0
   -3.8133  -10.9754   -1.5732 C   0  0  1  0  0  0  0  0  0  0  0  0
   -4.3853  -11.4027   -0.7496 H   0  0  0  0  0  0  0  0  0  0  0  0
   -4.4638  -11.3650   -2.9021 C   0  0  0  0  0  0  0  0  0  0  0  0
   -5.9335  -10.9395   -2.8946 C   0  0  0  0  0  0  0  0  0  0  0  0
   -6.5742  -11.3232   -4.2035 C   0  0  0  0  0  0  0  0  0  0  0  0
   -5.9223  -11.8799   -5.0550 O   0  0  0  0  0  0  0  0  0  0  0  0
   -2.4020  -11.5022   -1.5313 C   0  0  0  0  0  0  0  0  0  0  0  0
   -1.4749  -10.7370   -1.4097 O   0  0  0  0  0  0  0  0  0  0  0  0
   -0.9948   -1.6152    0.7855 H   0  0  0  0  0  0  0  0  0  0  0  0
   -1.3361   -2.1165   -0.8879 H   0  0  0  0  0  0  0  0  0  0  0  0
   -0.3964   -0.6374   -0.5761 H   0  0  0  0  0  0  0  0  0  0  0  0
   -5.7845   -0.7892   -0.8153 H   0  0  0  0  0  0  0  0  0  0  0  0
   -5.7952    1.5641   -0.1749 H   0  0  0  0  0  0  0  0  0  0  0  0
   -3.3055    5.3267    1.2463 H   0  0  0  0  0  0  0  0  0  0  0  0
   -1.6448    5.2564    1.4904 H   0  0  0  0  0  0  0  0  0  0  0  0
    0.7354    1.2981    0.1956 H   0  0  0  0  0  0  0  0  0  0  0  0
   -0.0151   -0.0293    0.9009 H   0  0  0  0  0  0  0  0  0  0  0  0
   -4.6103   -2.6938   -1.5174 H   0  0  0  0  0  0  0  0  0  0  0  0
   -2.8311   -2.7136   -1.5660 H   0  0  0  0  0  0  0  0  0  0  0  0
   -3.6502   -2.9170    1.1292 H   0  0  0  0  0  0  0  0  0  0  0  0
   -3.7658   -4.6829   -2.0121 H   0  0  0  0  0  0  0  0  0  0  0  0
   -3.7888   -7.1296   -2.2268 H   0  0  0  0  0  0  0  0  0  0  0  0
   -3.6749   -7.4964    2.0483 H   0  0  0  0  0  0  0  0  0  0  0  0
   -3.6433   -5.0490    2.2521 H   0  0  0  0  0  0  0  0  0  0  0  0
   -3.8092   -8.9608   -2.2439 H   0  0  0  0  0  0  0  0  0  0  0  0
   -3.9453  -10.8658   -3.7207 H   0  0  0  0  0  0  0  0  0  0  0  0
   -4.3989  -12.4448   -3.0357 H   0  0  0  0  0  0  0  0  0  0  0  0
   -6.4521  -11.4387   -2.0761 H   0  0  0  0  0  0  0  0  0  0  0  0
   -5.9985   -9.8597   -2.7611 H   0  0  0  0  0  0  0  0  0  0  0  0
   -7.8692  -11.0466   -4.4234 O   0  5  0  0  0  0  0  0  0  0  0  0
   -2.1749  -12.8215   -1.6290 O   0  5  0  0  0  0  0  0  0  0  0  0
  1  2  1  0  0  0  0
  1 33  1  0  0  0  0
  1 34  1  0  0  0  0
  1 35  1  0  0  0  0
  2  7  2  0  0  0  0
  2  3  1  0  0  0  0
  3  4  2  0  0  0  0
  3 14  1  0  0  0  0
  4  5  1  0  0  0  0
  4 36  1  0  0  0  0
  5  6  2  0  0  0  0
  5 37  1  0  0  0  0
  6 11  1  0  0  0  0
  6  7  1  0  0  0  0
  7  8  1  0  0  0  0
  8  9  2  0  0  0  0
  8 13  1  0  0  0  0
  9 10  1  0  0  0  0
 10 11  2  0  0  0  0
 10 12  1  0  0  0  0
 12 38  1  0  0  0  0
 12 39  1  0  0  0  0
 13 40  1  0  0  0  0
 13 41  1  0  0  0  0
 14 15  1  0  0  0  0
 14 42  1  0  0  0  0
 14 43  1  0  0  0  0
 15 16  1  0  0  0  0
 15 44  1  0  0  0  0
 16 21  2  0  0  0  0
 16 17  1  0  0  0  0
 17 18  2  0  0  0  0
 17 45  1  0  0  0  0
 18 19  1  0  0  0  0
 18 46  1  0  0  0  0
 19 20  2  0  0  0  0
 19 22  1  0  0  0  0
 20 21  1  0  0  0  0
 20 47  1  0  0  0  0
 21 48  1  0  0  0  0
 22 23  2  0  0  0  0
 22 24  1  0  0  0  0
 24 25  1  0  0  0  0
 24 49  1  0  0  0  0
 25 26  1  0  0  0  0
 25 27  1  0  0  0  0
 25 31  1  0  0  0  0
 27 28  1  0  0  0  0
 27 50  1  0  0  0  0
 27 51  1  0  0  0  0
 28 29  1  0  0  0  0
 28 52  1  0  0  0  0
 28 53  1  0  0  0  0
 29 30  2  0  0  0  0
 29 54  1  0  0  0  0
 31 32  2  0  0  0  0
 31 55  1  0  0  0  0
M  CHG  2  54  -1  55  -1
M  END
$$$$
ZINC03814828
  -OEChem-08230709403D

 56 58  0     1  0  0  0  0  0999 V2000
   -1.2162   -1.2622   -0.2217 C   0  0  0  0  0  0  0  0  0  0  0  0
   -2.4898   -0.4569   -0.2032 C   0  0  0  0  0  0  0  0  0  0  0  0
   -3.6751   -1.0376   -0.5496 C   0  0  0  0  0  0  0  0  0  0  0  0
   -4.8590   -0.3069   -0.5373 C   0  0  0  0  0  0  0  0  0  0  0  0
   -4.8687    1.0092   -0.1799 C   0  0  0  0  0  0  0  0  0  0  0  0
   -3.6692    1.6369    0.1811 C   0  0  0  0  0  0  0  0  0  0  0  0
   -2.4654    0.8911    0.1683 C   0  0  0  0  0  0  0  0  0  0  0  0
   -1.2642    1.5472    0.5378 C   0  0  0  0  0  0  0  0  0  0  0  0
   -1.3266    2.8249    0.8822 N   0  0  0  0  0  0  0  0  0  0  0  0
   -2.4789    3.4896    0.8757 C   0  0  0  0  0  0  0  0  0  0  0  0
   -2.4761    4.8237    1.2404 N   0  0  0  0  0  0  0  0  0  0  0  0
   -0.0630    0.8714    0.5442 N   0  0  0  0  0  0  0  0  0  0  0  0
   -3.7022   -2.4902   -0.9500 C   0  0  0  0  0  0  0  0  0  0  0  0
   -3.6787   -3.3284    0.2513 N   0  0  0  0  0  0  0  0  0  0  0  0
   -3.6974   -4.7136    0.1329 C   0  0  0  0  0  0  0  0  0  0  0  0
   -3.7441   -5.3025   -1.1278 C   0  0  0  0  0  0  0  0  0  0  0  0
   -3.7570   -6.6733   -1.2484 C   0  0  0  0  0  0  0  0  0  0  0  0
   -3.7342   -7.4745   -0.1030 C   0  0  0  0  0  0  0  0  0  0  0  0
   -3.6930   -6.8801    1.1616 C   0  0  0  0  0  0  0  0  0  0  0  0
   -3.6751   -5.5088    1.2754 C   0  0  0  0  0  0  0  0  0  0  0  0
   -3.7540   -8.9442   -0.2286 C   0  0  0  0  0  0  0  0  0  0  0  0
   -3.7345   -9.6399    0.7684 O   0  0  0  0  0  0  0  0  0  0  0  0
   -3.7936   -9.5158   -1.4485 N   0  0  0  0  0  0  0  0  0  0  0  0
   -3.8133  -10.9754   -1.5732 C   0  0  1  0  0  0  0  0  0  0  0  0
   -4.3853  -11.4027   -0.7496 H   0  0  0  0  0  0  0  0  0  0  0  0
   -4.4638  -11.3650   -2.9021 C   0  0  0  0  0  0  0  0  0  0  0  0
   -5.9335  -10.9395   -2.8946 C   0  0  0  0  0  0  0  0  0  0  0  0
   -6.5742  -11.3232   -4.2035 C   0  0  0  0  0  0  0  0  0  0  0  0
   -5.9223  -11.8799   -5.0550 O   0  0  0  0  0  0  0  0  0  0  0  0
   -2.4020  -11.5022   -1.5313 C   0  0  0  0  0  0  0  0  0  0  0  0
   -1.4749  -10.7370   -1.4097 O   0  0  0  0  0  0  0  0  0  0  0  0
   -0.9948   -1.6152    0.7855 H   0  0  0  0  0  0  0  0  0  0  0  0
   -1.3361   -2.1165   -0.8879 H   0  0  0  0  0  0  0  0  0  0  0  0
   -0.3964   -0.6374   -0.5761 H   0  0  0  0  0  0  0  0  0  0  0  0
   -5.7845   -0.7892   -0.8153 H   0  0  0  0  0  0  0  0  0  0  0  0
   -5.7952    1.5641   -0.1749 H   0  0  0  0  0  0  0  0  0  0  0  0
   -3.3055    5.3267    1.2463 H   0  0  0  0  0  0  0  0  0  0  0  0
   -1.6448    5.2564    1.4904 H   0  0  0  0  0  0  0  0  0  0  0  0
    0.7354    1.2981    0.1956 H   0  0  0  0  0  0  0  0  0  0  0  0
   -0.0151   -0.0293    0.9009 H   0  0  0  0  0  0  0  0  0  0  0  0
   -4.6103   -2.6938   -1.5174 H   0  0  0  0  0  0  0  0  0  0  0  0
   -2.8311   -2.7136   -1.5660 H   0  0  0  0  0  0  0  0  0  0  0  0
   -3.6502   -2.9170    1.1292 H   0  0  0  0  0  0  0  0  0  0  0  0
   -3.7658   -4.6829   -2.0121 H   0  0  0  0  0  0  0  0  0  0  0  0
   -3.7888   -7.1296   -2.2268 H   0  0  0  0  0  0  0  0  0  0  0  0
   -3.6749   -7.4964    2.0483 H   0  0  0  0  0  0  0  0  0  0  0  0
   -3.6433   -5.0490    2.2521 H   0  0  0  0  0  0  0  0  0  0  0  0
   -3.8092   -8.9608   -2.2439 H   0  0  0  0  0  0  0  0  0  0  0  0
   -3.9453  -10.8658   -3.7207 H   0  0  0  0  0  0  0  0  0  0  0  0
   -4.3989  -12.4448   -3.0357 H   0  0  0  0  0  0  0  0  0  0  0  0
   -6.4521  -11.4387   -2.0761 H   0  0  0  0  0  0  0  0  0  0  0  0
   -5.9985   -9.8597   -2.7611 H   0  0  0  0  0  0  0  0  0  0  0  0
   -7.8692  -11.0466   -4.4234 O   0  5  0  0  0  0  0  0  0  0  0  0
   -2.1749  -12.8215   -1.6290 O   0  5  0  0  0  0  0  0  0  0  0  0
   -3.6848    2.9674    0.5420 N   0  3  0  0  0  0  0  0  0  0  0  0
   -4.5030    3.5416    0.5692 H   0  0  0  0  0  0  0  0  0  0  0  0
  1  2  1  0  0  0  0
  1 32  1  0  0  0  0
  1 33  1  0  0  0  0
  1 34  1  0  0  0  0
  2  7  2  0  0  0  0
  2  3  1  0  0  0  0
  3  4  2  0  0  0  0
  3 13  1  0  0  0  0
  4  5  1  0  0  0  0
  4 35  1  0  0  0  0
  5  6  2  0  0  0  0
  5 36  1  0  0  0  0
  6  7  1  0  0  0  0
  6 55  1  0  0  0  0
  7  8  1  0  0  0  0
  8  9  2  0  0  0  0
  8 12  1  0  0  0  0
  9 10  1  0  0  0  0
 10 11  1  0  0  0  0
 10 55  2  0  0  0  0
 11 37  1  0  0  0  0
 11 38  1  0  0  0  0
 12 39  1  0  0  0  0
 12 40  1  0  0  0  0
 13 14  1  0  0  0  0
 13 41  1  0  0  0  0
 13 42  1  0  0  0  0
 14 15  1  0  0  0  0
 14 43  1  0  0  0  0
 15 20  2  0  0  0  0
 15 16  1  0  0  0  0
 16 17  2  0  0  0  0
 16 44  1  0  0  0  0
 17 18  1  0  0  0  0
 17 45  1  0  0  0  0
 18 19  2  0  0  0  0
 18 21  1  0  0  0  0
 19 20  1  0  0  0  0
 19 46  1  0  0  0  0
 20 47  1  0  0  0  0
 21 22  2  0  0  0  0
 21 23  1  0  0  0  0
 23 24  1  0  0  0  0
 23 48  1  0  0  0  0
 24 25  1  0  0  0  0
 24 26  1  0  0  0  0
 24 30  1  0  0  0  0
 26 27  1  0  0  0  0
 26 49  1  0  0  0  0
 26 50  1  0  0  0  0
 27 28  1  0  0  0  0
 27 51  1  0  0  0  0
 27 52  1  0  0  0  0
 28 29  2  0  0  0  0
 28 53  1  0  0  0  0
 30 31  2  0  0  0  0
 30 54  1  0  0  0  0
 55 56  1  0  0  0  0
M  CHG  3  53  -1  54  -1  55   1
M  END
$$$$
ZINC03814829
  -OEChem-08230709403D

 38 40  0     1  0  0  0  0  0999 V2000
   -0.0290   -2.8218   -0.0128 C   0  0  0  0  0  0  0  0  0  0  0  0
    1.2316   -2.0754   -0.0204 N   0  0  3  0  0  0  0  0  0  0  0  0
    2.5082   -2.7938   -0.0359 C   0  0  0  0  0  0  0  0  0  0  0  0
    2.9590   -3.0478    1.3794 C   0  0  0  0  0  0  0  0  0  0  0  0
    2.6599   -4.2647    1.9914 C   0  0  0  0  0  0  0  0  0  0  0  0
    3.0433   -4.5098    3.2264 N   0  0  0  0  0  0  0  0  0  0  0  0
    3.7266   -3.5816    3.9005 C   0  0  0  0  0  0  0  0  0  0  0  0
    4.0278   -2.3466    3.2738 C   0  0  0  0  0  0  0  0  0  0  0  0
    3.6356   -2.1212    2.0240 N   0  0  0  0  0  0  0  0  0  0  0  0
    4.7784   -1.3540    4.0448 C   0  0  0  0  0  0  0  0  0  0  0  0
    5.1297   -1.6726    5.2830 N   0  0  0  0  0  0  0  0  0  0  0  0
    4.8127   -2.8517    5.8085 C   0  0  0  0  0  0  0  0  0  0  0  0
    4.1395   -3.7801    5.1585 N   0  0  0  0  0  0  0  0  0  0  0  0
    5.2103   -3.1185    7.1047 N   0  0  0  0  0  0  0  0  0  0  0  0
    5.1079   -0.1311    3.5028 N   0  0  0  0  0  0  0  0  0  0  0  0
    1.2163   -0.6854   -0.0128 C   0  0  0  0  0  0  0  0  0  0  0  0
    0.0021   -0.0041    0.0020 C   0  0  0  0  0  0  0  0  0  0  0  0
   -0.0165    1.3669    0.0096 C   0  0  0  0  0  0  0  0  0  0  0  0
    1.1860    2.0810    0.0019 C   0  0  0  0  0  0  0  0  0  0  0  0
    2.4038    1.3935   -0.0129 C   0  0  0  0  0  0  0  0  0  0  0  0
    2.4153    0.0225   -0.0204 C   0  0  0  0  0  0  0  0  0  0  0  0
    1.1698    3.5547    0.0105 C   0  0  0  0  0  0  0  0  0  0  0  0
    0.1109    4.1506    0.0242 O   0  0  0  0  0  0  0  0  0  0  0  0
   -0.3510   -3.0014   -1.0386 H   0  0  0  0  0  0  0  0  0  0  0  0
    0.1165   -3.7755    0.4946 H   0  0  0  0  0  0  0  0  0  0  0  0
   -0.7903   -2.2439    0.5111 H   0  0  0  0  0  0  0  0  0  0  0  0
    2.3836   -3.7448   -0.5538 H   0  0  0  0  0  0  0  0  0  0  0  0
    3.2566   -2.1937   -0.5534 H   0  0  0  0  0  0  0  0  0  0  0  0
    2.1069   -5.0147    1.4456 H   0  0  0  0  0  0  0  0  0  0  0  0
    4.9927   -3.9711    7.5130 H   0  0  0  0  0  0  0  0  0  0  0  0
    5.7070   -2.4532    7.6063 H   0  0  0  0  0  0  0  0  0  0  0  0
    5.6055    0.5143    4.0288 H   0  0  0  0  0  0  0  0  0  0  0  0
    4.8424    0.0845    2.5951 H   0  0  0  0  0  0  0  0  0  0  0  0
   -0.9261   -0.5561    0.0079 H   0  0  0  0  0  0  0  0  0  0  0  0
   -0.9587    1.8947    0.0169 H   0  0  0  0  0  0  0  0  0  0  0  0
    3.3342    1.9420   -0.0185 H   0  0  0  0  0  0  0  0  0  0  0  0
    3.3554   -0.5089   -0.0319 H   0  0  0  0  0  0  0  0  0  0  0  0
    2.3293    4.2413    0.0031 O   0  5  0  0  0  0  0  0  0  0  0  0
  1  2  1  0  0  0  0
  1 24  1  0  0  0  0
  1 25  1  0  0  0  0
  1 26  1  0  0  0  0
  2  3  1  0  0  0  0
  2 16  1  0  0  0  0
  3  4  1  0  0  0  0
  3 27  1  0  0  0  0
  3 28  1  0  0  0  0
  4  9  2  0  0  0  0
  4  5  1  0  0  0  0
  5  6  2  0  0  0  0
  5 29  1  0  0  0  0
  6  7  1  0  0  0  0
  7 13  2  0  0  0  0
  7  8  1  0  0  0  0
  8  9  1  0  0  0  0
  8 10  2  0  0  0  0
 10 11  1  0  0  0  0
 10 15  1  0  0  0  0
 11 12  2  0  0  0  0
 12 13  1  0  0  0  0
 12 14  1  0  0  0  0
 14 30  1  0  0  0  0
 14 31  1  0  0  0  0
 15 32  1  0  0  0  0
 15 33  1  0  0  0  0
 16 21  2  0  0  0  0
 16 17  1  0  0  0  0
 17 18  2  0  0  0  0
 17 34  1  0  0  0  0
 18 19  1  0  0  0  0
 18 35  1  0  0  0  0
 19 20  2  0  0  0  0
 19 22  1  0  0  0  0
 20 21  1  0  0  0  0
 20 36  1  0  0  0  0
 21 37  1  0  0  0  0
 22 23  2  0  0  0  0
 22 38  1  0  0  0  0
M  CHG  1  38  -1
M  END
$$$$
ZINC03814829
  -OEChem-08230709403D

 39 41  0     1  0  0  0  0  0999 V2000
   -0.0290   -2.8218   -0.0128 C   0  0  0  0  0  0  0  0  0  0  0  0
    1.2316   -2.0754   -0.0204 N   0  0  3  0  0  0  0  0  0  0  0  0
    2.5082   -2.7938   -0.0359 C   0  0  0  0  0  0  0  0  0  0  0  0
    2.9590   -3.0478    1.3794 C   0  0  0  0  0  0  0  0  0  0  0  0
    2.6599   -4.2647    1.9914 C   0  0  0  0  0  0  0  0  0  0  0  0
    3.0433   -4.5098    3.2264 N   0  0  0  0  0  0  0  0  0  0  0  0
    3.7266   -3.5816    3.9005 C   0  0  0  0  0  0  0  0  0  0  0  0
    4.0278   -2.3466    3.2738 C   0  0  0  0  0  0  0  0  0  0  0  0
    3.6356   -2.1212    2.0240 N   0  0  0  0  0  0  0  0  0  0  0  0
    4.7784   -1.3540    4.0448 C   0  0  0  0  0  0  0  0  0  0  0  0
    5.1297   -1.6726    5.2830 N   0  0  0  0  0  0  0  0  0  0  0  0
    4.8127   -2.8517    5.8085 C   0  0  0  0  0  0  0  0  0  0  0  0
    5.2103   -3.1185    7.1047 N   0  0  0  0  0  0  0  0  0  0  0  0
    5.1079   -0.1311    3.5028 N   0  0  0  0  0  0  0  0  0  0  0  0
    1.2163   -0.6854   -0.0128 C   0  0  0  0  0  0  0  0  0  0  0  0
    0.0021   -0.0041    0.0020 C   0  0  0  0  0  0  0  0  0  0  0  0
   -0.0165    1.3669    0.0096 C   0  0  0  0  0  0  0  0  0  0  0  0
    1.1860    2.0810    0.0019 C   0  0  0  0  0  0  0  0  0  0  0  0
    2.4038    1.3935   -0.0129 C   0  0  0  0  0  0  0  0  0  0  0  0
    2.4153    0.0225   -0.0204 C   0  0  0  0  0  0  0  0  0  0  0  0
    1.1698    3.5547    0.0105 C   0  0  0  0  0  0  0  0  0  0  0  0
    0.1109    4.1506    0.0242 O   0  0  0  0  0  0  0  0  0  0  0  0
   -0.3510   -3.0014   -1.0386 H   0  0  0  0  0  0  0  0  0  0  0  0
    0.1165   -3.7755    0.4946 H   0  0  0  0  0  0  0  0  0  0  0  0
   -0.7903   -2.2439    0.5111 H   0  0  0  0  0  0  0  0  0  0  0  0
    2.3836   -3.7448   -0.5538 H   0  0  0  0  0  0  0  0  0  0  0  0
    3.2566   -2.1937   -0.5534 H   0  0  0  0  0  0  0  0  0  0  0  0
    2.1069   -5.0147    1.4456 H   0  0  0  0  0  0  0  0  0  0  0  0
    4.9927   -3.9711    7.5130 H   0  0  0  0  0  0  0  0  0  0  0  0
    5.7070   -2.4532    7.6063 H   0  0  0  0  0  0  0  0  0  0  0  0
    5.6055    0.5143    4.0288 H   0  0  0  0  0  0  0  0  0  0  0  0
    4.8424    0.0845    2.5951 H   0  0  0  0  0  0  0  0  0  0  0  0
   -0.9261   -0.5561    0.0079 H   0  0  0  0  0  0  0  0  0  0  0  0
   -0.9587    1.8947    0.0169 H   0  0  0  0  0  0  0  0  0  0  0  0
    3.3342    1.9420   -0.0185 H   0  0  0  0  0  0  0  0  0  0  0  0
    3.3554   -0.5089   -0.0319 H   0  0  0  0  0  0  0  0  0  0  0  0
    2.3293    4.2413    0.0031 O   0  5  0  0  0  0  0  0  0  0  0  0
    4.1240   -3.8457    5.1932 N   0  3  0  0  0  0  0  0  0  0  0  0
    3.9005   -4.7242    5.6154 H   0  0  0  0  0  0  0  0  0  0  0  0
  1  2  1  0  0  0  0
  1 23  1  0  0  0  0
  1 24  1  0  0  0  0
  1 25  1  0  0  0  0
  2  3  1  0  0  0  0
  2 15  1  0  0  0  0
  3  4  1  0  0  0  0
  3 26  1  0  0  0  0
  3 27  1  0  0  0  0
  4  9  2  0  0  0  0
  4  5  1  0  0  0  0
  5  6  2  0  0  0  0
  5 28  1  0  0  0  0
  6  7  1  0  0  0  0
  7  8  2  0  0  0  0
  7 38  1  0  0  0  0
  8  9  1  0  0  0  0
  8 10  1  0  0  0  0
 10 11  2  0  0  0  0
 10 14  1  0  0  0  0
 11 12  1  0  0  0  0
 12 13  1  0  0  0  0
 12 38  2  0  0  0  0
 13 29  1  0  0  0  0
 13 30  1  0  0  0  0
 14 31  1  0  0  0  0
 14 32  1  0  0  0  0
 15 20  2  0  0  0  0
 15 16  1  0  0  0  0
 16 17  2  0  0  0  0
 16 33  1  0  0  0  0
 17 18  1  0  0  0  0
 17 34  1  0  0  0  0
 18 19  2  0  0  0  0
 18 21  1  0  0  0  0
 19 20  1  0  0  0  0
 19 35  1  0  0  0  0
 20 36  1  0  0  0  0
 21 22  2  0  0  0  0
 21 37  1  0  0  0  0
 38 39  1  0  0  0  0
M  CHG  2  37  -1  38   1
M  END
$$$$
ZINC03814830
  -OEChem-08230709403D

 44 46  0     1  0  0  0  0  0999 V2000
    0.0781    4.8096   -0.5568 C   0  0  0  0  0  0  0  0  0  0  0  0
   -0.1207    3.3690   -0.1616 C   0  0  0  0  0  0  0  0  0  0  0  0
    0.9586    2.5281   -0.0730 C   0  0  0  0  0  0  0  0  0  0  0  0
    0.7739    1.1929    0.2999 C   0  0  0  0  0  0  0  0  0  0  0  0
   -0.5125    0.7186    0.5757 C   0  0  0  0  0  0  0  0  0  0  0  0
   -1.5882    1.5635    0.4797 C   0  0  0  0  0  0  0  0  0  0  0  0
   -1.4008    2.8921    0.1077 C   0  0  0  0  0  0  0  0  0  0  0  0
   -2.4936    3.7458    0.0109 N   0  0  1  0  0  0  0  0  0  0  0  0
   -3.3695    3.3557   -1.1020 C   0  0  0  0  0  0  0  0  0  0  0  0
   -3.2389    3.7925    1.2759 C   0  0  0  0  0  0  0  0  0  0  0  0
   -4.2591    4.9001    1.2173 C   0  0  0  0  0  0  0  0  0  0  0  0
   -5.5699    4.6121    0.8386 C   0  0  0  0  0  0  0  0  0  0  0  0
   -6.4786    5.5624    0.7805 N   0  0  0  0  0  0  0  0  0  0  0  0
   -6.1403    6.8170    1.0880 C   0  0  0  0  0  0  0  0  0  0  0  0
   -4.8067    7.1042    1.4723 C   0  0  0  0  0  0  0  0  0  0  0  0
   -3.9055    6.1288    1.5294 N   0  0  0  0  0  0  0  0  0  0  0  0
   -4.4740    8.4912    1.8019 C   0  0  0  0  0  0  0  0  0  0  0  0
   -5.4421    9.3933    1.7199 N   0  0  0  0  0  0  0  0  0  0  0  0
   -6.6731    9.0529    1.3514 C   0  0  0  0  0  0  0  0  0  0  0  0
   -7.0256    7.8203    1.0447 N   0  0  0  0  0  0  0  0  0  0  0  0
   -7.6343   10.0436    1.2869 N   0  0  0  0  0  0  0  0  0  0  0  0
   -3.1989    8.8468    2.1836 N   0  0  0  0  0  0  0  0  0  0  0  0
   -2.9747    1.0533    0.7767 C   0  0  0  0  0  0  0  0  0  0  0  0
    1.9325    0.2877    0.4025 C   0  0  0  0  0  0  0  0  0  0  0  0
    3.0497    0.7013    0.1630 O   0  0  0  0  0  0  0  0  0  0  0  0
   -0.0788    4.9169   -1.6301 H   0  0  0  0  0  0  0  0  0  0  0  0
   -0.6358    5.4352   -0.0210 H   0  0  0  0  0  0  0  0  0  0  0  0
    1.0926    5.1187   -0.3053 H   0  0  0  0  0  0  0  0  0  0  0  0
    1.9507    2.8974   -0.2867 H   0  0  0  0  0  0  0  0  0  0  0  0
   -0.6585   -0.3118    0.8643 H   0  0  0  0  0  0  0  0  0  0  0  0
   -3.4875    2.2721   -1.1089 H   0  0  0  0  0  0  0  0  0  0  0  0
   -4.3448    3.8266   -0.9791 H   0  0  0  0  0  0  0  0  0  0  0  0
   -2.9261    3.6789   -2.0439 H   0  0  0  0  0  0  0  0  0  0  0  0
   -3.7451    2.8403    1.4348 H   0  0  0  0  0  0  0  0  0  0  0  0
   -2.5478    3.9782    2.0981 H   0  0  0  0  0  0  0  0  0  0  0  0
   -5.8426    3.5972    0.5897 H   0  0  0  0  0  0  0  0  0  0  0  0
   -8.5408    9.8232    1.0213 H   0  0  0  0  0  0  0  0  0  0  0  0
   -7.4025   10.9593    1.5072 H   0  0  0  0  0  0  0  0  0  0  0  0
   -2.9968    9.7710    2.3980 H   0  0  0  0  0  0  0  0  0  0  0  0
   -2.5033    8.1730    2.2380 H   0  0  0  0  0  0  0  0  0  0  0  0
   -3.1537    1.0919    1.8512 H   0  0  0  0  0  0  0  0  0  0  0  0
   -3.7083    1.6752    0.2636 H   0  0  0  0  0  0  0  0  0  0  0  0
   -3.0652    0.0239    0.4300 H   0  0  0  0  0  0  0  0  0  0  0  0
    1.7529   -0.9986    0.7620 O   0  5  0  0  0  0  0  0  0  0  0  0
  1  2  1  0  0  0  0
  1 26  1  0  0  0  0
  1 27  1  0  0  0  0
  1 28  1  0  0  0  0
  2  7  2  0  0  0  0
  2  3  1  0  0  0  0
  3  4  2  0  0  0  0
  3 29  1  0  0  0  0
  4  5  1  0  0  0  0
  4 24  1  0  0  0  0
  5  6  2  0  0  0  0
  5 30  1  0  0  0  0
  6  7  1  0  0  0  0
  6 23  1  0  0  0  0
  7  8  1  0  0  0  0
  8  9  1  0  0  0  0
  8 10  1  0  0  0  0
  9 31  1  0  0  0  0
  9 32  1  0  0  0  0
  9 33  1  0  0  0  0
 10 11  1  0  0  0  0
 10 34  1  0  0  0  0
 10 35  1  0  0  0  0
 11 16  2  0  0  0  0
 11 12  1  0  0  0  0
 12 13  2  0  0  0  0
 12 36  1  0  0  0  0
 13 14  1  0  0  0  0
 14 20  2  0  0  0  0
 14 15  1  0  0  0  0
 15 16  1  0  0  0  0
 15 17  2  0  0  0  0
 17 18  1  0  0  0  0
 17 22  1  0  0  0  0
 18 19  2  0  0  0  0
 19 20  1  0  0  0  0
 19 21  1  0  0  0  0
 21 37  1  0  0  0  0
 21 38  1  0  0  0  0
 22 39  1  0  0  0  0
 22 40  1  0  0  0  0
 23 41  1  0  0  0  0
 23 42  1  0  0  0  0
 23 43  1  0  0  0  0
 24 25  2  0  0  0  0
 24 44  1  0  0  0  0
M  CHG  1  44  -1
M  END
$$$$
ZINC03814830
  -OEChem-08230709403D

 45 47  0     1  0  0  0  0  0999 V2000
    0.0781    4.8096   -0.5568 C   0  0  0  0  0  0  0  0  0  0  0  0
   -0.1207    3.3690   -0.1616 C   0  0  0  0  0  0  0  0  0  0  0  0
    0.9586    2.5281   -0.0730 C   0  0  0  0  0  0  0  0  0  0  0  0
    0.7739    1.1929    0.2999 C   0  0  0  0  0  0  0  0  0  0  0  0
   -0.5125    0.7186    0.5757 C   0  0  0  0  0  0  0  0  0  0  0  0
   -1.5882    1.5635    0.4797 C   0  0  0  0  0  0  0  0  0  0  0  0
   -1.4008    2.8921    0.1077 C   0  0  0  0  0  0  0  0  0  0  0  0
   -2.4936    3.7458    0.0109 N   0  0  1  0  0  0  0  0  0  0  0  0
   -3.3695    3.3557   -1.1020 C   0  0  0  0  0  0  0  0  0  0  0  0
   -3.2389    3.7925    1.2759 C   0  0  0  0  0  0  0  0  0  0  0  0
   -4.2591    4.9001    1.2173 C   0  0  0  0  0  0  0  0  0  0  0  0
   -5.5699    4.6121    0.8386 C   0  0  0  0  0  0  0  0  0  0  0  0
   -6.4786    5.5624    0.7805 N   0  0  0  0  0  0  0  0  0  0  0  0
   -6.1403    6.8170    1.0880 C   0  0  0  0  0  0  0  0  0  0  0  0
   -4.8067    7.1042    1.4723 C   0  0  0  0  0  0  0  0  0  0  0  0
   -3.9055    6.1288    1.5294 N   0  0  0  0  0  0  0  0  0  0  0  0
   -4.4740    8.4912    1.8019 C   0  0  0  0  0  0  0  0  0  0  0  0
   -5.4421    9.3933    1.7199 N   0  0  0  0  0  0  0  0  0  0  0  0
   -6.6731    9.0529    1.3514 C   0  0  0  0  0  0  0  0  0  0  0  0
   -7.6343   10.0436    1.2869 N   0  0  0  0  0  0  0  0  0  0  0  0
   -3.1989    8.8468    2.1836 N   0  0  0  0  0  0  0  0  0  0  0  0
   -2.9747    1.0533    0.7767 C   0  0  0  0  0  0  0  0  0  0  0  0
    1.9325    0.2877    0.4025 C   0  0  0  0  0  0  0  0  0  0  0  0
    3.0497    0.7013    0.1630 O   0  0  0  0  0  0  0  0  0  0  0  0
   -0.0788    4.9169   -1.6301 H   0  0  0  0  0  0  0  0  0  0  0  0
   -0.6358    5.4352   -0.0210 H   0  0  0  0  0  0  0  0  0  0  0  0
    1.0926    5.1187   -0.3053 H   0  0  0  0  0  0  0  0  0  0  0  0
    1.9507    2.8974   -0.2867 H   0  0  0  0  0  0  0  0  0  0  0  0
   -0.6585   -0.3118    0.8643 H   0  0  0  0  0  0  0  0  0  0  0  0
   -3.4875    2.2721   -1.1089 H   0  0  0  0  0  0  0  0  0  0  0  0
   -4.3448    3.8266   -0.9791 H   0  0  0  0  0  0  0  0  0  0  0  0
   -2.9261    3.6789   -2.0439 H   0  0  0  0  0  0  0  0  0  0  0  0
   -3.7451    2.8403    1.4348 H   0  0  0  0  0  0  0  0  0  0  0  0
   -2.5478    3.9782    2.0981 H   0  0  0  0  0  0  0  0  0  0  0  0
   -5.8426    3.5972    0.5897 H   0  0  0  0  0  0  0  0  0  0  0  0
   -8.5408    9.8232    1.0213 H   0  0  0  0  0  0  0  0  0  0  0  0
   -7.4025   10.9593    1.5072 H   0  0  0  0  0  0  0  0  0  0  0  0
   -2.9968    9.7710    2.3980 H   0  0  0  0  0  0  0  0  0  0  0  0
   -2.5033    8.1730    2.2380 H   0  0  0  0  0  0  0  0  0  0  0  0
   -3.1537    1.0919    1.8512 H   0  0  0  0  0  0  0  0  0  0  0  0
   -3.7083    1.6752    0.2636 H   0  0  0  0  0  0  0  0  0  0  0  0
   -3.0652    0.0239    0.4300 H   0  0  0  0  0  0  0  0  0  0  0  0
    1.7529   -0.9986    0.7620 O   0  5  0  0  0  0  0  0  0  0  0  0
   -7.0973    7.8063    1.0243 N   0  3  0  0  0  0  0  0  0  0  0  0
   -8.0322    7.5806    0.7506 H   0  0  0  0  0  0  0  0  0  0  0  0
  1  2  1  0  0  0  0
  1 25  1  0  0  0  0
  1 26  1  0  0  0  0
  1 27  1  0  0  0  0
  2  7  2  0  0  0  0
  2  3  1  0  0  0  0
  3  4  2  0  0  0  0
  3 28  1  0  0  0  0
  4  5  1  0  0  0  0
  4 23  1  0  0  0  0
  5  6  2  0  0  0  0
  5 29  1  0  0  0  0
  6  7  1  0  0  0  0
  6 22  1  0  0  0  0
  7  8  1  0  0  0  0
  8  9  1  0  0  0  0
  8 10  1  0  0  0  0
  9 30  1  0  0  0  0
  9 31  1  0  0  0  0
  9 32  1  0  0  0  0
 10 11  1  0  0  0  0
 10 33  1  0  0  0  0
 10 34  1  0  0  0  0
 11 16  2  0  0  0  0
 11 12  1  0  0  0  0
 12 13  2  0  0  0  0
 12 35  1  0  0  0  0
 13 14  1  0  0  0  0
 14 15  2  0  0  0  0
 14 44  1  0  0  0  0
 15 16  1  0  0  0  0
 15 17  1  0  0  0  0
 17 18  2  0  0  0  0
 17 21  1  0  0  0  0
 18 19  1  0  0  0  0
 19 20  1  0  0  0  0
 19 44  2  0  0  0  0
 20 36  1  0  0  0  0
 20 37  1  0  0  0  0
 21 38  1  0  0  0  0
 21 39  1  0  0  0  0
 22 40  1  0  0  0  0
 22 41  1  0  0  0  0
 22 42  1  0  0  0  0
 23 24  2  0  0  0  0
 23 43  1  0  0  0  0
 44 45  1  0  0  0  0
M  CHG  2  43  -1  44   1
M  END
$$$$
ZINC03814831
  -OEChem-08230709403D

 56 58  0     1  0  0  0  0  0999 V2000
    2.5719    0.3176    1.2122 C   0  0  0  0  0  0  0  0  0  0  0  0
    2.3963    1.1067   -0.0144 N   0  0  1  0  0  0  0  0  0  0  0  0
    2.5083    0.2570   -1.2075 C   0  0  0  0  0  0  0  0  0  0  0  0
    3.9158   -0.2700   -1.3186 C   0  0  0  0  0  0  0  0  0  0  0  0
    4.2253   -1.5270   -0.8002 C   0  0  0  0  0  0  0  0  0  0  0  0
    5.4471   -2.0087   -0.8856 N   0  0  0  0  0  0  0  0  0  0  0  0
    6.4010   -1.2844   -1.4758 C   0  0  0  0  0  0  0  0  0  0  0  0
    6.0811   -0.0075   -2.0009 C   0  0  0  0  0  0  0  0  0  0  0  0
    4.8396    0.4584   -1.9086 N   0  0  0  0  0  0  0  0  0  0  0  0
    7.1534    0.7569   -2.6405 C   0  0  0  0  0  0  0  0  0  0  0  0
    8.3586    0.2063   -2.6883 N   0  0  0  0  0  0  0  0  0  0  0  0
    8.5880   -0.9979   -2.1741 C   0  0  0  0  0  0  0  0  0  0  0  0
    7.6594   -1.7274   -1.5885 N   0  0  0  0  0  0  0  0  0  0  0  0
    9.8677   -1.5123   -2.2584 N   0  0  0  0  0  0  0  0  0  0  0  0
    6.9185    2.0052   -3.1737 N   0  0  0  0  0  0  0  0  0  0  0  0
    1.1841    1.7876    0.0004 C   0  0  0  0  0  0  0  0  0  0  0  0
   -0.0126    1.0758    0.0080 C   0  0  0  0  0  0  0  0  0  0  0  0
   -1.2137    1.7468    0.0173 C   0  0  0  0  0  0  0  0  0  0  0  0
   -1.2318    3.1447    0.0298 C   0  0  0  0  0  0  0  0  0  0  0  0
   -0.0288    3.8564    0.0217 C   0  0  0  0  0  0  0  0  0  0  0  0
    1.1694    3.1795    0.0070 C   0  0  0  0  0  0  0  0  0  0  0  0
    2.4669    3.9460   -0.0012 C   0  0  0  0  0  0  0  0  0  0  0  0
    2.1976    5.3188    0.0077 F   0  0  0  0  0  0  0  0  0  0  0  0
    3.2143    3.6100    1.1327 F   0  0  0  0  0  0  0  0  0  0  0  0
    3.1933    3.6208   -1.1517 F   0  0  0  0  0  0  0  0  0  0  0  0
   -2.5179    3.8672    0.0450 C   0  0  0  0  0  0  0  0  0  0  0  0
   -2.5322    5.0831    0.0505 O   0  0  0  0  0  0  0  0  0  0  0  0
   -3.6770    3.1796    0.0528 N   0  0  0  0  0  0  0  0  0  0  0  0
   -4.9542    3.8971    0.0679 C   0  0  2  0  0  0  0  0  0  0  0  0
   -4.8532    4.8064    0.6604 H   0  0  0  0  0  0  0  0  0  0  0  0
   -6.0334    3.0043    0.6838 C   0  0  0  0  0  0  0  0  0  0  0  0
   -5.6998    2.7408    2.1535 C   0  0  0  0  0  0  0  0  0  0  0  0
   -6.7628    1.8615    2.7601 C   0  0  0  0  0  0  0  0  0  0  0  0
   -7.6919    1.4843    2.0860 O   0  0  0  0  0  0  0  0  0  0  0  0
   -5.3448    4.2573   -1.3423 C   0  0  0  0  0  0  0  0  0  0  0  0
   -4.6296    3.9466   -2.2653 O   0  0  0  0  0  0  0  0  0  0  0  0
    1.7638   -0.4091    1.2955 H   0  0  0  0  0  0  0  0  0  0  0  0
    3.5278   -0.2047    1.1745 H   0  0  0  0  0  0  0  0  0  0  0  0
    2.5543    0.9812    2.0767 H   0  0  0  0  0  0  0  0  0  0  0  0
    1.8130   -0.5784   -1.1252 H   0  0  0  0  0  0  0  0  0  0  0  0
    2.2687    0.8431   -2.0947 H   0  0  0  0  0  0  0  0  0  0  0  0
    3.4533   -2.1121   -0.3227 H   0  0  0  0  0  0  0  0  0  0  0  0
   10.0632   -2.3888   -1.8918 H   0  0  0  0  0  0  0  0  0  0  0  0
   10.5706   -0.9969   -2.6842 H   0  0  0  0  0  0  0  0  0  0  0  0
    7.6414    2.4972   -3.5935 H   0  0  0  0  0  0  0  0  0  0  0  0
    6.0301    2.3922   -3.1295 H   0  0  0  0  0  0  0  0  0  0  0  0
    0.0021   -0.0041    0.0020 H   0  0  0  0  0  0  0  0  0  0  0  0
   -2.1416    1.1941    0.0186 H   0  0  0  0  0  0  0  0  0  0  0  0
   -0.0396    4.9364    0.0265 H   0  0  0  0  0  0  0  0  0  0  0  0
   -3.6656    2.2097    0.0484 H   0  0  0  0  0  0  0  0  0  0  0  0
   -7.0004    3.5027    0.6144 H   0  0  0  0  0  0  0  0  0  0  0  0
   -6.0730    2.0577    0.1448 H   0  0  0  0  0  0  0  0  0  0  0  0
   -4.7329    2.2425    2.2229 H   0  0  0  0  0  0  0  0  0  0  0  0
   -5.6602    3.6874    2.6925 H   0  0  0  0  0  0  0  0  0  0  0  0
   -6.6774    1.4974    4.0492 O   0  5  0  0  0  0  0  0  0  0  0  0
   -6.4871    4.9233   -1.5731 O   0  5  0  0  0  0  0  0  0  0  0  0
  1  2  1  0  0  0  0
  1 37  1  0  0  0  0
  1 38  1  0  0  0  0
  1 39  1  0  0  0  0
  2  3  1  0  0  0  0
  2 16  1  0  0  0  0
  3  4  1  0  0  0  0
  3 40  1  0  0  0  0
  3 41  1  0  0  0  0
  4  9  2  0  0  0  0
  4  5  1  0  0  0  0
  5  6  2  0  0  0  0
  5 42  1  0  0  0  0
  6  7  1  0  0  0  0
  7 13  2  0  0  0  0
  7  8  1  0  0  0  0
  8  9  1  0  0  0  0
  8 10  2  0  0  0  0
 10 11  1  0  0  0  0
 10 15  1  0  0  0  0
 11 12  2  0  0  0  0
 12 13  1  0  0  0  0
 12 14  1  0  0  0  0
 14 43  1  0  0  0  0
 14 44  1  0  0  0  0
 15 45  1  0  0  0  0
 15 46  1  0  0  0  0
 16 21  2  0  0  0  0
 16 17  1  0  0  0  0
 17 18  2  0  0  0  0
 17 47  1  0  0  0  0
 18 19  1  0  0  0  0
 18 48  1  0  0  0  0
 19 20  2  0  0  0  0
 19 26  1  0  0  0  0
 20 21  1  0  0  0  0
 20 49  1  0  0  0  0
 21 22  1  0  0  0  0
 22 23  1  0  0  0  0
 22 24  1  0  0  0  0
 22 25  1  0  0  0  0
 26 27  2  0  0  0  0
 26 28  1  0  0  0  0
 28 29  1  0  0  0  0
 28 50  1  0  0  0  0
 29 30  1  0  0  0  0
 29 31  1  0  0  0  0
 29 35  1  0  0  0  0
 31 32  1  0  0  0  0
 31 51  1  0  0  0  0
 31 52  1  0  0  0  0
 32 33  1  0  0  0  0
 32 53  1  0  0  0  0
 32 54  1  0  0  0  0
 33 34  2  0  0  0  0
 33 55  1  0  0  0  0
 35 36  2  0  0  0  0
 35 56  1  0  0  0  0
M  CHG  2  55  -1  56  -1
M  END
$$$$
ZINC03814831
  -OEChem-08230709403D

 57 59  0     1  0  0  0  0  0999 V2000
    2.5719    0.3176    1.2122 C   0  0  0  0  0  0  0  0  0  0  0  0
    2.3963    1.1067   -0.0144 N   0  0  1  0  0  0  0  0  0  0  0  0
    2.5083    0.2570   -1.2075 C   0  0  0  0  0  0  0  0  0  0  0  0
    3.9158   -0.2700   -1.3186 C   0  0  0  0  0  0  0  0  0  0  0  0
    4.2253   -1.5270   -0.8002 C   0  0  0  0  0  0  0  0  0  0  0  0
    5.4471   -2.0087   -0.8856 N   0  0  0  0  0  0  0  0  0  0  0  0
    6.4010   -1.2844   -1.4758 C   0  0  0  0  0  0  0  0  0  0  0  0
    6.0811   -0.0075   -2.0009 C   0  0  0  0  0  0  0  0  0  0  0  0
    4.8396    0.4584   -1.9086 N   0  0  0  0  0  0  0  0  0  0  0  0
    7.1534    0.7569   -2.6405 C   0  0  0  0  0  0  0  0  0  0  0  0
    8.3586    0.2063   -2.6883 N   0  0  0  0  0  0  0  0  0  0  0  0
    8.5880   -0.9979   -2.1741 C   0  0  0  0  0  0  0  0  0  0  0  0
    9.8677   -1.5123   -2.2584 N   0  0  0  0  0  0  0  0  0  0  0  0
    6.9185    2.0052   -3.1737 N   0  0  0  0  0  0  0  0  0  0  0  0
    1.1841    1.7876    0.0004 C   0  0  0  0  0  0  0  0  0  0  0  0
   -0.0126    1.0758    0.0080 C   0  0  0  0  0  0  0  0  0  0  0  0
   -1.2137    1.7468    0.0173 C   0  0  0  0  0  0  0  0  0  0  0  0
   -1.2318    3.1447    0.0298 C   0  0  0  0  0  0  0  0  0  0  0  0
   -0.0288    3.8564    0.0217 C   0  0  0  0  0  0  0  0  0  0  0  0
    1.1694    3.1795    0.0070 C   0  0  0  0  0  0  0  0  0  0  0  0
    2.4669    3.9460   -0.0012 C   0  0  0  0  0  0  0  0  0  0  0  0
    2.1976    5.3188    0.0077 F   0  0  0  0  0  0  0  0  0  0  0  0
    3.2143    3.6100    1.1327 F   0  0  0  0  0  0  0  0  0  0  0  0
    3.1933    3.6208   -1.1517 F   0  0  0  0  0  0  0  0  0  0  0  0
   -2.5179    3.8672    0.0450 C   0  0  0  0  0  0  0  0  0  0  0  0
   -2.5322    5.0831    0.0505 O   0  0  0  0  0  0  0  0  0  0  0  0
   -3.6770    3.1796    0.0528 N   0  0  0  0  0  0  0  0  0  0  0  0
   -4.9542    3.8971    0.0679 C   0  0  2  0  0  0  0  0  0  0  0  0
   -4.8532    4.8064    0.6604 H   0  0  0  0  0  0  0  0  0  0  0  0
   -6.0334    3.0043    0.6838 C   0  0  0  0  0  0  0  0  0  0  0  0
   -5.6998    2.7408    2.1535 C   0  0  0  0  0  0  0  0  0  0  0  0
   -6.7628    1.8615    2.7601 C   0  0  0  0  0  0  0  0  0  0  0  0
   -7.6919    1.4843    2.0860 O   0  0  0  0  0  0  0  0  0  0  0  0
   -5.3448    4.2573   -1.3423 C   0  0  0  0  0  0  0  0  0  0  0  0
   -4.6296    3.9466   -2.2653 O   0  0  0  0  0  0  0  0  0  0  0  0
    1.7638   -0.4091    1.2955 H   0  0  0  0  0  0  0  0  0  0  0  0
    3.5278   -0.2047    1.1745 H   0  0  0  0  0  0  0  0  0  0  0  0
    2.5543    0.9812    2.0767 H   0  0  0  0  0  0  0  0  0  0  0  0
    1.8130   -0.5784   -1.1252 H   0  0  0  0  0  0  0  0  0  0  0  0
    2.2687    0.8431   -2.0947 H   0  0  0  0  0  0  0  0  0  0  0  0
    3.4533   -2.1121   -0.3227 H   0  0  0  0  0  0  0  0  0  0  0  0
   10.0632   -2.3888   -1.8918 H   0  0  0  0  0  0  0  0  0  0  0  0
   10.5706   -0.9969   -2.6842 H   0  0  0  0  0  0  0  0  0  0  0  0
    7.6414    2.4972   -3.5935 H   0  0  0  0  0  0  0  0  0  0  0  0
    6.0301    2.3922   -3.1295 H   0  0  0  0  0  0  0  0  0  0  0  0
    0.0021   -0.0041    0.0020 H   0  0  0  0  0  0  0  0  0  0  0  0
   -2.1416    1.1941    0.0186 H   0  0  0  0  0  0  0  0  0  0  0  0
   -0.0396    4.9364    0.0265 H   0  0  0  0  0  0  0  0  0  0  0  0
   -3.6656    2.2097    0.0484 H   0  0  0  0  0  0  0  0  0  0  0  0
   -7.0004    3.5027    0.6144 H   0  0  0  0  0  0  0  0  0  0  0  0
   -6.0730    2.0577    0.1448 H   0  0  0  0  0  0  0  0  0  0  0  0
   -4.7329    2.2425    2.2229 H   0  0  0  0  0  0  0  0  0  0  0  0
   -5.6602    3.6874    2.6925 H   0  0  0  0  0  0  0  0  0  0  0  0
   -6.6774    1.4974    4.0492 O   0  5  0  0  0  0  0  0  0  0  0  0
   -6.4871    4.9233   -1.5731 O   0  5  0  0  0  0  0  0  0  0  0  0
    7.6778   -1.7956   -1.5608 N   0  3  0  0  0  0  0  0  0  0  0  0
    7.8809   -2.6990   -1.1833 H   0  0  0  0  0  0  0  0  0  0  0  0
  1  2  1  0  0  0  0
  1 36  1  0  0  0  0
  1 37  1  0  0  0  0
  1 38  1  0  0  0  0
  2  3  1  0  0  0  0
  2 15  1  0  0  0  0
  3  4  1  0  0  0  0
  3 39  1  0  0  0  0
  3 40  1  0  0  0  0
  4  9  2  0  0  0  0
  4  5  1  0  0  0  0
  5  6  2  0  0  0  0
  5 41  1  0  0  0  0
  6  7  1  0  0  0  0
  7  8  2  0  0  0  0
  7 56  1  0  0  0  0
  8  9  1  0  0  0  0
  8 10  1  0  0  0  0
 10 11  2  0  0  0  0
 10 14  1  0  0  0  0
 11 12  1  0  0  0  0
 12 13  1  0  0  0  0
 12 56  2  0  0  0  0
 13 42  1  0  0  0  0
 13 43  1  0  0  0  0
 14 44  1  0  0  0  0
 14 45  1  0  0  0  0
 15 20  2  0  0  0  0
 15 16  1  0  0  0  0
 16 17  2  0  0  0  0
 16 46  1  0  0  0  0
 17 18  1  0  0  0  0
 17 47  1  0  0  0  0
 18 19  2  0  0  0  0
 18 25  1  0  0  0  0
 19 20  1  0  0  0  0
 19 48  1  0  0  0  0
 20 21  1  0  0  0  0
 21 22  1  0  0  0  0
 21 23  1  0  0  0  0
 21 24  1  0  0  0  0
 25 26  2  0  0  0  0
 25 27  1  0  0  0  0
 27 28  1  0  0  0  0
 27 49  1  0  0  0  0
 28 29  1  0  0  0  0
 28 30  1  0  0  0  0
 28 34  1  0  0  0  0
 30 31  1  0  0  0  0
 30 50  1  0  0  0  0
 30 51  1  0  0  0  0
 31 32  1  0  0  0  0
 31 52  1  0  0  0  0
 31 53  1  0  0  0  0
 32 33  2  0  0  0  0
 32 54  1  0  0  0  0
 34 35  2  0  0  0  0
 34 55  1  0  0  0  0
 56 57  1  0  0  0  0
M  CHG  3  54  -1  55  -1  56   1
M  END
$$$$
ZINC03814832
  -OEChem-08230709403D

 58 60  0     1  0  0  0  0  0999 V2000
    1.3912   -2.6635   -2.2418 C   0  0  0  0  0  0  0  0  0  0  0  0
    1.0535   -2.1846   -0.8285 C   0  0  0  0  0  0  0  0  0  0  0  0
    1.0543   -0.6779   -0.7950 C   0  0  0  0  0  0  0  0  0  0  0  0
   -0.1023    0.0147   -1.0056 C   0  0  0  0  0  0  0  0  0  0  0  0
   -0.1171    1.4057   -0.9772 C   0  0  0  0  0  0  0  0  0  0  0  0
    1.0225    2.1157   -0.7385 C   0  0  0  0  0  0  0  0  0  0  0  0
    2.2278    1.4361   -0.5182 C   0  0  0  0  0  0  0  0  0  0  0  0
    2.2405    0.0203   -0.5475 C   0  0  0  0  0  0  0  0  0  0  0  0
    3.4714   -0.6458   -0.3214 C   0  0  0  0  0  0  0  0  0  0  0  0
    4.5503    0.0883   -0.0940 N   0  0  0  0  0  0  0  0  0  0  0  0
    4.4938    1.4173   -0.0748 C   0  0  0  0  0  0  0  0  0  0  0  0
    3.3759    2.0874   -0.2787 N   0  0  0  0  0  0  0  0  0  0  0  0
    5.6560    2.1263    0.1688 N   0  0  0  0  0  0  0  0  0  0  0  0
    3.5436   -2.0221   -0.3377 N   0  0  0  0  0  0  0  0  0  0  0  0
   -1.3810   -0.7370   -1.2718 C   0  0  0  0  0  0  0  0  0  0  0  0
   -1.9374   -1.2183   -0.0049 N   0  0  0  0  0  0  0  0  0  0  0  0
   -3.1234   -1.9440    0.0024 C   0  0  0  0  0  0  0  0  0  0  0  0
   -3.7841   -2.2074   -1.1944 C   0  0  0  0  0  0  0  0  0  0  0  0
   -4.9551   -2.9302   -1.1910 C   0  0  0  0  0  0  0  0  0  0  0  0
   -5.4870   -3.3906    0.0171 C   0  0  0  0  0  0  0  0  0  0  0  0
   -4.8243   -3.1195    1.2177 C   0  0  0  0  0  0  0  0  0  0  0  0
   -3.6509   -2.4007    1.2072 C   0  0  0  0  0  0  0  0  0  0  0  0
   -6.7454   -4.1604    0.0249 C   0  0  0  0  0  0  0  0  0  0  0  0
   -7.2071   -4.5599    1.0764 O   0  0  0  0  0  0  0  0  0  0  0  0
   -7.3832   -4.4210   -1.1334 N   0  0  0  0  0  0  0  0  0  0  0  0
   -8.6328   -5.1855   -1.1257 C   0  0  1  0  0  0  0  0  0  0  0  0
   -9.2033   -4.9402   -0.2299 H   0  0  0  0  0  0  0  0  0  0  0  0
   -9.4549   -4.8318   -2.3666 C   0  0  0  0  0  0  0  0  0  0  0  0
   -9.8784   -3.3632   -2.2962 C   0  0  0  0  0  0  0  0  0  0  0  0
  -10.6881   -3.0148   -3.5185 C   0  0  0  0  0  0  0  0  0  0  0  0
  -10.9042   -3.8548   -4.3597 O   0  0  0  0  0  0  0  0  0  0  0  0
   -8.3199   -6.6597   -1.1339 C   0  0  0  0  0  0  0  0  0  0  0  0
   -7.1709   -7.0333   -1.1450 O   0  0  0  0  0  0  0  0  0  0  0  0
    1.3906   -3.7532   -2.2661 H   0  0  0  0  0  0  0  0  0  0  0  0
    0.6466   -2.2841   -2.9417 H   0  0  0  0  0  0  0  0  0  0  0  0
    2.3770   -2.2943   -2.5247 H   0  0  0  0  0  0  0  0  0  0  0  0
    1.7980   -2.5640   -0.1287 H   0  0  0  0  0  0  0  0  0  0  0  0
    0.0676   -2.5537   -0.5457 H   0  0  0  0  0  0  0  0  0  0  0  0
   -1.0444    1.9313   -1.1513 H   0  0  0  0  0  0  0  0  0  0  0  0
    0.9962    3.1952   -0.7194 H   0  0  0  0  0  0  0  0  0  0  0  0
    5.6378    3.0960    0.1870 H   0  0  0  0  0  0  0  0  0  0  0  0
    6.4894    1.6539    0.3214 H   0  0  0  0  0  0  0  0  0  0  0  0
    3.1114   -2.5221   -1.0477 H   0  0  0  0  0  0  0  0  0  0  0  0
    4.0266   -2.4907    0.3609 H   0  0  0  0  0  0  0  0  0  0  0  0
   -2.0985   -0.0738   -1.7551 H   0  0  0  0  0  0  0  0  0  0  0  0
   -1.1745   -1.5858   -1.9238 H   0  0  0  0  0  0  0  0  0  0  0  0
   -1.4783   -1.0308    0.8287 H   0  0  0  0  0  0  0  0  0  0  0  0
   -3.3747   -1.8480   -2.1269 H   0  0  0  0  0  0  0  0  0  0  0  0
   -5.4648   -3.1380   -2.1201 H   0  0  0  0  0  0  0  0  0  0  0  0
   -5.2325   -3.4741    2.1526 H   0  0  0  0  0  0  0  0  0  0  0  0
   -3.1384   -2.1910    2.1344 H   0  0  0  0  0  0  0  0  0  0  0  0
   -7.0148   -4.1023   -1.9723 H   0  0  0  0  0  0  0  0  0  0  0  0
   -8.8519   -4.9936   -3.2601 H   0  0  0  0  0  0  0  0  0  0  0  0
  -10.3418   -5.4641   -2.4074 H   0  0  0  0  0  0  0  0  0  0  0  0
  -10.4813   -3.2014   -1.4027 H   0  0  0  0  0  0  0  0  0  0  0  0
   -8.9915   -2.7309   -2.2555 H   0  0  0  0  0  0  0  0  0  0  0  0
  -11.1691   -1.7712   -3.6728 O   0  5  0  0  0  0  0  0  0  0  0  0
   -9.3176   -7.5576   -1.1287 O   0  5  0  0  0  0  0  0  0  0  0  0
  1  2  1  0  0  0  0
  1 34  1  0  0  0  0
  1 35  1  0  0  0  0
  1 36  1  0  0  0  0
  2  3  1  0  0  0  0
  2 37  1  0  0  0  0
  2 38  1  0  0  0  0
  3  8  2  0  0  0  0
  3  4  1  0  0  0  0
  4  5  2  0  0  0  0
  4 15  1  0  0  0  0
  5  6  1  0  0  0  0
  5 39  1  0  0  0  0
  6  7  2  0  0  0  0
  6 40  1  0  0  0  0
  7 12  1  0  0  0  0
  7  8  1  0  0  0  0
  8  9  1  0  0  0  0
  9 10  2  0  0  0  0
  9 14  1  0  0  0  0
 10 11  1  0  0  0  0
 11 12  2  0  0  0  0
 11 13  1  0  0  0  0
 13 41  1  0  0  0  0
 13 42  1  0  0  0  0
 14 43  1  0  0  0  0
 14 44  1  0  0  0  0
 15 16  1  0  0  0  0
 15 45  1  0  0  0  0
 15 46  1  0  0  0  0
 16 17  1  0  0  0  0
 16 47  1  0  0  0  0
 17 22  2  0  0  0  0
 17 18  1  0  0  0  0
 18 19  2  0  0  0  0
 18 48  1  0  0  0  0
 19 20  1  0  0  0  0
 19 49  1  0  0  0  0
 20 21  2  0  0  0  0
 20 23  1  0  0  0  0
 21 22  1  0  0  0  0
 21 50  1  0  0  0  0
 22 51  1  0  0  0  0
 23 24  2  0  0  0  0
 23 25  1  0  0  0  0
 25 26  1  0  0  0  0
 25 52  1  0  0  0  0
 26 27  1  0  0  0  0
 26 28  1  0  0  0  0
 26 32  1  0  0  0  0
 28 29  1  0  0  0  0
 28 53  1  0  0  0  0
 28 54  1  0  0  0  0
 29 30  1  0  0  0  0
 29 55  1  0  0  0  0
 29 56  1  0  0  0  0
 30 31  2  0  0  0  0
 30 57  1  0  0  0  0
 32 33  2  0  0  0  0
 32 58  1  0  0  0  0
M  CHG  2  57  -1  58  -1
M  END
$$$$
ZINC03814832
  -OEChem-08230709403D

 59 61  0     1  0  0  0  0  0999 V2000
    1.3912   -2.6635   -2.2418 C   0  0  0  0  0  0  0  0  0  0  0  0
    1.0535   -2.1846   -0.8285 C   0  0  0  0  0  0  0  0  0  0  0  0
    1.0543   -0.6779   -0.7950 C   0  0  0  0  0  0  0  0  0  0  0  0
   -0.1023    0.0147   -1.0056 C   0  0  0  0  0  0  0  0  0  0  0  0
   -0.1171    1.4057   -0.9772 C   0  0  0  0  0  0  0  0  0  0  0  0
    1.0225    2.1157   -0.7385 C   0  0  0  0  0  0  0  0  0  0  0  0
    2.2278    1.4361   -0.5182 C   0  0  0  0  0  0  0  0  0  0  0  0
    2.2405    0.0203   -0.5475 C   0  0  0  0  0  0  0  0  0  0  0  0
    3.4714   -0.6458   -0.3214 C   0  0  0  0  0  0  0  0  0  0  0  0
    4.5503    0.0883   -0.0940 N   0  0  0  0  0  0  0  0  0  0  0  0
    4.4938    1.4173   -0.0748 C   0  0  0  0  0  0  0  0  0  0  0  0
    5.6560    2.1263    0.1688 N   0  0  0  0  0  0  0  0  0  0  0  0
    3.5436   -2.0221   -0.3377 N   0  0  0  0  0  0  0  0  0  0  0  0
   -1.3810   -0.7370   -1.2718 C   0  0  0  0  0  0  0  0  0  0  0  0
   -1.9374   -1.2183   -0.0049 N   0  0  0  0  0  0  0  0  0  0  0  0
   -3.1234   -1.9440    0.0024 C   0  0  0  0  0  0  0  0  0  0  0  0
   -3.7841   -2.2074   -1.1944 C   0  0  0  0  0  0  0  0  0  0  0  0
   -4.9551   -2.9302   -1.1910 C   0  0  0  0  0  0  0  0  0  0  0  0
   -5.4870   -3.3906    0.0171 C   0  0  0  0  0  0  0  0  0  0  0  0
   -4.8243   -3.1195    1.2177 C   0  0  0  0  0  0  0  0  0  0  0  0
   -3.6509   -2.4007    1.2072 C   0  0  0  0  0  0  0  0  0  0  0  0
   -6.7454   -4.1604    0.0249 C   0  0  0  0  0  0  0  0  0  0  0  0
   -7.2071   -4.5599    1.0764 O   0  0  0  0  0  0  0  0  0  0  0  0
   -7.3832   -4.4210   -1.1334 N   0  0  0  0  0  0  0  0  0  0  0  0
   -8.6328   -5.1855   -1.1257 C   0  0  1  0  0  0  0  0  0  0  0  0
   -9.2033   -4.9402   -0.2299 H   0  0  0  0  0  0  0  0  0  0  0  0
   -9.4549   -4.8318   -2.3666 C   0  0  0  0  0  0  0  0  0  0  0  0
   -9.8784   -3.3632   -2.2962 C   0  0  0  0  0  0  0  0  0  0  0  0
  -10.6881   -3.0148   -3.5185 C   0  0  0  0  0  0  0  0  0  0  0  0
  -10.9042   -3.8548   -4.3597 O   0  0  0  0  0  0  0  0  0  0  0  0
   -8.3199   -6.6597   -1.1339 C   0  0  0  0  0  0  0  0  0  0  0  0
   -7.1709   -7.0333   -1.1450 O   0  0  0  0  0  0  0  0  0  0  0  0
    1.3906   -3.7532   -2.2661 H   0  0  0  0  0  0  0  0  0  0  0  0
    0.6466   -2.2841   -2.9417 H   0  0  0  0  0  0  0  0  0  0  0  0
    2.3770   -2.2943   -2.5247 H   0  0  0  0  0  0  0  0  0  0  0  0
    1.7980   -2.5640   -0.1287 H   0  0  0  0  0  0  0  0  0  0  0  0
    0.0676   -2.5537   -0.5457 H   0  0  0  0  0  0  0  0  0  0  0  0
   -1.0444    1.9313   -1.1513 H   0  0  0  0  0  0  0  0  0  0  0  0
    0.9962    3.1952   -0.7194 H   0  0  0  0  0  0  0  0  0  0  0  0
    5.6378    3.0960    0.1870 H   0  0  0  0  0  0  0  0  0  0  0  0
    6.4894    1.6539    0.3214 H   0  0  0  0  0  0  0  0  0  0  0  0
    3.1114   -2.5221   -1.0477 H   0  0  0  0  0  0  0  0  0  0  0  0
    4.0266   -2.4907    0.3609 H   0  0  0  0  0  0  0  0  0  0  0  0
   -2.0985   -0.0738   -1.7551 H   0  0  0  0  0  0  0  0  0  0  0  0
   -1.1745   -1.5858   -1.9238 H   0  0  0  0  0  0  0  0  0  0  0  0
   -1.4783   -1.0308    0.8287 H   0  0  0  0  0  0  0  0  0  0  0  0
   -3.3747   -1.8480   -2.1269 H   0  0  0  0  0  0  0  0  0  0  0  0
   -5.4648   -3.1380   -2.1201 H   0  0  0  0  0  0  0  0  0  0  0  0
   -5.2325   -3.4741    2.1526 H   0  0  0  0  0  0  0  0  0  0  0  0
   -3.1384   -2.1910    2.1344 H   0  0  0  0  0  0  0  0  0  0  0  0
   -7.0148   -4.1023   -1.9723 H   0  0  0  0  0  0  0  0  0  0  0  0
   -8.8519   -4.9936   -3.2601 H   0  0  0  0  0  0  0  0  0  0  0  0
  -10.3418   -5.4641   -2.4074 H   0  0  0  0  0  0  0  0  0  0  0  0
  -10.4813   -3.2014   -1.4027 H   0  0  0  0  0  0  0  0  0  0  0  0
   -8.9915   -2.7309   -2.2555 H   0  0  0  0  0  0  0  0  0  0  0  0
  -11.1691   -1.7712   -3.6728 O   0  5  0  0  0  0  0  0  0  0  0  0
   -9.3176   -7.5576   -1.1287 O   0  5  0  0  0  0  0  0  0  0  0  0
    3.3768    2.1587   -0.2769 N   0  3  0  0  0  0  0  0  0  0  0  0
    3.4267    3.1570   -0.2447 H   0  0  0  0  0  0  0  0  0  0  0  0
  1  2  1  0  0  0  0
  1 33  1  0  0  0  0
  1 34  1  0  0  0  0
  1 35  1  0  0  0  0
  2  3  1  0  0  0  0
  2 36  1  0  0  0  0
  2 37  1  0  0  0  0
  3  8  2  0  0  0  0
  3  4  1  0  0  0  0
  4  5  2  0  0  0  0
  4 14  1  0  0  0  0
  5  6  1  0  0  0  0
  5 38  1  0  0  0  0
  6  7  2  0  0  0  0
  6 39  1  0  0  0  0
  7  8  1  0  0  0  0
  7 58  1  0  0  0  0
  8  9  1  0  0  0  0
  9 10  2  0  0  0  0
  9 13  1  0  0  0  0
 10 11  1  0  0  0  0
 11 12  1  0  0  0  0
 11 58  2  0  0  0  0
 12 40  1  0  0  0  0
 12 41  1  0  0  0  0
 13 42  1  0  0  0  0
 13 43  1  0  0  0  0
 14 15  1  0  0  0  0
 14 44  1  0  0  0  0
 14 45  1  0  0  0  0
 15 16  1  0  0  0  0
 15 46  1  0  0  0  0
 16 21  2  0  0  0  0
 16 17  1  0  0  0  0
 17 18  2  0  0  0  0
 17 47  1  0  0  0  0
 18 19  1  0  0  0  0
 18 48  1  0  0  0  0
 19 20  2  0  0  0  0
 19 22  1  0  0  0  0
 20 21  1  0  0  0  0
 20 49  1  0  0  0  0
 21 50  1  0  0  0  0
 22 23  2  0  0  0  0
 22 24  1  0  0  0  0
 24 25  1  0  0  0  0
 24 51  1  0  0  0  0
 25 26  1  0  0  0  0
 25 27  1  0  0  0  0
 25 31  1  0  0  0  0
 27 28  1  0  0  0  0
 27 52  1  0  0  0  0
 27 53  1  0  0  0  0
 28 29  1  0  0  0  0
 28 54  1  0  0  0  0
 28 55  1  0  0  0  0
 29 30  2  0  0  0  0
 29 56  1  0  0  0  0
 31 32  2  0  0  0  0
 31 57  1  0  0  0  0
 58 59  1  0  0  0  0
M  CHG  3  56  -1  57  -1  58   1
M  END
$$$$
ZINC03814833
  -OEChem-08230709403D

 36 38  0     1  0  0  0  0  0999 V2000
    3.6414   -2.1140   -0.0452 C   0  0  0  0  0  0  0  0  0  0  0  0
    3.6196   -0.6492   -0.0366 N   0  0  3  0  0  0  0  0  0  0  0  0
    4.8773    0.1022   -0.0446 C   0  0  0  0  0  0  0  0  0  0  0  0
    5.3224    0.3517    1.3734 C   0  0  0  0  0  0  0  0  0  0  0  0
    6.2304   -0.5188    1.9753 C   0  0  0  0  0  0  0  0  0  0  0  0
    6.6342   -0.3214    3.2123 N   0  0  0  0  0  0  0  0  0  0  0  0
    6.1684    0.7252    3.8982 C   0  0  0  0  0  0  0  0  0  0  0  0
    5.2457    1.6068    3.2817 C   0  0  0  0  0  0  0  0  0  0  0  0
    4.8546    1.3921    2.0296 N   0  0  0  0  0  0  0  0  0  0  0  0
    4.7574    2.7427    4.0655 C   0  0  0  0  0  0  0  0  0  0  0  0
    5.2091    2.8758    5.3049 N   0  0  0  0  0  0  0  0  0  0  0  0
    6.0754    2.0093    5.8204 C   0  0  0  0  0  0  0  0  0  0  0  0
    6.5464    0.9711    5.1588 N   0  0  0  0  0  0  0  0  0  0  0  0
    6.5051    2.2077    7.1187 N   0  0  0  0  0  0  0  0  0  0  0  0
    3.8594    3.6420    3.5338 N   0  0  0  0  0  0  0  0  0  0  0  0
    2.3998    0.0311   -0.0208 C   0  0  0  0  0  0  0  0  0  0  0  0
    1.2064   -0.6798   -0.0132 C   0  0  0  0  0  0  0  0  0  0  0  0
    0.0021   -0.0041    0.0020 C   0  0  0  0  0  0  0  0  0  0  0  0
   -0.0167    1.3786    0.0096 C   0  0  0  0  0  0  0  0  0  0  0  0
    1.1695    2.0894    0.0021 C   0  0  0  0  0  0  0  0  0  0  0  0
    2.3774    1.4200   -0.0131 C   0  0  0  0  0  0  0  0  0  0  0  0
    3.6368   -2.4714   -1.0749 H   0  0  0  0  0  0  0  0  0  0  0  0
    4.5417   -2.4669    0.4579 H   0  0  0  0  0  0  0  0  0  0  0  0
    2.7620   -2.4935    0.4752 H   0  0  0  0  0  0  0  0  0  0  0  0
    5.6405   -0.4725   -0.5692 H   0  0  0  0  0  0  0  0  0  0  0  0
    4.7278    1.0555   -0.5516 H   0  0  0  0  0  0  0  0  0  0  0  0
    6.6064   -1.3653    1.4199 H   0  0  0  0  0  0  0  0  0  0  0  0
    7.1373    1.5909    7.5199 H   0  0  0  0  0  0  0  0  0  0  0  0
    6.1747    2.9636    7.6288 H   0  0  0  0  0  0  0  0  0  0  0  0
    3.5466    4.3886    4.0682 H   0  0  0  0  0  0  0  0  0  0  0  0
    3.5398    3.5286    2.6250 H   0  0  0  0  0  0  0  0  0  0  0  0
    1.2204   -1.7597   -0.0194 H   0  0  0  0  0  0  0  0  0  0  0  0
   -0.9261   -0.5561    0.0076 H   0  0  0  0  0  0  0  0  0  0  0  0
   -0.9599    1.9046    0.0170 H   0  0  0  0  0  0  0  0  0  0  0  0
    1.1513    3.1692    0.0078 H   0  0  0  0  0  0  0  0  0  0  0  0
    3.3034    1.9757   -0.0186 H   0  0  0  0  0  0  0  0  0  0  0  0
  1  2  1  0  0  0  0
  1 22  1  0  0  0  0
  1 23  1  0  0  0  0
  1 24  1  0  0  0  0
  2  3  1  0  0  0  0
  2 16  1  0  0  0  0
  3  4  1  0  0  0  0
  3 25  1  0  0  0  0
  3 26  1  0  0  0  0
  4  9  2  0  0  0  0
  4  5  1  0  0  0  0
  5  6  2  0  0  0  0
  5 27  1  0  0  0  0
  6  7  1  0  0  0  0
  7 13  2  0  0  0  0
  7  8  1  0  0  0  0
  8  9  1  0  0  0  0
  8 10  2  0  0  0  0
 10 11  1  0  0  0  0
 10 15  1  0  0  0  0
 11 12  2  0  0  0  0
 12 13  1  0  0  0  0
 12 14  1  0  0  0  0
 14 28  1  0  0  0  0
 14 29  1  0  0  0  0
 15 30  1  0  0  0  0
 15 31  1  0  0  0  0
 16 21  2  0  0  0  0
 16 17  1  0  0  0  0
 17 18  2  0  0  0  0
 17 32  1  0  0  0  0
 18 19  1  0  0  0  0
 18 33  1  0  0  0  0
 19 20  2  0  0  0  0
 19 34  1  0  0  0  0
 20 21  1  0  0  0  0
 20 35  1  0  0  0  0
 21 36  1  0  0  0  0
M  END
$$$$
ZINC03814833
  -OEChem-08230709403D

 37 39  0     1  0  0  0  0  0999 V2000
    3.6414   -2.1140   -0.0452 C   0  0  0  0  0  0  0  0  0  0  0  0
    3.6196   -0.6492   -0.0366 N   0  0  3  0  0  0  0  0  0  0  0  0
    4.8773    0.1022   -0.0446 C   0  0  0  0  0  0  0  0  0  0  0  0
    5.3224    0.3517    1.3734 C   0  0  0  0  0  0  0  0  0  0  0  0
    6.2304   -0.5188    1.9753 C   0  0  0  0  0  0  0  0  0  0  0  0
    6.6342   -0.3214    3.2123 N   0  0  0  0  0  0  0  0  0  0  0  0
    6.1684    0.7252    3.8982 C   0  0  0  0  0  0  0  0  0  0  0  0
    5.2457    1.6068    3.2817 C   0  0  0  0  0  0  0  0  0  0  0  0
    4.8546    1.3921    2.0296 N   0  0  0  0  0  0  0  0  0  0  0  0
    4.7574    2.7427    4.0655 C   0  0  0  0  0  0  0  0  0  0  0  0
    5.2091    2.8758    5.3049 N   0  0  0  0  0  0  0  0  0  0  0  0
    6.0754    2.0093    5.8204 C   0  0  0  0  0  0  0  0  0  0  0  0
    6.5051    2.2077    7.1187 N   0  0  0  0  0  0  0  0  0  0  0  0
    3.8594    3.6420    3.5338 N   0  0  0  0  0  0  0  0  0  0  0  0
    2.3998    0.0311   -0.0208 C   0  0  0  0  0  0  0  0  0  0  0  0
    1.2064   -0.6798   -0.0132 C   0  0  0  0  0  0  0  0  0  0  0  0
    0.0021   -0.0041    0.0020 C   0  0  0  0  0  0  0  0  0  0  0  0
   -0.0167    1.3786    0.0096 C   0  0  0  0  0  0  0  0  0  0  0  0
    1.1695    2.0894    0.0021 C   0  0  0  0  0  0  0  0  0  0  0  0
    2.3774    1.4200   -0.0131 C   0  0  0  0  0  0  0  0  0  0  0  0
    3.6368   -2.4714   -1.0749 H   0  0  0  0  0  0  0  0  0  0  0  0
    4.5417   -2.4669    0.4579 H   0  0  0  0  0  0  0  0  0  0  0  0
    2.7620   -2.4935    0.4752 H   0  0  0  0  0  0  0  0  0  0  0  0
    5.6405   -0.4725   -0.5692 H   0  0  0  0  0  0  0  0  0  0  0  0
    4.7278    1.0555   -0.5516 H   0  0  0  0  0  0  0  0  0  0  0  0
    6.6064   -1.3653    1.4199 H   0  0  0  0  0  0  0  0  0  0  0  0
    7.1373    1.5909    7.5199 H   0  0  0  0  0  0  0  0  0  0  0  0
    6.1747    2.9636    7.6288 H   0  0  0  0  0  0  0  0  0  0  0  0
    3.5466    4.3886    4.0682 H   0  0  0  0  0  0  0  0  0  0  0  0
    3.5398    3.5286    2.6250 H   0  0  0  0  0  0  0  0  0  0  0  0
    1.2204   -1.7597   -0.0194 H   0  0  0  0  0  0  0  0  0  0  0  0
   -0.9261   -0.5561    0.0076 H   0  0  0  0  0  0  0  0  0  0  0  0
   -0.9599    1.9046    0.0170 H   0  0  0  0  0  0  0  0  0  0  0  0
    1.1513    3.1692    0.0078 H   0  0  0  0  0  0  0  0  0  0  0  0
    3.3034    1.9757   -0.0186 H   0  0  0  0  0  0  0  0  0  0  0  0
    6.5957    0.9247    5.1929 N   0  3  0  0  0  0  0  0  0  0  0  0
    7.2473    0.2897    5.6079 H   0  0  0  0  0  0  0  0  0  0  0  0
  1  2  1  0  0  0  0
  1 21  1  0  0  0  0
  1 22  1  0  0  0  0
  1 23  1  0  0  0  0
  2  3  1  0  0  0  0
  2 15  1  0  0  0  0
  3  4  1  0  0  0  0
  3 24  1  0  0  0  0
  3 25  1  0  0  0  0
  4  9  2  0  0  0  0
  4  5  1  0  0  0  0
  5  6  2  0  0  0  0
  5 26  1  0  0  0  0
  6  7  1  0  0  0  0
  7  8  2  0  0  0  0
  7 36  1  0  0  0  0
  8  9  1  0  0  0  0
  8 10  1  0  0  0  0
 10 11  2  0  0  0  0
 10 14  1  0  0  0  0
 11 12  1  0  0  0  0
 12 13  1  0  0  0  0
 12 36  2  0  0  0  0
 13 27  1  0  0  0  0
 13 28  1  0  0  0  0
 14 29  1  0  0  0  0
 14 30  1  0  0  0  0
 15 20  2  0  0  0  0
 15 16  1  0  0  0  0
 16 17  2  0  0  0  0
 16 31  1  0  0  0  0
 17 18  1  0  0  0  0
 17 32  1  0  0  0  0
 18 19  2  0  0  0  0
 18 33  1  0  0  0  0
 19 20  1  0  0  0  0
 19 34  1  0  0  0  0
 20 35  1  0  0  0  0
 36 37  1  0  0  0  0
M  CHG  1  36   1
M  END
$$$$
ZINC03814834
  -OEChem-08230709403D

 40 42  0     0  0  0  0  0  0999 V2000
   -0.2287    0.0094   -0.7272 C   0  0  0  0  0  0  0  0  0  0  0  0
   -0.2646    1.5159   -0.7125 C   0  0  0  0  0  0  0  0  0  0  0  0
    0.5404    2.1480   -1.3634 O   0  0  0  0  0  0  0  0  0  0  0  0
   -1.1946    2.1607    0.0195 N   0  0  0  0  0  0  0  0  0  0  0  0
   -1.1622    3.5583    0.1197 C   0  0  0  0  0  0  0  0  0  0  0  0
    0.0549    4.2265    0.1154 C   0  0  0  0  0  0  0  0  0  0  0  0
    0.0868    5.6036    0.2084 C   0  0  0  0  0  0  0  0  0  0  0  0
   -1.0983    6.3198    0.3172 C   0  0  0  0  0  0  0  0  0  0  0  0
   -2.3154    5.6508    0.3272 C   0  0  0  0  0  0  0  0  0  0  0  0
   -2.3470    4.2740    0.2289 C   0  0  0  0  0  0  0  0  0  0  0  0
   -1.0660    7.7148    0.4173 N   0  0  0  0  0  0  0  0  0  0  0  0
    0.2179    8.4204    0.4068 C   0  0  0  0  0  0  0  0  0  0  0  0
   -0.0229    9.9032    0.5264 C   0  0  0  0  0  0  0  0  0  0  0  0
    0.0289   10.5122    1.7798 C   0  0  0  0  0  0  0  0  0  0  0  0
   -0.1775   11.8055    1.9094 N   0  0  0  0  0  0  0  0  0  0  0  0
   -0.4395   12.5425    0.8271 C   0  0  0  0  0  0  0  0  0  0  0  0
   -0.4910   11.9185   -0.4443 C   0  0  0  0  0  0  0  0  0  0  0  0
   -0.2746   10.6116   -0.5538 N   0  0  0  0  0  0  0  0  0  0  0  0
   -0.7810   12.7593   -1.6071 C   0  0  0  0  0  0  0  0  0  0  0  0
   -0.9780   14.0536   -1.3979 N   0  0  0  0  0  0  0  0  0  0  0  0
   -0.9150   14.5725   -0.1757 C   0  0  0  0  0  0  0  0  0  0  0  0
   -0.6573   13.8612    0.9038 N   0  0  0  0  0  0  0  0  0  0  0  0
   -1.1306   15.9295   -0.0290 N   0  0  0  0  0  0  0  0  0  0  0  0
   -0.8473   12.2241   -2.8748 N   0  0  0  0  0  0  0  0  0  0  0  0
    0.4225   -0.3464    0.0712 H   0  0  0  0  0  0  0  0  0  0  0  0
   -1.2356   -0.3795   -0.5752 H   0  0  0  0  0  0  0  0  0  0  0  0
    0.1528   -0.3357   -1.6881 H   0  0  0  0  0  0  0  0  0  0  0  0
   -1.8863    1.6576    0.4769 H   0  0  0  0  0  0  0  0  0  0  0  0
    0.9766    3.6693    0.0349 H   0  0  0  0  0  0  0  0  0  0  0  0
    1.0332    6.1237    0.2003 H   0  0  0  0  0  0  0  0  0  0  0  0
   -3.2370    6.2075    0.4114 H   0  0  0  0  0  0  0  0  0  0  0  0
   -3.2934    3.7537    0.2366 H   0  0  0  0  0  0  0  0  0  0  0  0
   -1.8936    8.2148    0.4936 H   0  0  0  0  0  0  0  0  0  0  0  0
    0.8253    8.0820    1.2462 H   0  0  0  0  0  0  0  0  0  0  0  0
    0.7398    8.2111   -0.5270 H   0  0  0  0  0  0  0  0  0  0  0  0
    0.2405    9.9153    2.6547 H   0  0  0  0  0  0  0  0  0  0  0  0
   -1.0903   16.3347    0.8514 H   0  0  0  0  0  0  0  0  0  0  0  0
   -1.3223   16.4769   -0.8065 H   0  0  0  0  0  0  0  0  0  0  0  0
   -1.0410   12.7966   -3.6334 H   0  0  0  0  0  0  0  0  0  0  0  0
   -0.7003   11.2747   -3.0087 H   0  0  0  0  0  0  0  0  0  0  0  0
  1  2  1  0  0  0  0
  1 25  1  0  0  0  0
  1 26  1  0  0  0  0
  1 27  1  0  0  0  0
  2  3  2  0  0  0  0
  2  4  1  0  0  0  0
  4  5  1  0  0  0  0
  4 28  1  0  0  0  0
  5 10  2  0  0  0  0
  5  6  1  0  0  0  0
  6  7  2  0  0  0  0
  6 29  1  0  0  0  0
  7  8  1  0  0  0  0
  7 30  1  0  0  0  0
  8  9  2  0  0  0  0
  8 11  1  0  0  0  0
  9 10  1  0  0  0  0
  9 31  1  0  0  0  0
 10 32  1  0  0  0  0
 11 12  1  0  0  0  0
 11 33  1  0  0  0  0
 12 13  1  0  0  0  0
 12 34  1  0  0  0  0
 12 35  1  0  0  0  0
 13 18  2  0  0  0  0
 13 14  1  0  0  0  0
 14 15  2  0  0  0  0
 14 36  1  0  0  0  0
 15 16  1  0  0  0  0
 16 22  2  0  0  0  0
 16 17  1  0  0  0  0
 17 18  1  0  0  0  0
 17 19  2  0  0  0  0
 19 20  1  0  0  0  0
 19 24  1  0  0  0  0
 20 21  2  0  0  0  0
 21 22  1  0  0  0  0
 21 23  1  0  0  0  0
 23 37  1  0  0  0  0
 23 38  1  0  0  0  0
 24 39  1  0  0  0  0
 24 40  1  0  0  0  0
M  END
$$$$
ZINC03814834
  -OEChem-08230709403D

 41 43  0     0  0  0  0  0  0999 V2000
   -0.2287    0.0094   -0.7272 C   0  0  0  0  0  0  0  0  0  0  0  0
   -0.2646    1.5159   -0.7125 C   0  0  0  0  0  0  0  0  0  0  0  0
    0.5404    2.1480   -1.3634 O   0  0  0  0  0  0  0  0  0  0  0  0
   -1.1946    2.1607    0.0195 N   0  0  0  0  0  0  0  0  0  0  0  0
   -1.1622    3.5583    0.1197 C   0  0  0  0  0  0  0  0  0  0  0  0
    0.0549    4.2265    0.1154 C   0  0  0  0  0  0  0  0  0  0  0  0
    0.0868    5.6036    0.2084 C   0  0  0  0  0  0  0  0  0  0  0  0
   -1.0983    6.3198    0.3172 C   0  0  0  0  0  0  0  0  0  0  0  0
   -2.3154    5.6508    0.3272 C   0  0  0  0  0  0  0  0  0  0  0  0
   -2.3470    4.2740    0.2289 C   0  0  0  0  0  0  0  0  0  0  0  0
   -1.0660    7.7148    0.4173 N   0  0  0  0  0  0  0  0  0  0  0  0
    0.2179    8.4204    0.4068 C   0  0  0  0  0  0  0  0  0  0  0  0
   -0.0229    9.9032    0.5264 C   0  0  0  0  0  0  0  0  0  0  0  0
    0.0289   10.5122    1.7798 C   0  0  0  0  0  0  0  0  0  0  0  0
   -0.1775   11.8055    1.9094 N   0  0  0  0  0  0  0  0  0  0  0  0
   -0.4395   12.5425    0.8271 C   0  0  0  0  0  0  0  0  0  0  0  0
   -0.4910   11.9185   -0.4443 C   0  0  0  0  0  0  0  0  0  0  0  0
   -0.2746   10.6116   -0.5538 N   0  0  0  0  0  0  0  0  0  0  0  0
   -0.7810   12.7593   -1.6071 C   0  0  0  0  0  0  0  0  0  0  0  0
   -0.9780   14.0536   -1.3979 N   0  0  0  0  0  0  0  0  0  0  0  0
   -0.9150   14.5725   -0.1757 C   0  0  0  0  0  0  0  0  0  0  0  0
   -1.1306   15.9295   -0.0290 N   0  0  0  0  0  0  0  0  0  0  0  0
   -0.8473   12.2241   -2.8748 N   0  0  0  0  0  0  0  0  0  0  0  0
    0.4225   -0.3464    0.0712 H   0  0  0  0  0  0  0  0  0  0  0  0
   -1.2356   -0.3795   -0.5752 H   0  0  0  0  0  0  0  0  0  0  0  0
    0.1528   -0.3357   -1.6881 H   0  0  0  0  0  0  0  0  0  0  0  0
   -1.8863    1.6576    0.4769 H   0  0  0  0  0  0  0  0  0  0  0  0
    0.9766    3.6693    0.0349 H   0  0  0  0  0  0  0  0  0  0  0  0
    1.0332    6.1237    0.2003 H   0  0  0  0  0  0  0  0  0  0  0  0
   -3.2370    6.2075    0.4114 H   0  0  0  0  0  0  0  0  0  0  0  0
   -3.2934    3.7537    0.2366 H   0  0  0  0  0  0  0  0  0  0  0  0
   -1.8936    8.2148    0.4936 H   0  0  0  0  0  0  0  0  0  0  0  0
    0.8253    8.0820    1.2462 H   0  0  0  0  0  0  0  0  0  0  0  0
    0.7398    8.2111   -0.5270 H   0  0  0  0  0  0  0  0  0  0  0  0
    0.2405    9.9153    2.6547 H   0  0  0  0  0  0  0  0  0  0  0  0
   -1.0903   16.3347    0.8514 H   0  0  0  0  0  0  0  0  0  0  0  0
   -1.3223   16.4769   -0.8065 H   0  0  0  0  0  0  0  0  0  0  0  0
   -1.0410   12.7966   -3.6334 H   0  0  0  0  0  0  0  0  0  0  0  0
   -0.7003   11.2747   -3.0087 H   0  0  0  0  0  0  0  0  0  0  0  0
   -0.6548   13.8958    0.9712 N   0  3  0  0  0  0  0  0  0  0  0  0
   -0.6136   14.3148    1.8783 H   0  0  0  0  0  0  0  0  0  0  0  0
  1  2  1  0  0  0  0
  1 24  1  0  0  0  0
  1 25  1  0  0  0  0
  1 26  1  0  0  0  0
  2  3  2  0  0  0  0
  2  4  1  0  0  0  0
  4  5  1  0  0  0  0
  4 27  1  0  0  0  0
  5 10  2  0  0  0  0
  5  6  1  0  0  0  0
  6  7  2  0  0  0  0
  6 28  1  0  0  0  0
  7  8  1  0  0  0  0
  7 29  1  0  0  0  0
  8  9  2  0  0  0  0
  8 11  1  0  0  0  0
  9 10  1  0  0  0  0
  9 30  1  0  0  0  0
 10 31  1  0  0  0  0
 11 12  1  0  0  0  0
 11 32  1  0  0  0  0
 12 13  1  0  0  0  0
 12 33  1  0  0  0  0
 12 34  1  0  0  0  0
 13 18  2  0  0  0  0
 13 14  1  0  0  0  0
 14 15  2  0  0  0  0
 14 35  1  0  0  0  0
 15 16  1  0  0  0  0
 16 17  2  0  0  0  0
 16 40  1  0  0  0  0
 17 18  1  0  0  0  0
 17 19  1  0  0  0  0
 19 20  2  0  0  0  0
 19 23  1  0  0  0  0
 20 21  1  0  0  0  0
 21 22  1  0  0  0  0
 21 40  2  0  0  0  0
 22 36  1  0  0  0  0
 22 37  1  0  0  0  0
 23 38  1  0  0  0  0
 23 39  1  0  0  0  0
 40 41  1  0  0  0  0
M  CHG  1  40   1
M  END
$$$$
ZINC03814835
  -OEChem-08230709403D

 38 40  0     0  0  0  0  0  0999 V2000
    2.4708    4.3104    0.0011 C   0  0  0  0  0  0  0  0  0  0  0  0
    1.1735    3.5436    0.0094 C   0  0  0  0  0  0  0  0  0  0  0  0
    0.1169    4.1393    0.0223 O   0  0  0  0  0  0  0  0  0  0  0  0
    1.1885    2.0762    0.0019 C   0  0  0  0  0  0  0  0  0  0  0  0
   -0.0164    1.3612    0.0095 C   0  0  0  0  0  0  0  0  0  0  0  0
    0.0021   -0.0041    0.0020 C   0  0  0  0  0  0  0  0  0  0  0  0
    1.2167   -0.6862   -0.0128 C   0  0  0  0  0  0  0  0  0  0  0  0
    2.4171    0.0207   -0.0209 C   0  0  0  0  0  0  0  0  0  0  0  0
    2.4078    1.3861   -0.0135 C   0  0  0  0  0  0  0  0  0  0  0  0
    1.2309   -2.0750   -0.0199 N   0  0  0  0  0  0  0  0  0  0  0  0
    2.5070   -2.7944   -0.0355 C   0  0  0  0  0  0  0  0  0  0  0  0
    2.2467   -4.2788   -0.0405 C   0  0  0  0  0  0  0  0  0  0  0  0
    2.2202   -4.9710   -1.2508 C   0  0  0  0  0  0  0  0  0  0  0  0
    1.9954   -6.2674   -1.2806 N   0  0  0  0  0  0  0  0  0  0  0  0
    1.7904   -6.9269   -0.1378 C   0  0  0  0  0  0  0  0  0  0  0  0
    1.8183   -6.2185    1.0894 C   0  0  0  0  0  0  0  0  0  0  0  0
    2.0521   -4.9101    1.0977 N   0  0  0  0  0  0  0  0  0  0  0  0
    1.5891   -6.9758    2.3211 C   0  0  0  0  0  0  0  0  0  0  0  0
    1.3690   -8.2786    2.2115 N   0  0  0  0  0  0  0  0  0  0  0  0
    1.3563   -8.8790    1.0256 C   0  0  0  0  0  0  0  0  0  0  0  0
    1.5570   -8.2449   -0.1125 N   0  0  0  0  0  0  0  0  0  0  0  0
    1.1207  -10.2399    0.9837 N   0  0  0  0  0  0  0  0  0  0  0  0
    1.6012   -6.3561    3.5514 N   0  0  0  0  0  0  0  0  0  0  0  0
    2.7489    4.4847   -0.9435 H   0  0  0  0  0  0  0  0  0  0  0  0
    2.3356    5.2589    0.5210 H   0  0  0  0  0  0  0  0  0  0  0  0
    3.2412    3.7266    0.5048 H   0  0  0  0  0  0  0  0  0  0  0  0
   -0.9585    1.8893    0.0168 H   0  0  0  0  0  0  0  0  0  0  0  0
   -0.9262   -0.5560    0.0079 H   0  0  0  0  0  0  0  0  0  0  0  0
    3.3565   -0.5120   -0.0327 H   0  0  0  0  0  0  0  0  0  0  0  0
    3.3389    1.9333   -0.0191 H   0  0  0  0  0  0  0  0  0  0  0  0
    0.3959   -2.5686   -0.0146 H   0  0  0  0  0  0  0  0  0  0  0  0
    3.0675   -2.5208   -0.9294 H   0  0  0  0  0  0  0  0  0  0  0  0
    3.0841   -2.5298    0.8505 H   0  0  0  0  0  0  0  0  0  0  0  0
    2.3858   -4.4368   -2.1747 H   0  0  0  0  0  0  0  0  0  0  0  0
    1.1062  -10.7036    0.1318 H   0  0  0  0  0  0  0  0  0  0  0  0
    0.9698  -10.7316    1.8061 H   0  0  0  0  0  0  0  0  0  0  0  0
    1.4470   -6.8740    4.3569 H   0  0  0  0  0  0  0  0  0  0  0  0
    1.7640   -5.4017    3.6122 H   0  0  0  0  0  0  0  0  0  0  0  0
  1  2  1  0  0  0  0
  1 24  1  0  0  0  0
  1 25  1  0  0  0  0
  1 26  1  0  0  0  0
  2  3  2  0  0  0  0
  2  4  1  0  0  0  0
  4  9  2  0  0  0  0
  4  5  1  0  0  0  0
  5  6  2  0  0  0  0
  5 27  1  0  0  0  0
  6  7  1  0  0  0  0
  6 28  1  0  0  0  0
  7  8  2  0  0  0  0
  7 10  1  0  0  0  0
  8  9  1  0  0  0  0
  8 29  1  0  0  0  0
  9 30  1  0  0  0  0
 10 11  1  0  0  0  0
 10 31  1  0  0  0  0
 11 12  1  0  0  0  0
 11 32  1  0  0  0  0
 11 33  1  0  0  0  0
 12 17  2  0  0  0  0
 12 13  1  0  0  0  0
 13 14  2  0  0  0  0
 13 34  1  0  0  0  0
 14 15  1  0  0  0  0
 15 21  2  0  0  0  0
 15 16  1  0  0  0  0
 16 17  1  0  0  0  0
 16 18  2  0  0  0  0
 18 19  1  0  0  0  0
 18 23  1  0  0  0  0
 19 20  2  0  0  0  0
 20 21  1  0  0  0  0
 20 22  1  0  0  0  0
 22 35  1  0  0  0  0
 22 36  1  0  0  0  0
 23 37  1  0  0  0  0
 23 38  1  0  0  0  0
M  END
$$$$
ZINC03814835
  -OEChem-08230709403D

 39 41  0     0  0  0  0  0  0999 V2000
    2.4708    4.3104    0.0011 C   0  0  0  0  0  0  0  0  0  0  0  0
    1.1735    3.5436    0.0094 C   0  0  0  0  0  0  0  0  0  0  0  0
    0.1169    4.1393    0.0223 O   0  0  0  0  0  0  0  0  0  0  0  0
    1.1885    2.0762    0.0019 C   0  0  0  0  0  0  0  0  0  0  0  0
   -0.0164    1.3612    0.0095 C   0  0  0  0  0  0  0  0  0  0  0  0
    0.0021   -0.0041    0.0020 C   0  0  0  0  0  0  0  0  0  0  0  0
    1.2167   -0.6862   -0.0128 C   0  0  0  0  0  0  0  0  0  0  0  0
    2.4171    0.0207   -0.0209 C   0  0  0  0  0  0  0  0  0  0  0  0
    2.4078    1.3861   -0.0135 C   0  0  0  0  0  0  0  0  0  0  0  0
    1.2309   -2.0750   -0.0199 N   0  0  0  0  0  0  0  0  0  0  0  0
    2.5070   -2.7944   -0.0355 C   0  0  0  0  0  0  0  0  0  0  0  0
    2.2467   -4.2788   -0.0405 C   0  0  0  0  0  0  0  0  0  0  0  0
    2.2202   -4.9710   -1.2508 C   0  0  0  0  0  0  0  0  0  0  0  0
    1.9954   -6.2674   -1.2806 N   0  0  0  0  0  0  0  0  0  0  0  0
    1.7904   -6.9269   -0.1378 C   0  0  0  0  0  0  0  0  0  0  0  0
    1.8183   -6.2185    1.0894 C   0  0  0  0  0  0  0  0  0  0  0  0
    2.0521   -4.9101    1.0977 N   0  0  0  0  0  0  0  0  0  0  0  0
    1.5891   -6.9758    2.3211 C   0  0  0  0  0  0  0  0  0  0  0  0
    1.3690   -8.2786    2.2115 N   0  0  0  0  0  0  0  0  0  0  0  0
    1.3563   -8.8790    1.0256 C   0  0  0  0  0  0  0  0  0  0  0  0
    1.1207  -10.2399    0.9837 N   0  0  0  0  0  0  0  0  0  0  0  0
    1.6012   -6.3561    3.5514 N   0  0  0  0  0  0  0  0  0  0  0  0
    2.7489    4.4847   -0.9435 H   0  0  0  0  0  0  0  0  0  0  0  0
    2.3356    5.2589    0.5210 H   0  0  0  0  0  0  0  0  0  0  0  0
    3.2412    3.7266    0.5048 H   0  0  0  0  0  0  0  0  0  0  0  0
   -0.9585    1.8893    0.0168 H   0  0  0  0  0  0  0  0  0  0  0  0
   -0.9262   -0.5560    0.0079 H   0  0  0  0  0  0  0  0  0  0  0  0
    3.3565   -0.5120   -0.0327 H   0  0  0  0  0  0  0  0  0  0  0  0
    3.3389    1.9333   -0.0191 H   0  0  0  0  0  0  0  0  0  0  0  0
    0.3959   -2.5686   -0.0146 H   0  0  0  0  0  0  0  0  0  0  0  0
    3.0675   -2.5208   -0.9294 H   0  0  0  0  0  0  0  0  0  0  0  0
    3.0841   -2.5298    0.8505 H   0  0  0  0  0  0  0  0  0  0  0  0
    2.3858   -4.4368   -2.1747 H   0  0  0  0  0  0  0  0  0  0  0  0
    1.1062  -10.7036    0.1318 H   0  0  0  0  0  0  0  0  0  0  0  0
    0.9698  -10.7316    1.8061 H   0  0  0  0  0  0  0  0  0  0  0  0
    1.4470   -6.8740    4.3569 H   0  0  0  0  0  0  0  0  0  0  0  0
    1.7640   -5.4017    3.6122 H   0  0  0  0  0  0  0  0  0  0  0  0
    1.5552   -8.2840   -0.1775 N   0  3  0  0  0  0  0  0  0  0  0  0
    1.5400   -8.7633   -1.0550 H   0  0  0  0  0  0  0  0  0  0  0  0
  1  2  1  0  0  0  0
  1 23  1  0  0  0  0
  1 24  1  0  0  0  0
  1 25  1  0  0  0  0
  2  3  2  0  0  0  0
  2  4  1  0  0  0  0
  4  9  2  0  0  0  0
  4  5  1  0  0  0  0
  5  6  2  0  0  0  0
  5 26  1  0  0  0  0
  6  7  1  0  0  0  0
  6 27  1  0  0  0  0
  7  8  2  0  0  0  0
  7 10  1  0  0  0  0
  8  9  1  0  0  0  0
  8 28  1  0  0  0  0
  9 29  1  0  0  0  0
 10 11  1  0  0  0  0
 10 30  1  0  0  0  0
 11 12  1  0  0  0  0
 11 31  1  0  0  0  0
 11 32  1  0  0  0  0
 12 17  2  0  0  0  0
 12 13  1  0  0  0  0
 13 14  2  0  0  0  0
 13 33  1  0  0  0  0
 14 15  1  0  0  0  0
 15 16  2  0  0  0  0
 15 38  1  0  0  0  0
 16 17  1  0  0  0  0
 16 18  1  0  0  0  0
 18 19  2  0  0  0  0
 18 22  1  0  0  0  0
 19 20  1  0  0  0  0
 20 21  1  0  0  0  0
 20 38  2  0  0  0  0
 21 34  1  0  0  0  0
 21 35  1  0  0  0  0
 22 36  1  0  0  0  0
 22 37  1  0  0  0  0
 38 39  1  0  0  0  0
M  CHG  1  38   1
M  END
$$$$
ZINC03814836
  -OEChem-08230709403D

 46 48  0     0  0  0  0  0  0999 V2000
    4.9065    1.4494   -0.0370 C   0  0  0  0  0  0  0  0  0  0  0  0
    3.5712    2.1963   -0.0202 C   0  0  0  0  0  0  0  0  0  0  0  0
    2.4220    1.1863   -0.0147 C   0  0  0  0  0  0  0  0  0  0  0  0
    1.1435    1.9015    0.0014 N   0  0  0  0  0  0  0  0  0  0  0  0
   -0.0144    1.2118    0.0087 C   0  0  0  0  0  0  0  0  0  0  0  0
    0.0021   -0.0041    0.0020 O   0  0  0  0  0  0  0  0  0  0  0  0
   -1.3019    1.9319    0.0187 C   0  0  0  0  0  0  0  0  0  0  0  0
   -1.3225    3.3297    0.0323 C   0  0  0  0  0  0  0  0  0  0  0  0
   -2.5251    3.9986    0.0363 C   0  0  0  0  0  0  0  0  0  0  0  0
   -3.7203    3.2847    0.0380 C   0  0  0  0  0  0  0  0  0  0  0  0
   -3.7031    1.8927    0.0304 C   0  0  0  0  0  0  0  0  0  0  0  0
   -2.5038    1.2180    0.0205 C   0  0  0  0  0  0  0  0  0  0  0  0
   -4.9338    3.9635    0.0480 N   0  0  0  0  0  0  0  0  0  0  0  0
   -4.9537    5.4284    0.0561 C   0  0  0  0  0  0  0  0  0  0  0  0
   -6.3811    5.9113    0.0660 C   0  0  0  0  0  0  0  0  0  0  0  0
   -6.9951    6.2260    1.2779 C   0  0  0  0  0  0  0  0  0  0  0  0
   -8.2405    6.6502    1.3120 N   0  0  0  0  0  0  0  0  0  0  0  0
   -8.9235    6.7803    0.1720 C   0  0  0  0  0  0  0  0  0  0  0  0
   -8.2948    6.4590   -1.0568 C   0  0  0  0  0  0  0  0  0  0  0  0
   -7.0344    6.0371   -1.0695 N   0  0  0  0  0  0  0  0  0  0  0  0
   -9.0757    6.6143   -2.2853 C   0  0  0  0  0  0  0  0  0  0  0  0
  -10.3241    7.0460   -2.1715 N   0  0  0  0  0  0  0  0  0  0  0  0
  -10.8509    7.3288   -0.9842 C   0  0  0  0  0  0  0  0  0  0  0  0
  -10.1923    7.2070    0.1511 N   0  0  0  0  0  0  0  0  0  0  0  0
  -12.1581    7.7744   -0.9378 N   0  0  0  0  0  0  0  0  0  0  0  0
   -8.5323    6.3216   -3.5170 N   0  0  0  0  0  0  0  0  0  0  0  0
    4.9812    0.8188    0.8489 H   0  0  0  0  0  0  0  0  0  0  0  0
    4.9642    0.8284   -0.9309 H   0  0  0  0  0  0  0  0  0  0  0  0
    5.7252    2.1689   -0.0410 H   0  0  0  0  0  0  0  0  0  0  0  0
    3.4965    2.8268   -0.9062 H   0  0  0  0  0  0  0  0  0  0  0  0
    3.5135    2.8173    0.8737 H   0  0  0  0  0  0  0  0  0  0  0  0
    2.4967    0.5557    0.8712 H   0  0  0  0  0  0  0  0  0  0  0  0
    2.4797    0.5653   -0.9086 H   0  0  0  0  0  0  0  0  0  0  0  0
    1.1303    2.8713    0.0067 H   0  0  0  0  0  0  0  0  0  0  0  0
   -0.3956    3.8839    0.0354 H   0  0  0  0  0  0  0  0  0  0  0  0
   -2.5417    5.0784    0.0419 H   0  0  0  0  0  0  0  0  0  0  0  0
   -4.6320    1.3417    0.0318 H   0  0  0  0  0  0  0  0  0  0  0  0
   -2.4911    0.1381    0.0139 H   0  0  0  0  0  0  0  0  0  0  0  0
   -5.7672    3.4671    0.0496 H   0  0  0  0  0  0  0  0  0  0  0  0
   -4.4402    5.7938    0.9454 H   0  0  0  0  0  0  0  0  0  0  0  0
   -4.4494    5.8035   -0.8345 H   0  0  0  0  0  0  0  0  0  0  0  0
   -6.4421    6.1202    2.1995 H   0  0  0  0  0  0  0  0  0  0  0  0
  -12.5676    7.9883   -0.0849 H   0  0  0  0  0  0  0  0  0  0  0  0
  -12.6662    7.8733   -1.7582 H   0  0  0  0  0  0  0  0  0  0  0  0
   -9.0650    6.4303   -4.3203 H   0  0  0  0  0  0  0  0  0  0  0  0
   -7.6170    6.0069   -3.5809 H   0  0  0  0  0  0  0  0  0  0  0  0
  1  2  1  0  0  0  0
  1 27  1  0  0  0  0
  1 28  1  0  0  0  0
  1 29  1  0  0  0  0
  2  3  1  0  0  0  0
  2 30  1  0  0  0  0
  2 31  1  0  0  0  0
  3  4  1  0  0  0  0
  3 32  1  0  0  0  0
  3 33  1  0  0  0  0
  4  5  1  0  0  0  0
  4 34  1  0  0  0  0
  5  6  2  0  0  0  0
  5  7  1  0  0  0  0
  7 12  2  0  0  0  0
  7  8  1  0  0  0  0
  8  9  2  0  0  0  0
  8 35  1  0  0  0  0
  9 10  1  0  0  0  0
  9 36  1  0  0  0  0
 10 11  2  0  0  0  0
 10 13  1  0  0  0  0
 11 12  1  0  0  0  0
 11 37  1  0  0  0  0
 12 38  1  0  0  0  0
 13 14  1  0  0  0  0
 13 39  1  0  0  0  0
 14 15  1  0  0  0  0
 14 40  1  0  0  0  0
 14 41  1  0  0  0  0
 15 20  2  0  0  0  0
 15 16  1  0  0  0  0
 16 17  2  0  0  0  0
 16 42  1  0  0  0  0
 17 18  1  0  0  0  0
 18 24  2  0  0  0  0
 18 19  1  0  0  0  0
 19 20  1  0  0  0  0
 19 21  2  0  0  0  0
 21 22  1  0  0  0  0
 21 26  1  0  0  0  0
 22 23  2  0  0  0  0
 23 24  1  0  0  0  0
 23 25  1  0  0  0  0
 25 43  1  0  0  0  0
 25 44  1  0  0  0  0
 26 45  1  0  0  0  0
 26 46  1  0  0  0  0
M  END
$$$$
ZINC03814836
  -OEChem-08230709403D

 47 49  0     0  0  0  0  0  0999 V2000
    4.9065    1.4494   -0.0370 C   0  0  0  0  0  0  0  0  0  0  0  0
    3.5712    2.1963   -0.0202 C   0  0  0  0  0  0  0  0  0  0  0  0
    2.4220    1.1863   -0.0147 C   0  0  0  0  0  0  0  0  0  0  0  0
    1.1435    1.9015    0.0014 N   0  0  0  0  0  0  0  0  0  0  0  0
   -0.0144    1.2118    0.0087 C   0  0  0  0  0  0  0  0  0  0  0  0
    0.0021   -0.0041    0.0020 O   0  0  0  0  0  0  0  0  0  0  0  0
   -1.3019    1.9319    0.0187 C   0  0  0  0  0  0  0  0  0  0  0  0
   -1.3225    3.3297    0.0323 C   0  0  0  0  0  0  0  0  0  0  0  0
   -2.5251    3.9986    0.0363 C   0  0  0  0  0  0  0  0  0  0  0  0
   -3.7203    3.2847    0.0380 C   0  0  0  0  0  0  0  0  0  0  0  0
   -3.7031    1.8927    0.0304 C   0  0  0  0  0  0  0  0  0  0  0  0
   -2.5038    1.2180    0.0205 C   0  0  0  0  0  0  0  0  0  0  0  0
   -4.9338    3.9635    0.0480 N   0  0  0  0  0  0  0  0  0  0  0  0
   -4.9537    5.4284    0.0561 C   0  0  0  0  0  0  0  0  0  0  0  0
   -6.3811    5.9113    0.0660 C   0  0  0  0  0  0  0  0  0  0  0  0
   -6.9951    6.2260    1.2779 C   0  0  0  0  0  0  0  0  0  0  0  0
   -8.2405    6.6502    1.3120 N   0  0  0  0  0  0  0  0  0  0  0  0
   -8.9235    6.7803    0.1720 C   0  0  0  0  0  0  0  0  0  0  0  0
   -8.2948    6.4590   -1.0568 C   0  0  0  0  0  0  0  0  0  0  0  0
   -7.0344    6.0371   -1.0695 N   0  0  0  0  0  0  0  0  0  0  0  0
   -9.0757    6.6143   -2.2853 C   0  0  0  0  0  0  0  0  0  0  0  0
  -10.3241    7.0460   -2.1715 N   0  0  0  0  0  0  0  0  0  0  0  0
  -10.8509    7.3288   -0.9842 C   0  0  0  0  0  0  0  0  0  0  0  0
  -12.1581    7.7744   -0.9378 N   0  0  0  0  0  0  0  0  0  0  0  0
   -8.5323    6.3216   -3.5170 N   0  0  0  0  0  0  0  0  0  0  0  0
    4.9812    0.8188    0.8489 H   0  0  0  0  0  0  0  0  0  0  0  0
    4.9642    0.8284   -0.9309 H   0  0  0  0  0  0  0  0  0  0  0  0
    5.7252    2.1689   -0.0410 H   0  0  0  0  0  0  0  0  0  0  0  0
    3.4965    2.8268   -0.9062 H   0  0  0  0  0  0  0  0  0  0  0  0
    3.5135    2.8173    0.8737 H   0  0  0  0  0  0  0  0  0  0  0  0
    2.4967    0.5557    0.8712 H   0  0  0  0  0  0  0  0  0  0  0  0
    2.4797    0.5653   -0.9086 H   0  0  0  0  0  0  0  0  0  0  0  0
    1.1303    2.8713    0.0067 H   0  0  0  0  0  0  0  0  0  0  0  0
   -0.3956    3.8839    0.0354 H   0  0  0  0  0  0  0  0  0  0  0  0
   -2.5417    5.0784    0.0419 H   0  0  0  0  0  0  0  0  0  0  0  0
   -4.6320    1.3417    0.0318 H   0  0  0  0  0  0  0  0  0  0  0  0
   -2.4911    0.1381    0.0139 H   0  0  0  0  0  0  0  0  0  0  0  0
   -5.7672    3.4671    0.0496 H   0  0  0  0  0  0  0  0  0  0  0  0
   -4.4402    5.7938    0.9454 H   0  0  0  0  0  0  0  0  0  0  0  0
   -4.4494    5.8035   -0.8345 H   0  0  0  0  0  0  0  0  0  0  0  0
   -6.4421    6.1202    2.1995 H   0  0  0  0  0  0  0  0  0  0  0  0
  -12.5676    7.9883   -0.0849 H   0  0  0  0  0  0  0  0  0  0  0  0
  -12.6662    7.8733   -1.7582 H   0  0  0  0  0  0  0  0  0  0  0  0
   -9.0650    6.4303   -4.3203 H   0  0  0  0  0  0  0  0  0  0  0  0
   -7.6170    6.0069   -3.5809 H   0  0  0  0  0  0  0  0  0  0  0  0
  -10.2271    7.2245    0.2162 N   0  3  0  0  0  0  0  0  0  0  0  0
  -10.6506    7.4454    1.0947 H   0  0  0  0  0  0  0  0  0  0  0  0
  1  2  1  0  0  0  0
  1 26  1  0  0  0  0
  1 27  1  0  0  0  0
  1 28  1  0  0  0  0
  2  3  1  0  0  0  0
  2 29  1  0  0  0  0
  2 30  1  0  0  0  0
  3  4  1  0  0  0  0
  3 31  1  0  0  0  0
  3 32  1  0  0  0  0
  4  5  1  0  0  0  0
  4 33  1  0  0  0  0
  5  6  2  0  0  0  0
  5  7  1  0  0  0  0
  7 12  2  0  0  0  0
  7  8  1  0  0  0  0
  8  9  2  0  0  0  0
  8 34  1  0  0  0  0
  9 10  1  0  0  0  0
  9 35  1  0  0  0  0
 10 11  2  0  0  0  0
 10 13  1  0  0  0  0
 11 12  1  0  0  0  0
 11 36  1  0  0  0  0
 12 37  1  0  0  0  0
 13 14  1  0  0  0  0
 13 38  1  0  0  0  0
 14 15  1  0  0  0  0
 14 39  1  0  0  0  0
 14 40  1  0  0  0  0
 15 20  2  0  0  0  0
 15 16  1  0  0  0  0
 16 17  2  0  0  0  0
 16 41  1  0  0  0  0
 17 18  1  0  0  0  0
 18 19  2  0  0  0  0
 18 46  1  0  0  0  0
 19 20  1  0  0  0  0
 19 21  1  0  0  0  0
 21 22  2  0  0  0  0
 21 25  1  0  0  0  0
 22 23  1  0  0  0  0
 23 24  1  0  0  0  0
 23 46  2  0  0  0  0
 24 42  1  0  0  0  0
 24 43  1  0  0  0  0
 25 44  1  0  0  0  0
 25 45  1  0  0  0  0
 46 47  1  0  0  0  0
M  CHG  1  46   1
M  END
$$$$
ZINC03814837
  -OEChem-08230709403D

 44 46  0     0  0  0  0  0  0999 V2000
   -1.2164   -1.2624   -0.2210 C   0  0  0  0  0  0  0  0  0  0  0  0
   -2.4900   -0.4570   -0.2026 C   0  0  0  0  0  0  0  0  0  0  0  0
   -3.6756   -1.0380   -0.5473 C   0  0  0  0  0  0  0  0  0  0  0  0
   -4.8594   -0.3071   -0.5355 C   0  0  0  0  0  0  0  0  0  0  0  0
   -4.8688    1.0092   -0.1791 C   0  0  0  0  0  0  0  0  0  0  0  0
   -3.6690    1.6373    0.1802 C   0  0  0  0  0  0  0  0  0  0  0  0
   -2.4652    0.8915    0.1674 C   0  0  0  0  0  0  0  0  0  0  0  0
   -1.2639    1.5478    0.5361 C   0  0  0  0  0  0  0  0  0  0  0  0
   -1.3262    2.8257    0.8796 N   0  0  0  0  0  0  0  0  0  0  0  0
   -2.4785    3.4905    0.8732 C   0  0  0  0  0  0  0  0  0  0  0  0
   -3.6246    2.9292    0.5391 N   0  0  0  0  0  0  0  0  0  0  0  0
   -2.4756    4.8248    1.2371 N   0  0  0  0  0  0  0  0  0  0  0  0
   -0.0626    0.8721    0.5424 N   0  0  0  0  0  0  0  0  0  0  0  0
   -3.7029   -2.4909   -0.9466 C   0  0  0  0  0  0  0  0  0  0  0  0
   -3.8023   -3.3494    0.2879 C   0  0  0  0  0  0  0  0  0  0  0  0
   -2.6531   -3.7881    0.9173 C   0  0  0  0  0  0  0  0  0  0  0  0
   -2.7421   -4.5741    2.0576 C   0  0  0  0  0  0  0  0  0  0  0  0
   -3.9852   -4.9280    2.5588 C   0  0  0  0  0  0  0  0  0  0  0  0
   -5.1367   -4.4913    1.9223 C   0  0  0  0  0  0  0  0  0  0  0  0
   -5.0425   -3.7012    0.7853 C   0  0  0  0  0  0  0  0  0  0  0  0
   -6.3567   -4.8363    2.4116 O   0  0  0  0  0  0  0  0  0  0  0  0
   -6.3783   -5.6514    3.5851 C   0  0  0  0  0  0  0  0  0  0  0  0
   -1.6115   -5.0011    2.6791 O   0  0  0  0  0  0  0  0  0  0  0  0
   -1.7782   -5.8116    3.8441 C   0  0  0  0  0  0  0  0  0  0  0  0
   -0.9949   -1.6150    0.7864 H   0  0  0  0  0  0  0  0  0  0  0  0
   -1.3366   -2.1170   -0.8868 H   0  0  0  0  0  0  0  0  0  0  0  0
   -0.3966   -0.6378   -0.5758 H   0  0  0  0  0  0  0  0  0  0  0  0
   -5.7851   -0.7896   -0.8125 H   0  0  0  0  0  0  0  0  0  0  0  0
   -5.7953    1.5641   -0.1738 H   0  0  0  0  0  0  0  0  0  0  0  0
   -3.3050    5.3277    1.2430 H   0  0  0  0  0  0  0  0  0  0  0  0
   -1.6441    5.2577    1.4864 H   0  0  0  0  0  0  0  0  0  0  0  0
    0.7355    1.2985    0.1932 H   0  0  0  0  0  0  0  0  0  0  0  0
   -0.0146   -0.0284    0.8998 H   0  0  0  0  0  0  0  0  0  0  0  0
   -4.5649   -2.6753   -1.5878 H   0  0  0  0  0  0  0  0  0  0  0  0
   -2.7889   -2.7364   -1.4873 H   0  0  0  0  0  0  0  0  0  0  0  0
   -1.6849   -3.5154    0.5241 H   0  0  0  0  0  0  0  0  0  0  0  0
   -4.0564   -5.5427    3.4440 H   0  0  0  0  0  0  0  0  0  0  0  0
   -5.9393   -3.3608    0.2891 H   0  0  0  0  0  0  0  0  0  0  0  0
   -5.8731   -5.1307    4.3985 H   0  0  0  0  0  0  0  0  0  0  0  0
   -7.4113   -5.8528    3.8687 H   0  0  0  0  0  0  0  0  0  0  0  0
   -5.8669   -6.5926    3.3831 H   0  0  0  0  0  0  0  0  0  0  0  0
   -2.3277   -6.7158    3.5820 H   0  0  0  0  0  0  0  0  0  0  0  0
   -0.7999   -6.0831    4.2409 H   0  0  0  0  0  0  0  0  0  0  0  0
   -2.3341   -5.2542    4.5980 H   0  0  0  0  0  0  0  0  0  0  0  0
  1  2  1  0  0  0  0
  1 25  1  0  0  0  0
  1 26  1  0  0  0  0
  1 27  1  0  0  0  0
  2  7  2  0  0  0  0
  2  3  1  0  0  0  0
  3  4  2  0  0  0  0
  3 14  1  0  0  0  0
  4  5  1  0  0  0  0
  4 28  1  0  0  0  0
  5  6  2  0  0  0  0
  5 29  1  0  0  0  0
  6 11  1  0  0  0  0
  6  7  1  0  0  0  0
  7  8  1  0  0  0  0
  8  9  2  0  0  0  0
  8 13  1  0  0  0  0
  9 10  1  0  0  0  0
 10 11  2  0  0  0  0
 10 12  1  0  0  0  0
 12 30  1  0  0  0  0
 12 31  1  0  0  0  0
 13 32  1  0  0  0  0
 13 33  1  0  0  0  0
 14 15  1  0  0  0  0
 14 34  1  0  0  0  0
 14 35  1  0  0  0  0
 15 20  2  0  0  0  0
 15 16  1  0  0  0  0
 16 17  2  0  0  0  0
 16 36  1  0  0  0  0
 17 18  1  0  0  0  0
 17 23  1  0  0  0  0
 18 19  2  0  0  0  0
 18 37  1  0  0  0  0
 19 20  1  0  0  0  0
 19 21  1  0  0  0  0
 20 38  1  0  0  0  0
 21 22  1  0  0  0  0
 22 39  1  0  0  0  0
 22 40  1  0  0  0  0
 22 41  1  0  0  0  0
 23 24  1  0  0  0  0
 24 42  1  0  0  0  0
 24 43  1  0  0  0  0
 24 44  1  0  0  0  0
M  END
$$$$
ZINC03814837
  -OEChem-08230709403D

 45 47  0     0  0  0  0  0  0999 V2000
   -1.2164   -1.2624   -0.2210 C   0  0  0  0  0  0  0  0  0  0  0  0
   -2.4900   -0.4570   -0.2026 C   0  0  0  0  0  0  0  0  0  0  0  0
   -3.6756   -1.0380   -0.5473 C   0  0  0  0  0  0  0  0  0  0  0  0
   -4.8594   -0.3071   -0.5355 C   0  0  0  0  0  0  0  0  0  0  0  0
   -4.8688    1.0092   -0.1791 C   0  0  0  0  0  0  0  0  0  0  0  0
   -3.6690    1.6373    0.1802 C   0  0  0  0  0  0  0  0  0  0  0  0
   -2.4652    0.8915    0.1674 C   0  0  0  0  0  0  0  0  0  0  0  0
   -1.2639    1.5478    0.5361 C   0  0  0  0  0  0  0  0  0  0  0  0
   -1.3262    2.8257    0.8796 N   0  0  0  0  0  0  0  0  0  0  0  0
   -2.4785    3.4905    0.8732 C   0  0  0  0  0  0  0  0  0  0  0  0
   -2.4756    4.8248    1.2371 N   0  0  0  0  0  0  0  0  0  0  0  0
   -0.0626    0.8721    0.5424 N   0  0  0  0  0  0  0  0  0  0  0  0
   -3.7029   -2.4909   -0.9466 C   0  0  0  0  0  0  0  0  0  0  0  0
   -3.8023   -3.3494    0.2879 C   0  0  0  0  0  0  0  0  0  0  0  0
   -2.6531   -3.7881    0.9173 C   0  0  0  0  0  0  0  0  0  0  0  0
   -2.7421   -4.5741    2.0576 C   0  0  0  0  0  0  0  0  0  0  0  0
   -3.9852   -4.9280    2.5588 C   0  0  0  0  0  0  0  0  0  0  0  0
   -5.1367   -4.4913    1.9223 C   0  0  0  0  0  0  0  0  0  0  0  0
   -5.0425   -3.7012    0.7853 C   0  0  0  0  0  0  0  0  0  0  0  0
   -6.3567   -4.8363    2.4116 O   0  0  0  0  0  0  0  0  0  0  0  0
   -6.3783   -5.6514    3.5851 C   0  0  0  0  0  0  0  0  0  0  0  0
   -1.6115   -5.0011    2.6791 O   0  0  0  0  0  0  0  0  0  0  0  0
   -1.7782   -5.8116    3.8441 C   0  0  0  0  0  0  0  0  0  0  0  0
   -0.9949   -1.6150    0.7864 H   0  0  0  0  0  0  0  0  0  0  0  0
   -1.3366   -2.1170   -0.8868 H   0  0  0  0  0  0  0  0  0  0  0  0
   -0.3966   -0.6378   -0.5758 H   0  0  0  0  0  0  0  0  0  0  0  0
   -5.7851   -0.7896   -0.8125 H   0  0  0  0  0  0  0  0  0  0  0  0
   -5.7953    1.5641   -0.1738 H   0  0  0  0  0  0  0  0  0  0  0  0
   -3.3050    5.3277    1.2430 H   0  0  0  0  0  0  0  0  0  0  0  0
   -1.6441    5.2577    1.4864 H   0  0  0  0  0  0  0  0  0  0  0  0
    0.7355    1.2985    0.1932 H   0  0  0  0  0  0  0  0  0  0  0  0
   -0.0146   -0.0284    0.8998 H   0  0  0  0  0  0  0  0  0  0  0  0
   -4.5649   -2.6753   -1.5878 H   0  0  0  0  0  0  0  0  0  0  0  0
   -2.7889   -2.7364   -1.4873 H   0  0  0  0  0  0  0  0  0  0  0  0
   -1.6849   -3.5154    0.5241 H   0  0  0  0  0  0  0  0  0  0  0  0
   -4.0564   -5.5427    3.4440 H   0  0  0  0  0  0  0  0  0  0  0  0
   -5.9393   -3.3608    0.2891 H   0  0  0  0  0  0  0  0  0  0  0  0
   -5.8731   -5.1307    4.3985 H   0  0  0  0  0  0  0  0  0  0  0  0
   -7.4113   -5.8528    3.8687 H   0  0  0  0  0  0  0  0  0  0  0  0
   -5.8669   -6.5926    3.3831 H   0  0  0  0  0  0  0  0  0  0  0  0
   -2.3277   -6.7158    3.5820 H   0  0  0  0  0  0  0  0  0  0  0  0
   -0.7999   -6.0831    4.2409 H   0  0  0  0  0  0  0  0  0  0  0  0
   -2.3341   -5.2542    4.5980 H   0  0  0  0  0  0  0  0  0  0  0  0
   -3.6845    2.9680    0.5402 N   0  3  0  0  0  0  0  0  0  0  0  0
   -4.5028    3.5422    0.5672 H   0  0  0  0  0  0  0  0  0  0  0  0
  1  2  1  0  0  0  0
  1 24  1  0  0  0  0
  1 25  1  0  0  0  0
  1 26  1  0  0  0  0
  2  7  2  0  0  0  0
  2  3  1  0  0  0  0
  3  4  2  0  0  0  0
  3 13  1  0  0  0  0
  4  5  1  0  0  0  0
  4 27  1  0  0  0  0
  5  6  2  0  0  0  0
  5 28  1  0  0  0  0
  6  7  1  0  0  0  0
  6 44  1  0  0  0  0
  7  8  1  0  0  0  0
  8  9  2  0  0  0  0
  8 12  1  0  0  0  0
  9 10  1  0  0  0  0
 10 11  1  0  0  0  0
 10 44  2  0  0  0  0
 11 29  1  0  0  0  0
 11 30  1  0  0  0  0
 12 31  1  0  0  0  0
 12 32  1  0  0  0  0
 13 14  1  0  0  0  0
 13 33  1  0  0  0  0
 13 34  1  0  0  0  0
 14 19  2  0  0  0  0
 14 15  1  0  0  0  0
 15 16  2  0  0  0  0
 15 35  1  0  0  0  0
 16 17  1  0  0  0  0
 16 22  1  0  0  0  0
 17 18  2  0  0  0  0
 17 36  1  0  0  0  0
 18 19  1  0  0  0  0
 18 20  1  0  0  0  0
 19 37  1  0  0  0  0
 20 21  1  0  0  0  0
 21 38  1  0  0  0  0
 21 39  1  0  0  0  0
 21 40  1  0  0  0  0
 22 23  1  0  0  0  0
 23 41  1  0  0  0  0
 23 42  1  0  0  0  0
 23 43  1  0  0  0  0
 44 45  1  0  0  0  0
M  CHG  1  44   1
M  END
$$$$
ZINC03814838
  -OEChem-08230709403D

 47 49  0     1  0  0  0  0  0999 V2000
    0.0023   -2.8537   -0.0330 C   0  0  0  0  0  0  0  0  0  0  0  0
    0.0273   -4.2295   -0.0439 C   0  0  0  0  0  0  0  0  0  0  0  0
    1.0315   -4.9144    0.6349 C   0  0  0  0  0  0  0  0  0  0  0  0
    2.0166   -4.2101    1.3217 C   0  0  0  0  0  0  0  0  0  0  0  0
    2.0006   -2.8341    1.3312 C   0  0  0  0  0  0  0  0  0  0  0  0
    0.9936   -2.1435    0.6506 C   0  0  0  0  0  0  0  0  0  0  0  0
    0.9736   -0.6685    0.6587 C   0  0  0  0  0  0  0  0  0  0  0  0
    1.8336   -0.0520    1.2578 O   0  0  0  0  0  0  0  0  0  0  0  0
    0.0021   -0.0041    0.0020 N   0  0  0  0  0  0  0  0  0  0  0  0
   -0.0178    1.4608    0.0101 C   0  0  1  0  0  0  0  0  0  0  0  0
    1.0048    1.8381    0.0023 H   0  0  0  0  0  0  0  0  0  0  0  0
   -0.7578    1.9676   -1.2295 C   0  0  0  0  0  0  0  0  0  0  0  0
    0.0141    1.5862   -2.4663 C   0  0  0  0  0  0  0  0  0  0  0  0
    1.0498    0.9720   -2.3666 O   0  0  0  0  0  0  0  0  0  0  0  0
   -0.7232    1.9468    1.2500 C   0  0  0  0  0  0  0  0  0  0  0  0
   -1.1640    1.1512    2.0453 O   0  0  0  0  0  0  0  0  0  0  0  0
    1.0504   -6.3047    0.6272 N   0  0  0  0  0  0  0  0  0  0  0  0
    0.0145   -7.0473   -0.0951 C   0  0  0  0  0  0  0  0  0  0  0  0
    0.2616   -8.5266    0.0526 C   0  0  0  0  0  0  0  0  0  0  0  0
   -0.3936   -9.2392    1.0563 C   0  0  0  0  0  0  0  0  0  0  0  0
   -0.1944  -10.5317    1.2047 N   0  0  0  0  0  0  0  0  0  0  0  0
    0.6454  -11.1672    0.3839 C   0  0  0  0  0  0  0  0  0  0  0  0
    1.3088  -10.4382   -0.6345 C   0  0  0  0  0  0  0  0  0  0  0  0
    1.0896   -9.1343   -0.7703 N   0  0  0  0  0  0  0  0  0  0  0  0
    2.2218  -11.1696   -1.5146 C   0  0  0  0  0  0  0  0  0  0  0  0
    2.3716  -12.4699   -1.3036 N   0  0  0  0  0  0  0  0  0  0  0  0
    1.7167  -13.0905   -0.3274 C   0  0  0  0  0  0  0  0  0  0  0  0
    0.8838  -12.4802    0.4920 N   0  0  0  0  0  0  0  0  0  0  0  0
    1.9194  -14.4475   -0.1631 N   0  0  0  0  0  0  0  0  0  0  0  0
    2.9021  -10.5288   -2.5267 N   0  0  0  0  0  0  0  0  0  0  0  0
   -0.7795   -2.3231   -0.5561 H   0  0  0  0  0  0  0  0  0  0  0  0
   -0.7355   -4.7787   -0.5758 H   0  0  0  0  0  0  0  0  0  0  0  0
    2.7943   -4.7441    1.8474 H   0  0  0  0  0  0  0  0  0  0  0  0
    2.7655   -2.2883    1.8636 H   0  0  0  0  0  0  0  0  0  0  0  0
   -0.6840   -0.4958   -0.4759 H   0  0  0  0  0  0  0  0  0  0  0  0
   -1.7507    1.5197   -1.2683 H   0  0  0  0  0  0  0  0  0  0  0  0
   -0.8503    3.0525   -1.1791 H   0  0  0  0  0  0  0  0  0  0  0  0
    1.7494   -6.7829    1.1001 H   0  0  0  0  0  0  0  0  0  0  0  0
   -0.9639   -6.7996    0.3164 H   0  0  0  0  0  0  0  0  0  0  0  0
    0.0435   -6.7778   -1.1508 H   0  0  0  0  0  0  0  0  0  0  0  0
   -1.0724   -8.7243    1.7200 H   0  0  0  0  0  0  0  0  0  0  0  0
    1.4542  -14.9257    0.5410 H   0  0  0  0  0  0  0  0  0  0  0  0
    2.5269  -14.9219   -0.7520 H   0  0  0  0  0  0  0  0  0  0  0  0
    3.5033  -11.0297   -3.0999 H   0  0  0  0  0  0  0  0  0  0  0  0
    2.7799   -9.5767   -2.6662 H   0  0  0  0  0  0  0  0  0  0  0  0
   -0.4490    1.9288   -3.6787 O   0  5  0  0  0  0  0  0  0  0  0  0
   -0.8617    3.2635    1.4708 O   0  5  0  0  0  0  0  0  0  0  0  0
  1  6  2  0  0  0  0
  1  2  1  0  0  0  0
  1 31  1  0  0  0  0
  2  3  2  0  0  0  0
  2 32  1  0  0  0  0
  3  4  1  0  0  0  0
  3 17  1  0  0  0  0
  4  5  2  0  0  0  0
  4 33  1  0  0  0  0
  5  6  1  0  0  0  0
  5 34  1  0  0  0  0
  6  7  1  0  0  0  0
  7  8  2  0  0  0  0
  7  9  1  0  0  0  0
  9 10  1  0  0  0  0
  9 35  1  0  0  0  0
 10 11  1  0  0  0  0
 10 12  1  0  0  0  0
 10 15  1  0  0  0  0
 12 13  1  0  0  0  0
 12 36  1  0  0  0  0
 12 37  1  0  0  0  0
 13 14  2  0  0  0  0
 13 46  1  0  0  0  0
 15 16  2  0  0  0  0
 15 47  1  0  0  0  0
 17 18  1  0  0  0  0
 17 38  1  0  0  0  0
 18 19  1  0  0  0  0
 18 39  1  0  0  0  0
 18 40  1  0  0  0  0
 19 24  2  0  0  0  0
 19 20  1  0  0  0  0
 20 21  2  0  0  0  0
 20 41  1  0  0  0  0
 21 22  1  0  0  0  0
 22 28  2  0  0  0  0
 22 23  1  0  0  0  0
 23 24  1  0  0  0  0
 23 25  2  0  0  0  0
 25 26  1  0  0  0  0
 25 30  1  0  0  0  0
 26 27  2  0  0  0  0
 27 28  1  0  0  0  0
 27 29  1  0  0  0  0
 29 42  1  0  0  0  0
 29 43  1  0  0  0  0
 30 44  1  0  0  0  0
 30 45  1  0  0  0  0
M  CHG  2  46  -1  47  -1
M  END
$$$$
ZINC03814838
  -OEChem-08230709403D

 48 50  0     1  0  0  0  0  0999 V2000
    0.0023   -2.8537   -0.0330 C   0  0  0  0  0  0  0  0  0  0  0  0
    0.0273   -4.2295   -0.0439 C   0  0  0  0  0  0  0  0  0  0  0  0
    1.0315   -4.9144    0.6349 C   0  0  0  0  0  0  0  0  0  0  0  0
    2.0166   -4.2101    1.3217 C   0  0  0  0  0  0  0  0  0  0  0  0
    2.0006   -2.8341    1.3312 C   0  0  0  0  0  0  0  0  0  0  0  0
    0.9936   -2.1435    0.6506 C   0  0  0  0  0  0  0  0  0  0  0  0
    0.9736   -0.6685    0.6587 C   0  0  0  0  0  0  0  0  0  0  0  0
    1.8336   -0.0520    1.2578 O   0  0  0  0  0  0  0  0  0  0  0  0
    0.0021   -0.0041    0.0020 N   0  0  0  0  0  0  0  0  0  0  0  0
   -0.0178    1.4608    0.0101 C   0  0  1  0  0  0  0  0  0  0  0  0
    1.0048    1.8381    0.0023 H   0  0  0  0  0  0  0  0  0  0  0  0
   -0.7578    1.9676   -1.2295 C   0  0  0  0  0  0  0  0  0  0  0  0
    0.0141    1.5862   -2.4663 C   0  0  0  0  0  0  0  0  0  0  0  0
    1.0498    0.9720   -2.3666 O   0  0  0  0  0  0  0  0  0  0  0  0
   -0.7232    1.9468    1.2500 C   0  0  0  0  0  0  0  0  0  0  0  0
   -1.1640    1.1512    2.0453 O   0  0  0  0  0  0  0  0  0  0  0  0
    1.0504   -6.3047    0.6272 N   0  0  0  0  0  0  0  0  0  0  0  0
    0.0145   -7.0473   -0.0951 C   0  0  0  0  0  0  0  0  0  0  0  0
    0.2616   -8.5266    0.0526 C   0  0  0  0  0  0  0  0  0  0  0  0
   -0.3936   -9.2392    1.0563 C   0  0  0  0  0  0  0  0  0  0  0  0
   -0.1944  -10.5317    1.2047 N   0  0  0  0  0  0  0  0  0  0  0  0
    0.6454  -11.1672    0.3839 C   0  0  0  0  0  0  0  0  0  0  0  0
    1.3088  -10.4382   -0.6345 C   0  0  0  0  0  0  0  0  0  0  0  0
    1.0896   -9.1343   -0.7703 N   0  0  0  0  0  0  0  0  0  0  0  0
    2.2218  -11.1696   -1.5146 C   0  0  0  0  0  0  0  0  0  0  0  0
    2.3716  -12.4699   -1.3036 N   0  0  0  0  0  0  0  0  0  0  0  0
    1.7167  -13.0905   -0.3274 C   0  0  0  0  0  0  0  0  0  0  0  0
    1.9194  -14.4475   -0.1631 N   0  0  0  0  0  0  0  0  0  0  0  0
    2.9021  -10.5288   -2.5267 N   0  0  0  0  0  0  0  0  0  0  0  0
   -0.7795   -2.3231   -0.5561 H   0  0  0  0  0  0  0  0  0  0  0  0
   -0.7355   -4.7787   -0.5758 H   0  0  0  0  0  0  0  0  0  0  0  0
    2.7943   -4.7441    1.8474 H   0  0  0  0  0  0  0  0  0  0  0  0
    2.7655   -2.2883    1.8636 H   0  0  0  0  0  0  0  0  0  0  0  0
   -0.6840   -0.4958   -0.4759 H   0  0  0  0  0  0  0  0  0  0  0  0
   -1.7507    1.5197   -1.2683 H   0  0  0  0  0  0  0  0  0  0  0  0
   -0.8503    3.0525   -1.1791 H   0  0  0  0  0  0  0  0  0  0  0  0
    1.7494   -6.7829    1.1001 H   0  0  0  0  0  0  0  0  0  0  0  0
   -0.9639   -6.7996    0.3164 H   0  0  0  0  0  0  0  0  0  0  0  0
    0.0435   -6.7778   -1.1508 H   0  0  0  0  0  0  0  0  0  0  0  0
   -1.0724   -8.7243    1.7200 H   0  0  0  0  0  0  0  0  0  0  0  0
    1.4542  -14.9257    0.5410 H   0  0  0  0  0  0  0  0  0  0  0  0
    2.5269  -14.9219   -0.7520 H   0  0  0  0  0  0  0  0  0  0  0  0
    3.5033  -11.0297   -3.0999 H   0  0  0  0  0  0  0  0  0  0  0  0
    2.7799   -9.5767   -2.6662 H   0  0  0  0  0  0  0  0  0  0  0  0
   -0.4490    1.9288   -3.6787 O   0  5  0  0  0  0  0  0  0  0  0  0
   -0.8617    3.2635    1.4708 O   0  5  0  0  0  0  0  0  0  0  0  0
    0.8490  -12.5203    0.5460 N   0  3  0  0  0  0  0  0  0  0  0  0
    0.3701  -13.0146    1.2716 H   0  0  0  0  0  0  0  0  0  0  0  0
  1  6  2  0  0  0  0
  1  2  1  0  0  0  0
  1 30  1  0  0  0  0
  2  3  2  0  0  0  0
  2 31  1  0  0  0  0
  3  4  1  0  0  0  0
  3 17  1  0  0  0  0
  4  5  2  0  0  0  0
  4 32  1  0  0  0  0
  5  6  1  0  0  0  0
  5 33  1  0  0  0  0
  6  7  1  0  0  0  0
  7  8  2  0  0  0  0
  7  9  1  0  0  0  0
  9 10  1  0  0  0  0
  9 34  1  0  0  0  0
 10 11  1  0  0  0  0
 10 12  1  0  0  0  0
 10 15  1  0  0  0  0
 12 13  1  0  0  0  0
 12 35  1  0  0  0  0
 12 36  1  0  0  0  0
 13 14  2  0  0  0  0
 13 45  1  0  0  0  0
 15 16  2  0  0  0  0
 15 46  1  0  0  0  0
 17 18  1  0  0  0  0
 17 37  1  0  0  0  0
 18 19  1  0  0  0  0
 18 38  1  0  0  0  0
 18 39  1  0  0  0  0
 19 24  2  0  0  0  0
 19 20  1  0  0  0  0
 20 21  2  0  0  0  0
 20 40  1  0  0  0  0
 21 22  1  0  0  0  0
 22 23  2  0  0  0  0
 22 47  1  0  0  0  0
 23 24  1  0  0  0  0
 23 25  1  0  0  0  0
 25 26  2  0  0  0  0
 25 29  1  0  0  0  0
 26 27  1  0  0  0  0
 27 28  1  0  0  0  0
 27 47  2  0  0  0  0
 28 41  1  0  0  0  0
 28 42  1  0  0  0  0
 29 43  1  0  0  0  0
 29 44  1  0  0  0  0
 47 48  1  0  0  0  0
M  CHG  3  45  -1  46  -1  47   1
M  END
$$$$
ZINC03814839
  -OEChem-08230709403D

 35 37  0     0  0  0  0  0  0999 V2000
   -0.0167    1.3786    0.0096 C   0  0  0  0  0  0  0  0  0  0  0  0
    1.1695    2.0894    0.0021 C   0  0  0  0  0  0  0  0  0  0  0  0
    2.3774    1.4200   -0.0131 C   0  0  0  0  0  0  0  0  0  0  0  0
    2.3998    0.0311   -0.0208 C   0  0  0  0  0  0  0  0  0  0  0  0
    1.2064   -0.6798   -0.0132 C   0  0  0  0  0  0  0  0  0  0  0  0
    0.0021   -0.0041    0.0020 C   0  0  0  0  0  0  0  0  0  0  0  0
    3.6196   -0.6491   -0.0366 N   0  0  0  0  0  0  0  0  0  0  0  0
    4.8773    0.1022   -0.0446 C   0  0  0  0  0  0  0  0  0  0  0  0
    6.0371   -0.8599   -0.0614 C   0  0  0  0  0  0  0  0  0  0  0  0
    6.5810   -1.3006    1.1416 C   0  0  0  0  0  0  0  0  0  0  0  0
    7.6271   -2.1746    1.1611 C   0  0  0  0  0  0  0  0  0  0  0  0
    8.1717   -2.6293   -0.0477 C   0  0  0  0  0  0  0  0  0  0  0  0
    7.6203   -2.1754   -1.2705 C   0  0  0  0  0  0  0  0  0  0  0  0
    6.5433   -1.2826   -1.2556 C   0  0  0  0  0  0  0  0  0  0  0  0
    8.1871   -2.6490   -2.4801 C   0  0  0  0  0  0  0  0  0  0  0  0
    9.2054   -3.4935   -2.4085 N   0  0  0  0  0  0  0  0  0  0  0  0
    9.6929   -3.8945   -1.2378 C   0  0  0  0  0  0  0  0  0  0  0  0
    9.2033   -3.4857   -0.0828 N   0  0  0  0  0  0  0  0  0  0  0  0
   10.7574   -4.7776   -1.2308 N   0  0  0  0  0  0  0  0  0  0  0  0
    7.6912   -2.2417   -3.7000 N   0  0  0  0  0  0  0  0  0  0  0  0
   -0.9599    1.9046    0.0170 H   0  0  0  0  0  0  0  0  0  0  0  0
    1.1513    3.1692    0.0078 H   0  0  0  0  0  0  0  0  0  0  0  0
    3.3034    1.9757   -0.0190 H   0  0  0  0  0  0  0  0  0  0  0  0
    1.2204   -1.7597   -0.0194 H   0  0  0  0  0  0  0  0  0  0  0  0
   -0.9261   -0.5561    0.0076 H   0  0  0  0  0  0  0  0  0  0  0  0
    3.6341   -1.6190   -0.0423 H   0  0  0  0  0  0  0  0  0  0  0  0
    4.9170    0.7347   -0.9314 H   0  0  0  0  0  0  0  0  0  0  0  0
    4.9344    0.7246    0.8484 H   0  0  0  0  0  0  0  0  0  0  0  0
    6.1651   -0.9481    2.0739 H   0  0  0  0  0  0  0  0  0  0  0  0
    8.0366   -2.5110    2.1021 H   0  0  0  0  0  0  0  0  0  0  0  0
    6.1159   -0.9304   -2.1828 H   0  0  0  0  0  0  0  0  0  0  0  0
   11.1327   -5.0914   -2.0683 H   0  0  0  0  0  0  0  0  0  0  0  0
   11.1285   -5.0831   -0.3883 H   0  0  0  0  0  0  0  0  0  0  0  0
    6.9450   -1.6232   -3.7381 H   0  0  0  0  0  0  0  0  0  0  0  0
    8.0885   -2.5736   -4.5203 H   0  0  0  0  0  0  0  0  0  0  0  0
  1  6  2  0  0  0  0
  1  2  1  0  0  0  0
  1 21  1  0  0  0  0
  2  3  2  0  0  0  0
  2 22  1  0  0  0  0
  3  4  1  0  0  0  0
  3 23  1  0  0  0  0
  4  5  2  0  0  0  0
  4  7  1  0  0  0  0
  5  6  1  0  0  0  0
  5 24  1  0  0  0  0
  6 25  1  0  0  0  0
  7  8  1  0  0  0  0
  7 26  1  0  0  0  0
  8  9  1  0  0  0  0
  8 27  1  0  0  0  0
  8 28  1  0  0  0  0
  9 14  2  0  0  0  0
  9 10  1  0  0  0  0
 10 11  2  0  0  0  0
 10 29  1  0  0  0  0
 11 12  1  0  0  0  0
 11 30  1  0  0  0  0
 12 18  2  0  0  0  0
 12 13  1  0  0  0  0
 13 14  1  0  0  0  0
 13 15  2  0  0  0  0
 14 31  1  0  0  0  0
 15 16  1  0  0  0  0
 15 20  1  0  0  0  0
 16 17  2  0  0  0  0
 17 18  1  0  0  0  0
 17 19  1  0  0  0  0
 19 32  1  0  0  0  0
 19 33  1  0  0  0  0
 20 34  1  0  0  0  0
 20 35  1  0  0  0  0
M  END
$$$$
ZINC03814839
  -OEChem-08230709403D

 36 38  0     0  0  0  0  0  0999 V2000
   -0.0167    1.3786    0.0096 C   0  0  0  0  0  0  0  0  0  0  0  0
    1.1695    2.0894    0.0021 C   0  0  0  0  0  0  0  0  0  0  0  0
    2.3774    1.4200   -0.0131 C   0  0  0  0  0  0  0  0  0  0  0  0
    2.3998    0.0311   -0.0208 C   0  0  0  0  0  0  0  0  0  0  0  0
    1.2064   -0.6798   -0.0132 C   0  0  0  0  0  0  0  0  0  0  0  0
    0.0021   -0.0041    0.0020 C   0  0  0  0  0  0  0  0  0  0  0  0
    3.6196   -0.6491   -0.0366 N   0  0  0  0  0  0  0  0  0  0  0  0
    4.8773    0.1022   -0.0446 C   0  0  0  0  0  0  0  0  0  0  0  0
    6.0371   -0.8599   -0.0614 C   0  0  0  0  0  0  0  0  0  0  0  0
    6.5810   -1.3006    1.1416 C   0  0  0  0  0  0  0  0  0  0  0  0
    7.6271   -2.1746    1.1611 C   0  0  0  0  0  0  0  0  0  0  0  0
    8.1717   -2.6293   -0.0477 C   0  0  0  0  0  0  0  0  0  0  0  0
    7.6203   -2.1754   -1.2705 C   0  0  0  0  0  0  0  0  0  0  0  0
    6.5433   -1.2826   -1.2556 C   0  0  0  0  0  0  0  0  0  0  0  0
    8.1871   -2.6490   -2.4801 C   0  0  0  0  0  0  0  0  0  0  0  0
    9.2054   -3.4935   -2.4085 N   0  0  0  0  0  0  0  0  0  0  0  0
    9.6929   -3.8945   -1.2378 C   0  0  0  0  0  0  0  0  0  0  0  0
   10.7574   -4.7776   -1.2308 N   0  0  0  0  0  0  0  0  0  0  0  0
    7.6912   -2.2417   -3.7000 N   0  0  0  0  0  0  0  0  0  0  0  0
   -0.9599    1.9046    0.0170 H   0  0  0  0  0  0  0  0  0  0  0  0
    1.1513    3.1692    0.0078 H   0  0  0  0  0  0  0  0  0  0  0  0
    3.3034    1.9757   -0.0190 H   0  0  0  0  0  0  0  0  0  0  0  0
    1.2204   -1.7597   -0.0194 H   0  0  0  0  0  0  0  0  0  0  0  0
   -0.9261   -0.5561    0.0076 H   0  0  0  0  0  0  0  0  0  0  0  0
    3.6341   -1.6190   -0.0423 H   0  0  0  0  0  0  0  0  0  0  0  0
    4.9170    0.7347   -0.9314 H   0  0  0  0  0  0  0  0  0  0  0  0
    4.9344    0.7246    0.8484 H   0  0  0  0  0  0  0  0  0  0  0  0
    6.1651   -0.9481    2.0739 H   0  0  0  0  0  0  0  0  0  0  0  0
    8.0366   -2.5110    2.1021 H   0  0  0  0  0  0  0  0  0  0  0  0
    6.1159   -0.9304   -2.1828 H   0  0  0  0  0  0  0  0  0  0  0  0
   11.1327   -5.0914   -2.0683 H   0  0  0  0  0  0  0  0  0  0  0  0
   11.1285   -5.0831   -0.3883 H   0  0  0  0  0  0  0  0  0  0  0  0
    6.9450   -1.6232   -3.7381 H   0  0  0  0  0  0  0  0  0  0  0  0
    8.0885   -2.5736   -4.5203 H   0  0  0  0  0  0  0  0  0  0  0  0
    9.2321   -3.5095   -0.0220 N   0  3  0  0  0  0  0  0  0  0  0  0
    9.6052   -3.8174    0.8532 H   0  0  0  0  0  0  0  0  0  0  0  0
  1  6  2  0  0  0  0
  1  2  1  0  0  0  0
  1 20  1  0  0  0  0
  2  3  2  0  0  0  0
  2 21  1  0  0  0  0
  3  4  1  0  0  0  0
  3 22  1  0  0  0  0
  4  5  2  0  0  0  0
  4  7  1  0  0  0  0
  5  6  1  0  0  0  0
  5 23  1  0  0  0  0
  6 24  1  0  0  0  0
  7  8  1  0  0  0  0
  7 25  1  0  0  0  0
  8  9  1  0  0  0  0
  8 26  1  0  0  0  0
  8 27  1  0  0  0  0
  9 14  2  0  0  0  0
  9 10  1  0  0  0  0
 10 11  2  0  0  0  0
 10 28  1  0  0  0  0
 11 12  1  0  0  0  0
 11 29  1  0  0  0  0
 12 13  2  0  0  0  0
 12 35  1  0  0  0  0
 13 14  1  0  0  0  0
 13 15  1  0  0  0  0
 14 30  1  0  0  0  0
 15 16  2  0  0  0  0
 15 19  1  0  0  0  0
 16 17  1  0  0  0  0
 17 18  1  0  0  0  0
 17 35  2  0  0  0  0
 18 31  1  0  0  0  0
 18 32  1  0  0  0  0
 19 33  1  0  0  0  0
 19 34  1  0  0  0  0
 35 36  1  0  0  0  0
M  CHG  1  35   1
M  END
$$$$
ZINC03814840
  -OEChem-08230709403D

 38 40  0     1  0  0  0  0  0999 V2000
   -1.2963    2.1760    0.0200 C   0  0  0  0  0  0  0  0  0  0  0  0
   -0.0178    1.4608    0.0101 N   0  0  3  0  0  0  0  0  0  0  0  0
    0.0021   -0.0041    0.0020 C   0  0  0  0  0  0  0  0  0  0  0  0
    0.0225   -0.5140    1.4200 C   0  0  0  0  0  0  0  0  0  0  0  0
    1.2424   -0.7352    2.0525 C   0  0  0  0  0  0  0  0  0  0  0  0
    1.2955   -1.1913    3.3362 C   0  0  0  0  0  0  0  0  0  0  0  0
    0.1046   -1.4522    4.0277 C   0  0  0  0  0  0  0  0  0  0  0  0
   -1.1354   -1.2316    3.3804 C   0  0  0  0  0  0  0  0  0  0  0  0
   -1.1550   -0.7578    2.0643 C   0  0  0  0  0  0  0  0  0  0  0  0
   -2.3263   -1.5020    4.0996 C   0  0  0  0  0  0  0  0  0  0  0  0
   -2.2221   -1.9482    5.3428 N   0  0  0  0  0  0  0  0  0  0  0  0
   -1.0362   -2.1416    5.9131 C   0  0  0  0  0  0  0  0  0  0  0  0
    0.1027   -1.9058    5.2899 N   0  0  0  0  0  0  0  0  0  0  0  0
   -0.9950   -2.6092    7.2141 N   0  0  0  0  0  0  0  0  0  0  0  0
   -3.5616   -1.3054    3.5206 N   0  0  0  0  0  0  0  0  0  0  0  0
    1.1822    2.1755    0.0025 C   0  0  0  0  0  0  0  0  0  0  0  0
    2.3954    1.4990   -0.0070 C   0  0  0  0  0  0  0  0  0  0  0  0
    3.5800    2.2088   -0.0193 C   0  0  0  0  0  0  0  0  0  0  0  0
    3.5594    3.5915   -0.0117 C   0  0  0  0  0  0  0  0  0  0  0  0
    2.3535    4.2681    0.0030 C   0  0  0  0  0  0  0  0  0  0  0  0
    1.1652    3.5645    0.0101 C   0  0  0  0  0  0  0  0  0  0  0  0
   -1.6085    2.3477    1.0501 H   0  0  0  0  0  0  0  0  0  0  0  0
   -1.1814    3.1328   -0.4892 H   0  0  0  0  0  0  0  0  0  0  0  0
   -2.0503    1.5794   -0.4935 H   0  0  0  0  0  0  0  0  0  0  0  0
   -0.8878   -0.3767   -0.5053 H   0  0  0  0  0  0  0  0  0  0  0  0
    0.8920   -0.3525   -0.5222 H   0  0  0  0  0  0  0  0  0  0  0  0
    2.1610   -0.5385    1.5196 H   0  0  0  0  0  0  0  0  0  0  0  0
    2.2493   -1.3549    3.8157 H   0  0  0  0  0  0  0  0  0  0  0  0
   -2.0955   -0.5866    1.5618 H   0  0  0  0  0  0  0  0  0  0  0  0
   -1.8202   -2.7889    7.6912 H   0  0  0  0  0  0  0  0  0  0  0  0
   -0.1410   -2.7573    7.6494 H   0  0  0  0  0  0  0  0  0  0  0  0
   -3.6237   -0.9780    2.6096 H   0  0  0  0  0  0  0  0  0  0  0  0
   -4.3689   -1.4945    4.0241 H   0  0  0  0  0  0  0  0  0  0  0  0
    2.4122    0.4191   -0.0084 H   0  0  0  0  0  0  0  0  0  0  0  0
    4.5235    1.6835   -0.0308 H   0  0  0  0  0  0  0  0  0  0  0  0
    4.4873    4.1442   -0.0176 H   0  0  0  0  0  0  0  0  0  0  0  0
    2.3410    5.3481    0.0086 H   0  0  0  0  0  0  0  0  0  0  0  0
    0.2237    4.0936    0.0219 H   0  0  0  0  0  0  0  0  0  0  0  0
  1  2  1  0  0  0  0
  1 22  1  0  0  0  0
  1 23  1  0  0  0  0
  1 24  1  0  0  0  0
  2  3  1  0  0  0  0
  2 16  1  0  0  0  0
  3  4  1  0  0  0  0
  3 25  1  0  0  0  0
  3 26  1  0  0  0  0
  4  9  2  0  0  0  0
  4  5  1  0  0  0  0
  5  6  2  0  0  0  0
  5 27  1  0  0  0  0
  6  7  1  0  0  0  0
  6 28  1  0  0  0  0
  7 13  2  0  0  0  0
  7  8  1  0  0  0  0
  8  9  1  0  0  0  0
  8 10  2  0  0  0  0
  9 29  1  0  0  0  0
 10 11  1  0  0  0  0
 10 15  1  0  0  0  0
 11 12  2  0  0  0  0
 12 13  1  0  0  0  0
 12 14  1  0  0  0  0
 14 30  1  0  0  0  0
 14 31  1  0  0  0  0
 15 32  1  0  0  0  0
 15 33  1  0  0  0  0
 16 21  2  0  0  0  0
 16 17  1  0  0  0  0
 17 18  2  0  0  0  0
 17 34  1  0  0  0  0
 18 19  1  0  0  0  0
 18 35  1  0  0  0  0
 19 20  2  0  0  0  0
 19 36  1  0  0  0  0
 20 21  1  0  0  0  0
 20 37  1  0  0  0  0
 21 38  1  0  0  0  0
M  END
$$$$
ZINC03814840
  -OEChem-08230709403D

 39 41  0     1  0  0  0  0  0999 V2000
   -1.2963    2.1760    0.0200 C   0  0  0  0  0  0  0  0  0  0  0  0
   -0.0178    1.4608    0.0101 N   0  0  3  0  0  0  0  0  0  0  0  0
    0.0021   -0.0041    0.0020 C   0  0  0  0  0  0  0  0  0  0  0  0
    0.0225   -0.5140    1.4200 C   0  0  0  0  0  0  0  0  0  0  0  0
    1.2424   -0.7352    2.0525 C   0  0  0  0  0  0  0  0  0  0  0  0
    1.2955   -1.1913    3.3362 C   0  0  0  0  0  0  0  0  0  0  0  0
    0.1046   -1.4522    4.0277 C   0  0  0  0  0  0  0  0  0  0  0  0
   -1.1354   -1.2316    3.3804 C   0  0  0  0  0  0  0  0  0  0  0  0
   -1.1550   -0.7578    2.0643 C   0  0  0  0  0  0  0  0  0  0  0  0
   -2.3263   -1.5020    4.0996 C   0  0  0  0  0  0  0  0  0  0  0  0
   -2.2221   -1.9482    5.3428 N   0  0  0  0  0  0  0  0  0  0  0  0
   -1.0362   -2.1416    5.9131 C   0  0  0  0  0  0  0  0  0  0  0  0
   -0.9950   -2.6092    7.2141 N   0  0  0  0  0  0  0  0  0  0  0  0
   -3.5616   -1.3054    3.5206 N   0  0  0  0  0  0  0  0  0  0  0  0
    1.1822    2.1755    0.0025 C   0  0  0  0  0  0  0  0  0  0  0  0
    2.3954    1.4990   -0.0070 C   0  0  0  0  0  0  0  0  0  0  0  0
    3.5800    2.2088   -0.0193 C   0  0  0  0  0  0  0  0  0  0  0  0
    3.5594    3.5915   -0.0117 C   0  0  0  0  0  0  0  0  0  0  0  0
    2.3535    4.2681    0.0030 C   0  0  0  0  0  0  0  0  0  0  0  0
    1.1652    3.5645    0.0101 C   0  0  0  0  0  0  0  0  0  0  0  0
   -1.6085    2.3477    1.0501 H   0  0  0  0  0  0  0  0  0  0  0  0
   -1.1814    3.1328   -0.4892 H   0  0  0  0  0  0  0  0  0  0  0  0
   -2.0503    1.5794   -0.4935 H   0  0  0  0  0  0  0  0  0  0  0  0
   -0.8878   -0.3767   -0.5053 H   0  0  0  0  0  0  0  0  0  0  0  0
    0.8920   -0.3525   -0.5222 H   0  0  0  0  0  0  0  0  0  0  0  0
    2.1610   -0.5385    1.5196 H   0  0  0  0  0  0  0  0  0  0  0  0
    2.2493   -1.3549    3.8157 H   0  0  0  0  0  0  0  0  0  0  0  0
   -2.0955   -0.5866    1.5618 H   0  0  0  0  0  0  0  0  0  0  0  0
   -1.8202   -2.7889    7.6912 H   0  0  0  0  0  0  0  0  0  0  0  0
   -0.1410   -2.7573    7.6494 H   0  0  0  0  0  0  0  0  0  0  0  0
   -3.6237   -0.9780    2.6096 H   0  0  0  0  0  0  0  0  0  0  0  0
   -4.3689   -1.4945    4.0241 H   0  0  0  0  0  0  0  0  0  0  0  0
    2.4122    0.4191   -0.0084 H   0  0  0  0  0  0  0  0  0  0  0  0
    4.5235    1.6835   -0.0308 H   0  0  0  0  0  0  0  0  0  0  0  0
    4.4873    4.1442   -0.0176 H   0  0  0  0  0  0  0  0  0  0  0  0
    2.3410    5.3481    0.0086 H   0  0  0  0  0  0  0  0  0  0  0  0
    0.2237    4.0936    0.0219 H   0  0  0  0  0  0  0  0  0  0  0  0
    0.1644   -1.9173    5.3238 N   0  3  0  0  0  0  0  0  0  0  0  0
    1.0513   -2.0654    5.7614 H   0  0  0  0  0  0  0  0  0  0  0  0
  1  2  1  0  0  0  0
  1 21  1  0  0  0  0
  1 22  1  0  0  0  0
  1 23  1  0  0  0  0
  2  3  1  0  0  0  0
  2 15  1  0  0  0  0
  3  4  1  0  0  0  0
  3 24  1  0  0  0  0
  3 25  1  0  0  0  0
  4  9  2  0  0  0  0
  4  5  1  0  0  0  0
  5  6  2  0  0  0  0
  5 26  1  0  0  0  0
  6  7  1  0  0  0  0
  6 27  1  0  0  0  0
  7  8  2  0  0  0  0
  7 38  1  0  0  0  0
  8  9  1  0  0  0  0
  8 10  1  0  0  0  0
  9 28  1  0  0  0  0
 10 11  2  0  0  0  0
 10 14  1  0  0  0  0
 11 12  1  0  0  0  0
 12 13  1  0  0  0  0
 12 38  2  0  0  0  0
 13 29  1  0  0  0  0
 13 30  1  0  0  0  0
 14 31  1  0  0  0  0
 14 32  1  0  0  0  0
 15 20  2  0  0  0  0
 15 16  1  0  0  0  0
 16 17  2  0  0  0  0
 16 33  1  0  0  0  0
 17 18  1  0  0  0  0
 17 34  1  0  0  0  0
 18 19  2  0  0  0  0
 18 35  1  0  0  0  0
 19 20  1  0  0  0  0
 19 36  1  0  0  0  0
 20 37  1  0  0  0  0
 38 39  1  0  0  0  0
M  CHG  1  38   1
M  END
$$$$
ZINC03814841
  -OEChem-08230709403D

 36 38  0     0  0  0  0  0  0999 V2000
    5.7238    3.7740   -0.0323 C   0  0  0  0  0  0  0  0  0  0  0  0
    5.1929    3.3391    1.1676 C   0  0  0  0  0  0  0  0  0  0  0  0
    4.1079    2.4825    1.1734 C   0  0  0  0  0  0  0  0  0  0  0  0
    3.5541    2.0605   -0.0208 C   0  0  0  0  0  0  0  0  0  0  0  0
    4.0886    2.4909   -1.2208 C   0  0  0  0  0  0  0  0  0  0  0  0
    5.1700    3.3520   -1.2265 C   0  0  0  0  0  0  0  0  0  0  0  0
    2.3716    1.1263   -0.0145 C   0  0  0  0  0  0  0  0  0  0  0  0
    1.1433    1.9005    0.0013 O   0  0  0  0  0  0  0  0  0  0  0  0
   -0.0144    1.2109    0.0087 C   0  0  0  0  0  0  0  0  0  0  0  0
    0.0021   -0.0041    0.0020 O   0  0  0  0  0  0  0  0  0  0  0  0
   -1.3012    1.9307    0.0187 C   0  0  0  0  0  0  0  0  0  0  0  0
   -1.3156    3.3368    0.0323 C   0  0  0  0  0  0  0  0  0  0  0  0
   -2.4885    4.0227    0.0375 C   0  0  0  0  0  0  0  0  0  0  0  0
   -3.7074    3.3259    0.0386 C   0  0  0  0  0  0  0  0  0  0  0  0
   -3.7027    1.9073    0.0304 C   0  0  0  0  0  0  0  0  0  0  0  0
   -2.4935    1.2151    0.0205 C   0  0  0  0  0  0  0  0  0  0  0  0
   -4.9927    1.2182    0.0324 C   0  0  0  0  0  0  0  0  0  0  0  0
   -6.0896    1.9648    0.0416 N   0  0  0  0  0  0  0  0  0  0  0  0
   -6.0206    3.2920    0.0489 C   0  0  0  0  0  0  0  0  0  0  0  0
   -4.8849    3.9624    0.0472 N   0  0  0  0  0  0  0  0  0  0  0  0
   -7.2022    4.0078    0.0584 N   0  0  0  0  0  0  0  0  0  0  0  0
   -5.0664   -0.1567    0.0244 N   0  0  0  0  0  0  0  0  0  0  0  0
    6.5710    4.4438   -0.0368 H   0  0  0  0  0  0  0  0  0  0  0  0
    5.6255    3.6688    2.1006 H   0  0  0  0  0  0  0  0  0  0  0  0
    3.6931    2.1427    2.1109 H   0  0  0  0  0  0  0  0  0  0  0  0
    3.6587    2.1577   -2.1539 H   0  0  0  0  0  0  0  0  0  0  0  0
    5.5845    3.6921   -2.1640 H   0  0  0  0  0  0  0  0  0  0  0  0
    2.4135    0.4931    0.8717 H   0  0  0  0  0  0  0  0  0  0  0  0
    2.3965    0.5027   -0.9082 H   0  0  0  0  0  0  0  0  0  0  0  0
   -0.3815    3.8789    0.0353 H   0  0  0  0  0  0  0  0  0  0  0  0
   -2.4831    5.1026    0.0441 H   0  0  0  0  0  0  0  0  0  0  0  0
   -2.4824    0.1352    0.0146 H   0  0  0  0  0  0  0  0  0  0  0  0
   -8.0522    3.5406    0.0596 H   0  0  0  0  0  0  0  0  0  0  0  0
   -7.1817    4.9776    0.0639 H   0  0  0  0  0  0  0  0  0  0  0  0
   -4.2535   -0.6859    0.0173 H   0  0  0  0  0  0  0  0  0  0  0  0
   -5.9312   -0.5961    0.0258 H   0  0  0  0  0  0  0  0  0  0  0  0
  1  6  2  0  0  0  0
  1  2  1  0  0  0  0
  1 23  1  0  0  0  0
  2  3  2  0  0  0  0
  2 24  1  0  0  0  0
  3  4  1  0  0  0  0
  3 25  1  0  0  0  0
  4  5  2  0  0  0  0
  4  7  1  0  0  0  0
  5  6  1  0  0  0  0
  5 26  1  0  0  0  0
  6 27  1  0  0  0  0
  7  8  1  0  0  0  0
  7 28  1  0  0  0  0
  7 29  1  0  0  0  0
  8  9  1  0  0  0  0
  9 10  2  0  0  0  0
  9 11  1  0  0  0  0
 11 16  2  0  0  0  0
 11 12  1  0  0  0  0
 12 13  2  0  0  0  0
 12 30  1  0  0  0  0
 13 14  1  0  0  0  0
 13 31  1  0  0  0  0
 14 20  2  0  0  0  0
 14 15  1  0  0  0  0
 15 16  1  0  0  0  0
 15 17  2  0  0  0  0
 16 32  1  0  0  0  0
 17 18  1  0  0  0  0
 17 22  1  0  0  0  0
 18 19  2  0  0  0  0
 19 20  1  0  0  0  0
 19 21  1  0  0  0  0
 21 33  1  0  0  0  0
 21 34  1  0  0  0  0
 22 35  1  0  0  0  0
 22 36  1  0  0  0  0
M  END
$$$$
ZINC03814841
  -OEChem-08230709403D

 37 39  0     0  0  0  0  0  0999 V2000
    5.7238    3.7740   -0.0323 C   0  0  0  0  0  0  0  0  0  0  0  0
    5.1929    3.3391    1.1676 C   0  0  0  0  0  0  0  0  0  0  0  0
    4.1079    2.4825    1.1734 C   0  0  0  0  0  0  0  0  0  0  0  0
    3.5541    2.0605   -0.0208 C   0  0  0  0  0  0  0  0  0  0  0  0
    4.0886    2.4909   -1.2208 C   0  0  0  0  0  0  0  0  0  0  0  0
    5.1700    3.3520   -1.2265 C   0  0  0  0  0  0  0  0  0  0  0  0
    2.3716    1.1263   -0.0145 C   0  0  0  0  0  0  0  0  0  0  0  0
    1.1433    1.9005    0.0013 O   0  0  0  0  0  0  0  0  0  0  0  0
   -0.0144    1.2109    0.0087 C   0  0  0  0  0  0  0  0  0  0  0  0
    0.0021   -0.0041    0.0020 O   0  0  0  0  0  0  0  0  0  0  0  0
   -1.3012    1.9307    0.0187 C   0  0  0  0  0  0  0  0  0  0  0  0
   -1.3156    3.3368    0.0323 C   0  0  0  0  0  0  0  0  0  0  0  0
   -2.4885    4.0227    0.0375 C   0  0  0  0  0  0  0  0  0  0  0  0
   -3.7074    3.3259    0.0386 C   0  0  0  0  0  0  0  0  0  0  0  0
   -3.7027    1.9073    0.0304 C   0  0  0  0  0  0  0  0  0  0  0  0
   -2.4935    1.2151    0.0205 C   0  0  0  0  0  0  0  0  0  0  0  0
   -4.9927    1.2182    0.0324 C   0  0  0  0  0  0  0  0  0  0  0  0
   -6.0896    1.9648    0.0416 N   0  0  0  0  0  0  0  0  0  0  0  0
   -6.0206    3.2920    0.0489 C   0  0  0  0  0  0  0  0  0  0  0  0
   -7.2022    4.0078    0.0584 N   0  0  0  0  0  0  0  0  0  0  0  0
   -5.0664   -0.1567    0.0244 N   0  0  0  0  0  0  0  0  0  0  0  0
    6.5710    4.4438   -0.0368 H   0  0  0  0  0  0  0  0  0  0  0  0
    5.6255    3.6688    2.1006 H   0  0  0  0  0  0  0  0  0  0  0  0
    3.6931    2.1427    2.1109 H   0  0  0  0  0  0  0  0  0  0  0  0
    3.6587    2.1577   -2.1539 H   0  0  0  0  0  0  0  0  0  0  0  0
    5.5845    3.6921   -2.1640 H   0  0  0  0  0  0  0  0  0  0  0  0
    2.4135    0.4931    0.8717 H   0  0  0  0  0  0  0  0  0  0  0  0
    2.3965    0.5027   -0.9082 H   0  0  0  0  0  0  0  0  0  0  0  0
   -0.3815    3.8789    0.0353 H   0  0  0  0  0  0  0  0  0  0  0  0
   -2.4831    5.1026    0.0441 H   0  0  0  0  0  0  0  0  0  0  0  0
   -2.4824    0.1352    0.0146 H   0  0  0  0  0  0  0  0  0  0  0  0
   -8.0522    3.5406    0.0596 H   0  0  0  0  0  0  0  0  0  0  0  0
   -7.1817    4.9776    0.0639 H   0  0  0  0  0  0  0  0  0  0  0  0
   -4.2535   -0.6859    0.0173 H   0  0  0  0  0  0  0  0  0  0  0  0
   -5.9312   -0.5961    0.0258 H   0  0  0  0  0  0  0  0  0  0  0  0
   -4.8866    4.0380    0.0476 N   0  3  0  0  0  0  0  0  0  0  0  0
   -4.8669    5.0378    0.0526 H   0  0  0  0  0  0  0  0  0  0  0  0
  1  6  2  0  0  0  0
  1  2  1  0  0  0  0
  1 22  1  0  0  0  0
  2  3  2  0  0  0  0
  2 23  1  0  0  0  0
  3  4  1  0  0  0  0
  3 24  1  0  0  0  0
  4  5  2  0  0  0  0
  4  7  1  0  0  0  0
  5  6  1  0  0  0  0
  5 25  1  0  0  0  0
  6 26  1  0  0  0  0
  7  8  1  0  0  0  0
  7 27  1  0  0  0  0
  7 28  1  0  0  0  0
  8  9  1  0  0  0  0
  9 10  2  0  0  0  0
  9 11  1  0  0  0  0
 11 16  2  0  0  0  0
 11 12  1  0  0  0  0
 12 13  2  0  0  0  0
 12 29  1  0  0  0  0
 13 14  1  0  0  0  0
 13 30  1  0  0  0  0
 14 15  2  0  0  0  0
 14 36  1  0  0  0  0
 15 16  1  0  0  0  0
 15 17  1  0  0  0  0
 16 31  1  0  0  0  0
 17 18  2  0  0  0  0
 17 21  1  0  0  0  0
 18 19  1  0  0  0  0
 19 20  1  0  0  0  0
 19 36  2  0  0  0  0
 20 32  1  0  0  0  0
 20 33  1  0  0  0  0
 21 34  1  0  0  0  0
 21 35  1  0  0  0  0
 36 37  1  0  0  0  0
M  CHG  1  36   1
M  END
$$$$
ZINC03814842
  -OEChem-08230709403D

 38 40  0     0  0  0  0  0  0999 V2000
   -2.5562    1.5032    1.0734 C   0  0  0  0  0  0  0  0  0  0  0  0
   -1.2225    2.2025    1.0163 C   0  0  0  0  0  0  0  0  0  0  0  0
   -1.1246    3.5532    1.2264 C   0  0  0  0  0  0  0  0  0  0  0  0
    0.1175    4.1734    1.1737 C   0  0  0  0  0  0  0  0  0  0  0  0
    1.2174    3.4996    0.9207 N   0  0  0  0  0  0  0  0  0  0  0  0
    1.1876    2.1847    0.7027 C   0  0  0  0  0  0  0  0  0  0  0  0
   -0.0480    1.4926    0.7424 C   0  0  0  0  0  0  0  0  0  0  0  0
   -0.0494    0.0953    0.5073 C   0  0  0  0  0  0  0  0  0  0  0  0
    1.1084   -0.5007    0.2606 N   0  0  0  0  0  0  0  0  0  0  0  0
    2.2468    0.1862    0.2323 C   0  0  0  0  0  0  0  0  0  0  0  0
    2.3033    1.4877    0.4439 N   0  0  0  0  0  0  0  0  0  0  0  0
    3.4216   -0.4921   -0.0304 N   0  0  0  0  0  0  0  0  0  0  0  0
   -1.2235   -0.6248    0.5340 N   0  0  0  0  0  0  0  0  0  0  0  0
   -2.3610    4.3632    1.5202 C   0  0  0  0  0  0  0  0  0  0  0  0
   -1.9941    5.7553    1.7090 O   0  0  0  0  0  0  0  0  0  0  0  0
   -2.9913    6.6190    1.9815 C   0  0  0  0  0  0  0  0  0  0  0  0
   -4.1360    6.2201    2.0593 O   0  0  0  0  0  0  0  0  0  0  0  0
   -2.6927    8.0513    2.1858 C   0  0  0  0  0  0  0  0  0  0  0  0
   -1.3773    8.5122    2.1028 C   0  0  0  0  0  0  0  0  0  0  0  0
   -1.1062    9.8518    2.2895 C   0  0  0  0  0  0  0  0  0  0  0  0
   -2.1329   10.7363    2.5692 C   0  0  0  0  0  0  0  0  0  0  0  0
   -3.4380   10.2853    2.6585 C   0  0  0  0  0  0  0  0  0  0  0  0
   -3.7239    8.9493    2.4684 C   0  0  0  0  0  0  0  0  0  0  0  0
   -2.6884    1.0527    2.0572 H   0  0  0  0  0  0  0  0  0  0  0  0
   -3.3529    2.2251    0.8943 H   0  0  0  0  0  0  0  0  0  0  0  0
   -2.5918    0.7259    0.3101 H   0  0  0  0  0  0  0  0  0  0  0  0
    0.1810    5.2379    1.3448 H   0  0  0  0  0  0  0  0  0  0  0  0
    3.4041   -1.4488   -0.1893 H   0  0  0  0  0  0  0  0  0  0  0  0
    4.2638   -0.0115   -0.0559 H   0  0  0  0  0  0  0  0  0  0  0  0
   -1.3853   -1.3134   -0.1296 H   0  0  0  0  0  0  0  0  0  0  0  0
   -1.8884   -0.4431    1.2165 H   0  0  0  0  0  0  0  0  0  0  0  0
   -3.0563    4.2808    0.6848 H   0  0  0  0  0  0  0  0  0  0  0  0
   -2.8354    3.9863    2.4263 H   0  0  0  0  0  0  0  0  0  0  0  0
   -0.5745    7.8222    1.8890 H   0  0  0  0  0  0  0  0  0  0  0  0
   -0.0898   10.2105    2.2212 H   0  0  0  0  0  0  0  0  0  0  0  0
   -1.9147   11.7834    2.7182 H   0  0  0  0  0  0  0  0  0  0  0  0
   -4.2346   10.9810    2.8772 H   0  0  0  0  0  0  0  0  0  0  0  0
   -4.7430    8.5986    2.5384 H   0  0  0  0  0  0  0  0  0  0  0  0
  1  2  1  0  0  0  0
  1 24  1  0  0  0  0
  1 25  1  0  0  0  0
  1 26  1  0  0  0  0
  2  7  2  0  0  0  0
  2  3  1  0  0  0  0
  3  4  2  0  0  0  0
  3 14  1  0  0  0  0
  4  5  1  0  0  0  0
  4 27  1  0  0  0  0
  5  6  2  0  0  0  0
  6 11  1  0  0  0  0
  6  7  1  0  0  0  0
  7  8  1  0  0  0  0
  8  9  2  0  0  0  0
  8 13  1  0  0  0  0
  9 10  1  0  0  0  0
 10 11  2  0  0  0  0
 10 12  1  0  0  0  0
 12 28  1  0  0  0  0
 12 29  1  0  0  0  0
 13 30  1  0  0  0  0
 13 31  1  0  0  0  0
 14 15  1  0  0  0  0
 14 32  1  0  0  0  0
 14 33  1  0  0  0  0
 15 16  1  0  0  0  0
 16 17  2  0  0  0  0
 16 18  1  0  0  0  0
 18 23  2  0  0  0  0
 18 19  1  0  0  0  0
 19 20  2  0  0  0  0
 19 34  1  0  0  0  0
 20 21  1  0  0  0  0
 20 35  1  0  0  0  0
 21 22  2  0  0  0  0
 21 36  1  0  0  0  0
 22 23  1  0  0  0  0
 22 37  1  0  0  0  0
 23 38  1  0  0  0  0
M  END
$$$$
ZINC03814842
  -OEChem-08230709403D

 39 41  0     0  0  0  0  0  0999 V2000
   -2.5562    1.5032    1.0734 C   0  0  0  0  0  0  0  0  0  0  0  0
   -1.2225    2.2025    1.0163 C   0  0  0  0  0  0  0  0  0  0  0  0
   -1.1246    3.5532    1.2264 C   0  0  0  0  0  0  0  0  0  0  0  0
    0.1175    4.1734    1.1737 C   0  0  0  0  0  0  0  0  0  0  0  0
    1.2174    3.4996    0.9207 N   0  0  0  0  0  0  0  0  0  0  0  0
    1.1876    2.1847    0.7027 C   0  0  0  0  0  0  0  0  0  0  0  0
   -0.0480    1.4926    0.7424 C   0  0  0  0  0  0  0  0  0  0  0  0
   -0.0494    0.0953    0.5073 C   0  0  0  0  0  0  0  0  0  0  0  0
    1.1084   -0.5007    0.2606 N   0  0  0  0  0  0  0  0  0  0  0  0
    2.2468    0.1862    0.2323 C   0  0  0  0  0  0  0  0  0  0  0  0
    3.4216   -0.4921   -0.0304 N   0  0  0  0  0  0  0  0  0  0  0  0
   -1.2235   -0.6248    0.5340 N   0  0  0  0  0  0  0  0  0  0  0  0
   -2.3610    4.3632    1.5202 C   0  0  0  0  0  0  0  0  0  0  0  0
   -1.9941    5.7553    1.7090 O   0  0  0  0  0  0  0  0  0  0  0  0
   -2.9913    6.6190    1.9815 C   0  0  0  0  0  0  0  0  0  0  0  0
   -4.1360    6.2201    2.0593 O   0  0  0  0  0  0  0  0  0  0  0  0
   -2.6927    8.0513    2.1858 C   0  0  0  0  0  0  0  0  0  0  0  0
   -1.3773    8.5122    2.1028 C   0  0  0  0  0  0  0  0  0  0  0  0
   -1.1062    9.8518    2.2895 C   0  0  0  0  0  0  0  0  0  0  0  0
   -2.1329   10.7363    2.5692 C   0  0  0  0  0  0  0  0  0  0  0  0
   -3.4380   10.2853    2.6585 C   0  0  0  0  0  0  0  0  0  0  0  0
   -3.7239    8.9493    2.4684 C   0  0  0  0  0  0  0  0  0  0  0  0
   -2.6884    1.0527    2.0572 H   0  0  0  0  0  0  0  0  0  0  0  0
   -3.3529    2.2251    0.8943 H   0  0  0  0  0  0  0  0  0  0  0  0
   -2.5918    0.7259    0.3101 H   0  0  0  0  0  0  0  0  0  0  0  0
    0.1810    5.2379    1.3448 H   0  0  0  0  0  0  0  0  0  0  0  0
    3.4041   -1.4488   -0.1893 H   0  0  0  0  0  0  0  0  0  0  0  0
    4.2638   -0.0115   -0.0559 H   0  0  0  0  0  0  0  0  0  0  0  0
   -1.3853   -1.3134   -0.1296 H   0  0  0  0  0  0  0  0  0  0  0  0
   -1.8884   -0.4431    1.2165 H   0  0  0  0  0  0  0  0  0  0  0  0
   -3.0563    4.2808    0.6848 H   0  0  0  0  0  0  0  0  0  0  0  0
   -2.8354    3.9863    2.4263 H   0  0  0  0  0  0  0  0  0  0  0  0
   -0.5745    7.8222    1.8890 H   0  0  0  0  0  0  0  0  0  0  0  0
   -0.0898   10.2105    2.2212 H   0  0  0  0  0  0  0  0  0  0  0  0
   -1.9147   11.7834    2.7182 H   0  0  0  0  0  0  0  0  0  0  0  0
   -4.2346   10.9810    2.8772 H   0  0  0  0  0  0  0  0  0  0  0  0
   -4.7430    8.5986    2.5384 H   0  0  0  0  0  0  0  0  0  0  0  0
    2.3671    1.5214    0.4415 N   0  3  0  0  0  0  0  0  0  0  0  0
    3.2673    1.9549    0.4001 H   0  0  0  0  0  0  0  0  0  0  0  0
  1  2  1  0  0  0  0
  1 23  1  0  0  0  0
  1 24  1  0  0  0  0
  1 25  1  0  0  0  0
  2  7  2  0  0  0  0
  2  3  1  0  0  0  0
  3  4  2  0  0  0  0
  3 13  1  0  0  0  0
  4  5  1  0  0  0  0
  4 26  1  0  0  0  0
  5  6  2  0  0  0  0
  6  7  1  0  0  0  0
  6 38  1  0  0  0  0
  7  8  1  0  0  0  0
  8  9  2  0  0  0  0
  8 12  1  0  0  0  0
  9 10  1  0  0  0  0
 10 11  1  0  0  0  0
 10 38  2  0  0  0  0
 11 27  1  0  0  0  0
 11 28  1  0  0  0  0
 12 29  1  0  0  0  0
 12 30  1  0  0  0  0
 13 14  1  0  0  0  0
 13 31  1  0  0  0  0
 13 32  1  0  0  0  0
 14 15  1  0  0  0  0
 15 16  2  0  0  0  0
 15 17  1  0  0  0  0
 17 22  2  0  0  0  0
 17 18  1  0  0  0  0
 18 19  2  0  0  0  0
 18 33  1  0  0  0  0
 19 20  1  0  0  0  0
 19 34  1  0  0  0  0
 20 21  2  0  0  0  0
 20 35  1  0  0  0  0
 21 22  1  0  0  0  0
 21 36  1  0  0  0  0
 22 37  1  0  0  0  0
 38 39  1  0  0  0  0
M  CHG  1  38   1
M  END
$$$$
ZINC03814844
  -OEChem-08230709403D

 44 46  0     0  0  0  0  0  0999 V2000
   -4.0547   -0.0293    7.6846 C   0  0  0  0  0  0  0  0  0  0  0  0
   -3.5297    0.2964    6.3960 O   0  0  0  0  0  0  0  0  0  0  0  0
   -4.2415   -0.1224    5.3156 C   0  0  0  0  0  0  0  0  0  0  0  0
   -5.4223   -0.8325    5.4966 C   0  0  0  0  0  0  0  0  0  0  0  0
   -6.1518   -1.2624    4.4065 C   0  0  0  0  0  0  0  0  0  0  0  0
   -5.7138   -0.9822    3.1209 C   0  0  0  0  0  0  0  0  0  0  0  0
   -4.5211   -0.2711    2.9309 C   0  0  0  0  0  0  0  0  0  0  0  0
   -3.7886    0.1599    4.0406 C   0  0  0  0  0  0  0  0  0  0  0  0
   -4.0448    0.0259    1.5679 C   0  0  0  0  0  0  0  0  0  0  0  0
   -4.6841   -0.3503    0.6055 O   0  0  0  0  0  0  0  0  0  0  0  0
   -2.9004    0.7146    1.3893 O   0  0  0  0  0  0  0  0  0  0  0  0
   -2.4922    0.9708    0.0196 C   0  0  0  0  0  0  0  0  0  0  0  0
   -1.2003    1.7467    0.0172 C   0  0  0  0  0  0  0  0  0  0  0  0
   -1.2352    3.1381    0.0297 C   0  0  0  0  0  0  0  0  0  0  0  0
   -0.0847    3.8695    0.0227 C   0  0  0  0  0  0  0  0  0  0  0  0
    1.1532    3.2124    0.0079 C   0  0  0  0  0  0  0  0  0  0  0  0
    1.1863    1.7967    0.0004 C   0  0  0  0  0  0  0  0  0  0  0  0
   -0.0126    1.0758    0.0080 C   0  0  0  0  0  0  0  0  0  0  0  0
    2.4495    1.1542   -0.0142 C   0  0  0  0  0  0  0  0  0  0  0  0
    3.5384    1.9090   -0.0201 N   0  0  0  0  0  0  0  0  0  0  0  0
    3.4619    3.2368   -0.0127 C   0  0  0  0  0  0  0  0  0  0  0  0
    2.3131    3.8856    0.0009 N   0  0  0  0  0  0  0  0  0  0  0  0
    4.6358    3.9680   -0.0189 N   0  0  0  0  0  0  0  0  0  0  0  0
    2.5428   -0.2210   -0.0216 N   0  0  0  0  0  0  0  0  0  0  0  0
   -6.4350   -1.4001    2.0499 O   0  0  0  0  0  0  0  0  0  0  0  0
   -7.6400   -2.1193    2.3199 C   0  0  0  0  0  0  0  0  0  0  0  0
   -5.0444    0.4136    7.7962 H   0  0  0  0  0  0  0  0  0  0  0  0
   -4.1279   -1.1123    7.7840 H   0  0  0  0  0  0  0  0  0  0  0  0
   -3.3922    0.3624    8.4564 H   0  0  0  0  0  0  0  0  0  0  0  0
   -5.7708   -1.0495    6.4955 H   0  0  0  0  0  0  0  0  0  0  0  0
   -7.0682   -1.8141    4.5552 H   0  0  0  0  0  0  0  0  0  0  0  0
   -2.8711    0.7125    3.9020 H   0  0  0  0  0  0  0  0  0  0  0  0
   -3.2644    1.5493   -0.4876 H   0  0  0  0  0  0  0  0  0  0  0  0
   -2.3480    0.0234   -0.4998 H   0  0  0  0  0  0  0  0  0  0  0  0
   -2.1882    3.6460    0.0408 H   0  0  0  0  0  0  0  0  0  0  0  0
   -0.1269    4.9487    0.0281 H   0  0  0  0  0  0  0  0  0  0  0  0
    0.0021   -0.0041    0.0020 H   0  0  0  0  0  0  0  0  0  0  0  0
    5.4916    3.5115   -0.0286 H   0  0  0  0  0  0  0  0  0  0  0  0
    4.6034    4.9375   -0.0137 H   0  0  0  0  0  0  0  0  0  0  0  0
    1.7376   -0.7618   -0.0169 H   0  0  0  0  0  0  0  0  0  0  0  0
    3.4137   -0.6480   -0.0316 H   0  0  0  0  0  0  0  0  0  0  0  0
   -8.1177   -2.3938    1.3794 H   0  0  0  0  0  0  0  0  0  0  0  0
   -7.4058   -3.0213    2.8853 H   0  0  0  0  0  0  0  0  0  0  0  0
   -8.3154   -1.4914    2.9009 H   0  0  0  0  0  0  0  0  0  0  0  0
  1  2  1  0  0  0  0
  1 27  1  0  0  0  0
  1 28  1  0  0  0  0
  1 29  1  0  0  0  0
  2  3  1  0  0  0  0
  3  8  2  0  0  0  0
  3  4  1  0  0  0  0
  4  5  2  0  0  0  0
  4 30  1  0  0  0  0
  5  6  1  0  0  0  0
  5 31  1  0  0  0  0
  6  7  2  0  0  0  0
  6 25  1  0  0  0  0
  7  8  1  0  0  0  0
  7  9  1  0  0  0  0
  8 32  1  0  0  0  0
  9 10  2  0  0  0  0
  9 11  1  0  0  0  0
 11 12  1  0  0  0  0
 12 13  1  0  0  0  0
 12 33  1  0  0  0  0
 12 34  1  0  0  0  0
 13 18  2  0  0  0  0
 13 14  1  0  0  0  0
 14 15  2  0  0  0  0
 14 35  1  0  0  0  0
 15 16  1  0  0  0  0
 15 36  1  0  0  0  0
 16 22  2  0  0  0  0
 16 17  1  0  0  0  0
 17 18  1  0  0  0  0
 17 19  2  0  0  0  0
 18 37  1  0  0  0  0
 19 20  1  0  0  0  0
 19 24  1  0  0  0  0
 20 21  2  0  0  0  0
 21 22  1  0  0  0  0
 21 23  1  0  0  0  0
 23 38  1  0  0  0  0
 23 39  1  0  0  0  0
 24 40  1  0  0  0  0
 24 41  1  0  0  0  0
 25 26  1  0  0  0  0
 26 42  1  0  0  0  0
 26 43  1  0  0  0  0
 26 44  1  0  0  0  0
M  END
$$$$
ZINC03814844
  -OEChem-08230709403D

 45 47  0     0  0  0  0  0  0999 V2000
   -4.0547   -0.0293    7.6846 C   0  0  0  0  0  0  0  0  0  0  0  0
   -3.5297    0.2964    6.3960 O   0  0  0  0  0  0  0  0  0  0  0  0
   -4.2415   -0.1224    5.3156 C   0  0  0  0  0  0  0  0  0  0  0  0
   -5.4223   -0.8325    5.4966 C   0  0  0  0  0  0  0  0  0  0  0  0
   -6.1518   -1.2624    4.4065 C   0  0  0  0  0  0  0  0  0  0  0  0
   -5.7138   -0.9822    3.1209 C   0  0  0  0  0  0  0  0  0  0  0  0
   -4.5211   -0.2711    2.9309 C   0  0  0  0  0  0  0  0  0  0  0  0
   -3.7886    0.1599    4.0406 C   0  0  0  0  0  0  0  0  0  0  0  0
   -4.0448    0.0259    1.5679 C   0  0  0  0  0  0  0  0  0  0  0  0
   -4.6841   -0.3503    0.6055 O   0  0  0  0  0  0  0  0  0  0  0  0
   -2.9004    0.7146    1.3893 O   0  0  0  0  0  0  0  0  0  0  0  0
   -2.4922    0.9708    0.0196 C   0  0  0  0  0  0  0  0  0  0  0  0
   -1.2003    1.7467    0.0172 C   0  0  0  0  0  0  0  0  0  0  0  0
   -1.2352    3.1381    0.0297 C   0  0  0  0  0  0  0  0  0  0  0  0
   -0.0847    3.8695    0.0227 C   0  0  0  0  0  0  0  0  0  0  0  0
    1.1532    3.2124    0.0079 C   0  0  0  0  0  0  0  0  0  0  0  0
    1.1863    1.7967    0.0004 C   0  0  0  0  0  0  0  0  0  0  0  0
   -0.0126    1.0758    0.0080 C   0  0  0  0  0  0  0  0  0  0  0  0
    2.4495    1.1542   -0.0142 C   0  0  0  0  0  0  0  0  0  0  0  0
    3.5384    1.9090   -0.0201 N   0  0  0  0  0  0  0  0  0  0  0  0
    3.4619    3.2368   -0.0127 C   0  0  0  0  0  0  0  0  0  0  0  0
    4.6358    3.9680   -0.0189 N   0  0  0  0  0  0  0  0  0  0  0  0
    2.5428   -0.2210   -0.0216 N   0  0  0  0  0  0  0  0  0  0  0  0
   -6.4350   -1.4001    2.0499 O   0  0  0  0  0  0  0  0  0  0  0  0
   -7.6400   -2.1193    2.3199 C   0  0  0  0  0  0  0  0  0  0  0  0
   -5.0444    0.4136    7.7962 H   0  0  0  0  0  0  0  0  0  0  0  0
   -4.1279   -1.1123    7.7840 H   0  0  0  0  0  0  0  0  0  0  0  0
   -3.3922    0.3624    8.4564 H   0  0  0  0  0  0  0  0  0  0  0  0
   -5.7708   -1.0495    6.4955 H   0  0  0  0  0  0  0  0  0  0  0  0
   -7.0682   -1.8141    4.5552 H   0  0  0  0  0  0  0  0  0  0  0  0
   -2.8711    0.7125    3.9020 H   0  0  0  0  0  0  0  0  0  0  0  0
   -3.2644    1.5493   -0.4876 H   0  0  0  0  0  0  0  0  0  0  0  0
   -2.3480    0.0234   -0.4998 H   0  0  0  0  0  0  0  0  0  0  0  0
   -2.1882    3.6460    0.0408 H   0  0  0  0  0  0  0  0  0  0  0  0
   -0.1269    4.9487    0.0281 H   0  0  0  0  0  0  0  0  0  0  0  0
    0.0021   -0.0041    0.0020 H   0  0  0  0  0  0  0  0  0  0  0  0
    5.4916    3.5115   -0.0286 H   0  0  0  0  0  0  0  0  0  0  0  0
    4.6034    4.9375   -0.0137 H   0  0  0  0  0  0  0  0  0  0  0  0
    1.7376   -0.7618   -0.0169 H   0  0  0  0  0  0  0  0  0  0  0  0
    3.4137   -0.6480   -0.0316 H   0  0  0  0  0  0  0  0  0  0  0  0
   -8.1177   -2.3938    1.3794 H   0  0  0  0  0  0  0  0  0  0  0  0
   -7.4058   -3.0213    2.8853 H   0  0  0  0  0  0  0  0  0  0  0  0
   -8.3154   -1.4914    2.9009 H   0  0  0  0  0  0  0  0  0  0  0  0
    2.3130    3.9570    0.0013 N   0  3  0  0  0  0  0  0  0  0  0  0
    2.2659    4.9558    0.0067 H   0  0  0  0  0  0  0  0  0  0  0  0
  1  2  1  0  0  0  0
  1 26  1  0  0  0  0
  1 27  1  0  0  0  0
  1 28  1  0  0  0  0
  2  3  1  0  0  0  0
  3  8  2  0  0  0  0
  3  4  1  0  0  0  0
  4  5  2  0  0  0  0
  4 29  1  0  0  0  0
  5  6  1  0  0  0  0
  5 30  1  0  0  0  0
  6  7  2  0  0  0  0
  6 24  1  0  0  0  0
  7  8  1  0  0  0  0
  7  9  1  0  0  0  0
  8 31  1  0  0  0  0
  9 10  2  0  0  0  0
  9 11  1  0  0  0  0
 11 12  1  0  0  0  0
 12 13  1  0  0  0  0
 12 32  1  0  0  0  0
 12 33  1  0  0  0  0
 13 18  2  0  0  0  0
 13 14  1  0  0  0  0
 14 15  2  0  0  0  0
 14 34  1  0  0  0  0
 15 16  1  0  0  0  0
 15 35  1  0  0  0  0
 16 17  2  0  0  0  0
 16 44  1  0  0  0  0
 17 18  1  0  0  0  0
 17 19  1  0  0  0  0
 18 36  1  0  0  0  0
 19 20  2  0  0  0  0
 19 23  1  0  0  0  0
 20 21  1  0  0  0  0
 21 22  1  0  0  0  0
 21 44  2  0  0  0  0
 22 37  1  0  0  0  0
 22 38  1  0  0  0  0
 23 39  1  0  0  0  0
 23 40  1  0  0  0  0
 24 25  1  0  0  0  0
 25 41  1  0  0  0  0
 25 42  1  0  0  0  0
 25 43  1  0  0  0  0
 44 45  1  0  0  0  0
M  CHG  1  44   1
M  END
$$$$
ZINC03814845
  -OEChem-08230709403D

 48 50  0     0  0  0  0  0  0999 V2000
   -5.0406   -0.6204    7.8374 C   0  0  0  0  0  0  0  0  0  0  0  0
   -5.8472   -1.0961    6.7579 O   0  0  0  0  0  0  0  0  0  0  0  0
   -5.4142   -0.8264    5.4993 C   0  0  0  0  0  0  0  0  0  0  0  0
   -4.2332   -0.1162    5.3102 C   0  0  0  0  0  0  0  0  0  0  0  0
   -3.7864    0.1612    4.0391 C   0  0  0  0  0  0  0  0  0  0  0  0
   -4.5206   -0.2708    2.9287 C   0  0  0  0  0  0  0  0  0  0  0  0
   -5.7145   -0.9825    3.1178 C   0  0  0  0  0  0  0  0  0  0  0  0
   -6.1526   -1.2617    4.4049 C   0  0  0  0  0  0  0  0  0  0  0  0
   -7.3077   -1.9559    4.5955 O   0  0  0  0  0  0  0  0  0  0  0  0
   -8.5132   -1.1949    4.6940 C   0  0  0  0  0  0  0  0  0  0  0  0
   -6.4357   -1.4009    2.0465 O   0  0  0  0  0  0  0  0  0  0  0  0
   -6.1296   -2.6952    1.5239 C   0  0  0  0  0  0  0  0  0  0  0  0
   -4.0451    0.0257    1.5680 C   0  0  0  0  0  0  0  0  0  0  0  0
   -4.6845   -0.3506    0.6053 O   0  0  0  0  0  0  0  0  0  0  0  0
   -2.9004    0.7146    1.3893 O   0  0  0  0  0  0  0  0  0  0  0  0
   -2.4922    0.9708    0.0196 C   0  0  0  0  0  0  0  0  0  0  0  0
   -1.2003    1.7467    0.0172 C   0  0  0  0  0  0  0  0  0  0  0  0
   -1.2352    3.1381    0.0297 C   0  0  0  0  0  0  0  0  0  0  0  0
   -0.0847    3.8695    0.0227 C   0  0  0  0  0  0  0  0  0  0  0  0
    1.1532    3.2124    0.0079 C   0  0  0  0  0  0  0  0  0  0  0  0
    1.1863    1.7967    0.0004 C   0  0  0  0  0  0  0  0  0  0  0  0
   -0.0126    1.0758    0.0080 C   0  0  0  0  0  0  0  0  0  0  0  0
    2.4495    1.1542   -0.0142 C   0  0  0  0  0  0  0  0  0  0  0  0
    3.5384    1.9090   -0.0201 N   0  0  0  0  0  0  0  0  0  0  0  0
    3.4619    3.2368   -0.0127 C   0  0  0  0  0  0  0  0  0  0  0  0
    2.3131    3.8856    0.0009 N   0  0  0  0  0  0  0  0  0  0  0  0
    4.6358    3.9680   -0.0189 N   0  0  0  0  0  0  0  0  0  0  0  0
    2.5428   -0.2210   -0.0216 N   0  0  0  0  0  0  0  0  0  0  0  0
   -4.9619    0.4653    7.7810 H   0  0  0  0  0  0  0  0  0  0  0  0
   -5.4989   -0.9027    8.7852 H   0  0  0  0  0  0  0  0  0  0  0  0
   -4.0459   -1.0609    7.7692 H   0  0  0  0  0  0  0  0  0  0  0  0
   -3.6648    0.2191    6.1651 H   0  0  0  0  0  0  0  0  0  0  0  0
   -2.8688    0.7130    3.8980 H   0  0  0  0  0  0  0  0  0  0  0  0
   -8.6608   -0.6274    3.7752 H   0  0  0  0  0  0  0  0  0  0  0  0
   -9.3568   -1.8686    4.8445 H   0  0  0  0  0  0  0  0  0  0  0  0
   -8.4415   -0.5084    5.5376 H   0  0  0  0  0  0  0  0  0  0  0  0
   -5.0880   -2.7208    1.2038 H   0  0  0  0  0  0  0  0  0  0  0  0
   -6.2908   -3.4466    2.2970 H   0  0  0  0  0  0  0  0  0  0  0  0
   -6.7767   -2.9055    0.6723 H   0  0  0  0  0  0  0  0  0  0  0  0
   -3.2644    1.5493   -0.4876 H   0  0  0  0  0  0  0  0  0  0  0  0
   -2.3480    0.0234   -0.4998 H   0  0  0  0  0  0  0  0  0  0  0  0
   -2.1882    3.6460    0.0408 H   0  0  0  0  0  0  0  0  0  0  0  0
   -0.1269    4.9487    0.0281 H   0  0  0  0  0  0  0  0  0  0  0  0
    0.0021   -0.0041    0.0020 H   0  0  0  0  0  0  0  0  0  0  0  0
    5.4916    3.5115   -0.0286 H   0  0  0  0  0  0  0  0  0  0  0  0
    4.6034    4.9375   -0.0137 H   0  0  0  0  0  0  0  0  0  0  0  0
    1.7376   -0.7618   -0.0169 H   0  0  0  0  0  0  0  0  0  0  0  0
    3.4137   -0.6480   -0.0316 H   0  0  0  0  0  0  0  0  0  0  0  0
  1  2  1  0  0  0  0
  1 29  1  0  0  0  0
  1 30  1  0  0  0  0
  1 31  1  0  0  0  0
  2  3  1  0  0  0  0
  3  8  2  0  0  0  0
  3  4  1  0  0  0  0
  4  5  2  0  0  0  0
  4 32  1  0  0  0  0
  5  6  1  0  0  0  0
  5 33  1  0  0  0  0
  6  7  2  0  0  0  0
  6 13  1  0  0  0  0
  7  8  1  0  0  0  0
  7 11  1  0  0  0  0
  8  9  1  0  0  0  0
  9 10  1  0  0  0  0
 10 34  1  0  0  0  0
 10 35  1  0  0  0  0
 10 36  1  0  0  0  0
 11 12  1  0  0  0  0
 12 37  1  0  0  0  0
 12 38  1  0  0  0  0
 12 39  1  0  0  0  0
 13 14  2  0  0  0  0
 13 15  1  0  0  0  0
 15 16  1  0  0  0  0
 16 17  1  0  0  0  0
 16 40  1  0  0  0  0
 16 41  1  0  0  0  0
 17 22  2  0  0  0  0
 17 18  1  0  0  0  0
 18 19  2  0  0  0  0
 18 42  1  0  0  0  0
 19 20  1  0  0  0  0
 19 43  1  0  0  0  0
 20 26  2  0  0  0  0
 20 21  1  0  0  0  0
 21 22  1  0  0  0  0
 21 23  2  0  0  0  0
 22 44  1  0  0  0  0
 23 24  1  0  0  0  0
 23 28  1  0  0  0  0
 24 25  2  0  0  0  0
 25 26  1  0  0  0  0
 25 27  1  0  0  0  0
 27 45  1  0  0  0  0
 27 46  1  0  0  0  0
 28 47  1  0  0  0  0
 28 48  1  0  0  0  0
M  END
$$$$
ZINC03814845
  -OEChem-08230709403D

 49 51  0     0  0  0  0  0  0999 V2000
   -5.0406   -0.6204    7.8374 C   0  0  0  0  0  0  0  0  0  0  0  0
   -5.8472   -1.0961    6.7579 O   0  0  0  0  0  0  0  0  0  0  0  0
   -5.4142   -0.8264    5.4993 C   0  0  0  0  0  0  0  0  0  0  0  0
   -4.2332   -0.1162    5.3102 C   0  0  0  0  0  0  0  0  0  0  0  0
   -3.7864    0.1612    4.0391 C   0  0  0  0  0  0  0  0  0  0  0  0
   -4.5206   -0.2708    2.9287 C   0  0  0  0  0  0  0  0  0  0  0  0
   -5.7145   -0.9825    3.1178 C   0  0  0  0  0  0  0  0  0  0  0  0
   -6.1526   -1.2617    4.4049 C   0  0  0  0  0  0  0  0  0  0  0  0
   -7.3077   -1.9559    4.5955 O   0  0  0  0  0  0  0  0  0  0  0  0
   -8.5132   -1.1949    4.6940 C   0  0  0  0  0  0  0  0  0  0  0  0
   -6.4357   -1.4009    2.0465 O   0  0  0  0  0  0  0  0  0  0  0  0
   -6.1296   -2.6952    1.5239 C   0  0  0  0  0  0  0  0  0  0  0  0
   -4.0451    0.0257    1.5680 C   0  0  0  0  0  0  0  0  0  0  0  0
   -4.6845   -0.3506    0.6053 O   0  0  0  0  0  0  0  0  0  0  0  0
   -2.9004    0.7146    1.3893 O   0  0  0  0  0  0  0  0  0  0  0  0
   -2.4922    0.9708    0.0196 C   0  0  0  0  0  0  0  0  0  0  0  0
   -1.2003    1.7467    0.0172 C   0  0  0  0  0  0  0  0  0  0  0  0
   -1.2352    3.1381    0.0297 C   0  0  0  0  0  0  0  0  0  0  0  0
   -0.0847    3.8695    0.0227 C   0  0  0  0  0  0  0  0  0  0  0  0
    1.1532    3.2124    0.0079 C   0  0  0  0  0  0  0  0  0  0  0  0
    1.1863    1.7967    0.0004 C   0  0  0  0  0  0  0  0  0  0  0  0
   -0.0126    1.0758    0.0080 C   0  0  0  0  0  0  0  0  0  0  0  0
    2.4495    1.1542   -0.0142 C   0  0  0  0  0  0  0  0  0  0  0  0
    3.5384    1.9090   -0.0201 N   0  0  0  0  0  0  0  0  0  0  0  0
    3.4619    3.2368   -0.0127 C   0  0  0  0  0  0  0  0  0  0  0  0
    4.6358    3.9680   -0.0189 N   0  0  0  0  0  0  0  0  0  0  0  0
    2.5428   -0.2210   -0.0216 N   0  0  0  0  0  0  0  0  0  0  0  0
   -4.9619    0.4653    7.7810 H   0  0  0  0  0  0  0  0  0  0  0  0
   -5.4989   -0.9027    8.7852 H   0  0  0  0  0  0  0  0  0  0  0  0
   -4.0459   -1.0609    7.7692 H   0  0  0  0  0  0  0  0  0  0  0  0
   -3.6648    0.2191    6.1651 H   0  0  0  0  0  0  0  0  0  0  0  0
   -2.8688    0.7130    3.8980 H   0  0  0  0  0  0  0  0  0  0  0  0
   -8.6608   -0.6274    3.7752 H   0  0  0  0  0  0  0  0  0  0  0  0
   -9.3568   -1.8686    4.8445 H   0  0  0  0  0  0  0  0  0  0  0  0
   -8.4415   -0.5084    5.5376 H   0  0  0  0  0  0  0  0  0  0  0  0
   -5.0880   -2.7208    1.2038 H   0  0  0  0  0  0  0  0  0  0  0  0
   -6.2908   -3.4466    2.2970 H   0  0  0  0  0  0  0  0  0  0  0  0
   -6.7767   -2.9055    0.6723 H   0  0  0  0  0  0  0  0  0  0  0  0
   -3.2644    1.5493   -0.4876 H   0  0  0  0  0  0  0  0  0  0  0  0
   -2.3480    0.0234   -0.4998 H   0  0  0  0  0  0  0  0  0  0  0  0
   -2.1882    3.6460    0.0408 H   0  0  0  0  0  0  0  0  0  0  0  0
   -0.1269    4.9487    0.0281 H   0  0  0  0  0  0  0  0  0  0  0  0
    0.0021   -0.0041    0.0020 H   0  0  0  0  0  0  0  0  0  0  0  0
    5.4916    3.5115   -0.0286 H   0  0  0  0  0  0  0  0  0  0  0  0
    4.6034    4.9375   -0.0137 H   0  0  0  0  0  0  0  0  0  0  0  0
    1.7376   -0.7618   -0.0169 H   0  0  0  0  0  0  0  0  0  0  0  0
    3.4137   -0.6480   -0.0316 H   0  0  0  0  0  0  0  0  0  0  0  0
    2.3130    3.9570    0.0013 N   0  3  0  0  0  0  0  0  0  0  0  0
    2.2659    4.9558    0.0067 H   0  0  0  0  0  0  0  0  0  0  0  0
  1  2  1  0  0  0  0
  1 28  1  0  0  0  0
  1 29  1  0  0  0  0
  1 30  1  0  0  0  0
  2  3  1  0  0  0  0
  3  8  2  0  0  0  0
  3  4  1  0  0  0  0
  4  5  2  0  0  0  0
  4 31  1  0  0  0  0
  5  6  1  0  0  0  0
  5 32  1  0  0  0  0
  6  7  2  0  0  0  0
  6 13  1  0  0  0  0
  7  8  1  0  0  0  0
  7 11  1  0  0  0  0
  8  9  1  0  0  0  0
  9 10  1  0  0  0  0
 10 33  1  0  0  0  0
 10 34  1  0  0  0  0
 10 35  1  0  0  0  0
 11 12  1  0  0  0  0
 12 36  1  0  0  0  0
 12 37  1  0  0  0  0
 12 38  1  0  0  0  0
 13 14  2  0  0  0  0
 13 15  1  0  0  0  0
 15 16  1  0  0  0  0
 16 17  1  0  0  0  0
 16 39  1  0  0  0  0
 16 40  1  0  0  0  0
 17 22  2  0  0  0  0
 17 18  1  0  0  0  0
 18 19  2  0  0  0  0
 18 41  1  0  0  0  0
 19 20  1  0  0  0  0
 19 42  1  0  0  0  0
 20 21  2  0  0  0  0
 20 48  1  0  0  0  0
 21 22  1  0  0  0  0
 21 23  1  0  0  0  0
 22 43  1  0  0  0  0
 23 24  2  0  0  0  0
 23 27  1  0  0  0  0
 24 25  1  0  0  0  0
 25 26  1  0  0  0  0
 25 48  2  0  0  0  0
 26 44  1  0  0  0  0
 26 45  1  0  0  0  0
 27 46  1  0  0  0  0
 27 47  1  0  0  0  0
 48 49  1  0  0  0  0
M  CHG  1  48   1
M  END
$$$$
ZINC03814846
  -OEChem-08230709403D

 44 46  0     0  0  0  0  0  0999 V2000
   -1.1598    1.8644   -8.3788 C   0  0  0  0  0  0  0  0  0  0  0  0
   -0.4662    1.3893   -7.2233 O   0  0  0  0  0  0  0  0  0  0  0  0
   -0.9737    1.7388   -6.0119 C   0  0  0  0  0  0  0  0  0  0  0  0
   -0.3499    1.3116   -4.8515 C   0  0  0  0  0  0  0  0  0  0  0  0
   -0.8717    1.6715   -3.6081 C   0  0  0  0  0  0  0  0  0  0  0  0
   -2.0239    2.4561   -3.5401 C   0  0  0  0  0  0  0  0  0  0  0  0
   -2.6378    2.8836   -4.7057 C   0  0  0  0  0  0  0  0  0  0  0  0
   -2.1156    2.5234   -5.9396 C   0  0  0  0  0  0  0  0  0  0  0  0
   -3.7565    3.6527   -4.6407 O   0  0  0  0  0  0  0  0  0  0  0  0
   -4.3412    4.0534   -5.8815 C   0  0  0  0  0  0  0  0  0  0  0  0
   -0.2096    1.2183   -2.3674 C   0  0  0  0  0  0  0  0  0  0  0  0
    0.7903    0.5313   -2.4286 O   0  0  0  0  0  0  0  0  0  0  0  0
   -0.7150    1.5668   -1.1683 O   0  0  0  0  0  0  0  0  0  0  0  0
   -0.0127    1.0858    0.0080 C   0  0  0  0  0  0  0  0  0  0  0  0
   -0.7181    1.5718    1.2479 C   0  0  0  0  0  0  0  0  0  0  0  0
   -0.3499    2.7885    1.8148 C   0  0  0  0  0  0  0  0  0  0  0  0
   -0.9715    3.2589    2.9333 C   0  0  0  0  0  0  0  0  0  0  0  0
   -1.9898    2.5023    3.5292 C   0  0  0  0  0  0  0  0  0  0  0  0
   -2.3590    1.2621    2.9539 C   0  0  0  0  0  0  0  0  0  0  0  0
   -1.7049    0.8106    1.8026 C   0  0  0  0  0  0  0  0  0  0  0  0
   -3.3915    0.5147    3.5736 C   0  0  0  0  0  0  0  0  0  0  0  0
   -3.9614    1.0123    4.6613 N   0  0  0  0  0  0  0  0  0  0  0  0
   -3.5836    2.1822    5.1688 C   0  0  0  0  0  0  0  0  0  0  0  0
   -2.6292    2.9184    4.6323 N   0  0  0  0  0  0  0  0  0  0  0  0
   -4.2183    2.6467    6.3065 N   0  0  0  0  0  0  0  0  0  0  0  0
   -3.7928   -0.6988    3.0576 N   0  0  0  0  0  0  0  0  0  0  0  0
   -0.6513    1.5145   -9.2772 H   0  0  0  0  0  0  0  0  0  0  0  0
   -2.1822    1.4868   -8.3696 H   0  0  0  0  0  0  0  0  0  0  0  0
   -1.1749    2.9543   -8.3710 H   0  0  0  0  0  0  0  0  0  0  0  0
    0.5393    0.7012   -4.9088 H   0  0  0  0  0  0  0  0  0  0  0  0
   -2.4339    2.7329   -2.5801 H   0  0  0  0  0  0  0  0  0  0  0  0
   -2.5993    2.8550   -6.8465 H   0  0  0  0  0  0  0  0  0  0  0  0
   -3.6182    4.6358   -6.4526 H   0  0  0  0  0  0  0  0  0  0  0  0
   -4.6265    3.1690   -6.4512 H   0  0  0  0  0  0  0  0  0  0  0  0
   -5.2250    4.6612   -5.6872 H   0  0  0  0  0  0  0  0  0  0  0  0
    0.0021   -0.0041    0.0020 H   0  0  0  0  0  0  0  0  0  0  0  0
    1.0099    1.4631    0.0003 H   0  0  0  0  0  0  0  0  0  0  0  0
    0.4372    3.3709    1.3592 H   0  0  0  0  0  0  0  0  0  0  0  0
   -0.6780    4.2066    3.3601 H   0  0  0  0  0  0  0  0  0  0  0  0
   -1.9790   -0.1339    1.3564 H   0  0  0  0  0  0  0  0  0  0  0  0
   -4.9229    2.1218    6.7174 H   0  0  0  0  0  0  0  0  0  0  0  0
   -3.9587    3.4974    6.6936 H   0  0  0  0  0  0  0  0  0  0  0  0
   -3.3673   -1.0515    2.2604 H   0  0  0  0  0  0  0  0  0  0  0  0
   -4.5007   -1.2001    3.4917 H   0  0  0  0  0  0  0  0  0  0  0  0
  1  2  1  0  0  0  0
  1 27  1  0  0  0  0
  1 28  1  0  0  0  0
  1 29  1  0  0  0  0
  2  3  1  0  0  0  0
  3  8  2  0  0  0  0
  3  4  1  0  0  0  0
  4  5  2  0  0  0  0
  4 30  1  0  0  0  0
  5  6  1  0  0  0  0
  5 11  1  0  0  0  0
  6  7  2  0  0  0  0
  6 31  1  0  0  0  0
  7  8  1  0  0  0  0
  7  9  1  0  0  0  0
  8 32  1  0  0  0  0
  9 10  1  0  0  0  0
 10 33  1  0  0  0  0
 10 34  1  0  0  0  0
 10 35  1  0  0  0  0
 11 12  2  0  0  0  0
 11 13  1  0  0  0  0
 13 14  1  0  0  0  0
 14 15  1  0  0  0  0
 14 36  1  0  0  0  0
 14 37  1  0  0  0  0
 15 20  2  0  0  0  0
 15 16  1  0  0  0  0
 16 17  2  0  0  0  0
 16 38  1  0  0  0  0
 17 18  1  0  0  0  0
 17 39  1  0  0  0  0
 18 24  2  0  0  0  0
 18 19  1  0  0  0  0
 19 20  1  0  0  0  0
 19 21  2  0  0  0  0
 20 40  1  0  0  0  0
 21 22  1  0  0  0  0
 21 26  1  0  0  0  0
 22 23  2  0  0  0  0
 23 24  1  0  0  0  0
 23 25  1  0  0  0  0
 25 41  1  0  0  0  0
 25 42  1  0  0  0  0
 26 43  1  0  0  0  0
 26 44  1  0  0  0  0
M  END
$$$$
ZINC03814846
  -OEChem-08230709403D

 45 47  0     0  0  0  0  0  0999 V2000
   -1.1598    1.8644   -8.3788 C   0  0  0  0  0  0  0  0  0  0  0  0
   -0.4662    1.3893   -7.2233 O   0  0  0  0  0  0  0  0  0  0  0  0
   -0.9737    1.7388   -6.0119 C   0  0  0  0  0  0  0  0  0  0  0  0
   -0.3499    1.3116   -4.8515 C   0  0  0  0  0  0  0  0  0  0  0  0
   -0.8717    1.6715   -3.6081 C   0  0  0  0  0  0  0  0  0  0  0  0
   -2.0239    2.4561   -3.5401 C   0  0  0  0  0  0  0  0  0  0  0  0
   -2.6378    2.8836   -4.7057 C   0  0  0  0  0  0  0  0  0  0  0  0
   -2.1156    2.5234   -5.9396 C   0  0  0  0  0  0  0  0  0  0  0  0
   -3.7565    3.6527   -4.6407 O   0  0  0  0  0  0  0  0  0  0  0  0
   -4.3412    4.0534   -5.8815 C   0  0  0  0  0  0  0  0  0  0  0  0
   -0.2096    1.2183   -2.3674 C   0  0  0  0  0  0  0  0  0  0  0  0
    0.7903    0.5313   -2.4286 O   0  0  0  0  0  0  0  0  0  0  0  0
   -0.7150    1.5668   -1.1683 O   0  0  0  0  0  0  0  0  0  0  0  0
   -0.0127    1.0858    0.0080 C   0  0  0  0  0  0  0  0  0  0  0  0
   -0.7181    1.5718    1.2479 C   0  0  0  0  0  0  0  0  0  0  0  0
   -0.3499    2.7885    1.8148 C   0  0  0  0  0  0  0  0  0  0  0  0
   -0.9715    3.2589    2.9333 C   0  0  0  0  0  0  0  0  0  0  0  0
   -1.9898    2.5023    3.5292 C   0  0  0  0  0  0  0  0  0  0  0  0
   -2.3590    1.2621    2.9539 C   0  0  0  0  0  0  0  0  0  0  0  0
   -1.7049    0.8106    1.8026 C   0  0  0  0  0  0  0  0  0  0  0  0
   -3.3915    0.5147    3.5736 C   0  0  0  0  0  0  0  0  0  0  0  0
   -3.9614    1.0123    4.6613 N   0  0  0  0  0  0  0  0  0  0  0  0
   -3.5836    2.1822    5.1688 C   0  0  0  0  0  0  0  0  0  0  0  0
   -4.2183    2.6467    6.3065 N   0  0  0  0  0  0  0  0  0  0  0  0
   -3.7928   -0.6988    3.0576 N   0  0  0  0  0  0  0  0  0  0  0  0
   -0.6513    1.5145   -9.2772 H   0  0  0  0  0  0  0  0  0  0  0  0
   -2.1822    1.4868   -8.3696 H   0  0  0  0  0  0  0  0  0  0  0  0
   -1.1749    2.9543   -8.3710 H   0  0  0  0  0  0  0  0  0  0  0  0
    0.5393    0.7012   -4.9088 H   0  0  0  0  0  0  0  0  0  0  0  0
   -2.4339    2.7329   -2.5801 H   0  0  0  0  0  0  0  0  0  0  0  0
   -2.5993    2.8550   -6.8465 H   0  0  0  0  0  0  0  0  0  0  0  0
   -3.6182    4.6358   -6.4526 H   0  0  0  0  0  0  0  0  0  0  0  0
   -4.6265    3.1690   -6.4512 H   0  0  0  0  0  0  0  0  0  0  0  0
   -5.2250    4.6612   -5.6872 H   0  0  0  0  0  0  0  0  0  0  0  0
    0.0021   -0.0041    0.0020 H   0  0  0  0  0  0  0  0  0  0  0  0
    1.0099    1.4631    0.0003 H   0  0  0  0  0  0  0  0  0  0  0  0
    0.4372    3.3709    1.3592 H   0  0  0  0  0  0  0  0  0  0  0  0
   -0.6780    4.2066    3.3601 H   0  0  0  0  0  0  0  0  0  0  0  0
   -1.9790   -0.1339    1.3564 H   0  0  0  0  0  0  0  0  0  0  0  0
   -4.9229    2.1218    6.7174 H   0  0  0  0  0  0  0  0  0  0  0  0
   -3.9587    3.4974    6.6936 H   0  0  0  0  0  0  0  0  0  0  0  0
   -3.3673   -1.0515    2.2604 H   0  0  0  0  0  0  0  0  0  0  0  0
   -4.5007   -1.2001    3.4917 H   0  0  0  0  0  0  0  0  0  0  0  0
   -2.6117    2.9807    4.6624 N   0  3  0  0  0  0  0  0  0  0  0  0
   -2.3352    3.8595    5.0512 H   0  0  0  0  0  0  0  0  0  0  0  0
  1  2  1  0  0  0  0
  1 26  1  0  0  0  0
  1 27  1  0  0  0  0
  1 28  1  0  0  0  0
  2  3  1  0  0  0  0
  3  8  2  0  0  0  0
  3  4  1  0  0  0  0
  4  5  2  0  0  0  0
  4 29  1  0  0  0  0
  5  6  1  0  0  0  0
  5 11  1  0  0  0  0
  6  7  2  0  0  0  0
  6 30  1  0  0  0  0
  7  8  1  0  0  0  0
  7  9  1  0  0  0  0
  8 31  1  0  0  0  0
  9 10  1  0  0  0  0
 10 32  1  0  0  0  0
 10 33  1  0  0  0  0
 10 34  1  0  0  0  0
 11 12  2  0  0  0  0
 11 13  1  0  0  0  0
 13 14  1  0  0  0  0
 14 15  1  0  0  0  0
 14 35  1  0  0  0  0
 14 36  1  0  0  0  0
 15 20  2  0  0  0  0
 15 16  1  0  0  0  0
 16 17  2  0  0  0  0
 16 37  1  0  0  0  0
 17 18  1  0  0  0  0
 17 38  1  0  0  0  0
 18 19  2  0  0  0  0
 18 44  1  0  0  0  0
 19 20  1  0  0  0  0
 19 21  1  0  0  0  0
 20 39  1  0  0  0  0
 21 22  2  0  0  0  0
 21 25  1  0  0  0  0
 22 23  1  0  0  0  0
 23 24  1  0  0  0  0
 23 44  2  0  0  0  0
 24 40  1  0  0  0  0
 24 41  1  0  0  0  0
 25 42  1  0  0  0  0
 25 43  1  0  0  0  0
 44 45  1  0  0  0  0
M  CHG  1  44   1
M  END
$$$$
ZINC03814847
  -OEChem-08230709403D

 38 40  0     0  0  0  0  0  0999 V2000
   -3.9001    5.1048    4.4334 C   0  0  0  0  0  0  0  0  0  0  0  0
   -2.5595    4.5243    4.8880 C   0  0  0  0  0  0  0  0  0  0  0  0
   -2.5578    3.0332    4.6697 C   0  0  0  0  0  0  0  0  0  0  0  0
   -2.1394    2.5113    3.4334 C   0  0  0  0  0  0  0  0  0  0  0  0
   -2.1271    1.2029    3.2282 N   0  0  0  0  0  0  0  0  0  0  0  0
   -2.5188    0.3854    4.1997 C   0  0  0  0  0  0  0  0  0  0  0  0
   -2.5269   -1.0695    4.0328 C   0  0  0  0  0  0  0  0  0  0  0  0
   -2.9340   -1.8052    5.0576 N   0  0  0  0  0  0  0  0  0  0  0  0
   -3.3213   -1.2439    6.1988 C   0  0  0  0  0  0  0  0  0  0  0  0
   -3.3334    0.0584    6.4013 N   0  0  0  0  0  0  0  0  0  0  0  0
   -2.9458    0.9111    5.4445 C   0  0  0  0  0  0  0  0  0  0  0  0
   -2.9522    2.2340    5.6352 N   0  0  0  0  0  0  0  0  0  0  0  0
   -3.7336   -2.0698    7.2274 N   0  0  0  0  0  0  0  0  0  0  0  0
   -2.1259   -1.6536    2.8509 N   0  0  0  0  0  0  0  0  0  0  0  0
   -1.7037    3.4300    2.3556 C   0  0  0  0  0  0  0  0  0  0  0  0
   -0.6192    4.2821    2.5575 C   0  0  0  0  0  0  0  0  0  0  0  0
   -0.2209    5.1392    1.5525 C   0  0  0  0  0  0  0  0  0  0  0  0
   -0.8916    5.1536    0.3417 C   0  0  0  0  0  0  0  0  0  0  0  0
   -1.9651    4.3103    0.1288 C   0  0  0  0  0  0  0  0  0  0  0  0
   -2.3763    3.4435    1.1291 C   0  0  0  0  0  0  0  0  0  0  0  0
   -3.4317    2.6144    0.9213 O   0  0  0  0  0  0  0  0  0  0  0  0
   -4.0733    2.6880   -0.3534 C   0  0  0  0  0  0  0  0  0  0  0  0
   -3.9013    6.1833    4.5913 H   0  0  0  0  0  0  0  0  0  0  0  0
   -4.0476    4.8924    3.3745 H   0  0  0  0  0  0  0  0  0  0  0  0
   -4.7064    4.6522    5.0105 H   0  0  0  0  0  0  0  0  0  0  0  0
   -2.4119    4.7367    5.9469 H   0  0  0  0  0  0  0  0  0  0  0  0
   -1.7531    4.9769    4.3109 H   0  0  0  0  0  0  0  0  0  0  0  0
   -4.0218   -1.6871    8.0709 H   0  0  0  0  0  0  0  0  0  0  0  0
   -3.7349   -3.0321    7.1059 H   0  0  0  0  0  0  0  0  0  0  0  0
   -1.8316   -1.0993    2.1113 H   0  0  0  0  0  0  0  0  0  0  0  0
   -2.1379   -2.6191    2.7585 H   0  0  0  0  0  0  0  0  0  0  0  0
   -0.0939    4.2743    3.5011 H   0  0  0  0  0  0  0  0  0  0  0  0
    0.6171    5.8018    1.7112 H   0  0  0  0  0  0  0  0  0  0  0  0
   -0.5744    5.8276   -0.4404 H   0  0  0  0  0  0  0  0  0  0  0  0
   -2.4847    4.3269   -0.8178 H   0  0  0  0  0  0  0  0  0  0  0  0
   -4.8976    1.9756   -0.3869 H   0  0  0  0  0  0  0  0  0  0  0  0
   -3.3540    2.4484   -1.1366 H   0  0  0  0  0  0  0  0  0  0  0  0
   -4.4576    3.6960   -0.5091 H   0  0  0  0  0  0  0  0  0  0  0  0
  1  2  1  0  0  0  0
  1 23  1  0  0  0  0
  1 24  1  0  0  0  0
  1 25  1  0  0  0  0
  2  3  1  0  0  0  0
  2 26  1  0  0  0  0
  2 27  1  0  0  0  0
  3 12  2  0  0  0  0
  3  4  1  0  0  0  0
  4  5  2  0  0  0  0
  4 15  1  0  0  0  0
  5  6  1  0  0  0  0
  6 11  2  0  0  0  0
  6  7  1  0  0  0  0
  7  8  2  0  0  0  0
  7 14  1  0  0  0  0
  8  9  1  0  0  0  0
  9 10  2  0  0  0  0
  9 13  1  0  0  0  0
 10 11  1  0  0  0  0
 11 12  1  0  0  0  0
 13 28  1  0  0  0  0
 13 29  1  0  0  0  0
 14 30  1  0  0  0  0
 14 31  1  0  0  0  0
 15 20  2  0  0  0  0
 15 16  1  0  0  0  0
 16 17  2  0  0  0  0
 16 32  1  0  0  0  0
 17 18  1  0  0  0  0
 17 33  1  0  0  0  0
 18 19  2  0  0  0  0
 18 34  1  0  0  0  0
 19 20  1  0  0  0  0
 19 35  1  0  0  0  0
 20 21  1  0  0  0  0
 21 22  1  0  0  0  0
 22 36  1  0  0  0  0
 22 37  1  0  0  0  0
 22 38  1  0  0  0  0
M  END
$$$$
ZINC03814847
  -OEChem-08230709403D

 39 41  0     0  0  0  0  0  0999 V2000
   -3.9001    5.1048    4.4334 C   0  0  0  0  0  0  0  0  0  0  0  0
   -2.5595    4.5243    4.8880 C   0  0  0  0  0  0  0  0  0  0  0  0
   -2.5578    3.0332    4.6697 C   0  0  0  0  0  0  0  0  0  0  0  0
   -2.1394    2.5113    3.4334 C   0  0  0  0  0  0  0  0  0  0  0  0
   -2.1271    1.2029    3.2282 N   0  0  0  0  0  0  0  0  0  0  0  0
   -2.5188    0.3854    4.1997 C   0  0  0  0  0  0  0  0  0  0  0  0
   -2.5269   -1.0695    4.0328 C   0  0  0  0  0  0  0  0  0  0  0  0
   -2.9340   -1.8052    5.0576 N   0  0  0  0  0  0  0  0  0  0  0  0
   -3.3213   -1.2439    6.1988 C   0  0  0  0  0  0  0  0  0  0  0  0
   -2.9458    0.9111    5.4445 C   0  0  0  0  0  0  0  0  0  0  0  0
   -2.9522    2.2340    5.6352 N   0  0  0  0  0  0  0  0  0  0  0  0
   -3.7336   -2.0698    7.2274 N   0  0  0  0  0  0  0  0  0  0  0  0
   -2.1259   -1.6536    2.8509 N   0  0  0  0  0  0  0  0  0  0  0  0
   -1.7037    3.4300    2.3556 C   0  0  0  0  0  0  0  0  0  0  0  0
   -0.6192    4.2821    2.5575 C   0  0  0  0  0  0  0  0  0  0  0  0
   -0.2209    5.1392    1.5525 C   0  0  0  0  0  0  0  0  0  0  0  0
   -0.8916    5.1536    0.3417 C   0  0  0  0  0  0  0  0  0  0  0  0
   -1.9651    4.3103    0.1288 C   0  0  0  0  0  0  0  0  0  0  0  0
   -2.3763    3.4435    1.1291 C   0  0  0  0  0  0  0  0  0  0  0  0
   -3.4317    2.6144    0.9213 O   0  0  0  0  0  0  0  0  0  0  0  0
   -4.0733    2.6880   -0.3534 C   0  0  0  0  0  0  0  0  0  0  0  0
   -3.9013    6.1833    4.5913 H   0  0  0  0  0  0  0  0  0  0  0  0
   -4.0476    4.8924    3.3745 H   0  0  0  0  0  0  0  0  0  0  0  0
   -4.7064    4.6522    5.0105 H   0  0  0  0  0  0  0  0  0  0  0  0
   -2.4119    4.7367    5.9469 H   0  0  0  0  0  0  0  0  0  0  0  0
   -1.7531    4.9769    4.3109 H   0  0  0  0  0  0  0  0  0  0  0  0
   -4.0218   -1.6871    8.0709 H   0  0  0  0  0  0  0  0  0  0  0  0
   -3.7349   -3.0321    7.1059 H   0  0  0  0  0  0  0  0  0  0  0  0
   -1.8316   -1.0993    2.1113 H   0  0  0  0  0  0  0  0  0  0  0  0
   -2.1379   -2.6191    2.7585 H   0  0  0  0  0  0  0  0  0  0  0  0
   -0.0939    4.2743    3.5011 H   0  0  0  0  0  0  0  0  0  0  0  0
    0.6171    5.8018    1.7112 H   0  0  0  0  0  0  0  0  0  0  0  0
   -0.5744    5.8276   -0.4404 H   0  0  0  0  0  0  0  0  0  0  0  0
   -2.4847    4.3269   -0.8178 H   0  0  0  0  0  0  0  0  0  0  0  0
   -4.8976    1.9756   -0.3869 H   0  0  0  0  0  0  0  0  0  0  0  0
   -3.3540    2.4484   -1.1366 H   0  0  0  0  0  0  0  0  0  0  0  0
   -4.4576    3.6960   -0.5091 H   0  0  0  0  0  0  0  0  0  0  0  0
   -3.3565    0.0853    6.4685 N   0  3  0  0  0  0  0  0  0  0  0  0
   -3.6664    0.4058    7.3636 H   0  0  0  0  0  0  0  0  0  0  0  0
  1  2  1  0  0  0  0
  1 22  1  0  0  0  0
  1 23  1  0  0  0  0
  1 24  1  0  0  0  0
  2  3  1  0  0  0  0
  2 25  1  0  0  0  0
  2 26  1  0  0  0  0
  3 11  2  0  0  0  0
  3  4  1  0  0  0  0
  4  5  2  0  0  0  0
  4 14  1  0  0  0  0
  5  6  1  0  0  0  0
  6 10  2  0  0  0  0
  6  7  1  0  0  0  0
  7  8  2  0  0  0  0
  7 13  1  0  0  0  0
  8  9  1  0  0  0  0
  9 12  1  0  0  0  0
  9 38  2  0  0  0  0
 10 11  1  0  0  0  0
 10 38  1  0  0  0  0
 12 27  1  0  0  0  0
 12 28  1  0  0  0  0
 13 29  1  0  0  0  0
 13 30  1  0  0  0  0
 14 19  2  0  0  0  0
 14 15  1  0  0  0  0
 15 16  2  0  0  0  0
 15 31  1  0  0  0  0
 16 17  1  0  0  0  0
 16 32  1  0  0  0  0
 17 18  2  0  0  0  0
 17 33  1  0  0  0  0
 18 19  1  0  0  0  0
 18 34  1  0  0  0  0
 19 20  1  0  0  0  0
 20 21  1  0  0  0  0
 21 35  1  0  0  0  0
 21 36  1  0  0  0  0
 21 37  1  0  0  0  0
 38 39  1  0  0  0  0
M  CHG  1  38   1
M  END
$$$$
ZINC03814848
  -OEChem-08230709403D

 44 48  0     0  0  0  0  0  0999 V2000
   -0.6766    1.9769   -3.5916 C   0  0  0  0  0  0  0  0  0  0  0  0
   -1.9757    2.4491   -3.5403 C   0  0  0  0  0  0  0  0  0  0  0  0
   -2.6470    2.4861   -2.3347 C   0  0  0  0  0  0  0  0  0  0  0  0
   -2.0177    2.0484   -1.1749 C   0  0  0  0  0  0  0  0  0  0  0  0
   -0.7165    1.5721   -1.2267 C   0  0  0  0  0  0  0  0  0  0  0  0
   -0.0500    1.5407   -2.4405 C   0  0  0  0  0  0  0  0  0  0  0  0
   -0.0127    1.0858    0.0080 C   0  0  0  0  0  0  0  0  0  0  0  0
   -0.6927    1.5588    1.2611 C   0  0  0  0  0  0  0  0  0  0  0  0
   -0.0010    1.5114    2.4621 C   0  0  0  0  0  0  0  0  0  0  0  0
   -0.6037    1.9356    3.6303 C   0  0  0  0  0  0  0  0  0  0  0  0
   -1.9026    2.4104    3.6102 C   0  0  0  0  0  0  0  0  0  0  0  0
   -2.5976    2.4627    2.4186 C   0  0  0  0  0  0  0  0  0  0  0  0
   -1.9921    2.0380    1.2415 C   0  0  0  0  0  0  0  0  0  0  0  0
   -2.7025    2.0978    0.0410 N   0  0  0  0  0  0  0  0  0  0  0  0
   -4.1630    2.2125    0.0570 C   0  0  0  0  0  0  0  0  0  0  0  0
   -4.7751    0.8355    0.0573 C   0  0  0  0  0  0  0  0  0  0  0  0
   -5.1339    0.2396    1.2659 C   0  0  0  0  0  0  0  0  0  0  0  0
   -5.6746   -0.9600    1.2912 N   0  0  0  0  0  0  0  0  0  0  0  0
   -5.8720   -1.6179    0.1461 C   0  0  0  0  0  0  0  0  0  0  0  0
   -5.5005   -1.0099   -1.0790 C   0  0  0  0  0  0  0  0  0  0  0  0
   -4.9608    0.2047   -1.0828 N   0  0  0  0  0  0  0  0  0  0  0  0
   -5.7328   -1.7619   -2.3134 C   0  0  0  0  0  0  0  0  0  0  0  0
   -6.2773   -2.9662   -2.2081 N   0  0  0  0  0  0  0  0  0  0  0  0
   -6.6012   -3.4758   -1.0239 C   0  0  0  0  0  0  0  0  0  0  0  0
   -6.4136   -2.8419    0.1165 N   0  0  0  0  0  0  0  0  0  0  0  0
   -7.1649   -4.7369   -0.9864 N   0  0  0  0  0  0  0  0  0  0  0  0
   -5.3980   -1.2360   -3.5419 N   0  0  0  0  0  0  0  0  0  0  0  0
   -0.1507    1.9492   -4.5345 H   0  0  0  0  0  0  0  0  0  0  0  0
   -2.4639    2.7887   -4.4419 H   0  0  0  0  0  0  0  0  0  0  0  0
   -3.6612    2.8548   -2.2924 H   0  0  0  0  0  0  0  0  0  0  0  0
    0.9644    1.1731   -2.4873 H   0  0  0  0  0  0  0  0  0  0  0  0
    0.0021   -0.0041    0.0020 H   0  0  0  0  0  0  0  0  0  0  0  0
    1.0131    1.4544    0.0002 H   0  0  0  0  0  0  0  0  0  0  0  0
    1.0133    1.1410    2.4845 H   0  0  0  0  0  0  0  0  0  0  0  0
   -0.0592    1.8960    4.5621 H   0  0  0  0  0  0  0  0  0  0  0  0
   -2.3725    2.7394    4.5253 H   0  0  0  0  0  0  0  0  0  0  0  0
   -3.6118    2.8334    2.4008 H   0  0  0  0  0  0  0  0  0  0  0  0
   -4.4754    2.7492    0.9528 H   0  0  0  0  0  0  0  0  0  0  0  0
   -4.4943    2.7573   -0.8270 H   0  0  0  0  0  0  0  0  0  0  0  0
   -4.9702    0.7708    2.1919 H   0  0  0  0  0  0  0  0  0  0  0  0
   -7.4112   -5.1330   -0.1359 H   0  0  0  0  0  0  0  0  0  0  0  0
   -7.3142   -5.2261   -1.8106 H   0  0  0  0  0  0  0  0  0  0  0  0
   -5.0011   -0.3529   -3.5996 H   0  0  0  0  0  0  0  0  0  0  0  0
   -5.5593   -1.7489   -4.3493 H   0  0  0  0  0  0  0  0  0  0  0  0
  1  6  2  0  0  0  0
  1  2  1  0  0  0  0
  1 28  1  0  0  0  0
  2  3  2  0  0  0  0
  2 29  1  0  0  0  0
  3  4  1  0  0  0  0
  3 30  1  0  0  0  0
  4 14  1  0  0  0  0
  4  5  2  0  0  0  0
  5  6  1  0  0  0  0
  5  7  1  0  0  0  0
  6 31  1  0  0  0  0
  7  8  1  0  0  0  0
  7 32  1  0  0  0  0
  7 33  1  0  0  0  0
  8 13  2  0  0  0  0
  8  9  1  0  0  0  0
  9 10  2  0  0  0  0
  9 34  1  0  0  0  0
 10 11  1  0  0  0  0
 10 35  1  0  0  0  0
 11 12  2  0  0  0  0
 11 36  1  0  0  0  0
 12 13  1  0  0  0  0
 12 37  1  0  0  0  0
 13 14  1  0  0  0  0
 14 15  1  0  0  0  0
 15 16  1  0  0  0  0
 15 38  1  0  0  0  0
 15 39  1  0  0  0  0
 16 21  2  0  0  0  0
 16 17  1  0  0  0  0
 17 18  2  0  0  0  0
 17 40  1  0  0  0  0
 18 19  1  0  0  0  0
 19 25  2  0  0  0  0
 19 20  1  0  0  0  0
 20 21  1  0  0  0  0
 20 22  2  0  0  0  0
 22 23  1  0  0  0  0
 22 27  1  0  0  0  0
 23 24  2  0  0  0  0
 24 25  1  0  0  0  0
 24 26  1  0  0  0  0
 26 41  1  0  0  0  0
 26 42  1  0  0  0  0
 27 43  1  0  0  0  0
 27 44  1  0  0  0  0
M  END
$$$$
ZINC03814848
  -OEChem-08230709403D

 45 49  0     0  0  0  0  0  0999 V2000
   -0.6766    1.9769   -3.5916 C   0  0  0  0  0  0  0  0  0  0  0  0
   -1.9757    2.4491   -3.5403 C   0  0  0  0  0  0  0  0  0  0  0  0
   -2.6470    2.4861   -2.3347 C   0  0  0  0  0  0  0  0  0  0  0  0
   -2.0177    2.0484   -1.1749 C   0  0  0  0  0  0  0  0  0  0  0  0
   -0.7165    1.5721   -1.2267 C   0  0  0  0  0  0  0  0  0  0  0  0
   -0.0500    1.5407   -2.4405 C   0  0  0  0  0  0  0  0  0  0  0  0
   -0.0127    1.0858    0.0080 C   0  0  0  0  0  0  0  0  0  0  0  0
   -0.6927    1.5588    1.2611 C   0  0  0  0  0  0  0  0  0  0  0  0
   -0.0010    1.5114    2.4621 C   0  0  0  0  0  0  0  0  0  0  0  0
   -0.6037    1.9356    3.6303 C   0  0  0  0  0  0  0  0  0  0  0  0
   -1.9026    2.4104    3.6102 C   0  0  0  0  0  0  0  0  0  0  0  0
   -2.5976    2.4627    2.4186 C   0  0  0  0  0  0  0  0  0  0  0  0
   -1.9921    2.0380    1.2415 C   0  0  0  0  0  0  0  0  0  0  0  0
   -2.7025    2.0978    0.0410 N   0  0  0  0  0  0  0  0  0  0  0  0
   -4.1630    2.2125    0.0570 C   0  0  0  0  0  0  0  0  0  0  0  0
   -4.7751    0.8355    0.0573 C   0  0  0  0  0  0  0  0  0  0  0  0
   -5.1339    0.2396    1.2659 C   0  0  0  0  0  0  0  0  0  0  0  0
   -5.6746   -0.9600    1.2912 N   0  0  0  0  0  0  0  0  0  0  0  0
   -5.8720   -1.6179    0.1461 C   0  0  0  0  0  0  0  0  0  0  0  0
   -5.5005   -1.0099   -1.0790 C   0  0  0  0  0  0  0  0  0  0  0  0
   -4.9608    0.2047   -1.0828 N   0  0  0  0  0  0  0  0  0  0  0  0
   -5.7328   -1.7619   -2.3134 C   0  0  0  0  0  0  0  0  0  0  0  0
   -6.2773   -2.9662   -2.2081 N   0  0  0  0  0  0  0  0  0  0  0  0
   -6.6012   -3.4758   -1.0239 C   0  0  0  0  0  0  0  0  0  0  0  0
   -7.1649   -4.7369   -0.9864 N   0  0  0  0  0  0  0  0  0  0  0  0
   -5.3980   -1.2360   -3.5419 N   0  0  0  0  0  0  0  0  0  0  0  0
   -0.1507    1.9492   -4.5345 H   0  0  0  0  0  0  0  0  0  0  0  0
   -2.4639    2.7887   -4.4419 H   0  0  0  0  0  0  0  0  0  0  0  0
   -3.6612    2.8548   -2.2924 H   0  0  0  0  0  0  0  0  0  0  0  0
    0.9644    1.1731   -2.4873 H   0  0  0  0  0  0  0  0  0  0  0  0
    0.0021   -0.0041    0.0020 H   0  0  0  0  0  0  0  0  0  0  0  0
    1.0131    1.4544    0.0002 H   0  0  0  0  0  0  0  0  0  0  0  0
    1.0133    1.1410    2.4845 H   0  0  0  0  0  0  0  0  0  0  0  0
   -0.0592    1.8960    4.5621 H   0  0  0  0  0  0  0  0  0  0  0  0
   -2.3725    2.7394    4.5253 H   0  0  0  0  0  0  0  0  0  0  0  0
   -3.6118    2.8334    2.4008 H   0  0  0  0  0  0  0  0  0  0  0  0
   -4.4754    2.7492    0.9528 H   0  0  0  0  0  0  0  0  0  0  0  0
   -4.4943    2.7573   -0.8270 H   0  0  0  0  0  0  0  0  0  0  0  0
   -4.9702    0.7708    2.1919 H   0  0  0  0  0  0  0  0  0  0  0  0
   -7.4112   -5.1330   -0.1359 H   0  0  0  0  0  0  0  0  0  0  0  0
   -7.3142   -5.2261   -1.8106 H   0  0  0  0  0  0  0  0  0  0  0  0
   -5.0011   -0.3529   -3.5996 H   0  0  0  0  0  0  0  0  0  0  0  0
   -5.5593   -1.7489   -4.3493 H   0  0  0  0  0  0  0  0  0  0  0  0
   -6.4339   -2.8755    0.1813 N   0  3  0  0  0  0  0  0  0  0  0  0
   -6.6883   -3.2851    1.0574 H   0  0  0  0  0  0  0  0  0  0  0  0
  1  6  2  0  0  0  0
  1  2  1  0  0  0  0
  1 27  1  0  0  0  0
  2  3  2  0  0  0  0
  2 28  1  0  0  0  0
  3  4  1  0  0  0  0
  3 29  1  0  0  0  0
  4 14  1  0  0  0  0
  4  5  2  0  0  0  0
  5  6  1  0  0  0  0
  5  7  1  0  0  0  0
  6 30  1  0  0  0  0
  7  8  1  0  0  0  0
  7 31  1  0  0  0  0
  7 32  1  0  0  0  0
  8 13  2  0  0  0  0
  8  9  1  0  0  0  0
  9 10  2  0  0  0  0
  9 33  1  0  0  0  0
 10 11  1  0  0  0  0
 10 34  1  0  0  0  0
 11 12  2  0  0  0  0
 11 35  1  0  0  0  0
 12 13  1  0  0  0  0
 12 36  1  0  0  0  0
 13 14  1  0  0  0  0
 14 15  1  0  0  0  0
 15 16  1  0  0  0  0
 15 37  1  0  0  0  0
 15 38  1  0  0  0  0
 16 21  2  0  0  0  0
 16 17  1  0  0  0  0
 17 18  2  0  0  0  0
 17 39  1  0  0  0  0
 18 19  1  0  0  0  0
 19 20  2  0  0  0  0
 19 44  1  0  0  0  0
 20 21  1  0  0  0  0
 20 22  1  0  0  0  0
 22 23  2  0  0  0  0
 22 26  1  0  0  0  0
 23 24  1  0  0  0  0
 24 25  1  0  0  0  0
 24 44  2  0  0  0  0
 25 40  1  0  0  0  0
 25 41  1  0  0  0  0
 26 42  1  0  0  0  0
 26 43  1  0  0  0  0
 44 45  1  0  0  0  0
M  CHG  1  44   1
M  END
$$$$
ZINC03814849
  -OEChem-08230709403D

 42 46  0     0  0  0  0  0  0999 V2000
    4.8349   -3.6823   -1.7118 C   0  0  0  0  0  0  0  0  0  0  0  0
    5.0859   -3.3780   -3.0363 C   0  0  0  0  0  0  0  0  0  0  0  0
    4.0830   -2.8422   -3.8274 C   0  0  0  0  0  0  0  0  0  0  0  0
    2.8321   -2.6140   -3.2863 C   0  0  0  0  0  0  0  0  0  0  0  0
    2.5726   -2.9200   -1.9480 C   0  0  0  0  0  0  0  0  0  0  0  0
    3.5838   -3.4558   -1.1654 C   0  0  0  0  0  0  0  0  0  0  0  0
    1.3051   -2.6892   -1.4026 N   0  0  0  0  0  0  0  0  0  0  0  0
    0.1343   -2.9100   -2.1360 C   0  0  0  0  0  0  0  0  0  0  0  0
   -0.9923   -3.4269   -1.5219 C   0  0  0  0  0  0  0  0  0  0  0  0
   -2.1462   -3.6386   -2.2557 C   0  0  0  0  0  0  0  0  0  0  0  0
   -2.1850   -3.3336   -3.6030 C   0  0  0  0  0  0  0  0  0  0  0  0
   -1.0649   -2.8114   -4.2288 C   0  0  0  0  0  0  0  0  0  0  0  0
    0.0895   -2.5974   -3.5000 C   0  0  0  0  0  0  0  0  0  0  0  0
    1.5333   -1.9327   -4.2696 S   0  0  0  0  0  0  0  0  0  0  0  0
    1.2007   -2.2085   -0.0227 C   0  0  0  0  0  0  0  0  0  0  0  0
    1.2095   -0.7016   -0.0137 C   0  0  0  0  0  0  0  0  0  0  0  0
    0.0021   -0.0041    0.0020 C   0  0  0  0  0  0  0  0  0  0  0  0
   -0.0158    1.3119    0.0093 N   0  0  0  0  0  0  0  0  0  0  0  0
    1.1366    1.9864    0.0019 C   0  0  0  0  0  0  0  0  0  0  0  0
    2.3609    1.2725   -0.0136 C   0  0  0  0  0  0  0  0  0  0  0  0
    2.3567   -0.0566   -0.0212 N   0  0  0  0  0  0  0  0  0  0  0  0
    3.6035    2.0465   -0.0218 C   0  0  0  0  0  0  0  0  0  0  0  0
    3.5059    3.3687   -0.0142 N   0  0  0  0  0  0  0  0  0  0  0  0
    2.3221    3.9732    0.0003 C   0  0  0  0  0  0  0  0  0  0  0  0
    1.1745    3.3246    0.0082 N   0  0  0  0  0  0  0  0  0  0  0  0
    2.2930    5.3547    0.0080 N   0  0  0  0  0  0  0  0  0  0  0  0
    4.8316    1.4225   -0.0368 N   0  0  0  0  0  0  0  0  0  0  0  0
    5.6202   -4.1000   -1.0993 H   0  0  0  0  0  0  0  0  0  0  0  0
    6.0650   -3.5584   -3.4551 H   0  0  0  0  0  0  0  0  0  0  0  0
    4.2777   -2.6042   -4.8627 H   0  0  0  0  0  0  0  0  0  0  0  0
    3.3953   -3.6960   -0.1294 H   0  0  0  0  0  0  0  0  0  0  0  0
   -0.9697   -3.6681   -0.4694 H   0  0  0  0  0  0  0  0  0  0  0  0
   -3.0222   -4.0453   -1.7723 H   0  0  0  0  0  0  0  0  0  0  0  0
   -3.0894   -3.5028   -4.1686 H   0  0  0  0  0  0  0  0  0  0  0  0
   -1.0937   -2.5729   -5.2818 H   0  0  0  0  0  0  0  0  0  0  0  0
    2.0459   -2.5803    0.5565 H   0  0  0  0  0  0  0  0  0  0  0  0
    0.2714   -2.5690    0.4183 H   0  0  0  0  0  0  0  0  0  0  0  0
   -0.9296   -0.5503    0.0080 H   0  0  0  0  0  0  0  0  0  0  0  0
    1.4429    5.8218    0.0189 H   0  0  0  0  0  0  0  0  0  0  0  0
    3.1226    5.8573    0.0025 H   0  0  0  0  0  0  0  0  0  0  0  0
    4.8835    0.4539   -0.0422 H   0  0  0  0  0  0  0  0  0  0  0  0
    5.6445    1.9518   -0.0421 H   0  0  0  0  0  0  0  0  0  0  0  0
  1  6  2  0  0  0  0
  1  2  1  0  0  0  0
  1 28  1  0  0  0  0
  2  3  2  0  0  0  0
  2 29  1  0  0  0  0
  3  4  1  0  0  0  0
  3 30  1  0  0  0  0
  4 14  1  0  0  0  0
  4  5  2  0  0  0  0
  5  6  1  0  0  0  0
  5  7  1  0  0  0  0
  6 31  1  0  0  0  0
  7  8  1  0  0  0  0
  7 15  1  0  0  0  0
  8 13  2  0  0  0  0
  8  9  1  0  0  0  0
  9 10  2  0  0  0  0
  9 32  1  0  0  0  0
 10 11  1  0  0  0  0
 10 33  1  0  0  0  0
 11 12  2  0  0  0  0
 11 34  1  0  0  0  0
 12 13  1  0  0  0  0
 12 35  1  0  0  0  0
 13 14  1  0  0  0  0
 15 16  1  0  0  0  0
 15 36  1  0  0  0  0
 15 37  1  0  0  0  0
 16 21  2  0  0  0  0
 16 17  1  0  0  0  0
 17 18  2  0  0  0  0
 17 38  1  0  0  0  0
 18 19  1  0  0  0  0
 19 25  2  0  0  0  0
 19 20  1  0  0  0  0
 20 21  1  0  0  0  0
 20 22  2  0  0  0  0
 22 23  1  0  0  0  0
 22 27  1  0  0  0  0
 23 24  2  0  0  0  0
 24 25  1  0  0  0  0
 24 26  1  0  0  0  0
 26 39  1  0  0  0  0
 26 40  1  0  0  0  0
 27 41  1  0  0  0  0
 27 42  1  0  0  0  0
M  END
$$$$
ZINC03814849
  -OEChem-08230709403D

 43 47  0     0  0  0  0  0  0999 V2000
    4.8349   -3.6823   -1.7118 C   0  0  0  0  0  0  0  0  0  0  0  0
    5.0859   -3.3780   -3.0363 C   0  0  0  0  0  0  0  0  0  0  0  0
    4.0830   -2.8422   -3.8274 C   0  0  0  0  0  0  0  0  0  0  0  0
    2.8321   -2.6140   -3.2863 C   0  0  0  0  0  0  0  0  0  0  0  0
    2.5726   -2.9200   -1.9480 C   0  0  0  0  0  0  0  0  0  0  0  0
    3.5838   -3.4558   -1.1654 C   0  0  0  0  0  0  0  0  0  0  0  0
    1.3051   -2.6892   -1.4026 N   0  0  0  0  0  0  0  0  0  0  0  0
    0.1343   -2.9100   -2.1360 C   0  0  0  0  0  0  0  0  0  0  0  0
   -0.9923   -3.4269   -1.5219 C   0  0  0  0  0  0  0  0  0  0  0  0
   -2.1462   -3.6386   -2.2557 C   0  0  0  0  0  0  0  0  0  0  0  0
   -2.1850   -3.3336   -3.6030 C   0  0  0  0  0  0  0  0  0  0  0  0
   -1.0649   -2.8114   -4.2288 C   0  0  0  0  0  0  0  0  0  0  0  0
    0.0895   -2.5974   -3.5000 C   0  0  0  0  0  0  0  0  0  0  0  0
    1.5333   -1.9327   -4.2696 S   0  0  0  0  0  0  0  0  0  0  0  0
    1.2007   -2.2085   -0.0227 C   0  0  0  0  0  0  0  0  0  0  0  0
    1.2095   -0.7016   -0.0137 C   0  0  0  0  0  0  0  0  0  0  0  0
    0.0021   -0.0041    0.0020 C   0  0  0  0  0  0  0  0  0  0  0  0
   -0.0158    1.3119    0.0093 N   0  0  0  0  0  0  0  0  0  0  0  0
    1.1366    1.9864    0.0019 C   0  0  0  0  0  0  0  0  0  0  0  0
    2.3609    1.2725   -0.0136 C   0  0  0  0  0  0  0  0  0  0  0  0
    2.3567   -0.0566   -0.0212 N   0  0  0  0  0  0  0  0  0  0  0  0
    3.6035    2.0465   -0.0218 C   0  0  0  0  0  0  0  0  0  0  0  0
    3.5059    3.3687   -0.0142 N   0  0  0  0  0  0  0  0  0  0  0  0
    2.3221    3.9732    0.0003 C   0  0  0  0  0  0  0  0  0  0  0  0
    2.2930    5.3547    0.0080 N   0  0  0  0  0  0  0  0  0  0  0  0
    4.8316    1.4225   -0.0368 N   0  0  0  0  0  0  0  0  0  0  0  0
    5.6202   -4.1000   -1.0993 H   0  0  0  0  0  0  0  0  0  0  0  0
    6.0650   -3.5584   -3.4551 H   0  0  0  0  0  0  0  0  0  0  0  0
    4.2777   -2.6042   -4.8627 H   0  0  0  0  0  0  0  0  0  0  0  0
    3.3953   -3.6960   -0.1294 H   0  0  0  0  0  0  0  0  0  0  0  0
   -0.9697   -3.6681   -0.4694 H   0  0  0  0  0  0  0  0  0  0  0  0
   -3.0222   -4.0453   -1.7723 H   0  0  0  0  0  0  0  0  0  0  0  0
   -3.0894   -3.5028   -4.1686 H   0  0  0  0  0  0  0  0  0  0  0  0
   -1.0937   -2.5729   -5.2818 H   0  0  0  0  0  0  0  0  0  0  0  0
    2.0459   -2.5803    0.5565 H   0  0  0  0  0  0  0  0  0  0  0  0
    0.2714   -2.5690    0.4183 H   0  0  0  0  0  0  0  0  0  0  0  0
   -0.9296   -0.5503    0.0080 H   0  0  0  0  0  0  0  0  0  0  0  0
    1.4429    5.8218    0.0189 H   0  0  0  0  0  0  0  0  0  0  0  0
    3.1226    5.8573    0.0025 H   0  0  0  0  0  0  0  0  0  0  0  0
    4.8835    0.4539   -0.0422 H   0  0  0  0  0  0  0  0  0  0  0  0
    5.6445    1.9518   -0.0421 H   0  0  0  0  0  0  0  0  0  0  0  0
    1.1097    3.3640    0.0090 N   0  3  0  0  0  0  0  0  0  0  0  0
    0.2341    3.8469    0.0199 H   0  0  0  0  0  0  0  0  0  0  0  0
  1  6  2  0  0  0  0
  1  2  1  0  0  0  0
  1 27  1  0  0  0  0
  2  3  2  0  0  0  0
  2 28  1  0  0  0  0
  3  4  1  0  0  0  0
  3 29  1  0  0  0  0
  4 14  1  0  0  0  0
  4  5  2  0  0  0  0
  5  6  1  0  0  0  0
  5  7  1  0  0  0  0
  6 30  1  0  0  0  0
  7  8  1  0  0  0  0
  7 15  1  0  0  0  0
  8 13  2  0  0  0  0
  8  9  1  0  0  0  0
  9 10  2  0  0  0  0
  9 31  1  0  0  0  0
 10 11  1  0  0  0  0
 10 32  1  0  0  0  0
 11 12  2  0  0  0  0
 11 33  1  0  0  0  0
 12 13  1  0  0  0  0
 12 34  1  0  0  0  0
 13 14  1  0  0  0  0
 15 16  1  0  0  0  0
 15 35  1  0  0  0  0
 15 36  1  0  0  0  0
 16 21  2  0  0  0  0
 16 17  1  0  0  0  0
 17 18  2  0  0  0  0
 17 37  1  0  0  0  0
 18 19  1  0  0  0  0
 19 20  2  0  0  0  0
 19 42  1  0  0  0  0
 20 21  1  0  0  0  0
 20 22  1  0  0  0  0
 22 23  2  0  0  0  0
 22 26  1  0  0  0  0
 23 24  1  0  0  0  0
 24 25  1  0  0  0  0
 24 42  2  0  0  0  0
 25 38  1  0  0  0  0
 25 39  1  0  0  0  0
 26 40  1  0  0  0  0
 26 41  1  0  0  0  0
 42 43  1  0  0  0  0
M  CHG  1  42   1
M  END
$$$$
ZINC03814850
  -OEChem-08230709403D

 50 52  0     1  0  0  0  0  0999 V2000
   -0.2591   -3.1627   -0.7554 C   0  0  0  0  0  0  0  0  0  0  0  0
    1.0616   -2.8076   -0.2303 N   0  0  3  0  0  0  0  0  0  0  0  0
    1.1747   -2.0734    1.0324 C   0  0  0  0  0  0  0  0  0  0  0  0
    1.1654   -0.5922    0.7548 C   0  0  0  0  0  0  0  0  0  0  0  0
    2.3664    0.1099    0.7349 C   0  0  0  0  0  0  0  0  0  0  0  0
    2.3929    1.4505    0.4869 C   0  0  0  0  0  0  0  0  0  0  0  0
    1.1934    2.1345    0.2479 C   0  0  0  0  0  0  0  0  0  0  0  0
   -0.0287    1.4192    0.2689 C   0  0  0  0  0  0  0  0  0  0  0  0
   -0.0217    0.0431    0.5266 C   0  0  0  0  0  0  0  0  0  0  0  0
   -1.5109   -0.8487    0.5565 Cl  0  0  0  0  0  0  0  0  0  0  0  0
   -1.2281    2.1306    0.0193 C   0  0  0  0  0  0  0  0  0  0  0  0
   -1.1498    3.4331   -0.2118 N   0  0  0  0  0  0  0  0  0  0  0  0
    0.0196    4.0665   -0.2224 C   0  0  0  0  0  0  0  0  0  0  0  0
    1.1662    3.4522   -0.0014 N   0  0  0  0  0  0  0  0  0  0  0  0
    0.0344    5.4262   -0.4752 N   0  0  0  0  0  0  0  0  0  0  0  0
   -2.4461    1.4853    0.0220 N   0  0  0  0  0  0  0  0  0  0  0  0
    2.2150   -3.1697   -0.9346 C   0  0  0  0  0  0  0  0  0  0  0  0
    3.4662   -2.8280   -0.4395 C   0  0  0  0  0  0  0  0  0  0  0  0
    4.6096   -3.1906   -1.1344 C   0  0  0  0  0  0  0  0  0  0  0  0
    4.5028   -3.8874   -2.3319 C   0  0  0  0  0  0  0  0  0  0  0  0
    3.2498   -4.2245   -2.8296 C   0  0  0  0  0  0  0  0  0  0  0  0
    2.1075   -3.8654   -2.1311 C   0  0  0  0  0  0  0  0  0  0  0  0
    3.1443   -4.9060   -4.0016 O   0  0  0  0  0  0  0  0  0  0  0  0
    1.8253   -5.2188   -4.4537 C   0  0  0  0  0  0  0  0  0  0  0  0
    5.6255   -4.2402   -3.0173 O   0  0  0  0  0  0  0  0  0  0  0  0
    6.1172   -3.3070   -3.9813 C   0  0  0  0  0  0  0  0  0  0  0  0
    5.8353   -2.8603   -0.6466 O   0  0  0  0  0  0  0  0  0  0  0  0
    5.8702   -2.1441    0.5894 C   0  0  0  0  0  0  0  0  0  0  0  0
   -0.6214   -2.3615   -1.3996 H   0  0  0  0  0  0  0  0  0  0  0  0
   -0.1853   -4.0859   -1.3303 H   0  0  0  0  0  0  0  0  0  0  0  0
   -0.9532   -3.3049    0.0729 H   0  0  0  0  0  0  0  0  0  0  0  0
    2.1069   -2.3444    1.5281 H   0  0  0  0  0  0  0  0  0  0  0  0
    0.3332   -2.3275    1.6771 H   0  0  0  0  0  0  0  0  0  0  0  0
    3.2922   -0.4152    0.9184 H   0  0  0  0  0  0  0  0  0  0  0  0
    3.3330    1.9820    0.4743 H   0  0  0  0  0  0  0  0  0  0  0  0
    0.8761    5.9081   -0.4874 H   0  0  0  0  0  0  0  0  0  0  0  0
   -0.7969    5.8979   -0.6404 H   0  0  0  0  0  0  0  0  0  0  0  0
   -2.6457    0.8291    0.7079 H   0  0  0  0  0  0  0  0  0  0  0  0
   -3.1036    1.6875   -0.6619 H   0  0  0  0  0  0  0  0  0  0  0  0
    3.5489   -2.2828    0.4891 H   0  0  0  0  0  0  0  0  0  0  0  0
    1.1337   -4.1273   -2.5178 H   0  0  0  0  0  0  0  0  0  0  0  0
    1.3231   -5.8367   -3.7094 H   0  0  0  0  0  0  0  0  0  0  0  0
    1.2629   -4.2965   -4.5996 H   0  0  0  0  0  0  0  0  0  0  0  0
    1.8838   -5.7617   -5.3971 H   0  0  0  0  0  0  0  0  0  0  0  0
    5.3541   -3.1318   -4.7396 H   0  0  0  0  0  0  0  0  0  0  0  0
    6.3598   -2.3668   -3.4860 H   0  0  0  0  0  0  0  0  0  0  0  0
    7.0129   -3.7105   -4.4536 H   0  0  0  0  0  0  0  0  0  0  0  0
    6.9059   -1.9443    0.8644 H   0  0  0  0  0  0  0  0  0  0  0  0
    5.3355   -1.2008    0.4780 H   0  0  0  0  0  0  0  0  0  0  0  0
    5.3960   -2.7407    1.3686 H   0  0  0  0  0  0  0  0  0  0  0  0
  1  2  1  0  0  0  0
  1 29  1  0  0  0  0
  1 30  1  0  0  0  0
  1 31  1  0  0  0  0
  2  3  1  0  0  0  0
  2 17  1  0  0  0  0
  3  4  1  0  0  0  0
  3 32  1  0  0  0  0
  3 33  1  0  0  0  0
  4  9  2  0  0  0  0
  4  5  1  0  0  0  0
  5  6  2  0  0  0  0
  5 34  1  0  0  0  0
  6  7  1  0  0  0  0
  6 35  1  0  0  0  0
  7 14  2  0  0  0  0
  7  8  1  0  0  0  0
  8  9  1  0  0  0  0
  8 11  2  0  0  0  0
  9 10  1  0  0  0  0
 11 12  1  0  0  0  0
 11 16  1  0  0  0  0
 12 13  2  0  0  0  0
 13 14  1  0  0  0  0
 13 15  1  0  0  0  0
 15 36  1  0  0  0  0
 15 37  1  0  0  0  0
 16 38  1  0  0  0  0
 16 39  1  0  0  0  0
 17 22  2  0  0  0  0
 17 18  1  0  0  0  0
 18 19  2  0  0  0  0
 18 40  1  0  0  0  0
 19 20  1  0  0  0  0
 19 27  1  0  0  0  0
 20 21  2  0  0  0  0
 20 25  1  0  0  0  0
 21 22  1  0  0  0  0
 21 23  1  0  0  0  0
 22 41  1  0  0  0  0
 23 24  1  0  0  0  0
 24 42  1  0  0  0  0
 24 43  1  0  0  0  0
 24 44  1  0  0  0  0
 25 26  1  0  0  0  0
 26 45  1  0  0  0  0
 26 46  1  0  0  0  0
 26 47  1  0  0  0  0
 27 28  1  0  0  0  0
 28 48  1  0  0  0  0
 28 49  1  0  0  0  0
 28 50  1  0  0  0  0
M  END
$$$$
ZINC03814850
  -OEChem-08230709403D

 51 53  0     1  0  0  0  0  0999 V2000
   -0.2591   -3.1627   -0.7554 C   0  0  0  0  0  0  0  0  0  0  0  0
    1.0616   -2.8076   -0.2303 N   0  0  3  0  0  0  0  0  0  0  0  0
    1.1747   -2.0734    1.0324 C   0  0  0  0  0  0  0  0  0  0  0  0
    1.1654   -0.5922    0.7548 C   0  0  0  0  0  0  0  0  0  0  0  0
    2.3664    0.1099    0.7349 C   0  0  0  0  0  0  0  0  0  0  0  0
    2.3929    1.4505    0.4869 C   0  0  0  0  0  0  0  0  0  0  0  0
    1.1934    2.1345    0.2479 C   0  0  0  0  0  0  0  0  0  0  0  0
   -0.0287    1.4192    0.2689 C   0  0  0  0  0  0  0  0  0  0  0  0
   -0.0217    0.0431    0.5266 C   0  0  0  0  0  0  0  0  0  0  0  0
   -1.5109   -0.8487    0.5565 Cl  0  0  0  0  0  0  0  0  0  0  0  0
   -1.2281    2.1306    0.0193 C   0  0  0  0  0  0  0  0  0  0  0  0
   -1.1498    3.4331   -0.2118 N   0  0  0  0  0  0  0  0  0  0  0  0
    0.0196    4.0665   -0.2224 C   0  0  0  0  0  0  0  0  0  0  0  0
    0.0344    5.4262   -0.4752 N   0  0  0  0  0  0  0  0  0  0  0  0
   -2.4461    1.4853    0.0220 N   0  0  0  0  0  0  0  0  0  0  0  0
    2.2150   -3.1697   -0.9346 C   0  0  0  0  0  0  0  0  0  0  0  0
    3.4662   -2.8280   -0.4395 C   0  0  0  0  0  0  0  0  0  0  0  0
    4.6096   -3.1906   -1.1344 C   0  0  0  0  0  0  0  0  0  0  0  0
    4.5028   -3.8874   -2.3319 C   0  0  0  0  0  0  0  0  0  0  0  0
    3.2498   -4.2245   -2.8296 C   0  0  0  0  0  0  0  0  0  0  0  0
    2.1075   -3.8654   -2.1311 C   0  0  0  0  0  0  0  0  0  0  0  0
    3.1443   -4.9060   -4.0016 O   0  0  0  0  0  0  0  0  0  0  0  0
    1.8253   -5.2188   -4.4537 C   0  0  0  0  0  0  0  0  0  0  0  0
    5.6255   -4.2402   -3.0173 O   0  0  0  0  0  0  0  0  0  0  0  0
    6.1172   -3.3070   -3.9813 C   0  0  0  0  0  0  0  0  0  0  0  0
    5.8353   -2.8603   -0.6466 O   0  0  0  0  0  0  0  0  0  0  0  0
    5.8702   -2.1441    0.5894 C   0  0  0  0  0  0  0  0  0  0  0  0
   -0.6214   -2.3615   -1.3996 H   0  0  0  0  0  0  0  0  0  0  0  0
   -0.1853   -4.0859   -1.3303 H   0  0  0  0  0  0  0  0  0  0  0  0
   -0.9532   -3.3049    0.0729 H   0  0  0  0  0  0  0  0  0  0  0  0
    2.1069   -2.3444    1.5281 H   0  0  0  0  0  0  0  0  0  0  0  0
    0.3332   -2.3275    1.6771 H   0  0  0  0  0  0  0  0  0  0  0  0
    3.2922   -0.4152    0.9184 H   0  0  0  0  0  0  0  0  0  0  0  0
    3.3330    1.9820    0.4743 H   0  0  0  0  0  0  0  0  0  0  0  0
    0.8761    5.9081   -0.4874 H   0  0  0  0  0  0  0  0  0  0  0  0
   -0.7969    5.8979   -0.6404 H   0  0  0  0  0  0  0  0  0  0  0  0
   -2.6457    0.8291    0.7079 H   0  0  0  0  0  0  0  0  0  0  0  0
   -3.1036    1.6875   -0.6619 H   0  0  0  0  0  0  0  0  0  0  0  0
    3.5489   -2.2828    0.4891 H   0  0  0  0  0  0  0  0  0  0  0  0
    1.1337   -4.1273   -2.5178 H   0  0  0  0  0  0  0  0  0  0  0  0
    1.3231   -5.8367   -3.7094 H   0  0  0  0  0  0  0  0  0  0  0  0
    1.2629   -4.2965   -4.5996 H   0  0  0  0  0  0  0  0  0  0  0  0
    1.8838   -5.7617   -5.3971 H   0  0  0  0  0  0  0  0  0  0  0  0
    5.3541   -3.1318   -4.7396 H   0  0  0  0  0  0  0  0  0  0  0  0
    6.3598   -2.3668   -3.4860 H   0  0  0  0  0  0  0  0  0  0  0  0
    7.0129   -3.7105   -4.4536 H   0  0  0  0  0  0  0  0  0  0  0  0
    6.9059   -1.9443    0.8644 H   0  0  0  0  0  0  0  0  0  0  0  0
    5.3355   -1.2008    0.4780 H   0  0  0  0  0  0  0  0  0  0  0  0
    5.3960   -2.7407    1.3686 H   0  0  0  0  0  0  0  0  0  0  0  0
    1.2270    3.4895   -0.0028 N   0  3  0  0  0  0  0  0  0  0  0  0
    2.1013    3.9746   -0.0128 H   0  0  0  0  0  0  0  0  0  0  0  0
  1  2  1  0  0  0  0
  1 28  1  0  0  0  0
  1 29  1  0  0  0  0
  1 30  1  0  0  0  0
  2  3  1  0  0  0  0
  2 16  1  0  0  0  0
  3  4  1  0  0  0  0
  3 31  1  0  0  0  0
  3 32  1  0  0  0  0
  4  9  2  0  0  0  0
  4  5  1  0  0  0  0
  5  6  2  0  0  0  0
  5 33  1  0  0  0  0
  6  7  1  0  0  0  0
  6 34  1  0  0  0  0
  7  8  2  0  0  0  0
  7 50  1  0  0  0  0
  8  9  1  0  0  0  0
  8 11  1  0  0  0  0
  9 10  1  0  0  0  0
 11 12  2  0  0  0  0
 11 15  1  0  0  0  0
 12 13  1  0  0  0  0
 13 14  1  0  0  0  0
 13 50  2  0  0  0  0
 14 35  1  0  0  0  0
 14 36  1  0  0  0  0
 15 37  1  0  0  0  0
 15 38  1  0  0  0  0
 16 21  2  0  0  0  0
 16 17  1  0  0  0  0
 17 18  2  0  0  0  0
 17 39  1  0  0  0  0
 18 19  1  0  0  0  0
 18 26  1  0  0  0  0
 19 20  2  0  0  0  0
 19 24  1  0  0  0  0
 20 21  1  0  0  0  0
 20 22  1  0  0  0  0
 21 40  1  0  0  0  0
 22 23  1  0  0  0  0
 23 41  1  0  0  0  0
 23 42  1  0  0  0  0
 23 43  1  0  0  0  0
 24 25  1  0  0  0  0
 25 44  1  0  0  0  0
 25 45  1  0  0  0  0
 25 46  1  0  0  0  0
 26 27  1  0  0  0  0
 27 47  1  0  0  0  0
 27 48  1  0  0  0  0
 27 49  1  0  0  0  0
 50 51  1  0  0  0  0
M  CHG  1  50   1
M  END
$$$$
ZINC03814851
  -OEChem-08230709403D

 43 45  0     0  0  0  0  0  0999 V2000
    5.3045    3.4999    0.8013 C   0  0  0  0  0  0  0  0  0  0  0  0
    3.9865    4.0512    0.7688 O   0  0  0  0  0  0  0  0  0  0  0  0
    2.9568    3.1796    0.5980 C   0  0  0  0  0  0  0  0  0  0  0  0
    3.2117    1.8226    0.4646 C   0  0  0  0  0  0  0  0  0  0  0  0
    2.1659    0.9373    0.2911 C   0  0  0  0  0  0  0  0  0  0  0  0
    0.8606    1.4052    0.2502 C   0  0  0  0  0  0  0  0  0  0  0  0
    0.6059    2.7619    0.3831 C   0  0  0  0  0  0  0  0  0  0  0  0
    1.6520    3.6474    0.5566 C   0  0  0  0  0  0  0  0  0  0  0  0
   -0.8116    3.2710    0.3320 C   0  0  0  0  0  0  0  0  0  0  0  0
   -1.4533    3.0604    1.6320 N   0  0  0  0  0  0  0  0  0  0  0  0
   -2.7816    3.4557    1.8291 C   0  0  0  0  0  0  0  0  0  0  0  0
   -3.4878    4.0557    0.7837 C   0  0  0  0  0  0  0  0  0  0  0  0
   -4.7836    4.4451    0.9458 C   0  0  0  0  0  0  0  0  0  0  0  0
   -5.4202    4.2549    2.1794 C   0  0  0  0  0  0  0  0  0  0  0  0
   -4.7093    3.6527    3.2459 C   0  0  0  0  0  0  0  0  0  0  0  0
   -3.3807    3.2544    3.0573 C   0  0  0  0  0  0  0  0  0  0  0  0
   -2.4949    2.5142    4.3539 Cl  0  0  0  0  0  0  0  0  0  0  0  0
   -5.3775    3.4721    4.4821 C   0  0  0  0  0  0  0  0  0  0  0  0
   -6.6356    3.8751    4.5817 N   0  0  0  0  0  0  0  0  0  0  0  0
   -7.2671    4.4366    3.5545 C   0  0  0  0  0  0  0  0  0  0  0  0
   -6.6936    4.6286    2.3825 N   0  0  0  0  0  0  0  0  0  0  0  0
   -8.5813    4.8367    3.7227 N   0  0  0  0  0  0  0  0  0  0  0  0
   -4.7343    2.8913    5.5550 N   0  0  0  0  0  0  0  0  0  0  0  0
   -0.1691    0.5336    0.0794 O   0  0  0  0  0  0  0  0  0  0  0  0
    0.1664   -0.8494   -0.0506 C   0  0  0  0  0  0  0  0  0  0  0  0
    5.3814    2.7906    1.6253 H   0  0  0  0  0  0  0  0  0  0  0  0
    5.5074    2.9877   -0.1392 H   0  0  0  0  0  0  0  0  0  0  0  0
    6.0300    4.3010    0.9425 H   0  0  0  0  0  0  0  0  0  0  0  0
    4.2279    1.4583    0.4961 H   0  0  0  0  0  0  0  0  0  0  0  0
    2.3643   -0.1192    0.1870 H   0  0  0  0  0  0  0  0  0  0  0  0
    1.4536    4.7040    0.6597 H   0  0  0  0  0  0  0  0  0  0  0  0
   -0.8072    4.3353    0.0971 H   0  0  0  0  0  0  0  0  0  0  0  0
   -1.3639    2.7314   -0.4374 H   0  0  0  0  0  0  0  0  0  0  0  0
   -0.9577    2.6470    2.3562 H   0  0  0  0  0  0  0  0  0  0  0  0
   -3.0012    4.2089   -0.1682 H   0  0  0  0  0  0  0  0  0  0  0  0
   -5.3173    4.9034    0.1264 H   0  0  0  0  0  0  0  0  0  0  0  0
   -9.0609    5.2486    2.9871 H   0  0  0  0  0  0  0  0  0  0  0  0
   -9.0228    4.7051    4.5764 H   0  0  0  0  0  0  0  0  0  0  0  0
   -3.8193    3.1371    5.7629 H   0  0  0  0  0  0  0  0  0  0  0  0
   -5.1969    2.2369    6.1015 H   0  0  0  0  0  0  0  0  0  0  0  0
    0.6866   -1.1830    0.8473 H   0  0  0  0  0  0  0  0  0  0  0  0
   -0.7446   -1.4335   -0.1809 H   0  0  0  0  0  0  0  0  0  0  0  0
    0.8130   -0.9865   -0.9173 H   0  0  0  0  0  0  0  0  0  0  0  0
  1  2  1  0  0  0  0
  1 26  1  0  0  0  0
  1 27  1  0  0  0  0
  1 28  1  0  0  0  0
  2  3  1  0  0  0  0
  3  8  2  0  0  0  0
  3  4  1  0  0  0  0
  4  5  2  0  0  0  0
  4 29  1  0  0  0  0
  5  6  1  0  0  0  0
  5 30  1  0  0  0  0
  6  7  2  0  0  0  0
  6 24  1  0  0  0  0
  7  8  1  0  0  0  0
  7  9  1  0  0  0  0
  8 31  1  0  0  0  0
  9 10  1  0  0  0  0
  9 32  1  0  0  0  0
  9 33  1  0  0  0  0
 10 11  1  0  0  0  0
 10 34  1  0  0  0  0
 11 16  2  0  0  0  0
 11 12  1  0  0  0  0
 12 13  2  0  0  0  0
 12 35  1  0  0  0  0
 13 14  1  0  0  0  0
 13 36  1  0  0  0  0
 14 21  2  0  0  0  0
 14 15  1  0  0  0  0
 15 16  1  0  0  0  0
 15 18  2  0  0  0  0
 16 17  1  0  0  0  0
 18 19  1  0  0  0  0
 18 23  1  0  0  0  0
 19 20  2  0  0  0  0
 20 21  1  0  0  0  0
 20 22  1  0  0  0  0
 22 37  1  0  0  0  0
 22 38  1  0  0  0  0
 23 39  1  0  0  0  0
 23 40  1  0  0  0  0
 24 25  1  0  0  0  0
 25 41  1  0  0  0  0
 25 42  1  0  0  0  0
 25 43  1  0  0  0  0
M  END
$$$$
ZINC03814851
  -OEChem-08230709403D

 44 46  0     0  0  0  0  0  0999 V2000
    5.3045    3.4999    0.8013 C   0  0  0  0  0  0  0  0  0  0  0  0
    3.9865    4.0512    0.7688 O   0  0  0  0  0  0  0  0  0  0  0  0
    2.9568    3.1796    0.5980 C   0  0  0  0  0  0  0  0  0  0  0  0
    3.2117    1.8226    0.4646 C   0  0  0  0  0  0  0  0  0  0  0  0
    2.1659    0.9373    0.2911 C   0  0  0  0  0  0  0  0  0  0  0  0
    0.8606    1.4052    0.2502 C   0  0  0  0  0  0  0  0  0  0  0  0
    0.6059    2.7619    0.3831 C   0  0  0  0  0  0  0  0  0  0  0  0
    1.6520    3.6474    0.5566 C   0  0  0  0  0  0  0  0  0  0  0  0
   -0.8116    3.2710    0.3320 C   0  0  0  0  0  0  0  0  0  0  0  0
   -1.4533    3.0604    1.6320 N   0  0  0  0  0  0  0  0  0  0  0  0
   -2.7816    3.4557    1.8291 C   0  0  0  0  0  0  0  0  0  0  0  0
   -3.4878    4.0557    0.7837 C   0  0  0  0  0  0  0  0  0  0  0  0
   -4.7836    4.4451    0.9458 C   0  0  0  0  0  0  0  0  0  0  0  0
   -5.4202    4.2549    2.1794 C   0  0  0  0  0  0  0  0  0  0  0  0
   -4.7093    3.6527    3.2459 C   0  0  0  0  0  0  0  0  0  0  0  0
   -3.3807    3.2544    3.0573 C   0  0  0  0  0  0  0  0  0  0  0  0
   -2.4949    2.5142    4.3539 Cl  0  0  0  0  0  0  0  0  0  0  0  0
   -5.3775    3.4721    4.4821 C   0  0  0  0  0  0  0  0  0  0  0  0
   -6.6356    3.8751    4.5817 N   0  0  0  0  0  0  0  0  0  0  0  0
   -7.2671    4.4366    3.5545 C   0  0  0  0  0  0  0  0  0  0  0  0
   -8.5813    4.8367    3.7227 N   0  0  0  0  0  0  0  0  0  0  0  0
   -4.7343    2.8913    5.5550 N   0  0  0  0  0  0  0  0  0  0  0  0
   -0.1691    0.5336    0.0794 O   0  0  0  0  0  0  0  0  0  0  0  0
    0.1664   -0.8494   -0.0506 C   0  0  0  0  0  0  0  0  0  0  0  0
    5.3814    2.7906    1.6253 H   0  0  0  0  0  0  0  0  0  0  0  0
    5.5074    2.9877   -0.1392 H   0  0  0  0  0  0  0  0  0  0  0  0
    6.0300    4.3010    0.9425 H   0  0  0  0  0  0  0  0  0  0  0  0
    4.2279    1.4583    0.4961 H   0  0  0  0  0  0  0  0  0  0  0  0
    2.3643   -0.1192    0.1870 H   0  0  0  0  0  0  0  0  0  0  0  0
    1.4536    4.7040    0.6597 H   0  0  0  0  0  0  0  0  0  0  0  0
   -0.8072    4.3353    0.0971 H   0  0  0  0  0  0  0  0  0  0  0  0
   -1.3639    2.7314   -0.4374 H   0  0  0  0  0  0  0  0  0  0  0  0
   -0.9577    2.6470    2.3562 H   0  0  0  0  0  0  0  0  0  0  0  0
   -3.0012    4.2089   -0.1682 H   0  0  0  0  0  0  0  0  0  0  0  0
   -5.3173    4.9034    0.1264 H   0  0  0  0  0  0  0  0  0  0  0  0
   -9.0609    5.2486    2.9871 H   0  0  0  0  0  0  0  0  0  0  0  0
   -9.0228    4.7051    4.5764 H   0  0  0  0  0  0  0  0  0  0  0  0
   -3.8193    3.1371    5.7629 H   0  0  0  0  0  0  0  0  0  0  0  0
   -5.1969    2.2369    6.1015 H   0  0  0  0  0  0  0  0  0  0  0  0
    0.6866   -1.1830    0.8473 H   0  0  0  0  0  0  0  0  0  0  0  0
   -0.7446   -1.4335   -0.1809 H   0  0  0  0  0  0  0  0  0  0  0  0
    0.8130   -0.9865   -0.9173 H   0  0  0  0  0  0  0  0  0  0  0  0
   -6.7308    4.6591    2.3297 N   0  3  0  0  0  0  0  0  0  0  0  0
   -7.2145    5.0823    1.5635 H   0  0  0  0  0  0  0  0  0  0  0  0
  1  2  1  0  0  0  0
  1 25  1  0  0  0  0
  1 26  1  0  0  0  0
  1 27  1  0  0  0  0
  2  3  1  0  0  0  0
  3  8  2  0  0  0  0
  3  4  1  0  0  0  0
  4  5  2  0  0  0  0
  4 28  1  0  0  0  0
  5  6  1  0  0  0  0
  5 29  1  0  0  0  0
  6  7  2  0  0  0  0
  6 23  1  0  0  0  0
  7  8  1  0  0  0  0
  7  9  1  0  0  0  0
  8 30  1  0  0  0  0
  9 10  1  0  0  0  0
  9 31  1  0  0  0  0
  9 32  1  0  0  0  0
 10 11  1  0  0  0  0
 10 33  1  0  0  0  0
 11 16  2  0  0  0  0
 11 12  1  0  0  0  0
 12 13  2  0  0  0  0
 12 34  1  0  0  0  0
 13 14  1  0  0  0  0
 13 35  1  0  0  0  0
 14 15  2  0  0  0  0
 14 43  1  0  0  0  0
 15 16  1  0  0  0  0
 15 18  1  0  0  0  0
 16 17  1  0  0  0  0
 18 19  2  0  0  0  0
 18 22  1  0  0  0  0
 19 20  1  0  0  0  0
 20 21  1  0  0  0  0
 20 43  2  0  0  0  0
 21 36  1  0  0  0  0
 21 37  1  0  0  0  0
 22 38  1  0  0  0  0
 22 39  1  0  0  0  0
 23 24  1  0  0  0  0
 24 40  1  0  0  0  0
 24 41  1  0  0  0  0
 24 42  1  0  0  0  0
 43 44  1  0  0  0  0
M  CHG  1  43   1
M  END
$$$$
ZINC03814852
  -OEChem-08230709403D

 47 49  0     0  0  0  0  0  0999 V2000
    6.0071   -2.0174    1.5537 C   0  0  0  0  0  0  0  0  0  0  0  0
    6.5849   -2.0460    0.2471 O   0  0  0  0  0  0  0  0  0  0  0  0
    5.8065   -1.6159   -0.7818 C   0  0  0  0  0  0  0  0  0  0  0  0
    4.5143   -1.1759   -0.5380 C   0  0  0  0  0  0  0  0  0  0  0  0
    3.7223   -0.7385   -1.5830 C   0  0  0  0  0  0  0  0  0  0  0  0
    4.2123   -0.7435   -2.8756 C   0  0  0  0  0  0  0  0  0  0  0  0
    5.5052   -1.1770   -3.1272 C   0  0  0  0  0  0  0  0  0  0  0  0
    6.3049   -1.6171   -2.0792 C   0  0  0  0  0  0  0  0  0  0  0  0
    7.5728   -2.0477   -2.3226 O   0  0  0  0  0  0  0  0  0  0  0  0
    7.7427   -3.4383   -2.6044 C   0  0  0  0  0  0  0  0  0  0  0  0
    5.9885   -1.1759   -4.3984 O   0  0  0  0  0  0  0  0  0  0  0  0
    5.1110   -0.7101   -5.4256 C   0  0  0  0  0  0  0  0  0  0  0  0
    2.3187   -0.2608   -1.3134 C   0  0  0  0  0  0  0  0  0  0  0  0
    2.3361    1.1795   -1.0458 N   0  0  0  0  0  0  0  0  0  0  0  0
    1.1417    1.8538   -0.7661 C   0  0  0  0  0  0  0  0  0  0  0  0
   -0.0633    1.1475   -0.7438 C   0  0  0  0  0  0  0  0  0  0  0  0
   -1.2415    1.7792   -0.4795 C   0  0  0  0  0  0  0  0  0  0  0  0
   -1.2514    3.1552   -0.2151 C   0  0  0  0  0  0  0  0  0  0  0  0
   -0.0340    3.8783   -0.2355 C   0  0  0  0  0  0  0  0  0  0  0  0
    1.1650    3.2117   -0.5143 C   0  0  0  0  0  0  0  0  0  0  0  0
    2.6663    4.0830   -0.5427 Cl  0  0  0  0  0  0  0  0  0  0  0  0
   -0.0734    5.2692    0.0311 C   0  0  0  0  0  0  0  0  0  0  0  0
   -1.2475    5.8275    0.2863 N   0  0  0  0  0  0  0  0  0  0  0  0
   -2.3683    5.1113    0.2960 C   0  0  0  0  0  0  0  0  0  0  0  0
   -2.3890    3.8149    0.0550 N   0  0  0  0  0  0  0  0  0  0  0  0
   -3.5631    5.7537    0.5703 N   0  0  0  0  0  0  0  0  0  0  0  0
    1.0814    6.0232    0.0250 N   0  0  0  0  0  0  0  0  0  0  0  0
    5.1202   -2.6509    1.5727 H   0  0  0  0  0  0  0  0  0  0  0  0
    6.7320   -2.3854    2.2797 H   0  0  0  0  0  0  0  0  0  0  0  0
    5.7282   -0.9942    1.8053 H   0  0  0  0  0  0  0  0  0  0  0  0
    4.1262   -1.1746    0.4699 H   0  0  0  0  0  0  0  0  0  0  0  0
    3.5888   -0.4054   -3.6900 H   0  0  0  0  0  0  0  0  0  0  0  0
    7.1683   -3.7019   -3.4925 H   0  0  0  0  0  0  0  0  0  0  0  0
    8.7981   -3.6473   -2.7791 H   0  0  0  0  0  0  0  0  0  0  0  0
    7.3914   -4.0265   -1.7566 H   0  0  0  0  0  0  0  0  0  0  0  0
    4.8259    0.3216   -5.2198 H   0  0  0  0  0  0  0  0  0  0  0  0
    5.6193   -0.7614   -6.3885 H   0  0  0  0  0  0  0  0  0  0  0  0
    4.2186   -1.3353   -5.4521 H   0  0  0  0  0  0  0  0  0  0  0  0
    1.9161   -0.7864   -0.4475 H   0  0  0  0  0  0  0  0  0  0  0  0
    1.6933   -0.4612   -2.1832 H   0  0  0  0  0  0  0  0  0  0  0  0
    3.1752    1.6658   -1.0624 H   0  0  0  0  0  0  0  0  0  0  0  0
   -0.0618    0.0861   -0.9432 H   0  0  0  0  0  0  0  0  0  0  0  0
   -2.1652    1.2198   -0.4703 H   0  0  0  0  0  0  0  0  0  0  0  0
   -4.3925    5.2509    0.5822 H   0  0  0  0  0  0  0  0  0  0  0  0
   -3.5711    6.7068    0.7505 H   0  0  0  0  0  0  0  0  0  0  0  0
    1.7447    5.8888   -0.6699 H   0  0  0  0  0  0  0  0  0  0  0  0
    1.2303    6.6878    0.7156 H   0  0  0  0  0  0  0  0  0  0  0  0
  1  2  1  0  0  0  0
  1 28  1  0  0  0  0
  1 29  1  0  0  0  0
  1 30  1  0  0  0  0
  2  3  1  0  0  0  0
  3  8  2  0  0  0  0
  3  4  1  0  0  0  0
  4  5  2  0  0  0  0
  4 31  1  0  0  0  0
  5  6  1  0  0  0  0
  5 13  1  0  0  0  0
  6  7  2  0  0  0  0
  6 32  1  0  0  0  0
  7  8  1  0  0  0  0
  7 11  1  0  0  0  0
  8  9  1  0  0  0  0
  9 10  1  0  0  0  0
 10 33  1  0  0  0  0
 10 34  1  0  0  0  0
 10 35  1  0  0  0  0
 11 12  1  0  0  0  0
 12 36  1  0  0  0  0
 12 37  1  0  0  0  0
 12 38  1  0  0  0  0
 13 14  1  0  0  0  0
 13 39  1  0  0  0  0
 13 40  1  0  0  0  0
 14 15  1  0  0  0  0
 14 41  1  0  0  0  0
 15 20  2  0  0  0  0
 15 16  1  0  0  0  0
 16 17  2  0  0  0  0
 16 42  1  0  0  0  0
 17 18  1  0  0  0  0
 17 43  1  0  0  0  0
 18 25  2  0  0  0  0
 18 19  1  0  0  0  0
 19 20  1  0  0  0  0
 19 22  2  0  0  0  0
 20 21  1  0  0  0  0
 22 23  1  0  0  0  0
 22 27  1  0  0  0  0
 23 24  2  0  0  0  0
 24 25  1  0  0  0  0
 24 26  1  0  0  0  0
 26 44  1  0  0  0  0
 26 45  1  0  0  0  0
 27 46  1  0  0  0  0
 27 47  1  0  0  0  0
M  END
$$$$
ZINC03814852
  -OEChem-08230709403D

 48 50  0     0  0  0  0  0  0999 V2000
    6.0071   -2.0174    1.5537 C   0  0  0  0  0  0  0  0  0  0  0  0
    6.5849   -2.0460    0.2471 O   0  0  0  0  0  0  0  0  0  0  0  0
    5.8065   -1.6159   -0.7818 C   0  0  0  0  0  0  0  0  0  0  0  0
    4.5143   -1.1759   -0.5380 C   0  0  0  0  0  0  0  0  0  0  0  0
    3.7223   -0.7385   -1.5830 C   0  0  0  0  0  0  0  0  0  0  0  0
    4.2123   -0.7435   -2.8756 C   0  0  0  0  0  0  0  0  0  0  0  0
    5.5052   -1.1770   -3.1272 C   0  0  0  0  0  0  0  0  0  0  0  0
    6.3049   -1.6171   -2.0792 C   0  0  0  0  0  0  0  0  0  0  0  0
    7.5728   -2.0477   -2.3226 O   0  0  0  0  0  0  0  0  0  0  0  0
    7.7427   -3.4383   -2.6044 C   0  0  0  0  0  0  0  0  0  0  0  0
    5.9885   -1.1759   -4.3984 O   0  0  0  0  0  0  0  0  0  0  0  0
    5.1110   -0.7101   -5.4256 C   0  0  0  0  0  0  0  0  0  0  0  0
    2.3187   -0.2608   -1.3134 C   0  0  0  0  0  0  0  0  0  0  0  0
    2.3361    1.1795   -1.0458 N   0  0  0  0  0  0  0  0  0  0  0  0
    1.1417    1.8538   -0.7661 C   0  0  0  0  0  0  0  0  0  0  0  0
   -0.0633    1.1475   -0.7438 C   0  0  0  0  0  0  0  0  0  0  0  0
   -1.2415    1.7792   -0.4795 C   0  0  0  0  0  0  0  0  0  0  0  0
   -1.2514    3.1552   -0.2151 C   0  0  0  0  0  0  0  0  0  0  0  0
   -0.0340    3.8783   -0.2355 C   0  0  0  0  0  0  0  0  0  0  0  0
    1.1650    3.2117   -0.5143 C   0  0  0  0  0  0  0  0  0  0  0  0
    2.6663    4.0830   -0.5427 Cl  0  0  0  0  0  0  0  0  0  0  0  0
   -0.0734    5.2692    0.0311 C   0  0  0  0  0  0  0  0  0  0  0  0
   -1.2475    5.8275    0.2863 N   0  0  0  0  0  0  0  0  0  0  0  0
   -2.3683    5.1113    0.2960 C   0  0  0  0  0  0  0  0  0  0  0  0
   -3.5631    5.7537    0.5703 N   0  0  0  0  0  0  0  0  0  0  0  0
    1.0814    6.0232    0.0250 N   0  0  0  0  0  0  0  0  0  0  0  0
    5.1202   -2.6509    1.5727 H   0  0  0  0  0  0  0  0  0  0  0  0
    6.7320   -2.3854    2.2797 H   0  0  0  0  0  0  0  0  0  0  0  0
    5.7282   -0.9942    1.8053 H   0  0  0  0  0  0  0  0  0  0  0  0
    4.1262   -1.1746    0.4699 H   0  0  0  0  0  0  0  0  0  0  0  0
    3.5888   -0.4054   -3.6900 H   0  0  0  0  0  0  0  0  0  0  0  0
    7.1683   -3.7019   -3.4925 H   0  0  0  0  0  0  0  0  0  0  0  0
    8.7981   -3.6473   -2.7791 H   0  0  0  0  0  0  0  0  0  0  0  0
    7.3914   -4.0265   -1.7566 H   0  0  0  0  0  0  0  0  0  0  0  0
    4.8259    0.3216   -5.2198 H   0  0  0  0  0  0  0  0  0  0  0  0
    5.6193   -0.7614   -6.3885 H   0  0  0  0  0  0  0  0  0  0  0  0
    4.2186   -1.3353   -5.4521 H   0  0  0  0  0  0  0  0  0  0  0  0
    1.9161   -0.7864   -0.4475 H   0  0  0  0  0  0  0  0  0  0  0  0
    1.6933   -0.4612   -2.1832 H   0  0  0  0  0  0  0  0  0  0  0  0
    3.1752    1.6658   -1.0624 H   0  0  0  0  0  0  0  0  0  0  0  0
   -0.0618    0.0861   -0.9432 H   0  0  0  0  0  0  0  0  0  0  0  0
   -2.1652    1.2198   -0.4703 H   0  0  0  0  0  0  0  0  0  0  0  0
   -4.3925    5.2509    0.5822 H   0  0  0  0  0  0  0  0  0  0  0  0
   -3.5711    6.7068    0.7505 H   0  0  0  0  0  0  0  0  0  0  0  0
    1.7447    5.8888   -0.6699 H   0  0  0  0  0  0  0  0  0  0  0  0
    1.2303    6.6878    0.7156 H   0  0  0  0  0  0  0  0  0  0  0  0
   -2.4513    3.7798    0.0564 N   0  3  0  0  0  0  0  0  0  0  0  0
   -3.2996    3.2504    0.0659 H   0  0  0  0  0  0  0  0  0  0  0  0
  1  2  1  0  0  0  0
  1 27  1  0  0  0  0
  1 28  1  0  0  0  0
  1 29  1  0  0  0  0
  2  3  1  0  0  0  0
  3  8  2  0  0  0  0
  3  4  1  0  0  0  0
  4  5  2  0  0  0  0
  4 30  1  0  0  0  0
  5  6  1  0  0  0  0
  5 13  1  0  0  0  0
  6  7  2  0  0  0  0
  6 31  1  0  0  0  0
  7  8  1  0  0  0  0
  7 11  1  0  0  0  0
  8  9  1  0  0  0  0
  9 10  1  0  0  0  0
 10 32  1  0  0  0  0
 10 33  1  0  0  0  0
 10 34  1  0  0  0  0
 11 12  1  0  0  0  0
 12 35  1  0  0  0  0
 12 36  1  0  0  0  0
 12 37  1  0  0  0  0
 13 14  1  0  0  0  0
 13 38  1  0  0  0  0
 13 39  1  0  0  0  0
 14 15  1  0  0  0  0
 14 40  1  0  0  0  0
 15 20  2  0  0  0  0
 15 16  1  0  0  0  0
 16 17  2  0  0  0  0
 16 41  1  0  0  0  0
 17 18  1  0  0  0  0
 17 42  1  0  0  0  0
 18 19  2  0  0  0  0
 18 47  1  0  0  0  0
 19 20  1  0  0  0  0
 19 22  1  0  0  0  0
 20 21  1  0  0  0  0
 22 23  2  0  0  0  0
 22 26  1  0  0  0  0
 23 24  1  0  0  0  0
 24 25  1  0  0  0  0
 24 47  2  0  0  0  0
 25 43  1  0  0  0  0
 25 44  1  0  0  0  0
 26 45  1  0  0  0  0
 26 46  1  0  0  0  0
 47 48  1  0  0  0  0
M  CHG  1  47   1
M  END
$$$$
ZINC03814853
  -OEChem-08230709403D

 50 52  0     1  0  0  0  0  0999 V2000
    1.9131   -2.6983   -0.0515 C   0  0  0  0  0  0  0  0  0  0  0  0
    1.1970   -1.9738    1.0069 N   0  0  1  0  0  0  0  0  0  0  0  0
    1.7796   -2.2568    2.3254 C   0  0  0  0  0  0  0  0  0  0  0  0
    1.5591   -3.7069    2.6713 C   0  0  0  0  0  0  0  0  0  0  0  0
    0.4195   -4.0868    3.3552 C   0  0  0  0  0  0  0  0  0  0  0  0
    0.2101   -5.4209    3.6703 C   0  0  0  0  0  0  0  0  0  0  0  0
    1.1532   -6.3750    3.3071 C   0  0  0  0  0  0  0  0  0  0  0  0
    2.3003   -5.9881    2.6245 C   0  0  0  0  0  0  0  0  0  0  0  0
    2.4997   -4.6527    2.3086 C   0  0  0  0  0  0  0  0  0  0  0  0
    3.2263   -6.9179    2.2673 O   0  0  0  0  0  0  0  0  0  0  0  0
    4.3809   -6.4484    1.5684 C   0  0  0  0  0  0  0  0  0  0  0  0
    0.9536   -7.6847    3.6186 O   0  0  0  0  0  0  0  0  0  0  0  0
    1.4602   -8.1370    4.8759 C   0  0  0  0  0  0  0  0  0  0  0  0
   -0.9142   -5.7945    4.3379 O   0  0  0  0  0  0  0  0  0  0  0  0
   -1.8398   -4.7606    4.6792 C   0  0  0  0  0  0  0  0  0  0  0  0
    1.1811   -0.5978    0.7505 C   0  0  0  0  0  0  0  0  0  0  0  0
    2.3815    0.1164    0.7284 C   0  0  0  0  0  0  0  0  0  0  0  0
    2.3956    1.4564    0.4813 C   0  0  0  0  0  0  0  0  0  0  0  0
    1.1926    2.1352    0.2460 C   0  0  0  0  0  0  0  0  0  0  0  0
   -0.0286    1.4184    0.2667 C   0  0  0  0  0  0  0  0  0  0  0  0
   -0.0215    0.0421    0.5219 C   0  0  0  0  0  0  0  0  0  0  0  0
   -1.5095   -0.8516    0.5515 Cl  0  0  0  0  0  0  0  0  0  0  0  0
   -1.2293    2.1287    0.0194 C   0  0  0  0  0  0  0  0  0  0  0  0
   -1.1535    3.4316   -0.2087 N   0  0  0  0  0  0  0  0  0  0  0  0
    0.0151    4.0670   -0.2193 C   0  0  0  0  0  0  0  0  0  0  0  0
    1.1624    3.4545   -0.0009 N   0  0  0  0  0  0  0  0  0  0  0  0
    0.0274    5.4281   -0.4696 N   0  0  0  0  0  0  0  0  0  0  0  0
   -2.4469    1.4811    0.0215 N   0  0  0  0  0  0  0  0  0  0  0  0
    2.9414   -2.3407   -0.1048 H   0  0  0  0  0  0  0  0  0  0  0  0
    1.9105   -3.7650    0.1726 H   0  0  0  0  0  0  0  0  0  0  0  0
    1.4188   -2.5267   -1.0077 H   0  0  0  0  0  0  0  0  0  0  0  0
    2.8490   -2.0473    2.3027 H   0  0  0  0  0  0  0  0  0  0  0  0
    1.3019   -1.6275    3.0764 H   0  0  0  0  0  0  0  0  0  0  0  0
   -0.3107   -3.3442    3.6409 H   0  0  0  0  0  0  0  0  0  0  0  0
    3.3908   -4.3513    1.7782 H   0  0  0  0  0  0  0  0  0  0  0  0
    4.0731   -5.9695    0.6389 H   0  0  0  0  0  0  0  0  0  0  0  0
    4.9135   -5.7281    2.1893 H   0  0  0  0  0  0  0  0  0  0  0  0
    5.0367   -7.2896    1.3439 H   0  0  0  0  0  0  0  0  0  0  0  0
    2.5398   -7.9898    4.9068 H   0  0  0  0  0  0  0  0  0  0  0  0
    0.9930   -7.5699    5.6811 H   0  0  0  0  0  0  0  0  0  0  0  0
    1.2342   -9.1962    4.9989 H   0  0  0  0  0  0  0  0  0  0  0  0
   -1.3476   -4.0296    5.3207 H   0  0  0  0  0  0  0  0  0  0  0  0
   -2.1882   -4.2703    3.7703 H   0  0  0  0  0  0  0  0  0  0  0  0
   -2.6895   -5.1935    5.2072 H   0  0  0  0  0  0  0  0  0  0  0  0
    3.3120   -0.4011    0.9094 H   0  0  0  0  0  0  0  0  0  0  0  0
    3.3320    1.9943    0.4677 H   0  0  0  0  0  0  0  0  0  0  0  0
    0.8683    5.9114   -0.4817 H   0  0  0  0  0  0  0  0  0  0  0  0
   -0.8049    5.8988   -0.6328 H   0  0  0  0  0  0  0  0  0  0  0  0
   -2.6456    0.8243    0.7070 H   0  0  0  0  0  0  0  0  0  0  0  0
   -3.1045    1.6825   -0.6625 H   0  0  0  0  0  0  0  0  0  0  0  0
  1  2  1  0  0  0  0
  1 29  1  0  0  0  0
  1 30  1  0  0  0  0
  1 31  1  0  0  0  0
  2  3  1  0  0  0  0
  2 16  1  0  0  0  0
  3  4  1  0  0  0  0
  3 32  1  0  0  0  0
  3 33  1  0  0  0  0
  4  9  2  0  0  0  0
  4  5  1  0  0  0  0
  5  6  2  0  0  0  0
  5 34  1  0  0  0  0
  6  7  1  0  0  0  0
  6 14  1  0  0  0  0
  7  8  2  0  0  0  0
  7 12  1  0  0  0  0
  8  9  1  0  0  0  0
  8 10  1  0  0  0  0
  9 35  1  0  0  0  0
 10 11  1  0  0  0  0
 11 36  1  0  0  0  0
 11 37  1  0  0  0  0
 11 38  1  0  0  0  0
 12 13  1  0  0  0  0
 13 39  1  0  0  0  0
 13 40  1  0  0  0  0
 13 41  1  0  0  0  0
 14 15  1  0  0  0  0
 15 42  1  0  0  0  0
 15 43  1  0  0  0  0
 15 44  1  0  0  0  0
 16 21  2  0  0  0  0
 16 17  1  0  0  0  0
 17 18  2  0  0  0  0
 17 45  1  0  0  0  0
 18 19  1  0  0  0  0
 18 46  1  0  0  0  0
 19 26  2  0  0  0  0
 19 20  1  0  0  0  0
 20 21  1  0  0  0  0
 20 23  2  0  0  0  0
 21 22  1  0  0  0  0
 23 24  1  0  0  0  0
 23 28  1  0  0  0  0
 24 25  2  0  0  0  0
 25 26  1  0  0  0  0
 25 27  1  0  0  0  0
 27 47  1  0  0  0  0
 27 48  1  0  0  0  0
 28 49  1  0  0  0  0
 28 50  1  0  0  0  0
M  END
$$$$
ZINC03814853
  -OEChem-08230709403D

 51 53  0     1  0  0  0  0  0999 V2000
    1.9131   -2.6983   -0.0515 C   0  0  0  0  0  0  0  0  0  0  0  0
    1.1970   -1.9738    1.0069 N   0  0  1  0  0  0  0  0  0  0  0  0
    1.7796   -2.2568    2.3254 C   0  0  0  0  0  0  0  0  0  0  0  0
    1.5591   -3.7069    2.6713 C   0  0  0  0  0  0  0  0  0  0  0  0
    0.4195   -4.0868    3.3552 C   0  0  0  0  0  0  0  0  0  0  0  0
    0.2101   -5.4209    3.6703 C   0  0  0  0  0  0  0  0  0  0  0  0
    1.1532   -6.3750    3.3071 C   0  0  0  0  0  0  0  0  0  0  0  0
    2.3003   -5.9881    2.6245 C   0  0  0  0  0  0  0  0  0  0  0  0
    2.4997   -4.6527    2.3086 C   0  0  0  0  0  0  0  0  0  0  0  0
    3.2263   -6.9179    2.2673 O   0  0  0  0  0  0  0  0  0  0  0  0
    4.3809   -6.4484    1.5684 C   0  0  0  0  0  0  0  0  0  0  0  0
    0.9536   -7.6847    3.6186 O   0  0  0  0  0  0  0  0  0  0  0  0
    1.4602   -8.1370    4.8759 C   0  0  0  0  0  0  0  0  0  0  0  0
   -0.9142   -5.7945    4.3379 O   0  0  0  0  0  0  0  0  0  0  0  0
   -1.8398   -4.7606    4.6792 C   0  0  0  0  0  0  0  0  0  0  0  0
    1.1811   -0.5978    0.7505 C   0  0  0  0  0  0  0  0  0  0  0  0
    2.3815    0.1164    0.7284 C   0  0  0  0  0  0  0  0  0  0  0  0
    2.3956    1.4564    0.4813 C   0  0  0  0  0  0  0  0  0  0  0  0
    1.1926    2.1352    0.2460 C   0  0  0  0  0  0  0  0  0  0  0  0
   -0.0286    1.4184    0.2667 C   0  0  0  0  0  0  0  0  0  0  0  0
   -0.0215    0.0421    0.5219 C   0  0  0  0  0  0  0  0  0  0  0  0
   -1.5095   -0.8516    0.5515 Cl  0  0  0  0  0  0  0  0  0  0  0  0
   -1.2293    2.1287    0.0194 C   0  0  0  0  0  0  0  0  0  0  0  0
   -1.1535    3.4316   -0.2087 N   0  0  0  0  0  0  0  0  0  0  0  0
    0.0151    4.0670   -0.2193 C   0  0  0  0  0  0  0  0  0  0  0  0
    0.0274    5.4281   -0.4696 N   0  0  0  0  0  0  0  0  0  0  0  0
   -2.4469    1.4811    0.0215 N   0  0  0  0  0  0  0  0  0  0  0  0
    2.9414   -2.3407   -0.1048 H   0  0  0  0  0  0  0  0  0  0  0  0
    1.9105   -3.7650    0.1726 H   0  0  0  0  0  0  0  0  0  0  0  0
    1.4188   -2.5267   -1.0077 H   0  0  0  0  0  0  0  0  0  0  0  0
    2.8490   -2.0473    2.3027 H   0  0  0  0  0  0  0  0  0  0  0  0
    1.3019   -1.6275    3.0764 H   0  0  0  0  0  0  0  0  0  0  0  0
   -0.3107   -3.3442    3.6409 H   0  0  0  0  0  0  0  0  0  0  0  0
    3.3908   -4.3513    1.7782 H   0  0  0  0  0  0  0  0  0  0  0  0
    4.0731   -5.9695    0.6389 H   0  0  0  0  0  0  0  0  0  0  0  0
    4.9135   -5.7281    2.1893 H   0  0  0  0  0  0  0  0  0  0  0  0
    5.0367   -7.2896    1.3439 H   0  0  0  0  0  0  0  0  0  0  0  0
    2.5398   -7.9898    4.9068 H   0  0  0  0  0  0  0  0  0  0  0  0
    0.9930   -7.5699    5.6811 H   0  0  0  0  0  0  0  0  0  0  0  0
    1.2342   -9.1962    4.9989 H   0  0  0  0  0  0  0  0  0  0  0  0
   -1.3476   -4.0296    5.3207 H   0  0  0  0  0  0  0  0  0  0  0  0
   -2.1882   -4.2703    3.7703 H   0  0  0  0  0  0  0  0  0  0  0  0
   -2.6895   -5.1935    5.2072 H   0  0  0  0  0  0  0  0  0  0  0  0
    3.3120   -0.4011    0.9094 H   0  0  0  0  0  0  0  0  0  0  0  0
    3.3320    1.9943    0.4677 H   0  0  0  0  0  0  0  0  0  0  0  0
    0.8683    5.9114   -0.4817 H   0  0  0  0  0  0  0  0  0  0  0  0
   -0.8049    5.8988   -0.6328 H   0  0  0  0  0  0  0  0  0  0  0  0
   -2.6456    0.8243    0.7070 H   0  0  0  0  0  0  0  0  0  0  0  0
   -3.1045    1.6825   -0.6625 H   0  0  0  0  0  0  0  0  0  0  0  0
    1.2232    3.4920   -0.0023 N   0  3  0  0  0  0  0  0  0  0  0  0
    2.0966    3.9789   -0.0124 H   0  0  0  0  0  0  0  0  0  0  0  0
  1  2  1  0  0  0  0
  1 28  1  0  0  0  0
  1 29  1  0  0  0  0
  1 30  1  0  0  0  0
  2  3  1  0  0  0  0
  2 16  1  0  0  0  0
  3  4  1  0  0  0  0
  3 31  1  0  0  0  0
  3 32  1  0  0  0  0
  4  9  2  0  0  0  0
  4  5  1  0  0  0  0
  5  6  2  0  0  0  0
  5 33  1  0  0  0  0
  6  7  1  0  0  0  0
  6 14  1  0  0  0  0
  7  8  2  0  0  0  0
  7 12  1  0  0  0  0
  8  9  1  0  0  0  0
  8 10  1  0  0  0  0
  9 34  1  0  0  0  0
 10 11  1  0  0  0  0
 11 35  1  0  0  0  0
 11 36  1  0  0  0  0
 11 37  1  0  0  0  0
 12 13  1  0  0  0  0
 13 38  1  0  0  0  0
 13 39  1  0  0  0  0
 13 40  1  0  0  0  0
 14 15  1  0  0  0  0
 15 41  1  0  0  0  0
 15 42  1  0  0  0  0
 15 43  1  0  0  0  0
 16 21  2  0  0  0  0
 16 17  1  0  0  0  0
 17 18  2  0  0  0  0
 17 44  1  0  0  0  0
 18 19  1  0  0  0  0
 18 45  1  0  0  0  0
 19 20  2  0  0  0  0
 19 50  1  0  0  0  0
 20 21  1  0  0  0  0
 20 23  1  0  0  0  0
 21 22  1  0  0  0  0
 23 24  2  0  0  0  0
 23 27  1  0  0  0  0
 24 25  1  0  0  0  0
 25 26  1  0  0  0  0
 25 50  2  0  0  0  0
 26 46  1  0  0  0  0
 26 47  1  0  0  0  0
 27 48  1  0  0  0  0
 27 49  1  0  0  0  0
 50 51  1  0  0  0  0
M  CHG  1  50   1
M  END
$$$$
ZINC03814854
  -OEChem-08230709403D

 37 39  0     1  0  0  0  0  0999 V2000
   -0.0001   -0.7297   -1.2707 C   0  0  0  0  0  0  0  0  0  0  0  0
    0.0021   -0.0041    0.0020 N   0  0  3  0  0  0  0  0  0  0  0  0
   -0.0178    1.4608    0.0101 C   0  0  0  0  0  0  0  0  0  0  0  0
    1.3960    1.9824   -0.0006 C   0  0  0  0  0  0  0  0  0  0  0  0
    1.9869    2.3181   -1.2168 C   0  0  0  0  0  0  0  0  0  0  0  0
    3.2669    2.7970   -1.2456 C   0  0  0  0  0  0  0  0  0  0  0  0
    3.9521    2.9251   -0.0254 C   0  0  0  0  0  0  0  0  0  0  0  0
    3.2904    2.5596    1.1711 C   0  0  0  0  0  0  0  0  0  0  0  0
    2.0418    2.1040    1.1356 N   0  0  0  0  0  0  0  0  0  0  0  0
    4.0294    2.7039    2.4264 C   0  0  0  0  0  0  0  0  0  0  0  0
    5.2696    3.1671    2.3623 N   0  0  0  0  0  0  0  0  0  0  0  0
    5.8286    3.4912    1.2006 C   0  0  0  0  0  0  0  0  0  0  0  0
    5.2089    3.3814    0.0427 N   0  0  0  0  0  0  0  0  0  0  0  0
    7.1268    3.9686    1.2075 N   0  0  0  0  0  0  0  0  0  0  0  0
    3.4550    2.3690    3.6342 N   0  0  0  0  0  0  0  0  0  0  0  0
    0.0231   -0.7092    1.2083 C   0  0  0  0  0  0  0  0  0  0  0  0
    0.0309   -0.0222    2.4157 C   0  0  0  0  0  0  0  0  0  0  0  0
    0.0454   -0.7211    3.6068 C   0  0  0  0  0  0  0  0  0  0  0  0
    0.0642   -2.1047    3.5987 C   0  0  0  0  0  0  0  0  0  0  0  0
    0.0627   -2.7925    2.3969 C   0  0  0  0  0  0  0  0  0  0  0  0
    0.0419   -2.0976    1.2020 C   0  0  0  0  0  0  0  0  0  0  0  0
    0.0863   -4.5283    2.3907 Cl  0  0  0  0  0  0  0  0  0  0  0  0
    0.0891   -2.9797    5.0979 Cl  0  0  0  0  0  0  0  0  0  0  0  0
    1.0269   -0.8956   -1.5960 H   0  0  0  0  0  0  0  0  0  0  0  0
   -0.4997   -1.6897   -1.1407 H   0  0  0  0  0  0  0  0  0  0  0  0
   -0.5291   -0.1436   -2.0222 H   0  0  0  0  0  0  0  0  0  0  0  0
   -0.5450    1.8219   -0.8730 H   0  0  0  0  0  0  0  0  0  0  0  0
   -0.5280    1.8123    0.9069 H   0  0  0  0  0  0  0  0  0  0  0  0
    1.4323    2.2035   -2.1365 H   0  0  0  0  0  0  0  0  0  0  0  0
    3.7391    3.0654   -2.1791 H   0  0  0  0  0  0  0  0  0  0  0  0
    7.6057    4.0595    2.0461 H   0  0  0  0  0  0  0  0  0  0  0  0
    7.5584    4.2124    0.3737 H   0  0  0  0  0  0  0  0  0  0  0  0
    2.5462    2.0311    3.6620 H   0  0  0  0  0  0  0  0  0  0  0  0
    3.9598    2.4711    4.4562 H   0  0  0  0  0  0  0  0  0  0  0  0
    0.0208    1.0577    2.4230 H   0  0  0  0  0  0  0  0  0  0  0  0
    0.0467   -0.1871    4.5455 H   0  0  0  0  0  0  0  0  0  0  0  0
    0.0408   -2.6341    0.2646 H   0  0  0  0  0  0  0  0  0  0  0  0
  1  2  1  0  0  0  0
  1 24  1  0  0  0  0
  1 25  1  0  0  0  0
  1 26  1  0  0  0  0
  2  3  1  0  0  0  0
  2 16  1  0  0  0  0
  3  4  1  0  0  0  0
  3 27  1  0  0  0  0
  3 28  1  0  0  0  0
  4  9  2  0  0  0  0
  4  5  1  0  0  0  0
  5  6  2  0  0  0  0
  5 29  1  0  0  0  0
  6  7  1  0  0  0  0
  6 30  1  0  0  0  0
  7 13  2  0  0  0  0
  7  8  1  0  0  0  0
  8  9  1  0  0  0  0
  8 10  2  0  0  0  0
 10 11  1  0  0  0  0
 10 15  1  0  0  0  0
 11 12  2  0  0  0  0
 12 13  1  0  0  0  0
 12 14  1  0  0  0  0
 14 31  1  0  0  0  0
 14 32  1  0  0  0  0
 15 33  1  0  0  0  0
 15 34  1  0  0  0  0
 16 21  2  0  0  0  0
 16 17  1  0  0  0  0
 17 18  2  0  0  0  0
 17 35  1  0  0  0  0
 18 19  1  0  0  0  0
 18 36  1  0  0  0  0
 19 20  2  0  0  0  0
 19 23  1  0  0  0  0
 20 21  1  0  0  0  0
 20 22  1  0  0  0  0
 21 37  1  0  0  0  0
M  END
$$$$
ZINC03814854
  -OEChem-08230709403D

 38 40  0     1  0  0  0  0  0999 V2000
   -0.0001   -0.7297   -1.2707 C   0  0  0  0  0  0  0  0  0  0  0  0
    0.0021   -0.0041    0.0020 N   0  0  3  0  0  0  0  0  0  0  0  0
   -0.0178    1.4608    0.0101 C   0  0  0  0  0  0  0  0  0  0  0  0
    1.3960    1.9824   -0.0006 C   0  0  0  0  0  0  0  0  0  0  0  0
    1.9869    2.3181   -1.2168 C   0  0  0  0  0  0  0  0  0  0  0  0
    3.2669    2.7970   -1.2456 C   0  0  0  0  0  0  0  0  0  0  0  0
    3.9521    2.9251   -0.0254 C   0  0  0  0  0  0  0  0  0  0  0  0
    3.2904    2.5596    1.1711 C   0  0  0  0  0  0  0  0  0  0  0  0
    2.0418    2.1040    1.1356 N   0  0  0  0  0  0  0  0  0  0  0  0
    4.0294    2.7039    2.4264 C   0  0  0  0  0  0  0  0  0  0  0  0
    5.2696    3.1671    2.3623 N   0  0  0  0  0  0  0  0  0  0  0  0
    5.8286    3.4912    1.2006 C   0  0  0  0  0  0  0  0  0  0  0  0
    7.1268    3.9686    1.2075 N   0  0  0  0  0  0  0  0  0  0  0  0
    3.4550    2.3690    3.6342 N   0  0  0  0  0  0  0  0  0  0  0  0
    0.0231   -0.7092    1.2083 C   0  0  0  0  0  0  0  0  0  0  0  0
    0.0309   -0.0222    2.4157 C   0  0  0  0  0  0  0  0  0  0  0  0
    0.0454   -0.7211    3.6068 C   0  0  0  0  0  0  0  0  0  0  0  0
    0.0642   -2.1047    3.5987 C   0  0  0  0  0  0  0  0  0  0  0  0
    0.0627   -2.7925    2.3969 C   0  0  0  0  0  0  0  0  0  0  0  0
    0.0419   -2.0976    1.2020 C   0  0  0  0  0  0  0  0  0  0  0  0
    0.0863   -4.5283    2.3907 Cl  0  0  0  0  0  0  0  0  0  0  0  0
    0.0891   -2.9797    5.0979 Cl  0  0  0  0  0  0  0  0  0  0  0  0
    1.0269   -0.8956   -1.5960 H   0  0  0  0  0  0  0  0  0  0  0  0
   -0.4997   -1.6897   -1.1407 H   0  0  0  0  0  0  0  0  0  0  0  0
   -0.5291   -0.1436   -2.0222 H   0  0  0  0  0  0  0  0  0  0  0  0
   -0.5450    1.8219   -0.8730 H   0  0  0  0  0  0  0  0  0  0  0  0
   -0.5280    1.8123    0.9069 H   0  0  0  0  0  0  0  0  0  0  0  0
    1.4323    2.2035   -2.1365 H   0  0  0  0  0  0  0  0  0  0  0  0
    3.7391    3.0654   -2.1791 H   0  0  0  0  0  0  0  0  0  0  0  0
    7.6057    4.0595    2.0461 H   0  0  0  0  0  0  0  0  0  0  0  0
    7.5584    4.2124    0.3737 H   0  0  0  0  0  0  0  0  0  0  0  0
    2.5462    2.0311    3.6620 H   0  0  0  0  0  0  0  0  0  0  0  0
    3.9598    2.4711    4.4562 H   0  0  0  0  0  0  0  0  0  0  0  0
    0.0208    1.0577    2.4230 H   0  0  0  0  0  0  0  0  0  0  0  0
    0.0467   -0.1871    4.5455 H   0  0  0  0  0  0  0  0  0  0  0  0
    0.0408   -2.6341    0.2646 H   0  0  0  0  0  0  0  0  0  0  0  0
    5.2448    3.4011   -0.0201 N   0  3  0  0  0  0  0  0  0  0  0  0
    5.6885    3.6527   -0.8802 H   0  0  0  0  0  0  0  0  0  0  0  0
  1  2  1  0  0  0  0
  1 23  1  0  0  0  0
  1 24  1  0  0  0  0
  1 25  1  0  0  0  0
  2  3  1  0  0  0  0
  2 15  1  0  0  0  0
  3  4  1  0  0  0  0
  3 26  1  0  0  0  0
  3 27  1  0  0  0  0
  4  9  2  0  0  0  0
  4  5  1  0  0  0  0
  5  6  2  0  0  0  0
  5 28  1  0  0  0  0
  6  7  1  0  0  0  0
  6 29  1  0  0  0  0
  7  8  2  0  0  0  0
  7 37  1  0  0  0  0
  8  9  1  0  0  0  0
  8 10  1  0  0  0  0
 10 11  2  0  0  0  0
 10 14  1  0  0  0  0
 11 12  1  0  0  0  0
 12 13  1  0  0  0  0
 12 37  2  0  0  0  0
 13 30  1  0  0  0  0
 13 31  1  0  0  0  0
 14 32  1  0  0  0  0
 14 33  1  0  0  0  0
 15 20  2  0  0  0  0
 15 16  1  0  0  0  0
 16 17  2  0  0  0  0
 16 34  1  0  0  0  0
 17 18  1  0  0  0  0
 17 35  1  0  0  0  0
 18 19  2  0  0  0  0
 18 22  1  0  0  0  0
 19 20  1  0  0  0  0
 19 21  1  0  0  0  0
 20 36  1  0  0  0  0
 37 38  1  0  0  0  0
M  CHG  1  37   1
M  END
$$$$
ZINC03814855
  -OEChem-08230709403D

 40 42  0     1  0  0  0  0  0999 V2000
   -0.0832   -0.0034    0.6168 C   0  0  0  0  0  0  0  0  0  0  0  0
   -0.1002    1.5034    0.6000 C   0  0  0  0  0  0  0  0  0  0  0  0
   -1.2579    2.1985    0.8340 C   0  0  0  0  0  0  0  0  0  0  0  0
   -1.2465    3.5877    0.8159 C   0  0  0  0  0  0  0  0  0  0  0  0
   -0.1486    4.2678    0.5711 N   0  0  0  0  0  0  0  0  0  0  0  0
    1.0082    3.6498    0.3318 C   0  0  0  0  0  0  0  0  0  0  0  0
    1.0646    2.2341    0.3393 C   0  0  0  0  0  0  0  0  0  0  0  0
    2.3073    1.6044    0.0812 C   0  0  0  0  0  0  0  0  0  0  0  0
    3.3621    2.3712   -0.1559 N   0  0  0  0  0  0  0  0  0  0  0  0
    3.2663    3.6977   -0.1537 C   0  0  0  0  0  0  0  0  0  0  0  0
    2.1337    4.3335    0.0802 N   0  0  0  0  0  0  0  0  0  0  0  0
    4.4020    4.4427   -0.4078 N   0  0  0  0  0  0  0  0  0  0  0  0
    2.4164    0.2312    0.0763 N   0  0  0  0  0  0  0  0  0  0  0  0
   -2.5400    1.4576    1.1135 C   0  0  0  0  0  0  0  0  0  0  0  0
   -2.5597    1.0266    2.5135 N   0  0  3  0  0  0  0  0  0  0  0  0
   -2.0107   -0.2797    2.8856 C   0  0  0  0  0  0  0  0  0  0  0  0
   -3.1023    1.8615    3.4940 C   0  0  0  0  0  0  0  0  0  0  0  0
   -3.6180    3.1028    3.1432 C   0  0  0  0  0  0  0  0  0  0  0  0
   -4.1594    3.9238    4.1128 C   0  0  0  0  0  0  0  0  0  0  0  0
   -4.1778    3.5163    5.4351 C   0  0  0  0  0  0  0  0  0  0  0  0
   -3.6589    2.2822    5.7891 C   0  0  0  0  0  0  0  0  0  0  0  0
   -3.1215    1.4542    4.8213 C   0  0  0  0  0  0  0  0  0  0  0  0
   -3.6838    1.7745    7.4490 Cl  0  0  0  0  0  0  0  0  0  0  0  0
   -4.8531    4.5538    6.6522 Cl  0  0  0  0  0  0  0  0  0  0  0  0
    0.2620   -0.3521    1.5902 H   0  0  0  0  0  0  0  0  0  0  0  0
   -1.0891   -0.3802    0.4317 H   0  0  0  0  0  0  0  0  0  0  0  0
    0.5898   -0.3679   -0.1593 H   0  0  0  0  0  0  0  0  0  0  0  0
   -2.1652    4.1232    1.0049 H   0  0  0  0  0  0  0  0  0  0  0  0
    5.2454    3.9968   -0.5827 H   0  0  0  0  0  0  0  0  0  0  0  0
    4.3557    5.4116   -0.4113 H   0  0  0  0  0  0  0  0  0  0  0  0
    2.9557   -0.2101   -0.5984 H   0  0  0  0  0  0  0  0  0  0  0  0
    1.9539   -0.2945    0.7476 H   0  0  0  0  0  0  0  0  0  0  0  0
   -3.3884    2.1151    0.9237 H   0  0  0  0  0  0  0  0  0  0  0  0
   -2.6043    0.5848    0.4637 H   0  0  0  0  0  0  0  0  0  0  0  0
   -0.9521   -0.1746    3.1230 H   0  0  0  0  0  0  0  0  0  0  0  0
   -2.5422   -0.6623    3.7570 H   0  0  0  0  0  0  0  0  0  0  0  0
   -2.1294   -0.9740    2.0538 H   0  0  0  0  0  0  0  0  0  0  0  0
   -3.6001    3.4236    2.1121 H   0  0  0  0  0  0  0  0  0  0  0  0
   -4.5647    4.8868    3.8395 H   0  0  0  0  0  0  0  0  0  0  0  0
   -2.7169    0.4917    5.0974 H   0  0  0  0  0  0  0  0  0  0  0  0
  1  2  1  0  0  0  0
  1 25  1  0  0  0  0
  1 26  1  0  0  0  0
  1 27  1  0  0  0  0
  2  7  2  0  0  0  0
  2  3  1  0  0  0  0
  3  4  2  0  0  0  0
  3 14  1  0  0  0  0
  4  5  1  0  0  0  0
  4 28  1  0  0  0  0
  5  6  2  0  0  0  0
  6 11  1  0  0  0  0
  6  7  1  0  0  0  0
  7  8  1  0  0  0  0
  8  9  2  0  0  0  0
  8 13  1  0  0  0  0
  9 10  1  0  0  0  0
 10 11  2  0  0  0  0
 10 12  1  0  0  0  0
 12 29  1  0  0  0  0
 12 30  1  0  0  0  0
 13 31  1  0  0  0  0
 13 32  1  0  0  0  0
 14 15  1  0  0  0  0
 14 33  1  0  0  0  0
 14 34  1  0  0  0  0
 15 16  1  0  0  0  0
 15 17  1  0  0  0  0
 16 35  1  0  0  0  0
 16 36  1  0  0  0  0
 16 37  1  0  0  0  0
 17 22  2  0  0  0  0
 17 18  1  0  0  0  0
 18 19  2  0  0  0  0
 18 38  1  0  0  0  0
 19 20  1  0  0  0  0
 19 39  1  0  0  0  0
 20 21  2  0  0  0  0
 20 24  1  0  0  0  0
 21 22  1  0  0  0  0
 21 23  1  0  0  0  0
 22 40  1  0  0  0  0
M  END
$$$$
ZINC03814855
  -OEChem-08230709403D

 41 43  0     1  0  0  0  0  0999 V2000
   -0.0832   -0.0034    0.6168 C   0  0  0  0  0  0  0  0  0  0  0  0
   -0.1002    1.5034    0.6000 C   0  0  0  0  0  0  0  0  0  0  0  0
   -1.2579    2.1985    0.8340 C   0  0  0  0  0  0  0  0  0  0  0  0
   -1.2465    3.5877    0.8159 C   0  0  0  0  0  0  0  0  0  0  0  0
   -0.1486    4.2678    0.5711 N   0  0  0  0  0  0  0  0  0  0  0  0
    1.0082    3.6498    0.3318 C   0  0  0  0  0  0  0  0  0  0  0  0
    1.0646    2.2341    0.3393 C   0  0  0  0  0  0  0  0  0  0  0  0
    2.3073    1.6044    0.0812 C   0  0  0  0  0  0  0  0  0  0  0  0
    3.3621    2.3712   -0.1559 N   0  0  0  0  0  0  0  0  0  0  0  0
    3.2663    3.6977   -0.1537 C   0  0  0  0  0  0  0  0  0  0  0  0
    4.4020    4.4427   -0.4078 N   0  0  0  0  0  0  0  0  0  0  0  0
    2.4164    0.2312    0.0763 N   0  0  0  0  0  0  0  0  0  0  0  0
   -2.5400    1.4576    1.1135 C   0  0  0  0  0  0  0  0  0  0  0  0
   -2.5597    1.0266    2.5135 N   0  0  3  0  0  0  0  0  0  0  0  0
   -2.0107   -0.2797    2.8856 C   0  0  0  0  0  0  0  0  0  0  0  0
   -3.1023    1.8615    3.4940 C   0  0  0  0  0  0  0  0  0  0  0  0
   -3.6180    3.1028    3.1432 C   0  0  0  0  0  0  0  0  0  0  0  0
   -4.1594    3.9238    4.1128 C   0  0  0  0  0  0  0  0  0  0  0  0
   -4.1778    3.5163    5.4351 C   0  0  0  0  0  0  0  0  0  0  0  0
   -3.6589    2.2822    5.7891 C   0  0  0  0  0  0  0  0  0  0  0  0
   -3.1215    1.4542    4.8213 C   0  0  0  0  0  0  0  0  0  0  0  0
   -3.6838    1.7745    7.4490 Cl  0  0  0  0  0  0  0  0  0  0  0  0
   -4.8531    4.5538    6.6522 Cl  0  0  0  0  0  0  0  0  0  0  0  0
    0.2620   -0.3521    1.5902 H   0  0  0  0  0  0  0  0  0  0  0  0
   -1.0891   -0.3802    0.4317 H   0  0  0  0  0  0  0  0  0  0  0  0
    0.5898   -0.3679   -0.1593 H   0  0  0  0  0  0  0  0  0  0  0  0
   -2.1652    4.1232    1.0049 H   0  0  0  0  0  0  0  0  0  0  0  0
    5.2454    3.9968   -0.5827 H   0  0  0  0  0  0  0  0  0  0  0  0
    4.3557    5.4116   -0.4113 H   0  0  0  0  0  0  0  0  0  0  0  0
    2.9557   -0.2101   -0.5984 H   0  0  0  0  0  0  0  0  0  0  0  0
    1.9539   -0.2945    0.7476 H   0  0  0  0  0  0  0  0  0  0  0  0
   -3.3884    2.1151    0.9237 H   0  0  0  0  0  0  0  0  0  0  0  0
   -2.6043    0.5848    0.4637 H   0  0  0  0  0  0  0  0  0  0  0  0
   -0.9521   -0.1746    3.1230 H   0  0  0  0  0  0  0  0  0  0  0  0
   -2.5422   -0.6623    3.7570 H   0  0  0  0  0  0  0  0  0  0  0  0
   -2.1294   -0.9740    2.0538 H   0  0  0  0  0  0  0  0  0  0  0  0
   -3.6001    3.4236    2.1121 H   0  0  0  0  0  0  0  0  0  0  0  0
   -4.5647    4.8868    3.8395 H   0  0  0  0  0  0  0  0  0  0  0  0
   -2.7169    0.4917    5.0974 H   0  0  0  0  0  0  0  0  0  0  0  0
    2.1326    4.4056    0.0794 N   0  3  0  0  0  0  0  0  0  0  0  0
    2.1545    5.4052    0.0601 H   0  0  0  0  0  0  0  0  0  0  0  0
  1  2  1  0  0  0  0
  1 24  1  0  0  0  0
  1 25  1  0  0  0  0
  1 26  1  0  0  0  0
  2  7  2  0  0  0  0
  2  3  1  0  0  0  0
  3  4  2  0  0  0  0
  3 13  1  0  0  0  0
  4  5  1  0  0  0  0
  4 27  1  0  0  0  0
  5  6  2  0  0  0  0
  6  7  1  0  0  0  0
  6 40  1  0  0  0  0
  7  8  1  0  0  0  0
  8  9  2  0  0  0  0
  8 12  1  0  0  0  0
  9 10  1  0  0  0  0
 10 11  1  0  0  0  0
 10 40  2  0  0  0  0
 11 28  1  0  0  0  0
 11 29  1  0  0  0  0
 12 30  1  0  0  0  0
 12 31  1  0  0  0  0
 13 14  1  0  0  0  0
 13 32  1  0  0  0  0
 13 33  1  0  0  0  0
 14 15  1  0  0  0  0
 14 16  1  0  0  0  0
 15 34  1  0  0  0  0
 15 35  1  0  0  0  0
 15 36  1  0  0  0  0
 16 21  2  0  0  0  0
 16 17  1  0  0  0  0
 17 18  2  0  0  0  0
 17 37  1  0  0  0  0
 18 19  1  0  0  0  0
 18 38  1  0  0  0  0
 19 20  2  0  0  0  0
 19 23  1  0  0  0  0
 20 21  1  0  0  0  0
 20 22  1  0  0  0  0
 21 39  1  0  0  0  0
 40 41  1  0  0  0  0
M  CHG  1  40   1
M  END
$$$$
ZINC03814856
  -OEChem-08230709403D

 43 45  0     0  0  0  0  0  0999 V2000
    0.2340    7.7358   -0.4610 C   0  0  0  0  0  0  0  0  0  0  0  0
    1.3750    6.8756   -0.4489 O   0  0  0  0  0  0  0  0  0  0  0  0
    1.1417    5.5425   -0.3168 C   0  0  0  0  0  0  0  0  0  0  0  0
   -0.1590    5.0747   -0.2019 C   0  0  0  0  0  0  0  0  0  0  0  0
   -0.4000    3.7192   -0.0727 C   0  0  0  0  0  0  0  0  0  0  0  0
    0.6577    2.8258   -0.0470 C   0  0  0  0  0  0  0  0  0  0  0  0
    1.9651    3.2924   -0.1626 C   0  0  0  0  0  0  0  0  0  0  0  0
    2.2041    4.6520   -0.2975 C   0  0  0  0  0  0  0  0  0  0  0  0
    3.0355    2.3910   -0.1424 N   0  0  0  0  0  0  0  0  0  0  0  0
    4.4099    2.8832   -0.2640 C   0  0  0  0  0  0  0  0  0  0  0  0
    5.3664    1.7197   -0.2138 C   0  0  0  0  0  0  0  0  0  0  0  0
    6.0310    1.4282    0.9732 C   0  0  0  0  0  0  0  0  0  0  0  0
    6.9028    0.3827    1.0523 C   0  0  0  0  0  0  0  0  0  0  0  0
    7.1351   -0.4125   -0.0780 C   0  0  0  0  0  0  0  0  0  0  0  0
    6.4583   -0.1151   -1.2859 C   0  0  0  0  0  0  0  0  0  0  0  0
    5.5652    0.9622   -1.3326 C   0  0  0  0  0  0  0  0  0  0  0  0
    4.7216    1.3359   -2.8031 Cl  0  0  0  0  0  0  0  0  0  0  0  0
    6.7093   -0.9322   -2.4156 C   0  0  0  0  0  0  0  0  0  0  0  0
    7.5654   -1.9357   -2.2878 N   0  0  0  0  0  0  0  0  0  0  0  0
    8.1800   -2.1802   -1.1339 C   0  0  0  0  0  0  0  0  0  0  0  0
    7.9831   -1.4514   -0.0518 N   0  0  0  0  0  0  0  0  0  0  0  0
    9.0624   -3.2430   -1.0655 N   0  0  0  0  0  0  0  0  0  0  0  0
    6.0794   -0.6895   -3.6174 N   0  0  0  0  0  0  0  0  0  0  0  0
    0.4197    1.4924    0.0854 O   0  0  0  0  0  0  0  0  0  0  0  0
   -0.9453    1.0852    0.1990 C   0  0  0  0  0  0  0  0  0  0  0  0
   -0.4142    7.4678   -1.2954 H   0  0  0  0  0  0  0  0  0  0  0  0
   -0.3141    7.6257    0.4747 H   0  0  0  0  0  0  0  0  0  0  0  0
    0.5598    8.7701   -0.5717 H   0  0  0  0  0  0  0  0  0  0  0  0
   -0.9852    5.7699   -0.2175 H   0  0  0  0  0  0  0  0  0  0  0  0
   -1.4139    3.3573    0.0124 H   0  0  0  0  0  0  0  0  0  0  0  0
    3.2168    5.0165   -0.3876 H   0  0  0  0  0  0  0  0  0  0  0  0
    2.8673    1.4404   -0.0477 H   0  0  0  0  0  0  0  0  0  0  0  0
    4.5254    3.4078   -1.2125 H   0  0  0  0  0  0  0  0  0  0  0  0
    4.6253    3.5663    0.5576 H   0  0  0  0  0  0  0  0  0  0  0  0
    5.8533    2.0393    1.8458 H   0  0  0  0  0  0  0  0  0  0  0  0
    7.4115    0.1688    1.9806 H   0  0  0  0  0  0  0  0  0  0  0  0
    9.2221   -3.7920   -1.8491 H   0  0  0  0  0  0  0  0  0  0  0  0
    9.5216   -3.4393   -0.2339 H   0  0  0  0  0  0  0  0  0  0  0  0
    5.9852    0.2203   -3.9405 H   0  0  0  0  0  0  0  0  0  0  0  0
    5.7303   -1.4283   -4.1399 H   0  0  0  0  0  0  0  0  0  0  0  0
   -1.4917    1.3931   -0.6925 H   0  0  0  0  0  0  0  0  0  0  0  0
   -0.9939    0.0009    0.2985 H   0  0  0  0  0  0  0  0  0  0  0  0
   -1.3916    1.5511    1.0776 H   0  0  0  0  0  0  0  0  0  0  0  0
  1  2  1  0  0  0  0
  1 26  1  0  0  0  0
  1 27  1  0  0  0  0
  1 28  1  0  0  0  0
  2  3  1  0  0  0  0
  3  8  2  0  0  0  0
  3  4  1  0  0  0  0
  4  5  2  0  0  0  0
  4 29  1  0  0  0  0
  5  6  1  0  0  0  0
  5 30  1  0  0  0  0
  6  7  2  0  0  0  0
  6 24  1  0  0  0  0
  7  8  1  0  0  0  0
  7  9  1  0  0  0  0
  8 31  1  0  0  0  0
  9 10  1  0  0  0  0
  9 32  1  0  0  0  0
 10 11  1  0  0  0  0
 10 33  1  0  0  0  0
 10 34  1  0  0  0  0
 11 16  2  0  0  0  0
 11 12  1  0  0  0  0
 12 13  2  0  0  0  0
 12 35  1  0  0  0  0
 13 14  1  0  0  0  0
 13 36  1  0  0  0  0
 14 21  2  0  0  0  0
 14 15  1  0  0  0  0
 15 16  1  0  0  0  0
 15 18  2  0  0  0  0
 16 17  1  0  0  0  0
 18 19  1  0  0  0  0
 18 23  1  0  0  0  0
 19 20  2  0  0  0  0
 20 21  1  0  0  0  0
 20 22  1  0  0  0  0
 22 37  1  0  0  0  0
 22 38  1  0  0  0  0
 23 39  1  0  0  0  0
 23 40  1  0  0  0  0
 24 25  1  0  0  0  0
 25 41  1  0  0  0  0
 25 42  1  0  0  0  0
 25 43  1  0  0  0  0
M  END
$$$$
ZINC03814856
  -OEChem-08230709403D

 44 46  0     0  0  0  0  0  0999 V2000
    0.2340    7.7358   -0.4610 C   0  0  0  0  0  0  0  0  0  0  0  0
    1.3750    6.8756   -0.4489 O   0  0  0  0  0  0  0  0  0  0  0  0
    1.1417    5.5425   -0.3168 C   0  0  0  0  0  0  0  0  0  0  0  0
   -0.1590    5.0747   -0.2019 C   0  0  0  0  0  0  0  0  0  0  0  0
   -0.4000    3.7192   -0.0727 C   0  0  0  0  0  0  0  0  0  0  0  0
    0.6577    2.8258   -0.0470 C   0  0  0  0  0  0  0  0  0  0  0  0
    1.9651    3.2924   -0.1626 C   0  0  0  0  0  0  0  0  0  0  0  0
    2.2041    4.6520   -0.2975 C   0  0  0  0  0  0  0  0  0  0  0  0
    3.0355    2.3910   -0.1424 N   0  0  0  0  0  0  0  0  0  0  0  0
    4.4099    2.8832   -0.2640 C   0  0  0  0  0  0  0  0  0  0  0  0
    5.3664    1.7197   -0.2138 C   0  0  0  0  0  0  0  0  0  0  0  0
    6.0310    1.4282    0.9732 C   0  0  0  0  0  0  0  0  0  0  0  0
    6.9028    0.3827    1.0523 C   0  0  0  0  0  0  0  0  0  0  0  0
    7.1351   -0.4125   -0.0780 C   0  0  0  0  0  0  0  0  0  0  0  0
    6.4583   -0.1151   -1.2859 C   0  0  0  0  0  0  0  0  0  0  0  0
    5.5652    0.9622   -1.3326 C   0  0  0  0  0  0  0  0  0  0  0  0
    4.7216    1.3359   -2.8031 Cl  0  0  0  0  0  0  0  0  0  0  0  0
    6.7093   -0.9322   -2.4156 C   0  0  0  0  0  0  0  0  0  0  0  0
    7.5654   -1.9357   -2.2878 N   0  0  0  0  0  0  0  0  0  0  0  0
    8.1800   -2.1802   -1.1339 C   0  0  0  0  0  0  0  0  0  0  0  0
    9.0624   -3.2430   -1.0655 N   0  0  0  0  0  0  0  0  0  0  0  0
    6.0794   -0.6895   -3.6174 N   0  0  0  0  0  0  0  0  0  0  0  0
    0.4197    1.4924    0.0854 O   0  0  0  0  0  0  0  0  0  0  0  0
   -0.9453    1.0852    0.1990 C   0  0  0  0  0  0  0  0  0  0  0  0
   -0.4142    7.4678   -1.2954 H   0  0  0  0  0  0  0  0  0  0  0  0
   -0.3141    7.6257    0.4747 H   0  0  0  0  0  0  0  0  0  0  0  0
    0.5598    8.7701   -0.5717 H   0  0  0  0  0  0  0  0  0  0  0  0
   -0.9852    5.7699   -0.2175 H   0  0  0  0  0  0  0  0  0  0  0  0
   -1.4139    3.3573    0.0124 H   0  0  0  0  0  0  0  0  0  0  0  0
    3.2168    5.0165   -0.3876 H   0  0  0  0  0  0  0  0  0  0  0  0
    2.8673    1.4404   -0.0477 H   0  0  0  0  0  0  0  0  0  0  0  0
    4.5254    3.4078   -1.2125 H   0  0  0  0  0  0  0  0  0  0  0  0
    4.6253    3.5663    0.5576 H   0  0  0  0  0  0  0  0  0  0  0  0
    5.8533    2.0393    1.8458 H   0  0  0  0  0  0  0  0  0  0  0  0
    7.4115    0.1688    1.9806 H   0  0  0  0  0  0  0  0  0  0  0  0
    9.2221   -3.7920   -1.8491 H   0  0  0  0  0  0  0  0  0  0  0  0
    9.5216   -3.4393   -0.2339 H   0  0  0  0  0  0  0  0  0  0  0  0
    5.9852    0.2203   -3.9405 H   0  0  0  0  0  0  0  0  0  0  0  0
    5.7303   -1.4283   -4.1399 H   0  0  0  0  0  0  0  0  0  0  0  0
   -1.4917    1.3931   -0.6925 H   0  0  0  0  0  0  0  0  0  0  0  0
   -0.9939    0.0009    0.2985 H   0  0  0  0  0  0  0  0  0  0  0  0
   -1.3916    1.5511    1.0776 H   0  0  0  0  0  0  0  0  0  0  0  0
    8.0179   -1.4676    0.0083 N   0  3  0  0  0  0  0  0  0  0  0  0
    8.4849   -1.6594    0.8715 H   0  0  0  0  0  0  0  0  0  0  0  0
  1  2  1  0  0  0  0
  1 25  1  0  0  0  0
  1 26  1  0  0  0  0
  1 27  1  0  0  0  0
  2  3  1  0  0  0  0
  3  8  2  0  0  0  0
  3  4  1  0  0  0  0
  4  5  2  0  0  0  0
  4 28  1  0  0  0  0
  5  6  1  0  0  0  0
  5 29  1  0  0  0  0
  6  7  2  0  0  0  0
  6 23  1  0  0  0  0
  7  8  1  0  0  0  0
  7  9  1  0  0  0  0
  8 30  1  0  0  0  0
  9 10  1  0  0  0  0
  9 31  1  0  0  0  0
 10 11  1  0  0  0  0
 10 32  1  0  0  0  0
 10 33  1  0  0  0  0
 11 16  2  0  0  0  0
 11 12  1  0  0  0  0
 12 13  2  0  0  0  0
 12 34  1  0  0  0  0
 13 14  1  0  0  0  0
 13 35  1  0  0  0  0
 14 15  2  0  0  0  0
 14 43  1  0  0  0  0
 15 16  1  0  0  0  0
 15 18  1  0  0  0  0
 16 17  1  0  0  0  0
 18 19  2  0  0  0  0
 18 22  1  0  0  0  0
 19 20  1  0  0  0  0
 20 21  1  0  0  0  0
 20 43  2  0  0  0  0
 21 36  1  0  0  0  0
 21 37  1  0  0  0  0
 22 38  1  0  0  0  0
 22 39  1  0  0  0  0
 23 24  1  0  0  0  0
 24 40  1  0  0  0  0
 24 41  1  0  0  0  0
 24 42  1  0  0  0  0
 43 44  1  0  0  0  0
M  CHG  1  43   1
M  END
$$$$
ZINC03814857
  -OEChem-08230709403D

 47 49  0     0  0  0  0  0  0999 V2000
    0.6195    7.6037    3.7865 C   0  0  0  0  0  0  0  0  0  0  0  0
    0.6696    8.3823    2.5893 O   0  0  0  0  0  0  0  0  0  0  0  0
    0.7707    7.7036    1.4152 C   0  0  0  0  0  0  0  0  0  0  0  0
    0.8206    6.3182    1.4173 C   0  0  0  0  0  0  0  0  0  0  0  0
    0.9238    5.6252    0.2188 C   0  0  0  0  0  0  0  0  0  0  0  0
    0.9830    6.3190   -0.9822 C   0  0  0  0  0  0  0  0  0  0  0  0
    0.9284    7.7042   -0.9862 C   0  0  0  0  0  0  0  0  0  0  0  0
    0.8246    8.3986    0.2131 C   0  0  0  0  0  0  0  0  0  0  0  0
    0.7753    9.7596    0.2102 O   0  0  0  0  0  0  0  0  0  0  0  0
    2.0214   10.4541    0.2924 C   0  0  0  0  0  0  0  0  0  0  0  0
    0.9812    8.3835   -2.1631 O   0  0  0  0  0  0  0  0  0  0  0  0
    1.0877    7.6055   -3.3570 C   0  0  0  0  0  0  0  0  0  0  0  0
    0.9740    4.2270    0.2218 N   0  0  0  0  0  0  0  0  0  0  0  0
    1.0830    3.4953   -1.0427 C   0  0  0  0  0  0  0  0  0  0  0  0
    1.1182    2.0146   -0.7648 C   0  0  0  0  0  0  0  0  0  0  0  0
    2.3376    1.3446   -0.7672 C   0  0  0  0  0  0  0  0  0  0  0  0
    2.4042    0.0052   -0.5200 C   0  0  0  0  0  0  0  0  0  0  0  0
    1.2279   -0.7103   -0.2591 C   0  0  0  0  0  0  0  0  0  0  0  0
   -0.0129   -0.0277   -0.2569 C   0  0  0  0  0  0  0  0  0  0  0  0
   -0.0472    1.3481   -0.5145 C   0  0  0  0  0  0  0  0  0  0  0  0
   -1.5603    2.1990   -0.5226 Cl  0  0  0  0  0  0  0  0  0  0  0  0
   -1.1886   -0.7716    0.0097 C   0  0  0  0  0  0  0  0  0  0  0  0
   -1.0709   -2.0706    0.2439 N   0  0  0  0  0  0  0  0  0  0  0  0
    0.1150   -2.6727    0.2326 C   0  0  0  0  0  0  0  0  0  0  0  0
    1.2405   -2.0282   -0.0098 N   0  0  0  0  0  0  0  0  0  0  0  0
    0.1706   -4.0314    0.4852 N   0  0  0  0  0  0  0  0  0  0  0  0
   -2.4236   -0.1598    0.0253 N   0  0  0  0  0  0  0  0  0  0  0  0
   -0.2470    6.9432    3.7544 H   0  0  0  0  0  0  0  0  0  0  0  0
    1.5280    7.0073    3.8703 H   0  0  0  0  0  0  0  0  0  0  0  0
    0.5393    8.2667    4.6480 H   0  0  0  0  0  0  0  0  0  0  0  0
    0.7787    5.7779    2.3515 H   0  0  0  0  0  0  0  0  0  0  0  0
    1.0678    5.7794   -1.9138 H   0  0  0  0  0  0  0  0  0  0  0  0
    2.5290   10.1814    1.2177 H   0  0  0  0  0  0  0  0  0  0  0  0
    2.6460   10.1819   -0.5584 H   0  0  0  0  0  0  0  0  0  0  0  0
    1.8399   11.5288    0.2808 H   0  0  0  0  0  0  0  0  0  0  0  0
    1.9994    7.0091   -3.3219 H   0  0  0  0  0  0  0  0  0  0  0  0
    0.2244    6.9451   -3.4385 H   0  0  0  0  0  0  0  0  0  0  0  0
    1.1205    8.2689   -4.2212 H   0  0  0  0  0  0  0  0  0  0  0  0
    0.9367    3.7421    1.0610 H   0  0  0  0  0  0  0  0  0  0  0  0
    1.9983    3.7906   -1.5557 H   0  0  0  0  0  0  0  0  0  0  0  0
    0.2233    3.7266   -1.6716 H   0  0  0  0  0  0  0  0  0  0  0  0
    3.2455    1.8939   -0.9680 H   0  0  0  0  0  0  0  0  0  0  0  0
    3.3582   -0.5011   -0.5249 H   0  0  0  0  0  0  0  0  0  0  0  0
    1.0249   -4.4907    0.4816 H   0  0  0  0  0  0  0  0  0  0  0  0
   -0.6447   -4.5249    0.6658 H   0  0  0  0  0  0  0  0  0  0  0  0
   -2.6512    0.4909   -0.6571 H   0  0  0  0  0  0  0  0  0  0  0  0
   -3.0653   -0.3800    0.7186 H   0  0  0  0  0  0  0  0  0  0  0  0
  1  2  1  0  0  0  0
  1 28  1  0  0  0  0
  1 29  1  0  0  0  0
  1 30  1  0  0  0  0
  2  3  1  0  0  0  0
  3  8  2  0  0  0  0
  3  4  1  0  0  0  0
  4  5  2  0  0  0  0
  4 31  1  0  0  0  0
  5  6  1  0  0  0  0
  5 13  1  0  0  0  0
  6  7  2  0  0  0  0
  6 32  1  0  0  0  0
  7  8  1  0  0  0  0
  7 11  1  0  0  0  0
  8  9  1  0  0  0  0
  9 10  1  0  0  0  0
 10 33  1  0  0  0  0
 10 34  1  0  0  0  0
 10 35  1  0  0  0  0
 11 12  1  0  0  0  0
 12 36  1  0  0  0  0
 12 37  1  0  0  0  0
 12 38  1  0  0  0  0
 13 14  1  0  0  0  0
 13 39  1  0  0  0  0
 14 15  1  0  0  0  0
 14 40  1  0  0  0  0
 14 41  1  0  0  0  0
 15 20  2  0  0  0  0
 15 16  1  0  0  0  0
 16 17  2  0  0  0  0
 16 42  1  0  0  0  0
 17 18  1  0  0  0  0
 17 43  1  0  0  0  0
 18 25  2  0  0  0  0
 18 19  1  0  0  0  0
 19 20  1  0  0  0  0
 19 22  2  0  0  0  0
 20 21  1  0  0  0  0
 22 23  1  0  0  0  0
 22 27  1  0  0  0  0
 23 24  2  0  0  0  0
 24 25  1  0  0  0  0
 24 26  1  0  0  0  0
 26 44  1  0  0  0  0
 26 45  1  0  0  0  0
 27 46  1  0  0  0  0
 27 47  1  0  0  0  0
M  END
$$$$
ZINC03814857
  -OEChem-08230709403D

 48 50  0     0  0  0  0  0  0999 V2000
    0.6195    7.6037    3.7865 C   0  0  0  0  0  0  0  0  0  0  0  0
    0.6696    8.3823    2.5893 O   0  0  0  0  0  0  0  0  0  0  0  0
    0.7707    7.7036    1.4152 C   0  0  0  0  0  0  0  0  0  0  0  0
    0.8206    6.3182    1.4173 C   0  0  0  0  0  0  0  0  0  0  0  0
    0.9238    5.6252    0.2188 C   0  0  0  0  0  0  0  0  0  0  0  0
    0.9830    6.3190   -0.9822 C   0  0  0  0  0  0  0  0  0  0  0  0
    0.9284    7.7042   -0.9862 C   0  0  0  0  0  0  0  0  0  0  0  0
    0.8246    8.3986    0.2131 C   0  0  0  0  0  0  0  0  0  0  0  0
    0.7753    9.7596    0.2102 O   0  0  0  0  0  0  0  0  0  0  0  0
    2.0214   10.4541    0.2924 C   0  0  0  0  0  0  0  0  0  0  0  0
    0.9812    8.3835   -2.1631 O   0  0  0  0  0  0  0  0  0  0  0  0
    1.0877    7.6055   -3.3570 C   0  0  0  0  0  0  0  0  0  0  0  0
    0.9740    4.2270    0.2218 N   0  0  0  0  0  0  0  0  0  0  0  0
    1.0830    3.4953   -1.0427 C   0  0  0  0  0  0  0  0  0  0  0  0
    1.1182    2.0146   -0.7648 C   0  0  0  0  0  0  0  0  0  0  0  0
    2.3376    1.3446   -0.7672 C   0  0  0  0  0  0  0  0  0  0  0  0
    2.4042    0.0052   -0.5200 C   0  0  0  0  0  0  0  0  0  0  0  0
    1.2279   -0.7103   -0.2591 C   0  0  0  0  0  0  0  0  0  0  0  0
   -0.0129   -0.0277   -0.2569 C   0  0  0  0  0  0  0  0  0  0  0  0
   -0.0472    1.3481   -0.5145 C   0  0  0  0  0  0  0  0  0  0  0  0
   -1.5603    2.1990   -0.5226 Cl  0  0  0  0  0  0  0  0  0  0  0  0
   -1.1886   -0.7716    0.0097 C   0  0  0  0  0  0  0  0  0  0  0  0
   -1.0709   -2.0706    0.2439 N   0  0  0  0  0  0  0  0  0  0  0  0
    0.1150   -2.6727    0.2326 C   0  0  0  0  0  0  0  0  0  0  0  0
    0.1706   -4.0314    0.4852 N   0  0  0  0  0  0  0  0  0  0  0  0
   -2.4236   -0.1598    0.0253 N   0  0  0  0  0  0  0  0  0  0  0  0
   -0.2470    6.9432    3.7544 H   0  0  0  0  0  0  0  0  0  0  0  0
    1.5280    7.0073    3.8703 H   0  0  0  0  0  0  0  0  0  0  0  0
    0.5393    8.2667    4.6480 H   0  0  0  0  0  0  0  0  0  0  0  0
    0.7787    5.7779    2.3515 H   0  0  0  0  0  0  0  0  0  0  0  0
    1.0678    5.7794   -1.9138 H   0  0  0  0  0  0  0  0  0  0  0  0
    2.5290   10.1814    1.2177 H   0  0  0  0  0  0  0  0  0  0  0  0
    2.6460   10.1819   -0.5584 H   0  0  0  0  0  0  0  0  0  0  0  0
    1.8399   11.5288    0.2808 H   0  0  0  0  0  0  0  0  0  0  0  0
    1.9994    7.0091   -3.3219 H   0  0  0  0  0  0  0  0  0  0  0  0
    0.2244    6.9451   -3.4385 H   0  0  0  0  0  0  0  0  0  0  0  0
    1.1205    8.2689   -4.2212 H   0  0  0  0  0  0  0  0  0  0  0  0
    0.9367    3.7421    1.0610 H   0  0  0  0  0  0  0  0  0  0  0  0
    1.9983    3.7906   -1.5557 H   0  0  0  0  0  0  0  0  0  0  0  0
    0.2233    3.7266   -1.6716 H   0  0  0  0  0  0  0  0  0  0  0  0
    3.2455    1.8939   -0.9680 H   0  0  0  0  0  0  0  0  0  0  0  0
    3.3582   -0.5011   -0.5249 H   0  0  0  0  0  0  0  0  0  0  0  0
    1.0249   -4.4907    0.4816 H   0  0  0  0  0  0  0  0  0  0  0  0
   -0.6447   -4.5249    0.6658 H   0  0  0  0  0  0  0  0  0  0  0  0
   -2.6512    0.4909   -0.6571 H   0  0  0  0  0  0  0  0  0  0  0  0
   -3.0653   -0.3800    0.7186 H   0  0  0  0  0  0  0  0  0  0  0  0
    1.3022   -2.0639   -0.0096 N   0  3  0  0  0  0  0  0  0  0  0  0
    2.1892   -2.5256   -0.0162 H   0  0  0  0  0  0  0  0  0  0  0  0
  1  2  1  0  0  0  0
  1 27  1  0  0  0  0
  1 28  1  0  0  0  0
  1 29  1  0  0  0  0
  2  3  1  0  0  0  0
  3  8  2  0  0  0  0
  3  4  1  0  0  0  0
  4  5  2  0  0  0  0
  4 30  1  0  0  0  0
  5  6  1  0  0  0  0
  5 13  1  0  0  0  0
  6  7  2  0  0  0  0
  6 31  1  0  0  0  0
  7  8  1  0  0  0  0
  7 11  1  0  0  0  0
  8  9  1  0  0  0  0
  9 10  1  0  0  0  0
 10 32  1  0  0  0  0
 10 33  1  0  0  0  0
 10 34  1  0  0  0  0
 11 12  1  0  0  0  0
 12 35  1  0  0  0  0
 12 36  1  0  0  0  0
 12 37  1  0  0  0  0
 13 14  1  0  0  0  0
 13 38  1  0  0  0  0
 14 15  1  0  0  0  0
 14 39  1  0  0  0  0
 14 40  1  0  0  0  0
 15 20  2  0  0  0  0
 15 16  1  0  0  0  0
 16 17  2  0  0  0  0
 16 41  1  0  0  0  0
 17 18  1  0  0  0  0
 17 42  1  0  0  0  0
 18 19  2  0  0  0  0
 18 47  1  0  0  0  0
 19 20  1  0  0  0  0
 19 22  1  0  0  0  0
 20 21  1  0  0  0  0
 22 23  2  0  0  0  0
 22 26  1  0  0  0  0
 23 24  1  0  0  0  0
 24 25  1  0  0  0  0
 24 47  2  0  0  0  0
 25 43  1  0  0  0  0
 25 44  1  0  0  0  0
 26 45  1  0  0  0  0
 26 46  1  0  0  0  0
 47 48  1  0  0  0  0
M  CHG  1  47   1
M  END
$$$$
ZINC03814858
  -OEChem-08230709403D

 42 44  0     0  0  0  0  0  0999 V2000
   -3.5992    1.8199    0.0294 C   0  0  0  0  0  0  0  0  0  0  0  0
   -2.3905    1.0578    0.0196 O   0  0  0  0  0  0  0  0  0  0  0  0
   -1.2221    1.7534    0.0173 C   0  0  0  0  0  0  0  0  0  0  0  0
   -1.2412    3.1403    0.0294 C   0  0  0  0  0  0  0  0  0  0  0  0
   -0.0550    3.8507    0.0223 C   0  0  0  0  0  0  0  0  0  0  0  0
    1.1559    3.1791    0.0076 C   0  0  0  0  0  0  0  0  0  0  0  0
    1.1786    1.7864    0.0004 C   0  0  0  0  0  0  0  0  0  0  0  0
   -0.0126    1.0758    0.0080 C   0  0  0  0  0  0  0  0  0  0  0  0
    2.4011    1.1052   -0.0140 N   0  0  0  0  0  0  0  0  0  0  0  0
    2.4234   -0.3596   -0.0211 C   0  0  0  0  0  0  0  0  0  0  0  0
    3.8517   -0.8401   -0.0364 C   0  0  0  0  0  0  0  0  0  0  0  0
    4.4745   -1.1574    1.1688 C   0  0  0  0  0  0  0  0  0  0  0  0
    5.7681   -1.5991    1.1740 C   0  0  0  0  0  0  0  0  0  0  0  0
    6.4340   -1.7085   -0.0587 C   0  0  0  0  0  0  0  0  0  0  0  0
    5.7399   -1.3635   -1.2428 C   0  0  0  0  0  0  0  0  0  0  0  0
    4.4795   -0.9441   -1.1843 N   0  0  0  0  0  0  0  0  0  0  0  0
    6.4594   -1.4875   -2.5115 C   0  0  0  0  0  0  0  0  0  0  0  0
    7.7134   -1.9146   -2.4703 N   0  0  0  0  0  0  0  0  0  0  0  0
    8.3030   -2.2213   -1.3190 C   0  0  0  0  0  0  0  0  0  0  0  0
    7.7020   -2.1284   -0.1498 N   0  0  0  0  0  0  0  0  0  0  0  0
    9.6142   -2.6609   -1.3498 N   0  0  0  0  0  0  0  0  0  0  0  0
    5.8533   -1.1704   -3.7086 N   0  0  0  0  0  0  0  0  0  0  0  0
    2.3228    3.8793   -0.0002 O   0  0  0  0  0  0  0  0  0  0  0  0
    2.2242    5.3048    0.0079 C   0  0  0  0  0  0  0  0  0  0  0  0
   -4.4547    1.1444    0.0301 H   0  0  0  0  0  0  0  0  0  0  0  0
   -3.6281    2.4438    0.9227 H   0  0  0  0  0  0  0  0  0  0  0  0
   -3.6369    2.4529   -0.8572 H   0  0  0  0  0  0  0  0  0  0  0  0
   -2.1844    3.6662    0.0404 H   0  0  0  0  0  0  0  0  0  0  0  0
   -0.0729    4.9305    0.0279 H   0  0  0  0  0  0  0  0  0  0  0  0
    0.0021   -0.0041    0.0020 H   0  0  0  0  0  0  0  0  0  0  0  0
    3.2336    1.6030   -0.0193 H   0  0  0  0  0  0  0  0  0  0  0  0
    1.9234   -0.7349    0.8718 H   0  0  0  0  0  0  0  0  0  0  0  0
    1.9071   -0.7265   -0.9081 H   0  0  0  0  0  0  0  0  0  0  0  0
    3.9340   -1.0581    2.0985 H   0  0  0  0  0  0  0  0  0  0  0  0
    6.2651   -1.8529    2.0987 H   0  0  0  0  0  0  0  0  0  0  0  0
   10.0798   -2.7388   -2.1971 H   0  0  0  0  0  0  0  0  0  0  0  0
   10.0680   -2.8914   -0.5240 H   0  0  0  0  0  0  0  0  0  0  0  0
    4.9347   -0.8591   -3.7197 H   0  0  0  0  0  0  0  0  0  0  0  0
    6.3455   -1.2588   -4.5398 H   0  0  0  0  0  0  0  0  0  0  0  0
    1.6951    5.6273    0.9047 H   0  0  0  0  0  0  0  0  0  0  0  0
    3.2242    5.7383    0.0003 H   0  0  0  0  0  0  0  0  0  0  0  0
    1.6778    5.6363   -0.8752 H   0  0  0  0  0  0  0  0  0  0  0  0
  1  2  1  0  0  0  0
  1 25  1  0  0  0  0
  1 26  1  0  0  0  0
  1 27  1  0  0  0  0
  2  3  1  0  0  0  0
  3  8  2  0  0  0  0
  3  4  1  0  0  0  0
  4  5  2  0  0  0  0
  4 28  1  0  0  0  0
  5  6  1  0  0  0  0
  5 29  1  0  0  0  0
  6  7  2  0  0  0  0
  6 23  1  0  0  0  0
  7  8  1  0  0  0  0
  7  9  1  0  0  0  0
  8 30  1  0  0  0  0
  9 10  1  0  0  0  0
  9 31  1  0  0  0  0
 10 11  1  0  0  0  0
 10 32  1  0  0  0  0
 10 33  1  0  0  0  0
 11 16  2  0  0  0  0
 11 12  1  0  0  0  0
 12 13  2  0  0  0  0
 12 34  1  0  0  0  0
 13 14  1  0  0  0  0
 13 35  1  0  0  0  0
 14 20  2  0  0  0  0
 14 15  1  0  0  0  0
 15 16  1  0  0  0  0
 15 17  2  0  0  0  0
 17 18  1  0  0  0  0
 17 22  1  0  0  0  0
 18 19  2  0  0  0  0
 19 20  1  0  0  0  0
 19 21  1  0  0  0  0
 21 36  1  0  0  0  0
 21 37  1  0  0  0  0
 22 38  1  0  0  0  0
 22 39  1  0  0  0  0
 23 24  1  0  0  0  0
 24 40  1  0  0  0  0
 24 41  1  0  0  0  0
 24 42  1  0  0  0  0
M  END
$$$$
ZINC03814858
  -OEChem-08230709403D

 43 45  0     0  0  0  0  0  0999 V2000
   -3.5992    1.8199    0.0294 C   0  0  0  0  0  0  0  0  0  0  0  0
   -2.3905    1.0578    0.0196 O   0  0  0  0  0  0  0  0  0  0  0  0
   -1.2221    1.7534    0.0173 C   0  0  0  0  0  0  0  0  0  0  0  0
   -1.2412    3.1403    0.0294 C   0  0  0  0  0  0  0  0  0  0  0  0
   -0.0550    3.8507    0.0223 C   0  0  0  0  0  0  0  0  0  0  0  0
    1.1559    3.1791    0.0076 C   0  0  0  0  0  0  0  0  0  0  0  0
    1.1786    1.7864    0.0004 C   0  0  0  0  0  0  0  0  0  0  0  0
   -0.0126    1.0758    0.0080 C   0  0  0  0  0  0  0  0  0  0  0  0
    2.4011    1.1052   -0.0140 N   0  0  0  0  0  0  0  0  0  0  0  0
    2.4234   -0.3596   -0.0211 C   0  0  0  0  0  0  0  0  0  0  0  0
    3.8517   -0.8401   -0.0364 C   0  0  0  0  0  0  0  0  0  0  0  0
    4.4745   -1.1574    1.1688 C   0  0  0  0  0  0  0  0  0  0  0  0
    5.7681   -1.5991    1.1740 C   0  0  0  0  0  0  0  0  0  0  0  0
    6.4340   -1.7085   -0.0587 C   0  0  0  0  0  0  0  0  0  0  0  0
    5.7399   -1.3635   -1.2428 C   0  0  0  0  0  0  0  0  0  0  0  0
    4.4795   -0.9441   -1.1843 N   0  0  0  0  0  0  0  0  0  0  0  0
    6.4594   -1.4875   -2.5115 C   0  0  0  0  0  0  0  0  0  0  0  0
    7.7134   -1.9146   -2.4703 N   0  0  0  0  0  0  0  0  0  0  0  0
    8.3030   -2.2213   -1.3190 C   0  0  0  0  0  0  0  0  0  0  0  0
    9.6142   -2.6609   -1.3498 N   0  0  0  0  0  0  0  0  0  0  0  0
    5.8533   -1.1704   -3.7086 N   0  0  0  0  0  0  0  0  0  0  0  0
    2.3228    3.8793   -0.0002 O   0  0  0  0  0  0  0  0  0  0  0  0
    2.2242    5.3048    0.0079 C   0  0  0  0  0  0  0  0  0  0  0  0
   -4.4547    1.1444    0.0301 H   0  0  0  0  0  0  0  0  0  0  0  0
   -3.6281    2.4438    0.9227 H   0  0  0  0  0  0  0  0  0  0  0  0
   -3.6369    2.4529   -0.8572 H   0  0  0  0  0  0  0  0  0  0  0  0
   -2.1844    3.6662    0.0404 H   0  0  0  0  0  0  0  0  0  0  0  0
   -0.0729    4.9305    0.0279 H   0  0  0  0  0  0  0  0  0  0  0  0
    0.0021   -0.0041    0.0020 H   0  0  0  0  0  0  0  0  0  0  0  0
    3.2336    1.6030   -0.0193 H   0  0  0  0  0  0  0  0  0  0  0  0
    1.9234   -0.7349    0.8718 H   0  0  0  0  0  0  0  0  0  0  0  0
    1.9071   -0.7265   -0.9081 H   0  0  0  0  0  0  0  0  0  0  0  0
    3.9340   -1.0581    2.0985 H   0  0  0  0  0  0  0  0  0  0  0  0
    6.2651   -1.8529    2.0987 H   0  0  0  0  0  0  0  0  0  0  0  0
   10.0798   -2.7388   -2.1971 H   0  0  0  0  0  0  0  0  0  0  0  0
   10.0680   -2.8914   -0.5240 H   0  0  0  0  0  0  0  0  0  0  0  0
    4.9347   -0.8591   -3.7197 H   0  0  0  0  0  0  0  0  0  0  0  0
    6.3455   -1.2588   -4.5398 H   0  0  0  0  0  0  0  0  0  0  0  0
    1.6951    5.6273    0.9047 H   0  0  0  0  0  0  0  0  0  0  0  0
    3.2242    5.7383    0.0003 H   0  0  0  0  0  0  0  0  0  0  0  0
    1.6778    5.6363   -0.8752 H   0  0  0  0  0  0  0  0  0  0  0  0
    7.7396   -2.1469   -0.0877 N   0  3  0  0  0  0  0  0  0  0  0  0
    8.2061   -2.3849    0.7642 H   0  0  0  0  0  0  0  0  0  0  0  0
  1  2  1  0  0  0  0
  1 24  1  0  0  0  0
  1 25  1  0  0  0  0
  1 26  1  0  0  0  0
  2  3  1  0  0  0  0
  3  8  2  0  0  0  0
  3  4  1  0  0  0  0
  4  5  2  0  0  0  0
  4 27  1  0  0  0  0
  5  6  1  0  0  0  0
  5 28  1  0  0  0  0
  6  7  2  0  0  0  0
  6 22  1  0  0  0  0
  7  8  1  0  0  0  0
  7  9  1  0  0  0  0
  8 29  1  0  0  0  0
  9 10  1  0  0  0  0
  9 30  1  0  0  0  0
 10 11  1  0  0  0  0
 10 31  1  0  0  0  0
 10 32  1  0  0  0  0
 11 16  2  0  0  0  0
 11 12  1  0  0  0  0
 12 13  2  0  0  0  0
 12 33  1  0  0  0  0
 13 14  1  0  0  0  0
 13 34  1  0  0  0  0
 14 15  2  0  0  0  0
 14 42  1  0  0  0  0
 15 16  1  0  0  0  0
 15 17  1  0  0  0  0
 17 18  2  0  0  0  0
 17 21  1  0  0  0  0
 18 19  1  0  0  0  0
 19 20  1  0  0  0  0
 19 42  2  0  0  0  0
 20 35  1  0  0  0  0
 20 36  1  0  0  0  0
 21 37  1  0  0  0  0
 21 38  1  0  0  0  0
 22 23  1  0  0  0  0
 23 39  1  0  0  0  0
 23 40  1  0  0  0  0
 23 41  1  0  0  0  0
 42 43  1  0  0  0  0
M  CHG  1  42   1
M  END
$$$$
ZINC03814859
  -OEChem-08230709403D

 37 39  0     1  0  0  0  0  0999 V2000
   -0.0001   -0.7297   -1.2707 C   0  0  0  0  0  0  0  0  0  0  0  0
    0.0021   -0.0041    0.0020 N   0  0  3  0  0  0  0  0  0  0  0  0
   -0.0178    1.4608    0.0101 C   0  0  0  0  0  0  0  0  0  0  0  0
    1.3960    1.9824   -0.0006 C   0  0  0  0  0  0  0  0  0  0  0  0
    1.9869    2.3181   -1.2168 C   0  0  0  0  0  0  0  0  0  0  0  0
    3.2669    2.7970   -1.2456 C   0  0  0  0  0  0  0  0  0  0  0  0
    3.9521    2.9251   -0.0254 C   0  0  0  0  0  0  0  0  0  0  0  0
    3.2904    2.5596    1.1711 C   0  0  0  0  0  0  0  0  0  0  0  0
    2.0418    2.1040    1.1356 N   0  0  0  0  0  0  0  0  0  0  0  0
    4.0294    2.7039    2.4264 C   0  0  0  0  0  0  0  0  0  0  0  0
    5.2696    3.1671    2.3623 N   0  0  0  0  0  0  0  0  0  0  0  0
    5.8286    3.4912    1.2006 C   0  0  0  0  0  0  0  0  0  0  0  0
    5.2089    3.3814    0.0427 N   0  0  0  0  0  0  0  0  0  0  0  0
    7.1268    3.9686    1.2075 N   0  0  0  0  0  0  0  0  0  0  0  0
    3.4550    2.3690    3.6342 N   0  0  0  0  0  0  0  0  0  0  0  0
    0.0231   -0.7092    1.2083 C   0  0  0  0  0  0  0  0  0  0  0  0
    0.0309   -0.0225    2.4156 C   0  0  0  0  0  0  0  0  0  0  0  0
    0.0454   -0.7220    3.6064 C   0  0  0  0  0  0  0  0  0  0  0  0
    0.0647   -2.1057    3.5972 C   0  0  0  0  0  0  0  0  0  0  0  0
    0.0627   -2.7924    2.3958 C   0  0  0  0  0  0  0  0  0  0  0  0
    0.0420   -2.0980    1.2022 C   0  0  0  0  0  0  0  0  0  0  0  0
    0.0907   -2.9816    5.0958 Cl  0  0  0  0  0  0  0  0  0  0  0  0
    1.0269   -0.8956   -1.5960 H   0  0  0  0  0  0  0  0  0  0  0  0
   -0.4997   -1.6897   -1.1407 H   0  0  0  0  0  0  0  0  0  0  0  0
   -0.5291   -0.1436   -2.0222 H   0  0  0  0  0  0  0  0  0  0  0  0
   -0.5450    1.8219   -0.8730 H   0  0  0  0  0  0  0  0  0  0  0  0
   -0.5280    1.8123    0.9069 H   0  0  0  0  0  0  0  0  0  0  0  0
    1.4323    2.2035   -2.1365 H   0  0  0  0  0  0  0  0  0  0  0  0
    3.7391    3.0654   -2.1791 H   0  0  0  0  0  0  0  0  0  0  0  0
    7.6057    4.0595    2.0461 H   0  0  0  0  0  0  0  0  0  0  0  0
    7.5584    4.2124    0.3737 H   0  0  0  0  0  0  0  0  0  0  0  0
    2.5462    2.0311    3.6620 H   0  0  0  0  0  0  0  0  0  0  0  0
    3.9598    2.4711    4.4562 H   0  0  0  0  0  0  0  0  0  0  0  0
    0.0212    1.0575    2.4232 H   0  0  0  0  0  0  0  0  0  0  0  0
    0.0463   -0.1886    4.5454 H   0  0  0  0  0  0  0  0  0  0  0  0
    0.0770   -3.8723    2.3916 H   0  0  0  0  0  0  0  0  0  0  0  0
    0.0401   -2.6345    0.2648 H   0  0  0  0  0  0  0  0  0  0  0  0
  1  2  1  0  0  0  0
  1 23  1  0  0  0  0
  1 24  1  0  0  0  0
  1 25  1  0  0  0  0
  2  3  1  0  0  0  0
  2 16  1  0  0  0  0
  3  4  1  0  0  0  0
  3 26  1  0  0  0  0
  3 27  1  0  0  0  0
  4  9  2  0  0  0  0
  4  5  1  0  0  0  0
  5  6  2  0  0  0  0
  5 28  1  0  0  0  0
  6  7  1  0  0  0  0
  6 29  1  0  0  0  0
  7 13  2  0  0  0  0
  7  8  1  0  0  0  0
  8  9  1  0  0  0  0
  8 10  2  0  0  0  0
 10 11  1  0  0  0  0
 10 15  1  0  0  0  0
 11 12  2  0  0  0  0
 12 13  1  0  0  0  0
 12 14  1  0  0  0  0
 14 30  1  0  0  0  0
 14 31  1  0  0  0  0
 15 32  1  0  0  0  0
 15 33  1  0  0  0  0
 16 21  2  0  0  0  0
 16 17  1  0  0  0  0
 17 18  2  0  0  0  0
 17 34  1  0  0  0  0
 18 19  1  0  0  0  0
 18 35  1  0  0  0  0
 19 20  2  0  0  0  0
 19 22  1  0  0  0  0
 20 21  1  0  0  0  0
 20 36  1  0  0  0  0
 21 37  1  0  0  0  0
M  END
$$$$
ZINC03814859
  -OEChem-08230709403D

 38 40  0     1  0  0  0  0  0999 V2000
   -0.0001   -0.7297   -1.2707 C   0  0  0  0  0  0  0  0  0  0  0  0
    0.0021   -0.0041    0.0020 N   0  0  3  0  0  0  0  0  0  0  0  0
   -0.0178    1.4608    0.0101 C   0  0  0  0  0  0  0  0  0  0  0  0
    1.3960    1.9824   -0.0006 C   0  0  0  0  0  0  0  0  0  0  0  0
    1.9869    2.3181   -1.2168 C   0  0  0  0  0  0  0  0  0  0  0  0
    3.2669    2.7970   -1.2456 C   0  0  0  0  0  0  0  0  0  0  0  0
    3.9521    2.9251   -0.0254 C   0  0  0  0  0  0  0  0  0  0  0  0
    3.2904    2.5596    1.1711 C   0  0  0  0  0  0  0  0  0  0  0  0
    2.0418    2.1040    1.1356 N   0  0  0  0  0  0  0  0  0  0  0  0
    4.0294    2.7039    2.4264 C   0  0  0  0  0  0  0  0  0  0  0  0
    5.2696    3.1671    2.3623 N   0  0  0  0  0  0  0  0  0  0  0  0
    5.8286    3.4912    1.2006 C   0  0  0  0  0  0  0  0  0  0  0  0
    7.1268    3.9686    1.2075 N   0  0  0  0  0  0  0  0  0  0  0  0
    3.4550    2.3690    3.6342 N   0  0  0  0  0  0  0  0  0  0  0  0
    0.0231   -0.7092    1.2083 C   0  0  0  0  0  0  0  0  0  0  0  0
    0.0309   -0.0225    2.4156 C   0  0  0  0  0  0  0  0  0  0  0  0
    0.0454   -0.7220    3.6064 C   0  0  0  0  0  0  0  0  0  0  0  0
    0.0647   -2.1057    3.5972 C   0  0  0  0  0  0  0  0  0  0  0  0
    0.0627   -2.7924    2.3958 C   0  0  0  0  0  0  0  0  0  0  0  0
    0.0420   -2.0980    1.2022 C   0  0  0  0  0  0  0  0  0  0  0  0
    0.0907   -2.9816    5.0958 Cl  0  0  0  0  0  0  0  0  0  0  0  0
    1.0269   -0.8956   -1.5960 H   0  0  0  0  0  0  0  0  0  0  0  0
   -0.4997   -1.6897   -1.1407 H   0  0  0  0  0  0  0  0  0  0  0  0
   -0.5291   -0.1436   -2.0222 H   0  0  0  0  0  0  0  0  0  0  0  0
   -0.5450    1.8219   -0.8730 H   0  0  0  0  0  0  0  0  0  0  0  0
   -0.5280    1.8123    0.9069 H   0  0  0  0  0  0  0  0  0  0  0  0
    1.4323    2.2035   -2.1365 H   0  0  0  0  0  0  0  0  0  0  0  0
    3.7391    3.0654   -2.1791 H   0  0  0  0  0  0  0  0  0  0  0  0
    7.6057    4.0595    2.0461 H   0  0  0  0  0  0  0  0  0  0  0  0
    7.5584    4.2124    0.3737 H   0  0  0  0  0  0  0  0  0  0  0  0
    2.5462    2.0311    3.6620 H   0  0  0  0  0  0  0  0  0  0  0  0
    3.9598    2.4711    4.4562 H   0  0  0  0  0  0  0  0  0  0  0  0
    0.0212    1.0575    2.4232 H   0  0  0  0  0  0  0  0  0  0  0  0
    0.0463   -0.1886    4.5454 H   0  0  0  0  0  0  0  0  0  0  0  0
    0.0770   -3.8723    2.3916 H   0  0  0  0  0  0  0  0  0  0  0  0
    0.0401   -2.6345    0.2648 H   0  0  0  0  0  0  0  0  0  0  0  0
    5.2448    3.4011   -0.0201 N   0  3  0  0  0  0  0  0  0  0  0  0
    5.6885    3.6527   -0.8802 H   0  0  0  0  0  0  0  0  0  0  0  0
  1  2  1  0  0  0  0
  1 22  1  0  0  0  0
  1 23  1  0  0  0  0
  1 24  1  0  0  0  0
  2  3  1  0  0  0  0
  2 15  1  0  0  0  0
  3  4  1  0  0  0  0
  3 25  1  0  0  0  0
  3 26  1  0  0  0  0
  4  9  2  0  0  0  0
  4  5  1  0  0  0  0
  5  6  2  0  0  0  0
  5 27  1  0  0  0  0
  6  7  1  0  0  0  0
  6 28  1  0  0  0  0
  7  8  2  0  0  0  0
  7 37  1  0  0  0  0
  8  9  1  0  0  0  0
  8 10  1  0  0  0  0
 10 11  2  0  0  0  0
 10 14  1  0  0  0  0
 11 12  1  0  0  0  0
 12 13  1  0  0  0  0
 12 37  2  0  0  0  0
 13 29  1  0  0  0  0
 13 30  1  0  0  0  0
 14 31  1  0  0  0  0
 14 32  1  0  0  0  0
 15 20  2  0  0  0  0
 15 16  1  0  0  0  0
 16 17  2  0  0  0  0
 16 33  1  0  0  0  0
 17 18  1  0  0  0  0
 17 34  1  0  0  0  0
 18 19  2  0  0  0  0
 18 21  1  0  0  0  0
 19 20  1  0  0  0  0
 19 35  1  0  0  0  0
 20 36  1  0  0  0  0
 37 38  1  0  0  0  0
M  CHG  1  37   1
M  END
$$$$
ZINC03814860
  -OEChem-08230709403D

 37 39  0     1  0  0  0  0  0999 V2000
    1.1912    5.9888    0.0205 C   0  0  0  0  0  0  0  0  0  0  0  0
   -0.0679    5.2400    0.0295 N   0  0  3  0  0  0  0  0  0  0  0  0
   -1.3459    5.9560    0.0455 C   0  0  0  0  0  0  0  0  0  0  0  0
   -1.7700    6.1948    1.4717 C   0  0  0  0  0  0  0  0  0  0  0  0
   -1.4514    7.4064    2.0812 C   0  0  0  0  0  0  0  0  0  0  0  0
   -1.8318    7.6426    3.3728 C   0  0  0  0  0  0  0  0  0  0  0  0
   -2.5338    6.6311    4.0503 C   0  0  0  0  0  0  0  0  0  0  0  0
   -2.8180    5.4233    3.3695 C   0  0  0  0  0  0  0  0  0  0  0  0
   -2.4256    5.2540    2.1104 N   0  0  0  0  0  0  0  0  0  0  0  0
   -3.5504    4.3884    4.1009 C   0  0  0  0  0  0  0  0  0  0  0  0
   -3.9004    4.6482    5.3526 N   0  0  0  0  0  0  0  0  0  0  0  0
   -3.5992    5.8074    5.9294 C   0  0  0  0  0  0  0  0  0  0  0  0
   -2.9427    6.7724    5.3174 N   0  0  0  0  0  0  0  0  0  0  0  0
   -3.9954    6.0114    7.2389 N   0  0  0  0  0  0  0  0  0  0  0  0
   -3.8653    3.1841    3.5081 N   0  0  0  0  0  0  0  0  0  0  0  0
   -0.0499    3.8434    0.0227 C   0  0  0  0  0  0  0  0  0  0  0  0
    1.1613    3.1629    0.0075 C   0  0  0  0  0  0  0  0  0  0  0  0
    1.1763    1.7821    0.0004 C   0  0  0  0  0  0  0  0  0  0  0  0
   -0.0126    1.0758    0.0080 C   0  0  0  0  0  0  0  0  0  0  0  0
   -1.2211    1.7499    0.0174 C   0  0  0  0  0  0  0  0  0  0  0  0
   -1.2426    3.1321    0.0307 C   0  0  0  0  0  0  0  0  0  0  0  0
   -2.7111    0.8592    0.0190 Cl  0  0  0  0  0  0  0  0  0  0  0  0
    1.4933    6.1793   -1.0093 H   0  0  0  0  0  0  0  0  0  0  0  0
    1.0537    6.9370    0.5402 H   0  0  0  0  0  0  0  0  0  0  0  0
    1.9634    5.4072    0.5240 H   0  0  0  0  0  0  0  0  0  0  0  0
   -1.2330    6.9124   -0.4650 H   0  0  0  0  0  0  0  0  0  0  0  0
   -2.1030    5.3595   -0.4636 H   0  0  0  0  0  0  0  0  0  0  0  0
   -0.9074    8.1606    1.5320 H   0  0  0  0  0  0  0  0  0  0  0  0
   -1.5963    8.5775    3.8595 H   0  0  0  0  0  0  0  0  0  0  0  0
   -4.4803    5.3175    7.7126 H   0  0  0  0  0  0  0  0  0  0  0  0
   -3.7885    6.8483    7.6836 H   0  0  0  0  0  0  0  0  0  0  0  0
   -3.6008    3.0111    2.5910 H   0  0  0  0  0  0  0  0  0  0  0  0
   -4.3512    2.5097    4.0081 H   0  0  0  0  0  0  0  0  0  0  0  0
    2.0905    3.7134    0.0009 H   0  0  0  0  0  0  0  0  0  0  0  0
    2.1178    1.2530   -0.0114 H   0  0  0  0  0  0  0  0  0  0  0  0
    0.0021   -0.0041    0.0020 H   0  0  0  0  0  0  0  0  0  0  0  0
   -2.1858    3.6581    0.0430 H   0  0  0  0  0  0  0  0  0  0  0  0
  1  2  1  0  0  0  0
  1 23  1  0  0  0  0
  1 24  1  0  0  0  0
  1 25  1  0  0  0  0
  2  3  1  0  0  0  0
  2 16  1  0  0  0  0
  3  4  1  0  0  0  0
  3 26  1  0  0  0  0
  3 27  1  0  0  0  0
  4  9  2  0  0  0  0
  4  5  1  0  0  0  0
  5  6  2  0  0  0  0
  5 28  1  0  0  0  0
  6  7  1  0  0  0  0
  6 29  1  0  0  0  0
  7 13  2  0  0  0  0
  7  8  1  0  0  0  0
  8  9  1  0  0  0  0
  8 10  2  0  0  0  0
 10 11  1  0  0  0  0
 10 15  1  0  0  0  0
 11 12  2  0  0  0  0
 12 13  1  0  0  0  0
 12 14  1  0  0  0  0
 14 30  1  0  0  0  0
 14 31  1  0  0  0  0
 15 32  1  0  0  0  0
 15 33  1  0  0  0  0
 16 21  2  0  0  0  0
 16 17  1  0  0  0  0
 17 18  2  0  0  0  0
 17 34  1  0  0  0  0
 18 19  1  0  0  0  0
 18 35  1  0  0  0  0
 19 20  2  0  0  0  0
 19 36  1  0  0  0  0
 20 21  1  0  0  0  0
 20 22  1  0  0  0  0
 21 37  1  0  0  0  0
M  END
$$$$
ZINC03814860
  -OEChem-08230709403D

 38 40  0     1  0  0  0  0  0999 V2000
    1.1912    5.9888    0.0205 C   0  0  0  0  0  0  0  0  0  0  0  0
   -0.0679    5.2400    0.0295 N   0  0  3  0  0  0  0  0  0  0  0  0
   -1.3459    5.9560    0.0455 C   0  0  0  0  0  0  0  0  0  0  0  0
   -1.7700    6.1948    1.4717 C   0  0  0  0  0  0  0  0  0  0  0  0
   -1.4514    7.4064    2.0812 C   0  0  0  0  0  0  0  0  0  0  0  0
   -1.8318    7.6426    3.3728 C   0  0  0  0  0  0  0  0  0  0  0  0
   -2.5338    6.6311    4.0503 C   0  0  0  0  0  0  0  0  0  0  0  0
   -2.8180    5.4233    3.3695 C   0  0  0  0  0  0  0  0  0  0  0  0
   -2.4256    5.2540    2.1104 N   0  0  0  0  0  0  0  0  0  0  0  0
   -3.5504    4.3884    4.1009 C   0  0  0  0  0  0  0  0  0  0  0  0
   -3.9004    4.6482    5.3526 N   0  0  0  0  0  0  0  0  0  0  0  0
   -3.5992    5.8074    5.9294 C   0  0  0  0  0  0  0  0  0  0  0  0
   -3.9954    6.0114    7.2389 N   0  0  0  0  0  0  0  0  0  0  0  0
   -3.8653    3.1841    3.5081 N   0  0  0  0  0  0  0  0  0  0  0  0
   -0.0499    3.8434    0.0227 C   0  0  0  0  0  0  0  0  0  0  0  0
    1.1613    3.1629    0.0075 C   0  0  0  0  0  0  0  0  0  0  0  0
    1.1763    1.7821    0.0004 C   0  0  0  0  0  0  0  0  0  0  0  0
   -0.0126    1.0758    0.0080 C   0  0  0  0  0  0  0  0  0  0  0  0
   -1.2211    1.7499    0.0174 C   0  0  0  0  0  0  0  0  0  0  0  0
   -1.2426    3.1321    0.0307 C   0  0  0  0  0  0  0  0  0  0  0  0
   -2.7111    0.8592    0.0190 Cl  0  0  0  0  0  0  0  0  0  0  0  0
    1.4933    6.1793   -1.0093 H   0  0  0  0  0  0  0  0  0  0  0  0
    1.0537    6.9370    0.5402 H   0  0  0  0  0  0  0  0  0  0  0  0
    1.9634    5.4072    0.5240 H   0  0  0  0  0  0  0  0  0  0  0  0
   -1.2330    6.9124   -0.4650 H   0  0  0  0  0  0  0  0  0  0  0  0
   -2.1030    5.3595   -0.4636 H   0  0  0  0  0  0  0  0  0  0  0  0
   -0.9074    8.1606    1.5320 H   0  0  0  0  0  0  0  0  0  0  0  0
   -1.5963    8.5775    3.8595 H   0  0  0  0  0  0  0  0  0  0  0  0
   -4.4803    5.3175    7.7126 H   0  0  0  0  0  0  0  0  0  0  0  0
   -3.7885    6.8483    7.6836 H   0  0  0  0  0  0  0  0  0  0  0  0
   -3.6008    3.0111    2.5910 H   0  0  0  0  0  0  0  0  0  0  0  0
   -4.3512    2.5097    4.0081 H   0  0  0  0  0  0  0  0  0  0  0  0
    2.0905    3.7134    0.0009 H   0  0  0  0  0  0  0  0  0  0  0  0
    2.1178    1.2530   -0.0114 H   0  0  0  0  0  0  0  0  0  0  0  0
    0.0021   -0.0041    0.0020 H   0  0  0  0  0  0  0  0  0  0  0  0
   -2.1858    3.6581    0.0430 H   0  0  0  0  0  0  0  0  0  0  0  0
   -2.9282    6.8360    5.3543 N   0  3  0  0  0  0  0  0  0  0  0  0
   -2.7148    7.6994    5.8114 H   0  0  0  0  0  0  0  0  0  0  0  0
  1  2  1  0  0  0  0
  1 22  1  0  0  0  0
  1 23  1  0  0  0  0
  1 24  1  0  0  0  0
  2  3  1  0  0  0  0
  2 15  1  0  0  0  0
  3  4  1  0  0  0  0
  3 25  1  0  0  0  0
  3 26  1  0  0  0  0
  4  9  2  0  0  0  0
  4  5  1  0  0  0  0
  5  6  2  0  0  0  0
  5 27  1  0  0  0  0
  6  7  1  0  0  0  0
  6 28  1  0  0  0  0
  7  8  2  0  0  0  0
  7 37  1  0  0  0  0
  8  9  1  0  0  0  0
  8 10  1  0  0  0  0
 10 11  2  0  0  0  0
 10 14  1  0  0  0  0
 11 12  1  0  0  0  0
 12 13  1  0  0  0  0
 12 37  2  0  0  0  0
 13 29  1  0  0  0  0
 13 30  1  0  0  0  0
 14 31  1  0  0  0  0
 14 32  1  0  0  0  0
 15 20  2  0  0  0  0
 15 16  1  0  0  0  0
 16 17  2  0  0  0  0
 16 33  1  0  0  0  0
 17 18  1  0  0  0  0
 17 34  1  0  0  0  0
 18 19  2  0  0  0  0
 18 35  1  0  0  0  0
 19 20  1  0  0  0  0
 19 21  1  0  0  0  0
 20 36  1  0  0  0  0
 37 38  1  0  0  0  0
M  CHG  1  37   1
M  END
$$$$
ZINC03814861
  -OEChem-08230709403D

 41 44  0     0  0  0  0  0  0999 V2000
    2.2865    5.2702    0.0076 C   0  0  0  0  0  0  0  0  0  0  0  0
    1.0643    5.9401    0.0230 C   0  0  0  0  0  0  0  0  0  0  0  0
   -0.1108    5.2538    0.0306 C   0  0  0  0  0  0  0  0  0  0  0  0
   -0.0954    3.8484    0.0237 C   0  0  0  0  0  0  0  0  0  0  0  0
    1.1475    3.1672    0.0081 C   0  0  0  0  0  0  0  0  0  0  0  0
    2.3404    3.9104    0.0001 C   0  0  0  0  0  0  0  0  0  0  0  0
    1.1629    1.7623    0.0004 C   0  0  0  0  0  0  0  0  0  0  0  0
   -0.0126    1.0758    0.0080 C   0  0  0  0  0  0  0  0  0  0  0  0
   -1.2344    1.7455    0.0174 C   0  0  0  0  0  0  0  0  0  0  0  0
   -1.2880    3.1056    0.0315 C   0  0  0  0  0  0  0  0  0  0  0  0
   -2.6196    3.8110    0.0475 C   0  0  0  0  0  0  0  0  0  0  0  0
   -2.9518    4.2579   -1.3075 N   0  0  0  0  0  0  0  0  0  0  0  0
   -4.1485    4.9420   -1.5446 C   0  0  0  0  0  0  0  0  0  0  0  0
   -5.0258    5.1910   -0.4851 C   0  0  0  0  0  0  0  0  0  0  0  0
   -6.1951    5.8599   -0.6864 C   0  0  0  0  0  0  0  0  0  0  0  0
   -6.5355    6.2978   -1.9736 C   0  0  0  0  0  0  0  0  0  0  0  0
   -5.6543    6.0439   -3.0524 C   0  0  0  0  0  0  0  0  0  0  0  0
   -4.4554    5.3603   -2.8234 C   0  0  0  0  0  0  0  0  0  0  0  0
   -6.0237    6.4973   -4.3435 C   0  0  0  0  0  0  0  0  0  0  0  0
   -7.1758    7.1370   -4.4792 N   0  0  0  0  0  0  0  0  0  0  0  0
   -7.9748    7.3548   -3.4383 C   0  0  0  0  0  0  0  0  0  0  0  0
   -7.6802    6.9554   -2.2165 N   0  0  0  0  0  0  0  0  0  0  0  0
   -9.1653    8.0294   -3.6462 N   0  0  0  0  0  0  0  0  0  0  0  0
   -5.2043    6.2784   -5.4309 N   0  0  0  0  0  0  0  0  0  0  0  0
    3.2046    5.8389    0.0011 H   0  0  0  0  0  0  0  0  0  0  0  0
    1.0496    7.0200    0.0286 H   0  0  0  0  0  0  0  0  0  0  0  0
   -1.0504    5.7863    0.0418 H   0  0  0  0  0  0  0  0  0  0  0  0
    3.2947    3.4051   -0.0122 H   0  0  0  0  0  0  0  0  0  0  0  0
    2.1024    1.2298   -0.0118 H   0  0  0  0  0  0  0  0  0  0  0  0
    0.0021   -0.0041    0.0020 H   0  0  0  0  0  0  0  0  0  0  0  0
   -2.1526    1.1769    0.0184 H   0  0  0  0  0  0  0  0  0  0  0  0
   -3.3894    3.1261    0.4031 H   0  0  0  0  0  0  0  0  0  0  0  0
   -2.5659    4.6736    0.7117 H   0  0  0  0  0  0  0  0  0  0  0  0
   -2.3418    4.0795   -2.0403 H   0  0  0  0  0  0  0  0  0  0  0  0
   -4.7708    4.8517    0.5080 H   0  0  0  0  0  0  0  0  0  0  0  0
   -6.8605    6.0486    0.1431 H   0  0  0  0  0  0  0  0  0  0  0  0
   -3.7766    5.1614   -3.6396 H   0  0  0  0  0  0  0  0  0  0  0  0
   -9.4019    8.3324   -4.5368 H   0  0  0  0  0  0  0  0  0  0  0  0
   -9.7631    8.1990   -2.9014 H   0  0  0  0  0  0  0  0  0  0  0  0
   -4.3631    5.8089   -5.3176 H   0  0  0  0  0  0  0  0  0  0  0  0
   -5.4691    6.5940   -6.3091 H   0  0  0  0  0  0  0  0  0  0  0  0
  1  6  2  0  0  0  0
  1  2  1  0  0  0  0
  1 25  1  0  0  0  0
  2  3  2  0  0  0  0
  2 26  1  0  0  0  0
  3  4  1  0  0  0  0
  3 27  1  0  0  0  0
  4 10  2  0  0  0  0
  4  5  1  0  0  0  0
  5  6  1  0  0  0  0
  5  7  2  0  0  0  0
  6 28  1  0  0  0  0
  7  8  1  0  0  0  0
  7 29  1  0  0  0  0
  8  9  2  0  0  0  0
  8 30  1  0  0  0  0
  9 10  1  0  0  0  0
  9 31  1  0  0  0  0
 10 11  1  0  0  0  0
 11 12  1  0  0  0  0
 11 32  1  0  0  0  0
 11 33  1  0  0  0  0
 12 13  1  0  0  0  0
 12 34  1  0  0  0  0
 13 18  2  0  0  0  0
 13 14  1  0  0  0  0
 14 15  2  0  0  0  0
 14 35  1  0  0  0  0
 15 16  1  0  0  0  0
 15 36  1  0  0  0  0
 16 22  2  0  0  0  0
 16 17  1  0  0  0  0
 17 18  1  0  0  0  0
 17 19  2  0  0  0  0
 18 37  1  0  0  0  0
 19 20  1  0  0  0  0
 19 24  1  0  0  0  0
 20 21  2  0  0  0  0
 21 22  1  0  0  0  0
 21 23  1  0  0  0  0
 23 38  1  0  0  0  0
 23 39  1  0  0  0  0
 24 40  1  0  0  0  0
 24 41  1  0  0  0  0
M  END
$$$$
ZINC03814861
  -OEChem-08230709403D

 42 45  0     0  0  0  0  0  0999 V2000
    2.2865    5.2702    0.0076 C   0  0  0  0  0  0  0  0  0  0  0  0
    1.0643    5.9401    0.0230 C   0  0  0  0  0  0  0  0  0  0  0  0
   -0.1108    5.2538    0.0306 C   0  0  0  0  0  0  0  0  0  0  0  0
   -0.0954    3.8484    0.0237 C   0  0  0  0  0  0  0  0  0  0  0  0
    1.1475    3.1672    0.0081 C   0  0  0  0  0  0  0  0  0  0  0  0
    2.3404    3.9104    0.0001 C   0  0  0  0  0  0  0  0  0  0  0  0
    1.1629    1.7623    0.0004 C   0  0  0  0  0  0  0  0  0  0  0  0
   -0.0126    1.0758    0.0080 C   0  0  0  0  0  0  0  0  0  0  0  0
   -1.2344    1.7455    0.0174 C   0  0  0  0  0  0  0  0  0  0  0  0
   -1.2880    3.1056    0.0315 C   0  0  0  0  0  0  0  0  0  0  0  0
   -2.6196    3.8110    0.0475 C   0  0  0  0  0  0  0  0  0  0  0  0
   -2.9518    4.2579   -1.3075 N   0  0  0  0  0  0  0  0  0  0  0  0
   -4.1485    4.9420   -1.5446 C   0  0  0  0  0  0  0  0  0  0  0  0
   -5.0258    5.1910   -0.4851 C   0  0  0  0  0  0  0  0  0  0  0  0
   -6.1951    5.8599   -0.6864 C   0  0  0  0  0  0  0  0  0  0  0  0
   -6.5355    6.2978   -1.9736 C   0  0  0  0  0  0  0  0  0  0  0  0
   -5.6543    6.0439   -3.0524 C   0  0  0  0  0  0  0  0  0  0  0  0
   -4.4554    5.3603   -2.8234 C   0  0  0  0  0  0  0  0  0  0  0  0
   -6.0237    6.4973   -4.3435 C   0  0  0  0  0  0  0  0  0  0  0  0
   -7.1758    7.1370   -4.4792 N   0  0  0  0  0  0  0  0  0  0  0  0
   -7.9748    7.3548   -3.4383 C   0  0  0  0  0  0  0  0  0  0  0  0
   -9.1653    8.0294   -3.6462 N   0  0  0  0  0  0  0  0  0  0  0  0
   -5.2043    6.2784   -5.4309 N   0  0  0  0  0  0  0  0  0  0  0  0
    3.2046    5.8389    0.0011 H   0  0  0  0  0  0  0  0  0  0  0  0
    1.0496    7.0200    0.0286 H   0  0  0  0  0  0  0  0  0  0  0  0
   -1.0504    5.7863    0.0418 H   0  0  0  0  0  0  0  0  0  0  0  0
    3.2947    3.4051   -0.0122 H   0  0  0  0  0  0  0  0  0  0  0  0
    2.1024    1.2298   -0.0118 H   0  0  0  0  0  0  0  0  0  0  0  0
    0.0021   -0.0041    0.0020 H   0  0  0  0  0  0  0  0  0  0  0  0
   -2.1526    1.1769    0.0184 H   0  0  0  0  0  0  0  0  0  0  0  0
   -3.3894    3.1261    0.4031 H   0  0  0  0  0  0  0  0  0  0  0  0
   -2.5659    4.6736    0.7117 H   0  0  0  0  0  0  0  0  0  0  0  0
   -2.3418    4.0795   -2.0403 H   0  0  0  0  0  0  0  0  0  0  0  0
   -4.7708    4.8517    0.5080 H   0  0  0  0  0  0  0  0  0  0  0  0
   -6.8605    6.0486    0.1431 H   0  0  0  0  0  0  0  0  0  0  0  0
   -3.7766    5.1614   -3.6396 H   0  0  0  0  0  0  0  0  0  0  0  0
   -9.4019    8.3324   -4.5368 H   0  0  0  0  0  0  0  0  0  0  0  0
   -9.7631    8.1990   -2.9014 H   0  0  0  0  0  0  0  0  0  0  0  0
   -4.3631    5.8089   -5.3176 H   0  0  0  0  0  0  0  0  0  0  0  0
   -5.4691    6.5940   -6.3091 H   0  0  0  0  0  0  0  0  0  0  0  0
   -7.7257    6.9690   -2.1630 N   0  3  0  0  0  0  0  0  0  0  0  0
   -8.3332    7.1384   -1.3870 H   0  0  0  0  0  0  0  0  0  0  0  0
  1  6  2  0  0  0  0
  1  2  1  0  0  0  0
  1 24  1  0  0  0  0
  2  3  2  0  0  0  0
  2 25  1  0  0  0  0
  3  4  1  0  0  0  0
  3 26  1  0  0  0  0
  4 10  2  0  0  0  0
  4  5  1  0  0  0  0
  5  6  1  0  0  0  0
  5  7  2  0  0  0  0
  6 27  1  0  0  0  0
  7  8  1  0  0  0  0
  7 28  1  0  0  0  0
  8  9  2  0  0  0  0
  8 29  1  0  0  0  0
  9 10  1  0  0  0  0
  9 30  1  0  0  0  0
 10 11  1  0  0  0  0
 11 12  1  0  0  0  0
 11 31  1  0  0  0  0
 11 32  1  0  0  0  0
 12 13  1  0  0  0  0
 12 33  1  0  0  0  0
 13 18  2  0  0  0  0
 13 14  1  0  0  0  0
 14 15  2  0  0  0  0
 14 34  1  0  0  0  0
 15 16  1  0  0  0  0
 15 35  1  0  0  0  0
 16 17  2  0  0  0  0
 16 41  1  0  0  0  0
 17 18  1  0  0  0  0
 17 19  1  0  0  0  0
 18 36  1  0  0  0  0
 19 20  2  0  0  0  0
 19 23  1  0  0  0  0
 20 21  1  0  0  0  0
 21 22  1  0  0  0  0
 21 41  2  0  0  0  0
 22 37  1  0  0  0  0
 22 38  1  0  0  0  0
 23 39  1  0  0  0  0
 23 40  1  0  0  0  0
 41 42  1  0  0  0  0
M  CHG  1  41   1
M  END
$$$$
ZINC03814862
  -OEChem-08230709403D

 46 48  0     1  0  0  0  0  0999 V2000
   -0.3229    2.8403    1.8148 C   0  0  0  0  0  0  0  0  0  0  0  0
   -0.6984    1.5583    1.2133 N   0  0  3  0  0  0  0  0  0  0  0  0
   -0.0127    1.0858    0.0080 C   0  0  0  0  0  0  0  0  0  0  0  0
   -0.7416    1.5850   -1.2129 C   0  0  0  0  0  0  0  0  0  0  0  0
   -1.6041    0.7473   -1.8931 C   0  0  0  0  0  0  0  0  0  0  0  0
   -2.2752    1.2068   -3.0164 C   0  0  0  0  0  0  0  0  0  0  0  0
   -2.0804    2.5077   -3.4568 C   0  0  0  0  0  0  0  0  0  0  0  0
   -1.2178    3.3451   -2.7771 C   0  0  0  0  0  0  0  0  0  0  0  0
   -0.5509    2.8871   -1.6502 C   0  0  0  0  0  0  0  0  0  0  0  0
    0.2939    3.7135   -0.9774 O   0  0  0  0  0  0  0  0  0  0  0  0
    0.4425    5.0415   -1.4837 C   0  0  0  0  0  0  0  0  0  0  0  0
   -3.1246    0.3823   -3.6857 O   0  0  0  0  0  0  0  0  0  0  0  0
   -3.7821    0.9219   -4.8340 C   0  0  0  0  0  0  0  0  0  0  0  0
   -1.7116    0.7854    1.7899 C   0  0  0  0  0  0  0  0  0  0  0  0
   -2.0688   -0.4342    1.2077 C   0  0  0  0  0  0  0  0  0  0  0  0
   -3.0478   -1.2098    1.7513 C   0  0  0  0  0  0  0  0  0  0  0  0
   -3.7186   -0.7796    2.9044 C   0  0  0  0  0  0  0  0  0  0  0  0
   -3.3659    0.4574    3.4960 C   0  0  0  0  0  0  0  0  0  0  0  0
   -2.3535    1.2362    2.9252 C   0  0  0  0  0  0  0  0  0  0  0  0
   -4.0609    0.8681    4.6609 C   0  0  0  0  0  0  0  0  0  0  0  0
   -5.0073    0.0751    5.1407 N   0  0  0  0  0  0  0  0  0  0  0  0
   -5.3075   -1.0801    4.5535 C   0  0  0  0  0  0  0  0  0  0  0  0
   -4.6928   -1.5104    3.4690 N   0  0  0  0  0  0  0  0  0  0  0  0
   -6.3067   -1.8637    5.1041 N   0  0  0  0  0  0  0  0  0  0  0  0
   -3.7592    2.0632    5.2797 N   0  0  0  0  0  0  0  0  0  0  0  0
   -0.9270    3.6365    1.3798 H   0  0  0  0  0  0  0  0  0  0  0  0
   -0.4939    2.8009    2.8905 H   0  0  0  0  0  0  0  0  0  0  0  0
    0.7315    3.0373    1.6214 H   0  0  0  0  0  0  0  0  0  0  0  0
    0.0021   -0.0041    0.0020 H   0  0  0  0  0  0  0  0  0  0  0  0
    1.0099    1.4631    0.0003 H   0  0  0  0  0  0  0  0  0  0  0  0
   -1.7561   -0.2654   -1.5500 H   0  0  0  0  0  0  0  0  0  0  0  0
   -2.6030    2.8656   -4.3316 H   0  0  0  0  0  0  0  0  0  0  0  0
   -1.0658    4.3577   -3.1202 H   0  0  0  0  0  0  0  0  0  0  0  0
    0.8236    5.0008   -2.5041 H   0  0  0  0  0  0  0  0  0  0  0  0
   -0.5252    5.5433   -1.4770 H   0  0  0  0  0  0  0  0  0  0  0  0
    1.1423    5.5934   -0.8562 H   0  0  0  0  0  0  0  0  0  0  0  0
   -3.0372    1.2325   -5.5667 H   0  0  0  0  0  0  0  0  0  0  0  0
   -4.4287    0.1621   -5.2729 H   0  0  0  0  0  0  0  0  0  0  0  0
   -4.3818    1.7827   -4.5382 H   0  0  0  0  0  0  0  0  0  0  0  0
   -1.5584   -0.7684    0.3165 H   0  0  0  0  0  0  0  0  0  0  0  0
   -3.3095   -2.1518    1.2925 H   0  0  0  0  0  0  0  0  0  0  0  0
   -2.0772    2.1814    3.3687 H   0  0  0  0  0  0  0  0  0  0  0  0
   -6.7718   -1.5667    5.9018 H   0  0  0  0  0  0  0  0  0  0  0  0
   -6.5420   -2.7098    4.6923 H   0  0  0  0  0  0  0  0  0  0  0  0
   -3.0636    2.6344    4.9182 H   0  0  0  0  0  0  0  0  0  0  0  0
   -4.2425    2.3324    6.0764 H   0  0  0  0  0  0  0  0  0  0  0  0
  1  2  1  0  0  0  0
  1 26  1  0  0  0  0
  1 27  1  0  0  0  0
  1 28  1  0  0  0  0
  2  3  1  0  0  0  0
  2 14  1  0  0  0  0
  3  4  1  0  0  0  0
  3 29  1  0  0  0  0
  3 30  1  0  0  0  0
  4  9  2  0  0  0  0
  4  5  1  0  0  0  0
  5  6  2  0  0  0  0
  5 31  1  0  0  0  0
  6  7  1  0  0  0  0
  6 12  1  0  0  0  0
  7  8  2  0  0  0  0
  7 32  1  0  0  0  0
  8  9  1  0  0  0  0
  8 33  1  0  0  0  0
  9 10  1  0  0  0  0
 10 11  1  0  0  0  0
 11 34  1  0  0  0  0
 11 35  1  0  0  0  0
 11 36  1  0  0  0  0
 12 13  1  0  0  0  0
 13 37  1  0  0  0  0
 13 38  1  0  0  0  0
 13 39  1  0  0  0  0
 14 19  2  0  0  0  0
 14 15  1  0  0  0  0
 15 16  2  0  0  0  0
 15 40  1  0  0  0  0
 16 17  1  0  0  0  0
 16 41  1  0  0  0  0
 17 23  2  0  0  0  0
 17 18  1  0  0  0  0
 18 19  1  0  0  0  0
 18 20  2  0  0  0  0
 19 42  1  0  0  0  0
 20 21  1  0  0  0  0
 20 25  1  0  0  0  0
 21 22  2  0  0  0  0
 22 23  1  0  0  0  0
 22 24  1  0  0  0  0
 24 43  1  0  0  0  0
 24 44  1  0  0  0  0
 25 45  1  0  0  0  0
 25 46  1  0  0  0  0
M  END
$$$$
ZINC03814862
  -OEChem-08230709403D

 47 49  0     1  0  0  0  0  0999 V2000
   -0.3229    2.8403    1.8148 C   0  0  0  0  0  0  0  0  0  0  0  0
   -0.6984    1.5583    1.2133 N   0  0  3  0  0  0  0  0  0  0  0  0
   -0.0127    1.0858    0.0080 C   0  0  0  0  0  0  0  0  0  0  0  0
   -0.7416    1.5850   -1.2129 C   0  0  0  0  0  0  0  0  0  0  0  0
   -1.6041    0.7473   -1.8931 C   0  0  0  0  0  0  0  0  0  0  0  0
   -2.2752    1.2068   -3.0164 C   0  0  0  0  0  0  0  0  0  0  0  0
   -2.0804    2.5077   -3.4568 C   0  0  0  0  0  0  0  0  0  0  0  0
   -1.2178    3.3451   -2.7771 C   0  0  0  0  0  0  0  0  0  0  0  0
   -0.5509    2.8871   -1.6502 C   0  0  0  0  0  0  0  0  0  0  0  0
    0.2939    3.7135   -0.9774 O   0  0  0  0  0  0  0  0  0  0  0  0
    0.4425    5.0415   -1.4837 C   0  0  0  0  0  0  0  0  0  0  0  0
   -3.1246    0.3823   -3.6857 O   0  0  0  0  0  0  0  0  0  0  0  0
   -3.7821    0.9219   -4.8340 C   0  0  0  0  0  0  0  0  0  0  0  0
   -1.7116    0.7854    1.7899 C   0  0  0  0  0  0  0  0  0  0  0  0
   -2.0688   -0.4342    1.2077 C   0  0  0  0  0  0  0  0  0  0  0  0
   -3.0478   -1.2098    1.7513 C   0  0  0  0  0  0  0  0  0  0  0  0
   -3.7186   -0.7796    2.9044 C   0  0  0  0  0  0  0  0  0  0  0  0
   -3.3659    0.4574    3.4960 C   0  0  0  0  0  0  0  0  0  0  0  0
   -2.3535    1.2362    2.9252 C   0  0  0  0  0  0  0  0  0  0  0  0
   -4.0609    0.8681    4.6609 C   0  0  0  0  0  0  0  0  0  0  0  0
   -5.0073    0.0751    5.1407 N   0  0  0  0  0  0  0  0  0  0  0  0
   -5.3075   -1.0801    4.5535 C   0  0  0  0  0  0  0  0  0  0  0  0
   -6.3067   -1.8637    5.1041 N   0  0  0  0  0  0  0  0  0  0  0  0
   -3.7592    2.0632    5.2797 N   0  0  0  0  0  0  0  0  0  0  0  0
   -0.9270    3.6365    1.3798 H   0  0  0  0  0  0  0  0  0  0  0  0
   -0.4939    2.8009    2.8905 H   0  0  0  0  0  0  0  0  0  0  0  0
    0.7315    3.0373    1.6214 H   0  0  0  0  0  0  0  0  0  0  0  0
    0.0021   -0.0041    0.0020 H   0  0  0  0  0  0  0  0  0  0  0  0
    1.0099    1.4631    0.0003 H   0  0  0  0  0  0  0  0  0  0  0  0
   -1.7561   -0.2654   -1.5500 H   0  0  0  0  0  0  0  0  0  0  0  0
   -2.6030    2.8656   -4.3316 H   0  0  0  0  0  0  0  0  0  0  0  0
   -1.0658    4.3577   -3.1202 H   0  0  0  0  0  0  0  0  0  0  0  0
    0.8236    5.0008   -2.5041 H   0  0  0  0  0  0  0  0  0  0  0  0
   -0.5252    5.5433   -1.4770 H   0  0  0  0  0  0  0  0  0  0  0  0
    1.1423    5.5934   -0.8562 H   0  0  0  0  0  0  0  0  0  0  0  0
   -3.0372    1.2325   -5.5667 H   0  0  0  0  0  0  0  0  0  0  0  0
   -4.4287    0.1621   -5.2729 H   0  0  0  0  0  0  0  0  0  0  0  0
   -4.3818    1.7827   -4.5382 H   0  0  0  0  0  0  0  0  0  0  0  0
   -1.5584   -0.7684    0.3165 H   0  0  0  0  0  0  0  0  0  0  0  0
   -3.3095   -2.1518    1.2925 H   0  0  0  0  0  0  0  0  0  0  0  0
   -2.0772    2.1814    3.3687 H   0  0  0  0  0  0  0  0  0  0  0  0
   -6.7718   -1.5667    5.9018 H   0  0  0  0  0  0  0  0  0  0  0  0
   -6.5420   -2.7098    4.6923 H   0  0  0  0  0  0  0  0  0  0  0  0
   -3.0636    2.6344    4.9182 H   0  0  0  0  0  0  0  0  0  0  0  0
   -4.2425    2.3324    6.0764 H   0  0  0  0  0  0  0  0  0  0  0  0
   -4.7117   -1.5731    3.4403 N   0  3  0  0  0  0  0  0  0  0  0  0
   -4.9446   -2.4437    3.0068 H   0  0  0  0  0  0  0  0  0  0  0  0
  1  2  1  0  0  0  0
  1 25  1  0  0  0  0
  1 26  1  0  0  0  0
  1 27  1  0  0  0  0
  2  3  1  0  0  0  0
  2 14  1  0  0  0  0
  3  4  1  0  0  0  0
  3 28  1  0  0  0  0
  3 29  1  0  0  0  0
  4  9  2  0  0  0  0
  4  5  1  0  0  0  0
  5  6  2  0  0  0  0
  5 30  1  0  0  0  0
  6  7  1  0  0  0  0
  6 12  1  0  0  0  0
  7  8  2  0  0  0  0
  7 31  1  0  0  0  0
  8  9  1  0  0  0  0
  8 32  1  0  0  0  0
  9 10  1  0  0  0  0
 10 11  1  0  0  0  0
 11 33  1  0  0  0  0
 11 34  1  0  0  0  0
 11 35  1  0  0  0  0
 12 13  1  0  0  0  0
 13 36  1  0  0  0  0
 13 37  1  0  0  0  0
 13 38  1  0  0  0  0
 14 19  2  0  0  0  0
 14 15  1  0  0  0  0
 15 16  2  0  0  0  0
 15 39  1  0  0  0  0
 16 17  1  0  0  0  0
 16 40  1  0  0  0  0
 17 18  2  0  0  0  0
 17 46  1  0  0  0  0
 18 19  1  0  0  0  0
 18 20  1  0  0  0  0
 19 41  1  0  0  0  0
 20 21  2  0  0  0  0
 20 24  1  0  0  0  0
 21 22  1  0  0  0  0
 22 23  1  0  0  0  0
 22 46  2  0  0  0  0
 23 42  1  0  0  0  0
 23 43  1  0  0  0  0
 24 44  1  0  0  0  0
 24 45  1  0  0  0  0
 46 47  1  0  0  0  0
M  CHG  1  46   1
M  END
$$$$
ZINC03814863
  -OEChem-08230709403D

 46 48  0     1  0  0  0  0  0999 V2000
    2.2877    5.3398    0.0457 C   0  0  0  0  0  0  0  0  0  0  0  0
    0.9723    5.9847    0.0550 N   0  0  3  0  0  0  0  0  0  0  0  0
    0.8732    7.4462    0.0698 C   0  0  0  0  0  0  0  0  0  0  0  0
    0.8422    7.9332    1.4956 C   0  0  0  0  0  0  0  0  0  0  0  0
   -0.3668    8.0804    2.1481 C   0  0  0  0  0  0  0  0  0  0  0  0
   -0.3976    8.5233    3.4629 C   0  0  0  0  0  0  0  0  0  0  0  0
    0.7853    8.8284    4.1182 C   0  0  0  0  0  0  0  0  0  0  0  0
    1.9968    8.6853    3.4595 C   0  0  0  0  0  0  0  0  0  0  0  0
    2.0226    8.2371    2.1464 C   0  0  0  0  0  0  0  0  0  0  0  0
    3.1581    8.9832    4.0994 O   0  0  0  0  0  0  0  0  0  0  0  0
    3.0562    9.4390    5.4499 C   0  0  0  0  0  0  0  0  0  0  0  0
   -1.5867    8.6621    4.1061 O   0  0  0  0  0  0  0  0  0  0  0  0
   -1.5433    9.1274    5.4565 C   0  0  0  0  0  0  0  0  0  0  0  0
   -0.1889    5.2050    0.0497 C   0  0  0  0  0  0  0  0  0  0  0  0
   -1.4408    5.8268    0.0581 C   0  0  0  0  0  0  0  0  0  0  0  0
   -2.5878    5.0922    0.0414 C   0  0  0  0  0  0  0  0  0  0  0  0
   -2.5193    3.6922    0.0335 C   0  0  0  0  0  0  0  0  0  0  0  0
   -1.2546    3.0558    0.0305 C   0  0  0  0  0  0  0  0  0  0  0  0
   -0.0884    3.8288    0.0357 C   0  0  0  0  0  0  0  0  0  0  0  0
   -1.2147    1.6391    0.0167 C   0  0  0  0  0  0  0  0  0  0  0  0
   -2.3626    0.9779    0.0186 N   0  0  0  0  0  0  0  0  0  0  0  0
   -3.5300    1.6154    0.0275 C   0  0  0  0  0  0  0  0  0  0  0  0
   -3.6248    2.9308    0.0346 N   0  0  0  0  0  0  0  0  0  0  0  0
   -4.6941    0.8669    0.0290 N   0  0  0  0  0  0  0  0  0  0  0  0
   -0.0111    0.9658    0.0074 N   0  0  0  0  0  0  0  0  0  0  0  0
    2.6117    5.1901   -0.9842 H   0  0  0  0  0  0  0  0  0  0  0  0
    3.0069    5.9737    0.5644 H   0  0  0  0  0  0  0  0  0  0  0  0
    2.2232    4.3756    0.5501 H   0  0  0  0  0  0  0  0  0  0  0  0
    1.7354    7.8741   -0.4416 H   0  0  0  0  0  0  0  0  0  0  0  0
   -0.0404    7.7536   -0.4390 H   0  0  0  0  0  0  0  0  0  0  0  0
   -1.2884    7.8464    1.6358 H   0  0  0  0  0  0  0  0  0  0  0  0
    0.7632    9.1767    5.1403 H   0  0  0  0  0  0  0  0  0  0  0  0
    2.9661    8.1254    1.6329 H   0  0  0  0  0  0  0  0  0  0  0  0
    2.4620   10.3522    5.4813 H   0  0  0  0  0  0  0  0  0  0  0  0
    2.5758    8.6718    6.0571 H   0  0  0  0  0  0  0  0  0  0  0  0
    4.0533    9.6407    5.8415 H   0  0  0  0  0  0  0  0  0  0  0  0
   -0.9624    8.4317    6.0620 H   0  0  0  0  0  0  0  0  0  0  0  0
   -1.0772   10.1122    5.4868 H   0  0  0  0  0  0  0  0  0  0  0  0
   -2.5574    9.1930    5.8509 H   0  0  0  0  0  0  0  0  0  0  0  0
   -1.4995    6.9051    0.0683 H   0  0  0  0  0  0  0  0  0  0  0  0
   -3.5477    5.5871    0.0479 H   0  0  0  0  0  0  0  0  0  0  0  0
    0.8811    3.3529    0.0292 H   0  0  0  0  0  0  0  0  0  0  0  0
   -4.6477   -0.1020    0.0235 H   0  0  0  0  0  0  0  0  0  0  0  0
   -5.5564    1.3111    0.0354 H   0  0  0  0  0  0  0  0  0  0  0  0
    0.0021   -0.0041    0.0020 H   0  0  0  0  0  0  0  0  0  0  0  0
    0.8223    1.4622    0.0021 H   0  0  0  0  0  0  0  0  0  0  0  0
  1  2  1  0  0  0  0
  1 26  1  0  0  0  0
  1 27  1  0  0  0  0
  1 28  1  0  0  0  0
  2  3  1  0  0  0  0
  2 14  1  0  0  0  0
  3  4  1  0  0  0  0
  3 29  1  0  0  0  0
  3 30  1  0  0  0  0
  4  9  2  0  0  0  0
  4  5  1  0  0  0  0
  5  6  2  0  0  0  0
  5 31  1  0  0  0  0
  6  7  1  0  0  0  0
  6 12  1  0  0  0  0
  7  8  2  0  0  0  0
  7 32  1  0  0  0  0
  8  9  1  0  0  0  0
  8 10  1  0  0  0  0
  9 33  1  0  0  0  0
 10 11  1  0  0  0  0
 11 34  1  0  0  0  0
 11 35  1  0  0  0  0
 11 36  1  0  0  0  0
 12 13  1  0  0  0  0
 13 37  1  0  0  0  0
 13 38  1  0  0  0  0
 13 39  1  0  0  0  0
 14 19  2  0  0  0  0
 14 15  1  0  0  0  0
 15 16  2  0  0  0  0
 15 40  1  0  0  0  0
 16 17  1  0  0  0  0
 16 41  1  0  0  0  0
 17 23  2  0  0  0  0
 17 18  1  0  0  0  0
 18 19  1  0  0  0  0
 18 20  2  0  0  0  0
 19 42  1  0  0  0  0
 20 21  1  0  0  0  0
 20 25  1  0  0  0  0
 21 22  2  0  0  0  0
 22 23  1  0  0  0  0
 22 24  1  0  0  0  0
 24 43  1  0  0  0  0
 24 44  1  0  0  0  0
 25 45  1  0  0  0  0
 25 46  1  0  0  0  0
M  END
$$$$
ZINC03814863
  -OEChem-08230709403D

 47 49  0     1  0  0  0  0  0999 V2000
    2.2877    5.3398    0.0457 C   0  0  0  0  0  0  0  0  0  0  0  0
    0.9723    5.9847    0.0550 N   0  0  3  0  0  0  0  0  0  0  0  0
    0.8732    7.4462    0.0698 C   0  0  0  0  0  0  0  0  0  0  0  0
    0.8422    7.9332    1.4956 C   0  0  0  0  0  0  0  0  0  0  0  0
   -0.3668    8.0804    2.1481 C   0  0  0  0  0  0  0  0  0  0  0  0
   -0.3976    8.5233    3.4629 C   0  0  0  0  0  0  0  0  0  0  0  0
    0.7853    8.8284    4.1182 C   0  0  0  0  0  0  0  0  0  0  0  0
    1.9968    8.6853    3.4595 C   0  0  0  0  0  0  0  0  0  0  0  0
    2.0226    8.2371    2.1464 C   0  0  0  0  0  0  0  0  0  0  0  0
    3.1581    8.9832    4.0994 O   0  0  0  0  0  0  0  0  0  0  0  0
    3.0562    9.4390    5.4499 C   0  0  0  0  0  0  0  0  0  0  0  0
   -1.5867    8.6621    4.1061 O   0  0  0  0  0  0  0  0  0  0  0  0
   -1.5433    9.1274    5.4565 C   0  0  0  0  0  0  0  0  0  0  0  0
   -0.1889    5.2050    0.0497 C   0  0  0  0  0  0  0  0  0  0  0  0
   -1.4408    5.8268    0.0581 C   0  0  0  0  0  0  0  0  0  0  0  0
   -2.5878    5.0922    0.0414 C   0  0  0  0  0  0  0  0  0  0  0  0
   -2.5193    3.6922    0.0335 C   0  0  0  0  0  0  0  0  0  0  0  0
   -1.2546    3.0558    0.0305 C   0  0  0  0  0  0  0  0  0  0  0  0
   -0.0884    3.8288    0.0357 C   0  0  0  0  0  0  0  0  0  0  0  0
   -1.2147    1.6391    0.0167 C   0  0  0  0  0  0  0  0  0  0  0  0
   -2.3626    0.9779    0.0186 N   0  0  0  0  0  0  0  0  0  0  0  0
   -3.5300    1.6154    0.0275 C   0  0  0  0  0  0  0  0  0  0  0  0
   -4.6941    0.8669    0.0290 N   0  0  0  0  0  0  0  0  0  0  0  0
   -0.0111    0.9658    0.0074 N   0  0  0  0  0  0  0  0  0  0  0  0
    2.6117    5.1901   -0.9842 H   0  0  0  0  0  0  0  0  0  0  0  0
    3.0069    5.9737    0.5644 H   0  0  0  0  0  0  0  0  0  0  0  0
    2.2232    4.3756    0.5501 H   0  0  0  0  0  0  0  0  0  0  0  0
    1.7354    7.8741   -0.4416 H   0  0  0  0  0  0  0  0  0  0  0  0
   -0.0404    7.7536   -0.4390 H   0  0  0  0  0  0  0  0  0  0  0  0
   -1.2884    7.8464    1.6358 H   0  0  0  0  0  0  0  0  0  0  0  0
    0.7632    9.1767    5.1403 H   0  0  0  0  0  0  0  0  0  0  0  0
    2.9661    8.1254    1.6329 H   0  0  0  0  0  0  0  0  0  0  0  0
    2.4620   10.3522    5.4813 H   0  0  0  0  0  0  0  0  0  0  0  0
    2.5758    8.6718    6.0571 H   0  0  0  0  0  0  0  0  0  0  0  0
    4.0533    9.6407    5.8415 H   0  0  0  0  0  0  0  0  0  0  0  0
   -0.9624    8.4317    6.0620 H   0  0  0  0  0  0  0  0  0  0  0  0
   -1.0772   10.1122    5.4868 H   0  0  0  0  0  0  0  0  0  0  0  0
   -2.5574    9.1930    5.8509 H   0  0  0  0  0  0  0  0  0  0  0  0
   -1.4995    6.9051    0.0683 H   0  0  0  0  0  0  0  0  0  0  0  0
   -3.5477    5.5871    0.0479 H   0  0  0  0  0  0  0  0  0  0  0  0
    0.8811    3.3529    0.0292 H   0  0  0  0  0  0  0  0  0  0  0  0
   -4.6477   -0.1020    0.0235 H   0  0  0  0  0  0  0  0  0  0  0  0
   -5.5564    1.3111    0.0354 H   0  0  0  0  0  0  0  0  0  0  0  0
    0.0021   -0.0041    0.0020 H   0  0  0  0  0  0  0  0  0  0  0  0
    0.8223    1.4622    0.0021 H   0  0  0  0  0  0  0  0  0  0  0  0
   -3.6894    2.9615    0.0350 N   0  3  0  0  0  0  0  0  0  0  0  0
   -4.5722    3.4312    0.0414 H   0  0  0  0  0  0  0  0  0  0  0  0
  1  2  1  0  0  0  0
  1 25  1  0  0  0  0
  1 26  1  0  0  0  0
  1 27  1  0  0  0  0
  2  3  1  0  0  0  0
  2 14  1  0  0  0  0
  3  4  1  0  0  0  0
  3 28  1  0  0  0  0
  3 29  1  0  0  0  0
  4  9  2  0  0  0  0
  4  5  1  0  0  0  0
  5  6  2  0  0  0  0
  5 30  1  0  0  0  0
  6  7  1  0  0  0  0
  6 12  1  0  0  0  0
  7  8  2  0  0  0  0
  7 31  1  0  0  0  0
  8  9  1  0  0  0  0
  8 10  1  0  0  0  0
  9 32  1  0  0  0  0
 10 11  1  0  0  0  0
 11 33  1  0  0  0  0
 11 34  1  0  0  0  0
 11 35  1  0  0  0  0
 12 13  1  0  0  0  0
 13 36  1  0  0  0  0
 13 37  1  0  0  0  0
 13 38  1  0  0  0  0
 14 19  2  0  0  0  0
 14 15  1  0  0  0  0
 15 16  2  0  0  0  0
 15 39  1  0  0  0  0
 16 17  1  0  0  0  0
 16 40  1  0  0  0  0
 17 18  2  0  0  0  0
 17 46  1  0  0  0  0
 18 19  1  0  0  0  0
 18 20  1  0  0  0  0
 19 41  1  0  0  0  0
 20 21  2  0  0  0  0
 20 24  1  0  0  0  0
 21 22  1  0  0  0  0
 22 23  1  0  0  0  0
 22 46  2  0  0  0  0
 23 42  1  0  0  0  0
 23 43  1  0  0  0  0
 24 44  1  0  0  0  0
 24 45  1  0  0  0  0
 46 47  1  0  0  0  0
M  CHG  1  46   1
M  END
$$$$
ZINC03814864
  -OEChem-08230709403D

 46 48  0     1  0  0  0  0  0999 V2000
   -2.4956    1.2961    0.0208 C   0  0  0  0  0  0  0  0  0  0  0  0
   -1.2408    2.0523    0.0190 N   0  0  3  0  0  0  0  0  0  0  0  0
   -1.2682    3.5170    0.0271 C   0  0  0  0  0  0  0  0  0  0  0  0
   -1.2842    4.0269   -1.3909 C   0  0  0  0  0  0  0  0  0  0  0  0
   -0.1162    4.4782   -1.9756 C   0  0  0  0  0  0  0  0  0  0  0  0
   -0.1277    4.9463   -3.2753 C   0  0  0  0  0  0  0  0  0  0  0  0
   -1.3129    4.9640   -3.9973 C   0  0  0  0  0  0  0  0  0  0  0  0
   -2.4858    4.5119   -3.4131 C   0  0  0  0  0  0  0  0  0  0  0  0
   -2.4707    4.0377   -2.1102 C   0  0  0  0  0  0  0  0  0  0  0  0
   -3.6179    3.5886   -1.5366 O   0  0  0  0  0  0  0  0  0  0  0  0
   -4.8018    3.6289   -2.3358 C   0  0  0  0  0  0  0  0  0  0  0  0
   -1.3234    5.4237   -5.2761 O   0  0  0  0  0  0  0  0  0  0  0  0
   -0.0783    5.8735   -5.8141 C   0  0  0  0  0  0  0  0  0  0  0  0
   -0.0166    1.3757    0.0096 C   0  0  0  0  0  0  0  0  0  0  0  0
    1.1769    2.1034    0.0021 C   0  0  0  0  0  0  0  0  0  0  0  0
    2.3830    1.4705   -0.0127 C   0  0  0  0  0  0  0  0  0  0  0  0
    2.4356    0.0698   -0.0207 C   0  0  0  0  0  0  0  0  0  0  0  0
    1.2305   -0.6735   -0.0133 C   0  0  0  0  0  0  0  0  0  0  0  0
    0.0021   -0.0041    0.0020 C   0  0  0  0  0  0  0  0  0  0  0  0
    1.3131   -2.0883   -0.0222 C   0  0  0  0  0  0  0  0  0  0  0  0
    2.5137   -2.6478   -0.0370 N   0  0  0  0  0  0  0  0  0  0  0  0
    3.6217   -1.9118   -0.0435 C   0  0  0  0  0  0  0  0  0  0  0  0
    3.6026   -0.5932   -0.0353 N   0  0  0  0  0  0  0  0  0  0  0  0
    4.8460   -2.5570   -0.0590 N   0  0  0  0  0  0  0  0  0  0  0  0
    0.1721   -2.8631   -0.0152 N   0  0  0  0  0  0  0  0  0  0  0  0
   -2.8019    1.1030    1.0489 H   0  0  0  0  0  0  0  0  0  0  0  0
   -3.2685    1.8737   -0.4862 H   0  0  0  0  0  0  0  0  0  0  0  0
   -2.3499    0.3491   -0.4988 H   0  0  0  0  0  0  0  0  0  0  0  0
   -2.1623    3.8608    0.5471 H   0  0  0  0  0  0  0  0  0  0  0  0
   -0.3827    3.8941    0.5389 H   0  0  0  0  0  0  0  0  0  0  0  0
    0.8072    4.4646   -1.4156 H   0  0  0  0  0  0  0  0  0  0  0  0
    0.7864    5.2985   -3.7301 H   0  0  0  0  0  0  0  0  0  0  0  0
   -3.4090    4.5245   -3.9734 H   0  0  0  0  0  0  0  0  0  0  0  0
   -5.6426    3.2432   -1.7593 H   0  0  0  0  0  0  0  0  0  0  0  0
   -5.0056    4.6579   -2.6317 H   0  0  0  0  0  0  0  0  0  0  0  0
   -4.6601    3.0161   -3.2261 H   0  0  0  0  0  0  0  0  0  0  0  0
    0.6395    5.0532   -5.8037 H   0  0  0  0  0  0  0  0  0  0  0  0
   -0.2269    6.2132   -6.8391 H   0  0  0  0  0  0  0  0  0  0  0  0
    0.3023    6.6970   -5.2099 H   0  0  0  0  0  0  0  0  0  0  0  0
    1.1423    3.1828    0.0078 H   0  0  0  0  0  0  0  0  0  0  0  0
    3.2965    2.0465   -0.0180 H   0  0  0  0  0  0  0  0  0  0  0  0
   -0.9227   -0.5619    0.0075 H   0  0  0  0  0  0  0  0  0  0  0  0
    4.8835   -3.5263   -0.0649 H   0  0  0  0  0  0  0  0  0  0  0  0
    5.6667   -2.0399   -0.0639 H   0  0  0  0  0  0  0  0  0  0  0  0
   -0.7010   -2.4406   -0.0041 H   0  0  0  0  0  0  0  0  0  0  0  0
    0.2428   -3.8305   -0.0215 H   0  0  0  0  0  0  0  0  0  0  0  0
  1  2  1  0  0  0  0
  1 26  1  0  0  0  0
  1 27  1  0  0  0  0
  1 28  1  0  0  0  0
  2  3  1  0  0  0  0
  2 14  1  0  0  0  0
  3  4  1  0  0  0  0
  3 29  1  0  0  0  0
  3 30  1  0  0  0  0
  4  9  2  0  0  0  0
  4  5  1  0  0  0  0
  5  6  2  0  0  0  0
  5 31  1  0  0  0  0
  6  7  1  0  0  0  0
  6 32  1  0  0  0  0
  7  8  2  0  0  0  0
  7 12  1  0  0  0  0
  8  9  1  0  0  0  0
  8 33  1  0  0  0  0
  9 10  1  0  0  0  0
 10 11  1  0  0  0  0
 11 34  1  0  0  0  0
 11 35  1  0  0  0  0
 11 36  1  0  0  0  0
 12 13  1  0  0  0  0
 13 37  1  0  0  0  0
 13 38  1  0  0  0  0
 13 39  1  0  0  0  0
 14 19  2  0  0  0  0
 14 15  1  0  0  0  0
 15 16  2  0  0  0  0
 15 40  1  0  0  0  0
 16 17  1  0  0  0  0
 16 41  1  0  0  0  0
 17 23  2  0  0  0  0
 17 18  1  0  0  0  0
 18 19  1  0  0  0  0
 18 20  2  0  0  0  0
 19 42  1  0  0  0  0
 20 21  1  0  0  0  0
 20 25  1  0  0  0  0
 21 22  2  0  0  0  0
 22 23  1  0  0  0  0
 22 24  1  0  0  0  0
 24 43  1  0  0  0  0
 24 44  1  0  0  0  0
 25 45  1  0  0  0  0
 25 46  1  0  0  0  0
M  END
$$$$
ZINC03814864
  -OEChem-08230709403D

 47 49  0     1  0  0  0  0  0999 V2000
   -2.4956    1.2961    0.0208 C   0  0  0  0  0  0  0  0  0  0  0  0
   -1.2408    2.0523    0.0190 N   0  0  3  0  0  0  0  0  0  0  0  0
   -1.2682    3.5170    0.0271 C   0  0  0  0  0  0  0  0  0  0  0  0
   -1.2842    4.0269   -1.3909 C   0  0  0  0  0  0  0  0  0  0  0  0
   -0.1162    4.4782   -1.9756 C   0  0  0  0  0  0  0  0  0  0  0  0
   -0.1277    4.9463   -3.2753 C   0  0  0  0  0  0  0  0  0  0  0  0
   -1.3129    4.9640   -3.9973 C   0  0  0  0  0  0  0  0  0  0  0  0
   -2.4858    4.5119   -3.4131 C   0  0  0  0  0  0  0  0  0  0  0  0
   -2.4707    4.0377   -2.1102 C   0  0  0  0  0  0  0  0  0  0  0  0
   -3.6179    3.5886   -1.5366 O   0  0  0  0  0  0  0  0  0  0  0  0
   -4.8018    3.6289   -2.3358 C   0  0  0  0  0  0  0  0  0  0  0  0
   -1.3234    5.4237   -5.2761 O   0  0  0  0  0  0  0  0  0  0  0  0
   -0.0783    5.8735   -5.8141 C   0  0  0  0  0  0  0  0  0  0  0  0
   -0.0166    1.3757    0.0096 C   0  0  0  0  0  0  0  0  0  0  0  0
    1.1769    2.1034    0.0021 C   0  0  0  0  0  0  0  0  0  0  0  0
    2.3830    1.4705   -0.0127 C   0  0  0  0  0  0  0  0  0  0  0  0
    2.4356    0.0698   -0.0207 C   0  0  0  0  0  0  0  0  0  0  0  0
    1.2305   -0.6735   -0.0133 C   0  0  0  0  0  0  0  0  0  0  0  0
    0.0021   -0.0041    0.0020 C   0  0  0  0  0  0  0  0  0  0  0  0
    1.3131   -2.0883   -0.0222 C   0  0  0  0  0  0  0  0  0  0  0  0
    2.5137   -2.6478   -0.0370 N   0  0  0  0  0  0  0  0  0  0  0  0
    3.6217   -1.9118   -0.0435 C   0  0  0  0  0  0  0  0  0  0  0  0
    4.8460   -2.5570   -0.0590 N   0  0  0  0  0  0  0  0  0  0  0  0
    0.1721   -2.8631   -0.0152 N   0  0  0  0  0  0  0  0  0  0  0  0
   -2.8019    1.1030    1.0489 H   0  0  0  0  0  0  0  0  0  0  0  0
   -3.2685    1.8737   -0.4862 H   0  0  0  0  0  0  0  0  0  0  0  0
   -2.3499    0.3491   -0.4988 H   0  0  0  0  0  0  0  0  0  0  0  0
   -2.1623    3.8608    0.5471 H   0  0  0  0  0  0  0  0  0  0  0  0
   -0.3827    3.8941    0.5389 H   0  0  0  0  0  0  0  0  0  0  0  0
    0.8072    4.4646   -1.4156 H   0  0  0  0  0  0  0  0  0  0  0  0
    0.7864    5.2985   -3.7301 H   0  0  0  0  0  0  0  0  0  0  0  0
   -3.4090    4.5245   -3.9734 H   0  0  0  0  0  0  0  0  0  0  0  0
   -5.6426    3.2432   -1.7593 H   0  0  0  0  0  0  0  0  0  0  0  0
   -5.0056    4.6579   -2.6317 H   0  0  0  0  0  0  0  0  0  0  0  0
   -4.6601    3.0161   -3.2261 H   0  0  0  0  0  0  0  0  0  0  0  0
    0.6395    5.0532   -5.8037 H   0  0  0  0  0  0  0  0  0  0  0  0
   -0.2269    6.2132   -6.8391 H   0  0  0  0  0  0  0  0  0  0  0  0
    0.3023    6.6970   -5.2099 H   0  0  0  0  0  0  0  0  0  0  0  0
    1.1423    3.1828    0.0078 H   0  0  0  0  0  0  0  0  0  0  0  0
    3.2965    2.0465   -0.0180 H   0  0  0  0  0  0  0  0  0  0  0  0
   -0.9227   -0.5619    0.0075 H   0  0  0  0  0  0  0  0  0  0  0  0
    4.8835   -3.5263   -0.0649 H   0  0  0  0  0  0  0  0  0  0  0  0
    5.6667   -2.0399   -0.0639 H   0  0  0  0  0  0  0  0  0  0  0  0
   -0.7010   -2.4406   -0.0041 H   0  0  0  0  0  0  0  0  0  0  0  0
    0.2428   -3.8305   -0.0215 H   0  0  0  0  0  0  0  0  0  0  0  0
    3.6643   -0.5571   -0.0356 N   0  3  0  0  0  0  0  0  0  0  0  0
    4.5032   -0.0128   -0.0399 H   0  0  0  0  0  0  0  0  0  0  0  0
  1  2  1  0  0  0  0
  1 25  1  0  0  0  0
  1 26  1  0  0  0  0
  1 27  1  0  0  0  0
  2  3  1  0  0  0  0
  2 14  1  0  0  0  0
  3  4  1  0  0  0  0
  3 28  1  0  0  0  0
  3 29  1  0  0  0  0
  4  9  2  0  0  0  0
  4  5  1  0  0  0  0
  5  6  2  0  0  0  0
  5 30  1  0  0  0  0
  6  7  1  0  0  0  0
  6 31  1  0  0  0  0
  7  8  2  0  0  0  0
  7 12  1  0  0  0  0
  8  9  1  0  0  0  0
  8 32  1  0  0  0  0
  9 10  1  0  0  0  0
 10 11  1  0  0  0  0
 11 33  1  0  0  0  0
 11 34  1  0  0  0  0
 11 35  1  0  0  0  0
 12 13  1  0  0  0  0
 13 36  1  0  0  0  0
 13 37  1  0  0  0  0
 13 38  1  0  0  0  0
 14 19  2  0  0  0  0
 14 15  1  0  0  0  0
 15 16  2  0  0  0  0
 15 39  1  0  0  0  0
 16 17  1  0  0  0  0
 16 40  1  0  0  0  0
 17 18  2  0  0  0  0
 17 46  1  0  0  0  0
 18 19  1  0  0  0  0
 18 20  1  0  0  0  0
 19 41  1  0  0  0  0
 20 21  2  0  0  0  0
 20 24  1  0  0  0  0
 21 22  1  0  0  0  0
 22 23  1  0  0  0  0
 22 46  2  0  0  0  0
 23 42  1  0  0  0  0
 23 43  1  0  0  0  0
 24 44  1  0  0  0  0
 24 45  1  0  0  0  0
 46 47  1  0  0  0  0
M  CHG  1  46   1
M  END
$$$$
ZINC03814865
  -OEChem-08230709403D

 50 52  0     1  0  0  0  0  0999 V2000
   -3.7701    2.0495   -1.9166 C   0  0  0  0  0  0  0  0  0  0  0  0
   -2.9863    0.9498   -1.3486 N   0  0  3  0  0  0  0  0  0  0  0  0
   -2.4696    1.0485    0.0187 C   0  0  0  0  0  0  0  0  0  0  0  0
   -1.1390    1.7559    0.0030 C   0  0  0  0  0  0  0  0  0  0  0  0
    0.0319    1.0260    0.0895 C   0  0  0  0  0  0  0  0  0  0  0  0
    1.2549    1.6696    0.0703 C   0  0  0  0  0  0  0  0  0  0  0  0
    1.3117    3.0516   -0.0311 C   0  0  0  0  0  0  0  0  0  0  0  0
    0.1370    3.7893   -0.1129 C   0  0  0  0  0  0  0  0  0  0  0  0
   -1.0910    3.1382   -0.0927 C   0  0  0  0  0  0  0  0  0  0  0  0
   -2.2435    3.8557   -0.1725 O   0  0  0  0  0  0  0  0  0  0  0  0
   -2.7619    4.3883    1.0479 C   0  0  0  0  0  0  0  0  0  0  0  0
    0.1885    5.1456   -0.2129 O   0  0  0  0  0  0  0  0  0  0  0  0
    0.3476    5.6939   -1.5229 C   0  0  0  0  0  0  0  0  0  0  0  0
    2.5156    3.6840   -0.0499 O   0  0  0  0  0  0  0  0  0  0  0  0
    3.6814    2.8624    0.0384 C   0  0  0  0  0  0  0  0  0  0  0  0
   -2.7314   -0.1943   -2.1117 C   0  0  0  0  0  0  0  0  0  0  0  0
   -1.9780   -1.2375   -1.5656 C   0  0  0  0  0  0  0  0  0  0  0  0
   -1.7195   -2.3654   -2.2842 C   0  0  0  0  0  0  0  0  0  0  0  0
   -2.2029   -2.4837   -3.5945 C   0  0  0  0  0  0  0  0  0  0  0  0
   -2.9618   -1.4284   -4.1559 C   0  0  0  0  0  0  0  0  0  0  0  0
   -3.2210   -0.2808   -3.3990 C   0  0  0  0  0  0  0  0  0  0  0  0
   -3.4376   -1.5744   -5.4830 C   0  0  0  0  0  0  0  0  0  0  0  0
   -3.1497   -2.6912   -6.1347 N   0  0  0  0  0  0  0  0  0  0  0  0
   -2.4332   -3.6588   -5.5694 C   0  0  0  0  0  0  0  0  0  0  0  0
   -1.9665   -3.5755   -4.3389 N   0  0  0  0  0  0  0  0  0  0  0  0
   -2.1666   -4.8015   -6.3035 N   0  0  0  0  0  0  0  0  0  0  0  0
   -4.1819   -0.5789   -6.0806 N   0  0  0  0  0  0  0  0  0  0  0  0
   -3.1121    2.7120   -2.4791 H   0  0  0  0  0  0  0  0  0  0  0  0
   -4.5339    1.6459   -2.5812 H   0  0  0  0  0  0  0  0  0  0  0  0
   -4.2473    2.6090   -1.1120 H   0  0  0  0  0  0  0  0  0  0  0  0
   -2.3443    0.0480    0.4328 H   0  0  0  0  0  0  0  0  0  0  0  0
   -3.1727    1.6107    0.6332 H   0  0  0  0  0  0  0  0  0  0  0  0
   -0.0090   -0.0504    0.1678 H   0  0  0  0  0  0  0  0  0  0  0  0
    2.1674    1.0956    0.1339 H   0  0  0  0  0  0  0  0  0  0  0  0
   -3.6313    5.0097    0.8329 H   0  0  0  0  0  0  0  0  0  0  0  0
   -3.0540    3.5702    1.7063 H   0  0  0  0  0  0  0  0  0  0  0  0
   -1.9960    4.9914    1.5356 H   0  0  0  0  0  0  0  0  0  0  0  0
    0.4620    6.7756   -1.4525 H   0  0  0  0  0  0  0  0  0  0  0  0
    1.2333    5.2646   -1.9913 H   0  0  0  0  0  0  0  0  0  0  0  0
   -0.5310    5.4598   -2.1239 H   0  0  0  0  0  0  0  0  0  0  0  0
    3.7017    2.1689   -0.8023 H   0  0  0  0  0  0  0  0  0  0  0  0
    4.5716    3.4909    0.0125 H   0  0  0  0  0  0  0  0  0  0  0  0
    3.6602    2.3008    0.9723 H   0  0  0  0  0  0  0  0  0  0  0  0
   -1.5991   -1.1497   -0.5581 H   0  0  0  0  0  0  0  0  0  0  0  0
   -1.1397   -3.1648   -1.8469 H   0  0  0  0  0  0  0  0  0  0  0  0
   -3.7986    0.5298   -3.8182 H   0  0  0  0  0  0  0  0  0  0  0  0
   -2.5003   -4.8841   -7.2106 H   0  0  0  0  0  0  0  0  0  0  0  0
   -1.6459   -5.5196   -5.9110 H   0  0  0  0  0  0  0  0  0  0  0  0
   -4.3859    0.2338   -5.5920 H   0  0  0  0  0  0  0  0  0  0  0  0
   -4.5015   -0.6916   -6.9895 H   0  0  0  0  0  0  0  0  0  0  0  0
  1  2  1  0  0  0  0
  1 28  1  0  0  0  0
  1 29  1  0  0  0  0
  1 30  1  0  0  0  0
  2  3  1  0  0  0  0
  2 16  1  0  0  0  0
  3  4  1  0  0  0  0
  3 31  1  0  0  0  0
  3 32  1  0  0  0  0
  4  9  2  0  0  0  0
  4  5  1  0  0  0  0
  5  6  2  0  0  0  0
  5 33  1  0  0  0  0
  6  7  1  0  0  0  0
  6 34  1  0  0  0  0
  7  8  2  0  0  0  0
  7 14  1  0  0  0  0
  8  9  1  0  0  0  0
  8 12  1  0  0  0  0
  9 10  1  0  0  0  0
 10 11  1  0  0  0  0
 11 35  1  0  0  0  0
 11 36  1  0  0  0  0
 11 37  1  0  0  0  0
 12 13  1  0  0  0  0
 13 38  1  0  0  0  0
 13 39  1  0  0  0  0
 13 40  1  0  0  0  0
 14 15  1  0  0  0  0
 15 41  1  0  0  0  0
 15 42  1  0  0  0  0
 15 43  1  0  0  0  0
 16 21  2  0  0  0  0
 16 17  1  0  0  0  0
 17 18  2  0  0  0  0
 17 44  1  0  0  0  0
 18 19  1  0  0  0  0
 18 45  1  0  0  0  0
 19 25  2  0  0  0  0
 19 20  1  0  0  0  0
 20 21  1  0  0  0  0
 20 22  2  0  0  0  0
 21 46  1  0  0  0  0
 22 23  1  0  0  0  0
 22 27  1  0  0  0  0
 23 24  2  0  0  0  0
 24 25  1  0  0  0  0
 24 26  1  0  0  0  0
 26 47  1  0  0  0  0
 26 48  1  0  0  0  0
 27 49  1  0  0  0  0
 27 50  1  0  0  0  0
M  END
$$$$
ZINC03814865
  -OEChem-08230709403D

 51 53  0     1  0  0  0  0  0999 V2000
   -3.7701    2.0495   -1.9166 C   0  0  0  0  0  0  0  0  0  0  0  0
   -2.9863    0.9498   -1.3486 N   0  0  3  0  0  0  0  0  0  0  0  0
   -2.4696    1.0485    0.0187 C   0  0  0  0  0  0  0  0  0  0  0  0
   -1.1390    1.7559    0.0030 C   0  0  0  0  0  0  0  0  0  0  0  0
    0.0319    1.0260    0.0895 C   0  0  0  0  0  0  0  0  0  0  0  0
    1.2549    1.6696    0.0703 C   0  0  0  0  0  0  0  0  0  0  0  0
    1.3117    3.0516   -0.0311 C   0  0  0  0  0  0  0  0  0  0  0  0
    0.1370    3.7893   -0.1129 C   0  0  0  0  0  0  0  0  0  0  0  0
   -1.0910    3.1382   -0.0927 C   0  0  0  0  0  0  0  0  0  0  0  0
   -2.2435    3.8557   -0.1725 O   0  0  0  0  0  0  0  0  0  0  0  0
   -2.7619    4.3883    1.0479 C   0  0  0  0  0  0  0  0  0  0  0  0
    0.1885    5.1456   -0.2129 O   0  0  0  0  0  0  0  0  0  0  0  0
    0.3476    5.6939   -1.5229 C   0  0  0  0  0  0  0  0  0  0  0  0
    2.5156    3.6840   -0.0499 O   0  0  0  0  0  0  0  0  0  0  0  0
    3.6814    2.8624    0.0384 C   0  0  0  0  0  0  0  0  0  0  0  0
   -2.7314   -0.1943   -2.1117 C   0  0  0  0  0  0  0  0  0  0  0  0
   -1.9780   -1.2375   -1.5656 C   0  0  0  0  0  0  0  0  0  0  0  0
   -1.7195   -2.3654   -2.2842 C   0  0  0  0  0  0  0  0  0  0  0  0
   -2.2029   -2.4837   -3.5945 C   0  0  0  0  0  0  0  0  0  0  0  0
   -2.9618   -1.4284   -4.1559 C   0  0  0  0  0  0  0  0  0  0  0  0
   -3.2210   -0.2808   -3.3990 C   0  0  0  0  0  0  0  0  0  0  0  0
   -3.4376   -1.5744   -5.4830 C   0  0  0  0  0  0  0  0  0  0  0  0
   -3.1497   -2.6912   -6.1347 N   0  0  0  0  0  0  0  0  0  0  0  0
   -2.4332   -3.6588   -5.5694 C   0  0  0  0  0  0  0  0  0  0  0  0
   -2.1666   -4.8015   -6.3035 N   0  0  0  0  0  0  0  0  0  0  0  0
   -4.1819   -0.5789   -6.0806 N   0  0  0  0  0  0  0  0  0  0  0  0
   -3.1121    2.7120   -2.4791 H   0  0  0  0  0  0  0  0  0  0  0  0
   -4.5339    1.6459   -2.5812 H   0  0  0  0  0  0  0  0  0  0  0  0
   -4.2473    2.6090   -1.1120 H   0  0  0  0  0  0  0  0  0  0  0  0
   -2.3443    0.0480    0.4328 H   0  0  0  0  0  0  0  0  0  0  0  0
   -3.1727    1.6107    0.6332 H   0  0  0  0  0  0  0  0  0  0  0  0
   -0.0090   -0.0504    0.1678 H   0  0  0  0  0  0  0  0  0  0  0  0
    2.1674    1.0956    0.1339 H   0  0  0  0  0  0  0  0  0  0  0  0
   -3.6313    5.0097    0.8329 H   0  0  0  0  0  0  0  0  0  0  0  0
   -3.0540    3.5702    1.7063 H   0  0  0  0  0  0  0  0  0  0  0  0
   -1.9960    4.9914    1.5356 H   0  0  0  0  0  0  0  0  0  0  0  0
    0.4620    6.7756   -1.4525 H   0  0  0  0  0  0  0  0  0  0  0  0
    1.2333    5.2646   -1.9913 H   0  0  0  0  0  0  0  0  0  0  0  0
   -0.5310    5.4598   -2.1239 H   0  0  0  0  0  0  0  0  0  0  0  0
    3.7017    2.1689   -0.8023 H   0  0  0  0  0  0  0  0  0  0  0  0
    4.5716    3.4909    0.0125 H   0  0  0  0  0  0  0  0  0  0  0  0
    3.6602    2.3008    0.9723 H   0  0  0  0  0  0  0  0  0  0  0  0
   -1.5991   -1.1497   -0.5581 H   0  0  0  0  0  0  0  0  0  0  0  0
   -1.1397   -3.1648   -1.8469 H   0  0  0  0  0  0  0  0  0  0  0  0
   -3.7986    0.5298   -3.8182 H   0  0  0  0  0  0  0  0  0  0  0  0
   -2.5003   -4.8841   -7.2106 H   0  0  0  0  0  0  0  0  0  0  0  0
   -1.6459   -5.5196   -5.9110 H   0  0  0  0  0  0  0  0  0  0  0  0
   -4.3859    0.2338   -5.5920 H   0  0  0  0  0  0  0  0  0  0  0  0
   -4.5015   -0.6916   -6.9895 H   0  0  0  0  0  0  0  0  0  0  0  0
   -1.9284   -3.6296   -4.3119 N   0  3  0  0  0  0  0  0  0  0  0  0
   -1.3911   -4.3633   -3.8959 H   0  0  0  0  0  0  0  0  0  0  0  0
  1  2  1  0  0  0  0
  1 27  1  0  0  0  0
  1 28  1  0  0  0  0
  1 29  1  0  0  0  0
  2  3  1  0  0  0  0
  2 16  1  0  0  0  0
  3  4  1  0  0  0  0
  3 30  1  0  0  0  0
  3 31  1  0  0  0  0
  4  9  2  0  0  0  0
  4  5  1  0  0  0  0
  5  6  2  0  0  0  0
  5 32  1  0  0  0  0
  6  7  1  0  0  0  0
  6 33  1  0  0  0  0
  7  8  2  0  0  0  0
  7 14  1  0  0  0  0
  8  9  1  0  0  0  0
  8 12  1  0  0  0  0
  9 10  1  0  0  0  0
 10 11  1  0  0  0  0
 11 34  1  0  0  0  0
 11 35  1  0  0  0  0
 11 36  1  0  0  0  0
 12 13  1  0  0  0  0
 13 37  1  0  0  0  0
 13 38  1  0  0  0  0
 13 39  1  0  0  0  0
 14 15  1  0  0  0  0
 15 40  1  0  0  0  0
 15 41  1  0  0  0  0
 15 42  1  0  0  0  0
 16 21  2  0  0  0  0
 16 17  1  0  0  0  0
 17 18  2  0  0  0  0
 17 43  1  0  0  0  0
 18 19  1  0  0  0  0
 18 44  1  0  0  0  0
 19 20  2  0  0  0  0
 19 50  1  0  0  0  0
 20 21  1  0  0  0  0
 20 22  1  0  0  0  0
 21 45  1  0  0  0  0
 22 23  2  0  0  0  0
 22 26  1  0  0  0  0
 23 24  1  0  0  0  0
 24 25  1  0  0  0  0
 24 50  2  0  0  0  0
 25 46  1  0  0  0  0
 25 47  1  0  0  0  0
 26 48  1  0  0  0  0
 26 49  1  0  0  0  0
 50 51  1  0  0  0  0
M  CHG  1  50   1
M  END
$$$$
ZINC03814866
  -OEChem-08230709403D

 44 47  0     1  0  0  0  0  0999 V2000
   -2.5309    5.5845   -1.7651 C   0  0  0  0  0  0  0  0  0  0  0  0
   -2.9518    4.2579   -1.3075 N   0  0  3  0  0  0  0  0  0  0  0  0
   -2.6196    3.8110    0.0475 C   0  0  0  0  0  0  0  0  0  0  0  0
   -1.2880    3.1056    0.0315 C   0  0  0  0  0  0  0  0  0  0  0  0
   -1.2344    1.7455    0.0174 C   0  0  0  0  0  0  0  0  0  0  0  0
   -0.0126    1.0758    0.0080 C   0  0  0  0  0  0  0  0  0  0  0  0
    1.1629    1.7623    0.0004 C   0  0  0  0  0  0  0  0  0  0  0  0
    1.1475    3.1672    0.0081 C   0  0  0  0  0  0  0  0  0  0  0  0
   -0.0954    3.8484    0.0237 C   0  0  0  0  0  0  0  0  0  0  0  0
   -0.1108    5.2538    0.0306 C   0  0  0  0  0  0  0  0  0  0  0  0
    1.0643    5.9401    0.0230 C   0  0  0  0  0  0  0  0  0  0  0  0
    2.2865    5.2702    0.0076 C   0  0  0  0  0  0  0  0  0  0  0  0
    2.3404    3.9104    0.0001 C   0  0  0  0  0  0  0  0  0  0  0  0
   -3.6708    3.4182   -2.1644 C   0  0  0  0  0  0  0  0  0  0  0  0
   -4.0644    2.1514   -1.7233 C   0  0  0  0  0  0  0  0  0  0  0  0
   -4.7703    1.3154   -2.5346 C   0  0  0  0  0  0  0  0  0  0  0  0
   -5.1003    1.7200   -3.8354 C   0  0  0  0  0  0  0  0  0  0  0  0
   -4.6998    2.9995   -4.2906 C   0  0  0  0  0  0  0  0  0  0  0  0
   -3.9804    3.8453   -3.4395 C   0  0  0  0  0  0  0  0  0  0  0  0
   -5.0464    3.3825   -5.6104 C   0  0  0  0  0  0  0  0  0  0  0  0
   -5.7286    2.5253   -6.3551 N   0  0  0  0  0  0  0  0  0  0  0  0
   -6.0855    1.3321   -5.8880 C   0  0  0  0  0  0  0  0  0  0  0  0
   -5.7898    0.9252   -4.6689 N   0  0  0  0  0  0  0  0  0  0  0  0
   -6.7974    0.4819   -6.7161 N   0  0  0  0  0  0  0  0  0  0  0  0
   -4.6830    4.6169   -6.1067 N   0  0  0  0  0  0  0  0  0  0  0  0
   -1.5458    5.5141   -2.2262 H   0  0  0  0  0  0  0  0  0  0  0  0
   -3.2476    5.9614   -2.4948 H   0  0  0  0  0  0  0  0  0  0  0  0
   -2.4863    6.2649   -0.9147 H   0  0  0  0  0  0  0  0  0  0  0  0
   -3.3894    3.1261    0.4031 H   0  0  0  0  0  0  0  0  0  0  0  0
   -2.5659    4.6736    0.7117 H   0  0  0  0  0  0  0  0  0  0  0  0
   -2.1526    1.1769    0.0184 H   0  0  0  0  0  0  0  0  0  0  0  0
    0.0021   -0.0041    0.0020 H   0  0  0  0  0  0  0  0  0  0  0  0
    2.1024    1.2298   -0.0118 H   0  0  0  0  0  0  0  0  0  0  0  0
   -1.0504    5.7863    0.0418 H   0  0  0  0  0  0  0  0  0  0  0  0
    1.0496    7.0200    0.0286 H   0  0  0  0  0  0  0  0  0  0  0  0
    3.2046    5.8389    0.0011 H   0  0  0  0  0  0  0  0  0  0  0  0
    3.2947    3.4051   -0.0122 H   0  0  0  0  0  0  0  0  0  0  0  0
   -3.8087    1.8327   -0.7236 H   0  0  0  0  0  0  0  0  0  0  0  0
   -5.0712    0.3414   -2.1779 H   0  0  0  0  0  0  0  0  0  0  0  0
   -3.6700    4.8230   -3.7773 H   0  0  0  0  0  0  0  0  0  0  0  0
   -7.0260    0.7608   -7.6166 H   0  0  0  0  0  0  0  0  0  0  0  0
   -7.0679   -0.3930   -6.3961 H   0  0  0  0  0  0  0  0  0  0  0  0
   -4.1838    5.2354   -5.5507 H   0  0  0  0  0  0  0  0  0  0  0  0
   -4.9266    4.8666   -7.0119 H   0  0  0  0  0  0  0  0  0  0  0  0
  1  2  1  0  0  0  0
  1 26  1  0  0  0  0
  1 27  1  0  0  0  0
  1 28  1  0  0  0  0
  2  3  1  0  0  0  0
  2 14  1  0  0  0  0
  3  4  1  0  0  0  0
  3 29  1  0  0  0  0
  3 30  1  0  0  0  0
  4  9  2  0  0  0  0
  4  5  1  0  0  0  0
  5  6  2  0  0  0  0
  5 31  1  0  0  0  0
  6  7  1  0  0  0  0
  6 32  1  0  0  0  0
  7  8  2  0  0  0  0
  7 33  1  0  0  0  0
  8 13  1  0  0  0  0
  8  9  1  0  0  0  0
  9 10  1  0  0  0  0
 10 11  2  0  0  0  0
 10 34  1  0  0  0  0
 11 12  1  0  0  0  0
 11 35  1  0  0  0  0
 12 13  2  0  0  0  0
 12 36  1  0  0  0  0
 13 37  1  0  0  0  0
 14 19  2  0  0  0  0
 14 15  1  0  0  0  0
 15 16  2  0  0  0  0
 15 38  1  0  0  0  0
 16 17  1  0  0  0  0
 16 39  1  0  0  0  0
 17 23  2  0  0  0  0
 17 18  1  0  0  0  0
 18 19  1  0  0  0  0
 18 20  2  0  0  0  0
 19 40  1  0  0  0  0
 20 21  1  0  0  0  0
 20 25  1  0  0  0  0
 21 22  2  0  0  0  0
 22 23  1  0  0  0  0
 22 24  1  0  0  0  0
 24 41  1  0  0  0  0
 24 42  1  0  0  0  0
 25 43  1  0  0  0  0
 25 44  1  0  0  0  0
M  END
$$$$
ZINC03814866
  -OEChem-08230709403D

 45 48  0     1  0  0  0  0  0999 V2000
   -2.5309    5.5845   -1.7651 C   0  0  0  0  0  0  0  0  0  0  0  0
   -2.9518    4.2579   -1.3075 N   0  0  3  0  0  0  0  0  0  0  0  0
   -2.6196    3.8110    0.0475 C   0  0  0  0  0  0  0  0  0  0  0  0
   -1.2880    3.1056    0.0315 C   0  0  0  0  0  0  0  0  0  0  0  0
   -1.2344    1.7455    0.0174 C   0  0  0  0  0  0  0  0  0  0  0  0
   -0.0126    1.0758    0.0080 C   0  0  0  0  0  0  0  0  0  0  0  0
    1.1629    1.7623    0.0004 C   0  0  0  0  0  0  0  0  0  0  0  0
    1.1475    3.1672    0.0081 C   0  0  0  0  0  0  0  0  0  0  0  0
   -0.0954    3.8484    0.0237 C   0  0  0  0  0  0  0  0  0  0  0  0
   -0.1108    5.2538    0.0306 C   0  0  0  0  0  0  0  0  0  0  0  0
    1.0643    5.9401    0.0230 C   0  0  0  0  0  0  0  0  0  0  0  0
    2.2865    5.2702    0.0076 C   0  0  0  0  0  0  0  0  0  0  0  0
    2.3404    3.9104    0.0001 C   0  0  0  0  0  0  0  0  0  0  0  0
   -3.6708    3.4182   -2.1644 C   0  0  0  0  0  0  0  0  0  0  0  0
   -4.0644    2.1514   -1.7233 C   0  0  0  0  0  0  0  0  0  0  0  0
   -4.7703    1.3154   -2.5346 C   0  0  0  0  0  0  0  0  0  0  0  0
   -5.1003    1.7200   -3.8354 C   0  0  0  0  0  0  0  0  0  0  0  0
   -4.6998    2.9995   -4.2906 C   0  0  0  0  0  0  0  0  0  0  0  0
   -3.9804    3.8453   -3.4395 C   0  0  0  0  0  0  0  0  0  0  0  0
   -5.0464    3.3825   -5.6104 C   0  0  0  0  0  0  0  0  0  0  0  0
   -5.7286    2.5253   -6.3551 N   0  0  0  0  0  0  0  0  0  0  0  0
   -6.0855    1.3321   -5.8880 C   0  0  0  0  0  0  0  0  0  0  0  0
   -6.7974    0.4819   -6.7161 N   0  0  0  0  0  0  0  0  0  0  0  0
   -4.6830    4.6169   -6.1067 N   0  0  0  0  0  0  0  0  0  0  0  0
   -1.5458    5.5141   -2.2262 H   0  0  0  0  0  0  0  0  0  0  0  0
   -3.2476    5.9614   -2.4948 H   0  0  0  0  0  0  0  0  0  0  0  0
   -2.4863    6.2649   -0.9147 H   0  0  0  0  0  0  0  0  0  0  0  0
   -3.3894    3.1261    0.4031 H   0  0  0  0  0  0  0  0  0  0  0  0
   -2.5659    4.6736    0.7117 H   0  0  0  0  0  0  0  0  0  0  0  0
   -2.1526    1.1769    0.0184 H   0  0  0  0  0  0  0  0  0  0  0  0
    0.0021   -0.0041    0.0020 H   0  0  0  0  0  0  0  0  0  0  0  0
    2.1024    1.2298   -0.0118 H   0  0  0  0  0  0  0  0  0  0  0  0
   -1.0504    5.7863    0.0418 H   0  0  0  0  0  0  0  0  0  0  0  0
    1.0496    7.0200    0.0286 H   0  0  0  0  0  0  0  0  0  0  0  0
    3.2046    5.8389    0.0011 H   0  0  0  0  0  0  0  0  0  0  0  0
    3.2947    3.4051   -0.0122 H   0  0  0  0  0  0  0  0  0  0  0  0
   -3.8087    1.8327   -0.7236 H   0  0  0  0  0  0  0  0  0  0  0  0
   -5.0712    0.3414   -2.1779 H   0  0  0  0  0  0  0  0  0  0  0  0
   -3.6700    4.8230   -3.7773 H   0  0  0  0  0  0  0  0  0  0  0  0
   -7.0260    0.7608   -7.6166 H   0  0  0  0  0  0  0  0  0  0  0  0
   -7.0679   -0.3930   -6.3961 H   0  0  0  0  0  0  0  0  0  0  0  0
   -4.1838    5.2354   -5.5507 H   0  0  0  0  0  0  0  0  0  0  0  0
   -4.9266    4.8666   -7.0119 H   0  0  0  0  0  0  0  0  0  0  0  0
   -5.8108    0.8603   -4.6473 N   0  3  0  0  0  0  0  0  0  0  0  0
   -6.0844   -0.0387   -4.3055 H   0  0  0  0  0  0  0  0  0  0  0  0
  1  2  1  0  0  0  0
  1 25  1  0  0  0  0
  1 26  1  0  0  0  0
  1 27  1  0  0  0  0
  2  3  1  0  0  0  0
  2 14  1  0  0  0  0
  3  4  1  0  0  0  0
  3 28  1  0  0  0  0
  3 29  1  0  0  0  0
  4  9  2  0  0  0  0
  4  5  1  0  0  0  0
  5  6  2  0  0  0  0
  5 30  1  0  0  0  0
  6  7  1  0  0  0  0
  6 31  1  0  0  0  0
  7  8  2  0  0  0  0
  7 32  1  0  0  0  0
  8 13  1  0  0  0  0
  8  9  1  0  0  0  0
  9 10  1  0  0  0  0
 10 11  2  0  0  0  0
 10 33  1  0  0  0  0
 11 12  1  0  0  0  0
 11 34  1  0  0  0  0
 12 13  2  0  0  0  0
 12 35  1  0  0  0  0
 13 36  1  0  0  0  0
 14 19  2  0  0  0  0
 14 15  1  0  0  0  0
 15 16  2  0  0  0  0
 15 37  1  0  0  0  0
 16 17  1  0  0  0  0
 16 38  1  0  0  0  0
 17 18  2  0  0  0  0
 17 44  1  0  0  0  0
 18 19  1  0  0  0  0
 18 20  1  0  0  0  0
 19 39  1  0  0  0  0
 20 21  2  0  0  0  0
 20 24  1  0  0  0  0
 21 22  1  0  0  0  0
 22 23  1  0  0  0  0
 22 44  2  0  0  0  0
 23 40  1  0  0  0  0
 23 41  1  0  0  0  0
 24 42  1  0  0  0  0
 24 43  1  0  0  0  0
 44 45  1  0  0  0  0
M  CHG  1  44   1
M  END
$$$$
ZINC03814867
  -OEChem-08230709403D

 43 45  0     0  0  0  0  0  0999 V2000
    6.0923    9.7227   -2.2238 C   0  0  0  0  0  0  0  0  0  0  0  0
    4.7818    9.1581   -2.2994 O   0  0  0  0  0  0  0  0  0  0  0  0
    4.1617    8.8786   -1.1230 C   0  0  0  0  0  0  0  0  0  0  0  0
    2.8874    8.3289   -1.1231 C   0  0  0  0  0  0  0  0  0  0  0  0
    2.2568    8.0436    0.0728 C   0  0  0  0  0  0  0  0  0  0  0  0
    2.8903    8.3102    1.2714 C   0  0  0  0  0  0  0  0  0  0  0  0
    4.1666    8.8550    1.2768 C   0  0  0  0  0  0  0  0  0  0  0  0
    4.8017    9.1418    0.0783 C   0  0  0  0  0  0  0  0  0  0  0  0
    4.7916    9.1115    2.4560 O   0  0  0  0  0  0  0  0  0  0  0  0
    6.1021    9.6770    2.3861 C   0  0  0  0  0  0  0  0  0  0  0  0
    0.8732    7.4462    0.0698 C   0  0  0  0  0  0  0  0  0  0  0  0
    0.9723    5.9847    0.0550 N   0  0  0  0  0  0  0  0  0  0  0  0
   -0.1889    5.2050    0.0497 C   0  0  0  0  0  0  0  0  0  0  0  0
   -1.4408    5.8268    0.0581 C   0  0  0  0  0  0  0  0  0  0  0  0
   -2.5878    5.0922    0.0414 C   0  0  0  0  0  0  0  0  0  0  0  0
   -2.5193    3.6922    0.0335 C   0  0  0  0  0  0  0  0  0  0  0  0
   -1.2546    3.0558    0.0305 C   0  0  0  0  0  0  0  0  0  0  0  0
   -0.0884    3.8288    0.0357 C   0  0  0  0  0  0  0  0  0  0  0  0
   -1.2147    1.6391    0.0167 C   0  0  0  0  0  0  0  0  0  0  0  0
   -2.3626    0.9779    0.0186 N   0  0  0  0  0  0  0  0  0  0  0  0
   -3.5300    1.6154    0.0275 C   0  0  0  0  0  0  0  0  0  0  0  0
   -3.6248    2.9308    0.0346 N   0  0  0  0  0  0  0  0  0  0  0  0
   -4.6941    0.8669    0.0290 N   0  0  0  0  0  0  0  0  0  0  0  0
   -0.0111    0.9658    0.0074 N   0  0  0  0  0  0  0  0  0  0  0  0
    6.7550    9.0339   -1.6999 H   0  0  0  0  0  0  0  0  0  0  0  0
    6.4716    9.8967   -3.2308 H   0  0  0  0  0  0  0  0  0  0  0  0
    6.0500   10.6682   -1.6831 H   0  0  0  0  0  0  0  0  0  0  0  0
    2.3884    8.1237   -2.0586 H   0  0  0  0  0  0  0  0  0  0  0  0
    2.3935    8.0904    2.2049 H   0  0  0  0  0  0  0  0  0  0  0  0
    5.7935    9.5692    0.0804 H   0  0  0  0  0  0  0  0  0  0  0  0
    6.7624    8.9983    1.8462 H   0  0  0  0  0  0  0  0  0  0  0  0
    6.0579   10.6329    1.8640 H   0  0  0  0  0  0  0  0  0  0  0  0
    6.4855    9.8313    3.3947 H   0  0  0  0  0  0  0  0  0  0  0  0
    0.3340    7.7828   -0.8157 H   0  0  0  0  0  0  0  0  0  0  0  0
    0.3379    7.7650    0.9641 H   0  0  0  0  0  0  0  0  0  0  0  0
    1.8433    5.5577    0.0488 H   0  0  0  0  0  0  0  0  0  0  0  0
   -1.4995    6.9051    0.0683 H   0  0  0  0  0  0  0  0  0  0  0  0
   -3.5477    5.5871    0.0479 H   0  0  0  0  0  0  0  0  0  0  0  0
    0.8811    3.3529    0.0285 H   0  0  0  0  0  0  0  0  0  0  0  0
   -4.6477   -0.1020    0.0235 H   0  0  0  0  0  0  0  0  0  0  0  0
   -5.5564    1.3111    0.0354 H   0  0  0  0  0  0  0  0  0  0  0  0
    0.0021   -0.0041    0.0020 H   0  0  0  0  0  0  0  0  0  0  0  0
    0.8223    1.4622    0.0021 H   0  0  0  0  0  0  0  0  0  0  0  0
  1  2  1  0  0  0  0
  1 25  1  0  0  0  0
  1 26  1  0  0  0  0
  1 27  1  0  0  0  0
  2  3  1  0  0  0  0
  3  8  2  0  0  0  0
  3  4  1  0  0  0  0
  4  5  2  0  0  0  0
  4 28  1  0  0  0  0
  5  6  1  0  0  0  0
  5 11  1  0  0  0  0
  6  7  2  0  0  0  0
  6 29  1  0  0  0  0
  7  8  1  0  0  0  0
  7  9  1  0  0  0  0
  8 30  1  0  0  0  0
  9 10  1  0  0  0  0
 10 31  1  0  0  0  0
 10 32  1  0  0  0  0
 10 33  1  0  0  0  0
 11 12  1  0  0  0  0
 11 34  1  0  0  0  0
 11 35  1  0  0  0  0
 12 13  1  0  0  0  0
 12 36  1  0  0  0  0
 13 18  2  0  0  0  0
 13 14  1  0  0  0  0
 14 15  2  0  0  0  0
 14 37  1  0  0  0  0
 15 16  1  0  0  0  0
 15 38  1  0  0  0  0
 16 22  2  0  0  0  0
 16 17  1  0  0  0  0
 17 18  1  0  0  0  0
 17 19  2  0  0  0  0
 18 39  1  0  0  0  0
 19 20  1  0  0  0  0
 19 24  1  0  0  0  0
 20 21  2  0  0  0  0
 21 22  1  0  0  0  0
 21 23  1  0  0  0  0
 23 40  1  0  0  0  0
 23 41  1  0  0  0  0
 24 42  1  0  0  0  0
 24 43  1  0  0  0  0
M  END
$$$$
ZINC03814867
  -OEChem-08230709403D

 44 46  0     0  0  0  0  0  0999 V2000
    6.0923    9.7227   -2.2238 C   0  0  0  0  0  0  0  0  0  0  0  0
    4.7818    9.1581   -2.2994 O   0  0  0  0  0  0  0  0  0  0  0  0
    4.1617    8.8786   -1.1230 C   0  0  0  0  0  0  0  0  0  0  0  0
    2.8874    8.3289   -1.1231 C   0  0  0  0  0  0  0  0  0  0  0  0
    2.2568    8.0436    0.0728 C   0  0  0  0  0  0  0  0  0  0  0  0
    2.8903    8.3102    1.2714 C   0  0  0  0  0  0  0  0  0  0  0  0
    4.1666    8.8550    1.2768 C   0  0  0  0  0  0  0  0  0  0  0  0
    4.8017    9.1418    0.0783 C   0  0  0  0  0  0  0  0  0  0  0  0
    4.7916    9.1115    2.4560 O   0  0  0  0  0  0  0  0  0  0  0  0
    6.1021    9.6770    2.3861 C   0  0  0  0  0  0  0  0  0  0  0  0
    0.8732    7.4462    0.0698 C   0  0  0  0  0  0  0  0  0  0  0  0
    0.9723    5.9847    0.0550 N   0  0  0  0  0  0  0  0  0  0  0  0
   -0.1889    5.2050    0.0497 C   0  0  0  0  0  0  0  0  0  0  0  0
   -1.4408    5.8268    0.0581 C   0  0  0  0  0  0  0  0  0  0  0  0
   -2.5878    5.0922    0.0414 C   0  0  0  0  0  0  0  0  0  0  0  0
   -2.5193    3.6922    0.0335 C   0  0  0  0  0  0  0  0  0  0  0  0
   -1.2546    3.0558    0.0305 C   0  0  0  0  0  0  0  0  0  0  0  0
   -0.0884    3.8288    0.0357 C   0  0  0  0  0  0  0  0  0  0  0  0
   -1.2147    1.6391    0.0167 C   0  0  0  0  0  0  0  0  0  0  0  0
   -2.3626    0.9779    0.0186 N   0  0  0  0  0  0  0  0  0  0  0  0
   -3.5300    1.6154    0.0275 C   0  0  0  0  0  0  0  0  0  0  0  0
   -4.6941    0.8669    0.0290 N   0  0  0  0  0  0  0  0  0  0  0  0
   -0.0111    0.9658    0.0074 N   0  0  0  0  0  0  0  0  0  0  0  0
    6.7550    9.0339   -1.6999 H   0  0  0  0  0  0  0  0  0  0  0  0
    6.4716    9.8967   -3.2308 H   0  0  0  0  0  0  0  0  0  0  0  0
    6.0500   10.6682   -1.6831 H   0  0  0  0  0  0  0  0  0  0  0  0
    2.3884    8.1237   -2.0586 H   0  0  0  0  0  0  0  0  0  0  0  0
    2.3935    8.0904    2.2049 H   0  0  0  0  0  0  0  0  0  0  0  0
    5.7935    9.5692    0.0804 H   0  0  0  0  0  0  0  0  0  0  0  0
    6.7624    8.9983    1.8462 H   0  0  0  0  0  0  0  0  0  0  0  0
    6.0579   10.6329    1.8640 H   0  0  0  0  0  0  0  0  0  0  0  0
    6.4855    9.8313    3.3947 H   0  0  0  0  0  0  0  0  0  0  0  0
    0.3340    7.7828   -0.8157 H   0  0  0  0  0  0  0  0  0  0  0  0
    0.3379    7.7650    0.9641 H   0  0  0  0  0  0  0  0  0  0  0  0
    1.8433    5.5577    0.0488 H   0  0  0  0  0  0  0  0  0  0  0  0
   -1.4995    6.9051    0.0683 H   0  0  0  0  0  0  0  0  0  0  0  0
   -3.5477    5.5871    0.0479 H   0  0  0  0  0  0  0  0  0  0  0  0
    0.8811    3.3529    0.0285 H   0  0  0  0  0  0  0  0  0  0  0  0
   -4.6477   -0.1020    0.0235 H   0  0  0  0  0  0  0  0  0  0  0  0
   -5.5564    1.3111    0.0354 H   0  0  0  0  0  0  0  0  0  0  0  0
    0.0021   -0.0041    0.0020 H   0  0  0  0  0  0  0  0  0  0  0  0
    0.8223    1.4622    0.0021 H   0  0  0  0  0  0  0  0  0  0  0  0
   -3.6894    2.9615    0.0350 N   0  3  0  0  0  0  0  0  0  0  0  0
   -4.5722    3.4312    0.0414 H   0  0  0  0  0  0  0  0  0  0  0  0
  1  2  1  0  0  0  0
  1 24  1  0  0  0  0
  1 25  1  0  0  0  0
  1 26  1  0  0  0  0
  2  3  1  0  0  0  0
  3  8  2  0  0  0  0
  3  4  1  0  0  0  0
  4  5  2  0  0  0  0
  4 27  1  0  0  0  0
  5  6  1  0  0  0  0
  5 11  1  0  0  0  0
  6  7  2  0  0  0  0
  6 28  1  0  0  0  0
  7  8  1  0  0  0  0
  7  9  1  0  0  0  0
  8 29  1  0  0  0  0
  9 10  1  0  0  0  0
 10 30  1  0  0  0  0
 10 31  1  0  0  0  0
 10 32  1  0  0  0  0
 11 12  1  0  0  0  0
 11 33  1  0  0  0  0
 11 34  1  0  0  0  0
 12 13  1  0  0  0  0
 12 35  1  0  0  0  0
 13 18  2  0  0  0  0
 13 14  1  0  0  0  0
 14 15  2  0  0  0  0
 14 36  1  0  0  0  0
 15 16  1  0  0  0  0
 15 37  1  0  0  0  0
 16 17  2  0  0  0  0
 16 43  1  0  0  0  0
 17 18  1  0  0  0  0
 17 19  1  0  0  0  0
 18 38  1  0  0  0  0
 19 20  2  0  0  0  0
 19 23  1  0  0  0  0
 20 21  1  0  0  0  0
 21 22  1  0  0  0  0
 21 43  2  0  0  0  0
 22 39  1  0  0  0  0
 22 40  1  0  0  0  0
 23 41  1  0  0  0  0
 23 42  1  0  0  0  0
 43 44  1  0  0  0  0
M  CHG  1  43   1
M  END
$$$$
ZINC03814868
  -OEChem-08230709403D

 47 49  0     0  0  0  0  0  0999 V2000
   -0.0127    1.0858    0.0080 C   0  0  0  0  0  0  0  0  0  0  0  0
   -0.6816    1.5467    1.1837 O   0  0  0  0  0  0  0  0  0  0  0  0
   -0.7875    2.8927    1.3463 C   0  0  0  0  0  0  0  0  0  0  0  0
   -0.2586    3.7508    0.3940 C   0  0  0  0  0  0  0  0  0  0  0  0
   -0.3657    5.1191    0.5583 C   0  0  0  0  0  0  0  0  0  0  0  0
   -0.9998    5.6377    1.6717 C   0  0  0  0  0  0  0  0  0  0  0  0
   -1.5314    4.7865    2.6286 C   0  0  0  0  0  0  0  0  0  0  0  0
   -1.4309    3.4101    2.4642 C   0  0  0  0  0  0  0  0  0  0  0  0
   -1.9566    2.5712    3.3981 O   0  0  0  0  0  0  0  0  0  0  0  0
   -1.1017    2.1816    4.4748 C   0  0  0  0  0  0  0  0  0  0  0  0
   -2.1556    5.2977    3.7234 O   0  0  0  0  0  0  0  0  0  0  0  0
   -2.2275    6.7214    3.8234 C   0  0  0  0  0  0  0  0  0  0  0  0
    0.2110    6.0479   -0.4789 C   0  0  0  0  0  0  0  0  0  0  0  0
   -0.8045    6.3364   -1.4946 N   0  0  0  0  0  0  0  0  0  0  0  0
   -0.5007    7.1817   -2.5668 C   0  0  0  0  0  0  0  0  0  0  0  0
    0.7720    7.7524   -2.6601 C   0  0  0  0  0  0  0  0  0  0  0  0
    1.0967    8.5744   -3.6965 C   0  0  0  0  0  0  0  0  0  0  0  0
    0.1425    8.8658   -4.6810 C   0  0  0  0  0  0  0  0  0  0  0  0
   -1.1504    8.2958   -4.5896 C   0  0  0  0  0  0  0  0  0  0  0  0
   -1.4619    7.4493   -3.5202 C   0  0  0  0  0  0  0  0  0  0  0  0
   -2.0957    8.6079   -5.5985 C   0  0  0  0  0  0  0  0  0  0  0  0
   -1.7245    9.4179   -6.5788 N   0  0  0  0  0  0  0  0  0  0  0  0
   -0.4987    9.9321   -6.6268 C   0  0  0  0  0  0  0  0  0  0  0  0
    0.4194    9.6749   -5.7156 N   0  0  0  0  0  0  0  0  0  0  0  0
   -0.1728   10.7719   -7.6775 N   0  0  0  0  0  0  0  0  0  0  0  0
   -3.3697    8.0813   -5.5607 N   0  0  0  0  0  0  0  0  0  0  0  0
    0.0021   -0.0041    0.0020 H   0  0  0  0  0  0  0  0  0  0  0  0
    1.0099    1.4631    0.0003 H   0  0  0  0  0  0  0  0  0  0  0  0
   -0.5399    1.4469   -0.8751 H   0  0  0  0  0  0  0  0  0  0  0  0
    0.2374    3.3495   -0.4774 H   0  0  0  0  0  0  0  0  0  0  0  0
   -1.0811    6.7074    1.7966 H   0  0  0  0  0  0  0  0  0  0  0  0
   -0.7819    3.0674    5.0237 H   0  0  0  0  0  0  0  0  0  0  0  0
   -1.6431    1.5144    5.1455 H   0  0  0  0  0  0  0  0  0  0  0  0
   -0.2279    1.6658    4.0766 H   0  0  0  0  0  0  0  0  0  0  0  0
   -1.2195    7.1358    3.8408 H   0  0  0  0  0  0  0  0  0  0  0  0
   -2.7691    7.1191    2.9651 H   0  0  0  0  0  0  0  0  0  0  0  0
   -2.7488    6.9953    4.7407 H   0  0  0  0  0  0  0  0  0  0  0  0
    0.5219    6.9773   -0.0016 H   0  0  0  0  0  0  0  0  0  0  0  0
    1.0728    5.5757   -0.9505 H   0  0  0  0  0  0  0  0  0  0  0  0
   -1.6875    5.9413   -1.4236 H   0  0  0  0  0  0  0  0  0  0  0  0
    1.5096    7.5350   -1.9018 H   0  0  0  0  0  0  0  0  0  0  0  0
    2.0857    9.0041   -3.7572 H   0  0  0  0  0  0  0  0  0  0  0  0
   -2.4452    7.0099   -3.4413 H   0  0  0  0  0  0  0  0  0  0  0  0
   -0.8326   10.9745   -8.3591 H   0  0  0  0  0  0  0  0  0  0  0  0
    0.7154   11.1580   -7.7323 H   0  0  0  0  0  0  0  0  0  0  0  0
   -3.6285    7.4891   -4.8374 H   0  0  0  0  0  0  0  0  0  0  0  0
   -4.0070    8.3030   -6.2576 H   0  0  0  0  0  0  0  0  0  0  0  0
  1  2  1  0  0  0  0
  1 27  1  0  0  0  0
  1 28  1  0  0  0  0
  1 29  1  0  0  0  0
  2  3  1  0  0  0  0
  3  8  2  0  0  0  0
  3  4  1  0  0  0  0
  4  5  2  0  0  0  0
  4 30  1  0  0  0  0
  5  6  1  0  0  0  0
  5 13  1  0  0  0  0
  6  7  2  0  0  0  0
  6 31  1  0  0  0  0
  7  8  1  0  0  0  0
  7 11  1  0  0  0  0
  8  9  1  0  0  0  0
  9 10  1  0  0  0  0
 10 32  1  0  0  0  0
 10 33  1  0  0  0  0
 10 34  1  0  0  0  0
 11 12  1  0  0  0  0
 12 35  1  0  0  0  0
 12 36  1  0  0  0  0
 12 37  1  0  0  0  0
 13 14  1  0  0  0  0
 13 38  1  0  0  0  0
 13 39  1  0  0  0  0
 14 15  1  0  0  0  0
 14 40  1  0  0  0  0
 15 20  2  0  0  0  0
 15 16  1  0  0  0  0
 16 17  2  0  0  0  0
 16 41  1  0  0  0  0
 17 18  1  0  0  0  0
 17 42  1  0  0  0  0
 18 24  2  0  0  0  0
 18 19  1  0  0  0  0
 19 20  1  0  0  0  0
 19 21  2  0  0  0  0
 20 43  1  0  0  0  0
 21 22  1  0  0  0  0
 21 26  1  0  0  0  0
 22 23  2  0  0  0  0
 23 24  1  0  0  0  0
 23 25  1  0  0  0  0
 25 44  1  0  0  0  0
 25 45  1  0  0  0  0
 26 46  1  0  0  0  0
 26 47  1  0  0  0  0
M  END
$$$$
ZINC03814868
  -OEChem-08230709403D

 48 50  0     0  0  0  0  0  0999 V2000
   -0.0127    1.0858    0.0080 C   0  0  0  0  0  0  0  0  0  0  0  0
   -0.6816    1.5467    1.1837 O   0  0  0  0  0  0  0  0  0  0  0  0
   -0.7875    2.8927    1.3463 C   0  0  0  0  0  0  0  0  0  0  0  0
   -0.2586    3.7508    0.3940 C   0  0  0  0  0  0  0  0  0  0  0  0
   -0.3657    5.1191    0.5583 C   0  0  0  0  0  0  0  0  0  0  0  0
   -0.9998    5.6377    1.6717 C   0  0  0  0  0  0  0  0  0  0  0  0
   -1.5314    4.7865    2.6286 C   0  0  0  0  0  0  0  0  0  0  0  0
   -1.4309    3.4101    2.4642 C   0  0  0  0  0  0  0  0  0  0  0  0
   -1.9566    2.5712    3.3981 O   0  0  0  0  0  0  0  0  0  0  0  0
   -1.1017    2.1816    4.4748 C   0  0  0  0  0  0  0  0  0  0  0  0
   -2.1556    5.2977    3.7234 O   0  0  0  0  0  0  0  0  0  0  0  0
   -2.2275    6.7214    3.8234 C   0  0  0  0  0  0  0  0  0  0  0  0
    0.2110    6.0479   -0.4789 C   0  0  0  0  0  0  0  0  0  0  0  0
   -0.8045    6.3364   -1.4946 N   0  0  0  0  0  0  0  0  0  0  0  0
   -0.5007    7.1817   -2.5668 C   0  0  0  0  0  0  0  0  0  0  0  0
    0.7720    7.7524   -2.6601 C   0  0  0  0  0  0  0  0  0  0  0  0
    1.0967    8.5744   -3.6965 C   0  0  0  0  0  0  0  0  0  0  0  0
    0.1425    8.8658   -4.6810 C   0  0  0  0  0  0  0  0  0  0  0  0
   -1.1504    8.2958   -4.5896 C   0  0  0  0  0  0  0  0  0  0  0  0
   -1.4619    7.4493   -3.5202 C   0  0  0  0  0  0  0  0  0  0  0  0
   -2.0957    8.6079   -5.5985 C   0  0  0  0  0  0  0  0  0  0  0  0
   -1.7245    9.4179   -6.5788 N   0  0  0  0  0  0  0  0  0  0  0  0
   -0.4987    9.9321   -6.6268 C   0  0  0  0  0  0  0  0  0  0  0  0
   -0.1728   10.7719   -7.6775 N   0  0  0  0  0  0  0  0  0  0  0  0
   -3.3697    8.0813   -5.5607 N   0  0  0  0  0  0  0  0  0  0  0  0
    0.0021   -0.0041    0.0020 H   0  0  0  0  0  0  0  0  0  0  0  0
    1.0099    1.4631    0.0003 H   0  0  0  0  0  0  0  0  0  0  0  0
   -0.5399    1.4469   -0.8751 H   0  0  0  0  0  0  0  0  0  0  0  0
    0.2374    3.3495   -0.4774 H   0  0  0  0  0  0  0  0  0  0  0  0
   -1.0811    6.7074    1.7966 H   0  0  0  0  0  0  0  0  0  0  0  0
   -0.7819    3.0674    5.0237 H   0  0  0  0  0  0  0  0  0  0  0  0
   -1.6431    1.5144    5.1455 H   0  0  0  0  0  0  0  0  0  0  0  0
   -0.2279    1.6658    4.0766 H   0  0  0  0  0  0  0  0  0  0  0  0
   -1.2195    7.1358    3.8408 H   0  0  0  0  0  0  0  0  0  0  0  0
   -2.7691    7.1191    2.9651 H   0  0  0  0  0  0  0  0  0  0  0  0
   -2.7488    6.9953    4.7407 H   0  0  0  0  0  0  0  0  0  0  0  0
    0.5219    6.9773   -0.0016 H   0  0  0  0  0  0  0  0  0  0  0  0
    1.0728    5.5757   -0.9505 H   0  0  0  0  0  0  0  0  0  0  0  0
   -1.6875    5.9413   -1.4236 H   0  0  0  0  0  0  0  0  0  0  0  0
    1.5096    7.5350   -1.9018 H   0  0  0  0  0  0  0  0  0  0  0  0
    2.0857    9.0041   -3.7572 H   0  0  0  0  0  0  0  0  0  0  0  0
   -2.4452    7.0099   -3.4413 H   0  0  0  0  0  0  0  0  0  0  0  0
   -0.8326   10.9745   -8.3591 H   0  0  0  0  0  0  0  0  0  0  0  0
    0.7154   11.1580   -7.7323 H   0  0  0  0  0  0  0  0  0  0  0  0
   -3.6285    7.4891   -4.8374 H   0  0  0  0  0  0  0  0  0  0  0  0
   -4.0070    8.3030   -6.2576 H   0  0  0  0  0  0  0  0  0  0  0  0
    0.4842    9.7044   -5.7216 N   0  3  0  0  0  0  0  0  0  0  0  0
    1.4034   10.0956   -5.7673 H   0  0  0  0  0  0  0  0  0  0  0  0
  1  2  1  0  0  0  0
  1 26  1  0  0  0  0
  1 27  1  0  0  0  0
  1 28  1  0  0  0  0
  2  3  1  0  0  0  0
  3  8  2  0  0  0  0
  3  4  1  0  0  0  0
  4  5  2  0  0  0  0
  4 29  1  0  0  0  0
  5  6  1  0  0  0  0
  5 13  1  0  0  0  0
  6  7  2  0  0  0  0
  6 30  1  0  0  0  0
  7  8  1  0  0  0  0
  7 11  1  0  0  0  0
  8  9  1  0  0  0  0
  9 10  1  0  0  0  0
 10 31  1  0  0  0  0
 10 32  1  0  0  0  0
 10 33  1  0  0  0  0
 11 12  1  0  0  0  0
 12 34  1  0  0  0  0
 12 35  1  0  0  0  0
 12 36  1  0  0  0  0
 13 14  1  0  0  0  0
 13 37  1  0  0  0  0
 13 38  1  0  0  0  0
 14 15  1  0  0  0  0
 14 39  1  0  0  0  0
 15 20  2  0  0  0  0
 15 16  1  0  0  0  0
 16 17  2  0  0  0  0
 16 40  1  0  0  0  0
 17 18  1  0  0  0  0
 17 41  1  0  0  0  0
 18 19  2  0  0  0  0
 18 47  1  0  0  0  0
 19 20  1  0  0  0  0
 19 21  1  0  0  0  0
 20 42  1  0  0  0  0
 21 22  2  0  0  0  0
 21 25  1  0  0  0  0
 22 23  1  0  0  0  0
 23 24  1  0  0  0  0
 23 47  2  0  0  0  0
 24 43  1  0  0  0  0
 24 44  1  0  0  0  0
 25 45  1  0  0  0  0
 25 46  1  0  0  0  0
 47 48  1  0  0  0  0
M  CHG  1  47   1
M  END
$$$$
ZINC03814869
  -OEChem-08230709403D

 47 49  0     0  0  0  0  0  0999 V2000
   -5.1684    4.2666   -1.4251 C   0  0  0  0  0  0  0  0  0  0  0  0
   -5.5734    4.6282   -0.1033 O   0  0  0  0  0  0  0  0  0  0  0  0
   -4.8469    4.1172    0.9267 C   0  0  0  0  0  0  0  0  0  0  0  0
   -3.7641    3.2908    0.6683 C   0  0  0  0  0  0  0  0  0  0  0  0
   -3.0255    2.7649    1.7192 C   0  0  0  0  0  0  0  0  0  0  0  0
   -3.3637    3.0752    3.0302 C   0  0  0  0  0  0  0  0  0  0  0  0
   -4.4428    3.9061    3.2897 C   0  0  0  0  0  0  0  0  0  0  0  0
   -5.1860    4.4282    2.2377 C   0  0  0  0  0  0  0  0  0  0  0  0
   -6.2459    5.2448    2.4917 O   0  0  0  0  0  0  0  0  0  0  0  0
   -7.5224    4.6216    2.6473 C   0  0  0  0  0  0  0  0  0  0  0  0
   -4.7744    4.2097    4.5733 O   0  0  0  0  0  0  0  0  0  0  0  0
   -4.2422    5.4218    5.1115 C   0  0  0  0  0  0  0  0  0  0  0  0
   -2.3526    2.3640    4.4611 Br  0  0  0  0  0  0  0  0  0  0  0  0
   -1.9361    1.9261    1.4577 N   0  0  0  0  0  0  0  0  0  0  0  0
   -1.5791    1.5986    0.0751 C   0  0  0  0  0  0  0  0  0  0  0  0
   -0.3795    0.6864    0.0687 C   0  0  0  0  0  0  0  0  0  0  0  0
    0.8992    1.2342    0.0208 C   0  0  0  0  0  0  0  0  0  0  0  0
    2.0049    0.4367    0.0081 C   0  0  0  0  0  0  0  0  0  0  0  0
    1.8540   -0.9563    0.0437 C   0  0  0  0  0  0  0  0  0  0  0  0
    0.5522   -1.5114    0.0923 C   0  0  0  0  0  0  0  0  0  0  0  0
   -0.5617   -0.6651    0.1042 C   0  0  0  0  0  0  0  0  0  0  0  0
    0.4242   -2.9224    0.1280 C   0  0  0  0  0  0  0  0  0  0  0  0
    1.5288   -3.6540    0.1143 N   0  0  0  0  0  0  0  0  0  0  0  0
    2.7330   -3.0912    0.0682 C   0  0  0  0  0  0  0  0  0  0  0  0
    2.9092   -1.7840    0.0339 N   0  0  0  0  0  0  0  0  0  0  0  0
    3.8472   -3.9105    0.0563 N   0  0  0  0  0  0  0  0  0  0  0  0
   -0.8177   -3.5185    0.1763 N   0  0  0  0  0  0  0  0  0  0  0  0
   -5.8299    4.7405   -2.1503 H   0  0  0  0  0  0  0  0  0  0  0  0
   -4.1446    4.5996   -1.5953 H   0  0  0  0  0  0  0  0  0  0  0  0
   -5.2217    3.1837   -1.5380 H   0  0  0  0  0  0  0  0  0  0  0  0
   -3.4978    3.0526   -0.3509 H   0  0  0  0  0  0  0  0  0  0  0  0
   -7.7441    4.0222    1.7642 H   0  0  0  0  0  0  0  0  0  0  0  0
   -7.5083    3.9796    3.5280 H   0  0  0  0  0  0  0  0  0  0  0  0
   -8.2884    5.3875    2.7681 H   0  0  0  0  0  0  0  0  0  0  0  0
   -3.1550    5.3550    5.1515 H   0  0  0  0  0  0  0  0  0  0  0  0
   -4.5316    6.2592    4.4765 H   0  0  0  0  0  0  0  0  0  0  0  0
   -4.6340    5.5758    6.1169 H   0  0  0  0  0  0  0  0  0  0  0  0
   -1.4174    1.5616    2.1919 H   0  0  0  0  0  0  0  0  0  0  0  0
   -1.3418    2.5147   -0.4656 H   0  0  0  0  0  0  0  0  0  0  0  0
   -2.4184    1.0984   -0.4081 H   0  0  0  0  0  0  0  0  0  0  0  0
    1.0172    2.3074   -0.0067 H   0  0  0  0  0  0  0  0  0  0  0  0
    2.9909    0.8757   -0.0296 H   0  0  0  0  0  0  0  0  0  0  0  0
   -1.5587   -1.0787    0.1408 H   0  0  0  0  0  0  0  0  0  0  0  0
    3.7408   -4.8743    0.0812 H   0  0  0  0  0  0  0  0  0  0  0  0
    4.7351   -3.5213    0.0229 H   0  0  0  0  0  0  0  0  0  0  0  0
   -1.6183   -2.9710    0.1862 H   0  0  0  0  0  0  0  0  0  0  0  0
   -0.8910   -4.4854    0.2004 H   0  0  0  0  0  0  0  0  0  0  0  0
  1  2  1  0  0  0  0
  1 28  1  0  0  0  0
  1 29  1  0  0  0  0
  1 30  1  0  0  0  0
  2  3  1  0  0  0  0
  3  8  2  0  0  0  0
  3  4  1  0  0  0  0
  4  5  2  0  0  0  0
  4 31  1  0  0  0  0
  5  6  1  0  0  0  0
  5 14  1  0  0  0  0
  6  7  2  0  0  0  0
  6 13  1  0  0  0  0
  7  8  1  0  0  0  0
  7 11  1  0  0  0  0
  8  9  1  0  0  0  0
  9 10  1  0  0  0  0
 10 32  1  0  0  0  0
 10 33  1  0  0  0  0
 10 34  1  0  0  0  0
 11 12  1  0  0  0  0
 12 35  1  0  0  0  0
 12 36  1  0  0  0  0
 12 37  1  0  0  0  0
 14 15  1  0  0  0  0
 14 38  1  0  0  0  0
 15 16  1  0  0  0  0
 15 39  1  0  0  0  0
 15 40  1  0  0  0  0
 16 21  2  0  0  0  0
 16 17  1  0  0  0  0
 17 18  2  0  0  0  0
 17 41  1  0  0  0  0
 18 19  1  0  0  0  0
 18 42  1  0  0  0  0
 19 25  2  0  0  0  0
 19 20  1  0  0  0  0
 20 21  1  0  0  0  0
 20 22  2  0  0  0  0
 21 43  1  0  0  0  0
 22 23  1  0  0  0  0
 22 27  1  0  0  0  0
 23 24  2  0  0  0  0
 24 25  1  0  0  0  0
 24 26  1  0  0  0  0
 26 44  1  0  0  0  0
 26 45  1  0  0  0  0
 27 46  1  0  0  0  0
 27 47  1  0  0  0  0
M  END
$$$$
ZINC03814869
  -OEChem-08230709403D

 48 50  0     0  0  0  0  0  0999 V2000
   -5.1684    4.2666   -1.4251 C   0  0  0  0  0  0  0  0  0  0  0  0
   -5.5734    4.6282   -0.1033 O   0  0  0  0  0  0  0  0  0  0  0  0
   -4.8469    4.1172    0.9267 C   0  0  0  0  0  0  0  0  0  0  0  0
   -3.7641    3.2908    0.6683 C   0  0  0  0  0  0  0  0  0  0  0  0
   -3.0255    2.7649    1.7192 C   0  0  0  0  0  0  0  0  0  0  0  0
   -3.3637    3.0752    3.0302 C   0  0  0  0  0  0  0  0  0  0  0  0
   -4.4428    3.9061    3.2897 C   0  0  0  0  0  0  0  0  0  0  0  0
   -5.1860    4.4282    2.2377 C   0  0  0  0  0  0  0  0  0  0  0  0
   -6.2459    5.2448    2.4917 O   0  0  0  0  0  0  0  0  0  0  0  0
   -7.5224    4.6216    2.6473 C   0  0  0  0  0  0  0  0  0  0  0  0
   -4.7744    4.2097    4.5733 O   0  0  0  0  0  0  0  0  0  0  0  0
   -4.2422    5.4218    5.1115 C   0  0  0  0  0  0  0  0  0  0  0  0
   -2.3526    2.3640    4.4611 Br  0  0  0  0  0  0  0  0  0  0  0  0
   -1.9361    1.9261    1.4577 N   0  0  0  0  0  0  0  0  0  0  0  0
   -1.5791    1.5986    0.0751 C   0  0  0  0  0  0  0  0  0  0  0  0
   -0.3795    0.6864    0.0687 C   0  0  0  0  0  0  0  0  0  0  0  0
    0.8992    1.2342    0.0208 C   0  0  0  0  0  0  0  0  0  0  0  0
    2.0049    0.4367    0.0081 C   0  0  0  0  0  0  0  0  0  0  0  0
    1.8540   -0.9563    0.0437 C   0  0  0  0  0  0  0  0  0  0  0  0
    0.5522   -1.5114    0.0923 C   0  0  0  0  0  0  0  0  0  0  0  0
   -0.5617   -0.6651    0.1042 C   0  0  0  0  0  0  0  0  0  0  0  0
    0.4242   -2.9224    0.1280 C   0  0  0  0  0  0  0  0  0  0  0  0
    1.5288   -3.6540    0.1143 N   0  0  0  0  0  0  0  0  0  0  0  0
    2.7330   -3.0912    0.0682 C   0  0  0  0  0  0  0  0  0  0  0  0
    3.8472   -3.9105    0.0563 N   0  0  0  0  0  0  0  0  0  0  0  0
   -0.8177   -3.5185    0.1763 N   0  0  0  0  0  0  0  0  0  0  0  0
   -5.8299    4.7405   -2.1503 H   0  0  0  0  0  0  0  0  0  0  0  0
   -4.1446    4.5996   -1.5953 H   0  0  0  0  0  0  0  0  0  0  0  0
   -5.2217    3.1837   -1.5380 H   0  0  0  0  0  0  0  0  0  0  0  0
   -3.4978    3.0526   -0.3509 H   0  0  0  0  0  0  0  0  0  0  0  0
   -7.7441    4.0222    1.7642 H   0  0  0  0  0  0  0  0  0  0  0  0
   -7.5083    3.9796    3.5280 H   0  0  0  0  0  0  0  0  0  0  0  0
   -8.2884    5.3875    2.7681 H   0  0  0  0  0  0  0  0  0  0  0  0
   -3.1550    5.3550    5.1515 H   0  0  0  0  0  0  0  0  0  0  0  0
   -4.5316    6.2592    4.4765 H   0  0  0  0  0  0  0  0  0  0  0  0
   -4.6340    5.5758    6.1169 H   0  0  0  0  0  0  0  0  0  0  0  0
   -1.4174    1.5616    2.1919 H   0  0  0  0  0  0  0  0  0  0  0  0
   -1.3418    2.5147   -0.4656 H   0  0  0  0  0  0  0  0  0  0  0  0
   -2.4184    1.0984   -0.4081 H   0  0  0  0  0  0  0  0  0  0  0  0
    1.0172    2.3074   -0.0067 H   0  0  0  0  0  0  0  0  0  0  0  0
    2.9909    0.8757   -0.0296 H   0  0  0  0  0  0  0  0  0  0  0  0
   -1.5587   -1.0787    0.1408 H   0  0  0  0  0  0  0  0  0  0  0  0
    3.7408   -4.8743    0.0812 H   0  0  0  0  0  0  0  0  0  0  0  0
    4.7351   -3.5213    0.0229 H   0  0  0  0  0  0  0  0  0  0  0  0
   -1.6183   -2.9710    0.1862 H   0  0  0  0  0  0  0  0  0  0  0  0
   -0.8910   -4.4854    0.2004 H   0  0  0  0  0  0  0  0  0  0  0  0
    2.9754   -1.7575    0.0315 N   0  3  0  0  0  0  0  0  0  0  0  0
    3.8851   -1.3437   -0.0024 H   0  0  0  0  0  0  0  0  0  0  0  0
  1  2  1  0  0  0  0
  1 27  1  0  0  0  0
  1 28  1  0  0  0  0
  1 29  1  0  0  0  0
  2  3  1  0  0  0  0
  3  8  2  0  0  0  0
  3  4  1  0  0  0  0
  4  5  2  0  0  0  0
  4 30  1  0  0  0  0
  5  6  1  0  0  0  0
  5 14  1  0  0  0  0
  6  7  2  0  0  0  0
  6 13  1  0  0  0  0
  7  8  1  0  0  0  0
  7 11  1  0  0  0  0
  8  9  1  0  0  0  0
  9 10  1  0  0  0  0
 10 31  1  0  0  0  0
 10 32  1  0  0  0  0
 10 33  1  0  0  0  0
 11 12  1  0  0  0  0
 12 34  1  0  0  0  0
 12 35  1  0  0  0  0
 12 36  1  0  0  0  0
 14 15  1  0  0  0  0
 14 37  1  0  0  0  0
 15 16  1  0  0  0  0
 15 38  1  0  0  0  0
 15 39  1  0  0  0  0
 16 21  2  0  0  0  0
 16 17  1  0  0  0  0
 17 18  2  0  0  0  0
 17 40  1  0  0  0  0
 18 19  1  0  0  0  0
 18 41  1  0  0  0  0
 19 20  2  0  0  0  0
 19 47  1  0  0  0  0
 20 21  1  0  0  0  0
 20 22  1  0  0  0  0
 21 42  1  0  0  0  0
 22 23  2  0  0  0  0
 22 26  1  0  0  0  0
 23 24  1  0  0  0  0
 24 25  1  0  0  0  0
 24 47  2  0  0  0  0
 25 43  1  0  0  0  0
 25 44  1  0  0  0  0
 26 45  1  0  0  0  0
 26 46  1  0  0  0  0
 47 48  1  0  0  0  0
M  CHG  1  47   1
M  END
$$$$
ZINC03814870
  -OEChem-08230709403D

 45 47  0     0  0  0  0  0  0999 V2000
    4.5316   -1.1858    1.8483 C   0  0  0  0  0  0  0  0  0  0  0  0
    4.0501   -2.5687    2.2041 C   0  0  0  0  0  0  0  0  0  0  0  0
    3.7825   -3.4621    1.2411 C   0  0  0  0  0  0  0  0  0  0  0  0
    3.2676   -4.9090    2.1466 S   0  0  0  0  0  0  0  0  0  0  0  0
    3.4184   -4.2718    3.7946 C   0  0  0  0  0  0  0  0  0  0  0  0
    3.8662   -2.9478    3.5950 C   0  0  0  0  0  0  0  0  0  0  0  0
    4.0761   -2.1876    4.7787 C   0  0  0  0  0  0  0  0  0  0  0  0
    3.8472   -2.7455    5.9557 N   0  0  0  0  0  0  0  0  0  0  0  0
    3.4256   -3.9985    6.0723 C   0  0  0  0  0  0  0  0  0  0  0  0
    3.2132   -4.7549    5.0043 N   0  0  0  0  0  0  0  0  0  0  0  0
    3.2037   -4.5262    7.3336 N   0  0  0  0  0  0  0  0  0  0  0  0
    4.5145   -0.8783    4.6996 N   0  0  0  0  0  0  0  0  0  0  0  0
    3.8960   -3.2871   -0.2513 C   0  0  0  0  0  0  0  0  0  0  0  0
    2.6274   -2.6713   -0.7829 C   0  0  0  0  0  0  0  0  0  0  0  0
    2.5418   -1.3010   -0.9462 C   0  0  0  0  0  0  0  0  0  0  0  0
    1.3766   -0.7307   -1.4349 C   0  0  0  0  0  0  0  0  0  0  0  0
    0.2910   -1.5376   -1.7556 C   0  0  0  0  0  0  0  0  0  0  0  0
    0.3821   -2.9146   -1.5948 C   0  0  0  0  0  0  0  0  0  0  0  0
    1.5519   -3.4781   -1.1056 C   0  0  0  0  0  0  0  0  0  0  0  0
    1.6751   -5.3515   -0.8793 Br  0  0  0  0  0  0  0  0  0  0  0  0
   -0.6756   -3.7088   -1.9121 O   0  0  0  0  0  0  0  0  0  0  0  0
   -1.6222   -3.9735   -0.8749 C   0  0  0  0  0  0  0  0  0  0  0  0
   -0.8564   -0.9806   -2.2303 O   0  0  0  0  0  0  0  0  0  0  0  0
   -0.9665   -0.8297   -3.6470 C   0  0  0  0  0  0  0  0  0  0  0  0
    1.2937    0.6174   -1.5951 O   0  0  0  0  0  0  0  0  0  0  0  0
    2.4454    1.3850   -1.2398 C   0  0  0  0  0  0  0  0  0  0  0  0
    3.6840   -0.5009    1.8244 H   0  0  0  0  0  0  0  0  0  0  0  0
    5.2506   -0.8482    2.5947 H   0  0  0  0  0  0  0  0  0  0  0  0
    5.0085   -1.2080    0.8684 H   0  0  0  0  0  0  0  0  0  0  0  0
    2.8958   -5.4411    7.4293 H   0  0  0  0  0  0  0  0  0  0  0  0
    3.3561   -3.9809    8.1212 H   0  0  0  0  0  0  0  0  0  0  0  0
    4.8782   -0.4403    5.4849 H   0  0  0  0  0  0  0  0  0  0  0  0
    4.4584   -0.3981    3.8587 H   0  0  0  0  0  0  0  0  0  0  0  0
    4.0526   -4.2585   -0.7202 H   0  0  0  0  0  0  0  0  0  0  0  0
    4.7392   -2.6344   -0.4775 H   0  0  0  0  0  0  0  0  0  0  0  0
    3.3840   -0.6741   -0.6931 H   0  0  0  0  0  0  0  0  0  0  0  0
   -1.1214   -4.4708   -0.0442 H   0  0  0  0  0  0  0  0  0  0  0  0
   -2.0544   -3.0345   -0.5290 H   0  0  0  0  0  0  0  0  0  0  0  0
   -2.4129   -4.6173   -1.2603 H   0  0  0  0  0  0  0  0  0  0  0  0
   -0.1599   -0.1916   -4.0082 H   0  0  0  0  0  0  0  0  0  0  0  0
   -0.8970   -1.8077   -4.1231 H   0  0  0  0  0  0  0  0  0  0  0  0
   -1.9265   -0.3745   -3.8904 H   0  0  0  0  0  0  0  0  0  0  0  0
    3.2938    1.0696   -1.8471 H   0  0  0  0  0  0  0  0  0  0  0  0
    2.2459    2.4421   -1.4155 H   0  0  0  0  0  0  0  0  0  0  0  0
    2.6750    1.2289   -0.1857 H   0  0  0  0  0  0  0  0  0  0  0  0
  1  2  1  0  0  0  0
  1 27  1  0  0  0  0
  1 28  1  0  0  0  0
  1 29  1  0  0  0  0
  2  6  1  0  0  0  0
  2  3  2  0  0  0  0
  3  4  1  0  0  0  0
  3 13  1  0  0  0  0
  4  5  1  0  0  0  0
  5 10  2  0  0  0  0
  5  6  1  0  0  0  0
  6  7  2  0  0  0  0
  7  8  1  0  0  0  0
  7 12  1  0  0  0  0
  8  9  2  0  0  0  0
  9 10  1  0  0  0  0
  9 11  1  0  0  0  0
 11 30  1  0  0  0  0
 11 31  1  0  0  0  0
 12 32  1  0  0  0  0
 12 33  1  0  0  0  0
 13 14  1  0  0  0  0
 13 34  1  0  0  0  0
 13 35  1  0  0  0  0
 14 19  2  0  0  0  0
 14 15  1  0  0  0  0
 15 16  2  0  0  0  0
 15 36  1  0  0  0  0
 16 17  1  0  0  0  0
 16 25  1  0  0  0  0
 17 18  2  0  0  0  0
 17 23  1  0  0  0  0
 18 19  1  0  0  0  0
 18 21  1  0  0  0  0
 19 20  1  0  0  0  0
 21 22  1  0  0  0  0
 22 37  1  0  0  0  0
 22 38  1  0  0  0  0
 22 39  1  0  0  0  0
 23 24  1  0  0  0  0
 24 40  1  0  0  0  0
 24 41  1  0  0  0  0
 24 42  1  0  0  0  0
 25 26  1  0  0  0  0
 26 43  1  0  0  0  0
 26 44  1  0  0  0  0
 26 45  1  0  0  0  0
M  END
$$$$
ZINC03814870
  -OEChem-08230709403D

 46 48  0     0  0  0  0  0  0999 V2000
    4.5316   -1.1858    1.8483 C   0  0  0  0  0  0  0  0  0  0  0  0
    4.0501   -2.5687    2.2041 C   0  0  0  0  0  0  0  0  0  0  0  0
    3.7825   -3.4621    1.2411 C   0  0  0  0  0  0  0  0  0  0  0  0
    3.2676   -4.9090    2.1466 S   0  0  0  0  0  0  0  0  0  0  0  0
    3.4184   -4.2718    3.7946 C   0  0  0  0  0  0  0  0  0  0  0  0
    3.8662   -2.9478    3.5950 C   0  0  0  0  0  0  0  0  0  0  0  0
    4.0761   -2.1876    4.7787 C   0  0  0  0  0  0  0  0  0  0  0  0
    3.8472   -2.7455    5.9557 N   0  0  0  0  0  0  0  0  0  0  0  0
    3.4256   -3.9985    6.0723 C   0  0  0  0  0  0  0  0  0  0  0  0
    3.2037   -4.5262    7.3336 N   0  0  0  0  0  0  0  0  0  0  0  0
    4.5145   -0.8783    4.6996 N   0  0  0  0  0  0  0  0  0  0  0  0
    3.8960   -3.2871   -0.2513 C   0  0  0  0  0  0  0  0  0  0  0  0
    2.6274   -2.6713   -0.7829 C   0  0  0  0  0  0  0  0  0  0  0  0
    2.5418   -1.3010   -0.9462 C   0  0  0  0  0  0  0  0  0  0  0  0
    1.3766   -0.7307   -1.4349 C   0  0  0  0  0  0  0  0  0  0  0  0
    0.2910   -1.5376   -1.7556 C   0  0  0  0  0  0  0  0  0  0  0  0
    0.3821   -2.9146   -1.5948 C   0  0  0  0  0  0  0  0  0  0  0  0
    1.5519   -3.4781   -1.1056 C   0  0  0  0  0  0  0  0  0  0  0  0
    1.6751   -5.3515   -0.8793 Br  0  0  0  0  0  0  0  0  0  0  0  0
   -0.6756   -3.7088   -1.9121 O   0  0  0  0  0  0  0  0  0  0  0  0
   -1.6222   -3.9735   -0.8749 C   0  0  0  0  0  0  0  0  0  0  0  0
   -0.8564   -0.9806   -2.2303 O   0  0  0  0  0  0  0  0  0  0  0  0
   -0.9665   -0.8297   -3.6470 C   0  0  0  0  0  0  0  0  0  0  0  0
    1.2937    0.6174   -1.5951 O   0  0  0  0  0  0  0  0  0  0  0  0
    2.4454    1.3850   -1.2398 C   0  0  0  0  0  0  0  0  0  0  0  0
    3.6840   -0.5009    1.8244 H   0  0  0  0  0  0  0  0  0  0  0  0
    5.2506   -0.8482    2.5947 H   0  0  0  0  0  0  0  0  0  0  0  0
    5.0085   -1.2080    0.8684 H   0  0  0  0  0  0  0  0  0  0  0  0
    2.8958   -5.4411    7.4293 H   0  0  0  0  0  0  0  0  0  0  0  0
    3.3561   -3.9809    8.1212 H   0  0  0  0  0  0  0  0  0  0  0  0
    4.8782   -0.4403    5.4849 H   0  0  0  0  0  0  0  0  0  0  0  0
    4.4584   -0.3981    3.8587 H   0  0  0  0  0  0  0  0  0  0  0  0
    4.0526   -4.2585   -0.7202 H   0  0  0  0  0  0  0  0  0  0  0  0
    4.7392   -2.6344   -0.4775 H   0  0  0  0  0  0  0  0  0  0  0  0
    3.3840   -0.6741   -0.6931 H   0  0  0  0  0  0  0  0  0  0  0  0
   -1.1214   -4.4708   -0.0442 H   0  0  0  0  0  0  0  0  0  0  0  0
   -2.0544   -3.0345   -0.5290 H   0  0  0  0  0  0  0  0  0  0  0  0
   -2.4129   -4.6173   -1.2603 H   0  0  0  0  0  0  0  0  0  0  0  0
   -0.1599   -0.1916   -4.0082 H   0  0  0  0  0  0  0  0  0  0  0  0
   -0.8970   -1.8077   -4.1231 H   0  0  0  0  0  0  0  0  0  0  0  0
   -1.9265   -0.3745   -3.8904 H   0  0  0  0  0  0  0  0  0  0  0  0
    3.2938    1.0696   -1.8471 H   0  0  0  0  0  0  0  0  0  0  0  0
    2.2459    2.4421   -1.4155 H   0  0  0  0  0  0  0  0  0  0  0  0
    2.6750    1.2289   -0.1857 H   0  0  0  0  0  0  0  0  0  0  0  0
    3.1909   -4.8212    5.0121 N   0  3  0  0  0  0  0  0  0  0  0  0
    2.8736   -5.7669    5.0825 H   0  0  0  0  0  0  0  0  0  0  0  0
  1  2  1  0  0  0  0
  1 26  1  0  0  0  0
  1 27  1  0  0  0  0
  1 28  1  0  0  0  0
  2  6  1  0  0  0  0
  2  3  2  0  0  0  0
  3  4  1  0  0  0  0
  3 12  1  0  0  0  0
  4  5  1  0  0  0  0
  5  6  2  0  0  0  0
  5 45  1  0  0  0  0
  6  7  1  0  0  0  0
  7  8  2  0  0  0  0
  7 11  1  0  0  0  0
  8  9  1  0  0  0  0
  9 10  1  0  0  0  0
  9 45  2  0  0  0  0
 10 29  1  0  0  0  0
 10 30  1  0  0  0  0
 11 31  1  0  0  0  0
 11 32  1  0  0  0  0
 12 13  1  0  0  0  0
 12 33  1  0  0  0  0
 12 34  1  0  0  0  0
 13 18  2  0  0  0  0
 13 14  1  0  0  0  0
 14 15  2  0  0  0  0
 14 35  1  0  0  0  0
 15 16  1  0  0  0  0
 15 24  1  0  0  0  0
 16 17  2  0  0  0  0
 16 22  1  0  0  0  0
 17 18  1  0  0  0  0
 17 20  1  0  0  0  0
 18 19  1  0  0  0  0
 20 21  1  0  0  0  0
 21 36  1  0  0  0  0
 21 37  1  0  0  0  0
 21 38  1  0  0  0  0
 22 23  1  0  0  0  0
 23 39  1  0  0  0  0
 23 40  1  0  0  0  0
 23 41  1  0  0  0  0
 24 25  1  0  0  0  0
 25 42  1  0  0  0  0
 25 43  1  0  0  0  0
 25 44  1  0  0  0  0
 45 46  1  0  0  0  0
M  CHG  1  45   1
M  END
$$$$
ZINC03814871
  -OEChem-08230709403D

 47 49  0     0  0  0  0  0  0999 V2000
    4.6543   -1.0446    1.3078 C   0  0  0  0  0  0  0  0  0  0  0  0
    4.1258   -0.9315    2.6306 O   0  0  0  0  0  0  0  0  0  0  0  0
    2.8895   -0.3787    2.7564 C   0  0  0  0  0  0  0  0  0  0  0  0
    2.1991    0.0395    1.6292 C   0  0  0  0  0  0  0  0  0  0  0  0
    0.9396    0.6084    1.7576 C   0  0  0  0  0  0  0  0  0  0  0  0
    0.3652    0.7489    3.0145 C   0  0  0  0  0  0  0  0  0  0  0  0
    1.0523    0.3259    4.1420 C   0  0  0  0  0  0  0  0  0  0  0  0
    2.3158   -0.2387    4.0141 C   0  0  0  0  0  0  0  0  0  0  0  0
    2.9912   -0.6548    5.1211 O   0  0  0  0  0  0  0  0  0  0  0  0
    3.8447    0.2987    5.7570 C   0  0  0  0  0  0  0  0  0  0  0  0
    0.4902    0.4638    5.3728 O   0  0  0  0  0  0  0  0  0  0  0  0
   -0.2228   -0.6614    5.8901 C   0  0  0  0  0  0  0  0  0  0  0  0
   -1.3537    1.5176    3.1879 Br  0  0  0  0  0  0  0  0  0  0  0  0
    0.2457    1.0356    0.6197 N   0  0  0  0  0  0  0  0  0  0  0  0
    0.8512    0.8876   -0.7060 C   0  0  0  0  0  0  0  0  0  0  0  0
   -0.0937    1.4204   -1.7522 C   0  0  0  0  0  0  0  0  0  0  0  0
   -0.8742    0.5339   -2.4874 C   0  0  0  0  0  0  0  0  0  0  0  0
   -1.7427    0.9836   -3.4377 C   0  0  0  0  0  0  0  0  0  0  0  0
   -1.8450    2.3587   -3.6874 C   0  0  0  0  0  0  0  0  0  0  0  0
   -1.0462    3.2600   -2.9423 C   0  0  0  0  0  0  0  0  0  0  0  0
   -0.1682    2.7665   -1.9697 C   0  0  0  0  0  0  0  0  0  0  0  0
    0.8177    3.8576   -1.0471 Cl  0  0  0  0  0  0  0  0  0  0  0  0
   -1.1670    4.6456   -3.2117 C   0  0  0  0  0  0  0  0  0  0  0  0
   -2.0212    5.0317   -4.1483 N   0  0  0  0  0  0  0  0  0  0  0  0
   -2.7532    4.1512   -4.8248 C   0  0  0  0  0  0  0  0  0  0  0  0
   -2.6803    2.8506   -4.6144 N   0  0  0  0  0  0  0  0  0  0  0  0
   -3.6271    4.6183   -5.7897 N   0  0  0  0  0  0  0  0  0  0  0  0
   -0.4149    5.5686   -2.5173 N   0  0  0  0  0  0  0  0  0  0  0  0
    3.9928   -1.6660    0.7041 H   0  0  0  0  0  0  0  0  0  0  0  0
    4.7298   -0.0533    0.8607 H   0  0  0  0  0  0  0  0  0  0  0  0
    5.6434   -1.5007    1.3494 H   0  0  0  0  0  0  0  0  0  0  0  0
    2.6433   -0.0735    0.6513 H   0  0  0  0  0  0  0  0  0  0  0  0
    4.6546    0.5700    5.0798 H   0  0  0  0  0  0  0  0  0  0  0  0
    3.2694    1.1892    6.0105 H   0  0  0  0  0  0  0  0  0  0  0  0
    4.2612   -0.1356    6.6658 H   0  0  0  0  0  0  0  0  0  0  0  0
   -0.9884   -0.9658    5.1764 H   0  0  0  0  0  0  0  0  0  0  0  0
    0.4701   -1.4867    6.0537 H   0  0  0  0  0  0  0  0  0  0  0  0
   -0.6941   -0.3899    6.8347 H   0  0  0  0  0  0  0  0  0  0  0  0
   -0.6362    1.4296    0.7089 H   0  0  0  0  0  0  0  0  0  0  0  0
    1.0500   -0.1666   -0.8991 H   0  0  0  0  0  0  0  0  0  0  0  0
    1.7864    1.4463   -0.7427 H   0  0  0  0  0  0  0  0  0  0  0  0
   -0.7939   -0.5266   -2.2998 H   0  0  0  0  0  0  0  0  0  0  0  0
   -2.3451    0.2836   -3.9976 H   0  0  0  0  0  0  0  0  0  0  0  0
   -4.1704    3.9937   -6.2952 H   0  0  0  0  0  0  0  0  0  0  0  0
   -3.6968    5.5705   -5.9608 H   0  0  0  0  0  0  0  0  0  0  0  0
    0.5233    5.3961   -2.3413 H   0  0  0  0  0  0  0  0  0  0  0  0
   -0.8238    6.3908   -2.2045 H   0  0  0  0  0  0  0  0  0  0  0  0
  1  2  1  0  0  0  0
  1 29  1  0  0  0  0
  1 30  1  0  0  0  0
  1 31  1  0  0  0  0
  2  3  1  0  0  0  0
  3  8  2  0  0  0  0
  3  4  1  0  0  0  0
  4  5  2  0  0  0  0
  4 32  1  0  0  0  0
  5  6  1  0  0  0  0
  5 14  1  0  0  0  0
  6  7  2  0  0  0  0
  6 13  1  0  0  0  0
  7  8  1  0  0  0  0
  7 11  1  0  0  0  0
  8  9  1  0  0  0  0
  9 10  1  0  0  0  0
 10 33  1  0  0  0  0
 10 34  1  0  0  0  0
 10 35  1  0  0  0  0
 11 12  1  0  0  0  0
 12 36  1  0  0  0  0
 12 37  1  0  0  0  0
 12 38  1  0  0  0  0
 14 15  1  0  0  0  0
 14 39  1  0  0  0  0
 15 16  1  0  0  0  0
 15 40  1  0  0  0  0
 15 41  1  0  0  0  0
 16 21  2  0  0  0  0
 16 17  1  0  0  0  0
 17 18  2  0  0  0  0
 17 42  1  0  0  0  0
 18 19  1  0  0  0  0
 18 43  1  0  0  0  0
 19 26  2  0  0  0  0
 19 20  1  0  0  0  0
 20 21  1  0  0  0  0
 20 23  2  0  0  0  0
 21 22  1  0  0  0  0
 23 24  1  0  0  0  0
 23 28  1  0  0  0  0
 24 25  2  0  0  0  0
 25 26  1  0  0  0  0
 25 27  1  0  0  0  0
 27 44  1  0  0  0  0
 27 45  1  0  0  0  0
 28 46  1  0  0  0  0
 28 47  1  0  0  0  0
M  END
$$$$
ZINC03814871
  -OEChem-08230709403D

 48 50  0     0  0  0  0  0  0999 V2000
    4.6543   -1.0446    1.3078 C   0  0  0  0  0  0  0  0  0  0  0  0
    4.1258   -0.9315    2.6306 O   0  0  0  0  0  0  0  0  0  0  0  0
    2.8895   -0.3787    2.7564 C   0  0  0  0  0  0  0  0  0  0  0  0
    2.1991    0.0395    1.6292 C   0  0  0  0  0  0  0  0  0  0  0  0
    0.9396    0.6084    1.7576 C   0  0  0  0  0  0  0  0  0  0  0  0
    0.3652    0.7489    3.0145 C   0  0  0  0  0  0  0  0  0  0  0  0
    1.0523    0.3259    4.1420 C   0  0  0  0  0  0  0  0  0  0  0  0
    2.3158   -0.2387    4.0141 C   0  0  0  0  0  0  0  0  0  0  0  0
    2.9912   -0.6548    5.1211 O   0  0  0  0  0  0  0  0  0  0  0  0
    3.8447    0.2987    5.7570 C   0  0  0  0  0  0  0  0  0  0  0  0
    0.4902    0.4638    5.3728 O   0  0  0  0  0  0  0  0  0  0  0  0
   -0.2228   -0.6614    5.8901 C   0  0  0  0  0  0  0  0  0  0  0  0
   -1.3537    1.5176    3.1879 Br  0  0  0  0  0  0  0  0  0  0  0  0
    0.2457    1.0356    0.6197 N   0  0  0  0  0  0  0  0  0  0  0  0
    0.8512    0.8876   -0.7060 C   0  0  0  0  0  0  0  0  0  0  0  0
   -0.0937    1.4204   -1.7522 C   0  0  0  0  0  0  0  0  0  0  0  0
   -0.8742    0.5339   -2.4874 C   0  0  0  0  0  0  0  0  0  0  0  0
   -1.7427    0.9836   -3.4377 C   0  0  0  0  0  0  0  0  0  0  0  0
   -1.8450    2.3587   -3.6874 C   0  0  0  0  0  0  0  0  0  0  0  0
   -1.0462    3.2600   -2.9423 C   0  0  0  0  0  0  0  0  0  0  0  0
   -0.1682    2.7665   -1.9697 C   0  0  0  0  0  0  0  0  0  0  0  0
    0.8177    3.8576   -1.0471 Cl  0  0  0  0  0  0  0  0  0  0  0  0
   -1.1670    4.6456   -3.2117 C   0  0  0  0  0  0  0  0  0  0  0  0
   -2.0212    5.0317   -4.1483 N   0  0  0  0  0  0  0  0  0  0  0  0
   -2.7532    4.1512   -4.8248 C   0  0  0  0  0  0  0  0  0  0  0  0
   -3.6271    4.6183   -5.7897 N   0  0  0  0  0  0  0  0  0  0  0  0
   -0.4149    5.5686   -2.5173 N   0  0  0  0  0  0  0  0  0  0  0  0
    3.9928   -1.6660    0.7041 H   0  0  0  0  0  0  0  0  0  0  0  0
    4.7298   -0.0533    0.8607 H   0  0  0  0  0  0  0  0  0  0  0  0
    5.6434   -1.5007    1.3494 H   0  0  0  0  0  0  0  0  0  0  0  0
    2.6433   -0.0735    0.6513 H   0  0  0  0  0  0  0  0  0  0  0  0
    4.6546    0.5700    5.0798 H   0  0  0  0  0  0  0  0  0  0  0  0
    3.2694    1.1892    6.0105 H   0  0  0  0  0  0  0  0  0  0  0  0
    4.2612   -0.1356    6.6658 H   0  0  0  0  0  0  0  0  0  0  0  0
   -0.9884   -0.9658    5.1764 H   0  0  0  0  0  0  0  0  0  0  0  0
    0.4701   -1.4867    6.0537 H   0  0  0  0  0  0  0  0  0  0  0  0
   -0.6941   -0.3899    6.8347 H   0  0  0  0  0  0  0  0  0  0  0  0
   -0.6362    1.4296    0.7089 H   0  0  0  0  0  0  0  0  0  0  0  0
    1.0500   -0.1666   -0.8991 H   0  0  0  0  0  0  0  0  0  0  0  0
    1.7864    1.4463   -0.7427 H   0  0  0  0  0  0  0  0  0  0  0  0
   -0.7939   -0.5266   -2.2998 H   0  0  0  0  0  0  0  0  0  0  0  0
   -2.3451    0.2836   -3.9976 H   0  0  0  0  0  0  0  0  0  0  0  0
   -4.1704    3.9937   -6.2952 H   0  0  0  0  0  0  0  0  0  0  0  0
   -3.6968    5.5705   -5.9608 H   0  0  0  0  0  0  0  0  0  0  0  0
    0.5233    5.3961   -2.3413 H   0  0  0  0  0  0  0  0  0  0  0  0
   -0.8238    6.3908   -2.2045 H   0  0  0  0  0  0  0  0  0  0  0  0
   -2.7211    2.8064   -4.6527 N   0  3  0  0  0  0  0  0  0  0  0  0
   -3.2755    2.1521   -5.1670 H   0  0  0  0  0  0  0  0  0  0  0  0
  1  2  1  0  0  0  0
  1 28  1  0  0  0  0
  1 29  1  0  0  0  0
  1 30  1  0  0  0  0
  2  3  1  0  0  0  0
  3  8  2  0  0  0  0
  3  4  1  0  0  0  0
  4  5  2  0  0  0  0
  4 31  1  0  0  0  0
  5  6  1  0  0  0  0
  5 14  1  0  0  0  0
  6  7  2  0  0  0  0
  6 13  1  0  0  0  0
  7  8  1  0  0  0  0
  7 11  1  0  0  0  0
  8  9  1  0  0  0  0
  9 10  1  0  0  0  0
 10 32  1  0  0  0  0
 10 33  1  0  0  0  0
 10 34  1  0  0  0  0
 11 12  1  0  0  0  0
 12 35  1  0  0  0  0
 12 36  1  0  0  0  0
 12 37  1  0  0  0  0
 14 15  1  0  0  0  0
 14 38  1  0  0  0  0
 15 16  1  0  0  0  0
 15 39  1  0  0  0  0
 15 40  1  0  0  0  0
 16 21  2  0  0  0  0
 16 17  1  0  0  0  0
 17 18  2  0  0  0  0
 17 41  1  0  0  0  0
 18 19  1  0  0  0  0
 18 42  1  0  0  0  0
 19 20  2  0  0  0  0
 19 47  1  0  0  0  0
 20 21  1  0  0  0  0
 20 23  1  0  0  0  0
 21 22  1  0  0  0  0
 23 24  2  0  0  0  0
 23 27  1  0  0  0  0
 24 25  1  0  0  0  0
 25 26  1  0  0  0  0
 25 47  2  0  0  0  0
 26 43  1  0  0  0  0
 26 44  1  0  0  0  0
 27 45  1  0  0  0  0
 27 46  1  0  0  0  0
 47 48  1  0  0  0  0
M  CHG  1  47   1
M  END
$$$$
ZINC03814872
  -OEChem-08230709403D

 46 50  0     0  0  0  0  0  0999 V2000
    2.0698   -0.2843   -0.7476 C   0  0  0  0  0  0  0  0  0  0  0  0
    0.6929    0.2359   -0.8059 C   0  0  0  0  0  0  0  0  0  0  0  0
    0.4566    1.4962   -0.5188 C   0  0  0  0  0  0  0  0  0  0  0  0
    1.5653    2.3954   -0.1365 C   0  0  0  0  0  0  0  0  0  0  0  0
    2.7901    1.9301   -0.0803 C   0  0  0  0  0  0  0  0  0  0  0  0
    3.0561    0.5142   -0.4060 C   0  0  0  0  0  0  0  0  0  0  0  0
    3.9112    2.7908    0.3128 C   0  0  0  0  0  0  0  0  0  0  0  0
    4.0547    4.0267   -0.0369 C   0  0  0  0  0  0  0  0  0  0  0  0
    3.1202    4.7727   -0.8871 C   0  0  0  0  0  0  0  0  0  0  0  0
    3.6605    5.7209   -1.8823 C   0  0  0  0  0  0  0  0  0  0  0  0
    2.8473    6.4172   -2.6445 C   0  0  0  0  0  0  0  0  0  0  0  0
    1.3904    6.2502   -2.5053 C   0  0  0  0  0  0  0  0  0  0  0  0
    0.9099    5.4032   -1.6232 C   0  0  0  0  0  0  0  0  0  0  0  0
    1.8237    4.6168   -0.7684 C   0  0  0  0  0  0  0  0  0  0  0  0
    1.2806    3.7254    0.1490 N   0  0  0  0  0  0  0  0  0  0  0  0
   -0.1663    3.9347    0.2933 C   0  0  0  0  0  0  0  0  0  0  0  0
   -0.6327    3.3383    1.5963 C   0  0  0  0  0  0  0  0  0  0  0  0
   -0.4868    4.0406    2.7641 C   0  0  0  0  0  0  0  0  0  0  0  0
   -0.9347    3.4463    3.9493 C   0  0  0  0  0  0  0  0  0  0  0  0
   -0.8270    4.0947    5.2046 C   0  0  0  0  0  0  0  0  0  0  0  0
   -1.2769    3.4615    6.2785 N   0  0  0  0  0  0  0  0  0  0  0  0
   -1.8160    2.2490    6.1902 C   0  0  0  0  0  0  0  0  0  0  0  0
   -1.9398    1.6018    5.0467 N   0  0  0  0  0  0  0  0  0  0  0  0
   -1.5161    2.1552    3.9014 C   0  0  0  0  0  0  0  0  0  0  0  0
   -1.6298    1.5231    2.7331 N   0  0  0  0  0  0  0  0  0  0  0  0
   -1.2166    2.0777    1.6153 C   0  0  0  0  0  0  0  0  0  0  0  0
   -2.2665    1.6404    7.3460 N   0  0  0  0  0  0  0  0  0  0  0  0
   -0.2697    5.3504    5.3060 N   0  0  0  0  0  0  0  0  0  0  0  0
    2.2682   -1.3189   -0.9852 H   0  0  0  0  0  0  0  0  0  0  0  0
   -0.1209   -0.4172   -1.0845 H   0  0  0  0  0  0  0  0  0  0  0  0
   -0.5525    1.8780   -0.5667 H   0  0  0  0  0  0  0  0  0  0  0  0
    4.0658    0.1334   -0.3635 H   0  0  0  0  0  0  0  0  0  0  0  0
    4.6744    2.3592    0.9434 H   0  0  0  0  0  0  0  0  0  0  0  0
    4.9281    4.5497    0.3236 H   0  0  0  0  0  0  0  0  0  0  0  0
    4.7288    5.8428   -1.9839 H   0  0  0  0  0  0  0  0  0  0  0  0
    3.2461    7.1098   -3.3710 H   0  0  0  0  0  0  0  0  0  0  0  0
    0.7184    6.8232   -3.1270 H   0  0  0  0  0  0  0  0  0  0  0  0
   -0.1584    5.2808   -1.5226 H   0  0  0  0  0  0  0  0  0  0  0  0
   -0.3814    5.0033    0.2852 H   0  0  0  0  0  0  0  0  0  0  0  0
   -0.6874    3.4529   -0.5340 H   0  0  0  0  0  0  0  0  0  0  0  0
   -0.0399    5.0237    2.7694 H   0  0  0  0  0  0  0  0  0  0  0  0
   -1.3295    1.5369    0.6874 H   0  0  0  0  0  0  0  0  0  0  0  0
   -2.6635    0.7563    7.3056 H   0  0  0  0  0  0  0  0  0  0  0  0
   -2.1857    2.0973    8.1979 H   0  0  0  0  0  0  0  0  0  0  0  0
    0.0553    5.8024    4.5117 H   0  0  0  0  0  0  0  0  0  0  0  0
   -0.2023    5.7826    6.1718 H   0  0  0  0  0  0  0  0  0  0  0  0
  1  6  2  0  0  0  0
  1  2  1  0  0  0  0
  1 29  1  0  0  0  0
  2  3  2  0  0  0  0
  2 30  1  0  0  0  0
  3  4  1  0  0  0  0
  3 31  1  0  0  0  0
  4 15  1  0  0  0  0
  4  5  2  0  0  0  0
  5  6  1  0  0  0  0
  5  7  1  0  0  0  0
  6 32  1  0  0  0  0
  7  8  2  0  0  0  0
  7 33  1  0  0  0  0
  8  9  1  0  0  0  0
  8 34  1  0  0  0  0
  9 14  2  0  0  0  0
  9 10  1  0  0  0  0
 10 11  2  0  0  0  0
 10 35  1  0  0  0  0
 11 12  1  0  0  0  0
 11 36  1  0  0  0  0
 12 13  2  0  0  0  0
 12 37  1  0  0  0  0
 13 14  1  0  0  0  0
 13 38  1  0  0  0  0
 14 15  1  0  0  0  0
 15 16  1  0  0  0  0
 16 17  1  0  0  0  0
 16 39  1  0  0  0  0
 16 40  1  0  0  0  0
 17 26  2  0  0  0  0
 17 18  1  0  0  0  0
 18 19  2  0  0  0  0
 18 41  1  0  0  0  0
 19 24  1  0  0  0  0
 19 20  1  0  0  0  0
 20 21  2  0  0  0  0
 20 28  1  0  0  0  0
 21 22  1  0  0  0  0
 22 23  2  0  0  0  0
 22 27  1  0  0  0  0
 23 24  1  0  0  0  0
 24 25  2  0  0  0  0
 25 26  1  0  0  0  0
 26 42  1  0  0  0  0
 27 43  1  0  0  0  0
 27 44  1  0  0  0  0
 28 45  1  0  0  0  0
 28 46  1  0  0  0  0
M  END
$$$$
ZINC03814872
  -OEChem-08230709403D

 47 51  0     0  0  0  0  0  0999 V2000
    2.0698   -0.2843   -0.7476 C   0  0  0  0  0  0  0  0  0  0  0  0
    0.6929    0.2359   -0.8059 C   0  0  0  0  0  0  0  0  0  0  0  0
    0.4566    1.4962   -0.5188 C   0  0  0  0  0  0  0  0  0  0  0  0
    1.5653    2.3954   -0.1365 C   0  0  0  0  0  0  0  0  0  0  0  0
    2.7901    1.9301   -0.0803 C   0  0  0  0  0  0  0  0  0  0  0  0
    3.0561    0.5142   -0.4060 C   0  0  0  0  0  0  0  0  0  0  0  0
    3.9112    2.7908    0.3128 C   0  0  0  0  0  0  0  0  0  0  0  0
    4.0547    4.0267   -0.0369 C   0  0  0  0  0  0  0  0  0  0  0  0
    3.1202    4.7727   -0.8871 C   0  0  0  0  0  0  0  0  0  0  0  0
    3.6605    5.7209   -1.8823 C   0  0  0  0  0  0  0  0  0  0  0  0
    2.8473    6.4172   -2.6445 C   0  0  0  0  0  0  0  0  0  0  0  0
    1.3904    6.2502   -2.5053 C   0  0  0  0  0  0  0  0  0  0  0  0
    0.9099    5.4032   -1.6232 C   0  0  0  0  0  0  0  0  0  0  0  0
    1.8237    4.6168   -0.7684 C   0  0  0  0  0  0  0  0  0  0  0  0
    1.2806    3.7254    0.1490 N   0  0  0  0  0  0  0  0  0  0  0  0
   -0.1663    3.9347    0.2933 C   0  0  0  0  0  0  0  0  0  0  0  0
   -0.6327    3.3383    1.5963 C   0  0  0  0  0  0  0  0  0  0  0  0
   -0.4868    4.0406    2.7641 C   0  0  0  0  0  0  0  0  0  0  0  0
   -0.9347    3.4463    3.9493 C   0  0  0  0  0  0  0  0  0  0  0  0
   -0.8270    4.0947    5.2046 C   0  0  0  0  0  0  0  0  0  0  0  0
   -1.2769    3.4615    6.2785 N   0  0  0  0  0  0  0  0  0  0  0  0
   -1.8160    2.2490    6.1902 C   0  0  0  0  0  0  0  0  0  0  0  0
   -1.5161    2.1552    3.9014 C   0  0  0  0  0  0  0  0  0  0  0  0
   -1.6298    1.5231    2.7331 N   0  0  0  0  0  0  0  0  0  0  0  0
   -1.2166    2.0777    1.6153 C   0  0  0  0  0  0  0  0  0  0  0  0
   -2.2665    1.6404    7.3460 N   0  0  0  0  0  0  0  0  0  0  0  0
   -0.2697    5.3504    5.3060 N   0  0  0  0  0  0  0  0  0  0  0  0
    2.2682   -1.3189   -0.9852 H   0  0  0  0  0  0  0  0  0  0  0  0
   -0.1209   -0.4172   -1.0845 H   0  0  0  0  0  0  0  0  0  0  0  0
   -0.5525    1.8780   -0.5667 H   0  0  0  0  0  0  0  0  0  0  0  0
    4.0658    0.1334   -0.3635 H   0  0  0  0  0  0  0  0  0  0  0  0
    4.6744    2.3592    0.9434 H   0  0  0  0  0  0  0  0  0  0  0  0
    4.9281    4.5497    0.3236 H   0  0  0  0  0  0  0  0  0  0  0  0
    4.7288    5.8428   -1.9839 H   0  0  0  0  0  0  0  0  0  0  0  0
    3.2461    7.1098   -3.3710 H   0  0  0  0  0  0  0  0  0  0  0  0
    0.7184    6.8232   -3.1270 H   0  0  0  0  0  0  0  0  0  0  0  0
   -0.1584    5.2808   -1.5226 H   0  0  0  0  0  0  0  0  0  0  0  0
   -0.3814    5.0033    0.2852 H   0  0  0  0  0  0  0  0  0  0  0  0
   -0.6874    3.4529   -0.5340 H   0  0  0  0  0  0  0  0  0  0  0  0
   -0.0399    5.0237    2.7694 H   0  0  0  0  0  0  0  0  0  0  0  0
   -1.3295    1.5369    0.6874 H   0  0  0  0  0  0  0  0  0  0  0  0
   -2.6635    0.7563    7.3056 H   0  0  0  0  0  0  0  0  0  0  0  0
   -2.1857    2.0973    8.1979 H   0  0  0  0  0  0  0  0  0  0  0  0
    0.0553    5.8024    4.5117 H   0  0  0  0  0  0  0  0  0  0  0  0
   -0.2023    5.7826    6.1718 H   0  0  0  0  0  0  0  0  0  0  0  0
   -1.9697    1.5361    5.0461 N   0  3  0  0  0  0  0  0  0  0  0  0
   -2.3878    0.6282    5.0751 H   0  0  0  0  0  0  0  0  0  0  0  0
  1  6  2  0  0  0  0
  1  2  1  0  0  0  0
  1 28  1  0  0  0  0
  2  3  2  0  0  0  0
  2 29  1  0  0  0  0
  3  4  1  0  0  0  0
  3 30  1  0  0  0  0
  4 15  1  0  0  0  0
  4  5  2  0  0  0  0
  5  6  1  0  0  0  0
  5  7  1  0  0  0  0
  6 31  1  0  0  0  0
  7  8  2  0  0  0  0
  7 32  1  0  0  0  0
  8  9  1  0  0  0  0
  8 33  1  0  0  0  0
  9 14  2  0  0  0  0
  9 10  1  0  0  0  0
 10 11  2  0  0  0  0
 10 34  1  0  0  0  0
 11 12  1  0  0  0  0
 11 35  1  0  0  0  0
 12 13  2  0  0  0  0
 12 36  1  0  0  0  0
 13 14  1  0  0  0  0
 13 37  1  0  0  0  0
 14 15  1  0  0  0  0
 15 16  1  0  0  0  0
 16 17  1  0  0  0  0
 16 38  1  0  0  0  0
 16 39  1  0  0  0  0
 17 25  2  0  0  0  0
 17 18  1  0  0  0  0
 18 19  2  0  0  0  0
 18 40  1  0  0  0  0
 19 23  1  0  0  0  0
 19 20  1  0  0  0  0
 20 21  2  0  0  0  0
 20 27  1  0  0  0  0
 21 22  1  0  0  0  0
 22 26  1  0  0  0  0
 22 46  2  0  0  0  0
 23 24  2  0  0  0  0
 23 46  1  0  0  0  0
 24 25  1  0  0  0  0
 25 41  1  0  0  0  0
 26 42  1  0  0  0  0
 26 43  1  0  0  0  0
 27 44  1  0  0  0  0
 27 45  1  0  0  0  0
 46 47  1  0  0  0  0
M  CHG  1  46   1
M  END
$$$$
ZINC03814873
  -OEChem-08230709403D

 46 50  0     0  0  0  0  0  0999 V2000
    0.6116    3.3464   -1.9781 C   0  0  0  0  0  0  0  0  0  0  0  0
    0.7351    2.2648   -0.9859 C   0  0  0  0  0  0  0  0  0  0  0  0
   -0.3123    1.5202   -0.6969 C   0  0  0  0  0  0  0  0  0  0  0  0
   -1.5951    1.7698   -1.3695 C   0  0  0  0  0  0  0  0  0  0  0  0
   -1.7182    2.7464   -2.2435 C   0  0  0  0  0  0  0  0  0  0  0  0
   -0.5401    3.5740   -2.5700 C   0  0  0  0  0  0  0  0  0  0  0  0
   -3.0065    3.0325   -2.8809 C   0  0  0  0  0  0  0  0  0  0  0  0
   -4.1511    2.9745   -2.2872 C   0  0  0  0  0  0  0  0  0  0  0  0
   -4.3379    2.6225   -0.8774 C   0  0  0  0  0  0  0  0  0  0  0  0
   -5.3239    3.3607   -0.0635 C   0  0  0  0  0  0  0  0  0  0  0  0
   -5.4685    3.0819    1.2132 C   0  0  0  0  0  0  0  0  0  0  0  0
   -4.6494    2.0307    1.8407 C   0  0  0  0  0  0  0  0  0  0  0  0
   -3.7751    1.3637    1.1157 C   0  0  0  0  0  0  0  0  0  0  0  0
   -3.6224    1.6723   -0.3129 C   0  0  0  0  0  0  0  0  0  0  0  0
   -2.7072    0.9547   -1.1010 N   0  0  0  0  0  0  0  0  0  0  0  0
   -2.2995   -0.2889   -0.4337 C   0  0  0  0  0  0  0  0  0  0  0  0
   -3.5212   -1.1114   -0.1142 C   0  0  0  0  0  0  0  0  0  0  0  0
   -4.4353   -1.3915   -1.1275 C   0  0  0  0  0  0  0  0  0  0  0  0
   -5.5470   -2.1398   -0.8575 C   0  0  0  0  0  0  0  0  0  0  0  0
   -5.7318   -2.5973    0.4584 C   0  0  0  0  0  0  0  0  0  0  0  0
   -4.7642   -2.2695    1.4378 C   0  0  0  0  0  0  0  0  0  0  0  0
   -3.7001   -1.5414    1.1129 N   0  0  0  0  0  0  0  0  0  0  0  0
   -4.9838   -2.7599    2.7993 C   0  0  0  0  0  0  0  0  0  0  0  0
   -6.0736   -3.4788    3.0277 N   0  0  0  0  0  0  0  0  0  0  0  0
   -6.9412   -3.7485    2.0573 C   0  0  0  0  0  0  0  0  0  0  0  0
   -6.7920   -3.3327    0.8157 N   0  0  0  0  0  0  0  0  0  0  0  0
   -8.0575   -4.5046    2.3665 N   0  0  0  0  0  0  0  0  0  0  0  0
   -4.0877   -2.4830    3.8099 N   0  0  0  0  0  0  0  0  0  0  0  0
    1.4705    3.9546   -2.2206 H   0  0  0  0  0  0  0  0  0  0  0  0
    1.6809    2.0827   -0.4974 H   0  0  0  0  0  0  0  0  0  0  0  0
   -0.2275    0.7253    0.0292 H   0  0  0  0  0  0  0  0  0  0  0  0
   -0.6245    4.3681   -3.2970 H   0  0  0  0  0  0  0  0  0  0  0  0
   -3.0007    3.3031   -3.9265 H   0  0  0  0  0  0  0  0  0  0  0  0
   -5.0320    3.2071   -2.8671 H   0  0  0  0  0  0  0  0  0  0  0  0
   -5.9279    4.1321   -0.5180 H   0  0  0  0  0  0  0  0  0  0  0  0
   -6.1909    3.6254    1.8040 H   0  0  0  0  0  0  0  0  0  0  0  0
   -4.7650    1.8080    2.8912 H   0  0  0  0  0  0  0  0  0  0  0  0
   -3.1716    0.5919    1.5702 H   0  0  0  0  0  0  0  0  0  0  0  0
   -1.6418   -0.8560   -1.0924 H   0  0  0  0  0  0  0  0  0  0  0  0
   -1.7711   -0.0496    0.4892 H   0  0  0  0  0  0  0  0  0  0  0  0
   -4.2637   -1.0208   -2.1273 H   0  0  0  0  0  0  0  0  0  0  0  0
   -6.2640   -2.3695   -1.6317 H   0  0  0  0  0  0  0  0  0  0  0  0
   -8.1915   -4.8236    3.2727 H   0  0  0  0  0  0  0  0  0  0  0  0
   -8.7064   -4.7159    1.6771 H   0  0  0  0  0  0  0  0  0  0  0  0
   -3.3324   -1.8981    3.6416 H   0  0  0  0  0  0  0  0  0  0  0  0
   -4.2126   -2.8731    4.6892 H   0  0  0  0  0  0  0  0  0  0  0  0
  1  6  2  0  0  0  0
  1  2  1  0  0  0  0
  1 29  1  0  0  0  0
  2  3  2  0  0  0  0
  2 30  1  0  0  0  0
  3  4  1  0  0  0  0
  3 31  1  0  0  0  0
  4 15  1  0  0  0  0
  4  5  2  0  0  0  0
  5  6  1  0  0  0  0
  5  7  1  0  0  0  0
  6 32  1  0  0  0  0
  7  8  2  0  0  0  0
  7 33  1  0  0  0  0
  8  9  1  0  0  0  0
  8 34  1  0  0  0  0
  9 14  2  0  0  0  0
  9 10  1  0  0  0  0
 10 11  2  0  0  0  0
 10 35  1  0  0  0  0
 11 12  1  0  0  0  0
 11 36  1  0  0  0  0
 12 13  2  0  0  0  0
 12 37  1  0  0  0  0
 13 14  1  0  0  0  0
 13 38  1  0  0  0  0
 14 15  1  0  0  0  0
 15 16  1  0  0  0  0
 16 17  1  0  0  0  0
 16 39  1  0  0  0  0
 16 40  1  0  0  0  0
 17 22  2  0  0  0  0
 17 18  1  0  0  0  0
 18 19  2  0  0  0  0
 18 41  1  0  0  0  0
 19 20  1  0  0  0  0
 19 42  1  0  0  0  0
 20 26  2  0  0  0  0
 20 21  1  0  0  0  0
 21 22  1  0  0  0  0
 21 23  2  0  0  0  0
 23 24  1  0  0  0  0
 23 28  1  0  0  0  0
 24 25  2  0  0  0  0
 25 26  1  0  0  0  0
 25 27  1  0  0  0  0
 27 43  1  0  0  0  0
 27 44  1  0  0  0  0
 28 45  1  0  0  0  0
 28 46  1  0  0  0  0
M  END
$$$$
ZINC03814873
  -OEChem-08230709403D

 47 51  0     0  0  0  0  0  0999 V2000
    0.6116    3.3464   -1.9781 C   0  0  0  0  0  0  0  0  0  0  0  0
    0.7351    2.2648   -0.9859 C   0  0  0  0  0  0  0  0  0  0  0  0
   -0.3123    1.5202   -0.6969 C   0  0  0  0  0  0  0  0  0  0  0  0
   -1.5951    1.7698   -1.3695 C   0  0  0  0  0  0  0  0  0  0  0  0
   -1.7182    2.7464   -2.2435 C   0  0  0  0  0  0  0  0  0  0  0  0
   -0.5401    3.5740   -2.5700 C   0  0  0  0  0  0  0  0  0  0  0  0
   -3.0065    3.0325   -2.8809 C   0  0  0  0  0  0  0  0  0  0  0  0
   -4.1511    2.9745   -2.2872 C   0  0  0  0  0  0  0  0  0  0  0  0
   -4.3379    2.6225   -0.8774 C   0  0  0  0  0  0  0  0  0  0  0  0
   -5.3239    3.3607   -0.0635 C   0  0  0  0  0  0  0  0  0  0  0  0
   -5.4685    3.0819    1.2132 C   0  0  0  0  0  0  0  0  0  0  0  0
   -4.6494    2.0307    1.8407 C   0  0  0  0  0  0  0  0  0  0  0  0
   -3.7751    1.3637    1.1157 C   0  0  0  0  0  0  0  0  0  0  0  0
   -3.6224    1.6723   -0.3129 C   0  0  0  0  0  0  0  0  0  0  0  0
   -2.7072    0.9547   -1.1010 N   0  0  0  0  0  0  0  0  0  0  0  0
   -2.2995   -0.2889   -0.4337 C   0  0  0  0  0  0  0  0  0  0  0  0
   -3.5212   -1.1114   -0.1142 C   0  0  0  0  0  0  0  0  0  0  0  0
   -4.4353   -1.3915   -1.1275 C   0  0  0  0  0  0  0  0  0  0  0  0
   -5.5470   -2.1398   -0.8575 C   0  0  0  0  0  0  0  0  0  0  0  0
   -5.7318   -2.5973    0.4584 C   0  0  0  0  0  0  0  0  0  0  0  0
   -4.7642   -2.2695    1.4378 C   0  0  0  0  0  0  0  0  0  0  0  0
   -3.7001   -1.5414    1.1129 N   0  0  0  0  0  0  0  0  0  0  0  0
   -4.9838   -2.7599    2.7993 C   0  0  0  0  0  0  0  0  0  0  0  0
   -6.0736   -3.4788    3.0277 N   0  0  0  0  0  0  0  0  0  0  0  0
   -6.9412   -3.7485    2.0573 C   0  0  0  0  0  0  0  0  0  0  0  0
   -8.0575   -4.5046    2.3665 N   0  0  0  0  0  0  0  0  0  0  0  0
   -4.0877   -2.4830    3.8099 N   0  0  0  0  0  0  0  0  0  0  0  0
    1.4705    3.9546   -2.2206 H   0  0  0  0  0  0  0  0  0  0  0  0
    1.6809    2.0827   -0.4974 H   0  0  0  0  0  0  0  0  0  0  0  0
   -0.2275    0.7253    0.0292 H   0  0  0  0  0  0  0  0  0  0  0  0
   -0.6245    4.3681   -3.2970 H   0  0  0  0  0  0  0  0  0  0  0  0
   -3.0007    3.3031   -3.9265 H   0  0  0  0  0  0  0  0  0  0  0  0
   -5.0320    3.2071   -2.8671 H   0  0  0  0  0  0  0  0  0  0  0  0
   -5.9279    4.1321   -0.5180 H   0  0  0  0  0  0  0  0  0  0  0  0
   -6.1909    3.6254    1.8040 H   0  0  0  0  0  0  0  0  0  0  0  0
   -4.7650    1.8080    2.8912 H   0  0  0  0  0  0  0  0  0  0  0  0
   -3.1716    0.5919    1.5702 H   0  0  0  0  0  0  0  0  0  0  0  0
   -1.6418   -0.8560   -1.0924 H   0  0  0  0  0  0  0  0  0  0  0  0
   -1.7711   -0.0496    0.4892 H   0  0  0  0  0  0  0  0  0  0  0  0
   -4.2637   -1.0208   -2.1273 H   0  0  0  0  0  0  0  0  0  0  0  0
   -6.2640   -2.3695   -1.6317 H   0  0  0  0  0  0  0  0  0  0  0  0
   -8.1915   -4.8236    3.2727 H   0  0  0  0  0  0  0  0  0  0  0  0
   -8.7064   -4.7159    1.6771 H   0  0  0  0  0  0  0  0  0  0  0  0
   -3.3324   -1.8981    3.6416 H   0  0  0  0  0  0  0  0  0  0  0  0
   -4.2126   -2.8731    4.6892 H   0  0  0  0  0  0  0  0  0  0  0  0
   -6.8437   -3.3506    0.7646 N   0  3  0  0  0  0  0  0  0  0  0  0
   -7.5116   -3.5683    0.0529 H   0  0  0  0  0  0  0  0  0  0  0  0
  1  6  2  0  0  0  0
  1  2  1  0  0  0  0
  1 28  1  0  0  0  0
  2  3  2  0  0  0  0
  2 29  1  0  0  0  0
  3  4  1  0  0  0  0
  3 30  1  0  0  0  0
  4 15  1  0  0  0  0
  4  5  2  0  0  0  0
  5  6  1  0  0  0  0
  5  7  1  0  0  0  0
  6 31  1  0  0  0  0
  7  8  2  0  0  0  0
  7 32  1  0  0  0  0
  8  9  1  0  0  0  0
  8 33  1  0  0  0  0
  9 14  2  0  0  0  0
  9 10  1  0  0  0  0
 10 11  2  0  0  0  0
 10 34  1  0  0  0  0
 11 12  1  0  0  0  0
 11 35  1  0  0  0  0
 12 13  2  0  0  0  0
 12 36  1  0  0  0  0
 13 14  1  0  0  0  0
 13 37  1  0  0  0  0
 14 15  1  0  0  0  0
 15 16  1  0  0  0  0
 16 17  1  0  0  0  0
 16 38  1  0  0  0  0
 16 39  1  0  0  0  0
 17 22  2  0  0  0  0
 17 18  1  0  0  0  0
 18 19  2  0  0  0  0
 18 40  1  0  0  0  0
 19 20  1  0  0  0  0
 19 41  1  0  0  0  0
 20 21  2  0  0  0  0
 20 46  1  0  0  0  0
 21 22  1  0  0  0  0
 21 23  1  0  0  0  0
 23 24  2  0  0  0  0
 23 27  1  0  0  0  0
 24 25  1  0  0  0  0
 25 26  1  0  0  0  0
 25 46  2  0  0  0  0
 26 42  1  0  0  0  0
 26 43  1  0  0  0  0
 27 44  1  0  0  0  0
 27 45  1  0  0  0  0
 46 47  1  0  0  0  0
M  CHG  1  46   1
M  END
$$$$
ZINC03814874
  -OEChem-08230709403D

 49 53  0     0  0  0  0  0  0999 V2000
   -0.5738   -5.0877   -3.9747 C   0  0  0  0  0  0  0  0  0  0  0  0
    0.0732   -4.2762   -3.0595 C   0  0  0  0  0  0  0  0  0  0  0  0
   -0.5139   -4.0598   -1.8393 C   0  0  0  0  0  0  0  0  0  0  0  0
   -1.7592   -4.6349   -1.5010 C   0  0  0  0  0  0  0  0  0  0  0  0
   -2.4197   -5.3488   -2.4076 C   0  0  0  0  0  0  0  0  0  0  0  0
   -1.7999   -5.6069   -3.6519 C   0  0  0  0  0  0  0  0  0  0  0  0
   -3.8037   -5.9640   -2.3907 C   0  0  0  0  0  0  0  0  0  0  0  0
   -4.1558   -6.6890   -1.1298 C   0  0  0  0  0  0  0  0  0  0  0  0
   -4.1724   -5.8289    0.1149 C   0  0  0  0  0  0  0  0  0  0  0  0
   -5.3008   -6.1645    0.9009 C   0  0  0  0  0  0  0  0  0  0  0  0
   -5.4974   -5.6386    2.1506 C   0  0  0  0  0  0  0  0  0  0  0  0
   -4.5700   -4.7474    2.6600 C   0  0  0  0  0  0  0  0  0  0  0  0
   -3.4983   -4.3942    1.8794 C   0  0  0  0  0  0  0  0  0  0  0  0
   -3.3200   -4.9257    0.5844 C   0  0  0  0  0  0  0  0  0  0  0  0
   -2.1411   -4.3562   -0.1019 C   0  0  0  0  0  0  0  0  0  0  0  0
   -2.2668   -2.9006    0.0067 N   0  0  0  0  0  0  0  0  0  0  0  0
   -1.3267   -2.1704    0.7411 C   0  0  0  0  0  0  0  0  0  0  0  0
   -0.5529   -2.8147    1.7106 C   0  0  0  0  0  0  0  0  0  0  0  0
    0.3698   -2.1281    2.4403 C   0  0  0  0  0  0  0  0  0  0  0  0
    0.5514   -0.7557    2.2212 C   0  0  0  0  0  0  0  0  0  0  0  0
   -0.2294   -0.0965    1.2411 C   0  0  0  0  0  0  0  0  0  0  0  0
   -1.1718   -0.8201    0.5024 C   0  0  0  0  0  0  0  0  0  0  0  0
   -0.0250    1.2916    1.0406 C   0  0  0  0  0  0  0  0  0  0  0  0
    0.8867    1.9060    1.7796 N   0  0  0  0  0  0  0  0  0  0  0  0
    1.5992    1.2484    2.6903 C   0  0  0  0  0  0  0  0  0  0  0  0
    1.4499   -0.0420    2.9177 N   0  0  0  0  0  0  0  0  0  0  0  0
    2.5367    1.9479    3.4302 N   0  0  0  0  0  0  0  0  0  0  0  0
   -0.7530    1.9841    0.0958 N   0  0  0  0  0  0  0  0  0  0  0  0
   -0.1192   -5.3081   -4.9292 H   0  0  0  0  0  0  0  0  0  0  0  0
    1.0227   -3.8222   -3.3015 H   0  0  0  0  0  0  0  0  0  0  0  0
   -0.0114   -3.4321   -1.1183 H   0  0  0  0  0  0  0  0  0  0  0  0
   -2.3089   -6.2323   -4.3703 H   0  0  0  0  0  0  0  0  0  0  0  0
   -3.8791   -6.6642   -3.2226 H   0  0  0  0  0  0  0  0  0  0  0  0
   -4.5347   -5.1706   -2.5469 H   0  0  0  0  0  0  0  0  0  0  0  0
   -3.4353   -7.4935   -0.9827 H   0  0  0  0  0  0  0  0  0  0  0  0
   -5.1428   -7.1348   -1.2533 H   0  0  0  0  0  0  0  0  0  0  0  0
   -6.0286   -6.8564    0.5036 H   0  0  0  0  0  0  0  0  0  0  0  0
   -6.3650   -5.9165    2.7306 H   0  0  0  0  0  0  0  0  0  0  0  0
   -4.6874   -4.3375    3.6523 H   0  0  0  0  0  0  0  0  0  0  0  0
   -2.7739   -3.6923    2.2652 H   0  0  0  0  0  0  0  0  0  0  0  0
   -1.2767   -4.6183    0.5083 H   0  0  0  0  0  0  0  0  0  0  0  0
   -3.0019   -2.4434   -0.4307 H   0  0  0  0  0  0  0  0  0  0  0  0
   -0.6883   -3.8722    1.8834 H   0  0  0  0  0  0  0  0  0  0  0  0
    0.9599   -2.6399    3.1861 H   0  0  0  0  0  0  0  0  0  0  0  0
   -1.7725   -0.3265   -0.2473 H   0  0  0  0  0  0  0  0  0  0  0  0
    3.0673    1.4883    4.0996 H   0  0  0  0  0  0  0  0  0  0  0  0
    2.6630    2.8977    3.2794 H   0  0  0  0  0  0  0  0  0  0  0  0
   -1.4148    1.5212   -0.4415 H   0  0  0  0  0  0  0  0  0  0  0  0
   -0.6032    2.9340   -0.0313 H   0  0  0  0  0  0  0  0  0  0  0  0
  1  6  2  0  0  0  0
  1  2  1  0  0  0  0
  1 29  1  0  0  0  0
  2  3  2  0  0  0  0
  2 30  1  0  0  0  0
  3  4  1  0  0  0  0
  3 31  1  0  0  0  0
  4 15  1  0  0  0  0
  4  5  2  0  0  0  0
  5  6  1  0  0  0  0
  5  7  1  0  0  0  0
  6 32  1  0  0  0  0
  7  8  1  0  0  0  0
  7 33  1  0  0  0  0
  7 34  1  0  0  0  0
  8  9  1  0  0  0  0
  8 35  1  0  0  0  0
  8 36  1  0  0  0  0
  9 14  2  0  0  0  0
  9 10  1  0  0  0  0
 10 11  2  0  0  0  0
 10 37  1  0  0  0  0
 11 12  1  0  0  0  0
 11 38  1  0  0  0  0
 12 13  2  0  0  0  0
 12 39  1  0  0  0  0
 13 14  1  0  0  0  0
 13 40  1  0  0  0  0
 14 15  1  0  0  0  0
 15 16  1  0  0  0  0
 15 41  1  0  0  0  0
 16 17  1  0  0  0  0
 16 42  1  0  0  0  0
 17 22  2  0  0  0  0
 17 18  1  0  0  0  0
 18 19  2  0  0  0  0
 18 43  1  0  0  0  0
 19 20  1  0  0  0  0
 19 44  1  0  0  0  0
 20 26  2  0  0  0  0
 20 21  1  0  0  0  0
 21 22  1  0  0  0  0
 21 23  2  0  0  0  0
 22 45  1  0  0  0  0
 23 24  1  0  0  0  0
 23 28  1  0  0  0  0
 24 25  2  0  0  0  0
 25 26  1  0  0  0  0
 25 27  1  0  0  0  0
 27 46  1  0  0  0  0
 27 47  1  0  0  0  0
 28 48  1  0  0  0  0
 28 49  1  0  0  0  0
M  END
$$$$
ZINC03814874
  -OEChem-08230709403D

 50 54  0     0  0  0  0  0  0999 V2000
   -0.5738   -5.0877   -3.9747 C   0  0  0  0  0  0  0  0  0  0  0  0
    0.0732   -4.2762   -3.0595 C   0  0  0  0  0  0  0  0  0  0  0  0
   -0.5139   -4.0598   -1.8393 C   0  0  0  0  0  0  0  0  0  0  0  0
   -1.7592   -4.6349   -1.5010 C   0  0  0  0  0  0  0  0  0  0  0  0
   -2.4197   -5.3488   -2.4076 C   0  0  0  0  0  0  0  0  0  0  0  0
   -1.7999   -5.6069   -3.6519 C   0  0  0  0  0  0  0  0  0  0  0  0
   -3.8037   -5.9640   -2.3907 C   0  0  0  0  0  0  0  0  0  0  0  0
   -4.1558   -6.6890   -1.1298 C   0  0  0  0  0  0  0  0  0  0  0  0
   -4.1724   -5.8289    0.1149 C   0  0  0  0  0  0  0  0  0  0  0  0
   -5.3008   -6.1645    0.9009 C   0  0  0  0  0  0  0  0  0  0  0  0
   -5.4974   -5.6386    2.1506 C   0  0  0  0  0  0  0  0  0  0  0  0
   -4.5700   -4.7474    2.6600 C   0  0  0  0  0  0  0  0  0  0  0  0
   -3.4983   -4.3942    1.8794 C   0  0  0  0  0  0  0  0  0  0  0  0
   -3.3200   -4.9257    0.5844 C   0  0  0  0  0  0  0  0  0  0  0  0
   -2.1411   -4.3562   -0.1019 C   0  0  0  0  0  0  0  0  0  0  0  0
   -2.2668   -2.9006    0.0067 N   0  0  0  0  0  0  0  0  0  0  0  0
   -1.3267   -2.1704    0.7411 C   0  0  0  0  0  0  0  0  0  0  0  0
   -0.5529   -2.8147    1.7106 C   0  0  0  0  0  0  0  0  0  0  0  0
    0.3698   -2.1281    2.4403 C   0  0  0  0  0  0  0  0  0  0  0  0
    0.5514   -0.7557    2.2212 C   0  0  0  0  0  0  0  0  0  0  0  0
   -0.2294   -0.0965    1.2411 C   0  0  0  0  0  0  0  0  0  0  0  0
   -1.1718   -0.8201    0.5024 C   0  0  0  0  0  0  0  0  0  0  0  0
   -0.0250    1.2916    1.0406 C   0  0  0  0  0  0  0  0  0  0  0  0
    0.8867    1.9060    1.7796 N   0  0  0  0  0  0  0  0  0  0  0  0
    1.5992    1.2484    2.6903 C   0  0  0  0  0  0  0  0  0  0  0  0
    2.5367    1.9479    3.4302 N   0  0  0  0  0  0  0  0  0  0  0  0
   -0.7530    1.9841    0.0958 N   0  0  0  0  0  0  0  0  0  0  0  0
   -0.1192   -5.3081   -4.9292 H   0  0  0  0  0  0  0  0  0  0  0  0
    1.0227   -3.8222   -3.3015 H   0  0  0  0  0  0  0  0  0  0  0  0
   -0.0114   -3.4321   -1.1183 H   0  0  0  0  0  0  0  0  0  0  0  0
   -2.3089   -6.2323   -4.3703 H   0  0  0  0  0  0  0  0  0  0  0  0
   -3.8791   -6.6642   -3.2226 H   0  0  0  0  0  0  0  0  0  0  0  0
   -4.5347   -5.1706   -2.5469 H   0  0  0  0  0  0  0  0  0  0  0  0
   -3.4353   -7.4935   -0.9827 H   0  0  0  0  0  0  0  0  0  0  0  0
   -5.1428   -7.1348   -1.2533 H   0  0  0  0  0  0  0  0  0  0  0  0
   -6.0286   -6.8564    0.5036 H   0  0  0  0  0  0  0  0  0  0  0  0
   -6.3650   -5.9165    2.7306 H   0  0  0  0  0  0  0  0  0  0  0  0
   -4.6874   -4.3375    3.6523 H   0  0  0  0  0  0  0  0  0  0  0  0
   -2.7739   -3.6923    2.2652 H   0  0  0  0  0  0  0  0  0  0  0  0
   -1.2767   -4.6183    0.5083 H   0  0  0  0  0  0  0  0  0  0  0  0
   -3.0019   -2.4434   -0.4307 H   0  0  0  0  0  0  0  0  0  0  0  0
   -0.6883   -3.8722    1.8834 H   0  0  0  0  0  0  0  0  0  0  0  0
    0.9599   -2.6399    3.1861 H   0  0  0  0  0  0  0  0  0  0  0  0
   -1.7725   -0.3265   -0.2473 H   0  0  0  0  0  0  0  0  0  0  0  0
    3.0673    1.4883    4.0996 H   0  0  0  0  0  0  0  0  0  0  0  0
    2.6630    2.8977    3.2794 H   0  0  0  0  0  0  0  0  0  0  0  0
   -1.4148    1.5212   -0.4415 H   0  0  0  0  0  0  0  0  0  0  0  0
   -0.6032    2.9340   -0.0313 H   0  0  0  0  0  0  0  0  0  0  0  0
    1.4901   -0.0739    2.9675 N   0  3  0  0  0  0  0  0  0  0  0  0
    2.0309   -0.5590    3.6547 H   0  0  0  0  0  0  0  0  0  0  0  0
  1  6  2  0  0  0  0
  1  2  1  0  0  0  0
  1 28  1  0  0  0  0
  2  3  2  0  0  0  0
  2 29  1  0  0  0  0
  3  4  1  0  0  0  0
  3 30  1  0  0  0  0
  4 15  1  0  0  0  0
  4  5  2  0  0  0  0
  5  6  1  0  0  0  0
  5  7  1  0  0  0  0
  6 31  1  0  0  0  0
  7  8  1  0  0  0  0
  7 32  1  0  0  0  0
  7 33  1  0  0  0  0
  8  9  1  0  0  0  0
  8 34  1  0  0  0  0
  8 35  1  0  0  0  0
  9 14  2  0  0  0  0
  9 10  1  0  0  0  0
 10 11  2  0  0  0  0
 10 36  1  0  0  0  0
 11 12  1  0  0  0  0
 11 37  1  0  0  0  0
 12 13  2  0  0  0  0
 12 38  1  0  0  0  0
 13 14  1  0  0  0  0
 13 39  1  0  0  0  0
 14 15  1  0  0  0  0
 15 16  1  0  0  0  0
 15 40  1  0  0  0  0
 16 17  1  0  0  0  0
 16 41  1  0  0  0  0
 17 22  2  0  0  0  0
 17 18  1  0  0  0  0
 18 19  2  0  0  0  0
 18 42  1  0  0  0  0
 19 20  1  0  0  0  0
 19 43  1  0  0  0  0
 20 21  2  0  0  0  0
 20 49  1  0  0  0  0
 21 22  1  0  0  0  0
 21 23  1  0  0  0  0
 22 44  1  0  0  0  0
 23 24  2  0  0  0  0
 23 27  1  0  0  0  0
 24 25  1  0  0  0  0
 25 26  1  0  0  0  0
 25 49  2  0  0  0  0
 26 45  1  0  0  0  0
 26 46  1  0  0  0  0
 27 47  1  0  0  0  0
 27 48  1  0  0  0  0
 49 50  1  0  0  0  0
M  CHG  1  49   1
M  END
$$$$
ZINC03814875
  -OEChem-08230709403D

 51 53  0     1  0  0  0  0  0999 V2000
   -1.3570    9.4176   -3.4545 C   0  0  0  0  0  0  0  0  0  0  0  0
   -0.6046   10.2585   -2.5777 O   0  0  0  0  0  0  0  0  0  0  0  0
    0.3024    9.6507   -1.7670 C   0  0  0  0  0  0  0  0  0  0  0  0
    0.4632    8.2748   -1.8156 C   0  0  0  0  0  0  0  0  0  0  0  0
    1.3897    7.6542   -0.9886 C   0  0  0  0  0  0  0  0  0  0  0  0
    2.1517    8.4104   -0.1083 C   0  0  0  0  0  0  0  0  0  0  0  0
    1.9953    9.7870   -0.0620 C   0  0  0  0  0  0  0  0  0  0  0  0
    1.0684   10.4089   -0.8898 C   0  0  0  0  0  0  0  0  0  0  0  0
    0.9112   11.7609   -0.8418 O   0  0  0  0  0  0  0  0  0  0  0  0
   -0.0567   12.2692    0.0784 C   0  0  0  0  0  0  0  0  0  0  0  0
    2.7451   10.5282    0.7970 O   0  0  0  0  0  0  0  0  0  0  0  0
    3.6780    9.8229    1.6182 C   0  0  0  0  0  0  0  0  0  0  0  0
    1.5516    6.2654   -1.0383 N   0  0  0  0  0  0  0  0  0  0  0  0
    2.5291    5.6102   -0.1658 C   0  0  0  0  0  0  0  0  0  0  0  0
    2.5064    4.1012   -0.4172 C   0  0  1  0  0  0  0  0  0  0  0  0
    2.6632    3.9040   -1.4777 H   0  0  0  0  0  0  0  0  0  0  0  0
    3.6126    3.4256    0.4016 C   0  0  0  0  0  0  0  0  0  0  0  0
    3.7211    1.9671   -0.0405 C   0  0  0  0  0  0  0  0  0  0  0  0
    2.3684    1.3082   -0.0189 C   0  0  0  0  0  0  0  0  0  0  0  0
    1.1968    2.0244    0.0015 C   0  0  0  0  0  0  0  0  0  0  0  0
   -0.0159    1.3236    0.0093 C   0  0  0  0  0  0  0  0  0  0  0  0
    0.0021   -0.0041    0.0020 N   0  0  0  0  0  0  0  0  0  0  0  0
    1.1532   -0.6590   -0.0129 C   0  0  0  0  0  0  0  0  0  0  0  0
    2.3123   -0.0214   -0.0240 N   0  0  0  0  0  0  0  0  0  0  0  0
    1.1432   -2.0429   -0.0173 N   0  0  0  0  0  0  0  0  0  0  0  0
   -1.2204    2.0079    0.0188 N   0  0  0  0  0  0  0  0  0  0  0  0
    1.1600    3.5274    0.0228 C   0  0  0  0  0  0  0  0  0  0  0  0
   -2.0419   10.0274   -4.0438 H   0  0  0  0  0  0  0  0  0  0  0  0
   -0.6773    8.8872   -4.1213 H   0  0  0  0  0  0  0  0  0  0  0  0
   -1.9260    8.6969   -2.8672 H   0  0  0  0  0  0  0  0  0  0  0  0
   -0.1320    7.6854   -2.4972 H   0  0  0  0  0  0  0  0  0  0  0  0
    2.8693    7.9266    0.5376 H   0  0  0  0  0  0  0  0  0  0  0  0
   -1.0396   11.8687   -0.1700 H   0  0  0  0  0  0  0  0  0  0  0  0
    0.2123   11.9694    1.0913 H   0  0  0  0  0  0  0  0  0  0  0  0
   -0.0813   13.3571    0.0159 H   0  0  0  0  0  0  0  0  0  0  0  0
    3.1440    9.1047    2.2403 H   0  0  0  0  0  0  0  0  0  0  0  0
    4.3924    9.2956    0.9860 H   0  0  0  0  0  0  0  0  0  0  0  0
    4.2093   10.5306    2.2547 H   0  0  0  0  0  0  0  0  0  0  0  0
    1.0165    5.7364   -1.6504 H   0  0  0  0  0  0  0  0  0  0  0  0
    2.2771    5.8088    0.8759 H   0  0  0  0  0  0  0  0  0  0  0  0
    3.5248    5.9991   -0.3792 H   0  0  0  0  0  0  0  0  0  0  0  0
    3.3622    3.4693    1.4616 H   0  0  0  0  0  0  0  0  0  0  0  0
    4.5619    3.9324    0.2284 H   0  0  0  0  0  0  0  0  0  0  0  0
    4.3918    1.4350    0.6341 H   0  0  0  0  0  0  0  0  0  0  0  0
    4.1255    1.9263   -1.0519 H   0  0  0  0  0  0  0  0  0  0  0  0
    0.2997   -2.5219   -0.0096 H   0  0  0  0  0  0  0  0  0  0  0  0
    1.9797   -2.5339   -0.0282 H   0  0  0  0  0  0  0  0  0  0  0  0
   -2.0571    1.5170    0.0201 H   0  0  0  0  0  0  0  0  0  0  0  0
   -1.2272    2.9778    0.0241 H   0  0  0  0  0  0  0  0  0  0  0  0
    0.9361    3.8681    1.0337 H   0  0  0  0  0  0  0  0  0  0  0  0
    0.3805    3.8784   -0.6534 H   0  0  0  0  0  0  0  0  0  0  0  0
  1  2  1  0  0  0  0
  1 28  1  0  0  0  0
  1 29  1  0  0  0  0
  1 30  1  0  0  0  0
  2  3  1  0  0  0  0
  3  8  2  0  0  0  0
  3  4  1  0  0  0  0
  4  5  2  0  0  0  0
  4 31  1  0  0  0  0
  5  6  1  0  0  0  0
  5 13  1  0  0  0  0
  6  7  2  0  0  0  0
  6 32  1  0  0  0  0
  7  8  1  0  0  0  0
  7 11  1  0  0  0  0
  8  9  1  0  0  0  0
  9 10  1  0  0  0  0
 10 33  1  0  0  0  0
 10 34  1  0  0  0  0
 10 35  1  0  0  0  0
 11 12  1  0  0  0  0
 12 36  1  0  0  0  0
 12 37  1  0  0  0  0
 12 38  1  0  0  0  0
 13 14  1  0  0  0  0
 13 39  1  0  0  0  0
 14 15  1  0  0  0  0
 14 40  1  0  0  0  0
 14 41  1  0  0  0  0
 15 16  1  0  0  0  0
 15 27  1  0  0  0  0
 15 17  1  0  0  0  0
 17 18  1  0  0  0  0
 17 42  1  0  0  0  0
 17 43  1  0  0  0  0
 18 19  1  0  0  0  0
 18 44  1  0  0  0  0
 18 45  1  0  0  0  0
 19 24  2  0  0  0  0
 19 20  1  0  0  0  0
 20 21  2  0  0  0  0
 20 27  1  0  0  0  0
 21 22  1  0  0  0  0
 21 26  1  0  0  0  0
 22 23  2  0  0  0  0
 23 24  1  0  0  0  0
 23 25  1  0  0  0  0
 25 46  1  0  0  0  0
 25 47  1  0  0  0  0
 26 48  1  0  0  0  0
 26 49  1  0  0  0  0
 27 50  1  0  0  0  0
 27 51  1  0  0  0  0
M  END
$$$$
ZINC03814875
  -OEChem-08230709403D

 52 54  0     1  0  0  0  0  0999 V2000
   -1.3570    9.4176   -3.4545 C   0  0  0  0  0  0  0  0  0  0  0  0
   -0.6046   10.2585   -2.5777 O   0  0  0  0  0  0  0  0  0  0  0  0
    0.3024    9.6507   -1.7670 C   0  0  0  0  0  0  0  0  0  0  0  0
    0.4632    8.2748   -1.8156 C   0  0  0  0  0  0  0  0  0  0  0  0
    1.3897    7.6542   -0.9886 C   0  0  0  0  0  0  0  0  0  0  0  0
    2.1517    8.4104   -0.1083 C   0  0  0  0  0  0  0  0  0  0  0  0
    1.9953    9.7870   -0.0620 C   0  0  0  0  0  0  0  0  0  0  0  0
    1.0684   10.4089   -0.8898 C   0  0  0  0  0  0  0  0  0  0  0  0
    0.9112   11.7609   -0.8418 O   0  0  0  0  0  0  0  0  0  0  0  0
   -0.0567   12.2692    0.0784 C   0  0  0  0  0  0  0  0  0  0  0  0
    2.7451   10.5282    0.7970 O   0  0  0  0  0  0  0  0  0  0  0  0
    3.6780    9.8229    1.6182 C   0  0  0  0  0  0  0  0  0  0  0  0
    1.5516    6.2654   -1.0383 N   0  0  0  0  0  0  0  0  0  0  0  0
    2.5291    5.6102   -0.1658 C   0  0  0  0  0  0  0  0  0  0  0  0
    2.5064    4.1012   -0.4172 C   0  0  1  0  0  0  0  0  0  0  0  0
    2.6632    3.9040   -1.4777 H   0  0  0  0  0  0  0  0  0  0  0  0
    3.6126    3.4256    0.4016 C   0  0  0  0  0  0  0  0  0  0  0  0
    3.7211    1.9671   -0.0405 C   0  0  0  0  0  0  0  0  0  0  0  0
    2.3684    1.3082   -0.0189 C   0  0  0  0  0  0  0  0  0  0  0  0
    1.1968    2.0244    0.0015 C   0  0  0  0  0  0  0  0  0  0  0  0
   -0.0159    1.3236    0.0093 C   0  0  0  0  0  0  0  0  0  0  0  0
    0.0021   -0.0041    0.0020 N   0  0  0  0  0  0  0  0  0  0  0  0
    1.1532   -0.6590   -0.0129 C   0  0  0  0  0  0  0  0  0  0  0  0
    1.1432   -2.0429   -0.0173 N   0  0  0  0  0  0  0  0  0  0  0  0
   -1.2204    2.0079    0.0188 N   0  0  0  0  0  0  0  0  0  0  0  0
    1.1600    3.5274    0.0228 C   0  0  0  0  0  0  0  0  0  0  0  0
   -2.0419   10.0274   -4.0438 H   0  0  0  0  0  0  0  0  0  0  0  0
   -0.6773    8.8872   -4.1213 H   0  0  0  0  0  0  0  0  0  0  0  0
   -1.9260    8.6969   -2.8672 H   0  0  0  0  0  0  0  0  0  0  0  0
   -0.1320    7.6854   -2.4972 H   0  0  0  0  0  0  0  0  0  0  0  0
    2.8693    7.9266    0.5376 H   0  0  0  0  0  0  0  0  0  0  0  0
   -1.0396   11.8687   -0.1700 H   0  0  0  0  0  0  0  0  0  0  0  0
    0.2123   11.9694    1.0913 H   0  0  0  0  0  0  0  0  0  0  0  0
   -0.0813   13.3571    0.0159 H   0  0  0  0  0  0  0  0  0  0  0  0
    3.1440    9.1047    2.2403 H   0  0  0  0  0  0  0  0  0  0  0  0
    4.3924    9.2956    0.9860 H   0  0  0  0  0  0  0  0  0  0  0  0
    4.2093   10.5306    2.2547 H   0  0  0  0  0  0  0  0  0  0  0  0
    1.0165    5.7364   -1.6504 H   0  0  0  0  0  0  0  0  0  0  0  0
    2.2771    5.8088    0.8759 H   0  0  0  0  0  0  0  0  0  0  0  0
    3.5248    5.9991   -0.3792 H   0  0  0  0  0  0  0  0  0  0  0  0
    3.3622    3.4693    1.4616 H   0  0  0  0  0  0  0  0  0  0  0  0
    4.5619    3.9324    0.2284 H   0  0  0  0  0  0  0  0  0  0  0  0
    4.3918    1.4350    0.6341 H   0  0  0  0  0  0  0  0  0  0  0  0
    4.1255    1.9263   -1.0519 H   0  0  0  0  0  0  0  0  0  0  0  0
    0.2997   -2.5219   -0.0096 H   0  0  0  0  0  0  0  0  0  0  0  0
    1.9797   -2.5339   -0.0282 H   0  0  0  0  0  0  0  0  0  0  0  0
   -2.0571    1.5170    0.0201 H   0  0  0  0  0  0  0  0  0  0  0  0
   -1.2272    2.9778    0.0241 H   0  0  0  0  0  0  0  0  0  0  0  0
    0.9361    3.8681    1.0337 H   0  0  0  0  0  0  0  0  0  0  0  0
    0.3805    3.8784   -0.6534 H   0  0  0  0  0  0  0  0  0  0  0  0
    2.3774   -0.0619   -0.0250 N   0  3  0  0  0  0  0  0  0  0  0  0
    3.2466   -0.5562   -0.0375 H   0  0  0  0  0  0  0  0  0  0  0  0
  1  2  1  0  0  0  0
  1 27  1  0  0  0  0
  1 28  1  0  0  0  0
  1 29  1  0  0  0  0
  2  3  1  0  0  0  0
  3  8  2  0  0  0  0
  3  4  1  0  0  0  0
  4  5  2  0  0  0  0
  4 30  1  0  0  0  0
  5  6  1  0  0  0  0
  5 13  1  0  0  0  0
  6  7  2  0  0  0  0
  6 31  1  0  0  0  0
  7  8  1  0  0  0  0
  7 11  1  0  0  0  0
  8  9  1  0  0  0  0
  9 10  1  0  0  0  0
 10 32  1  0  0  0  0
 10 33  1  0  0  0  0
 10 34  1  0  0  0  0
 11 12  1  0  0  0  0
 12 35  1  0  0  0  0
 12 36  1  0  0  0  0
 12 37  1  0  0  0  0
 13 14  1  0  0  0  0
 13 38  1  0  0  0  0
 14 15  1  0  0  0  0
 14 39  1  0  0  0  0
 14 40  1  0  0  0  0
 15 16  1  0  0  0  0
 15 26  1  0  0  0  0
 15 17  1  0  0  0  0
 17 18  1  0  0  0  0
 17 41  1  0  0  0  0
 17 42  1  0  0  0  0
 18 19  1  0  0  0  0
 18 43  1  0  0  0  0
 18 44  1  0  0  0  0
 19 20  2  0  0  0  0
 19 51  1  0  0  0  0
 20 21  1  0  0  0  0
 20 26  1  0  0  0  0
 21 22  2  0  0  0  0
 21 25  1  0  0  0  0
 22 23  1  0  0  0  0
 23 24  1  0  0  0  0
 23 51  2  0  0  0  0
 24 45  1  0  0  0  0
 24 46  1  0  0  0  0
 25 47  1  0  0  0  0
 25 48  1  0  0  0  0
 26 49  1  0  0  0  0
 26 50  1  0  0  0  0
 51 52  1  0  0  0  0
M  CHG  1  51   1
M  END
$$$$
ZINC03814876
  -OEChem-08230709403D

 42 44  0     1  0  0  0  0  0999 V2000
    1.9521    6.7286   -2.3691 C   0  0  0  0  0  0  0  0  0  0  0  0
    1.5516    6.2654   -1.0383 N   0  0  3  0  0  0  0  0  0  0  0  0
    2.5291    5.6102   -0.1658 C   0  0  0  0  0  0  0  0  0  0  0  0
    2.5064    4.1012   -0.4172 C   0  0  1  0  0  0  0  0  0  0  0  0
    2.6632    3.9040   -1.4777 H   0  0  0  0  0  0  0  0  0  0  0  0
    3.6126    3.4256    0.4016 C   0  0  0  0  0  0  0  0  0  0  0  0
    3.7211    1.9671   -0.0405 C   0  0  0  0  0  0  0  0  0  0  0  0
    2.3684    1.3082   -0.0189 C   0  0  0  0  0  0  0  0  0  0  0  0
    1.1968    2.0244    0.0015 C   0  0  0  0  0  0  0  0  0  0  0  0
   -0.0159    1.3236    0.0093 C   0  0  0  0  0  0  0  0  0  0  0  0
    0.0021   -0.0041    0.0020 N   0  0  0  0  0  0  0  0  0  0  0  0
    1.1532   -0.6590   -0.0129 C   0  0  0  0  0  0  0  0  0  0  0  0
    2.3123   -0.0214   -0.0240 N   0  0  0  0  0  0  0  0  0  0  0  0
    1.1432   -2.0429   -0.0173 N   0  0  0  0  0  0  0  0  0  0  0  0
   -1.2204    2.0079    0.0188 N   0  0  0  0  0  0  0  0  0  0  0  0
    1.1600    3.5274    0.0228 C   0  0  0  0  0  0  0  0  0  0  0  0
    0.2370    6.4485   -0.6011 C   0  0  0  0  0  0  0  0  0  0  0  0
   -0.1455    6.0046    0.6585 C   0  0  0  0  0  0  0  0  0  0  0  0
   -1.4436    6.1922    1.0911 C   0  0  0  0  0  0  0  0  0  0  0  0
   -2.3666    6.8111    0.2667 C   0  0  0  0  0  0  0  0  0  0  0  0
   -1.9902    7.2493   -0.9919 C   0  0  0  0  0  0  0  0  0  0  0  0
   -0.6905    7.0694   -1.4271 C   0  0  0  0  0  0  0  0  0  0  0  0
   -3.1510    8.0253   -2.0234 Cl  0  0  0  0  0  0  0  0  0  0  0  0
   -3.9991    7.0392    0.8112 Cl  0  0  0  0  0  0  0  0  0  0  0  0
    1.7928    5.9309   -3.0947 H   0  0  0  0  0  0  0  0  0  0  0  0
    1.3546    7.5969   -2.6467 H   0  0  0  0  0  0  0  0  0  0  0  0
    3.0070    7.0027   -2.3562 H   0  0  0  0  0  0  0  0  0  0  0  0
    2.2771    5.8088    0.8759 H   0  0  0  0  0  0  0  0  0  0  0  0
    3.5248    5.9991   -0.3792 H   0  0  0  0  0  0  0  0  0  0  0  0
    3.3622    3.4693    1.4616 H   0  0  0  0  0  0  0  0  0  0  0  0
    4.5619    3.9324    0.2284 H   0  0  0  0  0  0  0  0  0  0  0  0
    4.3918    1.4350    0.6341 H   0  0  0  0  0  0  0  0  0  0  0  0
    4.1255    1.9263   -1.0519 H   0  0  0  0  0  0  0  0  0  0  0  0
    0.2997   -2.5219   -0.0096 H   0  0  0  0  0  0  0  0  0  0  0  0
    1.9797   -2.5339   -0.0282 H   0  0  0  0  0  0  0  0  0  0  0  0
   -2.0571    1.5170    0.0201 H   0  0  0  0  0  0  0  0  0  0  0  0
   -1.2272    2.9778    0.0241 H   0  0  0  0  0  0  0  0  0  0  0  0
    0.9361    3.8681    1.0337 H   0  0  0  0  0  0  0  0  0  0  0  0
    0.3805    3.8784   -0.6534 H   0  0  0  0  0  0  0  0  0  0  0  0
    0.5730    5.5175    1.3010 H   0  0  0  0  0  0  0  0  0  0  0  0
   -1.7397    5.8514    2.0722 H   0  0  0  0  0  0  0  0  0  0  0  0
   -0.3969    7.4112   -2.4087 H   0  0  0  0  0  0  0  0  0  0  0  0
  1  2  1  0  0  0  0
  1 25  1  0  0  0  0
  1 26  1  0  0  0  0
  1 27  1  0  0  0  0
  2  3  1  0  0  0  0
  2 17  1  0  0  0  0
  3  4  1  0  0  0  0
  3 28  1  0  0  0  0
  3 29  1  0  0  0  0
  4  5  1  0  0  0  0
  4 16  1  0  0  0  0
  4  6  1  0  0  0  0
  6  7  1  0  0  0  0
  6 30  1  0  0  0  0
  6 31  1  0  0  0  0
  7  8  1  0  0  0  0
  7 32  1  0  0  0  0
  7 33  1  0  0  0  0
  8 13  2  0  0  0  0
  8  9  1  0  0  0  0
  9 10  2  0  0  0  0
  9 16  1  0  0  0  0
 10 11  1  0  0  0  0
 10 15  1  0  0  0  0
 11 12  2  0  0  0  0
 12 13  1  0  0  0  0
 12 14  1  0  0  0  0
 14 34  1  0  0  0  0
 14 35  1  0  0  0  0
 15 36  1  0  0  0  0
 15 37  1  0  0  0  0
 16 38  1  0  0  0  0
 16 39  1  0  0  0  0
 17 22  2  0  0  0  0
 17 18  1  0  0  0  0
 18 19  2  0  0  0  0
 18 40  1  0  0  0  0
 19 20  1  0  0  0  0
 19 41  1  0  0  0  0
 20 21  2  0  0  0  0
 20 24  1  0  0  0  0
 21 22  1  0  0  0  0
 21 23  1  0  0  0  0
 22 42  1  0  0  0  0
M  END
$$$$
ZINC03814876
  -OEChem-08230709403D

 43 45  0     1  0  0  0  0  0999 V2000
    1.9521    6.7286   -2.3691 C   0  0  0  0  0  0  0  0  0  0  0  0
    1.5516    6.2654   -1.0383 N   0  0  3  0  0  0  0  0  0  0  0  0
    2.5291    5.6102   -0.1658 C   0  0  0  0  0  0  0  0  0  0  0  0
    2.5064    4.1012   -0.4172 C   0  0  1  0  0  0  0  0  0  0  0  0
    2.6632    3.9040   -1.4777 H   0  0  0  0  0  0  0  0  0  0  0  0
    3.6126    3.4256    0.4016 C   0  0  0  0  0  0  0  0  0  0  0  0
    3.7211    1.9671   -0.0405 C   0  0  0  0  0  0  0  0  0  0  0  0
    2.3684    1.3082   -0.0189 C   0  0  0  0  0  0  0  0  0  0  0  0
    1.1968    2.0244    0.0015 C   0  0  0  0  0  0  0  0  0  0  0  0
   -0.0159    1.3236    0.0093 C   0  0  0  0  0  0  0  0  0  0  0  0
    0.0021   -0.0041    0.0020 N   0  0  0  0  0  0  0  0  0  0  0  0
    1.1532   -0.6590   -0.0129 C   0  0  0  0  0  0  0  0  0  0  0  0
    1.1432   -2.0429   -0.0173 N   0  0  0  0  0  0  0  0  0  0  0  0
   -1.2204    2.0079    0.0188 N   0  0  0  0  0  0  0  0  0  0  0  0
    1.1600    3.5274    0.0228 C   0  0  0  0  0  0  0  0  0  0  0  0
    0.2370    6.4485   -0.6011 C   0  0  0  0  0  0  0  0  0  0  0  0
   -0.1455    6.0046    0.6585 C   0  0  0  0  0  0  0  0  0  0  0  0
   -1.4436    6.1922    1.0911 C   0  0  0  0  0  0  0  0  0  0  0  0
   -2.3666    6.8111    0.2667 C   0  0  0  0  0  0  0  0  0  0  0  0
   -1.9902    7.2493   -0.9919 C   0  0  0  0  0  0  0  0  0  0  0  0
   -0.6905    7.0694   -1.4271 C   0  0  0  0  0  0  0  0  0  0  0  0
   -3.1510    8.0253   -2.0234 Cl  0  0  0  0  0  0  0  0  0  0  0  0
   -3.9991    7.0392    0.8112 Cl  0  0  0  0  0  0  0  0  0  0  0  0
    1.7928    5.9309   -3.0947 H   0  0  0  0  0  0  0  0  0  0  0  0
    1.3546    7.5969   -2.6467 H   0  0  0  0  0  0  0  0  0  0  0  0
    3.0070    7.0027   -2.3562 H   0  0  0  0  0  0  0  0  0  0  0  0
    2.2771    5.8088    0.8759 H   0  0  0  0  0  0  0  0  0  0  0  0
    3.5248    5.9991   -0.3792 H   0  0  0  0  0  0  0  0  0  0  0  0
    3.3622    3.4693    1.4616 H   0  0  0  0  0  0  0  0  0  0  0  0
    4.5619    3.9324    0.2284 H   0  0  0  0  0  0  0  0  0  0  0  0
    4.3918    1.4350    0.6341 H   0  0  0  0  0  0  0  0  0  0  0  0
    4.1255    1.9263   -1.0519 H   0  0  0  0  0  0  0  0  0  0  0  0
    0.2997   -2.5219   -0.0096 H   0  0  0  0  0  0  0  0  0  0  0  0
    1.9797   -2.5339   -0.0282 H   0  0  0  0  0  0  0  0  0  0  0  0
   -2.0571    1.5170    0.0201 H   0  0  0  0  0  0  0  0  0  0  0  0
   -1.2272    2.9778    0.0241 H   0  0  0  0  0  0  0  0  0  0  0  0
    0.9361    3.8681    1.0337 H   0  0  0  0  0  0  0  0  0  0  0  0
    0.3805    3.8784   -0.6534 H   0  0  0  0  0  0  0  0  0  0  0  0
    0.5730    5.5175    1.3010 H   0  0  0  0  0  0  0  0  0  0  0  0
   -1.7397    5.8514    2.0722 H   0  0  0  0  0  0  0  0  0  0  0  0
   -0.3969    7.4112   -2.4087 H   0  0  0  0  0  0  0  0  0  0  0  0
    2.3774   -0.0619   -0.0250 N   0  3  0  0  0  0  0  0  0  0  0  0
    3.2466   -0.5562   -0.0375 H   0  0  0  0  0  0  0  0  0  0  0  0
  1  2  1  0  0  0  0
  1 24  1  0  0  0  0
  1 25  1  0  0  0  0
  1 26  1  0  0  0  0
  2  3  1  0  0  0  0
  2 16  1  0  0  0  0
  3  4  1  0  0  0  0
  3 27  1  0  0  0  0
  3 28  1  0  0  0  0
  4  5  1  0  0  0  0
  4 15  1  0  0  0  0
  4  6  1  0  0  0  0
  6  7  1  0  0  0  0
  6 29  1  0  0  0  0
  6 30  1  0  0  0  0
  7  8  1  0  0  0  0
  7 31  1  0  0  0  0
  7 32  1  0  0  0  0
  8  9  2  0  0  0  0
  8 42  1  0  0  0  0
  9 10  1  0  0  0  0
  9 15  1  0  0  0  0
 10 11  2  0  0  0  0
 10 14  1  0  0  0  0
 11 12  1  0  0  0  0
 12 13  1  0  0  0  0
 12 42  2  0  0  0  0
 13 33  1  0  0  0  0
 13 34  1  0  0  0  0
 14 35  1  0  0  0  0
 14 36  1  0  0  0  0
 15 37  1  0  0  0  0
 15 38  1  0  0  0  0
 16 21  2  0  0  0  0
 16 17  1  0  0  0  0
 17 18  2  0  0  0  0
 17 39  1  0  0  0  0
 18 19  1  0  0  0  0
 18 40  1  0  0  0  0
 19 20  2  0  0  0  0
 19 23  1  0  0  0  0
 20 21  1  0  0  0  0
 20 22  1  0  0  0  0
 21 41  1  0  0  0  0
 42 43  1  0  0  0  0
M  CHG  1  42   1
M  END
$$$$
ZINC03814877
  -OEChem-08230709403D

 39 41  0     1  0  0  0  0  0999 V2000
   -0.0383   -0.1328   -7.4290 C   0  0  0  0  0  0  0  0  0  0  0  0
   -1.1085    0.7292   -7.2734 C   0  0  0  0  0  0  0  0  0  0  0  0
   -1.4298    1.2151   -6.0205 C   0  0  0  0  0  0  0  0  0  0  0  0
   -0.6758    0.8364   -4.9153 C   0  0  0  0  0  0  0  0  0  0  0  0
    0.4013   -0.0245   -5.0756 C   0  0  0  0  0  0  0  0  0  0  0  0
    0.7138   -0.5120   -6.3313 C   0  0  0  0  0  0  0  0  0  0  0  0
    2.0558   -1.5948   -6.5318 Cl  0  0  0  0  0  0  0  0  0  0  0  0
   -0.9982    1.3260   -3.6467 N   0  0  0  0  0  0  0  0  0  0  0  0
   -0.2027    0.9260   -2.4833 C   0  0  0  0  0  0  0  0  0  0  0  0
   -0.7623    1.5977   -1.2276 C   0  0  1  0  0  0  0  0  0  0  0  0
   -1.8239    1.3699   -1.1325 H   0  0  0  0  0  0  0  0  0  0  0  0
   -0.0127    1.0858    0.0080 C   0  0  0  0  0  0  0  0  0  0  0  0
   -0.7360    1.5826    1.2589 C   0  0  0  0  0  0  0  0  0  0  0  0
   -0.9709    3.0674    1.1753 C   0  0  0  0  0  0  0  0  0  0  0  0
   -0.8985    3.7641   -0.0060 C   0  0  0  0  0  0  0  0  0  0  0  0
   -1.1426    5.1431    0.0144 C   0  0  0  0  0  0  0  0  0  0  0  0
   -1.4311    5.7338    1.1680 N   0  0  0  0  0  0  0  0  0  0  0  0
   -1.4868    5.0280    2.2874 C   0  0  0  0  0  0  0  0  0  0  0  0
   -1.2623    3.7242    2.2954 N   0  0  0  0  0  0  0  0  0  0  0  0
   -1.7862    5.6694    3.4765 N   0  0  0  0  0  0  0  0  0  0  0  0
   -1.0833    5.8824   -1.1557 N   0  0  0  0  0  0  0  0  0  0  0  0
   -0.5677    3.1107   -1.3192 C   0  0  0  0  0  0  0  0  0  0  0  0
   -2.7737    2.2966   -5.8262 Cl  0  0  0  0  0  0  0  0  0  0  0  0
    0.2107   -0.5111   -8.4095 H   0  0  0  0  0  0  0  0  0  0  0  0
   -1.6936    1.0233   -8.1323 H   0  0  0  0  0  0  0  0  0  0  0  0
    0.9916   -0.3170   -4.2198 H   0  0  0  0  0  0  0  0  0  0  0  0
   -1.7486    1.9307   -3.5365 H   0  0  0  0  0  0  0  0  0  0  0  0
    0.8331    1.2328   -2.6286 H   0  0  0  0  0  0  0  0  0  0  0  0
   -0.2481   -0.1568   -2.3670 H   0  0  0  0  0  0  0  0  0  0  0  0
    0.0021   -0.0041    0.0020 H   0  0  0  0  0  0  0  0  0  0  0  0
    1.0088    1.4660    0.0003 H   0  0  0  0  0  0  0  0  0  0  0  0
   -1.6956    1.0731    1.3465 H   0  0  0  0  0  0  0  0  0  0  0  0
   -0.1312    1.3589    2.1377 H   0  0  0  0  0  0  0  0  0  0  0  0
   -1.8296    5.1635    4.3030 H   0  0  0  0  0  0  0  0  0  0  0  0
   -1.9528    6.6250    3.4836 H   0  0  0  0  0  0  0  0  0  0  0  0
   -0.8717    5.4453   -1.9954 H   0  0  0  0  0  0  0  0  0  0  0  0
   -1.2533    6.8372   -1.1352 H   0  0  0  0  0  0  0  0  0  0  0  0
    0.4692    3.3256   -1.5775 H   0  0  0  0  0  0  0  0  0  0  0  0
   -1.2197    3.5114   -2.0954 H   0  0  0  0  0  0  0  0  0  0  0  0
  1  6  2  0  0  0  0
  1  2  1  0  0  0  0
  1 24  1  0  0  0  0
  2  3  2  0  0  0  0
  2 25  1  0  0  0  0
  3  4  1  0  0  0  0
  3 23  1  0  0  0  0
  4  5  2  0  0  0  0
  4  8  1  0  0  0  0
  5  6  1  0  0  0  0
  5 26  1  0  0  0  0
  6  7  1  0  0  0  0
  8  9  1  0  0  0  0
  8 27  1  0  0  0  0
  9 10  1  0  0  0  0
  9 28  1  0  0  0  0
  9 29  1  0  0  0  0
 10 11  1  0  0  0  0
 10 22  1  0  0  0  0
 10 12  1  0  0  0  0
 12 13  1  0  0  0  0
 12 30  1  0  0  0  0
 12 31  1  0  0  0  0
 13 14  1  0  0  0  0
 13 32  1  0  0  0  0
 13 33  1  0  0  0  0
 14 19  2  0  0  0  0
 14 15  1  0  0  0  0
 15 16  2  0  0  0  0
 15 22  1  0  0  0  0
 16 17  1  0  0  0  0
 16 21  1  0  0  0  0
 17 18  2  0  0  0  0
 18 19  1  0  0  0  0
 18 20  1  0  0  0  0
 20 34  1  0  0  0  0
 20 35  1  0  0  0  0
 21 36  1  0  0  0  0
 21 37  1  0  0  0  0
 22 38  1  0  0  0  0
 22 39  1  0  0  0  0
M  END
$$$$
ZINC03814877
  -OEChem-08230709403D

 40 42  0     1  0  0  0  0  0999 V2000
   -0.0383   -0.1328   -7.4290 C   0  0  0  0  0  0  0  0  0  0  0  0
   -1.1085    0.7292   -7.2734 C   0  0  0  0  0  0  0  0  0  0  0  0
   -1.4298    1.2151   -6.0205 C   0  0  0  0  0  0  0  0  0  0  0  0
   -0.6758    0.8364   -4.9153 C   0  0  0  0  0  0  0  0  0  0  0  0
    0.4013   -0.0245   -5.0756 C   0  0  0  0  0  0  0  0  0  0  0  0
    0.7138   -0.5120   -6.3313 C   0  0  0  0  0  0  0  0  0  0  0  0
    2.0558   -1.5948   -6.5318 Cl  0  0  0  0  0  0  0  0  0  0  0  0
   -0.9982    1.3260   -3.6467 N   0  0  0  0  0  0  0  0  0  0  0  0
   -0.2027    0.9260   -2.4833 C   0  0  0  0  0  0  0  0  0  0  0  0
   -0.7623    1.5977   -1.2276 C   0  0  1  0  0  0  0  0  0  0  0  0
   -1.8239    1.3699   -1.1325 H   0  0  0  0  0  0  0  0  0  0  0  0
   -0.0127    1.0858    0.0080 C   0  0  0  0  0  0  0  0  0  0  0  0
   -0.7360    1.5826    1.2589 C   0  0  0  0  0  0  0  0  0  0  0  0
   -0.9709    3.0674    1.1753 C   0  0  0  0  0  0  0  0  0  0  0  0
   -0.8985    3.7641   -0.0060 C   0  0  0  0  0  0  0  0  0  0  0  0
   -1.1426    5.1431    0.0144 C   0  0  0  0  0  0  0  0  0  0  0  0
   -1.4311    5.7338    1.1680 N   0  0  0  0  0  0  0  0  0  0  0  0
   -1.4868    5.0280    2.2874 C   0  0  0  0  0  0  0  0  0  0  0  0
   -1.7862    5.6694    3.4765 N   0  0  0  0  0  0  0  0  0  0  0  0
   -1.0833    5.8824   -1.1557 N   0  0  0  0  0  0  0  0  0  0  0  0
   -0.5677    3.1107   -1.3192 C   0  0  0  0  0  0  0  0  0  0  0  0
   -2.7737    2.2966   -5.8262 Cl  0  0  0  0  0  0  0  0  0  0  0  0
    0.2107   -0.5111   -8.4095 H   0  0  0  0  0  0  0  0  0  0  0  0
   -1.6936    1.0233   -8.1323 H   0  0  0  0  0  0  0  0  0  0  0  0
    0.9916   -0.3170   -4.2198 H   0  0  0  0  0  0  0  0  0  0  0  0
   -1.7486    1.9307   -3.5365 H   0  0  0  0  0  0  0  0  0  0  0  0
    0.8331    1.2328   -2.6286 H   0  0  0  0  0  0  0  0  0  0  0  0
   -0.2481   -0.1568   -2.3670 H   0  0  0  0  0  0  0  0  0  0  0  0
    0.0021   -0.0041    0.0020 H   0  0  0  0  0  0  0  0  0  0  0  0
    1.0088    1.4660    0.0003 H   0  0  0  0  0  0  0  0  0  0  0  0
   -1.6956    1.0731    1.3465 H   0  0  0  0  0  0  0  0  0  0  0  0
   -0.1312    1.3589    2.1377 H   0  0  0  0  0  0  0  0  0  0  0  0
   -1.8296    5.1635    4.3030 H   0  0  0  0  0  0  0  0  0  0  0  0
   -1.9528    6.6250    3.4836 H   0  0  0  0  0  0  0  0  0  0  0  0
   -0.8717    5.4453   -1.9954 H   0  0  0  0  0  0  0  0  0  0  0  0
   -1.2533    6.8372   -1.1352 H   0  0  0  0  0  0  0  0  0  0  0  0
    0.4692    3.3256   -1.5775 H   0  0  0  0  0  0  0  0  0  0  0  0
   -1.2197    3.5114   -2.0954 H   0  0  0  0  0  0  0  0  0  0  0  0
   -1.2662    3.6859    2.3617 N   0  3  0  0  0  0  0  0  0  0  0  0
   -1.3079    3.1527    3.2067 H   0  0  0  0  0  0  0  0  0  0  0  0
  1  6  2  0  0  0  0
  1  2  1  0  0  0  0
  1 23  1  0  0  0  0
  2  3  2  0  0  0  0
  2 24  1  0  0  0  0
  3  4  1  0  0  0  0
  3 22  1  0  0  0  0
  4  5  2  0  0  0  0
  4  8  1  0  0  0  0
  5  6  1  0  0  0  0
  5 25  1  0  0  0  0
  6  7  1  0  0  0  0
  8  9  1  0  0  0  0
  8 26  1  0  0  0  0
  9 10  1  0  0  0  0
  9 27  1  0  0  0  0
  9 28  1  0  0  0  0
 10 11  1  0  0  0  0
 10 21  1  0  0  0  0
 10 12  1  0  0  0  0
 12 13  1  0  0  0  0
 12 29  1  0  0  0  0
 12 30  1  0  0  0  0
 13 14  1  0  0  0  0
 13 31  1  0  0  0  0
 13 32  1  0  0  0  0
 14 15  2  0  0  0  0
 14 39  1  0  0  0  0
 15 16  1  0  0  0  0
 15 21  1  0  0  0  0
 16 17  2  0  0  0  0
 16 20  1  0  0  0  0
 17 18  1  0  0  0  0
 18 19  1  0  0  0  0
 18 39  2  0  0  0  0
 19 33  1  0  0  0  0
 19 34  1  0  0  0  0
 20 35  1  0  0  0  0
 20 36  1  0  0  0  0
 21 37  1  0  0  0  0
 21 38  1  0  0  0  0
 39 40  1  0  0  0  0
M  CHG  1  39   1
M  END
$$$$
ZINC03814878
  -OEChem-08230709403D

 39 41  0     1  0  0  0  0  0999 V2000
    1.5311   10.3893   -0.4331 C   0  0  0  0  0  0  0  0  0  0  0  0
    1.8342    9.8775   -1.6814 C   0  0  0  0  0  0  0  0  0  0  0  0
    1.8414    8.5106   -1.8866 C   0  0  0  0  0  0  0  0  0  0  0  0
    1.5431    7.6505   -0.8367 C   0  0  0  0  0  0  0  0  0  0  0  0
    1.2334    8.1687    0.4149 C   0  0  0  0  0  0  0  0  0  0  0  0
    1.2342    9.5365    0.6141 C   0  0  0  0  0  0  0  0  0  0  0  0
    0.8529    7.0993    1.7284 Cl  0  0  0  0  0  0  0  0  0  0  0  0
    1.5489    6.2672   -1.0407 N   0  0  0  0  0  0  0  0  0  0  0  0
    2.5291    5.6102   -0.1658 C   0  0  0  0  0  0  0  0  0  0  0  0
    2.5064    4.1012   -0.4172 C   0  0  1  0  0  0  0  0  0  0  0  0
    2.6632    3.9040   -1.4777 H   0  0  0  0  0  0  0  0  0  0  0  0
    3.6126    3.4256    0.4016 C   0  0  0  0  0  0  0  0  0  0  0  0
    3.7211    1.9671   -0.0405 C   0  0  0  0  0  0  0  0  0  0  0  0
    2.3684    1.3082   -0.0189 C   0  0  0  0  0  0  0  0  0  0  0  0
    1.1968    2.0244    0.0015 C   0  0  0  0  0  0  0  0  0  0  0  0
   -0.0159    1.3236    0.0093 C   0  0  0  0  0  0  0  0  0  0  0  0
    0.0021   -0.0041    0.0020 N   0  0  0  0  0  0  0  0  0  0  0  0
    1.1532   -0.6590   -0.0129 C   0  0  0  0  0  0  0  0  0  0  0  0
    2.3123   -0.0214   -0.0240 N   0  0  0  0  0  0  0  0  0  0  0  0
    1.1432   -2.0429   -0.0173 N   0  0  0  0  0  0  0  0  0  0  0  0
   -1.2204    2.0079    0.0188 N   0  0  0  0  0  0  0  0  0  0  0  0
    1.1600    3.5274    0.0228 C   0  0  0  0  0  0  0  0  0  0  0  0
    2.2232    7.8691   -3.4539 Cl  0  0  0  0  0  0  0  0  0  0  0  0
    1.5266   11.4578   -0.2756 H   0  0  0  0  0  0  0  0  0  0  0  0
    2.0659   10.5465   -2.4969 H   0  0  0  0  0  0  0  0  0  0  0  0
    0.9983    9.9399    1.5878 H   0  0  0  0  0  0  0  0  0  0  0  0
    0.6275    5.8782   -0.9075 H   0  0  0  0  0  0  0  0  0  0  0  0
    2.2771    5.8088    0.8759 H   0  0  0  0  0  0  0  0  0  0  0  0
    3.5248    5.9991   -0.3792 H   0  0  0  0  0  0  0  0  0  0  0  0
    3.3622    3.4693    1.4616 H   0  0  0  0  0  0  0  0  0  0  0  0
    4.5619    3.9324    0.2284 H   0  0  0  0  0  0  0  0  0  0  0  0
    4.3918    1.4350    0.6341 H   0  0  0  0  0  0  0  0  0  0  0  0
    4.1255    1.9263   -1.0519 H   0  0  0  0  0  0  0  0  0  0  0  0
    0.2997   -2.5219   -0.0096 H   0  0  0  0  0  0  0  0  0  0  0  0
    1.9797   -2.5339   -0.0282 H   0  0  0  0  0  0  0  0  0  0  0  0
   -2.0571    1.5170    0.0201 H   0  0  0  0  0  0  0  0  0  0  0  0
   -1.2272    2.9778    0.0241 H   0  0  0  0  0  0  0  0  0  0  0  0
    0.9361    3.8681    1.0337 H   0  0  0  0  0  0  0  0  0  0  0  0
    0.3805    3.8784   -0.6534 H   0  0  0  0  0  0  0  0  0  0  0  0
  1  6  2  0  0  0  0
  1  2  1  0  0  0  0
  1 24  1  0  0  0  0
  2  3  2  0  0  0  0
  2 25  1  0  0  0  0
  3  4  1  0  0  0  0
  3 23  1  0  0  0  0
  4  5  2  0  0  0  0
  4  8  1  0  0  0  0
  5  6  1  0  0  0  0
  5  7  1  0  0  0  0
  6 26  1  0  0  0  0
  8  9  1  0  0  0  0
  8 27  1  0  0  0  0
  9 10  1  0  0  0  0
  9 28  1  0  0  0  0
  9 29  1  0  0  0  0
 10 11  1  0  0  0  0
 10 22  1  0  0  0  0
 10 12  1  0  0  0  0
 12 13  1  0  0  0  0
 12 30  1  0  0  0  0
 12 31  1  0  0  0  0
 13 14  1  0  0  0  0
 13 32  1  0  0  0  0
 13 33  1  0  0  0  0
 14 19  2  0  0  0  0
 14 15  1  0  0  0  0
 15 16  2  0  0  0  0
 15 22  1  0  0  0  0
 16 17  1  0  0  0  0
 16 21  1  0  0  0  0
 17 18  2  0  0  0  0
 18 19  1  0  0  0  0
 18 20  1  0  0  0  0
 20 34  1  0  0  0  0
 20 35  1  0  0  0  0
 21 36  1  0  0  0  0
 21 37  1  0  0  0  0
 22 38  1  0  0  0  0
 22 39  1  0  0  0  0
M  END
$$$$
ZINC03814878
  -OEChem-08230709403D

 40 42  0     1  0  0  0  0  0999 V2000
    1.5311   10.3893   -0.4331 C   0  0  0  0  0  0  0  0  0  0  0  0
    1.8342    9.8775   -1.6814 C   0  0  0  0  0  0  0  0  0  0  0  0
    1.8414    8.5106   -1.8866 C   0  0  0  0  0  0  0  0  0  0  0  0
    1.5431    7.6505   -0.8367 C   0  0  0  0  0  0  0  0  0  0  0  0
    1.2334    8.1687    0.4149 C   0  0  0  0  0  0  0  0  0  0  0  0
    1.2342    9.5365    0.6141 C   0  0  0  0  0  0  0  0  0  0  0  0
    0.8529    7.0993    1.7284 Cl  0  0  0  0  0  0  0  0  0  0  0  0
    1.5489    6.2672   -1.0407 N   0  0  0  0  0  0  0  0  0  0  0  0
    2.5291    5.6102   -0.1658 C   0  0  0  0  0  0  0  0  0  0  0  0
    2.5064    4.1012   -0.4172 C   0  0  1  0  0  0  0  0  0  0  0  0
    2.6632    3.9040   -1.4777 H   0  0  0  0  0  0  0  0  0  0  0  0
    3.6126    3.4256    0.4016 C   0  0  0  0  0  0  0  0  0  0  0  0
    3.7211    1.9671   -0.0405 C   0  0  0  0  0  0  0  0  0  0  0  0
    2.3684    1.3082   -0.0189 C   0  0  0  0  0  0  0  0  0  0  0  0
    1.1968    2.0244    0.0015 C   0  0  0  0  0  0  0  0  0  0  0  0
   -0.0159    1.3236    0.0093 C   0  0  0  0  0  0  0  0  0  0  0  0
    0.0021   -0.0041    0.0020 N   0  0  0  0  0  0  0  0  0  0  0  0
    1.1532   -0.6590   -0.0129 C   0  0  0  0  0  0  0  0  0  0  0  0
    1.1432   -2.0429   -0.0173 N   0  0  0  0  0  0  0  0  0  0  0  0
   -1.2204    2.0079    0.0188 N   0  0  0  0  0  0  0  0  0  0  0  0
    1.1600    3.5274    0.0228 C   0  0  0  0  0  0  0  0  0  0  0  0
    2.2232    7.8691   -3.4539 Cl  0  0  0  0  0  0  0  0  0  0  0  0
    1.5266   11.4578   -0.2756 H   0  0  0  0  0  0  0  0  0  0  0  0
    2.0659   10.5465   -2.4969 H   0  0  0  0  0  0  0  0  0  0  0  0
    0.9983    9.9399    1.5878 H   0  0  0  0  0  0  0  0  0  0  0  0
    0.6275    5.8782   -0.9075 H   0  0  0  0  0  0  0  0  0  0  0  0
    2.2771    5.8088    0.8759 H   0  0  0  0  0  0  0  0  0  0  0  0
    3.5248    5.9991   -0.3792 H   0  0  0  0  0  0  0  0  0  0  0  0
    3.3622    3.4693    1.4616 H   0  0  0  0  0  0  0  0  0  0  0  0
    4.5619    3.9324    0.2284 H   0  0  0  0  0  0  0  0  0  0  0  0
    4.3918    1.4350    0.6341 H   0  0  0  0  0  0  0  0  0  0  0  0
    4.1255    1.9263   -1.0519 H   0  0  0  0  0  0  0  0  0  0  0  0
    0.2997   -2.5219   -0.0096 H   0  0  0  0  0  0  0  0  0  0  0  0
    1.9797   -2.5339   -0.0282 H   0  0  0  0  0  0  0  0  0  0  0  0
   -2.0571    1.5170    0.0201 H   0  0  0  0  0  0  0  0  0  0  0  0
   -1.2272    2.9778    0.0241 H   0  0  0  0  0  0  0  0  0  0  0  0
    0.9361    3.8681    1.0337 H   0  0  0  0  0  0  0  0  0  0  0  0
    0.3805    3.8784   -0.6534 H   0  0  0  0  0  0  0  0  0  0  0  0
    2.3774   -0.0619   -0.0250 N   0  3  0  0  0  0  0  0  0  0  0  0
    3.2466   -0.5562   -0.0375 H   0  0  0  0  0  0  0  0  0  0  0  0
  1  6  2  0  0  0  0
  1  2  1  0  0  0  0
  1 23  1  0  0  0  0
  2  3  2  0  0  0  0
  2 24  1  0  0  0  0
  3  4  1  0  0  0  0
  3 22  1  0  0  0  0
  4  5  2  0  0  0  0
  4  8  1  0  0  0  0
  5  6  1  0  0  0  0
  5  7  1  0  0  0  0
  6 25  1  0  0  0  0
  8  9  1  0  0  0  0
  8 26  1  0  0  0  0
  9 10  1  0  0  0  0
  9 27  1  0  0  0  0
  9 28  1  0  0  0  0
 10 11  1  0  0  0  0
 10 21  1  0  0  0  0
 10 12  1  0  0  0  0
 12 13  1  0  0  0  0
 12 29  1  0  0  0  0
 12 30  1  0  0  0  0
 13 14  1  0  0  0  0
 13 31  1  0  0  0  0
 13 32  1  0  0  0  0
 14 15  2  0  0  0  0
 14 39  1  0  0  0  0
 15 16  1  0  0  0  0
 15 21  1  0  0  0  0
 16 17  2  0  0  0  0
 16 20  1  0  0  0  0
 17 18  1  0  0  0  0
 18 19  1  0  0  0  0
 18 39  2  0  0  0  0
 19 33  1  0  0  0  0
 19 34  1  0  0  0  0
 20 35  1  0  0  0  0
 20 36  1  0  0  0  0
 21 37  1  0  0  0  0
 21 38  1  0  0  0  0
 39 40  1  0  0  0  0
M  CHG  1  39   1
M  END
$$$$
ZINC03814879
  -OEChem-08230709403D

 39 41  0     1  0  0  0  0  0999 V2000
    2.1514    8.4107   -0.1086 C   0  0  0  0  0  0  0  0  0  0  0  0
    1.9940    9.7822   -0.0661 C   0  0  0  0  0  0  0  0  0  0  0  0
    1.0699   10.3997   -0.8905 C   0  0  0  0  0  0  0  0  0  0  0  0
    0.3058    9.6462   -1.7642 C   0  0  0  0  0  0  0  0  0  0  0  0
    0.4635    8.2751   -1.8153 C   0  0  0  0  0  0  0  0  0  0  0  0
    1.3899    7.6526   -0.9887 C   0  0  0  0  0  0  0  0  0  0  0  0
    1.5516    6.2654   -1.0383 N   0  0  0  0  0  0  0  0  0  0  0  0
    2.5291    5.6102   -0.1658 C   0  0  0  0  0  0  0  0  0  0  0  0
    2.5064    4.1012   -0.4172 C   0  0  1  0  0  0  0  0  0  0  0  0
    2.6632    3.9040   -1.4777 H   0  0  0  0  0  0  0  0  0  0  0  0
    3.6126    3.4256    0.4016 C   0  0  0  0  0  0  0  0  0  0  0  0
    3.7211    1.9671   -0.0405 C   0  0  0  0  0  0  0  0  0  0  0  0
    2.3684    1.3082   -0.0189 C   0  0  0  0  0  0  0  0  0  0  0  0
    1.1968    2.0244    0.0015 C   0  0  0  0  0  0  0  0  0  0  0  0
   -0.0159    1.3236    0.0093 C   0  0  0  0  0  0  0  0  0  0  0  0
    0.0021   -0.0041    0.0020 N   0  0  0  0  0  0  0  0  0  0  0  0
    1.1532   -0.6590   -0.0129 C   0  0  0  0  0  0  0  0  0  0  0  0
    2.3123   -0.0214   -0.0240 N   0  0  0  0  0  0  0  0  0  0  0  0
    1.1432   -2.0429   -0.0173 N   0  0  0  0  0  0  0  0  0  0  0  0
   -1.2204    2.0079    0.0188 N   0  0  0  0  0  0  0  0  0  0  0  0
    1.1600    3.5274    0.0228 C   0  0  0  0  0  0  0  0  0  0  0  0
    0.8691   12.1230   -0.8289 Cl  0  0  0  0  0  0  0  0  0  0  0  0
    2.8691    7.9287    0.5387 H   0  0  0  0  0  0  0  0  0  0  0  0
    2.5895   10.3728    0.6143 H   0  0  0  0  0  0  0  0  0  0  0  0
   -0.4141   10.1308   -2.4070 H   0  0  0  0  0  0  0  0  0  0  0  0
   -0.1329    7.6875   -2.4977 H   0  0  0  0  0  0  0  0  0  0  0  0
    1.0165    5.7364   -1.6504 H   0  0  0  0  0  0  0  0  0  0  0  0
    2.2771    5.8088    0.8759 H   0  0  0  0  0  0  0  0  0  0  0  0
    3.5248    5.9991   -0.3792 H   0  0  0  0  0  0  0  0  0  0  0  0
    3.3622    3.4693    1.4616 H   0  0  0  0  0  0  0  0  0  0  0  0
    4.5608    3.9333    0.2251 H   0  0  0  0  0  0  0  0  0  0  0  0
    4.3918    1.4350    0.6341 H   0  0  0  0  0  0  0  0  0  0  0  0
    4.1255    1.9263   -1.0519 H   0  0  0  0  0  0  0  0  0  0  0  0
    0.2997   -2.5219   -0.0096 H   0  0  0  0  0  0  0  0  0  0  0  0
    1.9797   -2.5339   -0.0282 H   0  0  0  0  0  0  0  0  0  0  0  0
   -2.0571    1.5170    0.0201 H   0  0  0  0  0  0  0  0  0  0  0  0
   -1.2272    2.9778    0.0241 H   0  0  0  0  0  0  0  0  0  0  0  0
    0.9361    3.8681    1.0337 H   0  0  0  0  0  0  0  0  0  0  0  0
    0.3805    3.8784   -0.6534 H   0  0  0  0  0  0  0  0  0  0  0  0
  1  6  2  0  0  0  0
  1  2  1  0  0  0  0
  1 23  1  0  0  0  0
  2  3  2  0  0  0  0
  2 24  1  0  0  0  0
  3  4  1  0  0  0  0
  3 22  1  0  0  0  0
  4  5  2  0  0  0  0
  4 25  1  0  0  0  0
  5  6  1  0  0  0  0
  5 26  1  0  0  0  0
  6  7  1  0  0  0  0
  7  8  1  0  0  0  0
  7 27  1  0  0  0  0
  8  9  1  0  0  0  0
  8 28  1  0  0  0  0
  8 29  1  0  0  0  0
  9 10  1  0  0  0  0
  9 21  1  0  0  0  0
  9 11  1  0  0  0  0
 11 12  1  0  0  0  0
 11 30  1  0  0  0  0
 11 31  1  0  0  0  0
 12 13  1  0  0  0  0
 12 32  1  0  0  0  0
 12 33  1  0  0  0  0
 13 18  2  0  0  0  0
 13 14  1  0  0  0  0
 14 15  2  0  0  0  0
 14 21  1  0  0  0  0
 15 16  1  0  0  0  0
 15 20  1  0  0  0  0
 16 17  2  0  0  0  0
 17 18  1  0  0  0  0
 17 19  1  0  0  0  0
 19 34  1  0  0  0  0
 19 35  1  0  0  0  0
 20 36  1  0  0  0  0
 20 37  1  0  0  0  0
 21 38  1  0  0  0  0
 21 39  1  0  0  0  0
M  END
$$$$
ZINC03814879
  -OEChem-08230709403D

 40 42  0     1  0  0  0  0  0999 V2000
    2.1514    8.4107   -0.1086 C   0  0  0  0  0  0  0  0  0  0  0  0
    1.9940    9.7822   -0.0661 C   0  0  0  0  0  0  0  0  0  0  0  0
    1.0699   10.3997   -0.8905 C   0  0  0  0  0  0  0  0  0  0  0  0
    0.3058    9.6462   -1.7642 C   0  0  0  0  0  0  0  0  0  0  0  0
    0.4635    8.2751   -1.8153 C   0  0  0  0  0  0  0  0  0  0  0  0
    1.3899    7.6526   -0.9887 C   0  0  0  0  0  0  0  0  0  0  0  0
    1.5516    6.2654   -1.0383 N   0  0  0  0  0  0  0  0  0  0  0  0
    2.5291    5.6102   -0.1658 C   0  0  0  0  0  0  0  0  0  0  0  0
    2.5064    4.1012   -0.4172 C   0  0  1  0  0  0  0  0  0  0  0  0
    2.6632    3.9040   -1.4777 H   0  0  0  0  0  0  0  0  0  0  0  0
    3.6126    3.4256    0.4016 C   0  0  0  0  0  0  0  0  0  0  0  0
    3.7211    1.9671   -0.0405 C   0  0  0  0  0  0  0  0  0  0  0  0
    2.3684    1.3082   -0.0189 C   0  0  0  0  0  0  0  0  0  0  0  0
    1.1968    2.0244    0.0015 C   0  0  0  0  0  0  0  0  0  0  0  0
   -0.0159    1.3236    0.0093 C   0  0  0  0  0  0  0  0  0  0  0  0
    0.0021   -0.0041    0.0020 N   0  0  0  0  0  0  0  0  0  0  0  0
    1.1532   -0.6590   -0.0129 C   0  0  0  0  0  0  0  0  0  0  0  0
    1.1432   -2.0429   -0.0173 N   0  0  0  0  0  0  0  0  0  0  0  0
   -1.2204    2.0079    0.0188 N   0  0  0  0  0  0  0  0  0  0  0  0
    1.1600    3.5274    0.0228 C   0  0  0  0  0  0  0  0  0  0  0  0
    0.8691   12.1230   -0.8289 Cl  0  0  0  0  0  0  0  0  0  0  0  0
    2.8691    7.9287    0.5387 H   0  0  0  0  0  0  0  0  0  0  0  0
    2.5895   10.3728    0.6143 H   0  0  0  0  0  0  0  0  0  0  0  0
   -0.4141   10.1308   -2.4070 H   0  0  0  0  0  0  0  0  0  0  0  0
   -0.1329    7.6875   -2.4977 H   0  0  0  0  0  0  0  0  0  0  0  0
    1.0165    5.7364   -1.6504 H   0  0  0  0  0  0  0  0  0  0  0  0
    2.2771    5.8088    0.8759 H   0  0  0  0  0  0  0  0  0  0  0  0
    3.5248    5.9991   -0.3792 H   0  0  0  0  0  0  0  0  0  0  0  0
    3.3622    3.4693    1.4616 H   0  0  0  0  0  0  0  0  0  0  0  0
    4.5608    3.9333    0.2251 H   0  0  0  0  0  0  0  0  0  0  0  0
    4.3918    1.4350    0.6341 H   0  0  0  0  0  0  0  0  0  0  0  0
    4.1255    1.9263   -1.0519 H   0  0  0  0  0  0  0  0  0  0  0  0
    0.2997   -2.5219   -0.0096 H   0  0  0  0  0  0  0  0  0  0  0  0
    1.9797   -2.5339   -0.0282 H   0  0  0  0  0  0  0  0  0  0  0  0
   -2.0571    1.5170    0.0201 H   0  0  0  0  0  0  0  0  0  0  0  0
   -1.2272    2.9778    0.0241 H   0  0  0  0  0  0  0  0  0  0  0  0
    0.9361    3.8681    1.0337 H   0  0  0  0  0  0  0  0  0  0  0  0
    0.3805    3.8784   -0.6534 H   0  0  0  0  0  0  0  0  0  0  0  0
    2.3774   -0.0619   -0.0250 N   0  3  0  0  0  0  0  0  0  0  0  0
    3.2466   -0.5562   -0.0375 H   0  0  0  0  0  0  0  0  0  0  0  0
  1  6  2  0  0  0  0
  1  2  1  0  0  0  0
  1 22  1  0  0  0  0
  2  3  2  0  0  0  0
  2 23  1  0  0  0  0
  3  4  1  0  0  0  0
  3 21  1  0  0  0  0
  4  5  2  0  0  0  0
  4 24  1  0  0  0  0
  5  6  1  0  0  0  0
  5 25  1  0  0  0  0
  6  7  1  0  0  0  0
  7  8  1  0  0  0  0
  7 26  1  0  0  0  0
  8  9  1  0  0  0  0
  8 27  1  0  0  0  0
  8 28  1  0  0  0  0
  9 10  1  0  0  0  0
  9 20  1  0  0  0  0
  9 11  1  0  0  0  0
 11 12  1  0  0  0  0
 11 29  1  0  0  0  0
 11 30  1  0  0  0  0
 12 13  1  0  0  0  0
 12 31  1  0  0  0  0
 12 32  1  0  0  0  0
 13 14  2  0  0  0  0
 13 39  1  0  0  0  0
 14 15  1  0  0  0  0
 14 20  1  0  0  0  0
 15 16  2  0  0  0  0
 15 19  1  0  0  0  0
 16 17  1  0  0  0  0
 17 18  1  0  0  0  0
 17 39  2  0  0  0  0
 18 33  1  0  0  0  0
 18 34  1  0  0  0  0
 19 35  1  0  0  0  0
 19 36  1  0  0  0  0
 20 37  1  0  0  0  0
 20 38  1  0  0  0  0
 39 40  1  0  0  0  0
M  CHG  1  39   1
M  END
$$$$
ZINC03814880
  -OEChem-08230709403D

 42 44  0     1  0  0  0  0  0999 V2000
   -2.1601    0.5364   -4.0456 C   0  0  0  0  0  0  0  0  0  0  0  0
   -0.9945    1.3296   -3.6475 N   0  0  3  0  0  0  0  0  0  0  0  0
   -0.1993    0.9299   -2.4838 C   0  0  0  0  0  0  0  0  0  0  0  0
   -0.7623    1.5977   -1.2276 C   0  0  1  0  0  0  0  0  0  0  0  0
   -1.8234    1.3666   -1.1342 H   0  0  0  0  0  0  0  0  0  0  0  0
   -0.0127    1.0858    0.0080 C   0  0  0  0  0  0  0  0  0  0  0  0
   -0.7360    1.5826    1.2589 C   0  0  0  0  0  0  0  0  0  0  0  0
   -0.9709    3.0674    1.1753 C   0  0  0  0  0  0  0  0  0  0  0  0
   -0.8985    3.7641   -0.0060 C   0  0  0  0  0  0  0  0  0  0  0  0
   -1.1426    5.1431    0.0144 C   0  0  0  0  0  0  0  0  0  0  0  0
   -1.4311    5.7338    1.1680 N   0  0  0  0  0  0  0  0  0  0  0  0
   -1.4868    5.0280    2.2874 C   0  0  0  0  0  0  0  0  0  0  0  0
   -1.2623    3.7242    2.2954 N   0  0  0  0  0  0  0  0  0  0  0  0
   -1.7862    5.6694    3.4765 N   0  0  0  0  0  0  0  0  0  0  0  0
   -1.0833    5.8824   -1.1557 N   0  0  0  0  0  0  0  0  0  0  0  0
   -0.5677    3.1107   -1.3192 C   0  0  0  0  0  0  0  0  0  0  0  0
   -0.6412    2.4675   -4.3777 C   0  0  0  0  0  0  0  0  0  0  0  0
    0.4603    3.2236   -3.9980 C   0  0  0  0  0  0  0  0  0  0  0  0
    0.8108    4.3442   -4.7252 C   0  0  0  0  0  0  0  0  0  0  0  0
    0.0585    4.7209   -5.8239 C   0  0  0  0  0  0  0  0  0  0  0  0
   -1.0427    3.9726   -6.2011 C   0  0  0  0  0  0  0  0  0  0  0  0
   -1.3942    2.8476   -5.4812 C   0  0  0  0  0  0  0  0  0  0  0  0
    0.4974    6.1344   -6.7311 Cl  0  0  0  0  0  0  0  0  0  0  0  0
   -3.0474    0.9146   -3.5380 H   0  0  0  0  0  0  0  0  0  0  0  0
   -2.2990    0.6109   -5.1241 H   0  0  0  0  0  0  0  0  0  0  0  0
   -2.0010   -0.5063   -3.7709 H   0  0  0  0  0  0  0  0  0  0  0  0
    0.8358    1.2399   -2.6273 H   0  0  0  0  0  0  0  0  0  0  0  0
   -0.2416   -0.1533   -2.3695 H   0  0  0  0  0  0  0  0  0  0  0  0
    0.0021   -0.0041    0.0020 H   0  0  0  0  0  0  0  0  0  0  0  0
    1.0088    1.4660    0.0003 H   0  0  0  0  0  0  0  0  0  0  0  0
   -1.6956    1.0731    1.3465 H   0  0  0  0  0  0  0  0  0  0  0  0
   -0.1312    1.3589    2.1377 H   0  0  0  0  0  0  0  0  0  0  0  0
   -1.8296    5.1635    4.3030 H   0  0  0  0  0  0  0  0  0  0  0  0
   -1.9528    6.6250    3.4836 H   0  0  0  0  0  0  0  0  0  0  0  0
   -0.8717    5.4453   -1.9954 H   0  0  0  0  0  0  0  0  0  0  0  0
   -1.2533    6.8372   -1.1352 H   0  0  0  0  0  0  0  0  0  0  0  0
    0.4692    3.3256   -1.5775 H   0  0  0  0  0  0  0  0  0  0  0  0
   -1.2197    3.5114   -2.0954 H   0  0  0  0  0  0  0  0  0  0  0  0
    1.0447    2.9331   -3.1375 H   0  0  0  0  0  0  0  0  0  0  0  0
    1.6703    4.9296   -4.4335 H   0  0  0  0  0  0  0  0  0  0  0  0
   -1.6281    4.2689   -7.0590 H   0  0  0  0  0  0  0  0  0  0  0  0
   -2.2536    2.2638   -5.7762 H   0  0  0  0  0  0  0  0  0  0  0  0
  1  2  1  0  0  0  0
  1 24  1  0  0  0  0
  1 25  1  0  0  0  0
  1 26  1  0  0  0  0
  2  3  1  0  0  0  0
  2 17  1  0  0  0  0
  3  4  1  0  0  0  0
  3 27  1  0  0  0  0
  3 28  1  0  0  0  0
  4  5  1  0  0  0  0
  4 16  1  0  0  0  0
  4  6  1  0  0  0  0
  6  7  1  0  0  0  0
  6 29  1  0  0  0  0
  6 30  1  0  0  0  0
  7  8  1  0  0  0  0
  7 31  1  0  0  0  0
  7 32  1  0  0  0  0
  8 13  2  0  0  0  0
  8  9  1  0  0  0  0
  9 10  2  0  0  0  0
  9 16  1  0  0  0  0
 10 11  1  0  0  0  0
 10 15  1  0  0  0  0
 11 12  2  0  0  0  0
 12 13  1  0  0  0  0
 12 14  1  0  0  0  0
 14 33  1  0  0  0  0
 14 34  1  0  0  0  0
 15 35  1  0  0  0  0
 15 36  1  0  0  0  0
 16 37  1  0  0  0  0
 16 38  1  0  0  0  0
 17 22  2  0  0  0  0
 17 18  1  0  0  0  0
 18 19  2  0  0  0  0
 18 39  1  0  0  0  0
 19 20  1  0  0  0  0
 19 40  1  0  0  0  0
 20 21  2  0  0  0  0
 20 23  1  0  0  0  0
 21 22  1  0  0  0  0
 21 41  1  0  0  0  0
 22 42  1  0  0  0  0
M  END
$$$$
ZINC03814880
  -OEChem-08230709403D

 43 45  0     1  0  0  0  0  0999 V2000
   -2.1601    0.5364   -4.0456 C   0  0  0  0  0  0  0  0  0  0  0  0
   -0.9945    1.3296   -3.6475 N   0  0  3  0  0  0  0  0  0  0  0  0
   -0.1993    0.9299   -2.4838 C   0  0  0  0  0  0  0  0  0  0  0  0
   -0.7623    1.5977   -1.2276 C   0  0  1  0  0  0  0  0  0  0  0  0
   -1.8234    1.3666   -1.1342 H   0  0  0  0  0  0  0  0  0  0  0  0
   -0.0127    1.0858    0.0080 C   0  0  0  0  0  0  0  0  0  0  0  0
   -0.7360    1.5826    1.2589 C   0  0  0  0  0  0  0  0  0  0  0  0
   -0.9709    3.0674    1.1753 C   0  0  0  0  0  0  0  0  0  0  0  0
   -0.8985    3.7641   -0.0060 C   0  0  0  0  0  0  0  0  0  0  0  0
   -1.1426    5.1431    0.0144 C   0  0  0  0  0  0  0  0  0  0  0  0
   -1.4311    5.7338    1.1680 N   0  0  0  0  0  0  0  0  0  0  0  0
   -1.4868    5.0280    2.2874 C   0  0  0  0  0  0  0  0  0  0  0  0
   -1.7862    5.6694    3.4765 N   0  0  0  0  0  0  0  0  0  0  0  0
   -1.0833    5.8824   -1.1557 N   0  0  0  0  0  0  0  0  0  0  0  0
   -0.5677    3.1107   -1.3192 C   0  0  0  0  0  0  0  0  0  0  0  0
   -0.6412    2.4675   -4.3777 C   0  0  0  0  0  0  0  0  0  0  0  0
    0.4603    3.2236   -3.9980 C   0  0  0  0  0  0  0  0  0  0  0  0
    0.8108    4.3442   -4.7252 C   0  0  0  0  0  0  0  0  0  0  0  0
    0.0585    4.7209   -5.8239 C   0  0  0  0  0  0  0  0  0  0  0  0
   -1.0427    3.9726   -6.2011 C   0  0  0  0  0  0  0  0  0  0  0  0
   -1.3942    2.8476   -5.4812 C   0  0  0  0  0  0  0  0  0  0  0  0
    0.4974    6.1344   -6.7311 Cl  0  0  0  0  0  0  0  0  0  0  0  0
   -3.0474    0.9146   -3.5380 H   0  0  0  0  0  0  0  0  0  0  0  0
   -2.2990    0.6109   -5.1241 H   0  0  0  0  0  0  0  0  0  0  0  0
   -2.0010   -0.5063   -3.7709 H   0  0  0  0  0  0  0  0  0  0  0  0
    0.8358    1.2399   -2.6273 H   0  0  0  0  0  0  0  0  0  0  0  0
   -0.2416   -0.1533   -2.3695 H   0  0  0  0  0  0  0  0  0  0  0  0
    0.0021   -0.0041    0.0020 H   0  0  0  0  0  0  0  0  0  0  0  0
    1.0088    1.4660    0.0003 H   0  0  0  0  0  0  0  0  0  0  0  0
   -1.6956    1.0731    1.3465 H   0  0  0  0  0  0  0  0  0  0  0  0
   -0.1312    1.3589    2.1377 H   0  0  0  0  0  0  0  0  0  0  0  0
   -1.8296    5.1635    4.3030 H   0  0  0  0  0  0  0  0  0  0  0  0
   -1.9528    6.6250    3.4836 H   0  0  0  0  0  0  0  0  0  0  0  0
   -0.8717    5.4453   -1.9954 H   0  0  0  0  0  0  0  0  0  0  0  0
   -1.2533    6.8372   -1.1352 H   0  0  0  0  0  0  0  0  0  0  0  0
    0.4692    3.3256   -1.5775 H   0  0  0  0  0  0  0  0  0  0  0  0
   -1.2197    3.5114   -2.0954 H   0  0  0  0  0  0  0  0  0  0  0  0
    1.0447    2.9331   -3.1375 H   0  0  0  0  0  0  0  0  0  0  0  0
    1.6703    4.9296   -4.4335 H   0  0  0  0  0  0  0  0  0  0  0  0
   -1.6281    4.2689   -7.0590 H   0  0  0  0  0  0  0  0  0  0  0  0
   -2.2536    2.2638   -5.7762 H   0  0  0  0  0  0  0  0  0  0  0  0
   -1.2662    3.6859    2.3617 N   0  3  0  0  0  0  0  0  0  0  0  0
   -1.3079    3.1527    3.2067 H   0  0  0  0  0  0  0  0  0  0  0  0
  1  2  1  0  0  0  0
  1 23  1  0  0  0  0
  1 24  1  0  0  0  0
  1 25  1  0  0  0  0
  2  3  1  0  0  0  0
  2 16  1  0  0  0  0
  3  4  1  0  0  0  0
  3 26  1  0  0  0  0
  3 27  1  0  0  0  0
  4  5  1  0  0  0  0
  4 15  1  0  0  0  0
  4  6  1  0  0  0  0
  6  7  1  0  0  0  0
  6 28  1  0  0  0  0
  6 29  1  0  0  0  0
  7  8  1  0  0  0  0
  7 30  1  0  0  0  0
  7 31  1  0  0  0  0
  8  9  2  0  0  0  0
  8 42  1  0  0  0  0
  9 10  1  0  0  0  0
  9 15  1  0  0  0  0
 10 11  2  0  0  0  0
 10 14  1  0  0  0  0
 11 12  1  0  0  0  0
 12 13  1  0  0  0  0
 12 42  2  0  0  0  0
 13 32  1  0  0  0  0
 13 33  1  0  0  0  0
 14 34  1  0  0  0  0
 14 35  1  0  0  0  0
 15 36  1  0  0  0  0
 15 37  1  0  0  0  0
 16 21  2  0  0  0  0
 16 17  1  0  0  0  0
 17 18  2  0  0  0  0
 17 38  1  0  0  0  0
 18 19  1  0  0  0  0
 18 39  1  0  0  0  0
 19 20  2  0  0  0  0
 19 22  1  0  0  0  0
 20 21  1  0  0  0  0
 20 40  1  0  0  0  0
 21 41  1  0  0  0  0
 42 43  1  0  0  0  0
M  CHG  1  42   1
M  END
$$$$
ZINC03814881
  -OEChem-08230709403D

 39 41  0     1  0  0  0  0  0999 V2000
    1.8535    0.9061    6.3109 C   0  0  0  0  0  0  0  0  0  0  0  0
    1.2640    1.0374    5.0686 C   0  0  0  0  0  0  0  0  0  0  0  0
    0.0687    1.7329    4.9384 C   0  0  0  0  0  0  0  0  0  0  0  0
   -0.5361    2.2847    6.0606 C   0  0  0  0  0  0  0  0  0  0  0  0
    0.0557    2.1450    7.3014 C   0  0  0  0  0  0  0  0  0  0  0  0
    1.2495    1.4562    7.4262 C   0  0  0  0  0  0  0  0  0  0  0  0
   -0.7667    2.8950    8.8301 Br  0  0  0  0  0  0  0  0  0  0  0  0
   -0.5267    1.8723    3.6827 N   0  0  0  0  0  0  0  0  0  0  0  0
    0.1126    1.2897    2.5002 C   0  0  0  0  0  0  0  0  0  0  0  0
   -0.7383    1.5842    1.2632 C   0  0  1  0  0  0  0  0  0  0  0  0
   -0.9145    2.6569    1.1830 H   0  0  0  0  0  0  0  0  0  0  0  0
   -0.0127    1.0858    0.0080 C   0  0  0  0  0  0  0  0  0  0  0  0
   -0.7596    1.5959   -1.2235 C   0  0  0  0  0  0  0  0  0  0  0  0
   -2.2253    1.2709   -1.1227 C   0  0  0  0  0  0  0  0  0  0  0  0
   -2.8292    0.9368    0.0647 C   0  0  0  0  0  0  0  0  0  0  0  0
   -4.2018    0.6578    0.0623 C   0  0  0  0  0  0  0  0  0  0  0  0
   -4.8743    0.7198   -1.0810 N   0  0  0  0  0  0  0  0  0  0  0  0
   -4.2549    1.0414   -2.2067 C   0  0  0  0  0  0  0  0  0  0  0  0
   -2.9601    1.3118   -2.2314 N   0  0  0  0  0  0  0  0  0  0  0  0
   -4.9793    1.0963   -3.3846 N   0  0  0  0  0  0  0  0  0  0  0  0
   -4.8505    0.3217    1.2393 N   0  0  0  0  0  0  0  0  0  0  0  0
   -2.0795    0.8510    1.3652 C   0  0  0  0  0  0  0  0  0  0  0  0
    2.7851    0.3691    6.4118 H   0  0  0  0  0  0  0  0  0  0  0  0
    1.7343    0.6034    4.1986 H   0  0  0  0  0  0  0  0  0  0  0  0
   -1.4676    2.8226    5.9634 H   0  0  0  0  0  0  0  0  0  0  0  0
    1.7102    1.3478    8.3970 H   0  0  0  0  0  0  0  0  0  0  0  0
   -1.3634    2.3548    3.5935 H   0  0  0  0  0  0  0  0  0  0  0  0
    0.2033    0.2113    2.6304 H   0  0  0  0  0  0  0  0  0  0  0  0
    1.1037    1.7247    2.3715 H   0  0  0  0  0  0  0  0  0  0  0  0
    0.0021   -0.0041    0.0020 H   0  0  0  0  0  0  0  0  0  0  0  0
    1.0088    1.4659    0.0003 H   0  0  0  0  0  0  0  0  0  0  0  0
   -0.6344    2.6760   -1.2990 H   0  0  0  0  0  0  0  0  0  0  0  0
   -0.3467    1.1252   -2.1158 H   0  0  0  0  0  0  0  0  0  0  0  0
   -5.9293    0.9005   -3.3793 H   0  0  0  0  0  0  0  0  0  0  0  0
   -4.5370    1.3307   -4.2155 H   0  0  0  0  0  0  0  0  0  0  0  0
   -4.3539    0.2784    2.0714 H   0  0  0  0  0  0  0  0  0  0  0  0
   -5.8012    0.1295    1.2313 H   0  0  0  0  0  0  0  0  0  0  0  0
   -2.6775    1.3030    2.1565 H   0  0  0  0  0  0  0  0  0  0  0  0
   -1.8950   -0.1959    1.6064 H   0  0  0  0  0  0  0  0  0  0  0  0
  1  6  2  0  0  0  0
  1  2  1  0  0  0  0
  1 23  1  0  0  0  0
  2  3  2  0  0  0  0
  2 24  1  0  0  0  0
  3  4  1  0  0  0  0
  3  8  1  0  0  0  0
  4  5  2  0  0  0  0
  4 25  1  0  0  0  0
  5  6  1  0  0  0  0
  5  7  1  0  0  0  0
  6 26  1  0  0  0  0
  8  9  1  0  0  0  0
  8 27  1  0  0  0  0
  9 10  1  0  0  0  0
  9 28  1  0  0  0  0
  9 29  1  0  0  0  0
 10 11  1  0  0  0  0
 10 22  1  0  0  0  0
 10 12  1  0  0  0  0
 12 13  1  0  0  0  0
 12 30  1  0  0  0  0
 12 31  1  0  0  0  0
 13 14  1  0  0  0  0
 13 32  1  0  0  0  0
 13 33  1  0  0  0  0
 14 19  2  0  0  0  0
 14 15  1  0  0  0  0
 15 16  2  0  0  0  0
 15 22  1  0  0  0  0
 16 17  1  0  0  0  0
 16 21  1  0  0  0  0
 17 18  2  0  0  0  0
 18 19  1  0  0  0  0
 18 20  1  0  0  0  0
 20 34  1  0  0  0  0
 20 35  1  0  0  0  0
 21 36  1  0  0  0  0
 21 37  1  0  0  0  0
 22 38  1  0  0  0  0
 22 39  1  0  0  0  0
M  END
$$$$
ZINC03814881
  -OEChem-08230709403D

 40 42  0     1  0  0  0  0  0999 V2000
    1.8535    0.9061    6.3109 C   0  0  0  0  0  0  0  0  0  0  0  0
    1.2640    1.0374    5.0686 C   0  0  0  0  0  0  0  0  0  0  0  0
    0.0687    1.7329    4.9384 C   0  0  0  0  0  0  0  0  0  0  0  0
   -0.5361    2.2847    6.0606 C   0  0  0  0  0  0  0  0  0  0  0  0
    0.0557    2.1450    7.3014 C   0  0  0  0  0  0  0  0  0  0  0  0
    1.2495    1.4562    7.4262 C   0  0  0  0  0  0  0  0  0  0  0  0
   -0.7667    2.8950    8.8301 Br  0  0  0  0  0  0  0  0  0  0  0  0
   -0.5267    1.8723    3.6827 N   0  0  0  0  0  0  0  0  0  0  0  0
    0.1126    1.2897    2.5002 C   0  0  0  0  0  0  0  0  0  0  0  0
   -0.7383    1.5842    1.2632 C   0  0  1  0  0  0  0  0  0  0  0  0
   -0.9145    2.6569    1.1830 H   0  0  0  0  0  0  0  0  0  0  0  0
   -0.0127    1.0858    0.0080 C   0  0  0  0  0  0  0  0  0  0  0  0
   -0.7596    1.5959   -1.2235 C   0  0  0  0  0  0  0  0  0  0  0  0
   -2.2253    1.2709   -1.1227 C   0  0  0  0  0  0  0  0  0  0  0  0
   -2.8292    0.9368    0.0647 C   0  0  0  0  0  0  0  0  0  0  0  0
   -4.2018    0.6578    0.0623 C   0  0  0  0  0  0  0  0  0  0  0  0
   -4.8743    0.7198   -1.0810 N   0  0  0  0  0  0  0  0  0  0  0  0
   -4.2549    1.0414   -2.2067 C   0  0  0  0  0  0  0  0  0  0  0  0
   -4.9793    1.0963   -3.3846 N   0  0  0  0  0  0  0  0  0  0  0  0
   -4.8505    0.3217    1.2393 N   0  0  0  0  0  0  0  0  0  0  0  0
   -2.0795    0.8510    1.3652 C   0  0  0  0  0  0  0  0  0  0  0  0
    2.7851    0.3691    6.4118 H   0  0  0  0  0  0  0  0  0  0  0  0
    1.7343    0.6034    4.1986 H   0  0  0  0  0  0  0  0  0  0  0  0
   -1.4676    2.8226    5.9634 H   0  0  0  0  0  0  0  0  0  0  0  0
    1.7102    1.3478    8.3970 H   0  0  0  0  0  0  0  0  0  0  0  0
   -1.3634    2.3548    3.5935 H   0  0  0  0  0  0  0  0  0  0  0  0
    0.2033    0.2113    2.6304 H   0  0  0  0  0  0  0  0  0  0  0  0
    1.1037    1.7247    2.3715 H   0  0  0  0  0  0  0  0  0  0  0  0
    0.0021   -0.0041    0.0020 H   0  0  0  0  0  0  0  0  0  0  0  0
    1.0088    1.4659    0.0003 H   0  0  0  0  0  0  0  0  0  0  0  0
   -0.6344    2.6760   -1.2990 H   0  0  0  0  0  0  0  0  0  0  0  0
   -0.3467    1.1252   -2.1158 H   0  0  0  0  0  0  0  0  0  0  0  0
   -5.9293    0.9005   -3.3793 H   0  0  0  0  0  0  0  0  0  0  0  0
   -4.5370    1.3307   -4.2155 H   0  0  0  0  0  0  0  0  0  0  0  0
   -4.3539    0.2784    2.0714 H   0  0  0  0  0  0  0  0  0  0  0  0
   -5.8012    0.1295    1.2313 H   0  0  0  0  0  0  0  0  0  0  0  0
   -2.6775    1.3030    2.1565 H   0  0  0  0  0  0  0  0  0  0  0  0
   -1.8950   -0.1959    1.6064 H   0  0  0  0  0  0  0  0  0  0  0  0
   -2.9268    1.3302   -2.2981 N   0  3  0  0  0  0  0  0  0  0  0  0
   -2.4591    1.5734   -3.1478 H   0  0  0  0  0  0  0  0  0  0  0  0
  1  6  2  0  0  0  0
  1  2  1  0  0  0  0
  1 22  1  0  0  0  0
  2  3  2  0  0  0  0
  2 23  1  0  0  0  0
  3  4  1  0  0  0  0
  3  8  1  0  0  0  0
  4  5  2  0  0  0  0
  4 24  1  0  0  0  0
  5  6  1  0  0  0  0
  5  7  1  0  0  0  0
  6 25  1  0  0  0  0
  8  9  1  0  0  0  0
  8 26  1  0  0  0  0
  9 10  1  0  0  0  0
  9 27  1  0  0  0  0
  9 28  1  0  0  0  0
 10 11  1  0  0  0  0
 10 21  1  0  0  0  0
 10 12  1  0  0  0  0
 12 13  1  0  0  0  0
 12 29  1  0  0  0  0
 12 30  1  0  0  0  0
 13 14  1  0  0  0  0
 13 31  1  0  0  0  0
 13 32  1  0  0  0  0
 14 15  2  0  0  0  0
 14 39  1  0  0  0  0
 15 16  1  0  0  0  0
 15 21  1  0  0  0  0
 16 17  2  0  0  0  0
 16 20  1  0  0  0  0
 17 18  1  0  0  0  0
 18 19  1  0  0  0  0
 18 39  2  0  0  0  0
 19 33  1  0  0  0  0
 19 34  1  0  0  0  0
 20 35  1  0  0  0  0
 20 36  1  0  0  0  0
 21 37  1  0  0  0  0
 21 38  1  0  0  0  0
 39 40  1  0  0  0  0
M  CHG  1  39   1
M  END
$$$$
ZINC03814882
  -OEChem-08230709403D

 45 48  0     1  0  0  0  0  0999 V2000
    1.1687    2.0905    0.0021 C   0  0  0  0  0  0  0  0  0  0  0  0
   -0.0164    1.3574    0.0095 C   0  0  0  0  0  0  0  0  0  0  0  0
    0.0021   -0.0041    0.0020 C   0  0  0  0  0  0  0  0  0  0  0  0
    1.2309   -0.6822   -0.0134 C   0  0  0  0  0  0  0  0  0  0  0  0
    2.4363    0.0620   -0.0208 C   0  0  0  0  0  0  0  0  0  0  0  0
    2.3782    1.4666   -0.0123 C   0  0  0  0  0  0  0  0  0  0  0  0
    3.6674   -0.6153   -0.0365 C   0  0  0  0  0  0  0  0  0  0  0  0
    3.6945   -1.9768   -0.0441 C   0  0  0  0  0  0  0  0  0  0  0  0
    2.5174   -2.7188   -0.0375 C   0  0  0  0  0  0  0  0  0  0  0  0
    1.2892   -2.0924   -0.0220 C   0  0  0  0  0  0  0  0  0  0  0  0
    0.1165   -2.8445   -0.0146 N   0  0  0  0  0  0  0  0  0  0  0  0
    0.1848   -4.3079   -0.0237 C   0  0  0  0  0  0  0  0  0  0  0  0
   -1.2322   -4.8847   -0.0128 C   0  0  1  0  0  0  0  0  0  0  0  0
   -1.8042   -4.4669   -0.8413 H   0  0  0  0  0  0  0  0  0  0  0  0
   -1.1686   -6.4106   -0.1481 C   0  0  0  0  0  0  0  0  0  0  0  0
   -2.5858   -6.9371   -0.3694 C   0  0  0  0  0  0  0  0  0  0  0  0
   -3.5199   -6.3908    0.6762 C   0  0  0  0  0  0  0  0  0  0  0  0
   -3.2140   -5.2911    1.4399 C   0  0  0  0  0  0  0  0  0  0  0  0
   -4.1503   -4.8502    2.3838 C   0  0  0  0  0  0  0  0  0  0  0  0
   -5.2972   -5.5063    2.5151 N   0  0  0  0  0  0  0  0  0  0  0  0
   -5.5536   -6.5657    1.7626 C   0  0  0  0  0  0  0  0  0  0  0  0
   -4.6877   -7.0013    0.8623 N   0  0  0  0  0  0  0  0  0  0  0  0
   -6.7559   -7.2324    1.9217 N   0  0  0  0  0  0  0  0  0  0  0  0
   -3.8830   -3.7421    3.1709 N   0  0  0  0  0  0  0  0  0  0  0  0
   -1.9150   -4.5448    1.3115 C   0  0  0  0  0  0  0  0  0  0  0  0
    1.1267    3.1696    0.0079 H   0  0  0  0  0  0  0  0  0  0  0  0
   -0.9633    1.8767    0.0168 H   0  0  0  0  0  0  0  0  0  0  0  0
   -0.9242   -0.5594    0.0082 H   0  0  0  0  0  0  0  0  0  0  0  0
    3.2885    2.0476   -0.0182 H   0  0  0  0  0  0  0  0  0  0  0  0
    4.5915   -0.0564   -0.0425 H   0  0  0  0  0  0  0  0  0  0  0  0
    4.6452   -2.4890   -0.0559 H   0  0  0  0  0  0  0  0  0  0  0  0
    2.5664   -3.7977   -0.0442 H   0  0  0  0  0  0  0  0  0  0  0  0
   -0.7452   -2.3993   -0.0034 H   0  0  0  0  0  0  0  0  0  0  0  0
    0.7061   -4.6417   -0.9209 H   0  0  0  0  0  0  0  0  0  0  0  0
    0.7240   -4.6520    0.8590 H   0  0  0  0  0  0  0  0  0  0  0  0
   -0.5419   -6.6770   -0.9991 H   0  0  0  0  0  0  0  0  0  0  0  0
   -0.7526   -6.8419    0.7624 H   0  0  0  0  0  0  0  0  0  0  0  0
   -2.9330   -6.6330   -1.3569 H   0  0  0  0  0  0  0  0  0  0  0  0
   -2.5787   -8.0256   -0.3128 H   0  0  0  0  0  0  0  0  0  0  0  0
   -7.3992   -6.9226    2.5783 H   0  0  0  0  0  0  0  0  0  0  0  0
   -6.9553   -8.0096    1.3766 H   0  0  0  0  0  0  0  0  0  0  0  0
   -3.0434   -3.2667    3.0702 H   0  0  0  0  0  0  0  0  0  0  0  0
   -4.5353   -3.4415    3.8228 H   0  0  0  0  0  0  0  0  0  0  0  0
   -1.2581   -4.8199    2.1366 H   0  0  0  0  0  0  0  0  0  0  0  0
   -2.1097   -3.4731    1.3518 H   0  0  0  0  0  0  0  0  0  0  0  0
  1  6  2  0  0  0  0
  1  2  1  0  0  0  0
  1 26  1  0  0  0  0
  2  3  2  0  0  0  0
  2 27  1  0  0  0  0
  3  4  1  0  0  0  0
  3 28  1  0  0  0  0
  4 10  2  0  0  0  0
  4  5  1  0  0  0  0
  5  6  1  0  0  0  0
  5  7  2  0  0  0  0
  6 29  1  0  0  0  0
  7  8  1  0  0  0  0
  7 30  1  0  0  0  0
  8  9  2  0  0  0  0
  8 31  1  0  0  0  0
  9 10  1  0  0  0  0
  9 32  1  0  0  0  0
 10 11  1  0  0  0  0
 11 12  1  0  0  0  0
 11 33  1  0  0  0  0
 12 13  1  0  0  0  0
 12 34  1  0  0  0  0
 12 35  1  0  0  0  0
 13 14  1  0  0  0  0
 13 25  1  0  0  0  0
 13 15  1  0  0  0  0
 15 16  1  0  0  0  0
 15 36  1  0  0  0  0
 15 37  1  0  0  0  0
 16 17  1  0  0  0  0
 16 38  1  0  0  0  0
 16 39  1  0  0  0  0
 17 22  2  0  0  0  0
 17 18  1  0  0  0  0
 18 19  2  0  0  0  0
 18 25  1  0  0  0  0
 19 20  1  0  0  0  0
 19 24  1  0  0  0  0
 20 21  2  0  0  0  0
 21 22  1  0  0  0  0
 21 23  1  0  0  0  0
 23 40  1  0  0  0  0
 23 41  1  0  0  0  0
 24 42  1  0  0  0  0
 24 43  1  0  0  0  0
 25 44  1  0  0  0  0
 25 45  1  0  0  0  0
M  END
$$$$
ZINC03814882
  -OEChem-08230709403D

 46 49  0     1  0  0  0  0  0999 V2000
    1.1687    2.0905    0.0021 C   0  0  0  0  0  0  0  0  0  0  0  0
   -0.0164    1.3574    0.0095 C   0  0  0  0  0  0  0  0  0  0  0  0
    0.0021   -0.0041    0.0020 C   0  0  0  0  0  0  0  0  0  0  0  0
    1.2309   -0.6822   -0.0134 C   0  0  0  0  0  0  0  0  0  0  0  0
    2.4363    0.0620   -0.0208 C   0  0  0  0  0  0  0  0  0  0  0  0
    2.3782    1.4666   -0.0123 C   0  0  0  0  0  0  0  0  0  0  0  0
    3.6674   -0.6153   -0.0365 C   0  0  0  0  0  0  0  0  0  0  0  0
    3.6945   -1.9768   -0.0441 C   0  0  0  0  0  0  0  0  0  0  0  0
    2.5174   -2.7188   -0.0375 C   0  0  0  0  0  0  0  0  0  0  0  0
    1.2892   -2.0924   -0.0220 C   0  0  0  0  0  0  0  0  0  0  0  0
    0.1165   -2.8445   -0.0146 N   0  0  0  0  0  0  0  0  0  0  0  0
    0.1848   -4.3079   -0.0237 C   0  0  0  0  0  0  0  0  0  0  0  0
   -1.2322   -4.8847   -0.0128 C   0  0  1  0  0  0  0  0  0  0  0  0
   -1.8042   -4.4669   -0.8413 H   0  0  0  0  0  0  0  0  0  0  0  0
   -1.1686   -6.4106   -0.1481 C   0  0  0  0  0  0  0  0  0  0  0  0
   -2.5858   -6.9371   -0.3694 C   0  0  0  0  0  0  0  0  0  0  0  0
   -3.5199   -6.3908    0.6762 C   0  0  0  0  0  0  0  0  0  0  0  0
   -3.2140   -5.2911    1.4399 C   0  0  0  0  0  0  0  0  0  0  0  0
   -4.1503   -4.8502    2.3838 C   0  0  0  0  0  0  0  0  0  0  0  0
   -5.2972   -5.5063    2.5151 N   0  0  0  0  0  0  0  0  0  0  0  0
   -5.5536   -6.5657    1.7626 C   0  0  0  0  0  0  0  0  0  0  0  0
   -6.7559   -7.2324    1.9217 N   0  0  0  0  0  0  0  0  0  0  0  0
   -3.8830   -3.7421    3.1709 N   0  0  0  0  0  0  0  0  0  0  0  0
   -1.9150   -4.5448    1.3115 C   0  0  0  0  0  0  0  0  0  0  0  0
    1.1267    3.1696    0.0079 H   0  0  0  0  0  0  0  0  0  0  0  0
   -0.9633    1.8767    0.0168 H   0  0  0  0  0  0  0  0  0  0  0  0
   -0.9242   -0.5594    0.0082 H   0  0  0  0  0  0  0  0  0  0  0  0
    3.2885    2.0476   -0.0182 H   0  0  0  0  0  0  0  0  0  0  0  0
    4.5915   -0.0564   -0.0425 H   0  0  0  0  0  0  0  0  0  0  0  0
    4.6452   -2.4890   -0.0559 H   0  0  0  0  0  0  0  0  0  0  0  0
    2.5664   -3.7977   -0.0442 H   0  0  0  0  0  0  0  0  0  0  0  0
   -0.7452   -2.3993   -0.0034 H   0  0  0  0  0  0  0  0  0  0  0  0
    0.7061   -4.6417   -0.9209 H   0  0  0  0  0  0  0  0  0  0  0  0
    0.7240   -4.6520    0.8590 H   0  0  0  0  0  0  0  0  0  0  0  0
   -0.5419   -6.6770   -0.9991 H   0  0  0  0  0  0  0  0  0  0  0  0
   -0.7526   -6.8419    0.7624 H   0  0  0  0  0  0  0  0  0  0  0  0
   -2.9330   -6.6330   -1.3569 H   0  0  0  0  0  0  0  0  0  0  0  0
   -2.5787   -8.0256   -0.3128 H   0  0  0  0  0  0  0  0  0  0  0  0
   -7.3992   -6.9226    2.5783 H   0  0  0  0  0  0  0  0  0  0  0  0
   -6.9553   -8.0096    1.3766 H   0  0  0  0  0  0  0  0  0  0  0  0
   -3.0434   -3.2667    3.0702 H   0  0  0  0  0  0  0  0  0  0  0  0
   -4.5353   -3.4415    3.8228 H   0  0  0  0  0  0  0  0  0  0  0  0
   -1.2581   -4.8199    2.1366 H   0  0  0  0  0  0  0  0  0  0  0  0
   -2.1097   -3.4731    1.3518 H   0  0  0  0  0  0  0  0  0  0  0  0
   -4.7052   -7.0629    0.8201 N   0  3  0  0  0  0  0  0  0  0  0  0
   -4.8988   -7.8625    0.2516 H   0  0  0  0  0  0  0  0  0  0  0  0
  1  6  2  0  0  0  0
  1  2  1  0  0  0  0
  1 25  1  0  0  0  0
  2  3  2  0  0  0  0
  2 26  1  0  0  0  0
  3  4  1  0  0  0  0
  3 27  1  0  0  0  0
  4 10  2  0  0  0  0
  4  5  1  0  0  0  0
  5  6  1  0  0  0  0
  5  7  2  0  0  0  0
  6 28  1  0  0  0  0
  7  8  1  0  0  0  0
  7 29  1  0  0  0  0
  8  9  2  0  0  0  0
  8 30  1  0  0  0  0
  9 10  1  0  0  0  0
  9 31  1  0  0  0  0
 10 11  1  0  0  0  0
 11 12  1  0  0  0  0
 11 32  1  0  0  0  0
 12 13  1  0  0  0  0
 12 33  1  0  0  0  0
 12 34  1  0  0  0  0
 13 14  1  0  0  0  0
 13 24  1  0  0  0  0
 13 15  1  0  0  0  0
 15 16  1  0  0  0  0
 15 35  1  0  0  0  0
 15 36  1  0  0  0  0
 16 17  1  0  0  0  0
 16 37  1  0  0  0  0
 16 38  1  0  0  0  0
 17 18  2  0  0  0  0
 17 45  1  0  0  0  0
 18 19  1  0  0  0  0
 18 24  1  0  0  0  0
 19 20  2  0  0  0  0
 19 23  1  0  0  0  0
 20 21  1  0  0  0  0
 21 22  1  0  0  0  0
 21 45  2  0  0  0  0
 22 39  1  0  0  0  0
 22 40  1  0  0  0  0
 23 41  1  0  0  0  0
 23 42  1  0  0  0  0
 24 43  1  0  0  0  0
 24 44  1  0  0  0  0
 45 46  1  0  0  0  0
M  CHG  1  45   1
M  END
$$$$
ZINC03814883
  -OEChem-08230709403D

 54 56  0     1  0  0  0  0  0999 V2000
   -0.6241    2.5225   -4.4130 C   0  0  0  0  0  0  0  0  0  0  0  0
   -0.9945    1.3296   -3.6475 N   0  0  3  0  0  0  0  0  0  0  0  0
   -0.1993    0.9299   -2.4838 C   0  0  0  0  0  0  0  0  0  0  0  0
   -0.7623    1.5977   -1.2276 C   0  0  1  0  0  0  0  0  0  0  0  0
   -1.8234    1.3666   -1.1342 H   0  0  0  0  0  0  0  0  0  0  0  0
   -0.0127    1.0858    0.0080 C   0  0  0  0  0  0  0  0  0  0  0  0
   -0.7360    1.5826    1.2589 C   0  0  0  0  0  0  0  0  0  0  0  0
   -0.9709    3.0674    1.1753 C   0  0  0  0  0  0  0  0  0  0  0  0
   -0.8985    3.7641   -0.0060 C   0  0  0  0  0  0  0  0  0  0  0  0
   -1.1426    5.1431    0.0144 C   0  0  0  0  0  0  0  0  0  0  0  0
   -1.4311    5.7338    1.1680 N   0  0  0  0  0  0  0  0  0  0  0  0
   -1.4868    5.0280    2.2874 C   0  0  0  0  0  0  0  0  0  0  0  0
   -1.2623    3.7242    2.2954 N   0  0  0  0  0  0  0  0  0  0  0  0
   -1.7862    5.6694    3.4765 N   0  0  0  0  0  0  0  0  0  0  0  0
   -1.0833    5.8824   -1.1557 N   0  0  0  0  0  0  0  0  0  0  0  0
   -0.5677    3.1107   -1.3192 C   0  0  0  0  0  0  0  0  0  0  0  0
   -2.1076    0.5721   -4.0277 C   0  0  0  0  0  0  0  0  0  0  0  0
   -2.4549   -0.5614   -3.3054 C   0  0  0  0  0  0  0  0  0  0  0  0
   -3.5611   -1.3093   -3.6781 C   0  0  0  0  0  0  0  0  0  0  0  0
   -4.3159   -0.9301   -4.7816 C   0  0  0  0  0  0  0  0  0  0  0  0
   -3.9642    0.2015   -5.5075 C   0  0  0  0  0  0  0  0  0  0  0  0
   -2.8609    0.9512   -5.1305 C   0  0  0  0  0  0  0  0  0  0  0  0
   -4.7021    0.5730   -6.5878 O   0  0  0  0  0  0  0  0  0  0  0  0
   -4.2827    1.7463   -7.2873 C   0  0  0  0  0  0  0  0  0  0  0  0
   -5.3999   -1.6670   -5.1511 O   0  0  0  0  0  0  0  0  0  0  0  0
   -5.1758   -2.7304   -6.0790 C   0  0  0  0  0  0  0  0  0  0  0  0
   -3.9041   -2.4168   -2.9674 O   0  0  0  0  0  0  0  0  0  0  0  0
   -3.0836   -2.7473   -1.8451 C   0  0  0  0  0  0  0  0  0  0  0  0
    0.0661    2.2435   -5.2092 H   0  0  0  0  0  0  0  0  0  0  0  0
   -1.5191    2.9678   -4.8475 H   0  0  0  0  0  0  0  0  0  0  0  0
   -0.1437    3.2438   -3.7519 H   0  0  0  0  0  0  0  0  0  0  0  0
    0.8358    1.2399   -2.6273 H   0  0  0  0  0  0  0  0  0  0  0  0
   -0.2416   -0.1533   -2.3695 H   0  0  0  0  0  0  0  0  0  0  0  0
    0.0021   -0.0041    0.0020 H   0  0  0  0  0  0  0  0  0  0  0  0
    1.0088    1.4660    0.0003 H   0  0  0  0  0  0  0  0  0  0  0  0
   -1.6956    1.0731    1.3465 H   0  0  0  0  0  0  0  0  0  0  0  0
   -0.1312    1.3589    2.1377 H   0  0  0  0  0  0  0  0  0  0  0  0
   -1.8296    5.1635    4.3030 H   0  0  0  0  0  0  0  0  0  0  0  0
   -1.9528    6.6250    3.4836 H   0  0  0  0  0  0  0  0  0  0  0  0
   -0.8717    5.4453   -1.9954 H   0  0  0  0  0  0  0  0  0  0  0  0
   -1.2533    6.8372   -1.1352 H   0  0  0  0  0  0  0  0  0  0  0  0
    0.4692    3.3256   -1.5775 H   0  0  0  0  0  0  0  0  0  0  0  0
   -1.2197    3.5114   -2.0954 H   0  0  0  0  0  0  0  0  0  0  0  0
   -1.8656   -0.8584   -2.4504 H   0  0  0  0  0  0  0  0  0  0  0  0
   -2.5875    1.8307   -5.6945 H   0  0  0  0  0  0  0  0  0  0  0  0
   -4.9555    1.9298   -8.1251 H   0  0  0  0  0  0  0  0  0  0  0  0
   -4.3044    2.6002   -6.6102 H   0  0  0  0  0  0  0  0  0  0  0  0
   -3.2685    1.6040   -7.6603 H   0  0  0  0  0  0  0  0  0  0  0  0
   -4.4695   -3.4424   -5.6520 H   0  0  0  0  0  0  0  0  0  0  0  0
   -6.1191   -3.2352   -6.2879 H   0  0  0  0  0  0  0  0  0  0  0  0
   -4.7679   -2.3248   -7.0049 H   0  0  0  0  0  0  0  0  0  0  0  0
   -3.4667   -3.6496   -1.3682 H   0  0  0  0  0  0  0  0  0  0  0  0
   -2.0611   -2.9200   -2.1809 H   0  0  0  0  0  0  0  0  0  0  0  0
   -3.0973   -1.9247   -1.1301 H   0  0  0  0  0  0  0  0  0  0  0  0
  1  2  1  0  0  0  0
  1 29  1  0  0  0  0
  1 30  1  0  0  0  0
  1 31  1  0  0  0  0
  2  3  1  0  0  0  0
  2 17  1  0  0  0  0
  3  4  1  0  0  0  0
  3 32  1  0  0  0  0
  3 33  1  0  0  0  0
  4  5  1  0  0  0  0
  4 16  1  0  0  0  0
  4  6  1  0  0  0  0
  6  7  1  0  0  0  0
  6 34  1  0  0  0  0
  6 35  1  0  0  0  0
  7  8  1  0  0  0  0
  7 36  1  0  0  0  0
  7 37  1  0  0  0  0
  8 13  2  0  0  0  0
  8  9  1  0  0  0  0
  9 10  2  0  0  0  0
  9 16  1  0  0  0  0
 10 11  1  0  0  0  0
 10 15  1  0  0  0  0
 11 12  2  0  0  0  0
 12 13  1  0  0  0  0
 12 14  1  0  0  0  0
 14 38  1  0  0  0  0
 14 39  1  0  0  0  0
 15 40  1  0  0  0  0
 15 41  1  0  0  0  0
 16 42  1  0  0  0  0
 16 43  1  0  0  0  0
 17 22  2  0  0  0  0
 17 18  1  0  0  0  0
 18 19  2  0  0  0  0
 18 44  1  0  0  0  0
 19 20  1  0  0  0  0
 19 27  1  0  0  0  0
 20 21  2  0  0  0  0
 20 25  1  0  0  0  0
 21 22  1  0  0  0  0
 21 23  1  0  0  0  0
 22 45  1  0  0  0  0
 23 24  1  0  0  0  0
 24 46  1  0  0  0  0
 24 47  1  0  0  0  0
 24 48  1  0  0  0  0
 25 26  1  0  0  0  0
 26 49  1  0  0  0  0
 26 50  1  0  0  0  0
 26 51  1  0  0  0  0
 27 28  1  0  0  0  0
 28 52  1  0  0  0  0
 28 53  1  0  0  0  0
 28 54  1  0  0  0  0
M  END
$$$$
ZINC03814883
  -OEChem-08230709403D

 55 57  0     1  0  0  0  0  0999 V2000
   -0.6241    2.5225   -4.4130 C   0  0  0  0  0  0  0  0  0  0  0  0
   -0.9945    1.3296   -3.6475 N   0  0  3  0  0  0  0  0  0  0  0  0
   -0.1993    0.9299   -2.4838 C   0  0  0  0  0  0  0  0  0  0  0  0
   -0.7623    1.5977   -1.2276 C   0  0  1  0  0  0  0  0  0  0  0  0
   -1.8234    1.3666   -1.1342 H   0  0  0  0  0  0  0  0  0  0  0  0
   -0.0127    1.0858    0.0080 C   0  0  0  0  0  0  0  0  0  0  0  0
   -0.7360    1.5826    1.2589 C   0  0  0  0  0  0  0  0  0  0  0  0
   -0.9709    3.0674    1.1753 C   0  0  0  0  0  0  0  0  0  0  0  0
   -0.8985    3.7641   -0.0060 C   0  0  0  0  0  0  0  0  0  0  0  0
   -1.1426    5.1431    0.0144 C   0  0  0  0  0  0  0  0  0  0  0  0
   -1.4311    5.7338    1.1680 N   0  0  0  0  0  0  0  0  0  0  0  0
   -1.4868    5.0280    2.2874 C   0  0  0  0  0  0  0  0  0  0  0  0
   -1.7862    5.6694    3.4765 N   0  0  0  0  0  0  0  0  0  0  0  0
   -1.0833    5.8824   -1.1557 N   0  0  0  0  0  0  0  0  0  0  0  0
   -0.5677    3.1107   -1.3192 C   0  0  0  0  0  0  0  0  0  0  0  0
   -2.1076    0.5721   -4.0277 C   0  0  0  0  0  0  0  0  0  0  0  0
   -2.4549   -0.5614   -3.3054 C   0  0  0  0  0  0  0  0  0  0  0  0
   -3.5611   -1.3093   -3.6781 C   0  0  0  0  0  0  0  0  0  0  0  0
   -4.3159   -0.9301   -4.7816 C   0  0  0  0  0  0  0  0  0  0  0  0
   -3.9642    0.2015   -5.5075 C   0  0  0  0  0  0  0  0  0  0  0  0
   -2.8609    0.9512   -5.1305 C   0  0  0  0  0  0  0  0  0  0  0  0
   -4.7021    0.5730   -6.5878 O   0  0  0  0  0  0  0  0  0  0  0  0
   -4.2827    1.7463   -7.2873 C   0  0  0  0  0  0  0  0  0  0  0  0
   -5.3999   -1.6670   -5.1511 O   0  0  0  0  0  0  0  0  0  0  0  0
   -5.1758   -2.7304   -6.0790 C   0  0  0  0  0  0  0  0  0  0  0  0
   -3.9041   -2.4168   -2.9674 O   0  0  0  0  0  0  0  0  0  0  0  0
   -3.0836   -2.7473   -1.8451 C   0  0  0  0  0  0  0  0  0  0  0  0
    0.0661    2.2435   -5.2092 H   0  0  0  0  0  0  0  0  0  0  0  0
   -1.5191    2.9678   -4.8475 H   0  0  0  0  0  0  0  0  0  0  0  0
   -0.1437    3.2438   -3.7519 H   0  0  0  0  0  0  0  0  0  0  0  0
    0.8358    1.2399   -2.6273 H   0  0  0  0  0  0  0  0  0  0  0  0
   -0.2416   -0.1533   -2.3695 H   0  0  0  0  0  0  0  0  0  0  0  0
    0.0021   -0.0041    0.0020 H   0  0  0  0  0  0  0  0  0  0  0  0
    1.0088    1.4660    0.0003 H   0  0  0  0  0  0  0  0  0  0  0  0
   -1.6956    1.0731    1.3465 H   0  0  0  0  0  0  0  0  0  0  0  0
   -0.1312    1.3589    2.1377 H   0  0  0  0  0  0  0  0  0  0  0  0
   -1.8296    5.1635    4.3030 H   0  0  0  0  0  0  0  0  0  0  0  0
   -1.9528    6.6250    3.4836 H   0  0  0  0  0  0  0  0  0  0  0  0
   -0.8717    5.4453   -1.9954 H   0  0  0  0  0  0  0  0  0  0  0  0
   -1.2533    6.8372   -1.1352 H   0  0  0  0  0  0  0  0  0  0  0  0
    0.4692    3.3256   -1.5775 H   0  0  0  0  0  0  0  0  0  0  0  0
   -1.2197    3.5114   -2.0954 H   0  0  0  0  0  0  0  0  0  0  0  0
   -1.8656   -0.8584   -2.4504 H   0  0  0  0  0  0  0  0  0  0  0  0
   -2.5875    1.8307   -5.6945 H   0  0  0  0  0  0  0  0  0  0  0  0
   -4.9555    1.9298   -8.1251 H   0  0  0  0  0  0  0  0  0  0  0  0
   -4.3044    2.6002   -6.6102 H   0  0  0  0  0  0  0  0  0  0  0  0
   -3.2685    1.6040   -7.6603 H   0  0  0  0  0  0  0  0  0  0  0  0
   -4.4695   -3.4424   -5.6520 H   0  0  0  0  0  0  0  0  0  0  0  0
   -6.1191   -3.2352   -6.2879 H   0  0  0  0  0  0  0  0  0  0  0  0
   -4.7679   -2.3248   -7.0049 H   0  0  0  0  0  0  0  0  0  0  0  0
   -3.4667   -3.6496   -1.3682 H   0  0  0  0  0  0  0  0  0  0  0  0
   -2.0611   -2.9200   -2.1809 H   0  0  0  0  0  0  0  0  0  0  0  0
   -3.0973   -1.9247   -1.1301 H   0  0  0  0  0  0  0  0  0  0  0  0
   -1.2662    3.6859    2.3617 N   0  3  0  0  0  0  0  0  0  0  0  0
   -1.3079    3.1527    3.2067 H   0  0  0  0  0  0  0  0  0  0  0  0
  1  2  1  0  0  0  0
  1 28  1  0  0  0  0
  1 29  1  0  0  0  0
  1 30  1  0  0  0  0
  2  3  1  0  0  0  0
  2 16  1  0  0  0  0
  3  4  1  0  0  0  0
  3 31  1  0  0  0  0
  3 32  1  0  0  0  0
  4  5  1  0  0  0  0
  4 15  1  0  0  0  0
  4  6  1  0  0  0  0
  6  7  1  0  0  0  0
  6 33  1  0  0  0  0
  6 34  1  0  0  0  0
  7  8  1  0  0  0  0
  7 35  1  0  0  0  0
  7 36  1  0  0  0  0
  8  9  2  0  0  0  0
  8 54  1  0  0  0  0
  9 10  1  0  0  0  0
  9 15  1  0  0  0  0
 10 11  2  0  0  0  0
 10 14  1  0  0  0  0
 11 12  1  0  0  0  0
 12 13  1  0  0  0  0
 12 54  2  0  0  0  0
 13 37  1  0  0  0  0
 13 38  1  0  0  0  0
 14 39  1  0  0  0  0
 14 40  1  0  0  0  0
 15 41  1  0  0  0  0
 15 42  1  0  0  0  0
 16 21  2  0  0  0  0
 16 17  1  0  0  0  0
 17 18  2  0  0  0  0
 17 43  1  0  0  0  0
 18 19  1  0  0  0  0
 18 26  1  0  0  0  0
 19 20  2  0  0  0  0
 19 24  1  0  0  0  0
 20 21  1  0  0  0  0
 20 22  1  0  0  0  0
 21 44  1  0  0  0  0
 22 23  1  0  0  0  0
 23 45  1  0  0  0  0
 23 46  1  0  0  0  0
 23 47  1  0  0  0  0
 24 25  1  0  0  0  0
 25 48  1  0  0  0  0
 25 49  1  0  0  0  0
 25 50  1  0  0  0  0
 26 27  1  0  0  0  0
 27 51  1  0  0  0  0
 27 52  1  0  0  0  0
 27 53  1  0  0  0  0
 54 55  1  0  0  0  0
M  CHG  1  54   1
M  END
$$$$
ZINC03814884
  -OEChem-08230709403D

 48 51  0     1  0  0  0  0  0999 V2000
    1.9367    6.1379   -2.4567 C   0  0  0  0  0  0  0  0  0  0  0  0
    1.5521    6.2674   -1.0448 N   0  0  1  0  0  0  0  0  0  0  0  0
    2.5325    5.6108   -0.1698 C   0  0  0  0  0  0  0  0  0  0  0  0
    2.5064    4.1012   -0.4172 C   0  0  1  0  0  0  0  0  0  0  0  0
    2.6611    3.9009   -1.4774 H   0  0  0  0  0  0  0  0  0  0  0  0
    3.6126    3.4256    0.4016 C   0  0  0  0  0  0  0  0  0  0  0  0
    3.7211    1.9671   -0.0405 C   0  0  0  0  0  0  0  0  0  0  0  0
    2.3684    1.3082   -0.0189 C   0  0  0  0  0  0  0  0  0  0  0  0
    1.1968    2.0244    0.0015 C   0  0  0  0  0  0  0  0  0  0  0  0
   -0.0159    1.3236    0.0093 C   0  0  0  0  0  0  0  0  0  0  0  0
    0.0021   -0.0041    0.0020 N   0  0  0  0  0  0  0  0  0  0  0  0
    1.1532   -0.6590   -0.0129 C   0  0  0  0  0  0  0  0  0  0  0  0
    2.3123   -0.0214   -0.0240 N   0  0  0  0  0  0  0  0  0  0  0  0
    1.1432   -2.0429   -0.0173 N   0  0  0  0  0  0  0  0  0  0  0  0
   -1.2204    2.0079    0.0188 N   0  0  0  0  0  0  0  0  0  0  0  0
    1.1600    3.5274    0.0228 C   0  0  0  0  0  0  0  0  0  0  0  0
    1.3862    7.6053   -0.6933 C   0  0  0  0  0  0  0  0  0  0  0  0
    2.4579    8.4721   -0.7292 C   0  0  0  0  0  0  0  0  0  0  0  0
    2.3026    9.8100   -0.3799 C   0  0  0  0  0  0  0  0  0  0  0  0
    1.0922   10.3001    0.0061 C   0  0  0  0  0  0  0  0  0  0  0  0
   -0.0255    9.4500    0.0562 C   0  0  0  0  0  0  0  0  0  0  0  0
    0.1184    8.0870   -0.3026 C   0  0  0  0  0  0  0  0  0  0  0  0
   -0.9974    7.2375   -0.2452 C   0  0  0  0  0  0  0  0  0  0  0  0
   -2.2043    7.7352    0.1417 C   0  0  0  0  0  0  0  0  0  0  0  0
   -2.3483    9.0769    0.4890 C   0  0  0  0  0  0  0  0  0  0  0  0
   -1.2870    9.9281    0.4514 C   0  0  0  0  0  0  0  0  0  0  0  0
    1.9912    5.0824   -2.7231 H   0  0  0  0  0  0  0  0  0  0  0  0
    1.1939    6.6327   -3.0824 H   0  0  0  0  0  0  0  0  0  0  0  0
    2.9104    6.6026   -2.6121 H   0  0  0  0  0  0  0  0  0  0  0  0
    2.2825    5.8127    0.8718 H   0  0  0  0  0  0  0  0  0  0  0  0
    3.5285    5.9972   -0.3858 H   0  0  0  0  0  0  0  0  0  0  0  0
    3.3622    3.4693    1.4616 H   0  0  0  0  0  0  0  0  0  0  0  0
    4.5619    3.9324    0.2284 H   0  0  0  0  0  0  0  0  0  0  0  0
    4.3918    1.4350    0.6341 H   0  0  0  0  0  0  0  0  0  0  0  0
    4.1255    1.9263   -1.0519 H   0  0  0  0  0  0  0  0  0  0  0  0
    0.2997   -2.5219   -0.0096 H   0  0  0  0  0  0  0  0  0  0  0  0
    1.9797   -2.5339   -0.0282 H   0  0  0  0  0  0  0  0  0  0  0  0
   -2.0571    1.5170    0.0201 H   0  0  0  0  0  0  0  0  0  0  0  0
   -1.2272    2.9778    0.0241 H   0  0  0  0  0  0  0  0  0  0  0  0
    0.9361    3.8681    1.0337 H   0  0  0  0  0  0  0  0  0  0  0  0
    0.3805    3.8784   -0.6534 H   0  0  0  0  0  0  0  0  0  0  0  0
    3.4289    8.1084   -1.0315 H   0  0  0  0  0  0  0  0  0  0  0  0
    3.1562   10.4708   -0.4159 H   0  0  0  0  0  0  0  0  0  0  0  0
    0.9914   11.3415    0.2738 H   0  0  0  0  0  0  0  0  0  0  0  0
   -0.9004    6.1954   -0.5117 H   0  0  0  0  0  0  0  0  0  0  0  0
   -3.0623    7.0804    0.1803 H   0  0  0  0  0  0  0  0  0  0  0  0
   -3.3164    9.4469    0.7929 H   0  0  0  0  0  0  0  0  0  0  0  0
   -1.4133   10.9655    0.7240 H   0  0  0  0  0  0  0  0  0  0  0  0
  1  2  1  0  0  0  0
  1 27  1  0  0  0  0
  1 28  1  0  0  0  0
  1 29  1  0  0  0  0
  2  3  1  0  0  0  0
  2 17  1  0  0  0  0
  3  4  1  0  0  0  0
  3 30  1  0  0  0  0
  3 31  1  0  0  0  0
  4  5  1  0  0  0  0
  4 16  1  0  0  0  0
  4  6  1  0  0  0  0
  6  7  1  0  0  0  0
  6 32  1  0  0  0  0
  6 33  1  0  0  0  0
  7  8  1  0  0  0  0
  7 34  1  0  0  0  0
  7 35  1  0  0  0  0
  8 13  2  0  0  0  0
  8  9  1  0  0  0  0
  9 10  2  0  0  0  0
  9 16  1  0  0  0  0
 10 11  1  0  0  0  0
 10 15  1  0  0  0  0
 11 12  2  0  0  0  0
 12 13  1  0  0  0  0
 12 14  1  0  0  0  0
 14 36  1  0  0  0  0
 14 37  1  0  0  0  0
 15 38  1  0  0  0  0
 15 39  1  0  0  0  0
 16 40  1  0  0  0  0
 16 41  1  0  0  0  0
 17 22  2  0  0  0  0
 17 18  1  0  0  0  0
 18 19  2  0  0  0  0
 18 42  1  0  0  0  0
 19 20  1  0  0  0  0
 19 43  1  0  0  0  0
 20 21  2  0  0  0  0
 20 44  1  0  0  0  0
 21 26  1  0  0  0  0
 21 22  1  0  0  0  0
 22 23  1  0  0  0  0
 23 24  2  0  0  0  0
 23 45  1  0  0  0  0
 24 25  1  0  0  0  0
 24 46  1  0  0  0  0
 25 26  2  0  0  0  0
 25 47  1  0  0  0  0
 26 48  1  0  0  0  0
M  END
$$$$
ZINC03814884
  -OEChem-08230709403D

 49 52  0     1  0  0  0  0  0999 V2000
    1.9367    6.1379   -2.4567 C   0  0  0  0  0  0  0  0  0  0  0  0
    1.5521    6.2674   -1.0448 N   0  0  1  0  0  0  0  0  0  0  0  0
    2.5325    5.6108   -0.1698 C   0  0  0  0  0  0  0  0  0  0  0  0
    2.5064    4.1012   -0.4172 C   0  0  1  0  0  0  0  0  0  0  0  0
    2.6611    3.9009   -1.4774 H   0  0  0  0  0  0  0  0  0  0  0  0
    3.6126    3.4256    0.4016 C   0  0  0  0  0  0  0  0  0  0  0  0
    3.7211    1.9671   -0.0405 C   0  0  0  0  0  0  0  0  0  0  0  0
    2.3684    1.3082   -0.0189 C   0  0  0  0  0  0  0  0  0  0  0  0
    1.1968    2.0244    0.0015 C   0  0  0  0  0  0  0  0  0  0  0  0
   -0.0159    1.3236    0.0093 C   0  0  0  0  0  0  0  0  0  0  0  0
    0.0021   -0.0041    0.0020 N   0  0  0  0  0  0  0  0  0  0  0  0
    1.1532   -0.6590   -0.0129 C   0  0  0  0  0  0  0  0  0  0  0  0
    1.1432   -2.0429   -0.0173 N   0  0  0  0  0  0  0  0  0  0  0  0
   -1.2204    2.0079    0.0188 N   0  0  0  0  0  0  0  0  0  0  0  0
    1.1600    3.5274    0.0228 C   0  0  0  0  0  0  0  0  0  0  0  0
    1.3862    7.6053   -0.6933 C   0  0  0  0  0  0  0  0  0  0  0  0
    2.4579    8.4721   -0.7292 C   0  0  0  0  0  0  0  0  0  0  0  0
    2.3026    9.8100   -0.3799 C   0  0  0  0  0  0  0  0  0  0  0  0
    1.0922   10.3001    0.0061 C   0  0  0  0  0  0  0  0  0  0  0  0
   -0.0255    9.4500    0.0562 C   0  0  0  0  0  0  0  0  0  0  0  0
    0.1184    8.0870   -0.3026 C   0  0  0  0  0  0  0  0  0  0  0  0
   -0.9974    7.2375   -0.2452 C   0  0  0  0  0  0  0  0  0  0  0  0
   -2.2043    7.7352    0.1417 C   0  0  0  0  0  0  0  0  0  0  0  0
   -2.3483    9.0769    0.4890 C   0  0  0  0  0  0  0  0  0  0  0  0
   -1.2870    9.9281    0.4514 C   0  0  0  0  0  0  0  0  0  0  0  0
    1.9912    5.0824   -2.7231 H   0  0  0  0  0  0  0  0  0  0  0  0
    1.1939    6.6327   -3.0824 H   0  0  0  0  0  0  0  0  0  0  0  0
    2.9104    6.6026   -2.6121 H   0  0  0  0  0  0  0  0  0  0  0  0
    2.2825    5.8127    0.8718 H   0  0  0  0  0  0  0  0  0  0  0  0
    3.5285    5.9972   -0.3858 H   0  0  0  0  0  0  0  0  0  0  0  0
    3.3622    3.4693    1.4616 H   0  0  0  0  0  0  0  0  0  0  0  0
    4.5619    3.9324    0.2284 H   0  0  0  0  0  0  0  0  0  0  0  0
    4.3918    1.4350    0.6341 H   0  0  0  0  0  0  0  0  0  0  0  0
    4.1255    1.9263   -1.0519 H   0  0  0  0  0  0  0  0  0  0  0  0
    0.2997   -2.5219   -0.0096 H   0  0  0  0  0  0  0  0  0  0  0  0
    1.9797   -2.5339   -0.0282 H   0  0  0  0  0  0  0  0  0  0  0  0
   -2.0571    1.5170    0.0201 H   0  0  0  0  0  0  0  0  0  0  0  0
   -1.2272    2.9778    0.0241 H   0  0  0  0  0  0  0  0  0  0  0  0
    0.9361    3.8681    1.0337 H   0  0  0  0  0  0  0  0  0  0  0  0
    0.3805    3.8784   -0.6534 H   0  0  0  0  0  0  0  0  0  0  0  0
    3.4289    8.1084   -1.0315 H   0  0  0  0  0  0  0  0  0  0  0  0
    3.1562   10.4708   -0.4159 H   0  0  0  0  0  0  0  0  0  0  0  0
    0.9914   11.3415    0.2738 H   0  0  0  0  0  0  0  0  0  0  0  0
   -0.9004    6.1954   -0.5117 H   0  0  0  0  0  0  0  0  0  0  0  0
   -3.0623    7.0804    0.1803 H   0  0  0  0  0  0  0  0  0  0  0  0
   -3.3164    9.4469    0.7929 H   0  0  0  0  0  0  0  0  0  0  0  0
   -1.4133   10.9655    0.7240 H   0  0  0  0  0  0  0  0  0  0  0  0
    2.3774   -0.0619   -0.0250 N   0  3  0  0  0  0  0  0  0  0  0  0
    3.2466   -0.5562   -0.0375 H   0  0  0  0  0  0  0  0  0  0  0  0
  1  2  1  0  0  0  0
  1 26  1  0  0  0  0
  1 27  1  0  0  0  0
  1 28  1  0  0  0  0
  2  3  1  0  0  0  0
  2 16  1  0  0  0  0
  3  4  1  0  0  0  0
  3 29  1  0  0  0  0
  3 30  1  0  0  0  0
  4  5  1  0  0  0  0
  4 15  1  0  0  0  0
  4  6  1  0  0  0  0
  6  7  1  0  0  0  0
  6 31  1  0  0  0  0
  6 32  1  0  0  0  0
  7  8  1  0  0  0  0
  7 33  1  0  0  0  0
  7 34  1  0  0  0  0
  8  9  2  0  0  0  0
  8 48  1  0  0  0  0
  9 10  1  0  0  0  0
  9 15  1  0  0  0  0
 10 11  2  0  0  0  0
 10 14  1  0  0  0  0
 11 12  1  0  0  0  0
 12 13  1  0  0  0  0
 12 48  2  0  0  0  0
 13 35  1  0  0  0  0
 13 36  1  0  0  0  0
 14 37  1  0  0  0  0
 14 38  1  0  0  0  0
 15 39  1  0  0  0  0
 15 40  1  0  0  0  0
 16 21  2  0  0  0  0
 16 17  1  0  0  0  0
 17 18  2  0  0  0  0
 17 41  1  0  0  0  0
 18 19  1  0  0  0  0
 18 42  1  0  0  0  0
 19 20  2  0  0  0  0
 19 43  1  0  0  0  0
 20 25  1  0  0  0  0
 20 21  1  0  0  0  0
 21 22  1  0  0  0  0
 22 23  2  0  0  0  0
 22 44  1  0  0  0  0
 23 24  1  0  0  0  0
 23 45  1  0  0  0  0
 24 25  2  0  0  0  0
 24 46  1  0  0  0  0
 25 47  1  0  0  0  0
 48 49  1  0  0  0  0
M  CHG  1  48   1
M  END
$$$$
ZINC03814885
  -OEChem-08230709403D

 53 55  0     1  0  0  0  0  0999 V2000
    1.2839   -0.6354   -0.0136 C   0  0  0  0  0  0  0  0  0  0  0  0
    0.0021   -0.0041    0.0020 O   0  0  0  0  0  0  0  0  0  0  0  0
   -0.0164    1.3557    0.0095 C   0  0  0  0  0  0  0  0  0  0  0  0
    1.1743    2.0651    0.0019 C   0  0  0  0  0  0  0  0  0  0  0  0
    1.1557    3.4536    0.0092 C   0  0  0  0  0  0  0  0  0  0  0  0
   -0.0557    4.1322    0.0249 C   0  0  0  0  0  0  0  0  0  0  0  0
   -1.2471    3.4239    0.0329 C   0  0  0  0  0  0  0  0  0  0  0  0
   -1.2292    2.0343    0.0189 C   0  0  0  0  0  0  0  0  0  0  0  0
   -2.3994    1.3379    0.0202 O   0  0  0  0  0  0  0  0  0  0  0  0
   -2.9511    0.9987    1.2940 C   0  0  0  0  0  0  0  0  0  0  0  0
   -2.4334    4.0887    0.0483 O   0  0  0  0  0  0  0  0  0  0  0  0
   -2.3769    5.5165    0.0554 C   0  0  0  0  0  0  0  0  0  0  0  0
    2.3580    4.1691    0.0011 N   0  0  0  0  0  0  0  0  0  0  0  0
    2.3387    5.6340    0.0087 C   0  0  0  0  0  0  0  0  0  0  0  0
    2.3460    6.1366    1.4537 C   0  0  1  0  0  0  0  0  0  0  0  0
    3.1936    5.7062    1.9870 H   0  0  0  0  0  0  0  0  0  0  0  0
    2.4518    7.6661    1.4668 C   0  0  0  0  0  0  0  0  0  0  0  0
    2.6922    8.1231    2.9049 C   0  0  0  0  0  0  0  0  0  0  0  0
    1.6762    7.5091    3.8295 C   0  0  0  0  0  0  0  0  0  0  0  0
    0.9267    6.4120    3.4817 C   0  0  0  0  0  0  0  0  0  0  0  0
    0.0105    5.9051    4.4120 C   0  0  0  0  0  0  0  0  0  0  0  0
   -0.1095    6.4985    5.5937 N   0  0  0  0  0  0  0  0  0  0  0  0
    0.6283    7.5577    5.8902 C   0  0  0  0  0  0  0  0  0  0  0  0
    1.5027    8.0548    5.0307 N   0  0  0  0  0  0  0  0  0  0  0  0
    0.4815    8.1583    7.1284 N   0  0  0  0  0  0  0  0  0  0  0  0
   -0.7613    4.7971    4.1028 N   0  0  0  0  0  0  0  0  0  0  0  0
    1.0425    5.7362    2.1435 C   0  0  0  0  0  0  0  0  0  0  0  0
    3.5403    3.5072   -0.0138 C   0  0  0  0  0  0  0  0  0  0  0  0
    4.5646    2.9337   -0.0267 C   0  0  0  0  0  0  0  0  0  0  0  0
    1.8454   -0.3398    0.8726 H   0  0  0  0  0  0  0  0  0  0  0  0
    1.1558   -1.7179   -0.0182 H   0  0  0  0  0  0  0  0  0  0  0  0
    1.8284   -0.3302   -0.9072 H   0  0  0  0  0  0  0  0  0  0  0  0
    2.1168    1.5379   -0.0099 H   0  0  0  0  0  0  0  0  0  0  0  0
   -0.0695    5.2121    0.0312 H   0  0  0  0  0  0  0  0  0  0  0  0
   -2.2418    0.3805    1.8442 H   0  0  0  0  0  0  0  0  0  0  0  0
   -3.1520    1.9101    1.8572 H   0  0  0  0  0  0  0  0  0  0  0  0
   -3.8804    0.4470    1.1522 H   0  0  0  0  0  0  0  0  0  0  0  0
   -3.3893    5.9202    0.0676 H   0  0  0  0  0  0  0  0  0  0  0  0
   -1.8402    5.8545    0.9419 H   0  0  0  0  0  0  0  0  0  0  0  0
   -1.8579    5.8641   -0.8379 H   0  0  0  0  0  0  0  0  0  0  0  0
    3.2188    6.0117   -0.5119 H   0  0  0  0  0  0  0  0  0  0  0  0
    1.4390    5.9881   -0.4946 H   0  0  0  0  0  0  0  0  0  0  0  0
    3.2848    7.9810    0.8384 H   0  0  0  0  0  0  0  0  0  0  0  0
    1.5252    8.1005    1.0915 H   0  0  0  0  0  0  0  0  0  0  0  0
    3.6920    7.8208    3.2166 H   0  0  0  0  0  0  0  0  0  0  0  0
    2.6154    9.2092    2.9554 H   0  0  0  0  0  0  0  0  0  0  0  0
   -0.1560    7.8030    7.7673 H   0  0  0  0  0  0  0  0  0  0  0  0
    1.0162    8.9347    7.3573 H   0  0  0  0  0  0  0  0  0  0  0  0
   -0.6690    4.3677    3.2380 H   0  0  0  0  0  0  0  0  0  0  0  0
   -1.3942    4.4506    4.7512 H   0  0  0  0  0  0  0  0  0  0  0  0
    0.1991    6.0287    1.5179 H   0  0  0  0  0  0  0  0  0  0  0  0
    1.0259    4.6553    2.2831 H   0  0  0  0  0  0  0  0  0  0  0  0
    5.4807    2.4208   -0.0383 H   0  0  0  0  0  0  0  0  0  0  0  0
  1  2  1  0  0  0  0
  1 30  1  0  0  0  0
  1 31  1  0  0  0  0
  1 32  1  0  0  0  0
  2  3  1  0  0  0  0
  3  8  2  0  0  0  0
  3  4  1  0  0  0  0
  4  5  2  0  0  0  0
  4 33  1  0  0  0  0
  5  6  1  0  0  0  0
  5 13  1  0  0  0  0
  6  7  2  0  0  0  0
  6 34  1  0  0  0  0
  7  8  1  0  0  0  0
  7 11  1  0  0  0  0
  8  9  1  0  0  0  0
  9 10  1  0  0  0  0
 10 35  1  0  0  0  0
 10 36  1  0  0  0  0
 10 37  1  0  0  0  0
 11 12  1  0  0  0  0
 12 38  1  0  0  0  0
 12 39  1  0  0  0  0
 12 40  1  0  0  0  0
 13 14  1  0  0  0  0
 13 28  1  0  0  0  0
 14 15  1  0  0  0  0
 14 41  1  0  0  0  0
 14 42  1  0  0  0  0
 15 16  1  0  0  0  0
 15 27  1  0  0  0  0
 15 17  1  0  0  0  0
 17 18  1  0  0  0  0
 17 43  1  0  0  0  0
 17 44  1  0  0  0  0
 18 19  1  0  0  0  0
 18 45  1  0  0  0  0
 18 46  1  0  0  0  0
 19 24  2  0  0  0  0
 19 20  1  0  0  0  0
 20 21  2  0  0  0  0
 20 27  1  0  0  0  0
 21 22  1  0  0  0  0
 21 26  1  0  0  0  0
 22 23  2  0  0  0  0
 23 24  1  0  0  0  0
 23 25  1  0  0  0  0
 25 47  1  0  0  0  0
 25 48  1  0  0  0  0
 26 49  1  0  0  0  0
 26 50  1  0  0  0  0
 27 51  1  0  0  0  0
 27 52  1  0  0  0  0
 28 29  3  0  0  0  0
 29 53  1  0  0  0  0
M  END
$$$$
ZINC03814885
  -OEChem-08230709403D

 54 56  0     1  0  0  0  0  0999 V2000
    1.2839   -0.6354   -0.0136 C   0  0  0  0  0  0  0  0  0  0  0  0
    0.0021   -0.0041    0.0020 O   0  0  0  0  0  0  0  0  0  0  0  0
   -0.0164    1.3557    0.0095 C   0  0  0  0  0  0  0  0  0  0  0  0
    1.1743    2.0651    0.0019 C   0  0  0  0  0  0  0  0  0  0  0  0
    1.1557    3.4536    0.0092 C   0  0  0  0  0  0  0  0  0  0  0  0
   -0.0557    4.1322    0.0249 C   0  0  0  0  0  0  0  0  0  0  0  0
   -1.2471    3.4239    0.0329 C   0  0  0  0  0  0  0  0  0  0  0  0
   -1.2292    2.0343    0.0189 C   0  0  0  0  0  0  0  0  0  0  0  0
   -2.3994    1.3379    0.0202 O   0  0  0  0  0  0  0  0  0  0  0  0
   -2.9511    0.9987    1.2940 C   0  0  0  0  0  0  0  0  0  0  0  0
   -2.4334    4.0887    0.0483 O   0  0  0  0  0  0  0  0  0  0  0  0
   -2.3769    5.5165    0.0554 C   0  0  0  0  0  0  0  0  0  0  0  0
    2.3580    4.1691    0.0011 N   0  0  0  0  0  0  0  0  0  0  0  0
    2.3387    5.6340    0.0087 C   0  0  0  0  0  0  0  0  0  0  0  0
    2.3460    6.1366    1.4537 C   0  0  1  0  0  0  0  0  0  0  0  0
    3.1936    5.7062    1.9870 H   0  0  0  0  0  0  0  0  0  0  0  0
    2.4518    7.6661    1.4668 C   0  0  0  0  0  0  0  0  0  0  0  0
    2.6922    8.1231    2.9049 C   0  0  0  0  0  0  0  0  0  0  0  0
    1.6762    7.5091    3.8295 C   0  0  0  0  0  0  0  0  0  0  0  0
    0.9267    6.4120    3.4817 C   0  0  0  0  0  0  0  0  0  0  0  0
    0.0105    5.9051    4.4120 C   0  0  0  0  0  0  0  0  0  0  0  0
   -0.1095    6.4985    5.5937 N   0  0  0  0  0  0  0  0  0  0  0  0
    0.6283    7.5577    5.8902 C   0  0  0  0  0  0  0  0  0  0  0  0
    0.4815    8.1583    7.1284 N   0  0  0  0  0  0  0  0  0  0  0  0
   -0.7613    4.7971    4.1028 N   0  0  0  0  0  0  0  0  0  0  0  0
    1.0425    5.7362    2.1435 C   0  0  0  0  0  0  0  0  0  0  0  0
    3.5403    3.5072   -0.0138 C   0  0  0  0  0  0  0  0  0  0  0  0
    4.5646    2.9337   -0.0267 C   0  0  0  0  0  0  0  0  0  0  0  0
    1.8454   -0.3398    0.8726 H   0  0  0  0  0  0  0  0  0  0  0  0
    1.1558   -1.7179   -0.0182 H   0  0  0  0  0  0  0  0  0  0  0  0
    1.8284   -0.3302   -0.9072 H   0  0  0  0  0  0  0  0  0  0  0  0
    2.1168    1.5379   -0.0099 H   0  0  0  0  0  0  0  0  0  0  0  0
   -0.0695    5.2121    0.0312 H   0  0  0  0  0  0  0  0  0  0  0  0
   -2.2418    0.3805    1.8442 H   0  0  0  0  0  0  0  0  0  0  0  0
   -3.1520    1.9101    1.8572 H   0  0  0  0  0  0  0  0  0  0  0  0
   -3.8804    0.4470    1.1522 H   0  0  0  0  0  0  0  0  0  0  0  0
   -3.3893    5.9202    0.0676 H   0  0  0  0  0  0  0  0  0  0  0  0
   -1.8402    5.8545    0.9419 H   0  0  0  0  0  0  0  0  0  0  0  0
   -1.8579    5.8641   -0.8379 H   0  0  0  0  0  0  0  0  0  0  0  0
    3.2188    6.0117   -0.5119 H   0  0  0  0  0  0  0  0  0  0  0  0
    1.4390    5.9881   -0.4946 H   0  0  0  0  0  0  0  0  0  0  0  0
    3.2848    7.9810    0.8384 H   0  0  0  0  0  0  0  0  0  0  0  0
    1.5252    8.1005    1.0915 H   0  0  0  0  0  0  0  0  0  0  0  0
    3.6920    7.8208    3.2166 H   0  0  0  0  0  0  0  0  0  0  0  0
    2.6154    9.2092    2.9554 H   0  0  0  0  0  0  0  0  0  0  0  0
   -0.1560    7.8030    7.7673 H   0  0  0  0  0  0  0  0  0  0  0  0
    1.0162    8.9347    7.3573 H   0  0  0  0  0  0  0  0  0  0  0  0
   -0.6690    4.3677    3.2380 H   0  0  0  0  0  0  0  0  0  0  0  0
   -1.3942    4.4506    4.7512 H   0  0  0  0  0  0  0  0  0  0  0  0
    0.1991    6.0287    1.5179 H   0  0  0  0  0  0  0  0  0  0  0  0
    1.0259    4.6553    2.2831 H   0  0  0  0  0  0  0  0  0  0  0  0
    5.4807    2.4208   -0.0383 H   0  0  0  0  0  0  0  0  0  0  0  0
    1.5441    8.1162    5.0506 N   0  3  0  0  0  0  0  0  0  0  0  0
    2.1016    8.9157    5.2744 H   0  0  0  0  0  0  0  0  0  0  0  0
  1  2  1  0  0  0  0
  1 29  1  0  0  0  0
  1 30  1  0  0  0  0
  1 31  1  0  0  0  0
  2  3  1  0  0  0  0
  3  8  2  0  0  0  0
  3  4  1  0  0  0  0
  4  5  2  0  0  0  0
  4 32  1  0  0  0  0
  5  6  1  0  0  0  0
  5 13  1  0  0  0  0
  6  7  2  0  0  0  0
  6 33  1  0  0  0  0
  7  8  1  0  0  0  0
  7 11  1  0  0  0  0
  8  9  1  0  0  0  0
  9 10  1  0  0  0  0
 10 34  1  0  0  0  0
 10 35  1  0  0  0  0
 10 36  1  0  0  0  0
 11 12  1  0  0  0  0
 12 37  1  0  0  0  0
 12 38  1  0  0  0  0
 12 39  1  0  0  0  0
 13 14  1  0  0  0  0
 13 27  1  0  0  0  0
 14 15  1  0  0  0  0
 14 40  1  0  0  0  0
 14 41  1  0  0  0  0
 15 16  1  0  0  0  0
 15 26  1  0  0  0  0
 15 17  1  0  0  0  0
 17 18  1  0  0  0  0
 17 42  1  0  0  0  0
 17 43  1  0  0  0  0
 18 19  1  0  0  0  0
 18 44  1  0  0  0  0
 18 45  1  0  0  0  0
 19 20  2  0  0  0  0
 19 53  1  0  0  0  0
 20 21  1  0  0  0  0
 20 26  1  0  0  0  0
 21 22  2  0  0  0  0
 21 25  1  0  0  0  0
 22 23  1  0  0  0  0
 23 24  1  0  0  0  0
 23 53  2  0  0  0  0
 24 46  1  0  0  0  0
 24 47  1  0  0  0  0
 25 48  1  0  0  0  0
 25 49  1  0  0  0  0
 26 50  1  0  0  0  0
 26 51  1  0  0  0  0
 27 28  3  0  0  0  0
 28 52  1  0  0  0  0
 53 54  1  0  0  0  0
M  CHG  1  53   1
M  END
$$$$
ZINC03814886
  -OEChem-08230709403D

 47 49  0     1  0  0  0  0  0999 V2000
    2.6535   -0.7383    5.9763 C   0  0  0  0  0  0  0  0  0  0  0  0
    1.4760    0.0705    6.0151 O   0  0  0  0  0  0  0  0  0  0  0  0
    0.9396    0.4375    4.8207 C   0  0  0  0  0  0  0  0  0  0  0  0
    1.5355    0.0262    3.6377 C   0  0  0  0  0  0  0  0  0  0  0  0
    0.9896    0.3932    2.4215 C   0  0  0  0  0  0  0  0  0  0  0  0
   -0.1480    1.1816    2.3813 C   0  0  0  0  0  0  0  0  0  0  0  0
   -0.7493    1.5960    3.5675 C   0  0  0  0  0  0  0  0  0  0  0  0
   -0.2029    1.2222    4.7864 C   0  0  0  0  0  0  0  0  0  0  0  0
   -1.9027    2.3876    3.5296 N   0  0  0  0  0  0  0  0  0  0  0  0
   -2.5339    2.8227    4.7780 C   0  0  0  0  0  0  0  0  0  0  0  0
   -3.7676    3.6690    4.4578 C   0  0  1  0  0  0  0  0  0  0  0  0
   -4.4342    3.1109    3.8003 H   0  0  0  0  0  0  0  0  0  0  0  0
   -4.5017    4.0221    5.7567 C   0  0  0  0  0  0  0  0  0  0  0  0
   -5.8428    4.6601    5.3975 C   0  0  0  0  0  0  0  0  0  0  0  0
   -5.6467    5.7770    4.4084 C   0  0  0  0  0  0  0  0  0  0  0  0
   -4.5015    5.9122    3.6625 C   0  0  0  0  0  0  0  0  0  0  0  0
   -4.4125    6.9800    2.7604 C   0  0  0  0  0  0  0  0  0  0  0  0
   -5.4292    7.8276    2.6563 N   0  0  0  0  0  0  0  0  0  0  0  0
   -6.5155    7.6660    3.3967 C   0  0  0  0  0  0  0  0  0  0  0  0
   -6.6260    6.6647    4.2542 N   0  0  0  0  0  0  0  0  0  0  0  0
   -7.5596    8.5654    3.2699 N   0  0  0  0  0  0  0  0  0  0  0  0
   -3.2768    7.1496    1.9854 N   0  0  0  0  0  0  0  0  0  0  0  0
   -3.3370    4.9679    3.7774 C   0  0  0  0  0  0  0  0  0  0  0  0
   -0.6816    1.5467    1.1837 O   0  0  0  0  0  0  0  0  0  0  0  0
   -0.0127    1.0858    0.0080 C   0  0  0  0  0  0  0  0  0  0  0  0
    2.9764   -0.9589    6.9938 H   0  0  0  0  0  0  0  0  0  0  0  0
    2.4372   -1.6701    5.4537 H   0  0  0  0  0  0  0  0  0  0  0  0
    3.4449   -0.2029    5.4520 H   0  0  0  0  0  0  0  0  0  0  0  0
    2.4255   -0.5850    3.6666 H   0  0  0  0  0  0  0  0  0  0  0  0
    1.4532    0.0678    1.5019 H   0  0  0  0  0  0  0  0  0  0  0  0
   -0.6671    1.5417    5.7077 H   0  0  0  0  0  0  0  0  0  0  0  0
   -2.2842    2.6483    2.6767 H   0  0  0  0  0  0  0  0  0  0  0  0
   -2.8329    1.9493    5.3576 H   0  0  0  0  0  0  0  0  0  0  0  0
   -1.8256    3.4168    5.3555 H   0  0  0  0  0  0  0  0  0  0  0  0
   -4.6712    3.1166    6.3393 H   0  0  0  0  0  0  0  0  0  0  0  0
   -3.9026    4.7240    6.3368 H   0  0  0  0  0  0  0  0  0  0  0  0
   -6.4964    3.9041    4.9623 H   0  0  0  0  0  0  0  0  0  0  0  0
   -6.3068    5.0562    6.3008 H   0  0  0  0  0  0  0  0  0  0  0  0
   -7.4907    9.3035    2.6443 H   0  0  0  0  0  0  0  0  0  0  0  0
   -8.3604    8.4577    3.8066 H   0  0  0  0  0  0  0  0  0  0  0  0
   -2.5374    6.5269    2.0657 H   0  0  0  0  0  0  0  0  0  0  0  0
   -3.2210    7.8911    1.3625 H   0  0  0  0  0  0  0  0  0  0  0  0
   -2.5484    5.4381    4.3648 H   0  0  0  0  0  0  0  0  0  0  0  0
   -2.9553    4.7436    2.7814 H   0  0  0  0  0  0  0  0  0  0  0  0
    0.0021   -0.0041    0.0020 H   0  0  0  0  0  0  0  0  0  0  0  0
    1.0099    1.4631    0.0003 H   0  0  0  0  0  0  0  0  0  0  0  0
   -0.5399    1.4469   -0.8751 H   0  0  0  0  0  0  0  0  0  0  0  0
  1  2  1  0  0  0  0
  1 26  1  0  0  0  0
  1 27  1  0  0  0  0
  1 28  1  0  0  0  0
  2  3  1  0  0  0  0
  3  8  2  0  0  0  0
  3  4  1  0  0  0  0
  4  5  2  0  0  0  0
  4 29  1  0  0  0  0
  5  6  1  0  0  0  0
  5 30  1  0  0  0  0
  6  7  2  0  0  0  0
  6 24  1  0  0  0  0
  7  8  1  0  0  0  0
  7  9  1  0  0  0  0
  8 31  1  0  0  0  0
  9 10  1  0  0  0  0
  9 32  1  0  0  0  0
 10 11  1  0  0  0  0
 10 33  1  0  0  0  0
 10 34  1  0  0  0  0
 11 12  1  0  0  0  0
 11 23  1  0  0  0  0
 11 13  1  0  0  0  0
 13 14  1  0  0  0  0
 13 35  1  0  0  0  0
 13 36  1  0  0  0  0
 14 15  1  0  0  0  0
 14 37  1  0  0  0  0
 14 38  1  0  0  0  0
 15 20  2  0  0  0  0
 15 16  1  0  0  0  0
 16 17  2  0  0  0  0
 16 23  1  0  0  0  0
 17 18  1  0  0  0  0
 17 22  1  0  0  0  0
 18 19  2  0  0  0  0
 19 20  1  0  0  0  0
 19 21  1  0  0  0  0
 21 39  1  0  0  0  0
 21 40  1  0  0  0  0
 22 41  1  0  0  0  0
 22 42  1  0  0  0  0
 23 43  1  0  0  0  0
 23 44  1  0  0  0  0
 24 25  1  0  0  0  0
 25 45  1  0  0  0  0
 25 46  1  0  0  0  0
 25 47  1  0  0  0  0
M  END
$$$$
ZINC03814886
  -OEChem-08230709403D

 48 50  0     1  0  0  0  0  0999 V2000
    2.6535   -0.7383    5.9763 C   0  0  0  0  0  0  0  0  0  0  0  0
    1.4760    0.0705    6.0151 O   0  0  0  0  0  0  0  0  0  0  0  0
    0.9396    0.4375    4.8207 C   0  0  0  0  0  0  0  0  0  0  0  0
    1.5355    0.0262    3.6377 C   0  0  0  0  0  0  0  0  0  0  0  0
    0.9896    0.3932    2.4215 C   0  0  0  0  0  0  0  0  0  0  0  0
   -0.1480    1.1816    2.3813 C   0  0  0  0  0  0  0  0  0  0  0  0
   -0.7493    1.5960    3.5675 C   0  0  0  0  0  0  0  0  0  0  0  0
   -0.2029    1.2222    4.7864 C   0  0  0  0  0  0  0  0  0  0  0  0
   -1.9027    2.3876    3.5296 N   0  0  0  0  0  0  0  0  0  0  0  0
   -2.5339    2.8227    4.7780 C   0  0  0  0  0  0  0  0  0  0  0  0
   -3.7676    3.6690    4.4578 C   0  0  1  0  0  0  0  0  0  0  0  0
   -4.4342    3.1109    3.8003 H   0  0  0  0  0  0  0  0  0  0  0  0
   -4.5017    4.0221    5.7567 C   0  0  0  0  0  0  0  0  0  0  0  0
   -5.8428    4.6601    5.3975 C   0  0  0  0  0  0  0  0  0  0  0  0
   -5.6467    5.7770    4.4084 C   0  0  0  0  0  0  0  0  0  0  0  0
   -4.5015    5.9122    3.6625 C   0  0  0  0  0  0  0  0  0  0  0  0
   -4.4125    6.9800    2.7604 C   0  0  0  0  0  0  0  0  0  0  0  0
   -5.4292    7.8276    2.6563 N   0  0  0  0  0  0  0  0  0  0  0  0
   -6.5155    7.6660    3.3967 C   0  0  0  0  0  0  0  0  0  0  0  0
   -7.5596    8.5654    3.2699 N   0  0  0  0  0  0  0  0  0  0  0  0
   -3.2768    7.1496    1.9854 N   0  0  0  0  0  0  0  0  0  0  0  0
   -3.3370    4.9679    3.7774 C   0  0  0  0  0  0  0  0  0  0  0  0
   -0.6816    1.5467    1.1837 O   0  0  0  0  0  0  0  0  0  0  0  0
   -0.0127    1.0858    0.0080 C   0  0  0  0  0  0  0  0  0  0  0  0
    2.9764   -0.9589    6.9938 H   0  0  0  0  0  0  0  0  0  0  0  0
    2.4372   -1.6701    5.4537 H   0  0  0  0  0  0  0  0  0  0  0  0
    3.4449   -0.2029    5.4520 H   0  0  0  0  0  0  0  0  0  0  0  0
    2.4255   -0.5850    3.6666 H   0  0  0  0  0  0  0  0  0  0  0  0
    1.4532    0.0678    1.5019 H   0  0  0  0  0  0  0  0  0  0  0  0
   -0.6671    1.5417    5.7077 H   0  0  0  0  0  0  0  0  0  0  0  0
   -2.2842    2.6483    2.6767 H   0  0  0  0  0  0  0  0  0  0  0  0
   -2.8329    1.9493    5.3576 H   0  0  0  0  0  0  0  0  0  0  0  0
   -1.8256    3.4168    5.3555 H   0  0  0  0  0  0  0  0  0  0  0  0
   -4.6712    3.1166    6.3393 H   0  0  0  0  0  0  0  0  0  0  0  0
   -3.9026    4.7240    6.3368 H   0  0  0  0  0  0  0  0  0  0  0  0
   -6.4964    3.9041    4.9623 H   0  0  0  0  0  0  0  0  0  0  0  0
   -6.3068    5.0562    6.3008 H   0  0  0  0  0  0  0  0  0  0  0  0
   -7.4907    9.3035    2.6443 H   0  0  0  0  0  0  0  0  0  0  0  0
   -8.3604    8.4577    3.8066 H   0  0  0  0  0  0  0  0  0  0  0  0
   -2.5374    6.5269    2.0657 H   0  0  0  0  0  0  0  0  0  0  0  0
   -3.2210    7.8911    1.3625 H   0  0  0  0  0  0  0  0  0  0  0  0
   -2.5484    5.4381    4.3648 H   0  0  0  0  0  0  0  0  0  0  0  0
   -2.9553    4.7436    2.7814 H   0  0  0  0  0  0  0  0  0  0  0  0
    0.0021   -0.0041    0.0020 H   0  0  0  0  0  0  0  0  0  0  0  0
    1.0099    1.4631    0.0003 H   0  0  0  0  0  0  0  0  0  0  0  0
   -0.5399    1.4469   -0.8751 H   0  0  0  0  0  0  0  0  0  0  0  0
   -6.6901    6.6578    4.2958 N   0  3  0  0  0  0  0  0  0  0  0  0
   -7.5104    6.5353    4.8545 H   0  0  0  0  0  0  0  0  0  0  0  0
  1  2  1  0  0  0  0
  1 25  1  0  0  0  0
  1 26  1  0  0  0  0
  1 27  1  0  0  0  0
  2  3  1  0  0  0  0
  3  8  2  0  0  0  0
  3  4  1  0  0  0  0
  4  5  2  0  0  0  0
  4 28  1  0  0  0  0
  5  6  1  0  0  0  0
  5 29  1  0  0  0  0
  6  7  2  0  0  0  0
  6 23  1  0  0  0  0
  7  8  1  0  0  0  0
  7  9  1  0  0  0  0
  8 30  1  0  0  0  0
  9 10  1  0  0  0  0
  9 31  1  0  0  0  0
 10 11  1  0  0  0  0
 10 32  1  0  0  0  0
 10 33  1  0  0  0  0
 11 12  1  0  0  0  0
 11 22  1  0  0  0  0
 11 13  1  0  0  0  0
 13 14  1  0  0  0  0
 13 34  1  0  0  0  0
 13 35  1  0  0  0  0
 14 15  1  0  0  0  0
 14 36  1  0  0  0  0
 14 37  1  0  0  0  0
 15 16  2  0  0  0  0
 15 47  1  0  0  0  0
 16 17  1  0  0  0  0
 16 22  1  0  0  0  0
 17 18  2  0  0  0  0
 17 21  1  0  0  0  0
 18 19  1  0  0  0  0
 19 20  1  0  0  0  0
 19 47  2  0  0  0  0
 20 38  1  0  0  0  0
 20 39  1  0  0  0  0
 21 40  1  0  0  0  0
 21 41  1  0  0  0  0
 22 42  1  0  0  0  0
 22 43  1  0  0  0  0
 23 24  1  0  0  0  0
 24 44  1  0  0  0  0
 24 45  1  0  0  0  0
 24 46  1  0  0  0  0
 47 48  1  0  0  0  0
M  CHG  1  47   1
M  END
$$$$
ZINC03814887
  -OEChem-08230709403D

 50 52  0     1  0  0  0  0  0999 V2000
   -3.0470    1.6815    4.1180 C   0  0  0  0  0  0  0  0  0  0  0  0
   -1.9019    2.3888    3.5296 N   0  0  1  0  0  0  0  0  0  0  0  0
   -1.6774    3.6765    4.2001 C   0  0  0  0  0  0  0  0  0  0  0  0
   -2.8603    4.6073    3.9259 C   0  0  1  0  0  0  0  0  0  0  0  0
   -3.7884    4.1162    4.2183 H   0  0  0  0  0  0  0  0  0  0  0  0
   -2.6904    5.9054    4.7239 C   0  0  0  0  0  0  0  0  0  0  0  0
   -3.9843    6.7114    4.6190 C   0  0  0  0  0  0  0  0  0  0  0  0
   -4.4005    6.8542    3.1801 C   0  0  0  0  0  0  0  0  0  0  0  0
   -3.9105    6.0452    2.1843 C   0  0  0  0  0  0  0  0  0  0  0  0
   -4.3624    6.2480    0.8741 C   0  0  0  0  0  0  0  0  0  0  0  0
   -5.2423    7.2128    0.6335 N   0  0  0  0  0  0  0  0  0  0  0  0
   -5.6880    7.9752    1.6205 C   0  0  0  0  0  0  0  0  0  0  0  0
   -5.2796    7.8029    2.8670 N   0  0  0  0  0  0  0  0  0  0  0  0
   -6.6030    8.9754    1.3414 N   0  0  0  0  0  0  0  0  0  0  0  0
   -3.8970    5.4506   -0.1587 N   0  0  0  0  0  0  0  0  0  0  0  0
   -2.9051    4.9564    2.4387 C   0  0  0  0  0  0  0  0  0  0  0  0
   -0.7493    1.5960    3.5675 C   0  0  0  0  0  0  0  0  0  0  0  0
   -0.2032    1.2218    4.7864 C   0  0  0  0  0  0  0  0  0  0  0  0
    0.9390    0.4366    4.8207 C   0  0  0  0  0  0  0  0  0  0  0  0
    1.5352    0.0257    3.6377 C   0  0  0  0  0  0  0  0  0  0  0  0
    0.9896    0.3932    2.4215 C   0  0  0  0  0  0  0  0  0  0  0  0
   -0.1480    1.1816    2.3813 C   0  0  0  0  0  0  0  0  0  0  0  0
   -0.6816    1.5467    1.1837 O   0  0  0  0  0  0  0  0  0  0  0  0
   -0.0127    1.0858    0.0080 C   0  0  0  0  0  0  0  0  0  0  0  0
    1.4754    0.0696    6.0151 O   0  0  0  0  0  0  0  0  0  0  0  0
    2.6525   -0.7397    5.9763 C   0  0  0  0  0  0  0  0  0  0  0  0
   -2.8268    1.4343    5.1565 H   0  0  0  0  0  0  0  0  0  0  0  0
   -3.9293    2.3201    4.0757 H   0  0  0  0  0  0  0  0  0  0  0  0
   -3.2346    0.7651    3.5584 H   0  0  0  0  0  0  0  0  0  0  0  0
   -1.5833    3.5153    5.2740 H   0  0  0  0  0  0  0  0  0  0  0  0
   -0.7623    4.1299    3.8192 H   0  0  0  0  0  0  0  0  0  0  0  0
   -2.4897    5.6692    5.7689 H   0  0  0  0  0  0  0  0  0  0  0  0
   -1.8640    6.4838    4.3109 H   0  0  0  0  0  0  0  0  0  0  0  0
   -4.7723    6.2016    5.1732 H   0  0  0  0  0  0  0  0  0  0  0  0
   -3.8281    7.7009    5.0488 H   0  0  0  0  0  0  0  0  0  0  0  0
   -6.9372    9.5401    2.0558 H   0  0  0  0  0  0  0  0  0  0  0  0
   -6.9102    9.1116    0.4315 H   0  0  0  0  0  0  0  0  0  0  0  0
   -4.2139    5.5956   -1.0639 H   0  0  0  0  0  0  0  0  0  0  0  0
   -3.2543    4.7473    0.0233 H   0  0  0  0  0  0  0  0  0  0  0  0
   -1.9196    5.2938    2.1179 H   0  0  0  0  0  0  0  0  0  0  0  0
   -3.1823    4.0697    1.8686 H   0  0  0  0  0  0  0  0  0  0  0  0
   -0.6674    1.5413    5.7077 H   0  0  0  0  0  0  0  0  0  0  0  0
    2.4249   -0.5859    3.6666 H   0  0  0  0  0  0  0  0  0  0  0  0
    1.4534    0.0681    1.5019 H   0  0  0  0  0  0  0  0  0  0  0  0
    0.0021   -0.0041    0.0020 H   0  0  0  0  0  0  0  0  0  0  0  0
    1.0099    1.4631    0.0003 H   0  0  0  0  0  0  0  0  0  0  0  0
   -0.5399    1.4469   -0.8751 H   0  0  0  0  0  0  0  0  0  0  0  0
    2.9755   -0.9603    6.9938 H   0  0  0  0  0  0  0  0  0  0  0  0
    2.4358   -1.6714    5.4539 H   0  0  0  0  0  0  0  0  0  0  0  0
    3.4442   -0.2046    5.4518 H   0  0  0  0  0  0  0  0  0  0  0  0
  1  2  1  0  0  0  0
  1 27  1  0  0  0  0
  1 28  1  0  0  0  0
  1 29  1  0  0  0  0
  2  3  1  0  0  0  0
  2 17  1  0  0  0  0
  3  4  1  0  0  0  0
  3 30  1  0  0  0  0
  3 31  1  0  0  0  0
  4  5  1  0  0  0  0
  4 16  1  0  0  0  0
  4  6  1  0  0  0  0
  6  7  1  0  0  0  0
  6 32  1  0  0  0  0
  6 33  1  0  0  0  0
  7  8  1  0  0  0  0
  7 34  1  0  0  0  0
  7 35  1  0  0  0  0
  8 13  2  0  0  0  0
  8  9  1  0  0  0  0
  9 10  2  0  0  0  0
  9 16  1  0  0  0  0
 10 11  1  0  0  0  0
 10 15  1  0  0  0  0
 11 12  2  0  0  0  0
 12 13  1  0  0  0  0
 12 14  1  0  0  0  0
 14 36  1  0  0  0  0
 14 37  1  0  0  0  0
 15 38  1  0  0  0  0
 15 39  1  0  0  0  0
 16 40  1  0  0  0  0
 16 41  1  0  0  0  0
 17 22  2  0  0  0  0
 17 18  1  0  0  0  0
 18 19  2  0  0  0  0
 18 42  1  0  0  0  0
 19 20  1  0  0  0  0
 19 25  1  0  0  0  0
 20 21  2  0  0  0  0
 20 43  1  0  0  0  0
 21 22  1  0  0  0  0
 21 44  1  0  0  0  0
 22 23  1  0  0  0  0
 23 24  1  0  0  0  0
 24 45  1  0  0  0  0
 24 46  1  0  0  0  0
 24 47  1  0  0  0  0
 25 26  1  0  0  0  0
 26 48  1  0  0  0  0
 26 49  1  0  0  0  0
 26 50  1  0  0  0  0
M  END
$$$$
ZINC03814887
  -OEChem-08230709403D

 51 53  0     1  0  0  0  0  0999 V2000
   -3.0470    1.6815    4.1180 C   0  0  0  0  0  0  0  0  0  0  0  0
   -1.9019    2.3888    3.5296 N   0  0  1  0  0  0  0  0  0  0  0  0
   -1.6774    3.6765    4.2001 C   0  0  0  0  0  0  0  0  0  0  0  0
   -2.8603    4.6073    3.9259 C   0  0  1  0  0  0  0  0  0  0  0  0
   -3.7884    4.1162    4.2183 H   0  0  0  0  0  0  0  0  0  0  0  0
   -2.6904    5.9054    4.7239 C   0  0  0  0  0  0  0  0  0  0  0  0
   -3.9843    6.7114    4.6190 C   0  0  0  0  0  0  0  0  0  0  0  0
   -4.4005    6.8542    3.1801 C   0  0  0  0  0  0  0  0  0  0  0  0
   -3.9105    6.0452    2.1843 C   0  0  0  0  0  0  0  0  0  0  0  0
   -4.3624    6.2480    0.8741 C   0  0  0  0  0  0  0  0  0  0  0  0
   -5.2423    7.2128    0.6335 N   0  0  0  0  0  0  0  0  0  0  0  0
   -5.6880    7.9752    1.6205 C   0  0  0  0  0  0  0  0  0  0  0  0
   -6.6030    8.9754    1.3414 N   0  0  0  0  0  0  0  0  0  0  0  0
   -3.8970    5.4506   -0.1587 N   0  0  0  0  0  0  0  0  0  0  0  0
   -2.9051    4.9564    2.4387 C   0  0  0  0  0  0  0  0  0  0  0  0
   -0.7493    1.5960    3.5675 C   0  0  0  0  0  0  0  0  0  0  0  0
   -0.2032    1.2218    4.7864 C   0  0  0  0  0  0  0  0  0  0  0  0
    0.9390    0.4366    4.8207 C   0  0  0  0  0  0  0  0  0  0  0  0
    1.5352    0.0257    3.6377 C   0  0  0  0  0  0  0  0  0  0  0  0
    0.9896    0.3932    2.4215 C   0  0  0  0  0  0  0  0  0  0  0  0
   -0.1480    1.1816    2.3813 C   0  0  0  0  0  0  0  0  0  0  0  0
   -0.6816    1.5467    1.1837 O   0  0  0  0  0  0  0  0  0  0  0  0
   -0.0127    1.0858    0.0080 C   0  0  0  0  0  0  0  0  0  0  0  0
    1.4754    0.0696    6.0151 O   0  0  0  0  0  0  0  0  0  0  0  0
    2.6525   -0.7397    5.9763 C   0  0  0  0  0  0  0  0  0  0  0  0
   -2.8268    1.4343    5.1565 H   0  0  0  0  0  0  0  0  0  0  0  0
   -3.9293    2.3201    4.0757 H   0  0  0  0  0  0  0  0  0  0  0  0
   -3.2346    0.7651    3.5584 H   0  0  0  0  0  0  0  0  0  0  0  0
   -1.5833    3.5153    5.2740 H   0  0  0  0  0  0  0  0  0  0  0  0
   -0.7623    4.1299    3.8192 H   0  0  0  0  0  0  0  0  0  0  0  0
   -2.4897    5.6692    5.7689 H   0  0  0  0  0  0  0  0  0  0  0  0
   -1.8640    6.4838    4.3109 H   0  0  0  0  0  0  0  0  0  0  0  0
   -4.7723    6.2016    5.1732 H   0  0  0  0  0  0  0  0  0  0  0  0
   -3.8281    7.7009    5.0488 H   0  0  0  0  0  0  0  0  0  0  0  0
   -6.9372    9.5401    2.0558 H   0  0  0  0  0  0  0  0  0  0  0  0
   -6.9102    9.1116    0.4315 H   0  0  0  0  0  0  0  0  0  0  0  0
   -4.2139    5.5956   -1.0639 H   0  0  0  0  0  0  0  0  0  0  0  0
   -3.2543    4.7473    0.0233 H   0  0  0  0  0  0  0  0  0  0  0  0
   -1.9196    5.2938    2.1179 H   0  0  0  0  0  0  0  0  0  0  0  0
   -3.1823    4.0697    1.8686 H   0  0  0  0  0  0  0  0  0  0  0  0
   -0.6674    1.5413    5.7077 H   0  0  0  0  0  0  0  0  0  0  0  0
    2.4249   -0.5859    3.6666 H   0  0  0  0  0  0  0  0  0  0  0  0
    1.4534    0.0681    1.5019 H   0  0  0  0  0  0  0  0  0  0  0  0
    0.0021   -0.0041    0.0020 H   0  0  0  0  0  0  0  0  0  0  0  0
    1.0099    1.4631    0.0003 H   0  0  0  0  0  0  0  0  0  0  0  0
   -0.5399    1.4469   -0.8751 H   0  0  0  0  0  0  0  0  0  0  0  0
    2.9755   -0.9603    6.9938 H   0  0  0  0  0  0  0  0  0  0  0  0
    2.4358   -1.6714    5.4539 H   0  0  0  0  0  0  0  0  0  0  0  0
    3.4442   -0.2046    5.4518 H   0  0  0  0  0  0  0  0  0  0  0  0
   -5.3072    7.8485    2.9221 N   0  3  0  0  0  0  0  0  0  0  0  0
   -5.6443    8.4234    3.6676 H   0  0  0  0  0  0  0  0  0  0  0  0
  1  2  1  0  0  0  0
  1 26  1  0  0  0  0
  1 27  1  0  0  0  0
  1 28  1  0  0  0  0
  2  3  1  0  0  0  0
  2 16  1  0  0  0  0
  3  4  1  0  0  0  0
  3 29  1  0  0  0  0
  3 30  1  0  0  0  0
  4  5  1  0  0  0  0
  4 15  1  0  0  0  0
  4  6  1  0  0  0  0
  6  7  1  0  0  0  0
  6 31  1  0  0  0  0
  6 32  1  0  0  0  0
  7  8  1  0  0  0  0
  7 33  1  0  0  0  0
  7 34  1  0  0  0  0
  8  9  2  0  0  0  0
  8 50  1  0  0  0  0
  9 10  1  0  0  0  0
  9 15  1  0  0  0  0
 10 11  2  0  0  0  0
 10 14  1  0  0  0  0
 11 12  1  0  0  0  0
 12 13  1  0  0  0  0
 12 50  2  0  0  0  0
 13 35  1  0  0  0  0
 13 36  1  0  0  0  0
 14 37  1  0  0  0  0
 14 38  1  0  0  0  0
 15 39  1  0  0  0  0
 15 40  1  0  0  0  0
 16 21  2  0  0  0  0
 16 17  1  0  0  0  0
 17 18  2  0  0  0  0
 17 41  1  0  0  0  0
 18 19  1  0  0  0  0
 18 24  1  0  0  0  0
 19 20  2  0  0  0  0
 19 42  1  0  0  0  0
 20 21  1  0  0  0  0
 20 43  1  0  0  0  0
 21 22  1  0  0  0  0
 22 23  1  0  0  0  0
 23 44  1  0  0  0  0
 23 45  1  0  0  0  0
 23 46  1  0  0  0  0
 24 25  1  0  0  0  0
 25 47  1  0  0  0  0
 25 48  1  0  0  0  0
 25 49  1  0  0  0  0
 50 51  1  0  0  0  0
M  CHG  1  50   1
M  END
$$$$
ZINC03814888
  -OEChem-08230709403D

 53 55  0     1  0  0  0  0  0999 V2000
   -2.2989    0.5754   -2.2632 C   0  0  0  0  0  0  0  0  0  0  0  0
   -2.9140   -0.2934   -1.1643 C   0  0  0  0  0  0  0  0  0  0  0  0
   -2.3431    0.0841    0.1355 N   0  0  1  0  0  0  0  0  0  0  0  0
   -3.2004   -0.3694    1.2388 C   0  0  0  0  0  0  0  0  0  0  0  0
   -4.4652    0.4901    1.2882 C   0  0  1  0  0  0  0  0  0  0  0  0
   -4.9784    0.4422    0.3278 H   0  0  0  0  0  0  0  0  0  0  0  0
   -5.3940   -0.0230    2.3949 C   0  0  0  0  0  0  0  0  0  0  0  0
   -6.7376    0.6940    2.2712 C   0  0  0  0  0  0  0  0  0  0  0  0
   -6.5351    2.1832    2.1969 C   0  0  0  0  0  0  0  0  0  0  0  0
   -5.3240    2.7506    1.8844 C   0  0  0  0  0  0  0  0  0  0  0  0
   -5.2331    4.1473    1.8311 C   0  0  0  0  0  0  0  0  0  0  0  0
   -6.3121    4.8777    2.0869 N   0  0  0  0  0  0  0  0  0  0  0  0
   -7.4614    4.2931    2.3891 C   0  0  0  0  0  0  0  0  0  0  0  0
   -7.5749    2.9761    2.4438 N   0  0  0  0  0  0  0  0  0  0  0  0
   -8.5700    5.0783    2.6536 N   0  0  0  0  0  0  0  0  0  0  0  0
   -4.0314    4.7595    1.5148 N   0  0  0  0  0  0  0  0  0  0  0  0
   -4.0906    1.9376    1.6039 C   0  0  0  0  0  0  0  0  0  0  0  0
   -1.0419   -0.4121    0.2749 C   0  0  0  0  0  0  0  0  0  0  0  0
   -0.8188   -1.7809    0.2950 C   0  0  0  0  0  0  0  0  0  0  0  0
    0.4708   -2.2695    0.4385 C   0  0  0  0  0  0  0  0  0  0  0  0
    1.5374   -1.3907    0.5565 C   0  0  0  0  0  0  0  0  0  0  0  0
    1.3178   -0.0257    0.5319 C   0  0  0  0  0  0  0  0  0  0  0  0
    0.0319    0.4678    0.3888 C   0  0  0  0  0  0  0  0  0  0  0  0
   -0.1831    1.8114    0.3651 O   0  0  0  0  0  0  0  0  0  0  0  0
    0.9637    2.6543    0.4929 C   0  0  0  0  0  0  0  0  0  0  0  0
    0.6900   -3.6112    0.4641 O   0  0  0  0  0  0  0  0  0  0  0  0
    2.0433   -4.0447    0.6151 C   0  0  0  0  0  0  0  0  0  0  0  0
   -2.4347    1.6276   -2.0133 H   0  0  0  0  0  0  0  0  0  0  0  0
   -1.2344    0.3562   -2.3465 H   0  0  0  0  0  0  0  0  0  0  0  0
   -2.7893    0.3613   -3.2129 H   0  0  0  0  0  0  0  0  0  0  0  0
   -2.6965   -1.3423   -1.3659 H   0  0  0  0  0  0  0  0  0  0  0  0
   -3.9935   -0.1436   -1.1443 H   0  0  0  0  0  0  0  0  0  0  0  0
   -3.4756   -1.4121    1.0801 H   0  0  0  0  0  0  0  0  0  0  0  0
   -2.6603   -0.2755    2.1809 H   0  0  0  0  0  0  0  0  0  0  0  0
   -5.5403   -1.0972    2.2815 H   0  0  0  0  0  0  0  0  0  0  0  0
   -4.9526    0.1856    3.3695 H   0  0  0  0  0  0  0  0  0  0  0  0
   -7.2457    0.3540    1.3688 H   0  0  0  0  0  0  0  0  0  0  0  0
   -7.3536    0.4570    3.1387 H   0  0  0  0  0  0  0  0  0  0  0  0
   -8.4995    6.0451    2.6164 H   0  0  0  0  0  0  0  0  0  0  0  0
   -9.4173    4.6620    2.8761 H   0  0  0  0  0  0  0  0  0  0  0  0
   -3.2467    4.2206    1.3286 H   0  0  0  0  0  0  0  0  0  0  0  0
   -3.9747    5.7272    1.4794 H   0  0  0  0  0  0  0  0  0  0  0  0
   -3.4387    1.9589    2.4772 H   0  0  0  0  0  0  0  0  0  0  0  0
   -3.5620    2.3669    0.7528 H   0  0  0  0  0  0  0  0  0  0  0  0
   -1.6491   -2.4654    0.2035 H   0  0  0  0  0  0  0  0  0  0  0  0
    2.5411   -1.7732    0.6682 H   0  0  0  0  0  0  0  0  0  0  0  0
    2.1501    0.6563    0.6246 H   0  0  0  0  0  0  0  0  0  0  0  0
    1.4580    2.4535    1.4434 H   0  0  0  0  0  0  0  0  0  0  0  0
    1.6550    2.4538   -0.3256 H   0  0  0  0  0  0  0  0  0  0  0  0
    0.6528    3.6984    0.4585 H   0  0  0  0  0  0  0  0  0  0  0  0
    2.4438   -3.6645    1.5549 H   0  0  0  0  0  0  0  0  0  0  0  0
    2.0774   -5.1342    0.6198 H   0  0  0  0  0  0  0  0  0  0  0  0
    2.6408   -3.6661   -0.2142 H   0  0  0  0  0  0  0  0  0  0  0  0
  1  2  1  0  0  0  0
  1 28  1  0  0  0  0
  1 29  1  0  0  0  0
  1 30  1  0  0  0  0
  2  3  1  0  0  0  0
  2 31  1  0  0  0  0
  2 32  1  0  0  0  0
  3  4  1  0  0  0  0
  3 18  1  0  0  0  0
  4  5  1  0  0  0  0
  4 33  1  0  0  0  0
  4 34  1  0  0  0  0
  5  6  1  0  0  0  0
  5 17  1  0  0  0  0
  5  7  1  0  0  0  0
  7  8  1  0  0  0  0
  7 35  1  0  0  0  0
  7 36  1  0  0  0  0
  8  9  1  0  0  0  0
  8 37  1  0  0  0  0
  8 38  1  0  0  0  0
  9 14  2  0  0  0  0
  9 10  1  0  0  0  0
 10 11  2  0  0  0  0
 10 17  1  0  0  0  0
 11 12  1  0  0  0  0
 11 16  1  0  0  0  0
 12 13  2  0  0  0  0
 13 14  1  0  0  0  0
 13 15  1  0  0  0  0
 15 39  1  0  0  0  0
 15 40  1  0  0  0  0
 16 41  1  0  0  0  0
 16 42  1  0  0  0  0
 17 43  1  0  0  0  0
 17 44  1  0  0  0  0
 18 23  2  0  0  0  0
 18 19  1  0  0  0  0
 19 20  2  0  0  0  0
 19 45  1  0  0  0  0
 20 21  1  0  0  0  0
 20 26  1  0  0  0  0
 21 22  2  0  0  0  0
 21 46  1  0  0  0  0
 22 23  1  0  0  0  0
 22 47  1  0  0  0  0
 23 24  1  0  0  0  0
 24 25  1  0  0  0  0
 25 48  1  0  0  0  0
 25 49  1  0  0  0  0
 25 50  1  0  0  0  0
 26 27  1  0  0  0  0
 27 51  1  0  0  0  0
 27 52  1  0  0  0  0
 27 53  1  0  0  0  0
M  END
$$$$
ZINC03814888
  -OEChem-08230709403D

 54 56  0     1  0  0  0  0  0999 V2000
   -2.2989    0.5754   -2.2632 C   0  0  0  0  0  0  0  0  0  0  0  0
   -2.9140   -0.2934   -1.1643 C   0  0  0  0  0  0  0  0  0  0  0  0
   -2.3431    0.0841    0.1355 N   0  0  1  0  0  0  0  0  0  0  0  0
   -3.2004   -0.3694    1.2388 C   0  0  0  0  0  0  0  0  0  0  0  0
   -4.4652    0.4901    1.2882 C   0  0  1  0  0  0  0  0  0  0  0  0
   -4.9784    0.4422    0.3278 H   0  0  0  0  0  0  0  0  0  0  0  0
   -5.3940   -0.0230    2.3949 C   0  0  0  0  0  0  0  0  0  0  0  0
   -6.7376    0.6940    2.2712 C   0  0  0  0  0  0  0  0  0  0  0  0
   -6.5351    2.1832    2.1969 C   0  0  0  0  0  0  0  0  0  0  0  0
   -5.3240    2.7506    1.8844 C   0  0  0  0  0  0  0  0  0  0  0  0
   -5.2331    4.1473    1.8311 C   0  0  0  0  0  0  0  0  0  0  0  0
   -6.3121    4.8777    2.0869 N   0  0  0  0  0  0  0  0  0  0  0  0
   -7.4614    4.2931    2.3891 C   0  0  0  0  0  0  0  0  0  0  0  0
   -8.5700    5.0783    2.6536 N   0  0  0  0  0  0  0  0  0  0  0  0
   -4.0314    4.7595    1.5148 N   0  0  0  0  0  0  0  0  0  0  0  0
   -4.0906    1.9376    1.6039 C   0  0  0  0  0  0  0  0  0  0  0  0
   -1.0419   -0.4121    0.2749 C   0  0  0  0  0  0  0  0  0  0  0  0
   -0.8188   -1.7809    0.2950 C   0  0  0  0  0  0  0  0  0  0  0  0
    0.4708   -2.2695    0.4385 C   0  0  0  0  0  0  0  0  0  0  0  0
    1.5374   -1.3907    0.5565 C   0  0  0  0  0  0  0  0  0  0  0  0
    1.3178   -0.0257    0.5319 C   0  0  0  0  0  0  0  0  0  0  0  0
    0.0319    0.4678    0.3888 C   0  0  0  0  0  0  0  0  0  0  0  0
   -0.1831    1.8114    0.3651 O   0  0  0  0  0  0  0  0  0  0  0  0
    0.9637    2.6543    0.4929 C   0  0  0  0  0  0  0  0  0  0  0  0
    0.6900   -3.6112    0.4641 O   0  0  0  0  0  0  0  0  0  0  0  0
    2.0433   -4.0447    0.6151 C   0  0  0  0  0  0  0  0  0  0  0  0
   -2.4347    1.6276   -2.0133 H   0  0  0  0  0  0  0  0  0  0  0  0
   -1.2344    0.3562   -2.3465 H   0  0  0  0  0  0  0  0  0  0  0  0
   -2.7893    0.3613   -3.2129 H   0  0  0  0  0  0  0  0  0  0  0  0
   -2.6965   -1.3423   -1.3659 H   0  0  0  0  0  0  0  0  0  0  0  0
   -3.9935   -0.1436   -1.1443 H   0  0  0  0  0  0  0  0  0  0  0  0
   -3.4756   -1.4121    1.0801 H   0  0  0  0  0  0  0  0  0  0  0  0
   -2.6603   -0.2755    2.1809 H   0  0  0  0  0  0  0  0  0  0  0  0
   -5.5403   -1.0972    2.2815 H   0  0  0  0  0  0  0  0  0  0  0  0
   -4.9526    0.1856    3.3695 H   0  0  0  0  0  0  0  0  0  0  0  0
   -7.2457    0.3540    1.3688 H   0  0  0  0  0  0  0  0  0  0  0  0
   -7.3536    0.4570    3.1387 H   0  0  0  0  0  0  0  0  0  0  0  0
   -8.4995    6.0451    2.6164 H   0  0  0  0  0  0  0  0  0  0  0  0
   -9.4173    4.6620    2.8761 H   0  0  0  0  0  0  0  0  0  0  0  0
   -3.2467    4.2206    1.3286 H   0  0  0  0  0  0  0  0  0  0  0  0
   -3.9747    5.7272    1.4794 H   0  0  0  0  0  0  0  0  0  0  0  0
   -3.4387    1.9589    2.4772 H   0  0  0  0  0  0  0  0  0  0  0  0
   -3.5620    2.3669    0.7528 H   0  0  0  0  0  0  0  0  0  0  0  0
   -1.6491   -2.4654    0.2035 H   0  0  0  0  0  0  0  0  0  0  0  0
    2.5411   -1.7732    0.6682 H   0  0  0  0  0  0  0  0  0  0  0  0
    2.1501    0.6563    0.6246 H   0  0  0  0  0  0  0  0  0  0  0  0
    1.4580    2.4535    1.4434 H   0  0  0  0  0  0  0  0  0  0  0  0
    1.6550    2.4538   -0.3256 H   0  0  0  0  0  0  0  0  0  0  0  0
    0.6528    3.6984    0.4585 H   0  0  0  0  0  0  0  0  0  0  0  0
    2.4438   -3.6645    1.5549 H   0  0  0  0  0  0  0  0  0  0  0  0
    2.0774   -5.1342    0.6198 H   0  0  0  0  0  0  0  0  0  0  0  0
    2.6408   -3.6661   -0.2142 H   0  0  0  0  0  0  0  0  0  0  0  0
   -7.6427    2.9450    2.4615 N   0  3  0  0  0  0  0  0  0  0  0  0
   -8.5105    2.5034    2.6894 H   0  0  0  0  0  0  0  0  0  0  0  0
  1  2  1  0  0  0  0
  1 27  1  0  0  0  0
  1 28  1  0  0  0  0
  1 29  1  0  0  0  0
  2  3  1  0  0  0  0
  2 30  1  0  0  0  0
  2 31  1  0  0  0  0
  3  4  1  0  0  0  0
  3 17  1  0  0  0  0
  4  5  1  0  0  0  0
  4 32  1  0  0  0  0
  4 33  1  0  0  0  0
  5  6  1  0  0  0  0
  5 16  1  0  0  0  0
  5  7  1  0  0  0  0
  7  8  1  0  0  0  0
  7 34  1  0  0  0  0
  7 35  1  0  0  0  0
  8  9  1  0  0  0  0
  8 36  1  0  0  0  0
  8 37  1  0  0  0  0
  9 10  2  0  0  0  0
  9 53  1  0  0  0  0
 10 11  1  0  0  0  0
 10 16  1  0  0  0  0
 11 12  2  0  0  0  0
 11 15  1  0  0  0  0
 12 13  1  0  0  0  0
 13 14  1  0  0  0  0
 13 53  2  0  0  0  0
 14 38  1  0  0  0  0
 14 39  1  0  0  0  0
 15 40  1  0  0  0  0
 15 41  1  0  0  0  0
 16 42  1  0  0  0  0
 16 43  1  0  0  0  0
 17 22  2  0  0  0  0
 17 18  1  0  0  0  0
 18 19  2  0  0  0  0
 18 44  1  0  0  0  0
 19 20  1  0  0  0  0
 19 25  1  0  0  0  0
 20 21  2  0  0  0  0
 20 45  1  0  0  0  0
 21 22  1  0  0  0  0
 21 46  1  0  0  0  0
 22 23  1  0  0  0  0
 23 24  1  0  0  0  0
 24 47  1  0  0  0  0
 24 48  1  0  0  0  0
 24 49  1  0  0  0  0
 25 26  1  0  0  0  0
 26 50  1  0  0  0  0
 26 51  1  0  0  0  0
 26 52  1  0  0  0  0
 53 54  1  0  0  0  0
M  CHG  1  53   1
M  END
$$$$
ZINC03814889
  -OEChem-08230709403D

 56 58  0     1  0  0  0  0  0999 V2000
   -0.0187    1.5258    0.0104 C   0  0  0  0  0  0  0  0  0  0  0  0
    0.0021   -0.0041    0.0020 C   0  0  0  0  0  0  0  0  0  0  0  0
    0.6709   -0.4649   -1.1737 O   0  0  0  0  0  0  0  0  0  0  0  0
    0.7768   -1.8108   -1.3362 C   0  0  0  0  0  0  0  0  0  0  0  0
    0.2523   -2.6677   -0.3800 C   0  0  0  0  0  0  0  0  0  0  0  0
    0.3532   -4.0368   -0.5450 C   0  0  0  0  0  0  0  0  0  0  0  0
    0.9886   -4.5563   -1.6603 C   0  0  0  0  0  0  0  0  0  0  0  0
    1.5215   -3.6984   -2.6197 C   0  0  0  0  0  0  0  0  0  0  0  0
    1.4140   -2.3254   -2.4549 C   0  0  0  0  0  0  0  0  0  0  0  0
    2.1645   -4.2209   -3.7476 N   0  0  1  0  0  0  0  0  0  0  0  0
    1.4400   -3.8699   -4.9764 C   0  0  0  0  0  0  0  0  0  0  0  0
    3.5612   -3.7705   -3.8131 C   0  0  0  0  0  0  0  0  0  0  0  0
    4.2976   -4.5495   -4.9048 C   0  0  1  0  0  0  0  0  0  0  0  0
    3.7609   -4.4536   -5.8486 H   0  0  0  0  0  0  0  0  0  0  0  0
    5.7193   -3.9976   -5.0620 C   0  0  0  0  0  0  0  0  0  0  0  0
    6.3486   -4.6266   -6.3042 C   0  0  0  0  0  0  0  0  0  0  0  0
    6.2072   -6.1242   -6.2652 C   0  0  0  0  0  0  0  0  0  0  0  0
    5.3059   -6.7613   -5.4479 C   0  0  0  0  0  0  0  0  0  0  0  0
    5.2404   -8.1599   -5.4858 C   0  0  0  0  0  0  0  0  0  0  0  0
    6.0492   -8.8253   -6.3020 N   0  0  0  0  0  0  0  0  0  0  0  0
    6.9083   -8.1746   -7.0719 C   0  0  0  0  0  0  0  0  0  0  0  0
    6.9885   -6.8542   -7.0574 N   0  0  0  0  0  0  0  0  0  0  0  0
    7.7416   -8.8930   -7.9115 N   0  0  0  0  0  0  0  0  0  0  0  0
    4.3416   -8.8412   -4.6813 N   0  0  0  0  0  0  0  0  0  0  0  0
    4.3918   -6.0228   -4.5099 C   0  0  0  0  0  0  0  0  0  0  0  0
    1.0919   -5.9039   -1.8192 O   0  0  0  0  0  0  0  0  0  0  0  0
    0.5227   -6.7233   -0.7962 C   0  0  0  0  0  0  0  0  0  0  0  0
    0.7352   -8.1975   -1.1463 C   0  0  0  0  0  0  0  0  0  0  0  0
    1.0039    1.9031    0.0027 H   0  0  0  0  0  0  0  0  0  0  0  0
   -0.5459    1.8868   -0.8726 H   0  0  0  0  0  0  0  0  0  0  0  0
   -0.5289    1.8773    0.9072 H   0  0  0  0  0  0  0  0  0  0  0  0
    0.5293   -0.3651    0.8851 H   0  0  0  0  0  0  0  0  0  0  0  0
   -1.0205   -0.3814    0.0098 H   0  0  0  0  0  0  0  0  0  0  0  0
   -0.2395   -2.2648    0.4931 H   0  0  0  0  0  0  0  0  0  0  0  0
   -0.0604   -4.7017    0.1988 H   0  0  0  0  0  0  0  0  0  0  0  0
    1.8259   -1.6579   -3.1973 H   0  0  0  0  0  0  0  0  0  0  0  0
    1.3919   -2.7852   -5.0726 H   0  0  0  0  0  0  0  0  0  0  0  0
    1.9612   -4.2883   -5.8375 H   0  0  0  0  0  0  0  0  0  0  0  0
    0.4294   -4.2758   -4.9308 H   0  0  0  0  0  0  0  0  0  0  0  0
    3.5892   -2.7058   -4.0447 H   0  0  0  0  0  0  0  0  0  0  0  0
    4.0450   -3.9462   -2.8522 H   0  0  0  0  0  0  0  0  0  0  0  0
    5.6808   -2.9146   -5.1793 H   0  0  0  0  0  0  0  0  0  0  0  0
    6.3106   -4.2529   -4.1826 H   0  0  0  0  0  0  0  0  0  0  0  0
    5.8519   -4.2408   -7.1944 H   0  0  0  0  0  0  0  0  0  0  0  0
    7.4062   -4.3655   -6.3437 H   0  0  0  0  0  0  0  0  0  0  0  0
    8.3748   -8.4279   -8.4804 H   0  0  0  0  0  0  0  0  0  0  0  0
    7.6923   -9.8615   -7.9312 H   0  0  0  0  0  0  0  0  0  0  0  0
    4.3007   -9.8098   -4.7122 H   0  0  0  0  0  0  0  0  0  0  0  0
    3.7533   -8.3495   -4.0871 H   0  0  0  0  0  0  0  0  0  0  0  0
    4.7796   -6.0995   -3.4940 H   0  0  0  0  0  0  0  0  0  0  0  0
    3.3986   -6.4703   -4.5479 H   0  0  0  0  0  0  0  0  0  0  0  0
    1.0049   -6.5029    0.1562 H   0  0  0  0  0  0  0  0  0  0  0  0
   -0.5451   -6.5186   -0.7188 H   0  0  0  0  0  0  0  0  0  0  0  0
    0.2530   -8.4179   -2.0987 H   0  0  0  0  0  0  0  0  0  0  0  0
    1.8030   -8.4023   -1.2237 H   0  0  0  0  0  0  0  0  0  0  0  0
    0.3011   -8.8225   -0.3660 H   0  0  0  0  0  0  0  0  0  0  0  0
  1  2  1  0  0  0  0
  1 29  1  0  0  0  0
  1 30  1  0  0  0  0
  1 31  1  0  0  0  0
  2  3  1  0  0  0  0
  2 32  1  0  0  0  0
  2 33  1  0  0  0  0
  3  4  1  0  0  0  0
  4  9  2  0  0  0  0
  4  5  1  0  0  0  0
  5  6  2  0  0  0  0
  5 34  1  0  0  0  0
  6  7  1  0  0  0  0
  6 35  1  0  0  0  0
  7  8  2  0  0  0  0
  7 26  1  0  0  0  0
  8  9  1  0  0  0  0
  8 10  1  0  0  0  0
  9 36  1  0  0  0  0
 10 11  1  0  0  0  0
 10 12  1  0  0  0  0
 11 37  1  0  0  0  0
 11 38  1  0  0  0  0
 11 39  1  0  0  0  0
 12 13  1  0  0  0  0
 12 40  1  0  0  0  0
 12 41  1  0  0  0  0
 13 14  1  0  0  0  0
 13 25  1  0  0  0  0
 13 15  1  0  0  0  0
 15 16  1  0  0  0  0
 15 42  1  0  0  0  0
 15 43  1  0  0  0  0
 16 17  1  0  0  0  0
 16 44  1  0  0  0  0
 16 45  1  0  0  0  0
 17 22  2  0  0  0  0
 17 18  1  0  0  0  0
 18 19  2  0  0  0  0
 18 25  1  0  0  0  0
 19 20  1  0  0  0  0
 19 24  1  0  0  0  0
 20 21  2  0  0  0  0
 21 22  1  0  0  0  0
 21 23  1  0  0  0  0
 23 46  1  0  0  0  0
 23 47  1  0  0  0  0
 24 48  1  0  0  0  0
 24 49  1  0  0  0  0
 25 50  1  0  0  0  0
 25 51  1  0  0  0  0
 26 27  1  0  0  0  0
 27 28  1  0  0  0  0
 27 52  1  0  0  0  0
 27 53  1  0  0  0  0
 28 54  1  0  0  0  0
 28 55  1  0  0  0  0
 28 56  1  0  0  0  0
M  END
$$$$
ZINC03814889
  -OEChem-08230709403D

 57 59  0     1  0  0  0  0  0999 V2000
   -0.0187    1.5258    0.0104 C   0  0  0  0  0  0  0  0  0  0  0  0
    0.0021   -0.0041    0.0020 C   0  0  0  0  0  0  0  0  0  0  0  0
    0.6709   -0.4649   -1.1737 O   0  0  0  0  0  0  0  0  0  0  0  0
    0.7768   -1.8108   -1.3362 C   0  0  0  0  0  0  0  0  0  0  0  0
    0.2523   -2.6677   -0.3800 C   0  0  0  0  0  0  0  0  0  0  0  0
    0.3532   -4.0368   -0.5450 C   0  0  0  0  0  0  0  0  0  0  0  0
    0.9886   -4.5563   -1.6603 C   0  0  0  0  0  0  0  0  0  0  0  0
    1.5215   -3.6984   -2.6197 C   0  0  0  0  0  0  0  0  0  0  0  0
    1.4140   -2.3254   -2.4549 C   0  0  0  0  0  0  0  0  0  0  0  0
    2.1645   -4.2209   -3.7476 N   0  0  1  0  0  0  0  0  0  0  0  0
    1.4400   -3.8699   -4.9764 C   0  0  0  0  0  0  0  0  0  0  0  0
    3.5612   -3.7705   -3.8131 C   0  0  0  0  0  0  0  0  0  0  0  0
    4.2976   -4.5495   -4.9048 C   0  0  1  0  0  0  0  0  0  0  0  0
    3.7609   -4.4536   -5.8486 H   0  0  0  0  0  0  0  0  0  0  0  0
    5.7193   -3.9976   -5.0620 C   0  0  0  0  0  0  0  0  0  0  0  0
    6.3486   -4.6266   -6.3042 C   0  0  0  0  0  0  0  0  0  0  0  0
    6.2072   -6.1242   -6.2652 C   0  0  0  0  0  0  0  0  0  0  0  0
    5.3059   -6.7613   -5.4479 C   0  0  0  0  0  0  0  0  0  0  0  0
    5.2404   -8.1599   -5.4858 C   0  0  0  0  0  0  0  0  0  0  0  0
    6.0492   -8.8253   -6.3020 N   0  0  0  0  0  0  0  0  0  0  0  0
    6.9083   -8.1746   -7.0719 C   0  0  0  0  0  0  0  0  0  0  0  0
    7.7416   -8.8930   -7.9115 N   0  0  0  0  0  0  0  0  0  0  0  0
    4.3416   -8.8412   -4.6813 N   0  0  0  0  0  0  0  0  0  0  0  0
    4.3918   -6.0228   -4.5099 C   0  0  0  0  0  0  0  0  0  0  0  0
    1.0919   -5.9039   -1.8192 O   0  0  0  0  0  0  0  0  0  0  0  0
    0.5227   -6.7233   -0.7962 C   0  0  0  0  0  0  0  0  0  0  0  0
    0.7352   -8.1975   -1.1463 C   0  0  0  0  0  0  0  0  0  0  0  0
    1.0039    1.9031    0.0027 H   0  0  0  0  0  0  0  0  0  0  0  0
   -0.5459    1.8868   -0.8726 H   0  0  0  0  0  0  0  0  0  0  0  0
   -0.5289    1.8773    0.9072 H   0  0  0  0  0  0  0  0  0  0  0  0
    0.5293   -0.3651    0.8851 H   0  0  0  0  0  0  0  0  0  0  0  0
   -1.0205   -0.3814    0.0098 H   0  0  0  0  0  0  0  0  0  0  0  0
   -0.2395   -2.2648    0.4931 H   0  0  0  0  0  0  0  0  0  0  0  0
   -0.0604   -4.7017    0.1988 H   0  0  0  0  0  0  0  0  0  0  0  0
    1.8259   -1.6579   -3.1973 H   0  0  0  0  0  0  0  0  0  0  0  0
    1.3919   -2.7852   -5.0726 H   0  0  0  0  0  0  0  0  0  0  0  0
    1.9612   -4.2883   -5.8375 H   0  0  0  0  0  0  0  0  0  0  0  0
    0.4294   -4.2758   -4.9308 H   0  0  0  0  0  0  0  0  0  0  0  0
    3.5892   -2.7058   -4.0447 H   0  0  0  0  0  0  0  0  0  0  0  0
    4.0450   -3.9462   -2.8522 H   0  0  0  0  0  0  0  0  0  0  0  0
    5.6808   -2.9146   -5.1793 H   0  0  0  0  0  0  0  0  0  0  0  0
    6.3106   -4.2529   -4.1826 H   0  0  0  0  0  0  0  0  0  0  0  0
    5.8519   -4.2408   -7.1944 H   0  0  0  0  0  0  0  0  0  0  0  0
    7.4062   -4.3655   -6.3437 H   0  0  0  0  0  0  0  0  0  0  0  0
    8.3748   -8.4279   -8.4804 H   0  0  0  0  0  0  0  0  0  0  0  0
    7.6923   -9.8615   -7.9312 H   0  0  0  0  0  0  0  0  0  0  0  0
    4.3007   -9.8098   -4.7122 H   0  0  0  0  0  0  0  0  0  0  0  0
    3.7533   -8.3495   -4.0871 H   0  0  0  0  0  0  0  0  0  0  0  0
    4.7796   -6.0995   -3.4940 H   0  0  0  0  0  0  0  0  0  0  0  0
    3.3986   -6.4703   -4.5479 H   0  0  0  0  0  0  0  0  0  0  0  0
    1.0049   -6.5029    0.1562 H   0  0  0  0  0  0  0  0  0  0  0  0
   -0.5451   -6.5186   -0.7188 H   0  0  0  0  0  0  0  0  0  0  0  0
    0.2530   -8.4179   -2.0987 H   0  0  0  0  0  0  0  0  0  0  0  0
    1.8030   -8.4023   -1.2237 H   0  0  0  0  0  0  0  0  0  0  0  0
    0.3011   -8.8225   -0.3660 H   0  0  0  0  0  0  0  0  0  0  0  0
    7.0391   -6.8192   -7.1031 N   0  3  0  0  0  0  0  0  0  0  0  0
    7.6872   -6.3277   -7.6849 H   0  0  0  0  0  0  0  0  0  0  0  0
  1  2  1  0  0  0  0
  1 28  1  0  0  0  0
  1 29  1  0  0  0  0
  1 30  1  0  0  0  0
  2  3  1  0  0  0  0
  2 31  1  0  0  0  0
  2 32  1  0  0  0  0
  3  4  1  0  0  0  0
  4  9  2  0  0  0  0
  4  5  1  0  0  0  0
  5  6  2  0  0  0  0
  5 33  1  0  0  0  0
  6  7  1  0  0  0  0
  6 34  1  0  0  0  0
  7  8  2  0  0  0  0
  7 25  1  0  0  0  0
  8  9  1  0  0  0  0
  8 10  1  0  0  0  0
  9 35  1  0  0  0  0
 10 11  1  0  0  0  0
 10 12  1  0  0  0  0
 11 36  1  0  0  0  0
 11 37  1  0  0  0  0
 11 38  1  0  0  0  0
 12 13  1  0  0  0  0
 12 39  1  0  0  0  0
 12 40  1  0  0  0  0
 13 14  1  0  0  0  0
 13 24  1  0  0  0  0
 13 15  1  0  0  0  0
 15 16  1  0  0  0  0
 15 41  1  0  0  0  0
 15 42  1  0  0  0  0
 16 17  1  0  0  0  0
 16 43  1  0  0  0  0
 16 44  1  0  0  0  0
 17 18  2  0  0  0  0
 17 56  1  0  0  0  0
 18 19  1  0  0  0  0
 18 24  1  0  0  0  0
 19 20  2  0  0  0  0
 19 23  1  0  0  0  0
 20 21  1  0  0  0  0
 21 22  1  0  0  0  0
 21 56  2  0  0  0  0
 22 45  1  0  0  0  0
 22 46  1  0  0  0  0
 23 47  1  0  0  0  0
 23 48  1  0  0  0  0
 24 49  1  0  0  0  0
 24 50  1  0  0  0  0
 25 26  1  0  0  0  0
 26 27  1  0  0  0  0
 26 51  1  0  0  0  0
 26 52  1  0  0  0  0
 27 53  1  0  0  0  0
 27 54  1  0  0  0  0
 27 55  1  0  0  0  0
 56 57  1  0  0  0  0
M  CHG  1  56   1
M  END
$$$$
ZINC03814890
  -OEChem-08230709403D

 39 41  0     1  0  0  0  0  0999 V2000
    0.0021   -0.0041    0.0020 C   0  0  0  0  0  0  0  0  0  0  0  0
   -0.0167    1.3772    0.0096 C   0  0  0  0  0  0  0  0  0  0  0  0
    1.1709    2.0866    0.0021 C   0  0  0  0  0  0  0  0  0  0  0  0
    2.3819    1.4144   -0.0132 C   0  0  0  0  0  0  0  0  0  0  0  0
    2.4060    0.0327   -0.0208 C   0  0  0  0  0  0  0  0  0  0  0  0
    1.2145   -0.6812   -0.0132 C   0  0  0  0  0  0  0  0  0  0  0  0
    1.2357   -2.0784   -0.0214 N   0  0  0  0  0  0  0  0  0  0  0  0
    2.5154   -2.7915   -0.0375 C   0  0  0  0  0  0  0  0  0  0  0  0
    2.2587   -4.2998   -0.0437 C   0  0  1  0  0  0  0  0  0  0  0  0
    1.6029   -4.5564   -0.8757 H   0  0  0  0  0  0  0  0  0  0  0  0
    3.5891   -5.0484   -0.1863 C   0  0  0  0  0  0  0  0  0  0  0  0
    3.2898   -6.5277   -0.4245 C   0  0  0  0  0  0  0  0  0  0  0  0
    2.3324   -7.0453    0.6146 C   0  0  0  0  0  0  0  0  0  0  0  0
    1.5585   -6.2143    1.3872 C   0  0  0  0  0  0  0  0  0  0  0  0
    0.6897   -6.7882    2.3239 C   0  0  0  0  0  0  0  0  0  0  0  0
    0.6426   -8.1100    2.4404 N   0  0  0  0  0  0  0  0  0  0  0  0
    1.4084   -8.8778    1.6799 C   0  0  0  0  0  0  0  0  0  0  0  0
    2.2356   -8.3614    0.7859 N   0  0  0  0  0  0  0  0  0  0  0  0
    1.3412  -10.2527    1.8235 N   0  0  0  0  0  0  0  0  0  0  0  0
   -0.1118   -5.9858    3.1195 N   0  0  0  0  0  0  0  0  0  0  0  0
    1.6089   -4.7157    1.2755 C   0  0  0  0  0  0  0  0  0  0  0  0
    3.8702    2.3081   -0.0227 Cl  0  0  0  0  0  0  0  0  0  0  0  0
    1.1434    3.8224    0.0112 Cl  0  0  0  0  0  0  0  0  0  0  0  0
   -0.9256   -0.5570    0.0083 H   0  0  0  0  0  0  0  0  0  0  0  0
   -0.9595    1.9038    0.0169 H   0  0  0  0  0  0  0  0  0  0  0  0
    3.3502   -0.4915   -0.0331 H   0  0  0  0  0  0  0  0  0  0  0  0
    0.4032   -2.5762   -0.0164 H   0  0  0  0  0  0  0  0  0  0  0  0
    3.0745   -2.5144   -0.9312 H   0  0  0  0  0  0  0  0  0  0  0  0
    3.0912   -2.5246    0.8486 H   0  0  0  0  0  0  0  0  0  0  0  0
    4.1465   -4.6467   -1.0325 H   0  0  0  0  0  0  0  0  0  0  0  0
    4.1742   -4.9324    0.7259 H   0  0  0  0  0  0  0  0  0  0  0  0
    2.8491   -6.6514   -1.4138 H   0  0  0  0  0  0  0  0  0  0  0  0
    4.2185   -7.0960   -0.3736 H   0  0  0  0  0  0  0  0  0  0  0  0
    0.7383  -10.6434    2.4753 H   0  0  0  0  0  0  0  0  0  0  0  0
    1.8970  -10.8256    1.2724 H   0  0  0  0  0  0  0  0  0  0  0  0
   -0.0733   -5.0208    3.0296 H   0  0  0  0  0  0  0  0  0  0  0  0
   -0.7116   -6.3891    3.7665 H   0  0  0  0  0  0  0  0  0  0  0  0
    2.1883   -4.3118    2.1057 H   0  0  0  0  0  0  0  0  0  0  0  0
    0.5955   -4.3168    1.3196 H   0  0  0  0  0  0  0  0  0  0  0  0
  1  6  2  0  0  0  0
  1  2  1  0  0  0  0
  1 24  1  0  0  0  0
  2  3  2  0  0  0  0
  2 25  1  0  0  0  0
  3  4  1  0  0  0  0
  3 23  1  0  0  0  0
  4  5  2  0  0  0  0
  4 22  1  0  0  0  0
  5  6  1  0  0  0  0
  5 26  1  0  0  0  0
  6  7  1  0  0  0  0
  7  8  1  0  0  0  0
  7 27  1  0  0  0  0
  8  9  1  0  0  0  0
  8 28  1  0  0  0  0
  8 29  1  0  0  0  0
  9 10  1  0  0  0  0
  9 21  1  0  0  0  0
  9 11  1  0  0  0  0
 11 12  1  0  0  0  0
 11 30  1  0  0  0  0
 11 31  1  0  0  0  0
 12 13  1  0  0  0  0
 12 32  1  0  0  0  0
 12 33  1  0  0  0  0
 13 18  2  0  0  0  0
 13 14  1  0  0  0  0
 14 15  2  0  0  0  0
 14 21  1  0  0  0  0
 15 16  1  0  0  0  0
 15 20  1  0  0  0  0
 16 17  2  0  0  0  0
 17 18  1  0  0  0  0
 17 19  1  0  0  0  0
 19 34  1  0  0  0  0
 19 35  1  0  0  0  0
 20 36  1  0  0  0  0
 20 37  1  0  0  0  0
 21 38  1  0  0  0  0
 21 39  1  0  0  0  0
M  END
$$$$
ZINC03814890
  -OEChem-08230709403D

 40 42  0     1  0  0  0  0  0999 V2000
    0.0021   -0.0041    0.0020 C   0  0  0  0  0  0  0  0  0  0  0  0
   -0.0167    1.3772    0.0096 C   0  0  0  0  0  0  0  0  0  0  0  0
    1.1709    2.0866    0.0021 C   0  0  0  0  0  0  0  0  0  0  0  0
    2.3819    1.4144   -0.0132 C   0  0  0  0  0  0  0  0  0  0  0  0
    2.4060    0.0327   -0.0208 C   0  0  0  0  0  0  0  0  0  0  0  0
    1.2145   -0.6812   -0.0132 C   0  0  0  0  0  0  0  0  0  0  0  0
    1.2357   -2.0784   -0.0214 N   0  0  0  0  0  0  0  0  0  0  0  0
    2.5154   -2.7915   -0.0375 C   0  0  0  0  0  0  0  0  0  0  0  0
    2.2587   -4.2998   -0.0437 C   0  0  1  0  0  0  0  0  0  0  0  0
    1.6029   -4.5564   -0.8757 H   0  0  0  0  0  0  0  0  0  0  0  0
    3.5891   -5.0484   -0.1863 C   0  0  0  0  0  0  0  0  0  0  0  0
    3.2898   -6.5277   -0.4245 C   0  0  0  0  0  0  0  0  0  0  0  0
    2.3324   -7.0453    0.6146 C   0  0  0  0  0  0  0  0  0  0  0  0
    1.5585   -6.2143    1.3872 C   0  0  0  0  0  0  0  0  0  0  0  0
    0.6897   -6.7882    2.3239 C   0  0  0  0  0  0  0  0  0  0  0  0
    0.6426   -8.1100    2.4404 N   0  0  0  0  0  0  0  0  0  0  0  0
    1.4084   -8.8778    1.6799 C   0  0  0  0  0  0  0  0  0  0  0  0
    1.3412  -10.2527    1.8235 N   0  0  0  0  0  0  0  0  0  0  0  0
   -0.1118   -5.9858    3.1195 N   0  0  0  0  0  0  0  0  0  0  0  0
    1.6089   -4.7157    1.2755 C   0  0  0  0  0  0  0  0  0  0  0  0
    3.8702    2.3081   -0.0227 Cl  0  0  0  0  0  0  0  0  0  0  0  0
    1.1434    3.8224    0.0112 Cl  0  0  0  0  0  0  0  0  0  0  0  0
   -0.9256   -0.5570    0.0083 H   0  0  0  0  0  0  0  0  0  0  0  0
   -0.9595    1.9038    0.0169 H   0  0  0  0  0  0  0  0  0  0  0  0
    3.3502   -0.4915   -0.0331 H   0  0  0  0  0  0  0  0  0  0  0  0
    0.4032   -2.5762   -0.0164 H   0  0  0  0  0  0  0  0  0  0  0  0
    3.0745   -2.5144   -0.9312 H   0  0  0  0  0  0  0  0  0  0  0  0
    3.0912   -2.5246    0.8486 H   0  0  0  0  0  0  0  0  0  0  0  0
    4.1465   -4.6467   -1.0325 H   0  0  0  0  0  0  0  0  0  0  0  0
    4.1742   -4.9324    0.7259 H   0  0  0  0  0  0  0  0  0  0  0  0
    2.8491   -6.6514   -1.4138 H   0  0  0  0  0  0  0  0  0  0  0  0
    4.2185   -7.0960   -0.3736 H   0  0  0  0  0  0  0  0  0  0  0  0
    0.7383  -10.6434    2.4753 H   0  0  0  0  0  0  0  0  0  0  0  0
    1.8970  -10.8256    1.2724 H   0  0  0  0  0  0  0  0  0  0  0  0
   -0.0733   -5.0208    3.0296 H   0  0  0  0  0  0  0  0  0  0  0  0
   -0.7116   -6.3891    3.7665 H   0  0  0  0  0  0  0  0  0  0  0  0
    2.1883   -4.3118    2.1057 H   0  0  0  0  0  0  0  0  0  0  0  0
    0.5955   -4.3168    1.3196 H   0  0  0  0  0  0  0  0  0  0  0  0
    2.2787   -8.4083    0.7432 N   0  3  0  0  0  0  0  0  0  0  0  0
    2.8566   -8.9878    0.1686 H   0  0  0  0  0  0  0  0  0  0  0  0
  1  6  2  0  0  0  0
  1  2  1  0  0  0  0
  1 23  1  0  0  0  0
  2  3  2  0  0  0  0
  2 24  1  0  0  0  0
  3  4  1  0  0  0  0
  3 22  1  0  0  0  0
  4  5  2  0  0  0  0
  4 21  1  0  0  0  0
  5  6  1  0  0  0  0
  5 25  1  0  0  0  0
  6  7  1  0  0  0  0
  7  8  1  0  0  0  0
  7 26  1  0  0  0  0
  8  9  1  0  0  0  0
  8 27  1  0  0  0  0
  8 28  1  0  0  0  0
  9 10  1  0  0  0  0
  9 20  1  0  0  0  0
  9 11  1  0  0  0  0
 11 12  1  0  0  0  0
 11 29  1  0  0  0  0
 11 30  1  0  0  0  0
 12 13  1  0  0  0  0
 12 31  1  0  0  0  0
 12 32  1  0  0  0  0
 13 14  2  0  0  0  0
 13 39  1  0  0  0  0
 14 15  1  0  0  0  0
 14 20  1  0  0  0  0
 15 16  2  0  0  0  0
 15 19  1  0  0  0  0
 16 17  1  0  0  0  0
 17 18  1  0  0  0  0
 17 39  2  0  0  0  0
 18 33  1  0  0  0  0
 18 34  1  0  0  0  0
 19 35  1  0  0  0  0
 19 36  1  0  0  0  0
 20 37  1  0  0  0  0
 20 38  1  0  0  0  0
 39 40  1  0  0  0  0
M  CHG  1  39   1
M  END
$$$$
ZINC03814891
  -OEChem-08230709403D

 37 39  0     1  0  0  0  0  0999 V2000
    2.3773    1.4107   -0.0145 C   0  0  0  0  0  0  0  0  0  0  0  0
    1.1710    2.0855    0.0021 C   0  0  0  0  0  0  0  0  0  0  0  0
   -0.0167    1.3781    0.0096 C   0  0  0  0  0  0  0  0  0  0  0  0
    0.0021   -0.0041    0.0020 C   0  0  0  0  0  0  0  0  0  0  0  0
    1.2084   -0.6789   -0.0132 C   0  0  0  0  0  0  0  0  0  0  0  0
    2.3960    0.0285   -0.0217 C   0  0  0  0  0  0  0  0  0  0  0  0
   -1.2926   -0.7753    0.0108 C   0  0  0  0  0  0  0  0  0  0  0  0
   -1.7452   -1.0285   -1.4286 C   0  0  1  0  0  0  0  0  0  0  0  0
   -0.9455   -1.5198   -1.9830 H   0  0  0  0  0  0  0  0  0  0  0  0
   -2.9936   -1.9185   -1.4274 C   0  0  0  0  0  0  0  0  0  0  0  0
   -3.2849   -2.3466   -2.8649 C   0  0  0  0  0  0  0  0  0  0  0  0
   -3.3114   -1.1492   -3.7758 C   0  0  0  0  0  0  0  0  0  0  0  0
   -2.7617    0.0596   -3.4252 C   0  0  0  0  0  0  0  0  0  0  0  0
   -2.8276    1.1160   -4.3424 C   0  0  0  0  0  0  0  0  0  0  0  0
   -3.4196    0.9211   -5.5149 N   0  0  0  0  0  0  0  0  0  0  0  0
   -3.9419   -0.2586   -5.8145 C   0  0  0  0  0  0  0  0  0  0  0  0
   -3.8907   -1.2735   -4.9674 N   0  0  0  0  0  0  0  0  0  0  0  0
   -4.5552   -0.4338   -7.0426 N   0  0  0  0  0  0  0  0  0  0  0  0
   -2.2811    2.3501   -4.0302 N   0  0  0  0  0  0  0  0  0  0  0  0
   -2.0988    0.2995   -2.0971 C   0  0  0  0  0  0  0  0  0  0  0  0
    3.3051    1.9634   -0.0205 H   0  0  0  0  0  0  0  0  0  0  0  0
    1.1563    3.1654    0.0077 H   0  0  0  0  0  0  0  0  0  0  0  0
   -0.9592    1.9054    0.0170 H   0  0  0  0  0  0  0  0  0  0  0  0
    1.2231   -1.7588   -0.0188 H   0  0  0  0  0  0  0  0  0  0  0  0
    3.3385   -0.4987   -0.0335 H   0  0  0  0  0  0  0  0  0  0  0  0
   -1.1443   -1.7285    0.5181 H   0  0  0  0  0  0  0  0  0  0  0  0
   -2.0550   -0.1993    0.5353 H   0  0  0  0  0  0  0  0  0  0  0  0
   -2.8143   -2.8001   -0.8119 H   0  0  0  0  0  0  0  0  0  0  0  0
   -3.8418   -1.3591   -1.0328 H   0  0  0  0  0  0  0  0  0  0  0  0
   -2.5102   -3.0367   -3.1994 H   0  0  0  0  0  0  0  0  0  0  0  0
   -4.2513   -2.8493   -2.9023 H   0  0  0  0  0  0  0  0  0  0  0  0
   -4.9412   -1.2932   -7.2738 H   0  0  0  0  0  0  0  0  0  0  0  0
   -4.5992    0.3027   -7.6723 H   0  0  0  0  0  0  0  0  0  0  0  0
   -2.3296    3.0778   -4.6696 H   0  0  0  0  0  0  0  0  0  0  0  0
   -1.8500    2.4864   -3.1720 H   0  0  0  0  0  0  0  0  0  0  0  0
   -2.7765    0.8585   -1.4518 H   0  0  0  0  0  0  0  0  0  0  0  0
   -1.1889    0.8803   -2.2483 H   0  0  0  0  0  0  0  0  0  0  0  0
  1  6  2  0  0  0  0
  1  2  1  0  0  0  0
  1 21  1  0  0  0  0
  2  3  2  0  0  0  0
  2 22  1  0  0  0  0
  3  4  1  0  0  0  0
  3 23  1  0  0  0  0
  4  5  2  0  0  0  0
  4  7  1  0  0  0  0
  5  6  1  0  0  0  0
  5 24  1  0  0  0  0
  6 25  1  0  0  0  0
  7  8  1  0  0  0  0
  7 26  1  0  0  0  0
  7 27  1  0  0  0  0
  8  9  1  0  0  0  0
  8 20  1  0  0  0  0
  8 10  1  0  0  0  0
 10 11  1  0  0  0  0
 10 28  1  0  0  0  0
 10 29  1  0  0  0  0
 11 12  1  0  0  0  0
 11 30  1  0  0  0  0
 11 31  1  0  0  0  0
 12 17  2  0  0  0  0
 12 13  1  0  0  0  0
 13 14  2  0  0  0  0
 13 20  1  0  0  0  0
 14 15  1  0  0  0  0
 14 19  1  0  0  0  0
 15 16  2  0  0  0  0
 16 17  1  0  0  0  0
 16 18  1  0  0  0  0
 18 32  1  0  0  0  0
 18 33  1  0  0  0  0
 19 34  1  0  0  0  0
 19 35  1  0  0  0  0
 20 36  1  0  0  0  0
 20 37  1  0  0  0  0
M  END
$$$$
ZINC03814891
  -OEChem-08230709403D

 38 40  0     1  0  0  0  0  0999 V2000
    2.3773    1.4107   -0.0145 C   0  0  0  0  0  0  0  0  0  0  0  0
    1.1710    2.0855    0.0021 C   0  0  0  0  0  0  0  0  0  0  0  0
   -0.0167    1.3781    0.0096 C   0  0  0  0  0  0  0  0  0  0  0  0
    0.0021   -0.0041    0.0020 C   0  0  0  0  0  0  0  0  0  0  0  0
    1.2084   -0.6789   -0.0132 C   0  0  0  0  0  0  0  0  0  0  0  0
    2.3960    0.0285   -0.0217 C   0  0  0  0  0  0  0  0  0  0  0  0
   -1.2926   -0.7753    0.0108 C   0  0  0  0  0  0  0  0  0  0  0  0
   -1.7452   -1.0285   -1.4286 C   0  0  1  0  0  0  0  0  0  0  0  0
   -0.9455   -1.5198   -1.9830 H   0  0  0  0  0  0  0  0  0  0  0  0
   -2.9936   -1.9185   -1.4274 C   0  0  0  0  0  0  0  0  0  0  0  0
   -3.2849   -2.3466   -2.8649 C   0  0  0  0  0  0  0  0  0  0  0  0
   -3.3114   -1.1492   -3.7758 C   0  0  0  0  0  0  0  0  0  0  0  0
   -2.7617    0.0596   -3.4252 C   0  0  0  0  0  0  0  0  0  0  0  0
   -2.8276    1.1160   -4.3424 C   0  0  0  0  0  0  0  0  0  0  0  0
   -3.4196    0.9211   -5.5149 N   0  0  0  0  0  0  0  0  0  0  0  0
   -3.9419   -0.2586   -5.8145 C   0  0  0  0  0  0  0  0  0  0  0  0
   -4.5552   -0.4338   -7.0426 N   0  0  0  0  0  0  0  0  0  0  0  0
   -2.2811    2.3501   -4.0302 N   0  0  0  0  0  0  0  0  0  0  0  0
   -2.0988    0.2995   -2.0971 C   0  0  0  0  0  0  0  0  0  0  0  0
    3.3051    1.9634   -0.0205 H   0  0  0  0  0  0  0  0  0  0  0  0
    1.1563    3.1654    0.0077 H   0  0  0  0  0  0  0  0  0  0  0  0
   -0.9592    1.9054    0.0170 H   0  0  0  0  0  0  0  0  0  0  0  0
    1.2231   -1.7588   -0.0188 H   0  0  0  0  0  0  0  0  0  0  0  0
    3.3385   -0.4987   -0.0335 H   0  0  0  0  0  0  0  0  0  0  0  0
   -1.1443   -1.7285    0.5181 H   0  0  0  0  0  0  0  0  0  0  0  0
   -2.0550   -0.1993    0.5353 H   0  0  0  0  0  0  0  0  0  0  0  0
   -2.8143   -2.8001   -0.8119 H   0  0  0  0  0  0  0  0  0  0  0  0
   -3.8418   -1.3591   -1.0328 H   0  0  0  0  0  0  0  0  0  0  0  0
   -2.5102   -3.0367   -3.1994 H   0  0  0  0  0  0  0  0  0  0  0  0
   -4.2513   -2.8493   -2.9023 H   0  0  0  0  0  0  0  0  0  0  0  0
   -4.9412   -1.2932   -7.2738 H   0  0  0  0  0  0  0  0  0  0  0  0
   -4.5992    0.3027   -7.6723 H   0  0  0  0  0  0  0  0  0  0  0  0
   -2.3296    3.0778   -4.6696 H   0  0  0  0  0  0  0  0  0  0  0  0
   -1.8500    2.4864   -3.1720 H   0  0  0  0  0  0  0  0  0  0  0  0
   -2.7765    0.8585   -1.4518 H   0  0  0  0  0  0  0  0  0  0  0  0
   -1.1889    0.8803   -2.2483 H   0  0  0  0  0  0  0  0  0  0  0  0
   -3.9217   -1.3407   -4.9874 N   0  3  0  0  0  0  0  0  0  0  0  0
   -4.3153   -2.2317   -5.2138 H   0  0  0  0  0  0  0  0  0  0  0  0
  1  6  2  0  0  0  0
  1  2  1  0  0  0  0
  1 20  1  0  0  0  0
  2  3  2  0  0  0  0
  2 21  1  0  0  0  0
  3  4  1  0  0  0  0
  3 22  1  0  0  0  0
  4  5  2  0  0  0  0
  4  7  1  0  0  0  0
  5  6  1  0  0  0  0
  5 23  1  0  0  0  0
  6 24  1  0  0  0  0
  7  8  1  0  0  0  0
  7 25  1  0  0  0  0
  7 26  1  0  0  0  0
  8  9  1  0  0  0  0
  8 19  1  0  0  0  0
  8 10  1  0  0  0  0
 10 11  1  0  0  0  0
 10 27  1  0  0  0  0
 10 28  1  0  0  0  0
 11 12  1  0  0  0  0
 11 29  1  0  0  0  0
 11 30  1  0  0  0  0
 12 13  2  0  0  0  0
 12 37  1  0  0  0  0
 13 14  1  0  0  0  0
 13 19  1  0  0  0  0
 14 15  2  0  0  0  0
 14 18  1  0  0  0  0
 15 16  1  0  0  0  0
 16 17  1  0  0  0  0
 16 37  2  0  0  0  0
 17 31  1  0  0  0  0
 17 32  1  0  0  0  0
 18 33  1  0  0  0  0
 18 34  1  0  0  0  0
 19 35  1  0  0  0  0
 19 36  1  0  0  0  0
 37 38  1  0  0  0  0
M  CHG  1  37   1
M  END
$$$$
ZINC03814892
  -OEChem-08230709403D

 40 42  0     1  0  0  0  0  0999 V2000
    0.7071    3.6844    0.7765 C   0  0  0  0  0  0  0  0  0  0  0  0
    1.0240    2.2619    0.3927 C   0  0  0  0  0  0  0  0  0  0  0  0
    2.3377    1.8710    0.2118 C   0  0  0  0  0  0  0  0  0  0  0  0
    2.6283    0.5662   -0.1397 C   0  0  0  0  0  0  0  0  0  0  0  0
    1.6053   -0.3478   -0.3108 C   0  0  0  0  0  0  0  0  0  0  0  0
    0.2919    0.0430   -0.1299 C   0  0  0  0  0  0  0  0  0  0  0  0
    0.0013    1.3480    0.2222 C   0  0  0  0  0  0  0  0  0  0  0  0
   -1.4303    1.7724    0.4260 C   0  0  0  0  0  0  0  0  0  0  0  0
   -1.7504    1.7850    1.9221 C   0  0  1  0  0  0  0  0  0  0  0  0
   -1.0214    2.4020    2.4475 H   0  0  0  0  0  0  0  0  0  0  0  0
   -3.1584    2.3501    2.1431 C   0  0  0  0  0  0  0  0  0  0  0  0
   -3.3625    2.5703    3.6413 C   0  0  0  0  0  0  0  0  0  0  0  0
   -3.0068    1.3264    4.4097 C   0  0  0  0  0  0  0  0  0  0  0  0
   -2.2448    0.3177    3.8730 C   0  0  0  0  0  0  0  0  0  0  0  0
   -1.9583   -0.7998    4.6674 C   0  0  0  0  0  0  0  0  0  0  0  0
   -2.4323   -0.8535    5.9065 N   0  0  0  0  0  0  0  0  0  0  0  0
   -3.1676    0.1380    6.3867 C   0  0  0  0  0  0  0  0  0  0  0  0
   -3.4503    1.2057    5.6585 N   0  0  0  0  0  0  0  0  0  0  0  0
   -3.6511    0.0553    7.6808 N   0  0  0  0  0  0  0  0  0  0  0  0
   -1.1897   -1.8374    4.1658 N   0  0  0  0  0  0  0  0  0  0  0  0
   -1.7056    0.3587    2.4691 C   0  0  0  0  0  0  0  0  0  0  0  0
    0.5976    3.7529    1.8588 H   0  0  0  0  0  0  0  0  0  0  0  0
    1.5169    4.3374    0.4511 H   0  0  0  0  0  0  0  0  0  0  0  0
   -0.2224    3.9916    0.2971 H   0  0  0  0  0  0  0  0  0  0  0  0
    3.1369    2.5850    0.3454 H   0  0  0  0  0  0  0  0  0  0  0  0
    3.6546    0.2609   -0.2811 H   0  0  0  0  0  0  0  0  0  0  0  0
    1.8323   -1.3672   -0.5861 H   0  0  0  0  0  0  0  0  0  0  0  0
   -0.5072   -0.6712   -0.2633 H   0  0  0  0  0  0  0  0  0  0  0  0
   -1.5751    2.7715    0.0150 H   0  0  0  0  0  0  0  0  0  0  0  0
   -2.0929    1.0712   -0.0814 H   0  0  0  0  0  0  0  0  0  0  0  0
   -3.2591    3.2990    1.6164 H   0  0  0  0  0  0  0  0  0  0  0  0
   -3.8995    1.6434    1.7695 H   0  0  0  0  0  0  0  0  0  0  0  0
   -2.7292    3.3927    3.9741 H   0  0  0  0  0  0  0  0  0  0  0  0
   -4.4057    2.8241    3.8294 H   0  0  0  0  0  0  0  0  0  0  0  0
   -4.1905    0.7751    8.0439 H   0  0  0  0  0  0  0  0  0  0  0  0
   -3.4506   -0.7224    8.2247 H   0  0  0  0  0  0  0  0  0  0  0  0
   -0.9949   -2.6089    4.7206 H   0  0  0  0  0  0  0  0  0  0  0  0
   -0.8462   -1.7925    3.2597 H   0  0  0  0  0  0  0  0  0  0  0  0
   -2.3101   -0.2896    1.8347 H   0  0  0  0  0  0  0  0  0  0  0  0
   -0.6752    0.0032    2.4645 H   0  0  0  0  0  0  0  0  0  0  0  0
  1  2  1  0  0  0  0
  1 22  1  0  0  0  0
  1 23  1  0  0  0  0
  1 24  1  0  0  0  0
  2  7  2  0  0  0  0
  2  3  1  0  0  0  0
  3  4  2  0  0  0  0
  3 25  1  0  0  0  0
  4  5  1  0  0  0  0
  4 26  1  0  0  0  0
  5  6  2  0  0  0  0
  5 27  1  0  0  0  0
  6  7  1  0  0  0  0
  6 28  1  0  0  0  0
  7  8  1  0  0  0  0
  8  9  1  0  0  0  0
  8 29  1  0  0  0  0
  8 30  1  0  0  0  0
  9 10  1  0  0  0  0
  9 21  1  0  0  0  0
  9 11  1  0  0  0  0
 11 12  1  0  0  0  0
 11 31  1  0  0  0  0
 11 32  1  0  0  0  0
 12 13  1  0  0  0  0
 12 33  1  0  0  0  0
 12 34  1  0  0  0  0
 13 18  2  0  0  0  0
 13 14  1  0  0  0  0
 14 15  2  0  0  0  0
 14 21  1  0  0  0  0
 15 16  1  0  0  0  0
 15 20  1  0  0  0  0
 16 17  2  0  0  0  0
 17 18  1  0  0  0  0
 17 19  1  0  0  0  0
 19 35  1  0  0  0  0
 19 36  1  0  0  0  0
 20 37  1  0  0  0  0
 20 38  1  0  0  0  0
 21 39  1  0  0  0  0
 21 40  1  0  0  0  0
M  END
$$$$
ZINC03814892
  -OEChem-08230709403D

 41 43  0     1  0  0  0  0  0999 V2000
    0.7071    3.6844    0.7765 C   0  0  0  0  0  0  0  0  0  0  0  0
    1.0240    2.2619    0.3927 C   0  0  0  0  0  0  0  0  0  0  0  0
    2.3377    1.8710    0.2118 C   0  0  0  0  0  0  0  0  0  0  0  0
    2.6283    0.5662   -0.1397 C   0  0  0  0  0  0  0  0  0  0  0  0
    1.6053   -0.3478   -0.3108 C   0  0  0  0  0  0  0  0  0  0  0  0
    0.2919    0.0430   -0.1299 C   0  0  0  0  0  0  0  0  0  0  0  0
    0.0013    1.3480    0.2222 C   0  0  0  0  0  0  0  0  0  0  0  0
   -1.4303    1.7724    0.4260 C   0  0  0  0  0  0  0  0  0  0  0  0
   -1.7504    1.7850    1.9221 C   0  0  1  0  0  0  0  0  0  0  0  0
   -1.0214    2.4020    2.4475 H   0  0  0  0  0  0  0  0  0  0  0  0
   -3.1584    2.3501    2.1431 C   0  0  0  0  0  0  0  0  0  0  0  0
   -3.3625    2.5703    3.6413 C   0  0  0  0  0  0  0  0  0  0  0  0
   -3.0068    1.3264    4.4097 C   0  0  0  0  0  0  0  0  0  0  0  0
   -2.2448    0.3177    3.8730 C   0  0  0  0  0  0  0  0  0  0  0  0
   -1.9583   -0.7998    4.6674 C   0  0  0  0  0  0  0  0  0  0  0  0
   -2.4323   -0.8535    5.9065 N   0  0  0  0  0  0  0  0  0  0  0  0
   -3.1676    0.1380    6.3867 C   0  0  0  0  0  0  0  0  0  0  0  0
   -3.6511    0.0553    7.6808 N   0  0  0  0  0  0  0  0  0  0  0  0
   -1.1897   -1.8374    4.1658 N   0  0  0  0  0  0  0  0  0  0  0  0
   -1.7056    0.3587    2.4691 C   0  0  0  0  0  0  0  0  0  0  0  0
    0.5976    3.7529    1.8588 H   0  0  0  0  0  0  0  0  0  0  0  0
    1.5169    4.3374    0.4511 H   0  0  0  0  0  0  0  0  0  0  0  0
   -0.2224    3.9916    0.2971 H   0  0  0  0  0  0  0  0  0  0  0  0
    3.1369    2.5850    0.3454 H   0  0  0  0  0  0  0  0  0  0  0  0
    3.6546    0.2609   -0.2811 H   0  0  0  0  0  0  0  0  0  0  0  0
    1.8323   -1.3672   -0.5861 H   0  0  0  0  0  0  0  0  0  0  0  0
   -0.5072   -0.6712   -0.2633 H   0  0  0  0  0  0  0  0  0  0  0  0
   -1.5751    2.7715    0.0150 H   0  0  0  0  0  0  0  0  0  0  0  0
   -2.0929    1.0712   -0.0814 H   0  0  0  0  0  0  0  0  0  0  0  0
   -3.2591    3.2990    1.6164 H   0  0  0  0  0  0  0  0  0  0  0  0
   -3.8995    1.6434    1.7695 H   0  0  0  0  0  0  0  0  0  0  0  0
   -2.7292    3.3927    3.9741 H   0  0  0  0  0  0  0  0  0  0  0  0
   -4.4057    2.8241    3.8294 H   0  0  0  0  0  0  0  0  0  0  0  0
   -4.1905    0.7751    8.0439 H   0  0  0  0  0  0  0  0  0  0  0  0
   -3.4506   -0.7224    8.2247 H   0  0  0  0  0  0  0  0  0  0  0  0
   -0.9949   -2.6089    4.7206 H   0  0  0  0  0  0  0  0  0  0  0  0
   -0.8462   -1.7925    3.2597 H   0  0  0  0  0  0  0  0  0  0  0  0
   -2.3101   -0.2896    1.8347 H   0  0  0  0  0  0  0  0  0  0  0  0
   -0.6752    0.0032    2.4645 H   0  0  0  0  0  0  0  0  0  0  0  0
   -3.4931    1.2616    5.6889 N   0  3  0  0  0  0  0  0  0  0  0  0
   -4.0475    2.0107    6.0516 H   0  0  0  0  0  0  0  0  0  0  0  0
  1  2  1  0  0  0  0
  1 21  1  0  0  0  0
  1 22  1  0  0  0  0
  1 23  1  0  0  0  0
  2  7  2  0  0  0  0
  2  3  1  0  0  0  0
  3  4  2  0  0  0  0
  3 24  1  0  0  0  0
  4  5  1  0  0  0  0
  4 25  1  0  0  0  0
  5  6  2  0  0  0  0
  5 26  1  0  0  0  0
  6  7  1  0  0  0  0
  6 27  1  0  0  0  0
  7  8  1  0  0  0  0
  8  9  1  0  0  0  0
  8 28  1  0  0  0  0
  8 29  1  0  0  0  0
  9 10  1  0  0  0  0
  9 20  1  0  0  0  0
  9 11  1  0  0  0  0
 11 12  1  0  0  0  0
 11 30  1  0  0  0  0
 11 31  1  0  0  0  0
 12 13  1  0  0  0  0
 12 32  1  0  0  0  0
 12 33  1  0  0  0  0
 13 14  2  0  0  0  0
 13 40  1  0  0  0  0
 14 15  1  0  0  0  0
 14 20  1  0  0  0  0
 15 16  2  0  0  0  0
 15 19  1  0  0  0  0
 16 17  1  0  0  0  0
 17 18  1  0  0  0  0
 17 40  2  0  0  0  0
 18 34  1  0  0  0  0
 18 35  1  0  0  0  0
 19 36  1  0  0  0  0
 19 37  1  0  0  0  0
 20 38  1  0  0  0  0
 20 39  1  0  0  0  0
 40 41  1  0  0  0  0
M  CHG  1  40   1
M  END
$$$$
ZINC03814893
  -OEChem-08230709403D

 40 42  0     1  0  0  0  0  0999 V2000
    1.1503    3.5925    0.0104 C   0  0  0  0  0  0  0  0  0  0  0  0
    1.1708    2.0856    0.0021 C   0  0  0  0  0  0  0  0  0  0  0  0
    2.3773    1.4107   -0.0150 C   0  0  0  0  0  0  0  0  0  0  0  0
    2.3960    0.0288   -0.0217 C   0  0  0  0  0  0  0  0  0  0  0  0
    1.2082   -0.6788   -0.0132 C   0  0  0  0  0  0  0  0  0  0  0  0
    0.0021   -0.0041    0.0020 C   0  0  0  0  0  0  0  0  0  0  0  0
   -0.0167    1.3783    0.0096 C   0  0  0  0  0  0  0  0  0  0  0  0
   -1.2926   -0.7753    0.0108 C   0  0  0  0  0  0  0  0  0  0  0  0
   -1.7452   -1.0285   -1.4286 C   0  0  1  0  0  0  0  0  0  0  0  0
   -0.9509   -1.5330   -1.9789 H   0  0  0  0  0  0  0  0  0  0  0  0
   -3.0084   -1.8972   -1.4263 C   0  0  0  0  0  0  0  0  0  0  0  0
   -3.3028   -2.3278   -2.8626 C   0  0  0  0  0  0  0  0  0  0  0  0
   -3.3076   -1.1345   -3.7792 C   0  0  0  0  0  0  0  0  0  0  0  0
   -2.7380    0.0664   -3.4336 C   0  0  0  0  0  0  0  0  0  0  0  0
   -2.7787    1.1173   -4.3586 C   0  0  0  0  0  0  0  0  0  0  0  0
   -3.3668    0.9249   -5.5334 N   0  0  0  0  0  0  0  0  0  0  0  0
   -3.9089   -0.2471   -5.8281 C   0  0  0  0  0  0  0  0  0  0  0  0
   -3.8824   -1.2564   -4.9732 N   0  0  0  0  0  0  0  0  0  0  0  0
   -4.5177   -0.4198   -7.0589 N   0  0  0  0  0  0  0  0  0  0  0  0
   -2.2131    2.3439   -4.0509 N   0  0  0  0  0  0  0  0  0  0  0  0
   -2.0738    0.3017   -2.1053 C   0  0  0  0  0  0  0  0  0  0  0  0
    1.1552    3.9502    1.0400 H   0  0  0  0  0  0  0  0  0  0  0  0
    2.0303    3.9707   -0.5098 H   0  0  0  0  0  0  0  0  0  0  0  0
    0.2506    3.9464   -0.4929 H   0  0  0  0  0  0  0  0  0  0  0  0
    3.3051    1.9634   -0.0216 H   0  0  0  0  0  0  0  0  0  0  0  0
    3.3385   -0.4984   -0.0339 H   0  0  0  0  0  0  0  0  0  0  0  0
    1.2229   -1.7586   -0.0188 H   0  0  0  0  0  0  0  0  0  0  0  0
   -0.9592    1.9056    0.0170 H   0  0  0  0  0  0  0  0  0  0  0  0
   -1.1443   -1.7285    0.5181 H   0  0  0  0  0  0  0  0  0  0  0  0
   -2.0550   -0.1993    0.5353 H   0  0  0  0  0  0  0  0  0  0  0  0
   -2.8458   -2.7785   -0.8058 H   0  0  0  0  0  0  0  0  0  0  0  0
   -3.8481   -1.3215   -1.0371 H   0  0  0  0  0  0  0  0  0  0  0  0
   -4.2771   -2.8150   -2.9002 H   0  0  0  0  0  0  0  0  0  0  0  0
   -2.5384   -3.0318   -3.1916 H   0  0  0  0  0  0  0  0  0  0  0  0
   -4.9186   -1.2733   -7.2862 H   0  0  0  0  0  0  0  0  0  0  0  0
   -4.5436    0.3128   -7.6942 H   0  0  0  0  0  0  0  0  0  0  0  0
   -1.7857    2.4787   -3.1906 H   0  0  0  0  0  0  0  0  0  0  0  0
   -2.2445    3.0679   -4.6956 H   0  0  0  0  0  0  0  0  0  0  0  0
   -2.7430    0.8761   -1.4646 H   0  0  0  0  0  0  0  0  0  0  0  0
   -1.1531    0.8640   -2.2607 H   0  0  0  0  0  0  0  0  0  0  0  0
  1  2  1  0  0  0  0
  1 22  1  0  0  0  0
  1 23  1  0  0  0  0
  1 24  1  0  0  0  0
  2  7  2  0  0  0  0
  2  3  1  0  0  0  0
  3  4  2  0  0  0  0
  3 25  1  0  0  0  0
  4  5  1  0  0  0  0
  4 26  1  0  0  0  0
  5  6  2  0  0  0  0
  5 27  1  0  0  0  0
  6  7  1  0  0  0  0
  6  8  1  0  0  0  0
  7 28  1  0  0  0  0
  8  9  1  0  0  0  0
  8 29  1  0  0  0  0
  8 30  1  0  0  0  0
  9 10  1  0  0  0  0
  9 21  1  0  0  0  0
  9 11  1  0  0  0  0
 11 12  1  0  0  0  0
 11 31  1  0  0  0  0
 11 32  1  0  0  0  0
 12 13  1  0  0  0  0
 12 33  1  0  0  0  0
 12 34  1  0  0  0  0
 13 18  2  0  0  0  0
 13 14  1  0  0  0  0
 14 15  2  0  0  0  0
 14 21  1  0  0  0  0
 15 16  1  0  0  0  0
 15 20  1  0  0  0  0
 16 17  2  0  0  0  0
 17 18  1  0  0  0  0
 17 19  1  0  0  0  0
 19 35  1  0  0  0  0
 19 36  1  0  0  0  0
 20 37  1  0  0  0  0
 20 38  1  0  0  0  0
 21 39  1  0  0  0  0
 21 40  1  0  0  0  0
M  END
$$$$
ZINC03814893
  -OEChem-08230709403D

 41 43  0     1  0  0  0  0  0999 V2000
    1.1503    3.5925    0.0104 C   0  0  0  0  0  0  0  0  0  0  0  0
    1.1708    2.0856    0.0021 C   0  0  0  0  0  0  0  0  0  0  0  0
    2.3773    1.4107   -0.0150 C   0  0  0  0  0  0  0  0  0  0  0  0
    2.3960    0.0288   -0.0217 C   0  0  0  0  0  0  0  0  0  0  0  0
    1.2082   -0.6788   -0.0132 C   0  0  0  0  0  0  0  0  0  0  0  0
    0.0021   -0.0041    0.0020 C   0  0  0  0  0  0  0  0  0  0  0  0
   -0.0167    1.3783    0.0096 C   0  0  0  0  0  0  0  0  0  0  0  0
   -1.2926   -0.7753    0.0108 C   0  0  0  0  0  0  0  0  0  0  0  0
   -1.7452   -1.0285   -1.4286 C   0  0  1  0  0  0  0  0  0  0  0  0
   -0.9509   -1.5330   -1.9789 H   0  0  0  0  0  0  0  0  0  0  0  0
   -3.0084   -1.8972   -1.4263 C   0  0  0  0  0  0  0  0  0  0  0  0
   -3.3028   -2.3278   -2.8626 C   0  0  0  0  0  0  0  0  0  0  0  0
   -3.3076   -1.1345   -3.7792 C   0  0  0  0  0  0  0  0  0  0  0  0
   -2.7380    0.0664   -3.4336 C   0  0  0  0  0  0  0  0  0  0  0  0
   -2.7787    1.1173   -4.3586 C   0  0  0  0  0  0  0  0  0  0  0  0
   -3.3668    0.9249   -5.5334 N   0  0  0  0  0  0  0  0  0  0  0  0
   -3.9089   -0.2471   -5.8281 C   0  0  0  0  0  0  0  0  0  0  0  0
   -4.5177   -0.4198   -7.0589 N   0  0  0  0  0  0  0  0  0  0  0  0
   -2.2131    2.3439   -4.0509 N   0  0  0  0  0  0  0  0  0  0  0  0
   -2.0738    0.3017   -2.1053 C   0  0  0  0  0  0  0  0  0  0  0  0
    1.1552    3.9502    1.0400 H   0  0  0  0  0  0  0  0  0  0  0  0
    2.0303    3.9707   -0.5098 H   0  0  0  0  0  0  0  0  0  0  0  0
    0.2506    3.9464   -0.4929 H   0  0  0  0  0  0  0  0  0  0  0  0
    3.3051    1.9634   -0.0216 H   0  0  0  0  0  0  0  0  0  0  0  0
    3.3385   -0.4984   -0.0339 H   0  0  0  0  0  0  0  0  0  0  0  0
    1.2229   -1.7586   -0.0188 H   0  0  0  0  0  0  0  0  0  0  0  0
   -0.9592    1.9056    0.0170 H   0  0  0  0  0  0  0  0  0  0  0  0
   -1.1443   -1.7285    0.5181 H   0  0  0  0  0  0  0  0  0  0  0  0
   -2.0550   -0.1993    0.5353 H   0  0  0  0  0  0  0  0  0  0  0  0
   -2.8458   -2.7785   -0.8058 H   0  0  0  0  0  0  0  0  0  0  0  0
   -3.8481   -1.3215   -1.0371 H   0  0  0  0  0  0  0  0  0  0  0  0
   -4.2771   -2.8150   -2.9002 H   0  0  0  0  0  0  0  0  0  0  0  0
   -2.5384   -3.0318   -3.1916 H   0  0  0  0  0  0  0  0  0  0  0  0
   -4.9186   -1.2733   -7.2862 H   0  0  0  0  0  0  0  0  0  0  0  0
   -4.5436    0.3128   -7.6942 H   0  0  0  0  0  0  0  0  0  0  0  0
   -1.7857    2.4787   -3.1906 H   0  0  0  0  0  0  0  0  0  0  0  0
   -2.2445    3.0679   -4.6956 H   0  0  0  0  0  0  0  0  0  0  0  0
   -2.7430    0.8761   -1.4646 H   0  0  0  0  0  0  0  0  0  0  0  0
   -1.1531    0.8640   -2.2607 H   0  0  0  0  0  0  0  0  0  0  0  0
   -3.9146   -1.3232   -4.9929 N   0  3  0  0  0  0  0  0  0  0  0  0
   -4.3243   -2.2080   -5.2149 H   0  0  0  0  0  0  0  0  0  0  0  0
  1  2  1  0  0  0  0
  1 21  1  0  0  0  0
  1 22  1  0  0  0  0
  1 23  1  0  0  0  0
  2  7  2  0  0  0  0
  2  3  1  0  0  0  0
  3  4  2  0  0  0  0
  3 24  1  0  0  0  0
  4  5  1  0  0  0  0
  4 25  1  0  0  0  0
  5  6  2  0  0  0  0
  5 26  1  0  0  0  0
  6  7  1  0  0  0  0
  6  8  1  0  0  0  0
  7 27  1  0  0  0  0
  8  9  1  0  0  0  0
  8 28  1  0  0  0  0
  8 29  1  0  0  0  0
  9 10  1  0  0  0  0
  9 20  1  0  0  0  0
  9 11  1  0  0  0  0
 11 12  1  0  0  0  0
 11 30  1  0  0  0  0
 11 31  1  0  0  0  0
 12 13  1  0  0  0  0
 12 32  1  0  0  0  0
 12 33  1  0  0  0  0
 13 14  2  0  0  0  0
 13 40  1  0  0  0  0
 14 15  1  0  0  0  0
 14 20  1  0  0  0  0
 15 16  2  0  0  0  0
 15 19  1  0  0  0  0
 16 17  1  0  0  0  0
 17 18  1  0  0  0  0
 17 40  2  0  0  0  0
 18 34  1  0  0  0  0
 18 35  1  0  0  0  0
 19 36  1  0  0  0  0
 19 37  1  0  0  0  0
 20 38  1  0  0  0  0
 20 39  1  0  0  0  0
 40 41  1  0  0  0  0
M  CHG  1  40   1
M  END
$$$$
ZINC03814895
  -OEChem-08230709403D

 41 43  0     1  0  0  0  0  0999 V2000
   -0.0127    1.0858    0.0080 C   0  0  0  0  0  0  0  0  0  0  0  0
   -0.6816    1.5467    1.1837 O   0  0  0  0  0  0  0  0  0  0  0  0
   -1.9749    1.1630    1.3482 C   0  0  0  0  0  0  0  0  0  0  0  0
   -2.5894    0.3641    0.3946 C   0  0  0  0  0  0  0  0  0  0  0  0
   -3.9023   -0.0288    0.5668 C   0  0  0  0  0  0  0  0  0  0  0  0
   -4.6076    0.3820    1.6831 C   0  0  0  0  0  0  0  0  0  0  0  0
   -3.9993    1.1827    2.6318 C   0  0  0  0  0  0  0  0  0  0  0  0
   -2.6845    1.5741    2.4669 C   0  0  0  0  0  0  0  0  0  0  0  0
   -4.7708    1.6286    3.8472 C   0  0  0  0  0  0  0  0  0  0  0  0
   -5.4711    2.9556    3.5482 C   0  0  1  0  0  0  0  0  0  0  0  0
   -6.0955    2.8485    2.6612 H   0  0  0  0  0  0  0  0  0  0  0  0
   -6.3363    3.3631    4.7465 C   0  0  0  0  0  0  0  0  0  0  0  0
   -7.1991    4.5560    4.3376 C   0  0  0  0  0  0  0  0  0  0  0  0
   -6.3487    5.6346    3.7230 C   0  0  0  0  0  0  0  0  0  0  0  0
   -5.0823    5.3974    3.2475 C   0  0  0  0  0  0  0  0  0  0  0  0
   -4.3709    6.4615    2.6786 C   0  0  0  0  0  0  0  0  0  0  0  0
   -4.9359    7.6616    2.6198 N   0  0  0  0  0  0  0  0  0  0  0  0
   -6.1582    7.8514    3.0933 C   0  0  0  0  0  0  0  0  0  0  0  0
   -6.8522    6.8632    3.6338 N   0  0  0  0  0  0  0  0  0  0  0  0
   -6.7224    9.1130    3.0216 N   0  0  0  0  0  0  0  0  0  0  0  0
   -3.0921    6.2641    2.1837 N   0  0  0  0  0  0  0  0  0  0  0  0
   -4.4266    4.0459    3.3124 C   0  0  0  0  0  0  0  0  0  0  0  0
    0.0021   -0.0041    0.0020 H   0  0  0  0  0  0  0  0  0  0  0  0
    1.0099    1.4631    0.0003 H   0  0  0  0  0  0  0  0  0  0  0  0
   -0.5399    1.4469   -0.8751 H   0  0  0  0  0  0  0  0  0  0  0  0
   -2.0405    0.0467   -0.4796 H   0  0  0  0  0  0  0  0  0  0  0  0
   -4.3799   -0.6541   -0.1731 H   0  0  0  0  0  0  0  0  0  0  0  0
   -5.6353    0.0771    1.8139 H   0  0  0  0  0  0  0  0  0  0  0  0
   -2.2097    2.1994    3.2085 H   0  0  0  0  0  0  0  0  0  0  0  0
   -5.5151    0.8742    4.1020 H   0  0  0  0  0  0  0  0  0  0  0  0
   -4.0854    1.7601    4.6845 H   0  0  0  0  0  0  0  0  0  0  0  0
   -6.9767    2.5300    5.0360 H   0  0  0  0  0  0  0  0  0  0  0  0
   -5.6954    3.6439    5.5823 H   0  0  0  0  0  0  0  0  0  0  0  0
   -7.7048    4.9535    5.2176 H   0  0  0  0  0  0  0  0  0  0  0  0
   -7.9433    4.2269    3.6123 H   0  0  0  0  0  0  0  0  0  0  0  0
   -7.6167    9.2647    3.3652 H   0  0  0  0  0  0  0  0  0  0  0  0
   -6.2235    9.8457    2.6276 H   0  0  0  0  0  0  0  0  0  0  0  0
   -2.6844    5.3852    2.2300 H   0  0  0  0  0  0  0  0  0  0  0  0
   -2.6045    7.0049    1.7908 H   0  0  0  0  0  0  0  0  0  0  0  0
   -3.7038    4.0349    4.1282 H   0  0  0  0  0  0  0  0  0  0  0  0
   -3.9109    3.8534    2.3715 H   0  0  0  0  0  0  0  0  0  0  0  0
  1  2  1  0  0  0  0
  1 23  1  0  0  0  0
  1 24  1  0  0  0  0
  1 25  1  0  0  0  0
  2  3  1  0  0  0  0
  3  8  2  0  0  0  0
  3  4  1  0  0  0  0
  4  5  2  0  0  0  0
  4 26  1  0  0  0  0
  5  6  1  0  0  0  0
  5 27  1  0  0  0  0
  6  7  2  0  0  0  0
  6 28  1  0  0  0  0
  7  8  1  0  0  0  0
  7  9  1  0  0  0  0
  8 29  1  0  0  0  0
  9 10  1  0  0  0  0
  9 30  1  0  0  0  0
  9 31  1  0  0  0  0
 10 11  1  0  0  0  0
 10 22  1  0  0  0  0
 10 12  1  0  0  0  0
 12 13  1  0  0  0  0
 12 32  1  0  0  0  0
 12 33  1  0  0  0  0
 13 14  1  0  0  0  0
 13 34  1  0  0  0  0
 13 35  1  0  0  0  0
 14 19  2  0  0  0  0
 14 15  1  0  0  0  0
 15 16  2  0  0  0  0
 15 22  1  0  0  0  0
 16 17  1  0  0  0  0
 16 21  1  0  0  0  0
 17 18  2  0  0  0  0
 18 19  1  0  0  0  0
 18 20  1  0  0  0  0
 20 36  1  0  0  0  0
 20 37  1  0  0  0  0
 21 38  1  0  0  0  0
 21 39  1  0  0  0  0
 22 40  1  0  0  0  0
 22 41  1  0  0  0  0
M  END
$$$$
ZINC03814895
  -OEChem-08230709403D

 42 44  0     1  0  0  0  0  0999 V2000
   -0.0127    1.0858    0.0080 C   0  0  0  0  0  0  0  0  0  0  0  0
   -0.6816    1.5467    1.1837 O   0  0  0  0  0  0  0  0  0  0  0  0
   -1.9749    1.1630    1.3482 C   0  0  0  0  0  0  0  0  0  0  0  0
   -2.5894    0.3641    0.3946 C   0  0  0  0  0  0  0  0  0  0  0  0
   -3.9023   -0.0288    0.5668 C   0  0  0  0  0  0  0  0  0  0  0  0
   -4.6076    0.3820    1.6831 C   0  0  0  0  0  0  0  0  0  0  0  0
   -3.9993    1.1827    2.6318 C   0  0  0  0  0  0  0  0  0  0  0  0
   -2.6845    1.5741    2.4669 C   0  0  0  0  0  0  0  0  0  0  0  0
   -4.7708    1.6286    3.8472 C   0  0  0  0  0  0  0  0  0  0  0  0
   -5.4711    2.9556    3.5482 C   0  0  1  0  0  0  0  0  0  0  0  0
   -6.0955    2.8485    2.6612 H   0  0  0  0  0  0  0  0  0  0  0  0
   -6.3363    3.3631    4.7465 C   0  0  0  0  0  0  0  0  0  0  0  0
   -7.1991    4.5560    4.3376 C   0  0  0  0  0  0  0  0  0  0  0  0
   -6.3487    5.6346    3.7230 C   0  0  0  0  0  0  0  0  0  0  0  0
   -5.0823    5.3974    3.2475 C   0  0  0  0  0  0  0  0  0  0  0  0
   -4.3709    6.4615    2.6786 C   0  0  0  0  0  0  0  0  0  0  0  0
   -4.9359    7.6616    2.6198 N   0  0  0  0  0  0  0  0  0  0  0  0
   -6.1582    7.8514    3.0933 C   0  0  0  0  0  0  0  0  0  0  0  0
   -6.7224    9.1130    3.0216 N   0  0  0  0  0  0  0  0  0  0  0  0
   -3.0921    6.2641    2.1837 N   0  0  0  0  0  0  0  0  0  0  0  0
   -4.4266    4.0459    3.3124 C   0  0  0  0  0  0  0  0  0  0  0  0
    0.0021   -0.0041    0.0020 H   0  0  0  0  0  0  0  0  0  0  0  0
    1.0099    1.4631    0.0003 H   0  0  0  0  0  0  0  0  0  0  0  0
   -0.5399    1.4469   -0.8751 H   0  0  0  0  0  0  0  0  0  0  0  0
   -2.0405    0.0467   -0.4796 H   0  0  0  0  0  0  0  0  0  0  0  0
   -4.3799   -0.6541   -0.1731 H   0  0  0  0  0  0  0  0  0  0  0  0
   -5.6353    0.0771    1.8139 H   0  0  0  0  0  0  0  0  0  0  0  0
   -2.2097    2.1994    3.2085 H   0  0  0  0  0  0  0  0  0  0  0  0
   -5.5151    0.8742    4.1020 H   0  0  0  0  0  0  0  0  0  0  0  0
   -4.0854    1.7601    4.6845 H   0  0  0  0  0  0  0  0  0  0  0  0
   -6.9767    2.5300    5.0360 H   0  0  0  0  0  0  0  0  0  0  0  0
   -5.6954    3.6439    5.5823 H   0  0  0  0  0  0  0  0  0  0  0  0
   -7.7048    4.9535    5.2176 H   0  0  0  0  0  0  0  0  0  0  0  0
   -7.9433    4.2269    3.6123 H   0  0  0  0  0  0  0  0  0  0  0  0
   -7.6167    9.2647    3.3652 H   0  0  0  0  0  0  0  0  0  0  0  0
   -6.2235    9.8457    2.6276 H   0  0  0  0  0  0  0  0  0  0  0  0
   -2.6844    5.3852    2.2300 H   0  0  0  0  0  0  0  0  0  0  0  0
   -2.6045    7.0049    1.7908 H   0  0  0  0  0  0  0  0  0  0  0  0
   -3.7038    4.0349    4.1282 H   0  0  0  0  0  0  0  0  0  0  0  0
   -3.9109    3.8534    2.3715 H   0  0  0  0  0  0  0  0  0  0  0  0
   -6.9228    6.8771    3.6605 N   0  3  0  0  0  0  0  0  0  0  0  0
   -7.8454    7.0202    4.0186 H   0  0  0  0  0  0  0  0  0  0  0  0
  1  2  1  0  0  0  0
  1 22  1  0  0  0  0
  1 23  1  0  0  0  0
  1 24  1  0  0  0  0
  2  3  1  0  0  0  0
  3  8  2  0  0  0  0
  3  4  1  0  0  0  0
  4  5  2  0  0  0  0
  4 25  1  0  0  0  0
  5  6  1  0  0  0  0
  5 26  1  0  0  0  0
  6  7  2  0  0  0  0
  6 27  1  0  0  0  0
  7  8  1  0  0  0  0
  7  9  1  0  0  0  0
  8 28  1  0  0  0  0
  9 10  1  0  0  0  0
  9 29  1  0  0  0  0
  9 30  1  0  0  0  0
 10 11  1  0  0  0  0
 10 21  1  0  0  0  0
 10 12  1  0  0  0  0
 12 13  1  0  0  0  0
 12 31  1  0  0  0  0
 12 32  1  0  0  0  0
 13 14  1  0  0  0  0
 13 33  1  0  0  0  0
 13 34  1  0  0  0  0
 14 15  2  0  0  0  0
 14 41  1  0  0  0  0
 15 16  1  0  0  0  0
 15 21  1  0  0  0  0
 16 17  2  0  0  0  0
 16 20  1  0  0  0  0
 17 18  1  0  0  0  0
 18 19  1  0  0  0  0
 18 41  2  0  0  0  0
 19 35  1  0  0  0  0
 19 36  1  0  0  0  0
 20 37  1  0  0  0  0
 20 38  1  0  0  0  0
 21 39  1  0  0  0  0
 21 40  1  0  0  0  0
 41 42  1  0  0  0  0
M  CHG  1  41   1
M  END
$$$$
ZINC03814896
  -OEChem-08230709403D

 41 43  0     1  0  0  0  0  0999 V2000
    2.0055   -9.1370   -4.9118 C   0  0  0  0  0  0  0  0  0  0  0  0
    2.4838   -8.7146   -3.6332 O   0  0  0  0  0  0  0  0  0  0  0  0
    1.5827   -8.1323   -2.7990 C   0  0  0  0  0  0  0  0  0  0  0  0
    1.9787   -7.6983   -1.5422 C   0  0  0  0  0  0  0  0  0  0  0  0
    1.0609   -7.1063   -0.6963 C   0  0  0  0  0  0  0  0  0  0  0  0
   -0.2514   -6.9460   -1.1013 C   0  0  0  0  0  0  0  0  0  0  0  0
   -0.6498   -7.3828   -2.3512 C   0  0  0  0  0  0  0  0  0  0  0  0
    0.2654   -7.9703   -3.2030 C   0  0  0  0  0  0  0  0  0  0  0  0
   -1.2505   -6.2999   -0.1764 C   0  0  0  0  0  0  0  0  0  0  0  0
   -1.2611   -4.7883   -0.4130 C   0  0  1  0  0  0  0  0  0  0  0  0
   -1.4437   -4.5839   -1.4680 H   0  0  0  0  0  0  0  0  0  0  0  0
   -2.3625   -4.1417    0.4352 C   0  0  0  0  0  0  0  0  0  0  0  0
   -2.5109   -2.6828    0.0060 C   0  0  0  0  0  0  0  0  0  0  0  0
   -1.1720   -1.9961    0.0037 C   0  0  0  0  0  0  0  0  0  0  0  0
    0.0144   -2.6879   -0.0065 C   0  0  0  0  0  0  0  0  0  0  0  0
    1.2122   -1.9620   -0.0171 C   0  0  0  0  0  0  0  0  0  0  0  0
    1.1665   -0.6350   -0.0125 N   0  0  0  0  0  0  0  0  0  0  0  0
    0.0021   -0.0041    0.0020 C   0  0  0  0  0  0  0  0  0  0  0  0
   -1.1435   -0.6657    0.0149 N   0  0  0  0  0  0  0  0  0  0  0  0
   -0.0167    1.3797    0.0096 N   0  0  0  0  0  0  0  0  0  0  0  0
    2.4307   -2.6210   -0.0318 N   0  0  0  0  0  0  0  0  0  0  0  0
    0.0827   -4.1899    0.0009 C   0  0  0  0  0  0  0  0  0  0  0  0
    1.2122   -9.8724   -4.7782 H   0  0  0  0  0  0  0  0  0  0  0  0
    1.6157   -8.2769   -5.4562 H   0  0  0  0  0  0  0  0  0  0  0  0
    2.8239   -9.5838   -5.4763 H   0  0  0  0  0  0  0  0  0  0  0  0
    3.0036   -7.8230   -1.2255 H   0  0  0  0  0  0  0  0  0  0  0  0
    1.3687   -6.7680    0.2821 H   0  0  0  0  0  0  0  0  0  0  0  0
   -1.6765   -7.2608   -2.6634 H   0  0  0  0  0  0  0  0  0  0  0  0
   -0.0453   -8.3073   -4.1809 H   0  0  0  0  0  0  0  0  0  0  0  0
   -0.9731   -6.5038    0.8578 H   0  0  0  0  0  0  0  0  0  0  0  0
   -2.2429   -6.7054   -0.3732 H   0  0  0  0  0  0  0  0  0  0  0  0
   -2.0875   -4.1873    1.4890 H   0  0  0  0  0  0  0  0  0  0  0  0
   -3.3037   -4.6679    0.2762 H   0  0  0  0  0  0  0  0  0  0  0  0
   -3.1780   -2.1695    0.6986 H   0  0  0  0  0  0  0  0  0  0  0  0
   -2.9377   -2.6437   -0.9962 H   0  0  0  0  0  0  0  0  0  0  0  0
    0.8167    1.8761    0.0043 H   0  0  0  0  0  0  0  0  0  0  0  0
   -0.8632    1.8533    0.0162 H   0  0  0  0  0  0  0  0  0  0  0  0
    3.2569   -2.1128   -0.0388 H   0  0  0  0  0  0  0  0  0  0  0  0
    2.4576   -3.5906   -0.0351 H   0  0  0  0  0  0  0  0  0  0  0  0
    0.8536   -4.5189   -0.6959 H   0  0  0  0  0  0  0  0  0  0  0  0
    0.3369   -4.5340    1.0034 H   0  0  0  0  0  0  0  0  0  0  0  0
  1  2  1  0  0  0  0
  1 23  1  0  0  0  0
  1 24  1  0  0  0  0
  1 25  1  0  0  0  0
  2  3  1  0  0  0  0
  3  8  2  0  0  0  0
  3  4  1  0  0  0  0
  4  5  2  0  0  0  0
  4 26  1  0  0  0  0
  5  6  1  0  0  0  0
  5 27  1  0  0  0  0
  6  7  2  0  0  0  0
  6  9  1  0  0  0  0
  7  8  1  0  0  0  0
  7 28  1  0  0  0  0
  8 29  1  0  0  0  0
  9 10  1  0  0  0  0
  9 30  1  0  0  0  0
  9 31  1  0  0  0  0
 10 11  1  0  0  0  0
 10 22  1  0  0  0  0
 10 12  1  0  0  0  0
 12 13  1  0  0  0  0
 12 32  1  0  0  0  0
 12 33  1  0  0  0  0
 13 14  1  0  0  0  0
 13 34  1  0  0  0  0
 13 35  1  0  0  0  0
 14 19  2  0  0  0  0
 14 15  1  0  0  0  0
 15 16  2  0  0  0  0
 15 22  1  0  0  0  0
 16 17  1  0  0  0  0
 16 21  1  0  0  0  0
 17 18  2  0  0  0  0
 18 19  1  0  0  0  0
 18 20  1  0  0  0  0
 20 36  1  0  0  0  0
 20 37  1  0  0  0  0
 21 38  1  0  0  0  0
 21 39  1  0  0  0  0
 22 40  1  0  0  0  0
 22 41  1  0  0  0  0
M  END
$$$$
ZINC03814896
  -OEChem-08230709403D

 42 44  0     1  0  0  0  0  0999 V2000
    2.0055   -9.1370   -4.9118 C   0  0  0  0  0  0  0  0  0  0  0  0
    2.4838   -8.7146   -3.6332 O   0  0  0  0  0  0  0  0  0  0  0  0
    1.5827   -8.1323   -2.7990 C   0  0  0  0  0  0  0  0  0  0  0  0
    1.9787   -7.6983   -1.5422 C   0  0  0  0  0  0  0  0  0  0  0  0
    1.0609   -7.1063   -0.6963 C   0  0  0  0  0  0  0  0  0  0  0  0
   -0.2514   -6.9460   -1.1013 C   0  0  0  0  0  0  0  0  0  0  0  0
   -0.6498   -7.3828   -2.3512 C   0  0  0  0  0  0  0  0  0  0  0  0
    0.2654   -7.9703   -3.2030 C   0  0  0  0  0  0  0  0  0  0  0  0
   -1.2505   -6.2999   -0.1764 C   0  0  0  0  0  0  0  0  0  0  0  0
   -1.2611   -4.7883   -0.4130 C   0  0  1  0  0  0  0  0  0  0  0  0
   -1.4437   -4.5839   -1.4680 H   0  0  0  0  0  0  0  0  0  0  0  0
   -2.3625   -4.1417    0.4352 C   0  0  0  0  0  0  0  0  0  0  0  0
   -2.5109   -2.6828    0.0060 C   0  0  0  0  0  0  0  0  0  0  0  0
   -1.1720   -1.9961    0.0037 C   0  0  0  0  0  0  0  0  0  0  0  0
    0.0144   -2.6879   -0.0065 C   0  0  0  0  0  0  0  0  0  0  0  0
    1.2122   -1.9620   -0.0171 C   0  0  0  0  0  0  0  0  0  0  0  0
    1.1665   -0.6350   -0.0125 N   0  0  0  0  0  0  0  0  0  0  0  0
    0.0021   -0.0041    0.0020 C   0  0  0  0  0  0  0  0  0  0  0  0
   -0.0167    1.3797    0.0096 N   0  0  0  0  0  0  0  0  0  0  0  0
    2.4307   -2.6210   -0.0318 N   0  0  0  0  0  0  0  0  0  0  0  0
    0.0827   -4.1899    0.0009 C   0  0  0  0  0  0  0  0  0  0  0  0
    1.2122   -9.8724   -4.7782 H   0  0  0  0  0  0  0  0  0  0  0  0
    1.6157   -8.2769   -5.4562 H   0  0  0  0  0  0  0  0  0  0  0  0
    2.8239   -9.5838   -5.4763 H   0  0  0  0  0  0  0  0  0  0  0  0
    3.0036   -7.8230   -1.2255 H   0  0  0  0  0  0  0  0  0  0  0  0
    1.3687   -6.7680    0.2821 H   0  0  0  0  0  0  0  0  0  0  0  0
   -1.6765   -7.2608   -2.6634 H   0  0  0  0  0  0  0  0  0  0  0  0
   -0.0453   -8.3073   -4.1809 H   0  0  0  0  0  0  0  0  0  0  0  0
   -0.9731   -6.5038    0.8578 H   0  0  0  0  0  0  0  0  0  0  0  0
   -2.2429   -6.7054   -0.3732 H   0  0  0  0  0  0  0  0  0  0  0  0
   -2.0875   -4.1873    1.4890 H   0  0  0  0  0  0  0  0  0  0  0  0
   -3.3037   -4.6679    0.2762 H   0  0  0  0  0  0  0  0  0  0  0  0
   -3.1780   -2.1695    0.6986 H   0  0  0  0  0  0  0  0  0  0  0  0
   -2.9377   -2.6437   -0.9962 H   0  0  0  0  0  0  0  0  0  0  0  0
    0.8167    1.8761    0.0043 H   0  0  0  0  0  0  0  0  0  0  0  0
   -0.8632    1.8533    0.0162 H   0  0  0  0  0  0  0  0  0  0  0  0
    3.2569   -2.1128   -0.0388 H   0  0  0  0  0  0  0  0  0  0  0  0
    2.4576   -3.5906   -0.0351 H   0  0  0  0  0  0  0  0  0  0  0  0
    0.8536   -4.5189   -0.6959 H   0  0  0  0  0  0  0  0  0  0  0  0
    0.3369   -4.5340    1.0034 H   0  0  0  0  0  0  0  0  0  0  0  0
   -1.2094   -0.6266    0.0163 N   0  3  0  0  0  0  0  0  0  0  0  0
   -2.0886   -0.1506    0.0348 H   0  0  0  0  0  0  0  0  0  0  0  0
  1  2  1  0  0  0  0
  1 22  1  0  0  0  0
  1 23  1  0  0  0  0
  1 24  1  0  0  0  0
  2  3  1  0  0  0  0
  3  8  2  0  0  0  0
  3  4  1  0  0  0  0
  4  5  2  0  0  0  0
  4 25  1  0  0  0  0
  5  6  1  0  0  0  0
  5 26  1  0  0  0  0
  6  7  2  0  0  0  0
  6  9  1  0  0  0  0
  7  8  1  0  0  0  0
  7 27  1  0  0  0  0
  8 28  1  0  0  0  0
  9 10  1  0  0  0  0
  9 29  1  0  0  0  0
  9 30  1  0  0  0  0
 10 11  1  0  0  0  0
 10 21  1  0  0  0  0
 10 12  1  0  0  0  0
 12 13  1  0  0  0  0
 12 31  1  0  0  0  0
 12 32  1  0  0  0  0
 13 14  1  0  0  0  0
 13 33  1  0  0  0  0
 13 34  1  0  0  0  0
 14 15  2  0  0  0  0
 14 41  1  0  0  0  0
 15 16  1  0  0  0  0
 15 21  1  0  0  0  0
 16 17  2  0  0  0  0
 16 20  1  0  0  0  0
 17 18  1  0  0  0  0
 18 19  1  0  0  0  0
 18 41  2  0  0  0  0
 19 35  1  0  0  0  0
 19 36  1  0  0  0  0
 20 37  1  0  0  0  0
 20 38  1  0  0  0  0
 21 39  1  0  0  0  0
 21 40  1  0  0  0  0
 41 42  1  0  0  0  0
M  CHG  1  41   1
M  END
$$$$
ZINC03814897
  -OEChem-08230709403D

 40 42  0     1  0  0  0  0  0999 V2000
    2.3960    0.0288   -0.0217 C   0  0  0  0  0  0  0  0  0  0  0  0
    1.2082   -0.6788   -0.0132 C   0  0  0  0  0  0  0  0  0  0  0  0
    0.0021   -0.0041    0.0020 C   0  0  0  0  0  0  0  0  0  0  0  0
   -0.0167    1.3783    0.0096 C   0  0  0  0  0  0  0  0  0  0  0  0
    1.1708    2.0856    0.0021 C   0  0  0  0  0  0  0  0  0  0  0  0
    2.3773    1.4107   -0.0150 C   0  0  0  0  0  0  0  0  0  0  0  0
    1.1503    3.5925    0.0104 C   0  0  0  0  0  0  0  0  0  0  0  0
    1.1566    4.0516    1.3319 F   0  0  0  0  0  0  0  0  0  0  0  0
    2.2798    4.0779   -0.6573 F   0  0  0  0  0  0  0  0  0  0  0  0
   -0.0044    4.0468   -0.6356 F   0  0  0  0  0  0  0  0  0  0  0  0
   -1.2926   -0.7753    0.0108 C   0  0  0  0  0  0  0  0  0  0  0  0
   -1.7452   -1.0285   -1.4286 C   0  0  1  0  0  0  0  0  0  0  0  0
   -0.9509   -1.5330   -1.9789 H   0  0  0  0  0  0  0  0  0  0  0  0
   -3.0084   -1.8972   -1.4263 C   0  0  0  0  0  0  0  0  0  0  0  0
   -3.3028   -2.3278   -2.8626 C   0  0  0  0  0  0  0  0  0  0  0  0
   -3.3076   -1.1345   -3.7792 C   0  0  0  0  0  0  0  0  0  0  0  0
   -2.7380    0.0664   -3.4336 C   0  0  0  0  0  0  0  0  0  0  0  0
   -2.7787    1.1173   -4.3586 C   0  0  0  0  0  0  0  0  0  0  0  0
   -3.3668    0.9249   -5.5334 N   0  0  0  0  0  0  0  0  0  0  0  0
   -3.9089   -0.2471   -5.8281 C   0  0  0  0  0  0  0  0  0  0  0  0
   -3.8824   -1.2564   -4.9732 N   0  0  0  0  0  0  0  0  0  0  0  0
   -4.5177   -0.4198   -7.0589 N   0  0  0  0  0  0  0  0  0  0  0  0
   -2.2131    2.3439   -4.0509 N   0  0  0  0  0  0  0  0  0  0  0  0
   -2.0738    0.3017   -2.1053 C   0  0  0  0  0  0  0  0  0  0  0  0
    3.3385   -0.4984   -0.0339 H   0  0  0  0  0  0  0  0  0  0  0  0
    1.2229   -1.7586   -0.0188 H   0  0  0  0  0  0  0  0  0  0  0  0
   -0.9592    1.9056    0.0170 H   0  0  0  0  0  0  0  0  0  0  0  0
    3.3051    1.9634   -0.0216 H   0  0  0  0  0  0  0  0  0  0  0  0
   -1.1443   -1.7285    0.5181 H   0  0  0  0  0  0  0  0  0  0  0  0
   -2.0550   -0.1993    0.5353 H   0  0  0  0  0  0  0  0  0  0  0  0
   -2.8458   -2.7785   -0.8058 H   0  0  0  0  0  0  0  0  0  0  0  0
   -3.8481   -1.3215   -1.0371 H   0  0  0  0  0  0  0  0  0  0  0  0
   -4.2771   -2.8150   -2.9002 H   0  0  0  0  0  0  0  0  0  0  0  0
   -2.5384   -3.0318   -3.1916 H   0  0  0  0  0  0  0  0  0  0  0  0
   -4.9186   -1.2733   -7.2862 H   0  0  0  0  0  0  0  0  0  0  0  0
   -4.5436    0.3128   -7.6942 H   0  0  0  0  0  0  0  0  0  0  0  0
   -1.7857    2.4787   -3.1906 H   0  0  0  0  0  0  0  0  0  0  0  0
   -2.2445    3.0679   -4.6956 H   0  0  0  0  0  0  0  0  0  0  0  0
   -2.7430    0.8761   -1.4646 H   0  0  0  0  0  0  0  0  0  0  0  0
   -1.1531    0.8640   -2.2607 H   0  0  0  0  0  0  0  0  0  0  0  0
  1  6  2  0  0  0  0
  1  2  1  0  0  0  0
  1 25  1  0  0  0  0
  2  3  2  0  0  0  0
  2 26  1  0  0  0  0
  3  4  1  0  0  0  0
  3 11  1  0  0  0  0
  4  5  2  0  0  0  0
  4 27  1  0  0  0  0
  5  6  1  0  0  0  0
  5  7  1  0  0  0  0
  6 28  1  0  0  0  0
  7  8  1  0  0  0  0
  7  9  1  0  0  0  0
  7 10  1  0  0  0  0
 11 12  1  0  0  0  0
 11 29  1  0  0  0  0
 11 30  1  0  0  0  0
 12 13  1  0  0  0  0
 12 24  1  0  0  0  0
 12 14  1  0  0  0  0
 14 15  1  0  0  0  0
 14 31  1  0  0  0  0
 14 32  1  0  0  0  0
 15 16  1  0  0  0  0
 15 33  1  0  0  0  0
 15 34  1  0  0  0  0
 16 21  2  0  0  0  0
 16 17  1  0  0  0  0
 17 18  2  0  0  0  0
 17 24  1  0  0  0  0
 18 19  1  0  0  0  0
 18 23  1  0  0  0  0
 19 20  2  0  0  0  0
 20 21  1  0  0  0  0
 20 22  1  0  0  0  0
 22 35  1  0  0  0  0
 22 36  1  0  0  0  0
 23 37  1  0  0  0  0
 23 38  1  0  0  0  0
 24 39  1  0  0  0  0
 24 40  1  0  0  0  0
M  END
$$$$
ZINC03814897
  -OEChem-08230709403D

 41 43  0     1  0  0  0  0  0999 V2000
    2.3960    0.0288   -0.0217 C   0  0  0  0  0  0  0  0  0  0  0  0
    1.2082   -0.6788   -0.0132 C   0  0  0  0  0  0  0  0  0  0  0  0
    0.0021   -0.0041    0.0020 C   0  0  0  0  0  0  0  0  0  0  0  0
   -0.0167    1.3783    0.0096 C   0  0  0  0  0  0  0  0  0  0  0  0
    1.1708    2.0856    0.0021 C   0  0  0  0  0  0  0  0  0  0  0  0
    2.3773    1.4107   -0.0150 C   0  0  0  0  0  0  0  0  0  0  0  0
    1.1503    3.5925    0.0104 C   0  0  0  0  0  0  0  0  0  0  0  0
    1.1566    4.0516    1.3319 F   0  0  0  0  0  0  0  0  0  0  0  0
    2.2798    4.0779   -0.6573 F   0  0  0  0  0  0  0  0  0  0  0  0
   -0.0044    4.0468   -0.6356 F   0  0  0  0  0  0  0  0  0  0  0  0
   -1.2926   -0.7753    0.0108 C   0  0  0  0  0  0  0  0  0  0  0  0
   -1.7452   -1.0285   -1.4286 C   0  0  1  0  0  0  0  0  0  0  0  0
   -0.9509   -1.5330   -1.9789 H   0  0  0  0  0  0  0  0  0  0  0  0
   -3.0084   -1.8972   -1.4263 C   0  0  0  0  0  0  0  0  0  0  0  0
   -3.3028   -2.3278   -2.8626 C   0  0  0  0  0  0  0  0  0  0  0  0
   -3.3076   -1.1345   -3.7792 C   0  0  0  0  0  0  0  0  0  0  0  0
   -2.7380    0.0664   -3.4336 C   0  0  0  0  0  0  0  0  0  0  0  0
   -2.7787    1.1173   -4.3586 C   0  0  0  0  0  0  0  0  0  0  0  0
   -3.3668    0.9249   -5.5334 N   0  0  0  0  0  0  0  0  0  0  0  0
   -3.9089   -0.2471   -5.8281 C   0  0  0  0  0  0  0  0  0  0  0  0
   -4.5177   -0.4198   -7.0589 N   0  0  0  0  0  0  0  0  0  0  0  0
   -2.2131    2.3439   -4.0509 N   0  0  0  0  0  0  0  0  0  0  0  0
   -2.0738    0.3017   -2.1053 C   0  0  0  0  0  0  0  0  0  0  0  0
    3.3385   -0.4984   -0.0339 H   0  0  0  0  0  0  0  0  0  0  0  0
    1.2229   -1.7586   -0.0188 H   0  0  0  0  0  0  0  0  0  0  0  0
   -0.9592    1.9056    0.0170 H   0  0  0  0  0  0  0  0  0  0  0  0
    3.3051    1.9634   -0.0216 H   0  0  0  0  0  0  0  0  0  0  0  0
   -1.1443   -1.7285    0.5181 H   0  0  0  0  0  0  0  0  0  0  0  0
   -2.0550   -0.1993    0.5353 H   0  0  0  0  0  0  0  0  0  0  0  0
   -2.8458   -2.7785   -0.8058 H   0  0  0  0  0  0  0  0  0  0  0  0
   -3.8481   -1.3215   -1.0371 H   0  0  0  0  0  0  0  0  0  0  0  0
   -4.2771   -2.8150   -2.9002 H   0  0  0  0  0  0  0  0  0  0  0  0
   -2.5384   -3.0318   -3.1916 H   0  0  0  0  0  0  0  0  0  0  0  0
   -4.9186   -1.2733   -7.2862 H   0  0  0  0  0  0  0  0  0  0  0  0
   -4.5436    0.3128   -7.6942 H   0  0  0  0  0  0  0  0  0  0  0  0
   -1.7857    2.4787   -3.1906 H   0  0  0  0  0  0  0  0  0  0  0  0
   -2.2445    3.0679   -4.6956 H   0  0  0  0  0  0  0  0  0  0  0  0
   -2.7430    0.8761   -1.4646 H   0  0  0  0  0  0  0  0  0  0  0  0
   -1.1531    0.8640   -2.2607 H   0  0  0  0  0  0  0  0  0  0  0  0
   -3.9146   -1.3232   -4.9929 N   0  3  0  0  0  0  0  0  0  0  0  0
   -4.3243   -2.2080   -5.2149 H   0  0  0  0  0  0  0  0  0  0  0  0
  1  6  2  0  0  0  0
  1  2  1  0  0  0  0
  1 24  1  0  0  0  0
  2  3  2  0  0  0  0
  2 25  1  0  0  0  0
  3  4  1  0  0  0  0
  3 11  1  0  0  0  0
  4  5  2  0  0  0  0
  4 26  1  0  0  0  0
  5  6  1  0  0  0  0
  5  7  1  0  0  0  0
  6 27  1  0  0  0  0
  7  8  1  0  0  0  0
  7  9  1  0  0  0  0
  7 10  1  0  0  0  0
 11 12  1  0  0  0  0
 11 28  1  0  0  0  0
 11 29  1  0  0  0  0
 12 13  1  0  0  0  0
 12 23  1  0  0  0  0
 12 14  1  0  0  0  0
 14 15  1  0  0  0  0
 14 30  1  0  0  0  0
 14 31  1  0  0  0  0
 15 16  1  0  0  0  0
 15 32  1  0  0  0  0
 15 33  1  0  0  0  0
 16 17  2  0  0  0  0
 16 40  1  0  0  0  0
 17 18  1  0  0  0  0
 17 23  1  0  0  0  0
 18 19  2  0  0  0  0
 18 22  1  0  0  0  0
 19 20  1  0  0  0  0
 20 21  1  0  0  0  0
 20 40  2  0  0  0  0
 21 34  1  0  0  0  0
 21 35  1  0  0  0  0
 22 36  1  0  0  0  0
 22 37  1  0  0  0  0
 23 38  1  0  0  0  0
 23 39  1  0  0  0  0
 40 41  1  0  0  0  0
M  CHG  1  40   1
M  END
$$$$
ZINC03814898
  -OEChem-08230709403D

 41 43  0     1  0  0  0  0  0999 V2000
    1.5296    0.3364    3.6391 C   0  0  0  0  0  0  0  0  0  0  0  0
    0.9316    0.7491    4.8157 C   0  0  0  0  0  0  0  0  0  0  0  0
   -0.2075    1.5314    4.7775 C   0  0  0  0  0  0  0  0  0  0  0  0
   -0.7511    1.9034    3.5629 C   0  0  0  0  0  0  0  0  0  0  0  0
   -0.1530    1.4911    2.3813 C   0  0  0  0  0  0  0  0  0  0  0  0
    0.9870    0.7011    2.4224 C   0  0  0  0  0  0  0  0  0  0  0  0
   -0.6858    1.8556    1.1854 O   0  0  0  0  0  0  0  0  0  0  0  0
   -0.0169    1.3948    0.0097 C   0  0  0  0  0  0  0  0  0  0  0  0
    0.0021   -0.0041    0.0020 F   0  0  0  0  0  0  0  0  0  0  0  0
    1.2956    1.8790   -0.0002 F   0  0  0  0  0  0  0  0  0  0  0  0
   -0.6935    1.8582   -1.1237 F   0  0  0  0  0  0  0  0  0  0  0  0
   -0.8566    1.9794    6.0617 C   0  0  0  0  0  0  0  0  0  0  0  0
   -1.8933    0.9423    6.4979 C   0  0  1  0  0  0  0  0  0  0  0  0
   -1.4211   -0.0370    6.5767 H   0  0  0  0  0  0  0  0  0  0  0  0
   -2.4852    1.3442    7.8539 C   0  0  0  0  0  0  0  0  0  0  0  0
   -3.3354    0.1859    8.3738 C   0  0  0  0  0  0  0  0  0  0  0  0
   -4.3105   -0.2654    7.3204 C   0  0  0  0  0  0  0  0  0  0  0  0
   -4.1630    0.0498    5.9918 C   0  0  0  0  0  0  0  0  0  0  0  0
   -5.1142   -0.4275    5.0812 C   0  0  0  0  0  0  0  0  0  0  0  0
   -6.1267   -1.1622    5.5262 N   0  0  0  0  0  0  0  0  0  0  0  0
   -6.2367   -1.4412    6.8163 C   0  0  0  0  0  0  0  0  0  0  0  0
   -5.3512   -1.0045    7.6968 N   0  0  0  0  0  0  0  0  0  0  0  0
   -7.3033   -2.2071    7.2535 N   0  0  0  0  0  0  0  0  0  0  0  0
   -5.0004   -0.1356    3.7318 N   0  0  0  0  0  0  0  0  0  0  0  0
   -3.0257    0.8855    5.4733 C   0  0  0  0  0  0  0  0  0  0  0  0
    2.4192   -0.2751    3.6715 H   0  0  0  0  0  0  0  0  0  0  0  0
    1.3550    0.4594    5.7661 H   0  0  0  0  0  0  0  0  0  0  0  0
   -1.6409    2.5149    3.5336 H   0  0  0  0  0  0  0  0  0  0  0  0
    1.4518    0.3748    1.5037 H   0  0  0  0  0  0  0  0  0  0  0  0
   -0.0967    2.0817    6.8364 H   0  0  0  0  0  0  0  0  0  0  0  0
   -1.3473    2.9400    5.9049 H   0  0  0  0  0  0  0  0  0  0  0  0
   -1.6796    1.5521    8.5581 H   0  0  0  0  0  0  0  0  0  0  0  0
   -3.1081    2.2306    7.7334 H   0  0  0  0  0  0  0  0  0  0  0  0
   -3.8845    0.5103    9.2578 H   0  0  0  0  0  0  0  0  0  0  0  0
   -2.6825   -0.6452    8.6402 H   0  0  0  0  0  0  0  0  0  0  0  0
   -7.3949   -2.4179    8.1959 H   0  0  0  0  0  0  0  0  0  0  0  0
   -7.9591   -2.5332    6.6176 H   0  0  0  0  0  0  0  0  0  0  0  0
   -4.2589    0.4022    3.4127 H   0  0  0  0  0  0  0  0  0  0  0  0
   -5.6623   -0.4690    3.1059 H   0  0  0  0  0  0  0  0  0  0  0  0
   -3.3826    1.8960    5.2744 H   0  0  0  0  0  0  0  0  0  0  0  0
   -2.6526    0.4466    4.5480 H   0  0  0  0  0  0  0  0  0  0  0  0
  1  6  2  0  0  0  0
  1  2  1  0  0  0  0
  1 26  1  0  0  0  0
  2  3  2  0  0  0  0
  2 27  1  0  0  0  0
  3  4  1  0  0  0  0
  3 12  1  0  0  0  0
  4  5  2  0  0  0  0
  4 28  1  0  0  0  0
  5  6  1  0  0  0  0
  5  7  1  0  0  0  0
  6 29  1  0  0  0  0
  7  8  1  0  0  0  0
  8  9  1  0  0  0  0
  8 10  1  0  0  0  0
  8 11  1  0  0  0  0
 12 13  1  0  0  0  0
 12 30  1  0  0  0  0
 12 31  1  0  0  0  0
 13 14  1  0  0  0  0
 13 25  1  0  0  0  0
 13 15  1  0  0  0  0
 15 16  1  0  0  0  0
 15 32  1  0  0  0  0
 15 33  1  0  0  0  0
 16 17  1  0  0  0  0
 16 34  1  0  0  0  0
 16 35  1  0  0  0  0
 17 22  2  0  0  0  0
 17 18  1  0  0  0  0
 18 19  2  0  0  0  0
 18 25  1  0  0  0  0
 19 20  1  0  0  0  0
 19 24  1  0  0  0  0
 20 21  2  0  0  0  0
 21 22  1  0  0  0  0
 21 23  1  0  0  0  0
 23 36  1  0  0  0  0
 23 37  1  0  0  0  0
 24 38  1  0  0  0  0
 24 39  1  0  0  0  0
 25 40  1  0  0  0  0
 25 41  1  0  0  0  0
M  END
$$$$
ZINC03814898
  -OEChem-08230709403D

 42 44  0     1  0  0  0  0  0999 V2000
    1.5296    0.3364    3.6391 C   0  0  0  0  0  0  0  0  0  0  0  0
    0.9316    0.7491    4.8157 C   0  0  0  0  0  0  0  0  0  0  0  0
   -0.2075    1.5314    4.7775 C   0  0  0  0  0  0  0  0  0  0  0  0
   -0.7511    1.9034    3.5629 C   0  0  0  0  0  0  0  0  0  0  0  0
   -0.1530    1.4911    2.3813 C   0  0  0  0  0  0  0  0  0  0  0  0
    0.9870    0.7011    2.4224 C   0  0  0  0  0  0  0  0  0  0  0  0
   -0.6858    1.8556    1.1854 O   0  0  0  0  0  0  0  0  0  0  0  0
   -0.0169    1.3948    0.0097 C   0  0  0  0  0  0  0  0  0  0  0  0
    0.0021   -0.0041    0.0020 F   0  0  0  0  0  0  0  0  0  0  0  0
    1.2956    1.8790   -0.0002 F   0  0  0  0  0  0  0  0  0  0  0  0
   -0.6935    1.8582   -1.1237 F   0  0  0  0  0  0  0  0  0  0  0  0
   -0.8566    1.9794    6.0617 C   0  0  0  0  0  0  0  0  0  0  0  0
   -1.8933    0.9423    6.4979 C   0  0  1  0  0  0  0  0  0  0  0  0
   -1.4211   -0.0370    6.5767 H   0  0  0  0  0  0  0  0  0  0  0  0
   -2.4852    1.3442    7.8539 C   0  0  0  0  0  0  0  0  0  0  0  0
   -3.3354    0.1859    8.3738 C   0  0  0  0  0  0  0  0  0  0  0  0
   -4.3105   -0.2654    7.3204 C   0  0  0  0  0  0  0  0  0  0  0  0
   -4.1630    0.0498    5.9918 C   0  0  0  0  0  0  0  0  0  0  0  0
   -5.1142   -0.4275    5.0812 C   0  0  0  0  0  0  0  0  0  0  0  0
   -6.1267   -1.1622    5.5262 N   0  0  0  0  0  0  0  0  0  0  0  0
   -6.2367   -1.4412    6.8163 C   0  0  0  0  0  0  0  0  0  0  0  0
   -7.3033   -2.2071    7.2535 N   0  0  0  0  0  0  0  0  0  0  0  0
   -5.0004   -0.1356    3.7318 N   0  0  0  0  0  0  0  0  0  0  0  0
   -3.0257    0.8855    5.4733 C   0  0  0  0  0  0  0  0  0  0  0  0
    2.4192   -0.2751    3.6715 H   0  0  0  0  0  0  0  0  0  0  0  0
    1.3550    0.4594    5.7661 H   0  0  0  0  0  0  0  0  0  0  0  0
   -1.6409    2.5149    3.5336 H   0  0  0  0  0  0  0  0  0  0  0  0
    1.4518    0.3748    1.5037 H   0  0  0  0  0  0  0  0  0  0  0  0
   -0.0967    2.0817    6.8364 H   0  0  0  0  0  0  0  0  0  0  0  0
   -1.3473    2.9400    5.9049 H   0  0  0  0  0  0  0  0  0  0  0  0
   -1.6796    1.5521    8.5581 H   0  0  0  0  0  0  0  0  0  0  0  0
   -3.1081    2.2306    7.7334 H   0  0  0  0  0  0  0  0  0  0  0  0
   -3.8845    0.5103    9.2578 H   0  0  0  0  0  0  0  0  0  0  0  0
   -2.6825   -0.6452    8.6402 H   0  0  0  0  0  0  0  0  0  0  0  0
   -7.3949   -2.4179    8.1959 H   0  0  0  0  0  0  0  0  0  0  0  0
   -7.9591   -2.5332    6.6176 H   0  0  0  0  0  0  0  0  0  0  0  0
   -4.2589    0.4022    3.4127 H   0  0  0  0  0  0  0  0  0  0  0  0
   -5.6623   -0.4690    3.1059 H   0  0  0  0  0  0  0  0  0  0  0  0
   -3.3826    1.8960    5.2744 H   0  0  0  0  0  0  0  0  0  0  0  0
   -2.6526    0.4466    4.5480 H   0  0  0  0  0  0  0  0  0  0  0  0
   -5.3601   -1.0222    7.7709 N   0  3  0  0  0  0  0  0  0  0  0  0
   -5.4432   -1.2323    8.7450 H   0  0  0  0  0  0  0  0  0  0  0  0
  1  6  2  0  0  0  0
  1  2  1  0  0  0  0
  1 25  1  0  0  0  0
  2  3  2  0  0  0  0
  2 26  1  0  0  0  0
  3  4  1  0  0  0  0
  3 12  1  0  0  0  0
  4  5  2  0  0  0  0
  4 27  1  0  0  0  0
  5  6  1  0  0  0  0
  5  7  1  0  0  0  0
  6 28  1  0  0  0  0
  7  8  1  0  0  0  0
  8  9  1  0  0  0  0
  8 10  1  0  0  0  0
  8 11  1  0  0  0  0
 12 13  1  0  0  0  0
 12 29  1  0  0  0  0
 12 30  1  0  0  0  0
 13 14  1  0  0  0  0
 13 24  1  0  0  0  0
 13 15  1  0  0  0  0
 15 16  1  0  0  0  0
 15 31  1  0  0  0  0
 15 32  1  0  0  0  0
 16 17  1  0  0  0  0
 16 33  1  0  0  0  0
 16 34  1  0  0  0  0
 17 18  2  0  0  0  0
 17 41  1  0  0  0  0
 18 19  1  0  0  0  0
 18 24  1  0  0  0  0
 19 20  2  0  0  0  0
 19 23  1  0  0  0  0
 20 21  1  0  0  0  0
 21 22  1  0  0  0  0
 21 41  2  0  0  0  0
 22 35  1  0  0  0  0
 22 36  1  0  0  0  0
 23 37  1  0  0  0  0
 23 38  1  0  0  0  0
 24 39  1  0  0  0  0
 24 40  1  0  0  0  0
 41 42  1  0  0  0  0
M  CHG  1  41   1
M  END
$$$$
ZINC03814899
  -OEChem-08230709403D

 41 43  0     1  0  0  0  0  0999 V2000
   -0.6498   -7.3828   -2.3512 C   0  0  0  0  0  0  0  0  0  0  0  0
    0.2654   -7.9703   -3.2030 C   0  0  0  0  0  0  0  0  0  0  0  0
    1.5827   -8.1323   -2.7990 C   0  0  0  0  0  0  0  0  0  0  0  0
    1.9787   -7.6983   -1.5422 C   0  0  0  0  0  0  0  0  0  0  0  0
    1.0609   -7.1063   -0.6963 C   0  0  0  0  0  0  0  0  0  0  0  0
   -0.2514   -6.9460   -1.1013 C   0  0  0  0  0  0  0  0  0  0  0  0
   -1.2505   -6.2999   -0.1764 C   0  0  0  0  0  0  0  0  0  0  0  0
   -1.2611   -4.7883   -0.4130 C   0  0  1  0  0  0  0  0  0  0  0  0
   -1.4437   -4.5839   -1.4680 H   0  0  0  0  0  0  0  0  0  0  0  0
   -2.3625   -4.1417    0.4352 C   0  0  0  0  0  0  0  0  0  0  0  0
   -2.5109   -2.6828    0.0060 C   0  0  0  0  0  0  0  0  0  0  0  0
   -1.1720   -1.9961    0.0037 C   0  0  0  0  0  0  0  0  0  0  0  0
    0.0144   -2.6879   -0.0065 C   0  0  0  0  0  0  0  0  0  0  0  0
    1.2122   -1.9620   -0.0171 C   0  0  0  0  0  0  0  0  0  0  0  0
    1.1665   -0.6350   -0.0125 N   0  0  0  0  0  0  0  0  0  0  0  0
    0.0021   -0.0041    0.0020 C   0  0  0  0  0  0  0  0  0  0  0  0
   -1.1435   -0.6657    0.0149 N   0  0  0  0  0  0  0  0  0  0  0  0
   -0.0167    1.3797    0.0096 N   0  0  0  0  0  0  0  0  0  0  0  0
    2.4307   -2.6210   -0.0318 N   0  0  0  0  0  0  0  0  0  0  0  0
    0.0827   -4.1899    0.0009 C   0  0  0  0  0  0  0  0  0  0  0  0
    2.4838   -8.7146   -3.6332 O   0  0  0  0  0  0  0  0  0  0  0  0
    2.0055   -9.1370   -4.9118 C   0  0  0  0  0  0  0  0  0  0  0  0
    1.5052   -8.0330   -5.6105 F   0  0  0  0  0  0  0  0  0  0  0  0
    3.0559   -9.7105   -5.6364 F   0  0  0  0  0  0  0  0  0  0  0  0
    0.9873  -10.0809   -4.7403 F   0  0  0  0  0  0  0  0  0  0  0  0
   -1.6765   -7.2608   -2.6634 H   0  0  0  0  0  0  0  0  0  0  0  0
   -0.0453   -8.3073   -4.1809 H   0  0  0  0  0  0  0  0  0  0  0  0
    3.0036   -7.8230   -1.2255 H   0  0  0  0  0  0  0  0  0  0  0  0
    1.3687   -6.7680    0.2821 H   0  0  0  0  0  0  0  0  0  0  0  0
   -0.9731   -6.5038    0.8578 H   0  0  0  0  0  0  0  0  0  0  0  0
   -2.2429   -6.7054   -0.3732 H   0  0  0  0  0  0  0  0  0  0  0  0
   -2.0875   -4.1873    1.4890 H   0  0  0  0  0  0  0  0  0  0  0  0
   -3.3037   -4.6679    0.2762 H   0  0  0  0  0  0  0  0  0  0  0  0
   -3.1780   -2.1695    0.6986 H   0  0  0  0  0  0  0  0  0  0  0  0
   -2.9377   -2.6437   -0.9962 H   0  0  0  0  0  0  0  0  0  0  0  0
    0.8167    1.8761    0.0043 H   0  0  0  0  0  0  0  0  0  0  0  0
   -0.8632    1.8533    0.0162 H   0  0  0  0  0  0  0  0  0  0  0  0
    3.2569   -2.1128   -0.0388 H   0  0  0  0  0  0  0  0  0  0  0  0
    2.4576   -3.5906   -0.0351 H   0  0  0  0  0  0  0  0  0  0  0  0
    0.8536   -4.5189   -0.6959 H   0  0  0  0  0  0  0  0  0  0  0  0
    0.3369   -4.5340    1.0034 H   0  0  0  0  0  0  0  0  0  0  0  0
  1  6  2  0  0  0  0
  1  2  1  0  0  0  0
  1 26  1  0  0  0  0
  2  3  2  0  0  0  0
  2 27  1  0  0  0  0
  3  4  1  0  0  0  0
  3 21  1  0  0  0  0
  4  5  2  0  0  0  0
  4 28  1  0  0  0  0
  5  6  1  0  0  0  0
  5 29  1  0  0  0  0
  6  7  1  0  0  0  0
  7  8  1  0  0  0  0
  7 30  1  0  0  0  0
  7 31  1  0  0  0  0
  8  9  1  0  0  0  0
  8 20  1  0  0  0  0
  8 10  1  0  0  0  0
 10 11  1  0  0  0  0
 10 32  1  0  0  0  0
 10 33  1  0  0  0  0
 11 12  1  0  0  0  0
 11 34  1  0  0  0  0
 11 35  1  0  0  0  0
 12 17  2  0  0  0  0
 12 13  1  0  0  0  0
 13 14  2  0  0  0  0
 13 20  1  0  0  0  0
 14 15  1  0  0  0  0
 14 19  1  0  0  0  0
 15 16  2  0  0  0  0
 16 17  1  0  0  0  0
 16 18  1  0  0  0  0
 18 36  1  0  0  0  0
 18 37  1  0  0  0  0
 19 38  1  0  0  0  0
 19 39  1  0  0  0  0
 20 40  1  0  0  0  0
 20 41  1  0  0  0  0
 21 22  1  0  0  0  0
 22 23  1  0  0  0  0
 22 24  1  0  0  0  0
 22 25  1  0  0  0  0
M  END
$$$$
ZINC03814899
  -OEChem-08230709403D

 42 44  0     1  0  0  0  0  0999 V2000
   -0.6498   -7.3828   -2.3512 C   0  0  0  0  0  0  0  0  0  0  0  0
    0.2654   -7.9703   -3.2030 C   0  0  0  0  0  0  0  0  0  0  0  0
    1.5827   -8.1323   -2.7990 C   0  0  0  0  0  0  0  0  0  0  0  0
    1.9787   -7.6983   -1.5422 C   0  0  0  0  0  0  0  0  0  0  0  0
    1.0609   -7.1063   -0.6963 C   0  0  0  0  0  0  0  0  0  0  0  0
   -0.2514   -6.9460   -1.1013 C   0  0  0  0  0  0  0  0  0  0  0  0
   -1.2505   -6.2999   -0.1764 C   0  0  0  0  0  0  0  0  0  0  0  0
   -1.2611   -4.7883   -0.4130 C   0  0  1  0  0  0  0  0  0  0  0  0
   -1.4437   -4.5839   -1.4680 H   0  0  0  0  0  0  0  0  0  0  0  0
   -2.3625   -4.1417    0.4352 C   0  0  0  0  0  0  0  0  0  0  0  0
   -2.5109   -2.6828    0.0060 C   0  0  0  0  0  0  0  0  0  0  0  0
   -1.1720   -1.9961    0.0037 C   0  0  0  0  0  0  0  0  0  0  0  0
    0.0144   -2.6879   -0.0065 C   0  0  0  0  0  0  0  0  0  0  0  0
    1.2122   -1.9620   -0.0171 C   0  0  0  0  0  0  0  0  0  0  0  0
    1.1665   -0.6350   -0.0125 N   0  0  0  0  0  0  0  0  0  0  0  0
    0.0021   -0.0041    0.0020 C   0  0  0  0  0  0  0  0  0  0  0  0
   -0.0167    1.3797    0.0096 N   0  0  0  0  0  0  0  0  0  0  0  0
    2.4307   -2.6210   -0.0318 N   0  0  0  0  0  0  0  0  0  0  0  0
    0.0827   -4.1899    0.0009 C   0  0  0  0  0  0  0  0  0  0  0  0
    2.4838   -8.7146   -3.6332 O   0  0  0  0  0  0  0  0  0  0  0  0
    2.0055   -9.1370   -4.9118 C   0  0  0  0  0  0  0  0  0  0  0  0
    1.5052   -8.0330   -5.6105 F   0  0  0  0  0  0  0  0  0  0  0  0
    3.0559   -9.7105   -5.6364 F   0  0  0  0  0  0  0  0  0  0  0  0
    0.9873  -10.0809   -4.7403 F   0  0  0  0  0  0  0  0  0  0  0  0
   -1.6765   -7.2608   -2.6634 H   0  0  0  0  0  0  0  0  0  0  0  0
   -0.0453   -8.3073   -4.1809 H   0  0  0  0  0  0  0  0  0  0  0  0
    3.0036   -7.8230   -1.2255 H   0  0  0  0  0  0  0  0  0  0  0  0
    1.3687   -6.7680    0.2821 H   0  0  0  0  0  0  0  0  0  0  0  0
   -0.9731   -6.5038    0.8578 H   0  0  0  0  0  0  0  0  0  0  0  0
   -2.2429   -6.7054   -0.3732 H   0  0  0  0  0  0  0  0  0  0  0  0
   -2.0875   -4.1873    1.4890 H   0  0  0  0  0  0  0  0  0  0  0  0
   -3.3037   -4.6679    0.2762 H   0  0  0  0  0  0  0  0  0  0  0  0
   -3.1780   -2.1695    0.6986 H   0  0  0  0  0  0  0  0  0  0  0  0
   -2.9377   -2.6437   -0.9962 H   0  0  0  0  0  0  0  0  0  0  0  0
    0.8167    1.8761    0.0043 H   0  0  0  0  0  0  0  0  0  0  0  0
   -0.8632    1.8533    0.0162 H   0  0  0  0  0  0  0  0  0  0  0  0
    3.2569   -2.1128   -0.0388 H   0  0  0  0  0  0  0  0  0  0  0  0
    2.4576   -3.5906   -0.0351 H   0  0  0  0  0  0  0  0  0  0  0  0
    0.8536   -4.5189   -0.6959 H   0  0  0  0  0  0  0  0  0  0  0  0
    0.3369   -4.5340    1.0034 H   0  0  0  0  0  0  0  0  0  0  0  0
   -1.2094   -0.6266    0.0163 N   0  3  0  0  0  0  0  0  0  0  0  0
   -2.0886   -0.1506    0.0348 H   0  0  0  0  0  0  0  0  0  0  0  0
  1  6  2  0  0  0  0
  1  2  1  0  0  0  0
  1 25  1  0  0  0  0
  2  3  2  0  0  0  0
  2 26  1  0  0  0  0
  3  4  1  0  0  0  0
  3 20  1  0  0  0  0
  4  5  2  0  0  0  0
  4 27  1  0  0  0  0
  5  6  1  0  0  0  0
  5 28  1  0  0  0  0
  6  7  1  0  0  0  0
  7  8  1  0  0  0  0
  7 29  1  0  0  0  0
  7 30  1  0  0  0  0
  8  9  1  0  0  0  0
  8 19  1  0  0  0  0
  8 10  1  0  0  0  0
 10 11  1  0  0  0  0
 10 31  1  0  0  0  0
 10 32  1  0  0  0  0
 11 12  1  0  0  0  0
 11 33  1  0  0  0  0
 11 34  1  0  0  0  0
 12 13  2  0  0  0  0
 12 41  1  0  0  0  0
 13 14  1  0  0  0  0
 13 19  1  0  0  0  0
 14 15  2  0  0  0  0
 14 18  1  0  0  0  0
 15 16  1  0  0  0  0
 16 17  1  0  0  0  0
 16 41  2  0  0  0  0
 17 35  1  0  0  0  0
 17 36  1  0  0  0  0
 18 37  1  0  0  0  0
 18 38  1  0  0  0  0
 19 39  1  0  0  0  0
 19 40  1  0  0  0  0
 20 21  1  0  0  0  0
 21 22  1  0  0  0  0
 21 23  1  0  0  0  0
 21 24  1  0  0  0  0
 41 42  1  0  0  0  0
M  CHG  1  41   1
M  END
$$$$
ZINC03814902
  -OEChem-08230709403D

 36 37  0     1  0  0  0  0  0999 V2000
   -0.0127    1.0858    0.0080 C   0  0  0  0  0  0  0  0  0  0  0  0
   -0.7288    1.5792    1.2668 C   0  0  0  0  0  0  0  0  0  0  0  0
    0.0111    1.0724    2.5063 C   0  0  0  0  0  0  0  0  0  0  0  0
   -0.7496    3.1091    1.2752 C   0  0  0  0  0  0  0  0  0  0  0  0
   -2.1642    1.0497    1.2777 C   0  0  1  0  0  0  0  0  0  0  0  0
   -2.6963    1.4152    0.3994 H   0  0  0  0  0  0  0  0  0  0  0  0
   -2.1480   -0.4834    1.2693 C   0  0  0  0  0  0  0  0  0  0  0  0
   -3.5747   -0.9821    1.0447 C   0  0  0  0  0  0  0  0  0  0  0  0
   -4.5213   -0.3227    2.0108 C   0  0  0  0  0  0  0  0  0  0  0  0
   -4.2018    0.8260    2.6925 C   0  0  0  0  0  0  0  0  0  0  0  0
   -5.1509    1.3719    3.5659 C   0  0  0  0  0  0  0  0  0  0  0  0
   -6.3227    0.7649    3.7121 N   0  0  0  0  0  0  0  0  0  0  0  0
   -6.5918   -0.3443    3.0401 C   0  0  0  0  0  0  0  0  0  0  0  0
   -5.7141   -0.8791    2.2072 N   0  0  0  0  0  0  0  0  0  0  0  0
   -7.8202   -0.9579    3.2130 N   0  0  0  0  0  0  0  0  0  0  0  0
   -4.8700    2.5317    4.2696 N   0  0  0  0  0  0  0  0  0  0  0  0
   -2.8752    1.5187    2.5465 C   0  0  0  0  0  0  0  0  0  0  0  0
    0.0021   -0.0041    0.0020 H   0  0  0  0  0  0  0  0  0  0  0  0
    1.0099    1.4631    0.0003 H   0  0  0  0  0  0  0  0  0  0  0  0
   -0.5399    1.4469   -0.8751 H   0  0  0  0  0  0  0  0  0  0  0  0
    1.0337    1.4497    2.4986 H   0  0  0  0  0  0  0  0  0  0  0  0
   -0.4990    1.4239    3.4031 H   0  0  0  0  0  0  0  0  0  0  0  0
    0.0259   -0.0175    2.5003 H   0  0  0  0  0  0  0  0  0  0  0  0
   -1.2768    3.4701    0.3922 H   0  0  0  0  0  0  0  0  0  0  0  0
   -1.2598    3.4606    2.1720 H   0  0  0  0  0  0  0  0  0  0  0  0
    0.2730    3.4864    1.2675 H   0  0  0  0  0  0  0  0  0  0  0  0
   -1.5049   -0.8385    0.4640 H   0  0  0  0  0  0  0  0  0  0  0  0
   -1.7746   -0.8510    2.2251 H   0  0  0  0  0  0  0  0  0  0  0  0
   -3.8812   -0.7498    0.0248 H   0  0  0  0  0  0  0  0  0  0  0  0
   -3.6060   -2.0619    1.1899 H   0  0  0  0  0  0  0  0  0  0  0  0
   -8.4722   -0.5752    3.8207 H   0  0  0  0  0  0  0  0  0  0  0  0
   -8.0290   -1.7707    2.7265 H   0  0  0  0  0  0  0  0  0  0  0  0
   -4.0120    2.9704    4.1589 H   0  0  0  0  0  0  0  0  0  0  0  0
   -5.5314    2.9050    4.8731 H   0  0  0  0  0  0  0  0  0  0  0  0
   -2.2534    1.2922    3.4127 H   0  0  0  0  0  0  0  0  0  0  0  0
   -3.0349    2.5956    2.4930 H   0  0  0  0  0  0  0  0  0  0  0  0
  1  2  1  0  0  0  0
  1 18  1  0  0  0  0
  1 19  1  0  0  0  0
  1 20  1  0  0  0  0
  2  3  1  0  0  0  0
  2  4  1  0  0  0  0
  2  5  1  0  0  0  0
  3 21  1  0  0  0  0
  3 22  1  0  0  0  0
  3 23  1  0  0  0  0
  4 24  1  0  0  0  0
  4 25  1  0  0  0  0
  4 26  1  0  0  0  0
  5  6  1  0  0  0  0
  5 17  1  0  0  0  0
  5  7  1  0  0  0  0
  7  8  1  0  0  0  0
  7 27  1  0  0  0  0
  7 28  1  0  0  0  0
  8  9  1  0  0  0  0
  8 29  1  0  0  0  0
  8 30  1  0  0  0  0
  9 14  2  0  0  0  0
  9 10  1  0  0  0  0
 10 11  2  0  0  0  0
 10 17  1  0  0  0  0
 11 12  1  0  0  0  0
 11 16  1  0  0  0  0
 12 13  2  0  0  0  0
 13 14  1  0  0  0  0
 13 15  1  0  0  0  0
 15 31  1  0  0  0  0
 15 32  1  0  0  0  0
 16 33  1  0  0  0  0
 16 34  1  0  0  0  0
 17 35  1  0  0  0  0
 17 36  1  0  0  0  0
M  END
$$$$
ZINC03814902
  -OEChem-08230709403D

 37 38  0     1  0  0  0  0  0999 V2000
   -0.0127    1.0858    0.0080 C   0  0  0  0  0  0  0  0  0  0  0  0
   -0.7288    1.5792    1.2668 C   0  0  0  0  0  0  0  0  0  0  0  0
    0.0111    1.0724    2.5063 C   0  0  0  0  0  0  0  0  0  0  0  0
   -0.7496    3.1091    1.2752 C   0  0  0  0  0  0  0  0  0  0  0  0
   -2.1642    1.0497    1.2777 C   0  0  1  0  0  0  0  0  0  0  0  0
   -2.6963    1.4152    0.3994 H   0  0  0  0  0  0  0  0  0  0  0  0
   -2.1480   -0.4834    1.2693 C   0  0  0  0  0  0  0  0  0  0  0  0
   -3.5747   -0.9821    1.0447 C   0  0  0  0  0  0  0  0  0  0  0  0
   -4.5213   -0.3227    2.0108 C   0  0  0  0  0  0  0  0  0  0  0  0
   -4.2018    0.8260    2.6925 C   0  0  0  0  0  0  0  0  0  0  0  0
   -5.1509    1.3719    3.5659 C   0  0  0  0  0  0  0  0  0  0  0  0
   -6.3227    0.7649    3.7121 N   0  0  0  0  0  0  0  0  0  0  0  0
   -6.5918   -0.3443    3.0401 C   0  0  0  0  0  0  0  0  0  0  0  0
   -7.8202   -0.9579    3.2130 N   0  0  0  0  0  0  0  0  0  0  0  0
   -4.8700    2.5317    4.2696 N   0  0  0  0  0  0  0  0  0  0  0  0
   -2.8752    1.5187    2.5465 C   0  0  0  0  0  0  0  0  0  0  0  0
    0.0021   -0.0041    0.0020 H   0  0  0  0  0  0  0  0  0  0  0  0
    1.0099    1.4631    0.0003 H   0  0  0  0  0  0  0  0  0  0  0  0
   -0.5399    1.4469   -0.8751 H   0  0  0  0  0  0  0  0  0  0  0  0
    1.0337    1.4497    2.4986 H   0  0  0  0  0  0  0  0  0  0  0  0
   -0.4990    1.4239    3.4031 H   0  0  0  0  0  0  0  0  0  0  0  0
    0.0259   -0.0175    2.5003 H   0  0  0  0  0  0  0  0  0  0  0  0
   -1.2768    3.4701    0.3922 H   0  0  0  0  0  0  0  0  0  0  0  0
   -1.2598    3.4606    2.1720 H   0  0  0  0  0  0  0  0  0  0  0  0
    0.2730    3.4864    1.2675 H   0  0  0  0  0  0  0  0  0  0  0  0
   -1.5049   -0.8385    0.4640 H   0  0  0  0  0  0  0  0  0  0  0  0
   -1.7746   -0.8510    2.2251 H   0  0  0  0  0  0  0  0  0  0  0  0
   -3.8812   -0.7498    0.0248 H   0  0  0  0  0  0  0  0  0  0  0  0
   -3.6060   -2.0619    1.1899 H   0  0  0  0  0  0  0  0  0  0  0  0
   -8.4722   -0.5752    3.8207 H   0  0  0  0  0  0  0  0  0  0  0  0
   -8.0290   -1.7707    2.7265 H   0  0  0  0  0  0  0  0  0  0  0  0
   -4.0120    2.9704    4.1589 H   0  0  0  0  0  0  0  0  0  0  0  0
   -5.5314    2.9050    4.8731 H   0  0  0  0  0  0  0  0  0  0  0  0
   -2.2534    1.2922    3.4127 H   0  0  0  0  0  0  0  0  0  0  0  0
   -3.0349    2.5956    2.4930 H   0  0  0  0  0  0  0  0  0  0  0  0
   -5.7324   -0.9434    2.1696 N   0  3  0  0  0  0  0  0  0  0  0  0
   -5.9356   -1.7806    1.6618 H   0  0  0  0  0  0  0  0  0  0  0  0
  1  2  1  0  0  0  0
  1 17  1  0  0  0  0
  1 18  1  0  0  0  0
  1 19  1  0  0  0  0
  2  3  1  0  0  0  0
  2  4  1  0  0  0  0
  2  5  1  0  0  0  0
  3 20  1  0  0  0  0
  3 21  1  0  0  0  0
  3 22  1  0  0  0  0
  4 23  1  0  0  0  0
  4 24  1  0  0  0  0
  4 25  1  0  0  0  0
  5  6  1  0  0  0  0
  5 16  1  0  0  0  0
  5  7  1  0  0  0  0
  7  8  1  0  0  0  0
  7 26  1  0  0  0  0
  7 27  1  0  0  0  0
  8  9  1  0  0  0  0
  8 28  1  0  0  0  0
  8 29  1  0  0  0  0
  9 10  2  0  0  0  0
  9 36  1  0  0  0  0
 10 11  1  0  0  0  0
 10 16  1  0  0  0  0
 11 12  2  0  0  0  0
 11 15  1  0  0  0  0
 12 13  1  0  0  0  0
 13 14  1  0  0  0  0
 13 36  2  0  0  0  0
 14 30  1  0  0  0  0
 14 31  1  0  0  0  0
 15 32  1  0  0  0  0
 15 33  1  0  0  0  0
 16 34  1  0  0  0  0
 16 35  1  0  0  0  0
 36 37  1  0  0  0  0
M  CHG  1  36   1
M  END
$$$$
ZINC03814903
  -OEChem-08230709403D

 38 40  0     0  0  0  0  0  0999 V2000
   -5.9563   -2.0712    0.0490 C   0  0  0  0  0  0  0  0  0  0  0  0
   -4.7474   -2.8331    0.0329 O   0  0  0  0  0  0  0  0  0  0  0  0
   -3.5790   -2.1371    0.0251 C   0  0  0  0  0  0  0  0  0  0  0  0
   -2.3688   -2.8146    0.0095 C   0  0  0  0  0  0  0  0  0  0  0  0
   -1.1818   -2.1086    0.0020 C   0  0  0  0  0  0  0  0  0  0  0  0
   -1.2002   -0.7202    0.0097 C   0  0  0  0  0  0  0  0  0  0  0  0
   -2.4121   -0.0428    0.0306 C   0  0  0  0  0  0  0  0  0  0  0  0
   -3.5983   -0.7503    0.0323 C   0  0  0  0  0  0  0  0  0  0  0  0
    0.0021   -0.0041    0.0020 N   0  0  0  0  0  0  0  0  0  0  0  0
   -0.0178    1.4608    0.0101 C   0  0  0  0  0  0  0  0  0  0  0  0
    1.3960    1.9824   -0.0006 C   0  0  0  0  0  0  0  0  0  0  0  0
    1.9869    2.3181   -1.2168 C   0  0  0  0  0  0  0  0  0  0  0  0
    3.2669    2.7970   -1.2456 C   0  0  0  0  0  0  0  0  0  0  0  0
    3.9521    2.9251   -0.0254 C   0  0  0  0  0  0  0  0  0  0  0  0
    3.2904    2.5596    1.1711 C   0  0  0  0  0  0  0  0  0  0  0  0
    2.0418    2.1040    1.1356 N   0  0  0  0  0  0  0  0  0  0  0  0
    4.0294    2.7039    2.4264 C   0  0  0  0  0  0  0  0  0  0  0  0
    5.2696    3.1671    2.3623 N   0  0  0  0  0  0  0  0  0  0  0  0
    5.8286    3.4912    1.2006 C   0  0  0  0  0  0  0  0  0  0  0  0
    5.2089    3.3814    0.0427 N   0  0  0  0  0  0  0  0  0  0  0  0
    7.1268    3.9686    1.2075 N   0  0  0  0  0  0  0  0  0  0  0  0
    3.4550    2.3690    3.6342 N   0  0  0  0  0  0  0  0  0  0  0  0
   -6.8116   -2.7469    0.0538 H   0  0  0  0  0  0  0  0  0  0  0  0
   -5.9808   -1.4476    0.9426 H   0  0  0  0  0  0  0  0  0  0  0  0
   -5.9985   -1.4380   -0.8372 H   0  0  0  0  0  0  0  0  0  0  0  0
   -2.3547   -3.8945    0.0036 H   0  0  0  0  0  0  0  0  0  0  0  0
   -0.2396   -2.6363   -0.0101 H   0  0  0  0  0  0  0  0  0  0  0  0
   -2.4273    1.0371    0.0414 H   0  0  0  0  0  0  0  0  0  0  0  0
   -4.5410   -0.2235    0.0441 H   0  0  0  0  0  0  0  0  0  0  0  0
    0.8486   -0.4776   -0.0086 H   0  0  0  0  0  0  0  0  0  0  0  0
   -0.5450    1.8219   -0.8730 H   0  0  0  0  0  0  0  0  0  0  0  0
   -0.5280    1.8123    0.9069 H   0  0  0  0  0  0  0  0  0  0  0  0
    1.4323    2.2035   -2.1365 H   0  0  0  0  0  0  0  0  0  0  0  0
    3.7391    3.0654   -2.1791 H   0  0  0  0  0  0  0  0  0  0  0  0
    7.6057    4.0595    2.0461 H   0  0  0  0  0  0  0  0  0  0  0  0
    7.5584    4.2124    0.3737 H   0  0  0  0  0  0  0  0  0  0  0  0
    2.5462    2.0311    3.6620 H   0  0  0  0  0  0  0  0  0  0  0  0
    3.9598    2.4711    4.4562 H   0  0  0  0  0  0  0  0  0  0  0  0
  1  2  1  0  0  0  0
  1 23  1  0  0  0  0
  1 24  1  0  0  0  0
  1 25  1  0  0  0  0
  2  3  1  0  0  0  0
  3  8  2  0  0  0  0
  3  4  1  0  0  0  0
  4  5  2  0  0  0  0
  4 26  1  0  0  0  0
  5  6  1  0  0  0  0
  5 27  1  0  0  0  0
  6  7  2  0  0  0  0
  6  9  1  0  0  0  0
  7  8  1  0  0  0  0
  7 28  1  0  0  0  0
  8 29  1  0  0  0  0
  9 10  1  0  0  0  0
  9 30  1  0  0  0  0
 10 11  1  0  0  0  0
 10 31  1  0  0  0  0
 10 32  1  0  0  0  0
 11 16  2  0  0  0  0
 11 12  1  0  0  0  0
 12 13  2  0  0  0  0
 12 33  1  0  0  0  0
 13 14  1  0  0  0  0
 13 34  1  0  0  0  0
 14 20  2  0  0  0  0
 14 15  1  0  0  0  0
 15 16  1  0  0  0  0
 15 17  2  0  0  0  0
 17 18  1  0  0  0  0
 17 22  1  0  0  0  0
 18 19  2  0  0  0  0
 19 20  1  0  0  0  0
 19 21  1  0  0  0  0
 21 35  1  0  0  0  0
 21 36  1  0  0  0  0
 22 37  1  0  0  0  0
 22 38  1  0  0  0  0
M  END
$$$$
ZINC03814903
  -OEChem-08230709403D

 39 41  0     0  0  0  0  0  0999 V2000
   -5.9563   -2.0712    0.0490 C   0  0  0  0  0  0  0  0  0  0  0  0
   -4.7474   -2.8331    0.0329 O   0  0  0  0  0  0  0  0  0  0  0  0
   -3.5790   -2.1371    0.0251 C   0  0  0  0  0  0  0  0  0  0  0  0
   -2.3688   -2.8146    0.0095 C   0  0  0  0  0  0  0  0  0  0  0  0
   -1.1818   -2.1086    0.0020 C   0  0  0  0  0  0  0  0  0  0  0  0
   -1.2002   -0.7202    0.0097 C   0  0  0  0  0  0  0  0  0  0  0  0
   -2.4121   -0.0428    0.0306 C   0  0  0  0  0  0  0  0  0  0  0  0
   -3.5983   -0.7503    0.0323 C   0  0  0  0  0  0  0  0  0  0  0  0
    0.0021   -0.0041    0.0020 N   0  0  0  0  0  0  0  0  0  0  0  0
   -0.0178    1.4608    0.0101 C   0  0  0  0  0  0  0  0  0  0  0  0
    1.3960    1.9824   -0.0006 C   0  0  0  0  0  0  0  0  0  0  0  0
    1.9869    2.3181   -1.2168 C   0  0  0  0  0  0  0  0  0  0  0  0
    3.2669    2.7970   -1.2456 C   0  0  0  0  0  0  0  0  0  0  0  0
    3.9521    2.9251   -0.0254 C   0  0  0  0  0  0  0  0  0  0  0  0
    3.2904    2.5596    1.1711 C   0  0  0  0  0  0  0  0  0  0  0  0
    2.0418    2.1040    1.1356 N   0  0  0  0  0  0  0  0  0  0  0  0
    4.0294    2.7039    2.4264 C   0  0  0  0  0  0  0  0  0  0  0  0
    5.2696    3.1671    2.3623 N   0  0  0  0  0  0  0  0  0  0  0  0
    5.8286    3.4912    1.2006 C   0  0  0  0  0  0  0  0  0  0  0  0
    7.1268    3.9686    1.2075 N   0  0  0  0  0  0  0  0  0  0  0  0
    3.4550    2.3690    3.6342 N   0  0  0  0  0  0  0  0  0  0  0  0
   -6.8116   -2.7469    0.0538 H   0  0  0  0  0  0  0  0  0  0  0  0
   -5.9808   -1.4476    0.9426 H   0  0  0  0  0  0  0  0  0  0  0  0
   -5.9985   -1.4380   -0.8372 H   0  0  0  0  0  0  0  0  0  0  0  0
   -2.3547   -3.8945    0.0036 H   0  0  0  0  0  0  0  0  0  0  0  0
   -0.2396   -2.6363   -0.0101 H   0  0  0  0  0  0  0  0  0  0  0  0
   -2.4273    1.0371    0.0414 H   0  0  0  0  0  0  0  0  0  0  0  0
   -4.5410   -0.2235    0.0441 H   0  0  0  0  0  0  0  0  0  0  0  0
    0.8486   -0.4776   -0.0086 H   0  0  0  0  0  0  0  0  0  0  0  0
   -0.5450    1.8219   -0.8730 H   0  0  0  0  0  0  0  0  0  0  0  0
   -0.5280    1.8123    0.9069 H   0  0  0  0  0  0  0  0  0  0  0  0
    1.4323    2.2035   -2.1365 H   0  0  0  0  0  0  0  0  0  0  0  0
    3.7391    3.0654   -2.1791 H   0  0  0  0  0  0  0  0  0  0  0  0
    7.6057    4.0595    2.0461 H   0  0  0  0  0  0  0  0  0  0  0  0
    7.5584    4.2124    0.3737 H   0  0  0  0  0  0  0  0  0  0  0  0
    2.5462    2.0311    3.6620 H   0  0  0  0  0  0  0  0  0  0  0  0
    3.9598    2.4711    4.4562 H   0  0  0  0  0  0  0  0  0  0  0  0
    5.2448    3.4011   -0.0201 N   0  3  0  0  0  0  0  0  0  0  0  0
    5.6885    3.6527   -0.8802 H   0  0  0  0  0  0  0  0  0  0  0  0
  1  2  1  0  0  0  0
  1 22  1  0  0  0  0
  1 23  1  0  0  0  0
  1 24  1  0  0  0  0
  2  3  1  0  0  0  0
  3  8  2  0  0  0  0
  3  4  1  0  0  0  0
  4  5  2  0  0  0  0
  4 25  1  0  0  0  0
  5  6  1  0  0  0  0
  5 26  1  0  0  0  0
  6  7  2  0  0  0  0
  6  9  1  0  0  0  0
  7  8  1  0  0  0  0
  7 27  1  0  0  0  0
  8 28  1  0  0  0  0
  9 10  1  0  0  0  0
  9 29  1  0  0  0  0
 10 11  1  0  0  0  0
 10 30  1  0  0  0  0
 10 31  1  0  0  0  0
 11 16  2  0  0  0  0
 11 12  1  0  0  0  0
 12 13  2  0  0  0  0
 12 32  1  0  0  0  0
 13 14  1  0  0  0  0
 13 33  1  0  0  0  0
 14 15  2  0  0  0  0
 14 38  1  0  0  0  0
 15 16  1  0  0  0  0
 15 17  1  0  0  0  0
 17 18  2  0  0  0  0
 17 21  1  0  0  0  0
 18 19  1  0  0  0  0
 19 20  1  0  0  0  0
 19 38  2  0  0  0  0
 20 34  1  0  0  0  0
 20 35  1  0  0  0  0
 21 36  1  0  0  0  0
 21 37  1  0  0  0  0
 38 39  1  0  0  0  0
M  CHG  1  38   1
M  END
$$$$
ZINC03814904
  -OEChem-08230709403D

 41 43  0     1  0  0  0  0  0999 V2000
   -0.0001   -0.7297   -1.2707 C   0  0  0  0  0  0  0  0  0  0  0  0
    0.0021   -0.0041    0.0020 N   0  0  3  0  0  0  0  0  0  0  0  0
   -0.0178    1.4608    0.0101 C   0  0  0  0  0  0  0  0  0  0  0  0
    1.3960    1.9824   -0.0006 C   0  0  0  0  0  0  0  0  0  0  0  0
    1.9869    2.3181   -1.2168 C   0  0  0  0  0  0  0  0  0  0  0  0
    3.2669    2.7970   -1.2456 C   0  0  0  0  0  0  0  0  0  0  0  0
    3.9521    2.9251   -0.0254 C   0  0  0  0  0  0  0  0  0  0  0  0
    3.2904    2.5596    1.1711 C   0  0  0  0  0  0  0  0  0  0  0  0
    2.0418    2.1040    1.1356 N   0  0  0  0  0  0  0  0  0  0  0  0
    4.0294    2.7039    2.4264 C   0  0  0  0  0  0  0  0  0  0  0  0
    5.2696    3.1671    2.3623 N   0  0  0  0  0  0  0  0  0  0  0  0
    5.8286    3.4912    1.2006 C   0  0  0  0  0  0  0  0  0  0  0  0
    5.2089    3.3814    0.0427 N   0  0  0  0  0  0  0  0  0  0  0  0
    7.1268    3.9686    1.2075 N   0  0  0  0  0  0  0  0  0  0  0  0
    3.4550    2.3690    3.6342 N   0  0  0  0  0  0  0  0  0  0  0  0
    0.0231   -0.7102    1.2100 C   0  0  0  0  0  0  0  0  0  0  0  0
    0.0309   -0.0227    2.4165 C   0  0  0  0  0  0  0  0  0  0  0  0
    0.0459   -0.7205    3.6083 C   0  0  0  0  0  0  0  0  0  0  0  0
    0.0652   -2.1074    3.6002 C   0  0  0  0  0  0  0  0  0  0  0  0
    0.0627   -2.7947    2.3955 C   0  0  0  0  0  0  0  0  0  0  0  0
    0.0420   -2.0987    1.2028 C   0  0  0  0  0  0  0  0  0  0  0  0
    0.0860   -2.7936    4.7742 O   0  0  0  0  0  0  0  0  0  0  0  0
    0.0873   -2.0218    5.9768 C   0  0  0  0  0  0  0  0  0  0  0  0
    1.0269   -0.8956   -1.5960 H   0  0  0  0  0  0  0  0  0  0  0  0
   -0.4997   -1.6897   -1.1407 H   0  0  0  0  0  0  0  0  0  0  0  0
   -0.5291   -0.1436   -2.0222 H   0  0  0  0  0  0  0  0  0  0  0  0
   -0.5450    1.8219   -0.8730 H   0  0  0  0  0  0  0  0  0  0  0  0
   -0.5280    1.8123    0.9069 H   0  0  0  0  0  0  0  0  0  0  0  0
    1.4323    2.2035   -2.1365 H   0  0  0  0  0  0  0  0  0  0  0  0
    3.7391    3.0654   -2.1791 H   0  0  0  0  0  0  0  0  0  0  0  0
    7.6057    4.0595    2.0461 H   0  0  0  0  0  0  0  0  0  0  0  0
    7.5584    4.2124    0.3737 H   0  0  0  0  0  0  0  0  0  0  0  0
    2.5462    2.0311    3.6620 H   0  0  0  0  0  0  0  0  0  0  0  0
    3.9598    2.4711    4.4562 H   0  0  0  0  0  0  0  0  0  0  0  0
    0.0212    1.0572    2.4229 H   0  0  0  0  0  0  0  0  0  0  0  0
    0.0475   -0.1861    4.5468 H   0  0  0  0  0  0  0  0  0  0  0  0
    0.0774   -3.8746    2.3901 H   0  0  0  0  0  0  0  0  0  0  0  0
    0.0400   -2.6340    0.2649 H   0  0  0  0  0  0  0  0  0  0  0  0
    0.1049   -2.6904    6.8375 H   0  0  0  0  0  0  0  0  0  0  0  0
    0.9689   -1.3811    5.9964 H   0  0  0  0  0  0  0  0  0  0  0  0
   -0.8108   -1.4053    6.0139 H   0  0  0  0  0  0  0  0  0  0  0  0
  1  2  1  0  0  0  0
  1 24  1  0  0  0  0
  1 25  1  0  0  0  0
  1 26  1  0  0  0  0
  2  3  1  0  0  0  0
  2 16  1  0  0  0  0
  3  4  1  0  0  0  0
  3 27  1  0  0  0  0
  3 28  1  0  0  0  0
  4  9  2  0  0  0  0
  4  5  1  0  0  0  0
  5  6  2  0  0  0  0
  5 29  1  0  0  0  0
  6  7  1  0  0  0  0
  6 30  1  0  0  0  0
  7 13  2  0  0  0  0
  7  8  1  0  0  0  0
  8  9  1  0  0  0  0
  8 10  2  0  0  0  0
 10 11  1  0  0  0  0
 10 15  1  0  0  0  0
 11 12  2  0  0  0  0
 12 13  1  0  0  0  0
 12 14  1  0  0  0  0
 14 31  1  0  0  0  0
 14 32  1  0  0  0  0
 15 33  1  0  0  0  0
 15 34  1  0  0  0  0
 16 21  2  0  0  0  0
 16 17  1  0  0  0  0
 17 18  2  0  0  0  0
 17 35  1  0  0  0  0
 18 19  1  0  0  0  0
 18 36  1  0  0  0  0
 19 20  2  0  0  0  0
 19 22  1  0  0  0  0
 20 21  1  0  0  0  0
 20 37  1  0  0  0  0
 21 38  1  0  0  0  0
 22 23  1  0  0  0  0
 23 39  1  0  0  0  0
 23 40  1  0  0  0  0
 23 41  1  0  0  0  0
M  END
$$$$
ZINC03814904
  -OEChem-08230709403D

 42 44  0     1  0  0  0  0  0999 V2000
   -0.0001   -0.7297   -1.2707 C   0  0  0  0  0  0  0  0  0  0  0  0
    0.0021   -0.0041    0.0020 N   0  0  3  0  0  0  0  0  0  0  0  0
   -0.0178    1.4608    0.0101 C   0  0  0  0  0  0  0  0  0  0  0  0
    1.3960    1.9824   -0.0006 C   0  0  0  0  0  0  0  0  0  0  0  0
    1.9869    2.3181   -1.2168 C   0  0  0  0  0  0  0  0  0  0  0  0
    3.2669    2.7970   -1.2456 C   0  0  0  0  0  0  0  0  0  0  0  0
    3.9521    2.9251   -0.0254 C   0  0  0  0  0  0  0  0  0  0  0  0
    3.2904    2.5596    1.1711 C   0  0  0  0  0  0  0  0  0  0  0  0
    2.0418    2.1040    1.1356 N   0  0  0  0  0  0  0  0  0  0  0  0
    4.0294    2.7039    2.4264 C   0  0  0  0  0  0  0  0  0  0  0  0
    5.2696    3.1671    2.3623 N   0  0  0  0  0  0  0  0  0  0  0  0
    5.8286    3.4912    1.2006 C   0  0  0  0  0  0  0  0  0  0  0  0
    7.1268    3.9686    1.2075 N   0  0  0  0  0  0  0  0  0  0  0  0
    3.4550    2.3690    3.6342 N   0  0  0  0  0  0  0  0  0  0  0  0
    0.0231   -0.7102    1.2100 C   0  0  0  0  0  0  0  0  0  0  0  0
    0.0309   -0.0227    2.4165 C   0  0  0  0  0  0  0  0  0  0  0  0
    0.0459   -0.7205    3.6083 C   0  0  0  0  0  0  0  0  0  0  0  0
    0.0652   -2.1074    3.6002 C   0  0  0  0  0  0  0  0  0  0  0  0
    0.0627   -2.7947    2.3955 C   0  0  0  0  0  0  0  0  0  0  0  0
    0.0420   -2.0987    1.2028 C   0  0  0  0  0  0  0  0  0  0  0  0
    0.0860   -2.7936    4.7742 O   0  0  0  0  0  0  0  0  0  0  0  0
    0.0873   -2.0218    5.9768 C   0  0  0  0  0  0  0  0  0  0  0  0
    1.0269   -0.8956   -1.5960 H   0  0  0  0  0  0  0  0  0  0  0  0
   -0.4997   -1.6897   -1.1407 H   0  0  0  0  0  0  0  0  0  0  0  0
   -0.5291   -0.1436   -2.0222 H   0  0  0  0  0  0  0  0  0  0  0  0
   -0.5450    1.8219   -0.8730 H   0  0  0  0  0  0  0  0  0  0  0  0
   -0.5280    1.8123    0.9069 H   0  0  0  0  0  0  0  0  0  0  0  0
    1.4323    2.2035   -2.1365 H   0  0  0  0  0  0  0  0  0  0  0  0
    3.7391    3.0654   -2.1791 H   0  0  0  0  0  0  0  0  0  0  0  0
    7.6057    4.0595    2.0461 H   0  0  0  0  0  0  0  0  0  0  0  0
    7.5584    4.2124    0.3737 H   0  0  0  0  0  0  0  0  0  0  0  0
    2.5462    2.0311    3.6620 H   0  0  0  0  0  0  0  0  0  0  0  0
    3.9598    2.4711    4.4562 H   0  0  0  0  0  0  0  0  0  0  0  0
    0.0212    1.0572    2.4229 H   0  0  0  0  0  0  0  0  0  0  0  0
    0.0475   -0.1861    4.5468 H   0  0  0  0  0  0  0  0  0  0  0  0
    0.0774   -3.8746    2.3901 H   0  0  0  0  0  0  0  0  0  0  0  0
    0.0400   -2.6340    0.2649 H   0  0  0  0  0  0  0  0  0  0  0  0
    0.1049   -2.6904    6.8375 H   0  0  0  0  0  0  0  0  0  0  0  0
    0.9689   -1.3811    5.9964 H   0  0  0  0  0  0  0  0  0  0  0  0
   -0.8108   -1.4053    6.0139 H   0  0  0  0  0  0  0  0  0  0  0  0
    5.2448    3.4011   -0.0201 N   0  3  0  0  0  0  0  0  0  0  0  0
    5.6885    3.6527   -0.8802 H   0  0  0  0  0  0  0  0  0  0  0  0
  1  2  1  0  0  0  0
  1 23  1  0  0  0  0
  1 24  1  0  0  0  0
  1 25  1  0  0  0  0
  2  3  1  0  0  0  0
  2 15  1  0  0  0  0
  3  4  1  0  0  0  0
  3 26  1  0  0  0  0
  3 27  1  0  0  0  0
  4  9  2  0  0  0  0
  4  5  1  0  0  0  0
  5  6  2  0  0  0  0
  5 28  1  0  0  0  0
  6  7  1  0  0  0  0
  6 29  1  0  0  0  0
  7  8  2  0  0  0  0
  7 41  1  0  0  0  0
  8  9  1  0  0  0  0
  8 10  1  0  0  0  0
 10 11  2  0  0  0  0
 10 14  1  0  0  0  0
 11 12  1  0  0  0  0
 12 13  1  0  0  0  0
 12 41  2  0  0  0  0
 13 30  1  0  0  0  0
 13 31  1  0  0  0  0
 14 32  1  0  0  0  0
 14 33  1  0  0  0  0
 15 20  2  0  0  0  0
 15 16  1  0  0  0  0
 16 17  2  0  0  0  0
 16 34  1  0  0  0  0
 17 18  1  0  0  0  0
 17 35  1  0  0  0  0
 18 19  2  0  0  0  0
 18 21  1  0  0  0  0
 19 20  1  0  0  0  0
 19 36  1  0  0  0  0
 20 37  1  0  0  0  0
 21 22  1  0  0  0  0
 22 38  1  0  0  0  0
 22 39  1  0  0  0  0
 22 40  1  0  0  0  0
 41 42  1  0  0  0  0
M  CHG  1  41   1
M  END
$$$$
ZINC03814905
  -OEChem-08230709403D

 34 36  0     0  0  0  0  0  0999 V2000
    2.3998    0.0326   -0.0207 C   0  0  0  0  0  0  0  0  0  0  0  0
    2.3781    1.4153   -0.0130 C   0  0  0  0  0  0  0  0  0  0  0  0
    1.1718    2.0910    0.0021 C   0  0  0  0  0  0  0  0  0  0  0  0
   -0.0168    1.3857    0.0097 C   0  0  0  0  0  0  0  0  0  0  0  0
    0.0021   -0.0041    0.0020 C   0  0  0  0  0  0  0  0  0  0  0  0
    1.2159   -0.6787   -0.0132 C   0  0  0  0  0  0  0  0  0  0  0  0
   -1.1976   -0.7208    0.0092 N   0  0  0  0  0  0  0  0  0  0  0  0
   -1.1757   -2.1857    0.0011 C   0  0  0  0  0  0  0  0  0  0  0  0
   -2.5888   -2.7092    0.0112 C   0  0  0  0  0  0  0  0  0  0  0  0
   -3.2020   -3.0326   -1.1973 C   0  0  0  0  0  0  0  0  0  0  0  0
   -4.4817   -3.5131   -1.2073 C   0  0  0  0  0  0  0  0  0  0  0  0
   -5.1438   -3.6553    0.0241 C   0  0  0  0  0  0  0  0  0  0  0  0
   -4.4602   -3.3017    1.2119 C   0  0  0  0  0  0  0  0  0  0  0  0
   -3.2131   -2.8440    1.1579 N   0  0  0  0  0  0  0  0  0  0  0  0
   -5.1754   -3.4605    2.4791 C   0  0  0  0  0  0  0  0  0  0  0  0
   -6.4160   -3.9248    2.4333 N   0  0  0  0  0  0  0  0  0  0  0  0
   -6.9962   -4.2372    1.2788 C   0  0  0  0  0  0  0  0  0  0  0  0
   -6.3985   -4.1141    0.1108 N   0  0  0  0  0  0  0  0  0  0  0  0
   -8.2936   -4.7165    1.3049 N   0  0  0  0  0  0  0  0  0  0  0  0
   -4.5790   -3.1377    3.6796 N   0  0  0  0  0  0  0  0  0  0  0  0
   -1.5311    2.2344    0.0215 Cl  0  0  0  0  0  0  0  0  0  0  0  0
    3.3439   -0.4919   -0.0329 H   0  0  0  0  0  0  0  0  0  0  0  0
    3.3055    1.9687   -0.0193 H   0  0  0  0  0  0  0  0  0  0  0  0
    1.1584    3.1709    0.0080 H   0  0  0  0  0  0  0  0  0  0  0  0
    1.2341   -1.7586   -0.0195 H   0  0  0  0  0  0  0  0  0  0  0  0
   -2.0447   -0.2485    0.0195 H   0  0  0  0  0  0  0  0  0  0  0  0
   -0.6647   -2.5365   -0.8955 H   0  0  0  0  0  0  0  0  0  0  0  0
   -0.6484   -2.5460    0.8843 H   0  0  0  0  0  0  0  0  0  0  0  0
   -2.6649   -2.9074   -2.1258 H   0  0  0  0  0  0  0  0  0  0  0  0
   -4.9709   -3.7722   -2.1346 H   0  0  0  0  0  0  0  0  0  0  0  0
   -8.7565   -4.8172    2.1513 H   0  0  0  0  0  0  0  0  0  0  0  0
   -8.7403   -4.9520    0.4767 H   0  0  0  0  0  0  0  0  0  0  0  0
   -3.6702   -2.7989    3.6940 H   0  0  0  0  0  0  0  0  0  0  0  0
   -5.0682   -3.2495    4.5097 H   0  0  0  0  0  0  0  0  0  0  0  0
  1  6  2  0  0  0  0
  1  2  1  0  0  0  0
  1 22  1  0  0  0  0
  2  3  2  0  0  0  0
  2 23  1  0  0  0  0
  3  4  1  0  0  0  0
  3 24  1  0  0  0  0
  4  5  2  0  0  0  0
  4 21  1  0  0  0  0
  5  6  1  0  0  0  0
  5  7  1  0  0  0  0
  6 25  1  0  0  0  0
  7  8  1  0  0  0  0
  7 26  1  0  0  0  0
  8  9  1  0  0  0  0
  8 27  1  0  0  0  0
  8 28  1  0  0  0  0
  9 14  2  0  0  0  0
  9 10  1  0  0  0  0
 10 11  2  0  0  0  0
 10 29  1  0  0  0  0
 11 12  1  0  0  0  0
 11 30  1  0  0  0  0
 12 18  2  0  0  0  0
 12 13  1  0  0  0  0
 13 14  1  0  0  0  0
 13 15  2  0  0  0  0
 15 16  1  0  0  0  0
 15 20  1  0  0  0  0
 16 17  2  0  0  0  0
 17 18  1  0  0  0  0
 17 19  1  0  0  0  0
 19 31  1  0  0  0  0
 19 32  1  0  0  0  0
 20 33  1  0  0  0  0
 20 34  1  0  0  0  0
M  END
$$$$
ZINC03814905
  -OEChem-08230709403D

 35 37  0     0  0  0  0  0  0999 V2000
    2.3998    0.0326   -0.0207 C   0  0  0  0  0  0  0  0  0  0  0  0
    2.3781    1.4153   -0.0130 C   0  0  0  0  0  0  0  0  0  0  0  0
    1.1718    2.0910    0.0021 C   0  0  0  0  0  0  0  0  0  0  0  0
   -0.0168    1.3857    0.0097 C   0  0  0  0  0  0  0  0  0  0  0  0
    0.0021   -0.0041    0.0020 C   0  0  0  0  0  0  0  0  0  0  0  0
    1.2159   -0.6787   -0.0132 C   0  0  0  0  0  0  0  0  0  0  0  0
   -1.1976   -0.7208    0.0092 N   0  0  0  0  0  0  0  0  0  0  0  0
   -1.1757   -2.1857    0.0011 C   0  0  0  0  0  0  0  0  0  0  0  0
   -2.5888   -2.7092    0.0112 C   0  0  0  0  0  0  0  0  0  0  0  0
   -3.2020   -3.0326   -1.1973 C   0  0  0  0  0  0  0  0  0  0  0  0
   -4.4817   -3.5131   -1.2073 C   0  0  0  0  0  0  0  0  0  0  0  0
   -5.1438   -3.6553    0.0241 C   0  0  0  0  0  0  0  0  0  0  0  0
   -4.4602   -3.3017    1.2119 C   0  0  0  0  0  0  0  0  0  0  0  0
   -3.2131   -2.8440    1.1579 N   0  0  0  0  0  0  0  0  0  0  0  0
   -5.1754   -3.4605    2.4791 C   0  0  0  0  0  0  0  0  0  0  0  0
   -6.4160   -3.9248    2.4333 N   0  0  0  0  0  0  0  0  0  0  0  0
   -6.9962   -4.2372    1.2788 C   0  0  0  0  0  0  0  0  0  0  0  0
   -8.2936   -4.7165    1.3049 N   0  0  0  0  0  0  0  0  0  0  0  0
   -4.5790   -3.1377    3.6796 N   0  0  0  0  0  0  0  0  0  0  0  0
   -1.5311    2.2344    0.0215 Cl  0  0  0  0  0  0  0  0  0  0  0  0
    3.3439   -0.4919   -0.0329 H   0  0  0  0  0  0  0  0  0  0  0  0
    3.3055    1.9687   -0.0193 H   0  0  0  0  0  0  0  0  0  0  0  0
    1.1584    3.1709    0.0080 H   0  0  0  0  0  0  0  0  0  0  0  0
    1.2341   -1.7586   -0.0195 H   0  0  0  0  0  0  0  0  0  0  0  0
   -2.0447   -0.2485    0.0195 H   0  0  0  0  0  0  0  0  0  0  0  0
   -0.6647   -2.5365   -0.8955 H   0  0  0  0  0  0  0  0  0  0  0  0
   -0.6484   -2.5460    0.8843 H   0  0  0  0  0  0  0  0  0  0  0  0
   -2.6649   -2.9074   -2.1258 H   0  0  0  0  0  0  0  0  0  0  0  0
   -4.9709   -3.7722   -2.1346 H   0  0  0  0  0  0  0  0  0  0  0  0
   -8.7565   -4.8172    2.1513 H   0  0  0  0  0  0  0  0  0  0  0  0
   -8.7403   -4.9520    0.4767 H   0  0  0  0  0  0  0  0  0  0  0  0
   -3.6702   -2.7989    3.6940 H   0  0  0  0  0  0  0  0  0  0  0  0
   -5.0682   -3.2495    4.5097 H   0  0  0  0  0  0  0  0  0  0  0  0
   -6.4355   -4.1331    0.0485 N   0  3  0  0  0  0  0  0  0  0  0  0
   -6.8949   -4.3762   -0.8059 H   0  0  0  0  0  0  0  0  0  0  0  0
  1  6  2  0  0  0  0
  1  2  1  0  0  0  0
  1 21  1  0  0  0  0
  2  3  2  0  0  0  0
  2 22  1  0  0  0  0
  3  4  1  0  0  0  0
  3 23  1  0  0  0  0
  4  5  2  0  0  0  0
  4 20  1  0  0  0  0
  5  6  1  0  0  0  0
  5  7  1  0  0  0  0
  6 24  1  0  0  0  0
  7  8  1  0  0  0  0
  7 25  1  0  0  0  0
  8  9  1  0  0  0  0
  8 26  1  0  0  0  0
  8 27  1  0  0  0  0
  9 14  2  0  0  0  0
  9 10  1  0  0  0  0
 10 11  2  0  0  0  0
 10 28  1  0  0  0  0
 11 12  1  0  0  0  0
 11 29  1  0  0  0  0
 12 13  2  0  0  0  0
 12 34  1  0  0  0  0
 13 14  1  0  0  0  0
 13 15  1  0  0  0  0
 15 16  2  0  0  0  0
 15 19  1  0  0  0  0
 16 17  1  0  0  0  0
 17 18  1  0  0  0  0
 17 34  2  0  0  0  0
 18 30  1  0  0  0  0
 18 31  1  0  0  0  0
 19 32  1  0  0  0  0
 19 33  1  0  0  0  0
 34 35  1  0  0  0  0
M  CHG  1  34   1
M  END
$$$$
ZINC03814906
  -OEChem-08230709403D

 37 39  0     1  0  0  0  0  0999 V2000
   -1.3520   -1.5012   -1.2258 C   0  0  0  0  0  0  0  0  0  0  0  0
   -1.1976   -0.7208    0.0092 N   0  0  1  0  0  0  0  0  0  0  0  0
   -1.2870   -1.5859    1.1931 C   0  0  0  0  0  0  0  0  0  0  0  0
   -2.6799   -2.1514    1.2981 C   0  0  0  0  0  0  0  0  0  0  0  0
   -2.9452   -3.4079    0.7581 C   0  0  0  0  0  0  0  0  0  0  0  0
   -4.2017   -3.9389    0.8478 C   0  0  0  0  0  0  0  0  0  0  0  0
   -5.1968   -3.1777    1.4845 C   0  0  0  0  0  0  0  0  0  0  0  0
   -4.8559   -1.9065    2.0050 C   0  0  0  0  0  0  0  0  0  0  0  0
   -3.6141   -1.4454    1.8912 N   0  0  0  0  0  0  0  0  0  0  0  0
   -5.9132   -1.1370    2.6626 C   0  0  0  0  0  0  0  0  0  0  0  0
   -7.1209   -1.6792    2.7285 N   0  0  0  0  0  0  0  0  0  0  0  0
   -7.3693   -2.8807    2.2167 C   0  0  0  0  0  0  0  0  0  0  0  0
   -6.4553   -3.6152    1.6153 N   0  0  0  0  0  0  0  0  0  0  0  0
   -8.6528   -3.3858    2.3212 N   0  0  0  0  0  0  0  0  0  0  0  0
   -5.6616    0.1098    3.1948 N   0  0  0  0  0  0  0  0  0  0  0  0
    0.0021   -0.0041    0.0020 C   0  0  0  0  0  0  0  0  0  0  0  0
    1.2159   -0.6787   -0.0132 C   0  0  0  0  0  0  0  0  0  0  0  0
    2.3998    0.0326   -0.0207 C   0  0  0  0  0  0  0  0  0  0  0  0
    2.3781    1.4153   -0.0130 C   0  0  0  0  0  0  0  0  0  0  0  0
    1.1718    2.0910    0.0021 C   0  0  0  0  0  0  0  0  0  0  0  0
   -0.0168    1.3857    0.0097 C   0  0  0  0  0  0  0  0  0  0  0  0
   -1.5311    2.2344    0.0215 Cl  0  0  0  0  0  0  0  0  0  0  0  0
   -0.5248   -2.2052   -1.3166 H   0  0  0  0  0  0  0  0  0  0  0  0
   -2.2936   -2.0492   -1.1940 H   0  0  0  0  0  0  0  0  0  0  0  0
   -1.3521   -0.8282   -2.0832 H   0  0  0  0  0  0  0  0  0  0  0  0
   -0.5696   -2.4015    1.1021 H   0  0  0  0  0  0  0  0  0  0  0  0
   -1.0631   -1.0031    2.0866 H   0  0  0  0  0  0  0  0  0  0  0  0
   -2.1573   -3.9642    0.2721 H   0  0  0  0  0  0  0  0  0  0  0  0
   -4.4241   -4.9130    0.4379 H   0  0  0  0  0  0  0  0  0  0  0  0
   -9.3446   -2.8658    2.7594 H   0  0  0  0  0  0  0  0  0  0  0  0
   -8.8611   -4.2601    1.9562 H   0  0  0  0  0  0  0  0  0  0  0  0
   -4.7716    0.4912    3.1370 H   0  0  0  0  0  0  0  0  0  0  0  0
   -6.3746    0.6055    3.6271 H   0  0  0  0  0  0  0  0  0  0  0  0
    1.2341   -1.7586   -0.0195 H   0  0  0  0  0  0  0  0  0  0  0  0
    3.3439   -0.4919   -0.0329 H   0  0  0  0  0  0  0  0  0  0  0  0
    3.3055    1.9687   -0.0193 H   0  0  0  0  0  0  0  0  0  0  0  0
    1.1584    3.1709    0.0080 H   0  0  0  0  0  0  0  0  0  0  0  0
  1  2  1  0  0  0  0
  1 23  1  0  0  0  0
  1 24  1  0  0  0  0
  1 25  1  0  0  0  0
  2  3  1  0  0  0  0
  2 16  1  0  0  0  0
  3  4  1  0  0  0  0
  3 26  1  0  0  0  0
  3 27  1  0  0  0  0
  4  9  2  0  0  0  0
  4  5  1  0  0  0  0
  5  6  2  0  0  0  0
  5 28  1  0  0  0  0
  6  7  1  0  0  0  0
  6 29  1  0  0  0  0
  7 13  2  0  0  0  0
  7  8  1  0  0  0  0
  8  9  1  0  0  0  0
  8 10  2  0  0  0  0
 10 11  1  0  0  0  0
 10 15  1  0  0  0  0
 11 12  2  0  0  0  0
 12 13  1  0  0  0  0
 12 14  1  0  0  0  0
 14 30  1  0  0  0  0
 14 31  1  0  0  0  0
 15 32  1  0  0  0  0
 15 33  1  0  0  0  0
 16 21  2  0  0  0  0
 16 17  1  0  0  0  0
 17 18  2  0  0  0  0
 17 34  1  0  0  0  0
 18 19  1  0  0  0  0
 18 35  1  0  0  0  0
 19 20  2  0  0  0  0
 19 36  1  0  0  0  0
 20 21  1  0  0  0  0
 20 37  1  0  0  0  0
 21 22  1  0  0  0  0
M  END
$$$$
ZINC03814906
  -OEChem-08230709403D

 38 40  0     1  0  0  0  0  0999 V2000
   -1.3520   -1.5012   -1.2258 C   0  0  0  0  0  0  0  0  0  0  0  0
   -1.1976   -0.7208    0.0092 N   0  0  1  0  0  0  0  0  0  0  0  0
   -1.2870   -1.5859    1.1931 C   0  0  0  0  0  0  0  0  0  0  0  0
   -2.6799   -2.1514    1.2981 C   0  0  0  0  0  0  0  0  0  0  0  0
   -2.9452   -3.4079    0.7581 C   0  0  0  0  0  0  0  0  0  0  0  0
   -4.2017   -3.9389    0.8478 C   0  0  0  0  0  0  0  0  0  0  0  0
   -5.1968   -3.1777    1.4845 C   0  0  0  0  0  0  0  0  0  0  0  0
   -4.8559   -1.9065    2.0050 C   0  0  0  0  0  0  0  0  0  0  0  0
   -3.6141   -1.4454    1.8912 N   0  0  0  0  0  0  0  0  0  0  0  0
   -5.9132   -1.1370    2.6626 C   0  0  0  0  0  0  0  0  0  0  0  0
   -7.1209   -1.6792    2.7285 N   0  0  0  0  0  0  0  0  0  0  0  0
   -7.3693   -2.8807    2.2167 C   0  0  0  0  0  0  0  0  0  0  0  0
   -8.6528   -3.3858    2.3212 N   0  0  0  0  0  0  0  0  0  0  0  0
   -5.6616    0.1098    3.1948 N   0  0  0  0  0  0  0  0  0  0  0  0
    0.0021   -0.0041    0.0020 C   0  0  0  0  0  0  0  0  0  0  0  0
    1.2159   -0.6787   -0.0132 C   0  0  0  0  0  0  0  0  0  0  0  0
    2.3998    0.0326   -0.0207 C   0  0  0  0  0  0  0  0  0  0  0  0
    2.3781    1.4153   -0.0130 C   0  0  0  0  0  0  0  0  0  0  0  0
    1.1718    2.0910    0.0021 C   0  0  0  0  0  0  0  0  0  0  0  0
   -0.0168    1.3857    0.0097 C   0  0  0  0  0  0  0  0  0  0  0  0
   -1.5311    2.2344    0.0215 Cl  0  0  0  0  0  0  0  0  0  0  0  0
   -0.5248   -2.2052   -1.3166 H   0  0  0  0  0  0  0  0  0  0  0  0
   -2.2936   -2.0492   -1.1940 H   0  0  0  0  0  0  0  0  0  0  0  0
   -1.3521   -0.8282   -2.0832 H   0  0  0  0  0  0  0  0  0  0  0  0
   -0.5696   -2.4015    1.1021 H   0  0  0  0  0  0  0  0  0  0  0  0
   -1.0631   -1.0031    2.0866 H   0  0  0  0  0  0  0  0  0  0  0  0
   -2.1573   -3.9642    0.2721 H   0  0  0  0  0  0  0  0  0  0  0  0
   -4.4241   -4.9130    0.4379 H   0  0  0  0  0  0  0  0  0  0  0  0
   -9.3446   -2.8658    2.7594 H   0  0  0  0  0  0  0  0  0  0  0  0
   -8.8611   -4.2601    1.9562 H   0  0  0  0  0  0  0  0  0  0  0  0
   -4.7716    0.4912    3.1370 H   0  0  0  0  0  0  0  0  0  0  0  0
   -6.3746    0.6055    3.6271 H   0  0  0  0  0  0  0  0  0  0  0  0
    1.2341   -1.7586   -0.0195 H   0  0  0  0  0  0  0  0  0  0  0  0
    3.3439   -0.4919   -0.0329 H   0  0  0  0  0  0  0  0  0  0  0  0
    3.3055    1.9687   -0.0193 H   0  0  0  0  0  0  0  0  0  0  0  0
    1.1584    3.1709    0.0080 H   0  0  0  0  0  0  0  0  0  0  0  0
   -6.4743   -3.6824    1.5881 N   0  3  0  0  0  0  0  0  0  0  0  0
   -6.6877   -4.5841    1.2121 H   0  0  0  0  0  0  0  0  0  0  0  0
  1  2  1  0  0  0  0
  1 22  1  0  0  0  0
  1 23  1  0  0  0  0
  1 24  1  0  0  0  0
  2  3  1  0  0  0  0
  2 15  1  0  0  0  0
  3  4  1  0  0  0  0
  3 25  1  0  0  0  0
  3 26  1  0  0  0  0
  4  9  2  0  0  0  0
  4  5  1  0  0  0  0
  5  6  2  0  0  0  0
  5 27  1  0  0  0  0
  6  7  1  0  0  0  0
  6 28  1  0  0  0  0
  7  8  2  0  0  0  0
  7 37  1  0  0  0  0
  8  9  1  0  0  0  0
  8 10  1  0  0  0  0
 10 11  2  0  0  0  0
 10 14  1  0  0  0  0
 11 12  1  0  0  0  0
 12 13  1  0  0  0  0
 12 37  2  0  0  0  0
 13 29  1  0  0  0  0
 13 30  1  0  0  0  0
 14 31  1  0  0  0  0
 14 32  1  0  0  0  0
 15 20  2  0  0  0  0
 15 16  1  0  0  0  0
 16 17  2  0  0  0  0
 16 33  1  0  0  0  0
 17 18  1  0  0  0  0
 17 34  1  0  0  0  0
 18 19  2  0  0  0  0
 18 35  1  0  0  0  0
 19 20  1  0  0  0  0
 19 36  1  0  0  0  0
 20 21  1  0  0  0  0
 37 38  1  0  0  0  0
M  CHG  1  37   1
M  END
$$$$
ZINC03814907
  -OEChem-08230709403D

 34 36  0     0  0  0  0  0  0999 V2000
    1.1760    1.7818    0.0004 C   0  0  0  0  0  0  0  0  0  0  0  0
    1.1610    3.1631    0.0075 C   0  0  0  0  0  0  0  0  0  0  0  0
   -0.0499    3.8434    0.0227 C   0  0  0  0  0  0  0  0  0  0  0  0
   -1.2430    3.1319    0.0307 C   0  0  0  0  0  0  0  0  0  0  0  0
   -1.2215    1.7501    0.0174 C   0  0  0  0  0  0  0  0  0  0  0  0
   -0.0126    1.0758    0.0080 C   0  0  0  0  0  0  0  0  0  0  0  0
   -2.7115    0.8594    0.0190 Cl  0  0  0  0  0  0  0  0  0  0  0  0
   -0.0679    5.2399    0.0295 N   0  0  0  0  0  0  0  0  0  0  0  0
   -1.3459    5.9560    0.0455 C   0  0  0  0  0  0  0  0  0  0  0  0
   -1.0897    7.4410    0.0500 C   0  0  0  0  0  0  0  0  0  0  0  0
   -1.0851    8.1330   -1.1592 C   0  0  0  0  0  0  0  0  0  0  0  0
   -0.8589    9.4811   -1.1743 C   0  0  0  0  0  0  0  0  0  0  0  0
   -0.6261   10.1258    0.0526 C   0  0  0  0  0  0  0  0  0  0  0  0
   -0.6405    9.3577    1.2413 C   0  0  0  0  0  0  0  0  0  0  0  0
   -0.8712    8.0492    1.1924 N   0  0  0  0  0  0  0  0  0  0  0  0
   -0.3948   10.0567    2.5036 C   0  0  0  0  0  0  0  0  0  0  0  0
   -0.1749   11.3628    2.4529 N   0  0  0  0  0  0  0  0  0  0  0  0
   -0.1762   12.0209    1.2978 C   0  0  0  0  0  0  0  0  0  0  0  0
   -0.3919   11.4414    0.1340 N   0  0  0  0  0  0  0  0  0  0  0  0
    0.0605   13.3836    1.3186 N   0  0  0  0  0  0  0  0  0  0  0  0
   -0.3917    9.3795    3.7046 N   0  0  0  0  0  0  0  0  0  0  0  0
    2.1174    1.2528   -0.0114 H   0  0  0  0  0  0  0  0  0  0  0  0
    2.0901    3.7136    0.0009 H   0  0  0  0  0  0  0  0  0  0  0  0
   -2.1861    3.6579    0.0430 H   0  0  0  0  0  0  0  0  0  0  0  0
    0.0021   -0.0041    0.0020 H   0  0  0  0  0  0  0  0  0  0  0  0
    0.7657    5.7358    0.0235 H   0  0  0  0  0  0  0  0  0  0  0  0
   -1.9229    5.6895   -0.8400 H   0  0  0  0  0  0  0  0  0  0  0  0
   -1.9052    5.6811    0.9398 H   0  0  0  0  0  0  0  0  0  0  0  0
   -1.2640    7.6051   -2.0842 H   0  0  0  0  0  0  0  0  0  0  0  0
   -0.8553   10.0338   -2.1021 H   0  0  0  0  0  0  0  0  0  0  0  0
    0.2220   13.8350    2.1619 H   0  0  0  0  0  0  0  0  0  0  0  0
    0.0651   13.8878    0.4900 H   0  0  0  0  0  0  0  0  0  0  0  0
   -0.5543    8.4234    3.7226 H   0  0  0  0  0  0  0  0  0  0  0  0
   -0.2271    9.8591    4.5314 H   0  0  0  0  0  0  0  0  0  0  0  0
  1  6  2  0  0  0  0
  1  2  1  0  0  0  0
  1 22  1  0  0  0  0
  2  3  2  0  0  0  0
  2 23  1  0  0  0  0
  3  4  1  0  0  0  0
  3  8  1  0  0  0  0
  4  5  2  0  0  0  0
  4 24  1  0  0  0  0
  5  6  1  0  0  0  0
  5  7  1  0  0  0  0
  6 25  1  0  0  0  0
  8  9  1  0  0  0  0
  8 26  1  0  0  0  0
  9 10  1  0  0  0  0
  9 27  1  0  0  0  0
  9 28  1  0  0  0  0
 10 15  2  0  0  0  0
 10 11  1  0  0  0  0
 11 12  2  0  0  0  0
 11 29  1  0  0  0  0
 12 13  1  0  0  0  0
 12 30  1  0  0  0  0
 13 19  2  0  0  0  0
 13 14  1  0  0  0  0
 14 15  1  0  0  0  0
 14 16  2  0  0  0  0
 16 17  1  0  0  0  0
 16 21  1  0  0  0  0
 17 18  2  0  0  0  0
 18 19  1  0  0  0  0
 18 20  1  0  0  0  0
 20 31  1  0  0  0  0
 20 32  1  0  0  0  0
 21 33  1  0  0  0  0
 21 34  1  0  0  0  0
M  END
$$$$
ZINC03814907
  -OEChem-08230709403D

 35 37  0     0  0  0  0  0  0999 V2000
    1.1760    1.7818    0.0004 C   0  0  0  0  0  0  0  0  0  0  0  0
    1.1610    3.1631    0.0075 C   0  0  0  0  0  0  0  0  0  0  0  0
   -0.0499    3.8434    0.0227 C   0  0  0  0  0  0  0  0  0  0  0  0
   -1.2430    3.1319    0.0307 C   0  0  0  0  0  0  0  0  0  0  0  0
   -1.2215    1.7501    0.0174 C   0  0  0  0  0  0  0  0  0  0  0  0
   -0.0126    1.0758    0.0080 C   0  0  0  0  0  0  0  0  0  0  0  0
   -2.7115    0.8594    0.0190 Cl  0  0  0  0  0  0  0  0  0  0  0  0
   -0.0679    5.2399    0.0295 N   0  0  0  0  0  0  0  0  0  0  0  0
   -1.3459    5.9560    0.0455 C   0  0  0  0  0  0  0  0  0  0  0  0
   -1.0897    7.4410    0.0500 C   0  0  0  0  0  0  0  0  0  0  0  0
   -1.0851    8.1330   -1.1592 C   0  0  0  0  0  0  0  0  0  0  0  0
   -0.8589    9.4811   -1.1743 C   0  0  0  0  0  0  0  0  0  0  0  0
   -0.6261   10.1258    0.0526 C   0  0  0  0  0  0  0  0  0  0  0  0
   -0.6405    9.3577    1.2413 C   0  0  0  0  0  0  0  0  0  0  0  0
   -0.8712    8.0492    1.1924 N   0  0  0  0  0  0  0  0  0  0  0  0
   -0.3948   10.0567    2.5036 C   0  0  0  0  0  0  0  0  0  0  0  0
   -0.1749   11.3628    2.4529 N   0  0  0  0  0  0  0  0  0  0  0  0
   -0.1762   12.0209    1.2978 C   0  0  0  0  0  0  0  0  0  0  0  0
    0.0605   13.3836    1.3186 N   0  0  0  0  0  0  0  0  0  0  0  0
   -0.3917    9.3795    3.7046 N   0  0  0  0  0  0  0  0  0  0  0  0
    2.1174    1.2528   -0.0114 H   0  0  0  0  0  0  0  0  0  0  0  0
    2.0901    3.7136    0.0009 H   0  0  0  0  0  0  0  0  0  0  0  0
   -2.1861    3.6579    0.0430 H   0  0  0  0  0  0  0  0  0  0  0  0
    0.0021   -0.0041    0.0020 H   0  0  0  0  0  0  0  0  0  0  0  0
    0.7657    5.7358    0.0235 H   0  0  0  0  0  0  0  0  0  0  0  0
   -1.9229    5.6895   -0.8400 H   0  0  0  0  0  0  0  0  0  0  0  0
   -1.9052    5.6811    0.9398 H   0  0  0  0  0  0  0  0  0  0  0  0
   -1.2640    7.6051   -2.0842 H   0  0  0  0  0  0  0  0  0  0  0  0
   -0.8553   10.0338   -2.1021 H   0  0  0  0  0  0  0  0  0  0  0  0
    0.2220   13.8350    2.1619 H   0  0  0  0  0  0  0  0  0  0  0  0
    0.0651   13.8878    0.4900 H   0  0  0  0  0  0  0  0  0  0  0  0
   -0.5543    8.4234    3.7226 H   0  0  0  0  0  0  0  0  0  0  0  0
   -0.2271    9.8591    4.5314 H   0  0  0  0  0  0  0  0  0  0  0  0
   -0.3910   11.4829    0.0716 N   0  3  0  0  0  0  0  0  0  0  0  0
   -0.3871   12.0017   -0.7832 H   0  0  0  0  0  0  0  0  0  0  0  0
  1  6  2  0  0  0  0
  1  2  1  0  0  0  0
  1 21  1  0  0  0  0
  2  3  2  0  0  0  0
  2 22  1  0  0  0  0
  3  4  1  0  0  0  0
  3  8  1  0  0  0  0
  4  5  2  0  0  0  0
  4 23  1  0  0  0  0
  5  6  1  0  0  0  0
  5  7  1  0  0  0  0
  6 24  1  0  0  0  0
  8  9  1  0  0  0  0
  8 25  1  0  0  0  0
  9 10  1  0  0  0  0
  9 26  1  0  0  0  0
  9 27  1  0  0  0  0
 10 15  2  0  0  0  0
 10 11  1  0  0  0  0
 11 12  2  0  0  0  0
 11 28  1  0  0  0  0
 12 13  1  0  0  0  0
 12 29  1  0  0  0  0
 13 14  2  0  0  0  0
 13 34  1  0  0  0  0
 14 15  1  0  0  0  0
 14 16  1  0  0  0  0
 16 17  2  0  0  0  0
 16 20  1  0  0  0  0
 17 18  1  0  0  0  0
 18 19  1  0  0  0  0
 18 34  2  0  0  0  0
 19 30  1  0  0  0  0
 19 31  1  0  0  0  0
 20 32  1  0  0  0  0
 20 33  1  0  0  0  0
 34 35  1  0  0  0  0
M  CHG  1  34   1
M  END
$$$$
ZINC03814908
  -OEChem-08230709403D

 42 44  0     0  0  0  0  0  0999 V2000
    3.5363    3.0972   -0.0160 C   0  0  0  0  0  0  0  0  0  0  0  0
    2.3295    3.8624   -0.0004 O   0  0  0  0  0  0  0  0  0  0  0  0
    1.1593    3.1696    0.0076 C   0  0  0  0  0  0  0  0  0  0  0  0
    1.1752    1.7828    0.0004 C   0  0  0  0  0  0  0  0  0  0  0  0
   -0.0126    1.0758    0.0080 C   0  0  0  0  0  0  0  0  0  0  0  0
   -1.2230    1.7525    0.0174 C   0  0  0  0  0  0  0  0  0  0  0  0
   -1.2406    3.1451    0.0303 C   0  0  0  0  0  0  0  0  0  0  0  0
   -0.0488    3.8506    0.0223 C   0  0  0  0  0  0  0  0  0  0  0  0
   -2.4263    3.8112    0.0448 O   0  0  0  0  0  0  0  0  0  0  0  0
   -2.3682    5.2390    0.0510 C   0  0  0  0  0  0  0  0  0  0  0  0
   -2.4280    1.0353    0.0187 N   0  0  0  0  0  0  0  0  0  0  0  0
   -2.4087   -0.4296    0.0101 C   0  0  0  0  0  0  0  0  0  0  0  0
   -3.8227   -0.9507    0.0134 C   0  0  0  0  0  0  0  0  0  0  0  0
   -4.4308   -1.2726   -1.1980 C   0  0  0  0  0  0  0  0  0  0  0  0
   -5.7112   -1.7509   -1.2141 C   0  0  0  0  0  0  0  0  0  0  0  0
   -6.3792   -1.8924    0.0141 C   0  0  0  0  0  0  0  0  0  0  0  0
   -5.7006   -1.5406    1.2052 C   0  0  0  0  0  0  0  0  0  0  0  0
   -4.4524   -1.0849    1.1572 N   0  0  0  0  0  0  0  0  0  0  0  0
   -6.4219   -1.6987    2.4690 C   0  0  0  0  0  0  0  0  0  0  0  0
   -7.6631   -2.1608    2.4173 N   0  0  0  0  0  0  0  0  0  0  0  0
   -8.2385   -2.4718    1.2600 C   0  0  0  0  0  0  0  0  0  0  0  0
   -7.6352   -2.3492    0.0948 N   0  0  0  0  0  0  0  0  0  0  0  0
   -9.5367   -2.9489    1.2798 N   0  0  0  0  0  0  0  0  0  0  0  0
   -5.8305   -1.3774    3.6724 N   0  0  0  0  0  0  0  0  0  0  0  0
    3.5593    2.4732   -0.9094 H   0  0  0  0  0  0  0  0  0  0  0  0
    4.3934    3.7706   -0.0209 H   0  0  0  0  0  0  0  0  0  0  0  0
    3.5767    2.4642    0.8705 H   0  0  0  0  0  0  0  0  0  0  0  0
    2.1171    1.2545   -0.0114 H   0  0  0  0  0  0  0  0  0  0  0  0
    0.0021   -0.0041    0.0020 H   0  0  0  0  0  0  0  0  0  0  0  0
   -0.0602    4.9305    0.0271 H   0  0  0  0  0  0  0  0  0  0  0  0
   -1.8316    5.5770    0.9375 H   0  0  0  0  0  0  0  0  0  0  0  0
   -1.8486    5.5854   -0.8424 H   0  0  0  0  0  0  0  0  0  0  0  0
   -3.3802    5.6437    0.0626 H   0  0  0  0  0  0  0  0  0  0  0  0
   -3.2744    1.5091    0.0253 H   0  0  0  0  0  0  0  0  0  0  0  0
   -1.8941   -0.7809   -0.8843 H   0  0  0  0  0  0  0  0  0  0  0  0
   -1.8860   -0.7912    0.8956 H   0  0  0  0  0  0  0  0  0  0  0  0
   -3.8892   -1.1479   -2.1240 H   0  0  0  0  0  0  0  0  0  0  0  0
   -6.1966   -2.0087   -2.1438 H   0  0  0  0  0  0  0  0  0  0  0  0
  -10.0038   -3.0491    2.1241 H   0  0  0  0  0  0  0  0  0  0  0  0
   -9.9801   -3.1833    0.4495 H   0  0  0  0  0  0  0  0  0  0  0  0
   -4.9212   -1.0402    3.6911 H   0  0  0  0  0  0  0  0  0  0  0  0
   -6.3237   -1.4886    4.5002 H   0  0  0  0  0  0  0  0  0  0  0  0
  1  2  1  0  0  0  0
  1 25  1  0  0  0  0
  1 26  1  0  0  0  0
  1 27  1  0  0  0  0
  2  3  1  0  0  0  0
  3  8  2  0  0  0  0
  3  4  1  0  0  0  0
  4  5  2  0  0  0  0
  4 28  1  0  0  0  0
  5  6  1  0  0  0  0
  5 29  1  0  0  0  0
  6  7  2  0  0  0  0
  6 11  1  0  0  0  0
  7  8  1  0  0  0  0
  7  9  1  0  0  0  0
  8 30  1  0  0  0  0
  9 10  1  0  0  0  0
 10 31  1  0  0  0  0
 10 32  1  0  0  0  0
 10 33  1  0  0  0  0
 11 12  1  0  0  0  0
 11 34  1  0  0  0  0
 12 13  1  0  0  0  0
 12 35  1  0  0  0  0
 12 36  1  0  0  0  0
 13 18  2  0  0  0  0
 13 14  1  0  0  0  0
 14 15  2  0  0  0  0
 14 37  1  0  0  0  0
 15 16  1  0  0  0  0
 15 38  1  0  0  0  0
 16 22  2  0  0  0  0
 16 17  1  0  0  0  0
 17 18  1  0  0  0  0
 17 19  2  0  0  0  0
 19 20  1  0  0  0  0
 19 24  1  0  0  0  0
 20 21  2  0  0  0  0
 21 22  1  0  0  0  0
 21 23  1  0  0  0  0
 23 39  1  0  0  0  0
 23 40  1  0  0  0  0
 24 41  1  0  0  0  0
 24 42  1  0  0  0  0
M  END
$$$$
ZINC03814908
  -OEChem-08230709403D

 43 45  0     0  0  0  0  0  0999 V2000
    3.5363    3.0972   -0.0160 C   0  0  0  0  0  0  0  0  0  0  0  0
    2.3295    3.8624   -0.0004 O   0  0  0  0  0  0  0  0  0  0  0  0
    1.1593    3.1696    0.0076 C   0  0  0  0  0  0  0  0  0  0  0  0
    1.1752    1.7828    0.0004 C   0  0  0  0  0  0  0  0  0  0  0  0
   -0.0126    1.0758    0.0080 C   0  0  0  0  0  0  0  0  0  0  0  0
   -1.2230    1.7525    0.0174 C   0  0  0  0  0  0  0  0  0  0  0  0
   -1.2406    3.1451    0.0303 C   0  0  0  0  0  0  0  0  0  0  0  0
   -0.0488    3.8506    0.0223 C   0  0  0  0  0  0  0  0  0  0  0  0
   -2.4263    3.8112    0.0448 O   0  0  0  0  0  0  0  0  0  0  0  0
   -2.3682    5.2390    0.0510 C   0  0  0  0  0  0  0  0  0  0  0  0
   -2.4280    1.0353    0.0187 N   0  0  0  0  0  0  0  0  0  0  0  0
   -2.4087   -0.4296    0.0101 C   0  0  0  0  0  0  0  0  0  0  0  0
   -3.8227   -0.9507    0.0134 C   0  0  0  0  0  0  0  0  0  0  0  0
   -4.4308   -1.2726   -1.1980 C   0  0  0  0  0  0  0  0  0  0  0  0
   -5.7112   -1.7509   -1.2141 C   0  0  0  0  0  0  0  0  0  0  0  0
   -6.3792   -1.8924    0.0141 C   0  0  0  0  0  0  0  0  0  0  0  0
   -5.7006   -1.5406    1.2052 C   0  0  0  0  0  0  0  0  0  0  0  0
   -4.4524   -1.0849    1.1572 N   0  0  0  0  0  0  0  0  0  0  0  0
   -6.4219   -1.6987    2.4690 C   0  0  0  0  0  0  0  0  0  0  0  0
   -7.6631   -2.1608    2.4173 N   0  0  0  0  0  0  0  0  0  0  0  0
   -8.2385   -2.4718    1.2600 C   0  0  0  0  0  0  0  0  0  0  0  0
   -9.5367   -2.9489    1.2798 N   0  0  0  0  0  0  0  0  0  0  0  0
   -5.8305   -1.3774    3.6724 N   0  0  0  0  0  0  0  0  0  0  0  0
    3.5593    2.4732   -0.9094 H   0  0  0  0  0  0  0  0  0  0  0  0
    4.3934    3.7706   -0.0209 H   0  0  0  0  0  0  0  0  0  0  0  0
    3.5767    2.4642    0.8705 H   0  0  0  0  0  0  0  0  0  0  0  0
    2.1171    1.2545   -0.0114 H   0  0  0  0  0  0  0  0  0  0  0  0
    0.0021   -0.0041    0.0020 H   0  0  0  0  0  0  0  0  0  0  0  0
   -0.0602    4.9305    0.0271 H   0  0  0  0  0  0  0  0  0  0  0  0
   -1.8316    5.5770    0.9375 H   0  0  0  0  0  0  0  0  0  0  0  0
   -1.8486    5.5854   -0.8424 H   0  0  0  0  0  0  0  0  0  0  0  0
   -3.3802    5.6437    0.0626 H   0  0  0  0  0  0  0  0  0  0  0  0
   -3.2744    1.5091    0.0253 H   0  0  0  0  0  0  0  0  0  0  0  0
   -1.8941   -0.7809   -0.8843 H   0  0  0  0  0  0  0  0  0  0  0  0
   -1.8860   -0.7912    0.8956 H   0  0  0  0  0  0  0  0  0  0  0  0
   -3.8892   -1.1479   -2.1240 H   0  0  0  0  0  0  0  0  0  0  0  0
   -6.1966   -2.0087   -2.1438 H   0  0  0  0  0  0  0  0  0  0  0  0
  -10.0038   -3.0491    2.1241 H   0  0  0  0  0  0  0  0  0  0  0  0
   -9.9801   -3.1833    0.4495 H   0  0  0  0  0  0  0  0  0  0  0  0
   -4.9212   -1.0402    3.6911 H   0  0  0  0  0  0  0  0  0  0  0  0
   -6.3237   -1.4886    4.5002 H   0  0  0  0  0  0  0  0  0  0  0  0
   -7.6720   -2.3681    0.0323 N   0  3  0  0  0  0  0  0  0  0  0  0
   -8.1278   -2.6101   -0.8242 H   0  0  0  0  0  0  0  0  0  0  0  0
  1  2  1  0  0  0  0
  1 24  1  0  0  0  0
  1 25  1  0  0  0  0
  1 26  1  0  0  0  0
  2  3  1  0  0  0  0
  3  8  2  0  0  0  0
  3  4  1  0  0  0  0
  4  5  2  0  0  0  0
  4 27  1  0  0  0  0
  5  6  1  0  0  0  0
  5 28  1  0  0  0  0
  6  7  2  0  0  0  0
  6 11  1  0  0  0  0
  7  8  1  0  0  0  0
  7  9  1  0  0  0  0
  8 29  1  0  0  0  0
  9 10  1  0  0  0  0
 10 30  1  0  0  0  0
 10 31  1  0  0  0  0
 10 32  1  0  0  0  0
 11 12  1  0  0  0  0
 11 33  1  0  0  0  0
 12 13  1  0  0  0  0
 12 34  1  0  0  0  0
 12 35  1  0  0  0  0
 13 18  2  0  0  0  0
 13 14  1  0  0  0  0
 14 15  2  0  0  0  0
 14 36  1  0  0  0  0
 15 16  1  0  0  0  0
 15 37  1  0  0  0  0
 16 17  2  0  0  0  0
 16 42  1  0  0  0  0
 17 18  1  0  0  0  0
 17 19  1  0  0  0  0
 19 20  2  0  0  0  0
 19 23  1  0  0  0  0
 20 21  1  0  0  0  0
 21 22  1  0  0  0  0
 21 42  2  0  0  0  0
 22 38  1  0  0  0  0
 22 39  1  0  0  0  0
 23 40  1  0  0  0  0
 23 41  1  0  0  0  0
 42 43  1  0  0  0  0
M  CHG  1  42   1
M  END
$$$$
ZINC03814909
  -OEChem-08230709403D

 45 47  0     1  0  0  0  0  0999 V2000
   -2.5781    0.2557   -1.2172 C   0  0  0  0  0  0  0  0  0  0  0  0
   -2.4280    1.0353    0.0187 N   0  0  1  0  0  0  0  0  0  0  0  0
   -2.5243    0.1700    1.2019 C   0  0  0  0  0  0  0  0  0  0  0  0
   -3.9187   -0.3932    1.3003 C   0  0  0  0  0  0  0  0  0  0  0  0
   -4.1837   -1.6491    0.7587 C   0  0  0  0  0  0  0  0  0  0  0  0
   -5.4414   -2.1780    0.8423 C   0  0  0  0  0  0  0  0  0  0  0  0
   -6.4381   -1.4154    1.4748 C   0  0  0  0  0  0  0  0  0  0  0  0
   -6.0975   -0.1449    1.9973 C   0  0  0  0  0  0  0  0  0  0  0  0
   -4.8544    0.3141    1.8894 N   0  0  0  0  0  0  0  0  0  0  0  0
   -7.1565    0.6262    2.6503 C   0  0  0  0  0  0  0  0  0  0  0  0
   -8.3654    0.0860    2.7105 N   0  0  0  0  0  0  0  0  0  0  0  0
   -8.6135   -1.1148    2.1971 C   0  0  0  0  0  0  0  0  0  0  0  0
   -7.6980   -1.8508    1.5996 N   0  0  0  0  0  0  0  0  0  0  0  0
   -9.8984   -1.6179    2.2955 N   0  0  0  0  0  0  0  0  0  0  0  0
   -6.9052    1.8723    3.1842 N   0  0  0  0  0  0  0  0  0  0  0  0
   -1.2230    1.7525    0.0174 C   0  0  0  0  0  0  0  0  0  0  0  0
   -0.0126    1.0758    0.0080 C   0  0  0  0  0  0  0  0  0  0  0  0
    1.1752    1.7828    0.0004 C   0  0  0  0  0  0  0  0  0  0  0  0
    1.1593    3.1696    0.0080 C   0  0  0  0  0  0  0  0  0  0  0  0
   -0.0488    3.8506    0.0227 C   0  0  0  0  0  0  0  0  0  0  0  0
   -1.2406    3.1451    0.0303 C   0  0  0  0  0  0  0  0  0  0  0  0
   -2.4263    3.8112    0.0448 O   0  0  0  0  0  0  0  0  0  0  0  0
   -2.3682    5.2390    0.0515 C   0  0  0  0  0  0  0  0  0  0  0  0
    2.3295    3.8624    0.0006 O   0  0  0  0  0  0  0  0  0  0  0  0
    3.5363    3.0972   -0.0151 C   0  0  0  0  0  0  0  0  0  0  0  0
   -1.7517   -0.4497   -1.3045 H   0  0  0  0  0  0  0  0  0  0  0  0
   -3.5208   -0.2908   -1.1900 H   0  0  0  0  0  0  0  0  0  0  0  0
   -2.5731    0.9290   -2.0744 H   0  0  0  0  0  0  0  0  0  0  0  0
   -1.8080   -0.6469    1.1140 H   0  0  0  0  0  0  0  0  0  0  0  0
   -2.3036    0.7520    2.0967 H   0  0  0  0  0  0  0  0  0  0  0  0
   -3.3945   -2.2066    0.2761 H   0  0  0  0  0  0  0  0  0  0  0  0
   -5.6636   -3.1516    0.4311 H   0  0  0  0  0  0  0  0  0  0  0  0
  -10.5912   -1.0969    2.7307 H   0  0  0  0  0  0  0  0  0  0  0  0
  -10.1065   -2.4916    1.9293 H   0  0  0  0  0  0  0  0  0  0  0  0
   -6.0143    2.2522    3.1306 H   0  0  0  0  0  0  0  0  0  0  0  0
   -7.6193    2.3691    3.6133 H   0  0  0  0  0  0  0  0  0  0  0  0
    0.0021   -0.0041    0.0020 H   0  0  0  0  0  0  0  0  0  0  0  0
    2.1171    1.2545   -0.0118 H   0  0  0  0  0  0  0  0  0  0  0  0
   -0.0602    4.9305    0.0279 H   0  0  0  0  0  0  0  0  0  0  0  0
   -1.8484    5.5857   -0.8417 H   0  0  0  0  0  0  0  0  0  0  0  0
   -3.3802    5.6437    0.0630 H   0  0  0  0  0  0  0  0  0  0  0  0
   -1.8318    5.5767    0.9382 H   0  0  0  0  0  0  0  0  0  0  0  0
    4.3934    3.7706   -0.0196 H   0  0  0  0  0  0  0  0  0  0  0  0
    3.5765    2.4639    0.8712 H   0  0  0  0  0  0  0  0  0  0  0  0
    3.5595    2.4735   -0.9087 H   0  0  0  0  0  0  0  0  0  0  0  0
  1  2  1  0  0  0  0
  1 26  1  0  0  0  0
  1 27  1  0  0  0  0
  1 28  1  0  0  0  0
  2  3  1  0  0  0  0
  2 16  1  0  0  0  0
  3  4  1  0  0  0  0
  3 29  1  0  0  0  0
  3 30  1  0  0  0  0
  4  9  2  0  0  0  0
  4  5  1  0  0  0  0
  5  6  2  0  0  0  0
  5 31  1  0  0  0  0
  6  7  1  0  0  0  0
  6 32  1  0  0  0  0
  7 13  2  0  0  0  0
  7  8  1  0  0  0  0
  8  9  1  0  0  0  0
  8 10  2  0  0  0  0
 10 11  1  0  0  0  0
 10 15  1  0  0  0  0
 11 12  2  0  0  0  0
 12 13  1  0  0  0  0
 12 14  1  0  0  0  0
 14 33  1  0  0  0  0
 14 34  1  0  0  0  0
 15 35  1  0  0  0  0
 15 36  1  0  0  0  0
 16 21  2  0  0  0  0
 16 17  1  0  0  0  0
 17 18  2  0  0  0  0
 17 37  1  0  0  0  0
 18 19  1  0  0  0  0
 18 38  1  0  0  0  0
 19 20  2  0  0  0  0
 19 24  1  0  0  0  0
 20 21  1  0  0  0  0
 20 39  1  0  0  0  0
 21 22  1  0  0  0  0
 22 23  1  0  0  0  0
 23 40  1  0  0  0  0
 23 41  1  0  0  0  0
 23 42  1  0  0  0  0
 24 25  1  0  0  0  0
 25 43  1  0  0  0  0
 25 44  1  0  0  0  0
 25 45  1  0  0  0  0
M  END
$$$$
ZINC03814909
  -OEChem-08230709403D

 46 48  0     1  0  0  0  0  0999 V2000
   -2.5781    0.2557   -1.2172 C   0  0  0  0  0  0  0  0  0  0  0  0
   -2.4280    1.0353    0.0187 N   0  0  1  0  0  0  0  0  0  0  0  0
   -2.5243    0.1700    1.2019 C   0  0  0  0  0  0  0  0  0  0  0  0
   -3.9187   -0.3932    1.3003 C   0  0  0  0  0  0  0  0  0  0  0  0
   -4.1837   -1.6491    0.7587 C   0  0  0  0  0  0  0  0  0  0  0  0
   -5.4414   -2.1780    0.8423 C   0  0  0  0  0  0  0  0  0  0  0  0
   -6.4381   -1.4154    1.4748 C   0  0  0  0  0  0  0  0  0  0  0  0
   -6.0975   -0.1449    1.9973 C   0  0  0  0  0  0  0  0  0  0  0  0
   -4.8544    0.3141    1.8894 N   0  0  0  0  0  0  0  0  0  0  0  0
   -7.1565    0.6262    2.6503 C   0  0  0  0  0  0  0  0  0  0  0  0
   -8.3654    0.0860    2.7105 N   0  0  0  0  0  0  0  0  0  0  0  0
   -8.6135   -1.1148    2.1971 C   0  0  0  0  0  0  0  0  0  0  0  0
   -9.8984   -1.6179    2.2955 N   0  0  0  0  0  0  0  0  0  0  0  0
   -6.9052    1.8723    3.1842 N   0  0  0  0  0  0  0  0  0  0  0  0
   -1.2230    1.7525    0.0174 C   0  0  0  0  0  0  0  0  0  0  0  0
   -0.0126    1.0758    0.0080 C   0  0  0  0  0  0  0  0  0  0  0  0
    1.1752    1.7828    0.0004 C   0  0  0  0  0  0  0  0  0  0  0  0
    1.1593    3.1696    0.0080 C   0  0  0  0  0  0  0  0  0  0  0  0
   -0.0488    3.8506    0.0227 C   0  0  0  0  0  0  0  0  0  0  0  0
   -1.2406    3.1451    0.0303 C   0  0  0  0  0  0  0  0  0  0  0  0
   -2.4263    3.8112    0.0448 O   0  0  0  0  0  0  0  0  0  0  0  0
   -2.3682    5.2390    0.0515 C   0  0  0  0  0  0  0  0  0  0  0  0
    2.3295    3.8624    0.0006 O   0  0  0  0  0  0  0  0  0  0  0  0
    3.5363    3.0972   -0.0151 C   0  0  0  0  0  0  0  0  0  0  0  0
   -1.7517   -0.4497   -1.3045 H   0  0  0  0  0  0  0  0  0  0  0  0
   -3.5208   -0.2908   -1.1900 H   0  0  0  0  0  0  0  0  0  0  0  0
   -2.5731    0.9290   -2.0744 H   0  0  0  0  0  0  0  0  0  0  0  0
   -1.8080   -0.6469    1.1140 H   0  0  0  0  0  0  0  0  0  0  0  0
   -2.3036    0.7520    2.0967 H   0  0  0  0  0  0  0  0  0  0  0  0
   -3.3945   -2.2066    0.2761 H   0  0  0  0  0  0  0  0  0  0  0  0
   -5.6636   -3.1516    0.4311 H   0  0  0  0  0  0  0  0  0  0  0  0
  -10.5912   -1.0969    2.7307 H   0  0  0  0  0  0  0  0  0  0  0  0
  -10.1065   -2.4916    1.9293 H   0  0  0  0  0  0  0  0  0  0  0  0
   -6.0143    2.2522    3.1306 H   0  0  0  0  0  0  0  0  0  0  0  0
   -7.6193    2.3691    3.6133 H   0  0  0  0  0  0  0  0  0  0  0  0
    0.0021   -0.0041    0.0020 H   0  0  0  0  0  0  0  0  0  0  0  0
    2.1171    1.2545   -0.0118 H   0  0  0  0  0  0  0  0  0  0  0  0
   -0.0602    4.9305    0.0279 H   0  0  0  0  0  0  0  0  0  0  0  0
   -1.8484    5.5857   -0.8417 H   0  0  0  0  0  0  0  0  0  0  0  0
   -3.3802    5.6437    0.0630 H   0  0  0  0  0  0  0  0  0  0  0  0
   -1.8318    5.5767    0.9382 H   0  0  0  0  0  0  0  0  0  0  0  0
    4.3934    3.7706   -0.0196 H   0  0  0  0  0  0  0  0  0  0  0  0
    3.5765    2.4639    0.8712 H   0  0  0  0  0  0  0  0  0  0  0  0
    3.5595    2.4735   -0.9087 H   0  0  0  0  0  0  0  0  0  0  0  0
   -7.7170   -1.9179    1.5723 N   0  3  0  0  0  0  0  0  0  0  0  0
   -7.9302   -2.8191    1.1949 H   0  0  0  0  0  0  0  0  0  0  0  0
  1  2  1  0  0  0  0
  1 25  1  0  0  0  0
  1 26  1  0  0  0  0
  1 27  1  0  0  0  0
  2  3  1  0  0  0  0
  2 15  1  0  0  0  0
  3  4  1  0  0  0  0
  3 28  1  0  0  0  0
  3 29  1  0  0  0  0
  4  9  2  0  0  0  0
  4  5  1  0  0  0  0
  5  6  2  0  0  0  0
  5 30  1  0  0  0  0
  6  7  1  0  0  0  0
  6 31  1  0  0  0  0
  7  8  2  0  0  0  0
  7 45  1  0  0  0  0
  8  9  1  0  0  0  0
  8 10  1  0  0  0  0
 10 11  2  0  0  0  0
 10 14  1  0  0  0  0
 11 12  1  0  0  0  0
 12 13  1  0  0  0  0
 12 45  2  0  0  0  0
 13 32  1  0  0  0  0
 13 33  1  0  0  0  0
 14 34  1  0  0  0  0
 14 35  1  0  0  0  0
 15 20  2  0  0  0  0
 15 16  1  0  0  0  0
 16 17  2  0  0  0  0
 16 36  1  0  0  0  0
 17 18  1  0  0  0  0
 17 37  1  0  0  0  0
 18 19  2  0  0  0  0
 18 23  1  0  0  0  0
 19 20  1  0  0  0  0
 19 38  1  0  0  0  0
 20 21  1  0  0  0  0
 21 22  1  0  0  0  0
 22 39  1  0  0  0  0
 22 40  1  0  0  0  0
 22 41  1  0  0  0  0
 23 24  1  0  0  0  0
 24 42  1  0  0  0  0
 24 43  1  0  0  0  0
 24 44  1  0  0  0  0
 45 46  1  0  0  0  0
M  CHG  1  45   1
M  END
$$$$
ZINC03814910
  -OEChem-08230709403D

 45 47  0     1  0  0  0  0  0999 V2000
   -1.9479   -0.4810    1.2511 C   0  0  0  0  0  0  0  0  0  0  0  0
   -1.1995   -0.7215    0.0101 N   0  0  1  0  0  0  0  0  0  0  0  0
   -2.0148   -0.3963   -1.1678 C   0  0  0  0  0  0  0  0  0  0  0  0
   -3.1740   -1.3551   -1.2567 C   0  0  0  0  0  0  0  0  0  0  0  0
   -4.4010   -0.9901   -0.7069 C   0  0  0  0  0  0  0  0  0  0  0  0
   -5.4649   -1.8451   -0.7819 C   0  0  0  0  0  0  0  0  0  0  0  0
   -5.2726   -3.0854   -1.4140 C   0  0  0  0  0  0  0  0  0  0  0  0
   -3.9968   -3.3908   -1.9451 C   0  0  0  0  0  0  0  0  0  0  0  0
   -3.0010   -2.5154   -1.8454 N   0  0  0  0  0  0  0  0  0  0  0  0
   -3.8267   -4.6900   -2.5975 C   0  0  0  0  0  0  0  0  0  0  0  0
   -4.8773   -5.4965   -2.6493 N   0  0  0  0  0  0  0  0  0  0  0  0
   -6.0480   -5.1429   -2.1281 C   0  0  0  0  0  0  0  0  0  0  0  0
   -6.2557   -3.9868   -1.5307 N   0  0  0  0  0  0  0  0  0  0  0  0
   -7.1022   -6.0340   -2.2178 N   0  0  0  0  0  0  0  0  0  0  0  0
   -2.6148   -5.0624   -3.1394 N   0  0  0  0  0  0  0  0  0  0  0  0
    0.0021   -0.0041    0.0020 C   0  0  0  0  0  0  0  0  0  0  0  0
   -0.0167    1.3828    0.0096 C   0  0  0  0  0  0  0  0  0  0  0  0
    1.1753    2.0908    0.0021 C   0  0  0  0  0  0  0  0  0  0  0  0
    2.3855    1.4132   -0.0136 C   0  0  0  0  0  0  0  0  0  0  0  0
    2.4067    0.0307   -0.0208 C   0  0  0  0  0  0  0  0  0  0  0  0
    1.2191   -0.6815   -0.0132 C   0  0  0  0  0  0  0  0  0  0  0  0
    1.2411   -2.0422   -0.0212 O   0  0  0  0  0  0  0  0  0  0  0  0
    2.5246   -2.6702   -0.0368 C   0  0  0  0  0  0  0  0  0  0  0  0
    1.1579    3.4504    0.0095 O   0  0  0  0  0  0  0  0  0  0  0  0
    2.4228    4.1154    0.0010 C   0  0  0  0  0  0  0  0  0  0  0  0
   -2.1747    0.5816    1.3384 H   0  0  0  0  0  0  0  0  0  0  0  0
   -2.8772   -1.0504    1.2311 H   0  0  0  0  0  0  0  0  0  0  0  0
   -1.3472   -0.7956    2.1044 H   0  0  0  0  0  0  0  0  0  0  0  0
   -2.3919    0.6225   -1.0786 H   0  0  0  0  0  0  0  0  0  0  0  0
   -1.4041   -0.4802   -2.0668 H   0  0  0  0  0  0  0  0  0  0  0  0
   -4.5126   -0.0301   -0.2249 H   0  0  0  0  0  0  0  0  0  0  0  0
   -6.4241   -1.5768   -0.3643 H   0  0  0  0  0  0  0  0  0  0  0  0
   -6.9765   -6.8919   -2.6527 H   0  0  0  0  0  0  0  0  0  0  0  0
   -7.9672   -5.8010   -1.8458 H   0  0  0  0  0  0  0  0  0  0  0  0
   -1.8566   -4.4593   -3.0921 H   0  0  0  0  0  0  0  0  0  0  0  0
   -2.5205   -5.9274   -3.5681 H   0  0  0  0  0  0  0  0  0  0  0  0
   -0.9589    1.9106    0.0170 H   0  0  0  0  0  0  0  0  0  0  0  0
    3.3129    1.9666   -0.0198 H   0  0  0  0  0  0  0  0  0  0  0  0
    3.3504   -0.4942   -0.0326 H   0  0  0  0  0  0  0  0  0  0  0  0
    2.3992   -3.7530   -0.0418 H   0  0  0  0  0  0  0  0  0  0  0  0
    3.0684   -2.3633   -0.9302 H   0  0  0  0  0  0  0  0  0  0  0  0
    3.0851   -2.3735    0.8497 H   0  0  0  0  0  0  0  0  0  0  0  0
    2.9919    3.8249    0.8841 H   0  0  0  0  0  0  0  0  0  0  0  0
    2.9749    3.8345   -0.8958 H   0  0  0  0  0  0  0  0  0  0  0  0
    2.2662    5.1941    0.0083 H   0  0  0  0  0  0  0  0  0  0  0  0
  1  2  1  0  0  0  0
  1 26  1  0  0  0  0
  1 27  1  0  0  0  0
  1 28  1  0  0  0  0
  2  3  1  0  0  0  0
  2 16  1  0  0  0  0
  3  4  1  0  0  0  0
  3 29  1  0  0  0  0
  3 30  1  0  0  0  0
  4  9  2  0  0  0  0
  4  5  1  0  0  0  0
  5  6  2  0  0  0  0
  5 31  1  0  0  0  0
  6  7  1  0  0  0  0
  6 32  1  0  0  0  0
  7 13  2  0  0  0  0
  7  8  1  0  0  0  0
  8  9  1  0  0  0  0
  8 10  2  0  0  0  0
 10 11  1  0  0  0  0
 10 15  1  0  0  0  0
 11 12  2  0  0  0  0
 12 13  1  0  0  0  0
 12 14  1  0  0  0  0
 14 33  1  0  0  0  0
 14 34  1  0  0  0  0
 15 35  1  0  0  0  0
 15 36  1  0  0  0  0
 16 21  2  0  0  0  0
 16 17  1  0  0  0  0
 17 18  2  0  0  0  0
 17 37  1  0  0  0  0
 18 19  1  0  0  0  0
 18 24  1  0  0  0  0
 19 20  2  0  0  0  0
 19 38  1  0  0  0  0
 20 21  1  0  0  0  0
 20 39  1  0  0  0  0
 21 22  1  0  0  0  0
 22 23  1  0  0  0  0
 23 40  1  0  0  0  0
 23 41  1  0  0  0  0
 23 42  1  0  0  0  0
 24 25  1  0  0  0  0
 25 43  1  0  0  0  0
 25 44  1  0  0  0  0
 25 45  1  0  0  0  0
M  END
$$$$
ZINC03814910
  -OEChem-08230709403D

 46 48  0     1  0  0  0  0  0999 V2000
   -1.9479   -0.4810    1.2511 C   0  0  0  0  0  0  0  0  0  0  0  0
   -1.1995   -0.7215    0.0101 N   0  0  1  0  0  0  0  0  0  0  0  0
   -2.0148   -0.3963   -1.1678 C   0  0  0  0  0  0  0  0  0  0  0  0
   -3.1740   -1.3551   -1.2567 C   0  0  0  0  0  0  0  0  0  0  0  0
   -4.4010   -0.9901   -0.7069 C   0  0  0  0  0  0  0  0  0  0  0  0
   -5.4649   -1.8451   -0.7819 C   0  0  0  0  0  0  0  0  0  0  0  0
   -5.2726   -3.0854   -1.4140 C   0  0  0  0  0  0  0  0  0  0  0  0
   -3.9968   -3.3908   -1.9451 C   0  0  0  0  0  0  0  0  0  0  0  0
   -3.0010   -2.5154   -1.8454 N   0  0  0  0  0  0  0  0  0  0  0  0
   -3.8267   -4.6900   -2.5975 C   0  0  0  0  0  0  0  0  0  0  0  0
   -4.8773   -5.4965   -2.6493 N   0  0  0  0  0  0  0  0  0  0  0  0
   -6.0480   -5.1429   -2.1281 C   0  0  0  0  0  0  0  0  0  0  0  0
   -7.1022   -6.0340   -2.2178 N   0  0  0  0  0  0  0  0  0  0  0  0
   -2.6148   -5.0624   -3.1394 N   0  0  0  0  0  0  0  0  0  0  0  0
    0.0021   -0.0041    0.0020 C   0  0  0  0  0  0  0  0  0  0  0  0
   -0.0167    1.3828    0.0096 C   0  0  0  0  0  0  0  0  0  0  0  0
    1.1753    2.0908    0.0021 C   0  0  0  0  0  0  0  0  0  0  0  0
    2.3855    1.4132   -0.0136 C   0  0  0  0  0  0  0  0  0  0  0  0
    2.4067    0.0307   -0.0208 C   0  0  0  0  0  0  0  0  0  0  0  0
    1.2191   -0.6815   -0.0132 C   0  0  0  0  0  0  0  0  0  0  0  0
    1.2411   -2.0422   -0.0212 O   0  0  0  0  0  0  0  0  0  0  0  0
    2.5246   -2.6702   -0.0368 C   0  0  0  0  0  0  0  0  0  0  0  0
    1.1579    3.4504    0.0095 O   0  0  0  0  0  0  0  0  0  0  0  0
    2.4228    4.1154    0.0010 C   0  0  0  0  0  0  0  0  0  0  0  0
   -2.1747    0.5816    1.3384 H   0  0  0  0  0  0  0  0  0  0  0  0
   -2.8772   -1.0504    1.2311 H   0  0  0  0  0  0  0  0  0  0  0  0
   -1.3472   -0.7956    2.1044 H   0  0  0  0  0  0  0  0  0  0  0  0
   -2.3919    0.6225   -1.0786 H   0  0  0  0  0  0  0  0  0  0  0  0
   -1.4041   -0.4802   -2.0668 H   0  0  0  0  0  0  0  0  0  0  0  0
   -4.5126   -0.0301   -0.2249 H   0  0  0  0  0  0  0  0  0  0  0  0
   -6.4241   -1.5768   -0.3643 H   0  0  0  0  0  0  0  0  0  0  0  0
   -6.9765   -6.8919   -2.6527 H   0  0  0  0  0  0  0  0  0  0  0  0
   -7.9672   -5.8010   -1.8458 H   0  0  0  0  0  0  0  0  0  0  0  0
   -1.8566   -4.4593   -3.0921 H   0  0  0  0  0  0  0  0  0  0  0  0
   -2.5205   -5.9274   -3.5681 H   0  0  0  0  0  0  0  0  0  0  0  0
   -0.9589    1.9106    0.0170 H   0  0  0  0  0  0  0  0  0  0  0  0
    3.3129    1.9666   -0.0198 H   0  0  0  0  0  0  0  0  0  0  0  0
    3.3504   -0.4942   -0.0326 H   0  0  0  0  0  0  0  0  0  0  0  0
    2.3992   -3.7530   -0.0418 H   0  0  0  0  0  0  0  0  0  0  0  0
    3.0684   -2.3633   -0.9302 H   0  0  0  0  0  0  0  0  0  0  0  0
    3.0851   -2.3735    0.8497 H   0  0  0  0  0  0  0  0  0  0  0  0
    2.9919    3.8249    0.8841 H   0  0  0  0  0  0  0  0  0  0  0  0
    2.9749    3.8345   -0.8958 H   0  0  0  0  0  0  0  0  0  0  0  0
    2.2662    5.1941    0.0083 H   0  0  0  0  0  0  0  0  0  0  0  0
   -6.3236   -3.9716   -1.5030 N   0  3  0  0  0  0  0  0  0  0  0  0
   -7.2151   -3.7300   -1.1196 H   0  0  0  0  0  0  0  0  0  0  0  0
  1  2  1  0  0  0  0
  1 25  1  0  0  0  0
  1 26  1  0  0  0  0
  1 27  1  0  0  0  0
  2  3  1  0  0  0  0
  2 15  1  0  0  0  0
  3  4  1  0  0  0  0
  3 28  1  0  0  0  0
  3 29  1  0  0  0  0
  4  9  2  0  0  0  0
  4  5  1  0  0  0  0
  5  6  2  0  0  0  0
  5 30  1  0  0  0  0
  6  7  1  0  0  0  0
  6 31  1  0  0  0  0
  7  8  2  0  0  0  0
  7 45  1  0  0  0  0
  8  9  1  0  0  0  0
  8 10  1  0  0  0  0
 10 11  2  0  0  0  0
 10 14  1  0  0  0  0
 11 12  1  0  0  0  0
 12 13  1  0  0  0  0
 12 45  2  0  0  0  0
 13 32  1  0  0  0  0
 13 33  1  0  0  0  0
 14 34  1  0  0  0  0
 14 35  1  0  0  0  0
 15 20  2  0  0  0  0
 15 16  1  0  0  0  0
 16 17  2  0  0  0  0
 16 36  1  0  0  0  0
 17 18  1  0  0  0  0
 17 23  1  0  0  0  0
 18 19  2  0  0  0  0
 18 37  1  0  0  0  0
 19 20  1  0  0  0  0
 19 38  1  0  0  0  0
 20 21  1  0  0  0  0
 21 22  1  0  0  0  0
 22 39  1  0  0  0  0
 22 40  1  0  0  0  0
 22 41  1  0  0  0  0
 23 24  1  0  0  0  0
 24 42  1  0  0  0  0
 24 43  1  0  0  0  0
 24 44  1  0  0  0  0
 45 46  1  0  0  0  0
M  CHG  1  45   1
M  END
$$$$
ZINC03814911
  -OEChem-08230709403D

 42 44  0     0  0  0  0  0  0999 V2000
    4.7646    1.3379   -0.0372 C   0  0  0  0  0  0  0  0  0  0  0  0
    3.5577    2.1028   -0.0211 O   0  0  0  0  0  0  0  0  0  0  0  0
    2.3867    1.4092   -0.0132 C   0  0  0  0  0  0  0  0  0  0  0  0
    2.4022    0.0239   -0.0207 C   0  0  0  0  0  0  0  0  0  0  0  0
    1.2139   -0.6819   -0.0132 C   0  0  0  0  0  0  0  0  0  0  0  0
    0.0021   -0.0041    0.0020 C   0  0  0  0  0  0  0  0  0  0  0  0
   -0.0168    1.3840    0.0097 C   0  0  0  0  0  0  0  0  0  0  0  0
    1.1742    2.0914    0.0021 C   0  0  0  0  0  0  0  0  0  0  0  0
    1.1583    3.4512    0.0091 O   0  0  0  0  0  0  0  0  0  0  0  0
   -0.1224    4.0849    0.0243 C   0  0  0  0  0  0  0  0  0  0  0  0
   -1.2000   -0.7201    0.0092 N   0  0  0  0  0  0  0  0  0  0  0  0
   -1.1801   -2.1850    0.0011 C   0  0  0  0  0  0  0  0  0  0  0  0
   -2.5939   -2.7066    0.0113 C   0  0  0  0  0  0  0  0  0  0  0  0
   -3.2075   -3.0292   -1.1972 C   0  0  0  0  0  0  0  0  0  0  0  0
   -4.4879   -3.5080   -1.2072 C   0  0  0  0  0  0  0  0  0  0  0  0
   -5.1501   -3.6492    0.0242 C   0  0  0  0  0  0  0  0  0  0  0  0
   -4.4661   -3.2966    1.2120 C   0  0  0  0  0  0  0  0  0  0  0  0
   -3.2183   -2.8405    1.1580 N   0  0  0  0  0  0  0  0  0  0  0  0
   -5.1815   -3.4545    2.4792 C   0  0  0  0  0  0  0  0  0  0  0  0
   -6.4227   -3.9171    2.4334 N   0  0  0  0  0  0  0  0  0  0  0  0
   -7.0034   -4.2287    1.2789 C   0  0  0  0  0  0  0  0  0  0  0  0
   -6.4055   -4.1064    0.1109 N   0  0  0  0  0  0  0  0  0  0  0  0
   -8.3013   -4.7063    1.3050 N   0  0  0  0  0  0  0  0  0  0  0  0
   -4.5846   -3.1324    3.6797 N   0  0  0  0  0  0  0  0  0  0  0  0
    4.7876    0.7142   -0.9308 H   0  0  0  0  0  0  0  0  0  0  0  0
    5.6216    2.0115   -0.0421 H   0  0  0  0  0  0  0  0  0  0  0  0
    4.8053    0.7046    0.8491 H   0  0  0  0  0  0  0  0  0  0  0  0
    3.3437   -0.5050   -0.0329 H   0  0  0  0  0  0  0  0  0  0  0  0
    1.2280   -1.7618   -0.0188 H   0  0  0  0  0  0  0  0  0  0  0  0
   -0.9590    1.9119    0.0170 H   0  0  0  0  0  0  0  0  0  0  0  0
   -0.6843    3.7900   -0.8620 H   0  0  0  0  0  0  0  0  0  0  0  0
   -0.6676    3.7810    0.9179 H   0  0  0  0  0  0  0  0  0  0  0  0
    0.0077    5.1671    0.0285 H   0  0  0  0  0  0  0  0  0  0  0  0
   -2.0466   -0.2466    0.0195 H   0  0  0  0  0  0  0  0  0  0  0  0
   -0.6696   -2.5365   -0.8955 H   0  0  0  0  0  0  0  0  0  0  0  0
   -0.6533   -2.5460    0.8844 H   0  0  0  0  0  0  0  0  0  0  0  0
   -2.6703   -2.9048   -2.1258 H   0  0  0  0  0  0  0  0  0  0  0  0
   -4.9775   -3.7664   -2.1345 H   0  0  0  0  0  0  0  0  0  0  0  0
   -8.7644   -4.8063    2.1514 H   0  0  0  0  0  0  0  0  0  0  0  0
   -8.7484   -4.9412    0.4768 H   0  0  0  0  0  0  0  0  0  0  0  0
   -3.6754   -2.7948    3.6941 H   0  0  0  0  0  0  0  0  0  0  0  0
   -5.0740   -3.2435    4.5098 H   0  0  0  0  0  0  0  0  0  0  0  0
  1  2  1  0  0  0  0
  1 25  1  0  0  0  0
  1 26  1  0  0  0  0
  1 27  1  0  0  0  0
  2  3  1  0  0  0  0
  3  8  2  0  0  0  0
  3  4  1  0  0  0  0
  4  5  2  0  0  0  0
  4 28  1  0  0  0  0
  5  6  1  0  0  0  0
  5 29  1  0  0  0  0
  6  7  2  0  0  0  0
  6 11  1  0  0  0  0
  7  8  1  0  0  0  0
  7 30  1  0  0  0  0
  8  9  1  0  0  0  0
  9 10  1  0  0  0  0
 10 31  1  0  0  0  0
 10 32  1  0  0  0  0
 10 33  1  0  0  0  0
 11 12  1  0  0  0  0
 11 34  1  0  0  0  0
 12 13  1  0  0  0  0
 12 35  1  0  0  0  0
 12 36  1  0  0  0  0
 13 18  2  0  0  0  0
 13 14  1  0  0  0  0
 14 15  2  0  0  0  0
 14 37  1  0  0  0  0
 15 16  1  0  0  0  0
 15 38  1  0  0  0  0
 16 22  2  0  0  0  0
 16 17  1  0  0  0  0
 17 18  1  0  0  0  0
 17 19  2  0  0  0  0
 19 20  1  0  0  0  0
 19 24  1  0  0  0  0
 20 21  2  0  0  0  0
 21 22  1  0  0  0  0
 21 23  1  0  0  0  0
 23 39  1  0  0  0  0
 23 40  1  0  0  0  0
 24 41  1  0  0  0  0
 24 42  1  0  0  0  0
M  END
$$$$
ZINC03814911
  -OEChem-08230709403D

 43 45  0     0  0  0  0  0  0999 V2000
    4.7646    1.3379   -0.0372 C   0  0  0  0  0  0  0  0  0  0  0  0
    3.5577    2.1028   -0.0211 O   0  0  0  0  0  0  0  0  0  0  0  0
    2.3867    1.4092   -0.0132 C   0  0  0  0  0  0  0  0  0  0  0  0
    2.4022    0.0239   -0.0207 C   0  0  0  0  0  0  0  0  0  0  0  0
    1.2139   -0.6819   -0.0132 C   0  0  0  0  0  0  0  0  0  0  0  0
    0.0021   -0.0041    0.0020 C   0  0  0  0  0  0  0  0  0  0  0  0
   -0.0168    1.3840    0.0097 C   0  0  0  0  0  0  0  0  0  0  0  0
    1.1742    2.0914    0.0021 C   0  0  0  0  0  0  0  0  0  0  0  0
    1.1583    3.4512    0.0091 O   0  0  0  0  0  0  0  0  0  0  0  0
   -0.1224    4.0849    0.0243 C   0  0  0  0  0  0  0  0  0  0  0  0
   -1.2000   -0.7201    0.0092 N   0  0  0  0  0  0  0  0  0  0  0  0
   -1.1801   -2.1850    0.0011 C   0  0  0  0  0  0  0  0  0  0  0  0
   -2.5939   -2.7066    0.0113 C   0  0  0  0  0  0  0  0  0  0  0  0
   -3.2075   -3.0292   -1.1972 C   0  0  0  0  0  0  0  0  0  0  0  0
   -4.4879   -3.5080   -1.2072 C   0  0  0  0  0  0  0  0  0  0  0  0
   -5.1501   -3.6492    0.0242 C   0  0  0  0  0  0  0  0  0  0  0  0
   -4.4661   -3.2966    1.2120 C   0  0  0  0  0  0  0  0  0  0  0  0
   -3.2183   -2.8405    1.1580 N   0  0  0  0  0  0  0  0  0  0  0  0
   -5.1815   -3.4545    2.4792 C   0  0  0  0  0  0  0  0  0  0  0  0
   -6.4227   -3.9171    2.4334 N   0  0  0  0  0  0  0  0  0  0  0  0
   -7.0034   -4.2287    1.2789 C   0  0  0  0  0  0  0  0  0  0  0  0
   -8.3013   -4.7063    1.3050 N   0  0  0  0  0  0  0  0  0  0  0  0
   -4.5846   -3.1324    3.6797 N   0  0  0  0  0  0  0  0  0  0  0  0
    4.7876    0.7142   -0.9308 H   0  0  0  0  0  0  0  0  0  0  0  0
    5.6216    2.0115   -0.0421 H   0  0  0  0  0  0  0  0  0  0  0  0
    4.8053    0.7046    0.8491 H   0  0  0  0  0  0  0  0  0  0  0  0
    3.3437   -0.5050   -0.0329 H   0  0  0  0  0  0  0  0  0  0  0  0
    1.2280   -1.7618   -0.0188 H   0  0  0  0  0  0  0  0  0  0  0  0
   -0.9590    1.9119    0.0170 H   0  0  0  0  0  0  0  0  0  0  0  0
   -0.6843    3.7900   -0.8620 H   0  0  0  0  0  0  0  0  0  0  0  0
   -0.6676    3.7810    0.9179 H   0  0  0  0  0  0  0  0  0  0  0  0
    0.0077    5.1671    0.0285 H   0  0  0  0  0  0  0  0  0  0  0  0
   -2.0466   -0.2466    0.0195 H   0  0  0  0  0  0  0  0  0  0  0  0
   -0.6696   -2.5365   -0.8955 H   0  0  0  0  0  0  0  0  0  0  0  0
   -0.6533   -2.5460    0.8844 H   0  0  0  0  0  0  0  0  0  0  0  0
   -2.6703   -2.9048   -2.1258 H   0  0  0  0  0  0  0  0  0  0  0  0
   -4.9775   -3.7664   -2.1345 H   0  0  0  0  0  0  0  0  0  0  0  0
   -8.7644   -4.8063    2.1514 H   0  0  0  0  0  0  0  0  0  0  0  0
   -8.7484   -4.9412    0.4768 H   0  0  0  0  0  0  0  0  0  0  0  0
   -3.6754   -2.7948    3.6941 H   0  0  0  0  0  0  0  0  0  0  0  0
   -5.0740   -3.2435    4.5098 H   0  0  0  0  0  0  0  0  0  0  0  0
   -6.4425   -4.1254    0.0486 N   0  3  0  0  0  0  0  0  0  0  0  0
   -6.9023   -4.3679   -0.8058 H   0  0  0  0  0  0  0  0  0  0  0  0
  1  2  1  0  0  0  0
  1 24  1  0  0  0  0
  1 25  1  0  0  0  0
  1 26  1  0  0  0  0
  2  3  1  0  0  0  0
  3  8  2  0  0  0  0
  3  4  1  0  0  0  0
  4  5  2  0  0  0  0
  4 27  1  0  0  0  0
  5  6  1  0  0  0  0
  5 28  1  0  0  0  0
  6  7  2  0  0  0  0
  6 11  1  0  0  0  0
  7  8  1  0  0  0  0
  7 29  1  0  0  0  0
  8  9  1  0  0  0  0
  9 10  1  0  0  0  0
 10 30  1  0  0  0  0
 10 31  1  0  0  0  0
 10 32  1  0  0  0  0
 11 12  1  0  0  0  0
 11 33  1  0  0  0  0
 12 13  1  0  0  0  0
 12 34  1  0  0  0  0
 12 35  1  0  0  0  0
 13 18  2  0  0  0  0
 13 14  1  0  0  0  0
 14 15  2  0  0  0  0
 14 36  1  0  0  0  0
 15 16  1  0  0  0  0
 15 37  1  0  0  0  0
 16 17  2  0  0  0  0
 16 42  1  0  0  0  0
 17 18  1  0  0  0  0
 17 19  1  0  0  0  0
 19 20  2  0  0  0  0
 19 23  1  0  0  0  0
 20 21  1  0  0  0  0
 21 22  1  0  0  0  0
 21 42  2  0  0  0  0
 22 38  1  0  0  0  0
 22 39  1  0  0  0  0
 23 40  1  0  0  0  0
 23 41  1  0  0  0  0
 42 43  1  0  0  0  0
M  CHG  1  42   1
M  END
$$$$
ZINC03814912
  -OEChem-08230709403D

 45 47  0     1  0  0  0  0  0999 V2000
   -0.0001   -0.7297   -1.2707 C   0  0  0  0  0  0  0  0  0  0  0  0
    0.0021   -0.0041    0.0020 N   0  0  3  0  0  0  0  0  0  0  0  0
   -0.0178    1.4608    0.0101 C   0  0  0  0  0  0  0  0  0  0  0  0
    1.3960    1.9824   -0.0006 C   0  0  0  0  0  0  0  0  0  0  0  0
    1.9869    2.3181   -1.2168 C   0  0  0  0  0  0  0  0  0  0  0  0
    3.2669    2.7970   -1.2456 C   0  0  0  0  0  0  0  0  0  0  0  0
    3.9521    2.9251   -0.0254 C   0  0  0  0  0  0  0  0  0  0  0  0
    3.2904    2.5596    1.1711 C   0  0  0  0  0  0  0  0  0  0  0  0
    2.0418    2.1040    1.1356 N   0  0  0  0  0  0  0  0  0  0  0  0
    4.0294    2.7039    2.4264 C   0  0  0  0  0  0  0  0  0  0  0  0
    5.2696    3.1671    2.3623 N   0  0  0  0  0  0  0  0  0  0  0  0
    5.8286    3.4912    1.2006 C   0  0  0  0  0  0  0  0  0  0  0  0
    5.2089    3.3814    0.0427 N   0  0  0  0  0  0  0  0  0  0  0  0
    7.1268    3.9686    1.2075 N   0  0  0  0  0  0  0  0  0  0  0  0
    3.4550    2.3690    3.6342 N   0  0  0  0  0  0  0  0  0  0  0  0
    0.0231   -0.7101    1.2099 C   0  0  0  0  0  0  0  0  0  0  0  0
    0.0309   -0.0223    2.4162 C   0  0  0  0  0  0  0  0  0  0  0  0
    0.0464   -0.7183    3.6101 C   0  0  0  0  0  0  0  0  0  0  0  0
    0.0647   -2.1035    3.6059 C   0  0  0  0  0  0  0  0  0  0  0  0
    0.0627   -2.7957    2.3989 C   0  0  0  0  0  0  0  0  0  0  0  0
    0.0420   -2.0982    1.2023 C   0  0  0  0  0  0  0  0  0  0  0  0
    0.0808   -4.1554    2.3939 O   0  0  0  0  0  0  0  0  0  0  0  0
    0.0770   -4.7997    1.1184 C   0  0  0  0  0  0  0  0  0  0  0  0
    0.0851   -2.7873    4.7824 O   0  0  0  0  0  0  0  0  0  0  0  0
    0.0859   -2.0126    5.9831 C   0  0  0  0  0  0  0  0  0  0  0  0
    1.0269   -0.8956   -1.5960 H   0  0  0  0  0  0  0  0  0  0  0  0
   -0.4997   -1.6897   -1.1407 H   0  0  0  0  0  0  0  0  0  0  0  0
   -0.5291   -0.1436   -2.0222 H   0  0  0  0  0  0  0  0  0  0  0  0
   -0.5450    1.8219   -0.8730 H   0  0  0  0  0  0  0  0  0  0  0  0
   -0.5280    1.8123    0.9069 H   0  0  0  0  0  0  0  0  0  0  0  0
    1.4323    2.2035   -2.1365 H   0  0  0  0  0  0  0  0  0  0  0  0
    3.7391    3.0654   -2.1791 H   0  0  0  0  0  0  0  0  0  0  0  0
    7.6057    4.0595    2.0461 H   0  0  0  0  0  0  0  0  0  0  0  0
    7.5584    4.2124    0.3737 H   0  0  0  0  0  0  0  0  0  0  0  0
    2.5462    2.0311    3.6620 H   0  0  0  0  0  0  0  0  0  0  0  0
    3.9598    2.4711    4.4562 H   0  0  0  0  0  0  0  0  0  0  0  0
    0.0211    1.0577    2.4214 H   0  0  0  0  0  0  0  0  0  0  0  0
    0.0482   -0.1817    4.5473 H   0  0  0  0  0  0  0  0  0  0  0  0
    0.0408   -2.6337    0.2644 H   0  0  0  0  0  0  0  0  0  0  0  0
   -0.8221   -4.5167    0.5711 H   0  0  0  0  0  0  0  0  0  0  0  0
    0.9576   -4.4931    0.5539 H   0  0  0  0  0  0  0  0  0  0  0  0
    0.0927   -5.8807    1.2573 H   0  0  0  0  0  0  0  0  0  0  0  0
   -0.8123   -1.3960    6.0183 H   0  0  0  0  0  0  0  0  0  0  0  0
    0.1031   -2.6790    6.8455 H   0  0  0  0  0  0  0  0  0  0  0  0
    0.9675   -1.3718    6.0015 H   0  0  0  0  0  0  0  0  0  0  0  0
  1  2  1  0  0  0  0
  1 26  1  0  0  0  0
  1 27  1  0  0  0  0
  1 28  1  0  0  0  0
  2  3  1  0  0  0  0
  2 16  1  0  0  0  0
  3  4  1  0  0  0  0
  3 29  1  0  0  0  0
  3 30  1  0  0  0  0
  4  9  2  0  0  0  0
  4  5  1  0  0  0  0
  5  6  2  0  0  0  0
  5 31  1  0  0  0  0
  6  7  1  0  0  0  0
  6 32  1  0  0  0  0
  7 13  2  0  0  0  0
  7  8  1  0  0  0  0
  8  9  1  0  0  0  0
  8 10  2  0  0  0  0
 10 11  1  0  0  0  0
 10 15  1  0  0  0  0
 11 12  2  0  0  0  0
 12 13  1  0  0  0  0
 12 14  1  0  0  0  0
 14 33  1  0  0  0  0
 14 34  1  0  0  0  0
 15 35  1  0  0  0  0
 15 36  1  0  0  0  0
 16 21  2  0  0  0  0
 16 17  1  0  0  0  0
 17 18  2  0  0  0  0
 17 37  1  0  0  0  0
 18 19  1  0  0  0  0
 18 38  1  0  0  0  0
 19 20  2  0  0  0  0
 19 24  1  0  0  0  0
 20 21  1  0  0  0  0
 20 22  1  0  0  0  0
 21 39  1  0  0  0  0
 22 23  1  0  0  0  0
 23 40  1  0  0  0  0
 23 41  1  0  0  0  0
 23 42  1  0  0  0  0
 24 25  1  0  0  0  0
 25 43  1  0  0  0  0
 25 44  1  0  0  0  0
 25 45  1  0  0  0  0
M  END
$$$$
ZINC03814912
  -OEChem-08230709403D

 46 48  0     1  0  0  0  0  0999 V2000
   -0.0001   -0.7297   -1.2707 C   0  0  0  0  0  0  0  0  0  0  0  0
    0.0021   -0.0041    0.0020 N   0  0  3  0  0  0  0  0  0  0  0  0
   -0.0178    1.4608    0.0101 C   0  0  0  0  0  0  0  0  0  0  0  0
    1.3960    1.9824   -0.0006 C   0  0  0  0  0  0  0  0  0  0  0  0
    1.9869    2.3181   -1.2168 C   0  0  0  0  0  0  0  0  0  0  0  0
    3.2669    2.7970   -1.2456 C   0  0  0  0  0  0  0  0  0  0  0  0
    3.9521    2.9251   -0.0254 C   0  0  0  0  0  0  0  0  0  0  0  0
    3.2904    2.5596    1.1711 C   0  0  0  0  0  0  0  0  0  0  0  0
    2.0418    2.1040    1.1356 N   0  0  0  0  0  0  0  0  0  0  0  0
    4.0294    2.7039    2.4264 C   0  0  0  0  0  0  0  0  0  0  0  0
    5.2696    3.1671    2.3623 N   0  0  0  0  0  0  0  0  0  0  0  0
    5.8286    3.4912    1.2006 C   0  0  0  0  0  0  0  0  0  0  0  0
    7.1268    3.9686    1.2075 N   0  0  0  0  0  0  0  0  0  0  0  0
    3.4550    2.3690    3.6342 N   0  0  0  0  0  0  0  0  0  0  0  0
    0.0231   -0.7101    1.2099 C   0  0  0  0  0  0  0  0  0  0  0  0
    0.0309   -0.0223    2.4162 C   0  0  0  0  0  0  0  0  0  0  0  0
    0.0464   -0.7183    3.6101 C   0  0  0  0  0  0  0  0  0  0  0  0
    0.0647   -2.1035    3.6059 C   0  0  0  0  0  0  0  0  0  0  0  0
    0.0627   -2.7957    2.3989 C   0  0  0  0  0  0  0  0  0  0  0  0
    0.0420   -2.0982    1.2023 C   0  0  0  0  0  0  0  0  0  0  0  0
    0.0808   -4.1554    2.3939 O   0  0  0  0  0  0  0  0  0  0  0  0
    0.0770   -4.7997    1.1184 C   0  0  0  0  0  0  0  0  0  0  0  0
    0.0851   -2.7873    4.7824 O   0  0  0  0  0  0  0  0  0  0  0  0
    0.0859   -2.0126    5.9831 C   0  0  0  0  0  0  0  0  0  0  0  0
    1.0269   -0.8956   -1.5960 H   0  0  0  0  0  0  0  0  0  0  0  0
   -0.4997   -1.6897   -1.1407 H   0  0  0  0  0  0  0  0  0  0  0  0
   -0.5291   -0.1436   -2.0222 H   0  0  0  0  0  0  0  0  0  0  0  0
   -0.5450    1.8219   -0.8730 H   0  0  0  0  0  0  0  0  0  0  0  0
   -0.5280    1.8123    0.9069 H   0  0  0  0  0  0  0  0  0  0  0  0
    1.4323    2.2035   -2.1365 H   0  0  0  0  0  0  0  0  0  0  0  0
    3.7391    3.0654   -2.1791 H   0  0  0  0  0  0  0  0  0  0  0  0
    7.6057    4.0595    2.0461 H   0  0  0  0  0  0  0  0  0  0  0  0
    7.5584    4.2124    0.3737 H   0  0  0  0  0  0  0  0  0  0  0  0
    2.5462    2.0311    3.6620 H   0  0  0  0  0  0  0  0  0  0  0  0
    3.9598    2.4711    4.4562 H   0  0  0  0  0  0  0  0  0  0  0  0
    0.0211    1.0577    2.4214 H   0  0  0  0  0  0  0  0  0  0  0  0
    0.0482   -0.1817    4.5473 H   0  0  0  0  0  0  0  0  0  0  0  0
    0.0408   -2.6337    0.2644 H   0  0  0  0  0  0  0  0  0  0  0  0
   -0.8221   -4.5167    0.5711 H   0  0  0  0  0  0  0  0  0  0  0  0
    0.9576   -4.4931    0.5539 H   0  0  0  0  0  0  0  0  0  0  0  0
    0.0927   -5.8807    1.2573 H   0  0  0  0  0  0  0  0  0  0  0  0
   -0.8123   -1.3960    6.0183 H   0  0  0  0  0  0  0  0  0  0  0  0
    0.1031   -2.6790    6.8455 H   0  0  0  0  0  0  0  0  0  0  0  0
    0.9675   -1.3718    6.0015 H   0  0  0  0  0  0  0  0  0  0  0  0
    5.2448    3.4011   -0.0201 N   0  3  0  0  0  0  0  0  0  0  0  0
    5.6885    3.6527   -0.8802 H   0  0  0  0  0  0  0  0  0  0  0  0
  1  2  1  0  0  0  0
  1 25  1  0  0  0  0
  1 26  1  0  0  0  0
  1 27  1  0  0  0  0
  2  3  1  0  0  0  0
  2 15  1  0  0  0  0
  3  4  1  0  0  0  0
  3 28  1  0  0  0  0
  3 29  1  0  0  0  0
  4  9  2  0  0  0  0
  4  5  1  0  0  0  0
  5  6  2  0  0  0  0
  5 30  1  0  0  0  0
  6  7  1  0  0  0  0
  6 31  1  0  0  0  0
  7  8  2  0  0  0  0
  7 45  1  0  0  0  0
  8  9  1  0  0  0  0
  8 10  1  0  0  0  0
 10 11  2  0  0  0  0
 10 14  1  0  0  0  0
 11 12  1  0  0  0  0
 12 13  1  0  0  0  0
 12 45  2  0  0  0  0
 13 32  1  0  0  0  0
 13 33  1  0  0  0  0
 14 34  1  0  0  0  0
 14 35  1  0  0  0  0
 15 20  2  0  0  0  0
 15 16  1  0  0  0  0
 16 17  2  0  0  0  0
 16 36  1  0  0  0  0
 17 18  1  0  0  0  0
 17 37  1  0  0  0  0
 18 19  2  0  0  0  0
 18 23  1  0  0  0  0
 19 20  1  0  0  0  0
 19 21  1  0  0  0  0
 20 38  1  0  0  0  0
 21 22  1  0  0  0  0
 22 39  1  0  0  0  0
 22 40  1  0  0  0  0
 22 41  1  0  0  0  0
 23 24  1  0  0  0  0
 24 42  1  0  0  0  0
 24 43  1  0  0  0  0
 24 44  1  0  0  0  0
 45 46  1  0  0  0  0
M  CHG  1  45   1
M  END
$$$$
ZINC03814913
  -OEChem-08230709403D

 34 36  0     0  0  0  0  0  0999 V2000
    1.1741    1.7834    0.0004 C   0  0  0  0  0  0  0  0  0  0  0  0
   -0.0126    1.0758    0.0080 C   0  0  0  0  0  0  0  0  0  0  0  0
   -1.2238    1.7541    0.0174 C   0  0  0  0  0  0  0  0  0  0  0  0
   -1.2389    3.1441    0.0298 C   0  0  0  0  0  0  0  0  0  0  0  0
   -0.0490    3.8463    0.0218 C   0  0  0  0  0  0  0  0  0  0  0  0
    1.1567    3.1667    0.0071 C   0  0  0  0  0  0  0  0  0  0  0  0
    2.6500    4.0519   -0.0024 Cl  0  0  0  0  0  0  0  0  0  0  0  0
   -2.7510    3.9967    0.0477 Cl  0  0  0  0  0  0  0  0  0  0  0  0
   -2.4262    1.0405    0.0197 N   0  0  0  0  0  0  0  0  0  0  0  0
   -2.4086   -0.4244    0.0121 C   0  0  0  0  0  0  0  0  0  0  0  0
   -3.8233   -0.9438    0.0164 C   0  0  0  0  0  0  0  0  0  0  0  0
   -4.4322   -1.2658   -1.1945 C   0  0  0  0  0  0  0  0  0  0  0  0
   -5.7133   -1.7425   -1.2098 C   0  0  0  0  0  0  0  0  0  0  0  0
   -6.3810   -1.8824    0.0189 C   0  0  0  0  0  0  0  0  0  0  0  0
   -5.7014   -1.5305    1.2094 C   0  0  0  0  0  0  0  0  0  0  0  0
   -4.4527   -1.0764    1.1606 N   0  0  0  0  0  0  0  0  0  0  0  0
   -6.4224   -1.6868    2.4736 C   0  0  0  0  0  0  0  0  0  0  0  0
   -7.6642   -2.1474    2.4227 N   0  0  0  0  0  0  0  0  0  0  0  0
   -8.2404   -2.4585    1.2659 C   0  0  0  0  0  0  0  0  0  0  0  0
   -7.6374   -2.3375    0.1003 N   0  0  0  0  0  0  0  0  0  0  0  0
   -9.5393   -2.9340    1.2866 N   0  0  0  0  0  0  0  0  0  0  0  0
   -5.8301   -1.3653    3.6765 N   0  0  0  0  0  0  0  0  0  0  0  0
    2.1165    1.2559   -0.0110 H   0  0  0  0  0  0  0  0  0  0  0  0
    0.0021   -0.0041    0.0020 H   0  0  0  0  0  0  0  0  0  0  0  0
   -0.0596    4.9262    0.0266 H   0  0  0  0  0  0  0  0  0  0  0  0
   -3.2720    1.5153    0.0262 H   0  0  0  0  0  0  0  0  0  0  0  0
   -1.8948   -0.7770   -0.8822 H   0  0  0  0  0  0  0  0  0  0  0  0
   -1.8861   -0.7861    0.8977 H   0  0  0  0  0  0  0  0  0  0  0  0
   -3.8908   -1.1425   -2.1208 H   0  0  0  0  0  0  0  0  0  0  0  0
   -6.1994   -2.0005   -2.1391 H   0  0  0  0  0  0  0  0  0  0  0  0
  -10.0061   -3.0330    2.1311 H   0  0  0  0  0  0  0  0  0  0  0  0
   -9.9832   -3.1684    0.4566 H   0  0  0  0  0  0  0  0  0  0  0  0
   -4.9204   -1.0292    3.6946 H   0  0  0  0  0  0  0  0  0  0  0  0
   -6.3232   -1.4754    4.5046 H   0  0  0  0  0  0  0  0  0  0  0  0
  1  6  2  0  0  0  0
  1  2  1  0  0  0  0
  1 23  1  0  0  0  0
  2  3  2  0  0  0  0
  2 24  1  0  0  0  0
  3  4  1  0  0  0  0
  3  9  1  0  0  0  0
  4  5  2  0  0  0  0
  4  8  1  0  0  0  0
  5  6  1  0  0  0  0
  5 25  1  0  0  0  0
  6  7  1  0  0  0  0
  9 10  1  0  0  0  0
  9 26  1  0  0  0  0
 10 11  1  0  0  0  0
 10 27  1  0  0  0  0
 10 28  1  0  0  0  0
 11 16  2  0  0  0  0
 11 12  1  0  0  0  0
 12 13  2  0  0  0  0
 12 29  1  0  0  0  0
 13 14  1  0  0  0  0
 13 30  1  0  0  0  0
 14 20  2  0  0  0  0
 14 15  1  0  0  0  0
 15 16  1  0  0  0  0
 15 17  2  0  0  0  0
 17 18  1  0  0  0  0
 17 22  1  0  0  0  0
 18 19  2  0  0  0  0
 19 20  1  0  0  0  0
 19 21  1  0  0  0  0
 21 31  1  0  0  0  0
 21 32  1  0  0  0  0
 22 33  1  0  0  0  0
 22 34  1  0  0  0  0
M  END
$$$$
ZINC03814913
  -OEChem-08230709403D

 35 37  0     0  0  0  0  0  0999 V2000
    1.1741    1.7834    0.0004 C   0  0  0  0  0  0  0  0  0  0  0  0
   -0.0126    1.0758    0.0080 C   0  0  0  0  0  0  0  0  0  0  0  0
   -1.2238    1.7541    0.0174 C   0  0  0  0  0  0  0  0  0  0  0  0
   -1.2389    3.1441    0.0298 C   0  0  0  0  0  0  0  0  0  0  0  0
   -0.0490    3.8463    0.0218 C   0  0  0  0  0  0  0  0  0  0  0  0
    1.1567    3.1667    0.0071 C   0  0  0  0  0  0  0  0  0  0  0  0
    2.6500    4.0519   -0.0024 Cl  0  0  0  0  0  0  0  0  0  0  0  0
   -2.7510    3.9967    0.0477 Cl  0  0  0  0  0  0  0  0  0  0  0  0
   -2.4262    1.0405    0.0197 N   0  0  0  0  0  0  0  0  0  0  0  0
   -2.4086   -0.4244    0.0121 C   0  0  0  0  0  0  0  0  0  0  0  0
   -3.8233   -0.9438    0.0164 C   0  0  0  0  0  0  0  0  0  0  0  0
   -4.4322   -1.2658   -1.1945 C   0  0  0  0  0  0  0  0  0  0  0  0
   -5.7133   -1.7425   -1.2098 C   0  0  0  0  0  0  0  0  0  0  0  0
   -6.3810   -1.8824    0.0189 C   0  0  0  0  0  0  0  0  0  0  0  0
   -5.7014   -1.5305    1.2094 C   0  0  0  0  0  0  0  0  0  0  0  0
   -4.4527   -1.0764    1.1606 N   0  0  0  0  0  0  0  0  0  0  0  0
   -6.4224   -1.6868    2.4736 C   0  0  0  0  0  0  0  0  0  0  0  0
   -7.6642   -2.1474    2.4227 N   0  0  0  0  0  0  0  0  0  0  0  0
   -8.2404   -2.4585    1.2659 C   0  0  0  0  0  0  0  0  0  0  0  0
   -9.5393   -2.9340    1.2866 N   0  0  0  0  0  0  0  0  0  0  0  0
   -5.8301   -1.3653    3.6765 N   0  0  0  0  0  0  0  0  0  0  0  0
    2.1165    1.2559   -0.0110 H   0  0  0  0  0  0  0  0  0  0  0  0
    0.0021   -0.0041    0.0020 H   0  0  0  0  0  0  0  0  0  0  0  0
   -0.0596    4.9262    0.0266 H   0  0  0  0  0  0  0  0  0  0  0  0
   -3.2720    1.5153    0.0262 H   0  0  0  0  0  0  0  0  0  0  0  0
   -1.8948   -0.7770   -0.8822 H   0  0  0  0  0  0  0  0  0  0  0  0
   -1.8861   -0.7861    0.8977 H   0  0  0  0  0  0  0  0  0  0  0  0
   -3.8908   -1.1425   -2.1208 H   0  0  0  0  0  0  0  0  0  0  0  0
   -6.1994   -2.0005   -2.1391 H   0  0  0  0  0  0  0  0  0  0  0  0
  -10.0061   -3.0330    2.1311 H   0  0  0  0  0  0  0  0  0  0  0  0
   -9.9832   -3.1684    0.4566 H   0  0  0  0  0  0  0  0  0  0  0  0
   -4.9204   -1.0292    3.6946 H   0  0  0  0  0  0  0  0  0  0  0  0
   -6.3232   -1.4754    4.5046 H   0  0  0  0  0  0  0  0  0  0  0  0
   -7.6742   -2.3564    0.0379 N   0  3  0  0  0  0  0  0  0  0  0  0
   -8.1306   -2.5984   -0.8184 H   0  0  0  0  0  0  0  0  0  0  0  0
  1  6  2  0  0  0  0
  1  2  1  0  0  0  0
  1 22  1  0  0  0  0
  2  3  2  0  0  0  0
  2 23  1  0  0  0  0
  3  4  1  0  0  0  0
  3  9  1  0  0  0  0
  4  5  2  0  0  0  0
  4  8  1  0  0  0  0
  5  6  1  0  0  0  0
  5 24  1  0  0  0  0
  6  7  1  0  0  0  0
  9 10  1  0  0  0  0
  9 25  1  0  0  0  0
 10 11  1  0  0  0  0
 10 26  1  0  0  0  0
 10 27  1  0  0  0  0
 11 16  2  0  0  0  0
 11 12  1  0  0  0  0
 12 13  2  0  0  0  0
 12 28  1  0  0  0  0
 13 14  1  0  0  0  0
 13 29  1  0  0  0  0
 14 15  2  0  0  0  0
 14 34  1  0  0  0  0
 15 16  1  0  0  0  0
 15 17  1  0  0  0  0
 17 18  2  0  0  0  0
 17 21  1  0  0  0  0
 18 19  1  0  0  0  0
 19 20  1  0  0  0  0
 19 34  2  0  0  0  0
 20 30  1  0  0  0  0
 20 31  1  0  0  0  0
 21 32  1  0  0  0  0
 21 33  1  0  0  0  0
 34 35  1  0  0  0  0
M  CHG  1  34   1
M  END
$$$$
ZINC03814914
  -OEChem-08230709403D

 37 39  0     1  0  0  0  0  0999 V2000
   -2.5778    0.2608   -1.2165 C   0  0  0  0  0  0  0  0  0  0  0  0
   -2.4266    1.0406    0.0192 N   0  0  1  0  0  0  0  0  0  0  0  0
   -2.5237    0.1759    1.2027 C   0  0  0  0  0  0  0  0  0  0  0  0
   -3.9187   -0.3855    1.3015 C   0  0  0  0  0  0  0  0  0  0  0  0
   -4.1854   -1.6413    0.7603 C   0  0  0  0  0  0  0  0  0  0  0  0
   -5.4438   -2.1686    0.8444 C   0  0  0  0  0  0  0  0  0  0  0  0
   -6.4394   -1.4045    1.4767 C   0  0  0  0  0  0  0  0  0  0  0  0
   -6.0972   -0.1343    1.9988 C   0  0  0  0  0  0  0  0  0  0  0  0
   -4.8534    0.3231    1.8904 N   0  0  0  0  0  0  0  0  0  0  0  0
   -7.1551    0.6383    2.6517 C   0  0  0  0  0  0  0  0  0  0  0  0
   -8.3646    0.0996    2.7123 N   0  0  0  0  0  0  0  0  0  0  0  0
   -8.6143   -1.1011    2.1994 C   0  0  0  0  0  0  0  0  0  0  0  0
   -7.6998   -1.8383    1.6020 N   0  0  0  0  0  0  0  0  0  0  0  0
   -9.8997   -1.6025    2.2981 N   0  0  0  0  0  0  0  0  0  0  0  0
   -6.9022    1.8843    3.1851 N   0  0  0  0  0  0  0  0  0  0  0  0
   -1.2242    1.7543    0.0174 C   0  0  0  0  0  0  0  0  0  0  0  0
   -0.0126    1.0758    0.0080 C   0  0  0  0  0  0  0  0  0  0  0  0
    1.1738    1.7831    0.0004 C   0  0  0  0  0  0  0  0  0  0  0  0
    1.1564    3.1669    0.0075 C   0  0  0  0  0  0  0  0  0  0  0  0
   -0.0489    3.8463    0.0227 C   0  0  0  0  0  0  0  0  0  0  0  0
   -1.2393    3.1439    0.0298 C   0  0  0  0  0  0  0  0  0  0  0  0
   -2.7514    3.9965    0.0476 Cl  0  0  0  0  0  0  0  0  0  0  0  0
    2.6497    4.0521   -0.0020 Cl  0  0  0  0  0  0  0  0  0  0  0  0
   -1.7522   -0.4456   -1.3037 H   0  0  0  0  0  0  0  0  0  0  0  0
   -3.5212   -0.2845   -1.1889 H   0  0  0  0  0  0  0  0  0  0  0  0
   -2.5721    0.9338   -2.0739 H   0  0  0  0  0  0  0  0  0  0  0  0
   -1.8084   -0.6419    1.1148 H   0  0  0  0  0  0  0  0  0  0  0  0
   -2.3021    0.7579    2.0972 H   0  0  0  0  0  0  0  0  0  0  0  0
   -3.3970   -2.1999    0.2778 H   0  0  0  0  0  0  0  0  0  0  0  0
   -5.6672   -3.1421    0.4335 H   0  0  0  0  0  0  0  0  0  0  0  0
  -10.5919   -1.0805    2.7333 H   0  0  0  0  0  0  0  0  0  0  0  0
  -10.1090   -2.4761    1.9322 H   0  0  0  0  0  0  0  0  0  0  0  0
   -6.0108    2.2631    3.1313 H   0  0  0  0  0  0  0  0  0  0  0  0
   -7.6156    2.3821    3.6142 H   0  0  0  0  0  0  0  0  0  0  0  0
    0.0021   -0.0041    0.0020 H   0  0  0  0  0  0  0  0  0  0  0  0
    2.1161    1.2557   -0.0114 H   0  0  0  0  0  0  0  0  0  0  0  0
   -0.0596    4.9262    0.0286 H   0  0  0  0  0  0  0  0  0  0  0  0
  1  2  1  0  0  0  0
  1 24  1  0  0  0  0
  1 25  1  0  0  0  0
  1 26  1  0  0  0  0
  2  3  1  0  0  0  0
  2 16  1  0  0  0  0
  3  4  1  0  0  0  0
  3 27  1  0  0  0  0
  3 28  1  0  0  0  0
  4  9  2  0  0  0  0
  4  5  1  0  0  0  0
  5  6  2  0  0  0  0
  5 29  1  0  0  0  0
  6  7  1  0  0  0  0
  6 30  1  0  0  0  0
  7 13  2  0  0  0  0
  7  8  1  0  0  0  0
  8  9  1  0  0  0  0
  8 10  2  0  0  0  0
 10 11  1  0  0  0  0
 10 15  1  0  0  0  0
 11 12  2  0  0  0  0
 12 13  1  0  0  0  0
 12 14  1  0  0  0  0
 14 31  1  0  0  0  0
 14 32  1  0  0  0  0
 15 33  1  0  0  0  0
 15 34  1  0  0  0  0
 16 21  2  0  0  0  0
 16 17  1  0  0  0  0
 17 18  2  0  0  0  0
 17 35  1  0  0  0  0
 18 19  1  0  0  0  0
 18 36  1  0  0  0  0
 19 20  2  0  0  0  0
 19 23  1  0  0  0  0
 20 21  1  0  0  0  0
 20 37  1  0  0  0  0
 21 22  1  0  0  0  0
M  END
$$$$
ZINC03814914
  -OEChem-08230709403D

 38 40  0     1  0  0  0  0  0999 V2000
   -2.5778    0.2608   -1.2165 C   0  0  0  0  0  0  0  0  0  0  0  0
   -2.4266    1.0406    0.0192 N   0  0  1  0  0  0  0  0  0  0  0  0
   -2.5237    0.1759    1.2027 C   0  0  0  0  0  0  0  0  0  0  0  0
   -3.9187   -0.3855    1.3015 C   0  0  0  0  0  0  0  0  0  0  0  0
   -4.1854   -1.6413    0.7603 C   0  0  0  0  0  0  0  0  0  0  0  0
   -5.4438   -2.1686    0.8444 C   0  0  0  0  0  0  0  0  0  0  0  0
   -6.4394   -1.4045    1.4767 C   0  0  0  0  0  0  0  0  0  0  0  0
   -6.0972   -0.1343    1.9988 C   0  0  0  0  0  0  0  0  0  0  0  0
   -4.8534    0.3231    1.8904 N   0  0  0  0  0  0  0  0  0  0  0  0
   -7.1551    0.6383    2.6517 C   0  0  0  0  0  0  0  0  0  0  0  0
   -8.3646    0.0996    2.7123 N   0  0  0  0  0  0  0  0  0  0  0  0
   -8.6143   -1.1011    2.1994 C   0  0  0  0  0  0  0  0  0  0  0  0
   -9.8997   -1.6025    2.2981 N   0  0  0  0  0  0  0  0  0  0  0  0
   -6.9022    1.8843    3.1851 N   0  0  0  0  0  0  0  0  0  0  0  0
   -1.2242    1.7543    0.0174 C   0  0  0  0  0  0  0  0  0  0  0  0
   -0.0126    1.0758    0.0080 C   0  0  0  0  0  0  0  0  0  0  0  0
    1.1738    1.7831    0.0004 C   0  0  0  0  0  0  0  0  0  0  0  0
    1.1564    3.1669    0.0075 C   0  0  0  0  0  0  0  0  0  0  0  0
   -0.0489    3.8463    0.0227 C   0  0  0  0  0  0  0  0  0  0  0  0
   -1.2393    3.1439    0.0298 C   0  0  0  0  0  0  0  0  0  0  0  0
   -2.7514    3.9965    0.0476 Cl  0  0  0  0  0  0  0  0  0  0  0  0
    2.6497    4.0521   -0.0020 Cl  0  0  0  0  0  0  0  0  0  0  0  0
   -1.7522   -0.4456   -1.3037 H   0  0  0  0  0  0  0  0  0  0  0  0
   -3.5212   -0.2845   -1.1889 H   0  0  0  0  0  0  0  0  0  0  0  0
   -2.5721    0.9338   -2.0739 H   0  0  0  0  0  0  0  0  0  0  0  0
   -1.8084   -0.6419    1.1148 H   0  0  0  0  0  0  0  0  0  0  0  0
   -2.3021    0.7579    2.0972 H   0  0  0  0  0  0  0  0  0  0  0  0
   -3.3970   -2.1999    0.2778 H   0  0  0  0  0  0  0  0  0  0  0  0
   -5.6672   -3.1421    0.4335 H   0  0  0  0  0  0  0  0  0  0  0  0
  -10.5919   -1.0805    2.7333 H   0  0  0  0  0  0  0  0  0  0  0  0
  -10.1090   -2.4761    1.9322 H   0  0  0  0  0  0  0  0  0  0  0  0
   -6.0108    2.2631    3.1313 H   0  0  0  0  0  0  0  0  0  0  0  0
   -7.6156    2.3821    3.6142 H   0  0  0  0  0  0  0  0  0  0  0  0
    0.0021   -0.0041    0.0020 H   0  0  0  0  0  0  0  0  0  0  0  0
    2.1161    1.2557   -0.0114 H   0  0  0  0  0  0  0  0  0  0  0  0
   -0.0596    4.9262    0.0286 H   0  0  0  0  0  0  0  0  0  0  0  0
   -7.7189   -1.9054    1.5747 N   0  3  0  0  0  0  0  0  0  0  0  0
   -7.9333   -2.8065    1.1977 H   0  0  0  0  0  0  0  0  0  0  0  0
  1  2  1  0  0  0  0
  1 23  1  0  0  0  0
  1 24  1  0  0  0  0
  1 25  1  0  0  0  0
  2  3  1  0  0  0  0
  2 15  1  0  0  0  0
  3  4  1  0  0  0  0
  3 26  1  0  0  0  0
  3 27  1  0  0  0  0
  4  9  2  0  0  0  0
  4  5  1  0  0  0  0
  5  6  2  0  0  0  0
  5 28  1  0  0  0  0
  6  7  1  0  0  0  0
  6 29  1  0  0  0  0
  7  8  2  0  0  0  0
  7 37  1  0  0  0  0
  8  9  1  0  0  0  0
  8 10  1  0  0  0  0
 10 11  2  0  0  0  0
 10 14  1  0  0  0  0
 11 12  1  0  0  0  0
 12 13  1  0  0  0  0
 12 37  2  0  0  0  0
 13 30  1  0  0  0  0
 13 31  1  0  0  0  0
 14 32  1  0  0  0  0
 14 33  1  0  0  0  0
 15 20  2  0  0  0  0
 15 16  1  0  0  0  0
 16 17  2  0  0  0  0
 16 34  1  0  0  0  0
 17 18  1  0  0  0  0
 17 35  1  0  0  0  0
 18 19  2  0  0  0  0
 18 22  1  0  0  0  0
 19 20  1  0  0  0  0
 19 36  1  0  0  0  0
 20 21  1  0  0  0  0
 37 38  1  0  0  0  0
M  CHG  1  37   1
M  END
$$$$
ZINC03814915
  -OEChem-08230709403D

 34 36  0     0  0  0  0  0  0999 V2000
   -1.2200    1.7502    0.0173 C   0  0  0  0  0  0  0  0  0  0  0  0
   -0.0126    1.0758    0.0080 C   0  0  0  0  0  0  0  0  0  0  0  0
    1.1749    1.7821    0.0004 C   0  0  0  0  0  0  0  0  0  0  0  0
    1.1553    3.1723    0.0076 C   0  0  0  0  0  0  0  0  0  0  0  0
   -0.0582    3.8463    0.0223 C   0  0  0  0  0  0  0  0  0  0  0  0
   -1.2431    3.1336    0.0298 C   0  0  0  0  0  0  0  0  0  0  0  0
   -2.7612    3.9754    0.0483 Cl  0  0  0  0  0  0  0  0  0  0  0  0
    2.3546    3.8896    0.0005 N   0  0  0  0  0  0  0  0  0  0  0  0
    2.3322    5.3544    0.0081 C   0  0  0  0  0  0  0  0  0  0  0  0
    3.7450    5.8785   -0.0020 C   0  0  0  0  0  0  0  0  0  0  0  0
    4.3360    6.2149   -1.2179 C   0  0  0  0  0  0  0  0  0  0  0  0
    5.6152    6.6961   -1.2461 C   0  0  0  0  0  0  0  0  0  0  0  0
    6.2994    6.8258   -0.0255 C   0  0  0  0  0  0  0  0  0  0  0  0
    5.6377    6.4595    1.1707 C   0  0  0  0  0  0  0  0  0  0  0  0
    4.3899    6.0017    1.1346 N   0  0  0  0  0  0  0  0  0  0  0  0
    6.3757    6.6055    2.4263 C   0  0  0  0  0  0  0  0  0  0  0  0
    7.6151    7.0709    2.3629 N   0  0  0  0  0  0  0  0  0  0  0  0
    8.1742    7.3956    1.2014 C   0  0  0  0  0  0  0  0  0  0  0  0
    7.5554    7.2844    0.0431 N   0  0  0  0  0  0  0  0  0  0  0  0
    9.4716    7.8753    1.2089 N   0  0  0  0  0  0  0  0  0  0  0  0
    5.8012    6.2699    3.6340 N   0  0  0  0  0  0  0  0  0  0  0  0
    2.6899    0.9346   -0.0175 Cl  0  0  0  0  0  0  0  0  0  0  0  0
   -2.1468    1.1958    0.0187 H   0  0  0  0  0  0  0  0  0  0  0  0
    0.0021   -0.0041    0.0020 H   0  0  0  0  0  0  0  0  0  0  0  0
   -0.0768    4.9261    0.0276 H   0  0  0  0  0  0  0  0  0  0  0  0
    3.2020    3.4176   -0.0095 H   0  0  0  0  0  0  0  0  0  0  0  0
    1.8048    5.7143   -0.8754 H   0  0  0  0  0  0  0  0  0  0  0  0
    1.8208    5.7053    0.9044 H   0  0  0  0  0  0  0  0  0  0  0  0
    3.7822    6.0991   -2.1379 H   0  0  0  0  0  0  0  0  0  0  0  0
    6.0874    6.9651   -2.1794 H   0  0  0  0  0  0  0  0  0  0  0  0
    9.9498    7.9674    2.0478 H   0  0  0  0  0  0  0  0  0  0  0  0
    9.9032    8.1196    0.3753 H   0  0  0  0  0  0  0  0  0  0  0  0
    4.8930    5.9305    3.6613 H   0  0  0  0  0  0  0  0  0  0  0  0
    6.3053    6.3732    4.4562 H   0  0  0  0  0  0  0  0  0  0  0  0
  1  6  2  0  0  0  0
  1  2  1  0  0  0  0
  1 23  1  0  0  0  0
  2  3  2  0  0  0  0
  2 24  1  0  0  0  0
  3  4  1  0  0  0  0
  3 22  1  0  0  0  0
  4  5  2  0  0  0  0
  4  8  1  0  0  0  0
  5  6  1  0  0  0  0
  5 25  1  0  0  0  0
  6  7  1  0  0  0  0
  8  9  1  0  0  0  0
  8 26  1  0  0  0  0
  9 10  1  0  0  0  0
  9 27  1  0  0  0  0
  9 28  1  0  0  0  0
 10 15  2  0  0  0  0
 10 11  1  0  0  0  0
 11 12  2  0  0  0  0
 11 29  1  0  0  0  0
 12 13  1  0  0  0  0
 12 30  1  0  0  0  0
 13 19  2  0  0  0  0
 13 14  1  0  0  0  0
 14 15  1  0  0  0  0
 14 16  2  0  0  0  0
 16 17  1  0  0  0  0
 16 21  1  0  0  0  0
 17 18  2  0  0  0  0
 18 19  1  0  0  0  0
 18 20  1  0  0  0  0
 20 31  1  0  0  0  0
 20 32  1  0  0  0  0
 21 33  1  0  0  0  0
 21 34  1  0  0  0  0
M  END
$$$$
ZINC03814915
  -OEChem-08230709403D

 35 37  0     0  0  0  0  0  0999 V2000
   -1.2200    1.7502    0.0173 C   0  0  0  0  0  0  0  0  0  0  0  0
   -0.0126    1.0758    0.0080 C   0  0  0  0  0  0  0  0  0  0  0  0
    1.1749    1.7821    0.0004 C   0  0  0  0  0  0  0  0  0  0  0  0
    1.1553    3.1723    0.0076 C   0  0  0  0  0  0  0  0  0  0  0  0
   -0.0582    3.8463    0.0223 C   0  0  0  0  0  0  0  0  0  0  0  0
   -1.2431    3.1336    0.0298 C   0  0  0  0  0  0  0  0  0  0  0  0
   -2.7612    3.9754    0.0483 Cl  0  0  0  0  0  0  0  0  0  0  0  0
    2.3546    3.8896    0.0005 N   0  0  0  0  0  0  0  0  0  0  0  0
    2.3322    5.3544    0.0081 C   0  0  0  0  0  0  0  0  0  0  0  0
    3.7450    5.8785   -0.0020 C   0  0  0  0  0  0  0  0  0  0  0  0
    4.3360    6.2149   -1.2179 C   0  0  0  0  0  0  0  0  0  0  0  0
    5.6152    6.6961   -1.2461 C   0  0  0  0  0  0  0  0  0  0  0  0
    6.2994    6.8258   -0.0255 C   0  0  0  0  0  0  0  0  0  0  0  0
    5.6377    6.4595    1.1707 C   0  0  0  0  0  0  0  0  0  0  0  0
    4.3899    6.0017    1.1346 N   0  0  0  0  0  0  0  0  0  0  0  0
    6.3757    6.6055    2.4263 C   0  0  0  0  0  0  0  0  0  0  0  0
    7.6151    7.0709    2.3629 N   0  0  0  0  0  0  0  0  0  0  0  0
    8.1742    7.3956    1.2014 C   0  0  0  0  0  0  0  0  0  0  0  0
    9.4716    7.8753    1.2089 N   0  0  0  0  0  0  0  0  0  0  0  0
    5.8012    6.2699    3.6340 N   0  0  0  0  0  0  0  0  0  0  0  0
    2.6899    0.9346   -0.0175 Cl  0  0  0  0  0  0  0  0  0  0  0  0
   -2.1468    1.1958    0.0187 H   0  0  0  0  0  0  0  0  0  0  0  0
    0.0021   -0.0041    0.0020 H   0  0  0  0  0  0  0  0  0  0  0  0
   -0.0768    4.9261    0.0276 H   0  0  0  0  0  0  0  0  0  0  0  0
    3.2020    3.4176   -0.0095 H   0  0  0  0  0  0  0  0  0  0  0  0
    1.8048    5.7143   -0.8754 H   0  0  0  0  0  0  0  0  0  0  0  0
    1.8208    5.7053    0.9044 H   0  0  0  0  0  0  0  0  0  0  0  0
    3.7822    6.0991   -2.1379 H   0  0  0  0  0  0  0  0  0  0  0  0
    6.0874    6.9651   -2.1794 H   0  0  0  0  0  0  0  0  0  0  0  0
    9.9498    7.9674    2.0478 H   0  0  0  0  0  0  0  0  0  0  0  0
    9.9032    8.1196    0.3753 H   0  0  0  0  0  0  0  0  0  0  0  0
    4.8930    5.9305    3.6613 H   0  0  0  0  0  0  0  0  0  0  0  0
    6.3053    6.3732    4.4562 H   0  0  0  0  0  0  0  0  0  0  0  0
    7.5913    7.3041   -0.0197 N   0  3  0  0  0  0  0  0  0  0  0  0
    8.0349    7.5563   -0.8796 H   0  0  0  0  0  0  0  0  0  0  0  0
  1  6  2  0  0  0  0
  1  2  1  0  0  0  0
  1 22  1  0  0  0  0
  2  3  2  0  0  0  0
  2 23  1  0  0  0  0
  3  4  1  0  0  0  0
  3 21  1  0  0  0  0
  4  5  2  0  0  0  0
  4  8  1  0  0  0  0
  5  6  1  0  0  0  0
  5 24  1  0  0  0  0
  6  7  1  0  0  0  0
  8  9  1  0  0  0  0
  8 25  1  0  0  0  0
  9 10  1  0  0  0  0
  9 26  1  0  0  0  0
  9 27  1  0  0  0  0
 10 15  2  0  0  0  0
 10 11  1  0  0  0  0
 11 12  2  0  0  0  0
 11 28  1  0  0  0  0
 12 13  1  0  0  0  0
 12 29  1  0  0  0  0
 13 14  2  0  0  0  0
 13 34  1  0  0  0  0
 14 15  1  0  0  0  0
 14 16  1  0  0  0  0
 16 17  2  0  0  0  0
 16 20  1  0  0  0  0
 17 18  1  0  0  0  0
 18 19  1  0  0  0  0
 18 34  2  0  0  0  0
 19 30  1  0  0  0  0
 19 31  1  0  0  0  0
 20 32  1  0  0  0  0
 20 33  1  0  0  0  0
 34 35  1  0  0  0  0
M  CHG  1  34   1
M  END
$$$$
ZINC03814916
  -OEChem-08230709403D

 37 39  0     1  0  0  0  0  0999 V2000
   -0.0127    1.0858    0.0080 C   0  0  0  0  0  0  0  0  0  0  0  0
   -0.7003    1.5596    1.2166 N   0  0  2  0  0  0  0  0  0  0  0  0
   -0.8223    3.0235    1.2133 C   0  0  0  0  0  0  0  0  0  0  0  0
   -1.7346    3.4489    0.0917 C   0  0  0  0  0  0  0  0  0  0  0  0
   -3.0859    3.6590    0.3580 C   0  0  0  0  0  0  0  0  0  0  0  0
   -3.9276    4.0495   -0.6458 C   0  0  0  0  0  0  0  0  0  0  0  0
   -3.3881    4.2174   -1.9326 C   0  0  0  0  0  0  0  0  0  0  0  0
   -2.0068    3.9810   -2.1303 C   0  0  0  0  0  0  0  0  0  0  0  0
   -1.2372    3.6071   -1.1126 N   0  0  0  0  0  0  0  0  0  0  0  0
   -1.4738    4.1639   -3.4812 C   0  0  0  0  0  0  0  0  0  0  0  0
   -2.3178    4.5389   -4.4319 N   0  0  0  0  0  0  0  0  0  0  0  0
   -3.6056    4.7434   -4.1733 C   0  0  0  0  0  0  0  0  0  0  0  0
   -4.1371    4.5937   -2.9766 N   0  0  0  0  0  0  0  0  0  0  0  0
   -4.4300    5.1336   -5.2133 N   0  0  0  0  0  0  0  0  0  0  0  0
   -0.1392    3.9529   -3.7556 N   0  0  0  0  0  0  0  0  0  0  0  0
   -0.0495    1.1139    2.3702 C   0  0  0  0  0  0  0  0  0  0  0  0
    1.2447    1.5351    2.6458 C   0  0  0  0  0  0  0  0  0  0  0  0
    1.8856    1.0924    3.7877 C   0  0  0  0  0  0  0  0  0  0  0  0
    1.2385    0.2306    4.6562 C   0  0  0  0  0  0  0  0  0  0  0  0
   -0.0501   -0.1905    4.3846 C   0  0  0  0  0  0  0  0  0  0  0  0
   -0.6984    0.2526    3.2472 C   0  0  0  0  0  0  0  0  0  0  0  0
   -2.3190   -0.2711    2.9109 Cl  0  0  0  0  0  0  0  0  0  0  0  0
    3.5035    1.6183    4.1331 Cl  0  0  0  0  0  0  0  0  0  0  0  0
    0.0021   -0.0041    0.0020 H   0  0  0  0  0  0  0  0  0  0  0  0
    1.0099    1.4631    0.0003 H   0  0  0  0  0  0  0  0  0  0  0  0
   -0.5399    1.4469   -0.8751 H   0  0  0  0  0  0  0  0  0  0  0  0
   -1.2371    3.3557    2.1649 H   0  0  0  0  0  0  0  0  0  0  0  0
    0.1618    3.4698    1.0703 H   0  0  0  0  0  0  0  0  0  0  0  0
   -3.4676    3.5170    1.3582 H   0  0  0  0  0  0  0  0  0  0  0  0
   -4.9770    4.2202   -0.4564 H   0  0  0  0  0  0  0  0  0  0  0  0
   -4.0643    5.2514   -6.1040 H   0  0  0  0  0  0  0  0  0  0  0  0
   -5.3737    5.2895   -5.0519 H   0  0  0  0  0  0  0  0  0  0  0  0
    0.4641    3.6784   -3.0473 H   0  0  0  0  0  0  0  0  0  0  0  0
    0.1966    4.0790   -4.6568 H   0  0  0  0  0  0  0  0  0  0  0  0
    1.7498    2.2081    1.9688 H   0  0  0  0  0  0  0  0  0  0  0  0
    1.7413   -0.1139    5.5477 H   0  0  0  0  0  0  0  0  0  0  0  0
   -0.5524   -0.8627    5.0645 H   0  0  0  0  0  0  0  0  0  0  0  0
  1  2  1  0  0  0  0
  1 24  1  0  0  0  0
  1 25  1  0  0  0  0
  1 26  1  0  0  0  0
  2  3  1  0  0  0  0
  2 16  1  0  0  0  0
  3  4  1  0  0  0  0
  3 27  1  0  0  0  0
  3 28  1  0  0  0  0
  4  9  2  0  0  0  0
  4  5  1  0  0  0  0
  5  6  2  0  0  0  0
  5 29  1  0  0  0  0
  6  7  1  0  0  0  0
  6 30  1  0  0  0  0
  7 13  2  0  0  0  0
  7  8  1  0  0  0  0
  8  9  1  0  0  0  0
  8 10  2  0  0  0  0
 10 11  1  0  0  0  0
 10 15  1  0  0  0  0
 11 12  2  0  0  0  0
 12 13  1  0  0  0  0
 12 14  1  0  0  0  0
 14 31  1  0  0  0  0
 14 32  1  0  0  0  0
 15 33  1  0  0  0  0
 15 34  1  0  0  0  0
 16 21  2  0  0  0  0
 16 17  1  0  0  0  0
 17 18  2  0  0  0  0
 17 35  1  0  0  0  0
 18 19  1  0  0  0  0
 18 23  1  0  0  0  0
 19 20  2  0  0  0  0
 19 36  1  0  0  0  0
 20 21  1  0  0  0  0
 20 37  1  0  0  0  0
 21 22  1  0  0  0  0
M  END
$$$$
ZINC03814916
  -OEChem-08230709403D

 38 40  0     1  0  0  0  0  0999 V2000
   -0.0127    1.0858    0.0080 C   0  0  0  0  0  0  0  0  0  0  0  0
   -0.7003    1.5596    1.2166 N   0  0  2  0  0  0  0  0  0  0  0  0
   -0.8223    3.0235    1.2133 C   0  0  0  0  0  0  0  0  0  0  0  0
   -1.7346    3.4489    0.0917 C   0  0  0  0  0  0  0  0  0  0  0  0
   -3.0859    3.6590    0.3580 C   0  0  0  0  0  0  0  0  0  0  0  0
   -3.9276    4.0495   -0.6458 C   0  0  0  0  0  0  0  0  0  0  0  0
   -3.3881    4.2174   -1.9326 C   0  0  0  0  0  0  0  0  0  0  0  0
   -2.0068    3.9810   -2.1303 C   0  0  0  0  0  0  0  0  0  0  0  0
   -1.2372    3.6071   -1.1126 N   0  0  0  0  0  0  0  0  0  0  0  0
   -1.4738    4.1639   -3.4812 C   0  0  0  0  0  0  0  0  0  0  0  0
   -2.3178    4.5389   -4.4319 N   0  0  0  0  0  0  0  0  0  0  0  0
   -3.6056    4.7434   -4.1733 C   0  0  0  0  0  0  0  0  0  0  0  0
   -4.4300    5.1336   -5.2133 N   0  0  0  0  0  0  0  0  0  0  0  0
   -0.1392    3.9529   -3.7556 N   0  0  0  0  0  0  0  0  0  0  0  0
   -0.0495    1.1139    2.3702 C   0  0  0  0  0  0  0  0  0  0  0  0
    1.2447    1.5351    2.6458 C   0  0  0  0  0  0  0  0  0  0  0  0
    1.8856    1.0924    3.7877 C   0  0  0  0  0  0  0  0  0  0  0  0
    1.2385    0.2306    4.6562 C   0  0  0  0  0  0  0  0  0  0  0  0
   -0.0501   -0.1905    4.3846 C   0  0  0  0  0  0  0  0  0  0  0  0
   -0.6984    0.2526    3.2472 C   0  0  0  0  0  0  0  0  0  0  0  0
   -2.3190   -0.2711    2.9109 Cl  0  0  0  0  0  0  0  0  0  0  0  0
    3.5035    1.6183    4.1331 Cl  0  0  0  0  0  0  0  0  0  0  0  0
    0.0021   -0.0041    0.0020 H   0  0  0  0  0  0  0  0  0  0  0  0
    1.0099    1.4631    0.0003 H   0  0  0  0  0  0  0  0  0  0  0  0
   -0.5399    1.4469   -0.8751 H   0  0  0  0  0  0  0  0  0  0  0  0
   -1.2371    3.3557    2.1649 H   0  0  0  0  0  0  0  0  0  0  0  0
    0.1618    3.4698    1.0703 H   0  0  0  0  0  0  0  0  0  0  0  0
   -3.4676    3.5170    1.3582 H   0  0  0  0  0  0  0  0  0  0  0  0
   -4.9770    4.2202   -0.4564 H   0  0  0  0  0  0  0  0  0  0  0  0
   -4.0643    5.2514   -6.1040 H   0  0  0  0  0  0  0  0  0  0  0  0
   -5.3737    5.2895   -5.0519 H   0  0  0  0  0  0  0  0  0  0  0  0
    0.4641    3.6784   -3.0473 H   0  0  0  0  0  0  0  0  0  0  0  0
    0.1966    4.0790   -4.6568 H   0  0  0  0  0  0  0  0  0  0  0  0
    1.7498    2.2081    1.9688 H   0  0  0  0  0  0  0  0  0  0  0  0
    1.7413   -0.1139    5.5477 H   0  0  0  0  0  0  0  0  0  0  0  0
   -0.5524   -0.8627    5.0645 H   0  0  0  0  0  0  0  0  0  0  0  0
   -4.2103    4.6065   -2.9671 N   0  3  0  0  0  0  0  0  0  0  0  0
   -5.1829    4.7675   -2.7994 H   0  0  0  0  0  0  0  0  0  0  0  0
  1  2  1  0  0  0  0
  1 23  1  0  0  0  0
  1 24  1  0  0  0  0
  1 25  1  0  0  0  0
  2  3  1  0  0  0  0
  2 15  1  0  0  0  0
  3  4  1  0  0  0  0
  3 26  1  0  0  0  0
  3 27  1  0  0  0  0
  4  9  2  0  0  0  0
  4  5  1  0  0  0  0
  5  6  2  0  0  0  0
  5 28  1  0  0  0  0
  6  7  1  0  0  0  0
  6 29  1  0  0  0  0
  7  8  2  0  0  0  0
  7 37  1  0  0  0  0
  8  9  1  0  0  0  0
  8 10  1  0  0  0  0
 10 11  2  0  0  0  0
 10 14  1  0  0  0  0
 11 12  1  0  0  0  0
 12 13  1  0  0  0  0
 12 37  2  0  0  0  0
 13 30  1  0  0  0  0
 13 31  1  0  0  0  0
 14 32  1  0  0  0  0
 14 33  1  0  0  0  0
 15 20  2  0  0  0  0
 15 16  1  0  0  0  0
 16 17  2  0  0  0  0
 16 34  1  0  0  0  0
 17 18  1  0  0  0  0
 17 22  1  0  0  0  0
 18 19  2  0  0  0  0
 18 35  1  0  0  0  0
 19 20  1  0  0  0  0
 19 36  1  0  0  0  0
 20 21  1  0  0  0  0
 37 38  1  0  0  0  0
M  CHG  1  37   1
M  END
$$$$
ZINC03814917
  -OEChem-08230709403D

 34 36  0     0  0  0  0  0  0999 V2000
   -2.4111   -0.0424    0.0307 C   0  0  0  0  0  0  0  0  0  0  0  0
   -3.5968   -0.7512    0.0333 C   0  0  0  0  0  0  0  0  0  0  0  0
   -3.5776   -2.1344    0.0257 C   0  0  0  0  0  0  0  0  0  0  0  0
   -2.3698   -2.8125    0.0101 C   0  0  0  0  0  0  0  0  0  0  0  0
   -1.1810   -2.1080    0.0020 C   0  0  0  0  0  0  0  0  0  0  0  0
   -1.1985   -0.7192    0.0096 C   0  0  0  0  0  0  0  0  0  0  0  0
    0.0021   -0.0041    0.0020 N   0  0  0  0  0  0  0  0  0  0  0  0
   -0.0178    1.4608    0.0101 C   0  0  0  0  0  0  0  0  0  0  0  0
    1.3960    1.9824   -0.0006 C   0  0  0  0  0  0  0  0  0  0  0  0
    1.9869    2.3181   -1.2168 C   0  0  0  0  0  0  0  0  0  0  0  0
    3.2669    2.7970   -1.2456 C   0  0  0  0  0  0  0  0  0  0  0  0
    3.9521    2.9251   -0.0254 C   0  0  0  0  0  0  0  0  0  0  0  0
    3.2904    2.5596    1.1711 C   0  0  0  0  0  0  0  0  0  0  0  0
    2.0418    2.1040    1.1356 N   0  0  0  0  0  0  0  0  0  0  0  0
    4.0294    2.7039    2.4264 C   0  0  0  0  0  0  0  0  0  0  0  0
    5.2696    3.1671    2.3623 N   0  0  0  0  0  0  0  0  0  0  0  0
    5.8286    3.4912    1.2006 C   0  0  0  0  0  0  0  0  0  0  0  0
    5.2089    3.3814    0.0427 N   0  0  0  0  0  0  0  0  0  0  0  0
    7.1268    3.9686    1.2075 N   0  0  0  0  0  0  0  0  0  0  0  0
    3.4550    2.3690    3.6342 N   0  0  0  0  0  0  0  0  0  0  0  0
   -2.3497   -4.5484   -0.0000 Cl  0  0  0  0  0  0  0  0  0  0  0  0
   -5.0696   -3.0218    0.0352 Cl  0  0  0  0  0  0  0  0  0  0  0  0
   -2.4270    1.0374    0.0411 H   0  0  0  0  0  0  0  0  0  0  0  0
   -4.5398   -0.2249    0.0459 H   0  0  0  0  0  0  0  0  0  0  0  0
   -0.2393   -2.6368   -0.0098 H   0  0  0  0  0  0  0  0  0  0  0  0
    0.8486   -0.4776   -0.0086 H   0  0  0  0  0  0  0  0  0  0  0  0
   -0.5450    1.8219   -0.8730 H   0  0  0  0  0  0  0  0  0  0  0  0
   -0.5280    1.8123    0.9069 H   0  0  0  0  0  0  0  0  0  0  0  0
    1.4323    2.2035   -2.1365 H   0  0  0  0  0  0  0  0  0  0  0  0
    3.7391    3.0654   -2.1791 H   0  0  0  0  0  0  0  0  0  0  0  0
    7.6057    4.0595    2.0461 H   0  0  0  0  0  0  0  0  0  0  0  0
    7.5584    4.2124    0.3737 H   0  0  0  0  0  0  0  0  0  0  0  0
    2.5462    2.0311    3.6620 H   0  0  0  0  0  0  0  0  0  0  0  0
    3.9598    2.4711    4.4562 H   0  0  0  0  0  0  0  0  0  0  0  0
  1  6  2  0  0  0  0
  1  2  1  0  0  0  0
  1 23  1  0  0  0  0
  2  3  2  0  0  0  0
  2 24  1  0  0  0  0
  3  4  1  0  0  0  0
  3 22  1  0  0  0  0
  4  5  2  0  0  0  0
  4 21  1  0  0  0  0
  5  6  1  0  0  0  0
  5 25  1  0  0  0  0
  6  7  1  0  0  0  0
  7  8  1  0  0  0  0
  7 26  1  0  0  0  0
  8  9  1  0  0  0  0
  8 27  1  0  0  0  0
  8 28  1  0  0  0  0
  9 14  2  0  0  0  0
  9 10  1  0  0  0  0
 10 11  2  0  0  0  0
 10 29  1  0  0  0  0
 11 12  1  0  0  0  0
 11 30  1  0  0  0  0
 12 18  2  0  0  0  0
 12 13  1  0  0  0  0
 13 14  1  0  0  0  0
 13 15  2  0  0  0  0
 15 16  1  0  0  0  0
 15 20  1  0  0  0  0
 16 17  2  0  0  0  0
 17 18  1  0  0  0  0
 17 19  1  0  0  0  0
 19 31  1  0  0  0  0
 19 32  1  0  0  0  0
 20 33  1  0  0  0  0
 20 34  1  0  0  0  0
M  END
$$$$
ZINC03814917
  -OEChem-08230709403D

 35 37  0     0  0  0  0  0  0999 V2000
   -2.4111   -0.0424    0.0307 C   0  0  0  0  0  0  0  0  0  0  0  0
   -3.5968   -0.7512    0.0333 C   0  0  0  0  0  0  0  0  0  0  0  0
   -3.5776   -2.1344    0.0257 C   0  0  0  0  0  0  0  0  0  0  0  0
   -2.3698   -2.8125    0.0101 C   0  0  0  0  0  0  0  0  0  0  0  0
   -1.1810   -2.1080    0.0020 C   0  0  0  0  0  0  0  0  0  0  0  0
   -1.1985   -0.7192    0.0096 C   0  0  0  0  0  0  0  0  0  0  0  0
    0.0021   -0.0041    0.0020 N   0  0  0  0  0  0  0  0  0  0  0  0
   -0.0178    1.4608    0.0101 C   0  0  0  0  0  0  0  0  0  0  0  0
    1.3960    1.9824   -0.0006 C   0  0  0  0  0  0  0  0  0  0  0  0
    1.9869    2.3181   -1.2168 C   0  0  0  0  0  0  0  0  0  0  0  0
    3.2669    2.7970   -1.2456 C   0  0  0  0  0  0  0  0  0  0  0  0
    3.9521    2.9251   -0.0254 C   0  0  0  0  0  0  0  0  0  0  0  0
    3.2904    2.5596    1.1711 C   0  0  0  0  0  0  0  0  0  0  0  0
    2.0418    2.1040    1.1356 N   0  0  0  0  0  0  0  0  0  0  0  0
    4.0294    2.7039    2.4264 C   0  0  0  0  0  0  0  0  0  0  0  0
    5.2696    3.1671    2.3623 N   0  0  0  0  0  0  0  0  0  0  0  0
    5.8286    3.4912    1.2006 C   0  0  0  0  0  0  0  0  0  0  0  0
    7.1268    3.9686    1.2075 N   0  0  0  0  0  0  0  0  0  0  0  0
    3.4550    2.3690    3.6342 N   0  0  0  0  0  0  0  0  0  0  0  0
   -2.3497   -4.5484   -0.0000 Cl  0  0  0  0  0  0  0  0  0  0  0  0
   -5.0696   -3.0218    0.0352 Cl  0  0  0  0  0  0  0  0  0  0  0  0
   -2.4270    1.0374    0.0411 H   0  0  0  0  0  0  0  0  0  0  0  0
   -4.5398   -0.2249    0.0459 H   0  0  0  0  0  0  0  0  0  0  0  0
   -0.2393   -2.6368   -0.0098 H   0  0  0  0  0  0  0  0  0  0  0  0
    0.8486   -0.4776   -0.0086 H   0  0  0  0  0  0  0  0  0  0  0  0
   -0.5450    1.8219   -0.8730 H   0  0  0  0  0  0  0  0  0  0  0  0
   -0.5280    1.8123    0.9069 H   0  0  0  0  0  0  0  0  0  0  0  0
    1.4323    2.2035   -2.1365 H   0  0  0  0  0  0  0  0  0  0  0  0
    3.7391    3.0654   -2.1791 H   0  0  0  0  0  0  0  0  0  0  0  0
    7.6057    4.0595    2.0461 H   0  0  0  0  0  0  0  0  0  0  0  0
    7.5584    4.2124    0.3737 H   0  0  0  0  0  0  0  0  0  0  0  0
    2.5462    2.0311    3.6620 H   0  0  0  0  0  0  0  0  0  0  0  0
    3.9598    2.4711    4.4562 H   0  0  0  0  0  0  0  0  0  0  0  0
    5.2448    3.4011   -0.0201 N   0  3  0  0  0  0  0  0  0  0  0  0
    5.6885    3.6527   -0.8802 H   0  0  0  0  0  0  0  0  0  0  0  0
  1  6  2  0  0  0  0
  1  2  1  0  0  0  0
  1 22  1  0  0  0  0
  2  3  2  0  0  0  0
  2 23  1  0  0  0  0
  3  4  1  0  0  0  0
  3 21  1  0  0  0  0
  4  5  2  0  0  0  0
  4 20  1  0  0  0  0
  5  6  1  0  0  0  0
  5 24  1  0  0  0  0
  6  7  1  0  0  0  0
  7  8  1  0  0  0  0
  7 25  1  0  0  0  0
  8  9  1  0  0  0  0
  8 26  1  0  0  0  0
  8 27  1  0  0  0  0
  9 14  2  0  0  0  0
  9 10  1  0  0  0  0
 10 11  2  0  0  0  0
 10 28  1  0  0  0  0
 11 12  1  0  0  0  0
 11 29  1  0  0  0  0
 12 13  2  0  0  0  0
 12 34  1  0  0  0  0
 13 14  1  0  0  0  0
 13 15  1  0  0  0  0
 15 16  2  0  0  0  0
 15 19  1  0  0  0  0
 16 17  1  0  0  0  0
 17 18  1  0  0  0  0
 17 34  2  0  0  0  0
 18 30  1  0  0  0  0
 18 31  1  0  0  0  0
 19 32  1  0  0  0  0
 19 33  1  0  0  0  0
 34 35  1  0  0  0  0
M  CHG  1  34   1
M  END
$$$$
ZINC03814918
  -OEChem-08230709403D

 33 35  0     0  0  0  0  0  0999 V2000
   -0.0167    1.3788    0.0096 C   0  0  0  0  0  0  0  0  0  0  0  0
    1.1695    2.0899    0.0021 C   0  0  0  0  0  0  0  0  0  0  0  0
    2.3774    1.4209   -0.0131 C   0  0  0  0  0  0  0  0  0  0  0  0
    2.4001    0.0314   -0.0208 C   0  0  0  0  0  0  0  0  0  0  0  0
    1.2062   -0.6798   -0.0132 C   0  0  0  0  0  0  0  0  0  0  0  0
    0.0021   -0.0041    0.0020 C   0  0  0  0  0  0  0  0  0  0  0  0
    3.9390   -0.8266   -0.0396 S   0  0  0  0  0  0  0  0  0  0  0  0
    5.1794    0.4971   -0.0445 C   0  0  0  0  0  0  0  0  0  0  0  0
    6.5595   -0.1079   -0.0605 C   0  0  0  0  0  0  0  0  0  0  0  0
    7.1953   -0.3814    1.1486 C   0  0  0  0  0  0  0  0  0  0  0  0
    8.4455   -0.9342    1.1537 C   0  0  0  0  0  0  0  0  0  0  0  0
    9.0551   -1.2008   -0.0841 C   0  0  0  0  0  0  0  0  0  0  0  0
    8.3515   -0.8918   -1.2726 C   0  0  0  0  0  0  0  0  0  0  0  0
    7.1348   -0.3590   -1.2133 N   0  0  0  0  0  0  0  0  0  0  0  0
    9.0120   -1.1806   -2.5466 C   0  0  0  0  0  0  0  0  0  0  0  0
   10.2253   -1.7125   -2.5058 N   0  0  0  0  0  0  0  0  0  0  0  0
   10.8269   -1.9768   -1.3502 C   0  0  0  0  0  0  0  0  0  0  0  0
   10.2782   -1.7374   -0.1762 N   0  0  0  0  0  0  0  0  0  0  0  0
   12.0935   -2.5321   -1.3817 N   0  0  0  0  0  0  0  0  0  0  0  0
    8.3931   -0.9081   -3.7482 N   0  0  0  0  0  0  0  0  0  0  0  0
   -0.9600    1.9047    0.0170 H   0  0  0  0  0  0  0  0  0  0  0  0
    1.1511    3.1697    0.0081 H   0  0  0  0  0  0  0  0  0  0  0  0
    3.3033    1.9769   -0.0186 H   0  0  0  0  0  0  0  0  0  0  0  0
    1.2201   -1.7597   -0.0194 H   0  0  0  0  0  0  0  0  0  0  0  0
   -0.9262   -0.5561    0.0076 H   0  0  0  0  0  0  0  0  0  0  0  0
    5.0446    1.1180   -0.9302 H   0  0  0  0  0  0  0  0  0  0  0  0
    5.0613    1.1090    0.8497 H   0  0  0  0  0  0  0  0  0  0  0  0
    6.6988   -0.1602    2.0819 H   0  0  0  0  0  0  0  0  0  0  0  0
    8.9514   -1.1560    2.0817 H   0  0  0  0  0  0  0  0  0  0  0  0
   12.5202   -2.7187   -2.2326 H   0  0  0  0  0  0  0  0  0  0  0  0
   12.5549   -2.7348   -0.5529 H   0  0  0  0  0  0  0  0  0  0  0  0
    7.5049   -0.5184   -3.7589 H   0  0  0  0  0  0  0  0  0  0  0  0
    8.8460   -1.1062   -4.5828 H   0  0  0  0  0  0  0  0  0  0  0  0
  1  6  2  0  0  0  0
  1  2  1  0  0  0  0
  1 21  1  0  0  0  0
  2  3  2  0  0  0  0
  2 22  1  0  0  0  0
  3  4  1  0  0  0  0
  3 23  1  0  0  0  0
  4  5  2  0  0  0  0
  4  7  1  0  0  0  0
  5  6  1  0  0  0  0
  5 24  1  0  0  0  0
  6 25  1  0  0  0  0
  7  8  1  0  0  0  0
  8  9  1  0  0  0  0
  8 26  1  0  0  0  0
  8 27  1  0  0  0  0
  9 14  2  0  0  0  0
  9 10  1  0  0  0  0
 10 11  2  0  0  0  0
 10 28  1  0  0  0  0
 11 12  1  0  0  0  0
 11 29  1  0  0  0  0
 12 18  2  0  0  0  0
 12 13  1  0  0  0  0
 13 14  1  0  0  0  0
 13 15  2  0  0  0  0
 15 16  1  0  0  0  0
 15 20  1  0  0  0  0
 16 17  2  0  0  0  0
 17 18  1  0  0  0  0
 17 19  1  0  0  0  0
 19 30  1  0  0  0  0
 19 31  1  0  0  0  0
 20 32  1  0  0  0  0
 20 33  1  0  0  0  0
M  END
$$$$
ZINC03814918
  -OEChem-08230709403D

 34 36  0     0  0  0  0  0  0999 V2000
   -0.0167    1.3788    0.0096 C   0  0  0  0  0  0  0  0  0  0  0  0
    1.1695    2.0899    0.0021 C   0  0  0  0  0  0  0  0  0  0  0  0
    2.3774    1.4209   -0.0131 C   0  0  0  0  0  0  0  0  0  0  0  0
    2.4001    0.0314   -0.0208 C   0  0  0  0  0  0  0  0  0  0  0  0
    1.2062   -0.6798   -0.0132 C   0  0  0  0  0  0  0  0  0  0  0  0
    0.0021   -0.0041    0.0020 C   0  0  0  0  0  0  0  0  0  0  0  0
    3.9390   -0.8266   -0.0396 S   0  0  0  0  0  0  0  0  0  0  0  0
    5.1794    0.4971   -0.0445 C   0  0  0  0  0  0  0  0  0  0  0  0
    6.5595   -0.1079   -0.0605 C   0  0  0  0  0  0  0  0  0  0  0  0
    7.1953   -0.3814    1.1486 C   0  0  0  0  0  0  0  0  0  0  0  0
    8.4455   -0.9342    1.1537 C   0  0  0  0  0  0  0  0  0  0  0  0
    9.0551   -1.2008   -0.0841 C   0  0  0  0  0  0  0  0  0  0  0  0
    8.3515   -0.8918   -1.2726 C   0  0  0  0  0  0  0  0  0  0  0  0
    7.1348   -0.3590   -1.2133 N   0  0  0  0  0  0  0  0  0  0  0  0
    9.0120   -1.1806   -2.5466 C   0  0  0  0  0  0  0  0  0  0  0  0
   10.2253   -1.7125   -2.5058 N   0  0  0  0  0  0  0  0  0  0  0  0
   10.8269   -1.9768   -1.3502 C   0  0  0  0  0  0  0  0  0  0  0  0
   12.0935   -2.5321   -1.3817 N   0  0  0  0  0  0  0  0  0  0  0  0
    8.3931   -0.9081   -3.7482 N   0  0  0  0  0  0  0  0  0  0  0  0
   -0.9600    1.9047    0.0170 H   0  0  0  0  0  0  0  0  0  0  0  0
    1.1511    3.1697    0.0081 H   0  0  0  0  0  0  0  0  0  0  0  0
    3.3033    1.9769   -0.0186 H   0  0  0  0  0  0  0  0  0  0  0  0
    1.2201   -1.7597   -0.0194 H   0  0  0  0  0  0  0  0  0  0  0  0
   -0.9262   -0.5561    0.0076 H   0  0  0  0  0  0  0  0  0  0  0  0
    5.0446    1.1180   -0.9302 H   0  0  0  0  0  0  0  0  0  0  0  0
    5.0613    1.1090    0.8497 H   0  0  0  0  0  0  0  0  0  0  0  0
    6.6988   -0.1602    2.0819 H   0  0  0  0  0  0  0  0  0  0  0  0
    8.9514   -1.1560    2.0817 H   0  0  0  0  0  0  0  0  0  0  0  0
   12.5202   -2.7187   -2.2326 H   0  0  0  0  0  0  0  0  0  0  0  0
   12.5549   -2.7348   -0.5529 H   0  0  0  0  0  0  0  0  0  0  0  0
    7.5049   -0.5184   -3.7589 H   0  0  0  0  0  0  0  0  0  0  0  0
    8.8460   -1.1062   -4.5828 H   0  0  0  0  0  0  0  0  0  0  0  0
   10.3162   -1.7542   -0.1138 N   0  3  0  0  0  0  0  0  0  0  0  0
   10.7907   -1.9634    0.7412 H   0  0  0  0  0  0  0  0  0  0  0  0
  1  6  2  0  0  0  0
  1  2  1  0  0  0  0
  1 20  1  0  0  0  0
  2  3  2  0  0  0  0
  2 21  1  0  0  0  0
  3  4  1  0  0  0  0
  3 22  1  0  0  0  0
  4  5  2  0  0  0  0
  4  7  1  0  0  0  0
  5  6  1  0  0  0  0
  5 23  1  0  0  0  0
  6 24  1  0  0  0  0
  7  8  1  0  0  0  0
  8  9  1  0  0  0  0
  8 25  1  0  0  0  0
  8 26  1  0  0  0  0
  9 14  2  0  0  0  0
  9 10  1  0  0  0  0
 10 11  2  0  0  0  0
 10 27  1  0  0  0  0
 11 12  1  0  0  0  0
 11 28  1  0  0  0  0
 12 13  2  0  0  0  0
 12 33  1  0  0  0  0
 13 14  1  0  0  0  0
 13 15  1  0  0  0  0
 15 16  2  0  0  0  0
 15 19  1  0  0  0  0
 16 17  1  0  0  0  0
 17 18  1  0  0  0  0
 17 33  2  0  0  0  0
 18 29  1  0  0  0  0
 18 30  1  0  0  0  0
 19 31  1  0  0  0  0
 19 32  1  0  0  0  0
 33 34  1  0  0  0  0
M  CHG  1  33   1
M  END
$$$$
ZINC03814919
  -OEChem-08230709403D

 39 42  0     0  0  0  0  0  0999 V2000
    1.1547    1.7758    0.0006 C   0  0  0  0  0  0  0  0  0  0  0  0
    1.1553    3.1691    0.0076 C   0  0  0  0  0  0  0  0  0  0  0  0
   -0.0122    3.8700    0.0220 C   0  0  0  0  0  0  0  0  0  0  0  0
   -1.2353    3.1823    0.0300 C   0  0  0  0  0  0  0  0  0  0  0  0
   -1.2374    1.7657    0.0175 C   0  0  0  0  0  0  0  0  0  0  0  0
   -0.0126    1.0758    0.0080 C   0  0  0  0  0  0  0  0  0  0  0  0
   -2.4613    1.0755    0.0303 C   0  0  0  0  0  0  0  0  0  0  0  0
   -3.6335    1.7690    0.0452 C   0  0  0  0  0  0  0  0  0  0  0  0
   -3.6454    3.1599    0.0524 C   0  0  0  0  0  0  0  0  0  0  0  0
   -2.4655    3.8753    0.0450 C   0  0  0  0  0  0  0  0  0  0  0  0
   -2.4937    5.6370    0.0537 S   0  0  0  0  0  0  0  0  0  0  0  0
   -4.2605    6.0476    0.0725 C   0  0  0  0  0  0  0  0  0  0  0  0
   -4.4282    7.5452    0.0812 C   0  0  0  0  0  0  0  0  0  0  0  0
   -4.4979    8.2137    1.3016 C   0  0  0  0  0  0  0  0  0  0  0  0
   -4.6454    9.5724    1.3291 C   0  0  0  0  0  0  0  0  0  0  0  0
   -4.7321   10.2526    0.1024 C   0  0  0  0  0  0  0  0  0  0  0  0
   -4.6590    9.5072   -1.0985 C   0  0  0  0  0  0  0  0  0  0  0  0
   -4.5103    8.1865   -1.0610 N   0  0  0  0  0  0  0  0  0  0  0  0
   -4.7523   10.2431   -2.3604 C   0  0  0  0  0  0  0  0  0  0  0  0
   -4.8991   11.5589   -2.2978 N   0  0  0  0  0  0  0  0  0  0  0  0
   -4.9602   12.1941   -1.1317 C   0  0  0  0  0  0  0  0  0  0  0  0
   -4.8811   11.5813    0.0323 N   0  0  0  0  0  0  0  0  0  0  0  0
   -5.1141   13.5688   -1.1405 N   0  0  0  0  0  0  0  0  0  0  0  0
   -4.6901    9.5896   -3.5729 N   0  0  0  0  0  0  0  0  0  0  0  0
    2.0943    1.2434   -0.0113 H   0  0  0  0  0  0  0  0  0  0  0  0
    2.0952    3.7010    0.0011 H   0  0  0  0  0  0  0  0  0  0  0  0
    0.0032    4.9499    0.0270 H   0  0  0  0  0  0  0  0  0  0  0  0
    0.0021   -0.0041    0.0020 H   0  0  0  0  0  0  0  0  0  0  0  0
   -2.4726   -0.0044    0.0242 H   0  0  0  0  0  0  0  0  0  0  0  0
   -4.5694    1.2299    0.0512 H   0  0  0  0  0  0  0  0  0  0  0  0
   -4.5886    3.6858    0.0643 H   0  0  0  0  0  0  0  0  0  0  0  0
   -4.7392    5.6335   -0.8149 H   0  0  0  0  0  0  0  0  0  0  0  0
   -4.7222    5.6251    0.9649 H   0  0  0  0  0  0  0  0  0  0  0  0
   -4.4315    7.6589    2.2258 H   0  0  0  0  0  0  0  0  0  0  0  0
   -4.6976   10.1070    2.2660 H   0  0  0  0  0  0  0  0  0  0  0  0
   -5.1747   14.0446   -1.9835 H   0  0  0  0  0  0  0  0  0  0  0  0
   -5.1616   14.0568   -0.3035 H   0  0  0  0  0  0  0  0  0  0  0  0
   -4.5828    8.6260   -3.5995 H   0  0  0  0  0  0  0  0  0  0  0  0
   -4.7537   10.0936   -4.3993 H   0  0  0  0  0  0  0  0  0  0  0  0
  1  6  2  0  0  0  0
  1  2  1  0  0  0  0
  1 25  1  0  0  0  0
  2  3  2  0  0  0  0
  2 26  1  0  0  0  0
  3  4  1  0  0  0  0
  3 27  1  0  0  0  0
  4 10  2  0  0  0  0
  4  5  1  0  0  0  0
  5  6  1  0  0  0  0
  5  7  2  0  0  0  0
  6 28  1  0  0  0  0
  7  8  1  0  0  0  0
  7 29  1  0  0  0  0
  8  9  2  0  0  0  0
  8 30  1  0  0  0  0
  9 10  1  0  0  0  0
  9 31  1  0  0  0  0
 10 11  1  0  0  0  0
 11 12  1  0  0  0  0
 12 13  1  0  0  0  0
 12 32  1  0  0  0  0
 12 33  1  0  0  0  0
 13 18  2  0  0  0  0
 13 14  1  0  0  0  0
 14 15  2  0  0  0  0
 14 34  1  0  0  0  0
 15 16  1  0  0  0  0
 15 35  1  0  0  0  0
 16 22  2  0  0  0  0
 16 17  1  0  0  0  0
 17 18  1  0  0  0  0
 17 19  2  0  0  0  0
 19 20  1  0  0  0  0
 19 24  1  0  0  0  0
 20 21  2  0  0  0  0
 21 22  1  0  0  0  0
 21 23  1  0  0  0  0
 23 36  1  0  0  0  0
 23 37  1  0  0  0  0
 24 38  1  0  0  0  0
 24 39  1  0  0  0  0
M  END
$$$$
ZINC03814919
  -OEChem-08230709403D

 40 43  0     0  0  0  0  0  0999 V2000
    1.1547    1.7758    0.0006 C   0  0  0  0  0  0  0  0  0  0  0  0
    1.1553    3.1691    0.0076 C   0  0  0  0  0  0  0  0  0  0  0  0
   -0.0122    3.8700    0.0220 C   0  0  0  0  0  0  0  0  0  0  0  0
   -1.2353    3.1823    0.0300 C   0  0  0  0  0  0  0  0  0  0  0  0
   -1.2374    1.7657    0.0175 C   0  0  0  0  0  0  0  0  0  0  0  0
   -0.0126    1.0758    0.0080 C   0  0  0  0  0  0  0  0  0  0  0  0
   -2.4613    1.0755    0.0303 C   0  0  0  0  0  0  0  0  0  0  0  0
   -3.6335    1.7690    0.0452 C   0  0  0  0  0  0  0  0  0  0  0  0
   -3.6454    3.1599    0.0524 C   0  0  0  0  0  0  0  0  0  0  0  0
   -2.4655    3.8753    0.0450 C   0  0  0  0  0  0  0  0  0  0  0  0
   -2.4937    5.6370    0.0537 S   0  0  0  0  0  0  0  0  0  0  0  0
   -4.2605    6.0476    0.0725 C   0  0  0  0  0  0  0  0  0  0  0  0
   -4.4282    7.5452    0.0812 C   0  0  0  0  0  0  0  0  0  0  0  0
   -4.4979    8.2137    1.3016 C   0  0  0  0  0  0  0  0  0  0  0  0
   -4.6454    9.5724    1.3291 C   0  0  0  0  0  0  0  0  0  0  0  0
   -4.7321   10.2526    0.1024 C   0  0  0  0  0  0  0  0  0  0  0  0
   -4.6590    9.5072   -1.0985 C   0  0  0  0  0  0  0  0  0  0  0  0
   -4.5103    8.1865   -1.0610 N   0  0  0  0  0  0  0  0  0  0  0  0
   -4.7523   10.2431   -2.3604 C   0  0  0  0  0  0  0  0  0  0  0  0
   -4.8991   11.5589   -2.2978 N   0  0  0  0  0  0  0  0  0  0  0  0
   -4.9602   12.1941   -1.1317 C   0  0  0  0  0  0  0  0  0  0  0  0
   -5.1141   13.5688   -1.1405 N   0  0  0  0  0  0  0  0  0  0  0  0
   -4.6901    9.5896   -3.5729 N   0  0  0  0  0  0  0  0  0  0  0  0
    2.0943    1.2434   -0.0113 H   0  0  0  0  0  0  0  0  0  0  0  0
    2.0952    3.7010    0.0011 H   0  0  0  0  0  0  0  0  0  0  0  0
    0.0032    4.9499    0.0270 H   0  0  0  0  0  0  0  0  0  0  0  0
    0.0021   -0.0041    0.0020 H   0  0  0  0  0  0  0  0  0  0  0  0
   -2.4726   -0.0044    0.0242 H   0  0  0  0  0  0  0  0  0  0  0  0
   -4.5694    1.2299    0.0512 H   0  0  0  0  0  0  0  0  0  0  0  0
   -4.5886    3.6858    0.0643 H   0  0  0  0  0  0  0  0  0  0  0  0
   -4.7392    5.6335   -0.8149 H   0  0  0  0  0  0  0  0  0  0  0  0
   -4.7222    5.6251    0.9649 H   0  0  0  0  0  0  0  0  0  0  0  0
   -4.4315    7.6589    2.2258 H   0  0  0  0  0  0  0  0  0  0  0  0
   -4.6976   10.1070    2.2660 H   0  0  0  0  0  0  0  0  0  0  0  0
   -5.1747   14.0446   -1.9835 H   0  0  0  0  0  0  0  0  0  0  0  0
   -5.1616   14.0568   -0.3035 H   0  0  0  0  0  0  0  0  0  0  0  0
   -4.5828    8.6260   -3.5995 H   0  0  0  0  0  0  0  0  0  0  0  0
   -4.7537   10.0936   -4.3993 H   0  0  0  0  0  0  0  0  0  0  0  0
   -4.8850   11.6216    0.0953 N   0  3  0  0  0  0  0  0  0  0  0  0
   -4.9332   12.1238    0.9587 H   0  0  0  0  0  0  0  0  0  0  0  0
  1  6  2  0  0  0  0
  1  2  1  0  0  0  0
  1 24  1  0  0  0  0
  2  3  2  0  0  0  0
  2 25  1  0  0  0  0
  3  4  1  0  0  0  0
  3 26  1  0  0  0  0
  4 10  2  0  0  0  0
  4  5  1  0  0  0  0
  5  6  1  0  0  0  0
  5  7  2  0  0  0  0
  6 27  1  0  0  0  0
  7  8  1  0  0  0  0
  7 28  1  0  0  0  0
  8  9  2  0  0  0  0
  8 29  1  0  0  0  0
  9 10  1  0  0  0  0
  9 30  1  0  0  0  0
 10 11  1  0  0  0  0
 11 12  1  0  0  0  0
 12 13  1  0  0  0  0
 12 31  1  0  0  0  0
 12 32  1  0  0  0  0
 13 18  2  0  0  0  0
 13 14  1  0  0  0  0
 14 15  2  0  0  0  0
 14 33  1  0  0  0  0
 15 16  1  0  0  0  0
 15 34  1  0  0  0  0
 16 17  2  0  0  0  0
 16 39  1  0  0  0  0
 17 18  1  0  0  0  0
 17 19  1  0  0  0  0
 19 20  2  0  0  0  0
 19 23  1  0  0  0  0
 20 21  1  0  0  0  0
 21 22  1  0  0  0  0
 21 39  2  0  0  0  0
 22 35  1  0  0  0  0
 22 36  1  0  0  0  0
 23 37  1  0  0  0  0
 23 38  1  0  0  0  0
 39 40  1  0  0  0  0
M  CHG  1  39   1
M  END
$$$$
ZINC03814920
  -OEChem-08230709403D

 40 43  0     0  0  0  0  0  0999 V2000
    2.3133    5.2608    0.0063 C   0  0  0  0  0  0  0  0  0  0  0  0
    1.0965    5.9399    0.0208 C   0  0  0  0  0  0  0  0  0  0  0  0
   -0.0841    5.2616    0.0285 C   0  0  0  0  0  0  0  0  0  0  0  0
   -0.0791    3.8581    0.0226 C   0  0  0  0  0  0  0  0  0  0  0  0
    1.1573    3.1666    0.0075 C   0  0  0  0  0  0  0  0  0  0  0  0
    2.3562    3.9005   -0.0006 C   0  0  0  0  0  0  0  0  0  0  0  0
    1.1639    1.7615    0.0004 C   0  0  0  0  0  0  0  0  0  0  0  0
   -0.0126    1.0758    0.0080 C   0  0  0  0  0  0  0  0  0  0  0  0
   -1.2333    1.7435    0.0174 C   0  0  0  0  0  0  0  0  0  0  0  0
   -1.2830    3.1214    0.0306 C   0  0  0  0  0  0  0  0  0  0  0  0
   -2.5104    3.7804    0.0454 N   0  0  0  0  0  0  0  0  0  0  0  0
   -3.7559    3.0091    0.0536 C   0  0  0  0  0  0  0  0  0  0  0  0
   -4.9309    3.9526    0.0693 C   0  0  0  0  0  0  0  0  0  0  0  0
   -5.5347    4.3054   -1.1356 C   0  0  0  0  0  0  0  0  0  0  0  0
   -6.6044    5.1565   -1.1406 C   0  0  0  0  0  0  0  0  0  0  0  0
   -7.0549    5.6587    0.0922 C   0  0  0  0  0  0  0  0  0  0  0  0
   -6.3893    5.2608    1.2761 C   0  0  0  0  0  0  0  0  0  0  0  0
   -5.3564    4.4257    1.2173 N   0  0  0  0  0  0  0  0  0  0  0  0
   -6.8810    5.8003    2.5449 C   0  0  0  0  0  0  0  0  0  0  0  0
   -7.9171    6.6259    2.5040 N   0  0  0  0  0  0  0  0  0  0  0  0
   -8.4941    6.9564    1.3529 C   0  0  0  0  0  0  0  0  0  0  0  0
   -8.0924    6.5000    0.1836 N   0  0  0  0  0  0  0  0  0  0  0  0
   -9.5715    7.8234    1.3840 N   0  0  0  0  0  0  0  0  0  0  0  0
   -6.2863    5.4615    3.7418 N   0  0  0  0  0  0  0  0  0  0  0  0
    3.2359    5.8223    0.0001 H   0  0  0  0  0  0  0  0  0  0  0  0
    1.0899    7.0198    0.0257 H   0  0  0  0  0  0  0  0  0  0  0  0
   -1.0197    5.8009    0.0397 H   0  0  0  0  0  0  0  0  0  0  0  0
    3.3066    3.3875   -0.0125 H   0  0  0  0  0  0  0  0  0  0  0  0
    2.1015    1.2257   -0.0114 H   0  0  0  0  0  0  0  0  0  0  0  0
    0.0021   -0.0041    0.0020 H   0  0  0  0  0  0  0  0  0  0  0  0
   -2.1522    1.1760    0.0187 H   0  0  0  0  0  0  0  0  0  0  0  0
   -2.5402    4.7499    0.0503 H   0  0  0  0  0  0  0  0  0  0  0  0
   -3.8028    2.3852   -0.8389 H   0  0  0  0  0  0  0  0  0  0  0  0
   -3.7858    2.3768    0.9410 H   0  0  0  0  0  0  0  0  0  0  0  0
   -5.1602    3.9034   -2.0654 H   0  0  0  0  0  0  0  0  0  0  0  0
   -7.0868    5.4376   -2.0651 H   0  0  0  0  0  0  0  0  0  0  0  0
   -9.8877    8.1739    2.2314 H   0  0  0  0  0  0  0  0  0  0  0  0
  -10.0108    8.0809    0.5584 H   0  0  0  0  0  0  0  0  0  0  0  0
   -5.5287    4.8559    3.7526 H   0  0  0  0  0  0  0  0  0  0  0  0
   -6.6257    5.8287    4.5730 H   0  0  0  0  0  0  0  0  0  0  0  0
  1  6  2  0  0  0  0
  1  2  1  0  0  0  0
  1 25  1  0  0  0  0
  2  3  2  0  0  0  0
  2 26  1  0  0  0  0
  3  4  1  0  0  0  0
  3 27  1  0  0  0  0
  4 10  2  0  0  0  0
  4  5  1  0  0  0  0
  5  6  1  0  0  0  0
  5  7  2  0  0  0  0
  6 28  1  0  0  0  0
  7  8  1  0  0  0  0
  7 29  1  0  0  0  0
  8  9  2  0  0  0  0
  8 30  1  0  0  0  0
  9 10  1  0  0  0  0
  9 31  1  0  0  0  0
 10 11  1  0  0  0  0
 11 12  1  0  0  0  0
 11 32  1  0  0  0  0
 12 13  1  0  0  0  0
 12 33  1  0  0  0  0
 12 34  1  0  0  0  0
 13 18  2  0  0  0  0
 13 14  1  0  0  0  0
 14 15  2  0  0  0  0
 14 35  1  0  0  0  0
 15 16  1  0  0  0  0
 15 36  1  0  0  0  0
 16 22  2  0  0  0  0
 16 17  1  0  0  0  0
 17 18  1  0  0  0  0
 17 19  2  0  0  0  0
 19 20  1  0  0  0  0
 19 24  1  0  0  0  0
 20 21  2  0  0  0  0
 21 22  1  0  0  0  0
 21 23  1  0  0  0  0
 23 37  1  0  0  0  0
 23 38  1  0  0  0  0
 24 39  1  0  0  0  0
 24 40  1  0  0  0  0
M  END
$$$$
ZINC03814920
  -OEChem-08230709403D

 41 44  0     0  0  0  0  0  0999 V2000
    2.3133    5.2608    0.0063 C   0  0  0  0  0  0  0  0  0  0  0  0
    1.0965    5.9399    0.0208 C   0  0  0  0  0  0  0  0  0  0  0  0
   -0.0841    5.2616    0.0285 C   0  0  0  0  0  0  0  0  0  0  0  0
   -0.0791    3.8581    0.0226 C   0  0  0  0  0  0  0  0  0  0  0  0
    1.1573    3.1666    0.0075 C   0  0  0  0  0  0  0  0  0  0  0  0
    2.3562    3.9005   -0.0006 C   0  0  0  0  0  0  0  0  0  0  0  0
    1.1639    1.7615    0.0004 C   0  0  0  0  0  0  0  0  0  0  0  0
   -0.0126    1.0758    0.0080 C   0  0  0  0  0  0  0  0  0  0  0  0
   -1.2333    1.7435    0.0174 C   0  0  0  0  0  0  0  0  0  0  0  0
   -1.2830    3.1214    0.0306 C   0  0  0  0  0  0  0  0  0  0  0  0
   -2.5104    3.7804    0.0454 N   0  0  0  0  0  0  0  0  0  0  0  0
   -3.7559    3.0091    0.0536 C   0  0  0  0  0  0  0  0  0  0  0  0
   -4.9309    3.9526    0.0693 C   0  0  0  0  0  0  0  0  0  0  0  0
   -5.5347    4.3054   -1.1356 C   0  0  0  0  0  0  0  0  0  0  0  0
   -6.6044    5.1565   -1.1406 C   0  0  0  0  0  0  0  0  0  0  0  0
   -7.0549    5.6587    0.0922 C   0  0  0  0  0  0  0  0  0  0  0  0
   -6.3893    5.2608    1.2761 C   0  0  0  0  0  0  0  0  0  0  0  0
   -5.3564    4.4257    1.2173 N   0  0  0  0  0  0  0  0  0  0  0  0
   -6.8810    5.8003    2.5449 C   0  0  0  0  0  0  0  0  0  0  0  0
   -7.9171    6.6259    2.5040 N   0  0  0  0  0  0  0  0  0  0  0  0
   -8.4941    6.9564    1.3529 C   0  0  0  0  0  0  0  0  0  0  0  0
   -9.5715    7.8234    1.3840 N   0  0  0  0  0  0  0  0  0  0  0  0
   -6.2863    5.4615    3.7418 N   0  0  0  0  0  0  0  0  0  0  0  0
    3.2359    5.8223    0.0001 H   0  0  0  0  0  0  0  0  0  0  0  0
    1.0899    7.0198    0.0257 H   0  0  0  0  0  0  0  0  0  0  0  0
   -1.0197    5.8009    0.0397 H   0  0  0  0  0  0  0  0  0  0  0  0
    3.3066    3.3875   -0.0125 H   0  0  0  0  0  0  0  0  0  0  0  0
    2.1015    1.2257   -0.0114 H   0  0  0  0  0  0  0  0  0  0  0  0
    0.0021   -0.0041    0.0020 H   0  0  0  0  0  0  0  0  0  0  0  0
   -2.1522    1.1760    0.0187 H   0  0  0  0  0  0  0  0  0  0  0  0
   -2.5402    4.7499    0.0503 H   0  0  0  0  0  0  0  0  0  0  0  0
   -3.8028    2.3852   -0.8389 H   0  0  0  0  0  0  0  0  0  0  0  0
   -3.7858    2.3768    0.9410 H   0  0  0  0  0  0  0  0  0  0  0  0
   -5.1602    3.9034   -2.0654 H   0  0  0  0  0  0  0  0  0  0  0  0
   -7.0868    5.4376   -2.0651 H   0  0  0  0  0  0  0  0  0  0  0  0
   -9.8877    8.1739    2.2314 H   0  0  0  0  0  0  0  0  0  0  0  0
  -10.0108    8.0809    0.5584 H   0  0  0  0  0  0  0  0  0  0  0  0
   -5.5287    4.8559    3.7526 H   0  0  0  0  0  0  0  0  0  0  0  0
   -6.6257    5.8287    4.5730 H   0  0  0  0  0  0  0  0  0  0  0  0
   -8.1283    6.5216    0.1215 N   0  3  0  0  0  0  0  0  0  0  0  0
   -8.5808    6.7858   -0.7302 H   0  0  0  0  0  0  0  0  0  0  0  0
  1  6  2  0  0  0  0
  1  2  1  0  0  0  0
  1 24  1  0  0  0  0
  2  3  2  0  0  0  0
  2 25  1  0  0  0  0
  3  4  1  0  0  0  0
  3 26  1  0  0  0  0
  4 10  2  0  0  0  0
  4  5  1  0  0  0  0
  5  6  1  0  0  0  0
  5  7  2  0  0  0  0
  6 27  1  0  0  0  0
  7  8  1  0  0  0  0
  7 28  1  0  0  0  0
  8  9  2  0  0  0  0
  8 29  1  0  0  0  0
  9 10  1  0  0  0  0
  9 30  1  0  0  0  0
 10 11  1  0  0  0  0
 11 12  1  0  0  0  0
 11 31  1  0  0  0  0
 12 13  1  0  0  0  0
 12 32  1  0  0  0  0
 12 33  1  0  0  0  0
 13 18  2  0  0  0  0
 13 14  1  0  0  0  0
 14 15  2  0  0  0  0
 14 34  1  0  0  0  0
 15 16  1  0  0  0  0
 15 35  1  0  0  0  0
 16 17  2  0  0  0  0
 16 40  1  0  0  0  0
 17 18  1  0  0  0  0
 17 19  1  0  0  0  0
 19 20  2  0  0  0  0
 19 23  1  0  0  0  0
 20 21  1  0  0  0  0
 21 22  1  0  0  0  0
 21 40  2  0  0  0  0
 22 36  1  0  0  0  0
 22 37  1  0  0  0  0
 23 38  1  0  0  0  0
 23 39  1  0  0  0  0
 40 41  1  0  0  0  0
M  CHG  1  40   1
M  END
$$$$
ZINC03814921
  -OEChem-08230709403D

 43 46  0     1  0  0  0  0  0999 V2000
   -3.2708    3.5047   -1.1809 C   0  0  0  0  0  0  0  0  0  0  0  0
   -2.5104    3.7804    0.0454 N   0  0  1  0  0  0  0  0  0  0  0  0
   -3.2872    3.4197    1.2389 C   0  0  0  0  0  0  0  0  0  0  0  0
   -4.4870    4.3249    1.3498 C   0  0  0  0  0  0  0  0  0  0  0  0
   -5.7064    3.9038    0.8238 C   0  0  0  0  0  0  0  0  0  0  0  0
   -6.8065    4.7096    0.9191 C   0  0  0  0  0  0  0  0  0  0  0  0
   -6.6587    5.9581    1.5472 C   0  0  0  0  0  0  0  0  0  0  0  0
   -5.3881    6.3217    2.0535 C   0  0  0  0  0  0  0  0  0  0  0  0
   -4.3556    5.4925    1.9349 N   0  0  0  0  0  0  0  0  0  0  0  0
   -5.2649    7.6280    2.7023 C   0  0  0  0  0  0  0  0  0  0  0  0
   -6.3499    8.3860    2.7741 N   0  0  0  0  0  0  0  0  0  0  0  0
   -7.5131    7.9789    2.2756 C   0  0  0  0  0  0  0  0  0  0  0  0
   -7.6794    6.8139    1.6825 N   0  0  0  0  0  0  0  0  0  0  0  0
   -8.6049    8.8212    2.3854 N   0  0  0  0  0  0  0  0  0  0  0  0
   -4.0611    8.0557    3.2207 N   0  0  0  0  0  0  0  0  0  0  0  0
   -1.2830    3.1214    0.0306 C   0  0  0  0  0  0  0  0  0  0  0  0
   -1.2333    1.7435    0.0174 C   0  0  0  0  0  0  0  0  0  0  0  0
   -0.0126    1.0758    0.0080 C   0  0  0  0  0  0  0  0  0  0  0  0
    1.1639    1.7615    0.0004 C   0  0  0  0  0  0  0  0  0  0  0  0
    1.1573    3.1666    0.0075 C   0  0  0  0  0  0  0  0  0  0  0  0
   -0.0791    3.8581    0.0226 C   0  0  0  0  0  0  0  0  0  0  0  0
   -0.0841    5.2616    0.0285 C   0  0  0  0  0  0  0  0  0  0  0  0
    1.0965    5.9399    0.0208 C   0  0  0  0  0  0  0  0  0  0  0  0
    2.3133    5.2608    0.0063 C   0  0  0  0  0  0  0  0  0  0  0  0
    2.3562    3.9005   -0.0006 C   0  0  0  0  0  0  0  0  0  0  0  0
   -3.4506    2.4329   -1.2636 H   0  0  0  0  0  0  0  0  0  0  0  0
   -4.2244    4.0313   -1.1431 H   0  0  0  0  0  0  0  0  0  0  0  0
   -2.7015    3.8455   -2.0457 H   0  0  0  0  0  0  0  0  0  0  0  0
   -3.6193    2.3847    1.1571 H   0  0  0  0  0  0  0  0  0  0  0  0
   -2.6639    3.5323    2.1259 H   0  0  0  0  0  0  0  0  0  0  0  0
   -5.7834    2.9392    0.3442 H   0  0  0  0  0  0  0  0  0  0  0  0
   -7.7603    4.3975    0.5201 H   0  0  0  0  0  0  0  0  0  0  0  0
   -8.5100    9.6844    2.8176 H   0  0  0  0  0  0  0  0  0  0  0  0
   -9.4654    8.5487    2.0301 H   0  0  0  0  0  0  0  0  0  0  0  0
   -3.2772    7.4878    3.1589 H   0  0  0  0  0  0  0  0  0  0  0  0
   -3.9980    8.9246    3.6473 H   0  0  0  0  0  0  0  0  0  0  0  0
   -2.1522    1.1760    0.0187 H   0  0  0  0  0  0  0  0  0  0  0  0
    0.0021   -0.0041    0.0020 H   0  0  0  0  0  0  0  0  0  0  0  0
    2.1015    1.2257   -0.0114 H   0  0  0  0  0  0  0  0  0  0  0  0
   -1.0197    5.8009    0.0397 H   0  0  0  0  0  0  0  0  0  0  0  0
    1.0899    7.0198    0.0257 H   0  0  0  0  0  0  0  0  0  0  0  0
    3.2359    5.8223    0.0001 H   0  0  0  0  0  0  0  0  0  0  0  0
    3.3066    3.3875   -0.0125 H   0  0  0  0  0  0  0  0  0  0  0  0
  1  2  1  0  0  0  0
  1 26  1  0  0  0  0
  1 27  1  0  0  0  0
  1 28  1  0  0  0  0
  2  3  1  0  0  0  0
  2 16  1  0  0  0  0
  3  4  1  0  0  0  0
  3 29  1  0  0  0  0
  3 30  1  0  0  0  0
  4  9  2  0  0  0  0
  4  5  1  0  0  0  0
  5  6  2  0  0  0  0
  5 31  1  0  0  0  0
  6  7  1  0  0  0  0
  6 32  1  0  0  0  0
  7 13  2  0  0  0  0
  7  8  1  0  0  0  0
  8  9  1  0  0  0  0
  8 10  2  0  0  0  0
 10 11  1  0  0  0  0
 10 15  1  0  0  0  0
 11 12  2  0  0  0  0
 12 13  1  0  0  0  0
 12 14  1  0  0  0  0
 14 33  1  0  0  0  0
 14 34  1  0  0  0  0
 15 35  1  0  0  0  0
 15 36  1  0  0  0  0
 16 21  2  0  0  0  0
 16 17  1  0  0  0  0
 17 18  2  0  0  0  0
 17 37  1  0  0  0  0
 18 19  1  0  0  0  0
 18 38  1  0  0  0  0
 19 20  2  0  0  0  0
 19 39  1  0  0  0  0
 20 25  1  0  0  0  0
 20 21  1  0  0  0  0
 21 22  1  0  0  0  0
 22 23  2  0  0  0  0
 22 40  1  0  0  0  0
 23 24  1  0  0  0  0
 23 41  1  0  0  0  0
 24 25  2  0  0  0  0
 24 42  1  0  0  0  0
 25 43  1  0  0  0  0
M  END
$$$$
ZINC03814921
  -OEChem-08230709403D

 44 47  0     1  0  0  0  0  0999 V2000
   -3.2708    3.5047   -1.1809 C   0  0  0  0  0  0  0  0  0  0  0  0
   -2.5104    3.7804    0.0454 N   0  0  1  0  0  0  0  0  0  0  0  0
   -3.2872    3.4197    1.2389 C   0  0  0  0  0  0  0  0  0  0  0  0
   -4.4870    4.3249    1.3498 C   0  0  0  0  0  0  0  0  0  0  0  0
   -5.7064    3.9038    0.8238 C   0  0  0  0  0  0  0  0  0  0  0  0
   -6.8065    4.7096    0.9191 C   0  0  0  0  0  0  0  0  0  0  0  0
   -6.6587    5.9581    1.5472 C   0  0  0  0  0  0  0  0  0  0  0  0
   -5.3881    6.3217    2.0535 C   0  0  0  0  0  0  0  0  0  0  0  0
   -4.3556    5.4925    1.9349 N   0  0  0  0  0  0  0  0  0  0  0  0
   -5.2649    7.6280    2.7023 C   0  0  0  0  0  0  0  0  0  0  0  0
   -6.3499    8.3860    2.7741 N   0  0  0  0  0  0  0  0  0  0  0  0
   -7.5131    7.9789    2.2756 C   0  0  0  0  0  0  0  0  0  0  0  0
   -8.6049    8.8212    2.3854 N   0  0  0  0  0  0  0  0  0  0  0  0
   -4.0611    8.0557    3.2207 N   0  0  0  0  0  0  0  0  0  0  0  0
   -1.2830    3.1214    0.0306 C   0  0  0  0  0  0  0  0  0  0  0  0
   -1.2333    1.7435    0.0174 C   0  0  0  0  0  0  0  0  0  0  0  0
   -0.0126    1.0758    0.0080 C   0  0  0  0  0  0  0  0  0  0  0  0
    1.1639    1.7615    0.0004 C   0  0  0  0  0  0  0  0  0  0  0  0
    1.1573    3.1666    0.0075 C   0  0  0  0  0  0  0  0  0  0  0  0
   -0.0791    3.8581    0.0226 C   0  0  0  0  0  0  0  0  0  0  0  0
   -0.0841    5.2616    0.0285 C   0  0  0  0  0  0  0  0  0  0  0  0
    1.0965    5.9399    0.0208 C   0  0  0  0  0  0  0  0  0  0  0  0
    2.3133    5.2608    0.0063 C   0  0  0  0  0  0  0  0  0  0  0  0
    2.3562    3.9005   -0.0006 C   0  0  0  0  0  0  0  0  0  0  0  0
   -3.4506    2.4329   -1.2636 H   0  0  0  0  0  0  0  0  0  0  0  0
   -4.2244    4.0313   -1.1431 H   0  0  0  0  0  0  0  0  0  0  0  0
   -2.7015    3.8455   -2.0457 H   0  0  0  0  0  0  0  0  0  0  0  0
   -3.6193    2.3847    1.1571 H   0  0  0  0  0  0  0  0  0  0  0  0
   -2.6639    3.5323    2.1259 H   0  0  0  0  0  0  0  0  0  0  0  0
   -5.7834    2.9392    0.3442 H   0  0  0  0  0  0  0  0  0  0  0  0
   -7.7603    4.3975    0.5201 H   0  0  0  0  0  0  0  0  0  0  0  0
   -8.5100    9.6844    2.8176 H   0  0  0  0  0  0  0  0  0  0  0  0
   -9.4654    8.5487    2.0301 H   0  0  0  0  0  0  0  0  0  0  0  0
   -3.2772    7.4878    3.1589 H   0  0  0  0  0  0  0  0  0  0  0  0
   -3.9980    8.9246    3.6473 H   0  0  0  0  0  0  0  0  0  0  0  0
   -2.1522    1.1760    0.0187 H   0  0  0  0  0  0  0  0  0  0  0  0
    0.0021   -0.0041    0.0020 H   0  0  0  0  0  0  0  0  0  0  0  0
    2.1015    1.2257   -0.0114 H   0  0  0  0  0  0  0  0  0  0  0  0
   -1.0197    5.8009    0.0397 H   0  0  0  0  0  0  0  0  0  0  0  0
    1.0899    7.0198    0.0257 H   0  0  0  0  0  0  0  0  0  0  0  0
    3.2359    5.8223    0.0001 H   0  0  0  0  0  0  0  0  0  0  0  0
    3.3066    3.3875   -0.0125 H   0  0  0  0  0  0  0  0  0  0  0  0
   -7.7470    6.7956    1.6561 N   0  3  0  0  0  0  0  0  0  0  0  0
   -8.6337    6.5133    1.2899 H   0  0  0  0  0  0  0  0  0  0  0  0
  1  2  1  0  0  0  0
  1 25  1  0  0  0  0
  1 26  1  0  0  0  0
  1 27  1  0  0  0  0
  2  3  1  0  0  0  0
  2 15  1  0  0  0  0
  3  4  1  0  0  0  0
  3 28  1  0  0  0  0
  3 29  1  0  0  0  0
  4  9  2  0  0  0  0
  4  5  1  0  0  0  0
  5  6  2  0  0  0  0
  5 30  1  0  0  0  0
  6  7  1  0  0  0  0
  6 31  1  0  0  0  0
  7  8  2  0  0  0  0
  7 43  1  0  0  0  0
  8  9  1  0  0  0  0
  8 10  1  0  0  0  0
 10 11  2  0  0  0  0
 10 14  1  0  0  0  0
 11 12  1  0  0  0  0
 12 13  1  0  0  0  0
 12 43  2  0  0  0  0
 13 32  1  0  0  0  0
 13 33  1  0  0  0  0
 14 34  1  0  0  0  0
 14 35  1  0  0  0  0
 15 20  2  0  0  0  0
 15 16  1  0  0  0  0
 16 17  2  0  0  0  0
 16 36  1  0  0  0  0
 17 18  1  0  0  0  0
 17 37  1  0  0  0  0
 18 19  2  0  0  0  0
 18 38  1  0  0  0  0
 19 24  1  0  0  0  0
 19 20  1  0  0  0  0
 20 21  1  0  0  0  0
 21 22  2  0  0  0  0
 21 39  1  0  0  0  0
 22 23  1  0  0  0  0
 22 40  1  0  0  0  0
 23 24  2  0  0  0  0
 23 41  1  0  0  0  0
 24 42  1  0  0  0  0
 43 44  1  0  0  0  0
M  CHG  1  43   1
M  END
$$$$
ZINC03814922
  -OEChem-08230709403D

 34 36  0     0  0  0  0  0  0999 V2000
   -0.0167    1.3786    0.0096 C   0  0  0  0  0  0  0  0  0  0  0  0
    1.1695    2.0894    0.0021 C   0  0  0  0  0  0  0  0  0  0  0  0
    2.3774    1.4200   -0.0131 C   0  0  0  0  0  0  0  0  0  0  0  0
    2.3998    0.0311   -0.0208 C   0  0  0  0  0  0  0  0  0  0  0  0
    1.2064   -0.6798   -0.0132 C   0  0  0  0  0  0  0  0  0  0  0  0
    0.0021   -0.0041    0.0020 C   0  0  0  0  0  0  0  0  0  0  0  0
    3.6196   -0.6491   -0.0366 N   0  0  0  0  0  0  0  0  0  0  0  0
    4.8773    0.1022   -0.0446 C   0  0  0  0  0  0  0  0  0  0  0  0
    6.0371   -0.8599   -0.0614 C   0  0  0  0  0  0  0  0  0  0  0  0
    6.6119   -1.2094   -1.2814 C   0  0  0  0  0  0  0  0  0  0  0  0
    7.6676   -2.0772   -1.3159 C   0  0  0  0  0  0  0  0  0  0  0  0
    8.1336   -2.5995   -0.0973 C   0  0  0  0  0  0  0  0  0  0  0  0
    7.4973   -2.2037    1.1034 C   0  0  0  0  0  0  0  0  0  0  0  0
    6.4769   -1.3518    1.0732 N   0  0  0  0  0  0  0  0  0  0  0  0
    8.0046   -2.7643    2.3567 C   0  0  0  0  0  0  0  0  0  0  0  0
    9.0263   -3.6057    2.2872 N   0  0  0  0  0  0  0  0  0  0  0  0
    9.5757   -3.9331    1.1218 C   0  0  0  0  0  0  0  0  0  0  0  0
    9.1590   -3.4580   -0.0346 N   0  0  0  0  0  0  0  0  0  0  0  0
   10.6395   -4.8173    1.1231 N   0  0  0  0  0  0  0  0  0  0  0  0
    7.4386   -2.4288    3.5683 N   0  0  0  0  0  0  0  0  0  0  0  0
   -0.9599    1.9046    0.0170 H   0  0  0  0  0  0  0  0  0  0  0  0
    1.1513    3.1692    0.0078 H   0  0  0  0  0  0  0  0  0  0  0  0
    3.3034    1.9757   -0.0190 H   0  0  0  0  0  0  0  0  0  0  0  0
    1.2204   -1.7597   -0.0194 H   0  0  0  0  0  0  0  0  0  0  0  0
   -0.9261   -0.5561    0.0076 H   0  0  0  0  0  0  0  0  0  0  0  0
    3.6341   -1.6190   -0.0423 H   0  0  0  0  0  0  0  0  0  0  0  0
    4.9170    0.7347   -0.9314 H   0  0  0  0  0  0  0  0  0  0  0  0
    4.9344    0.7246    0.8484 H   0  0  0  0  0  0  0  0  0  0  0  0
    6.2260   -0.7917   -2.1996 H   0  0  0  0  0  0  0  0  0  0  0  0
    8.1275   -2.3561   -2.2524 H   0  0  0  0  0  0  0  0  0  0  0  0
   10.9663   -5.1817    1.9606 H   0  0  0  0  0  0  0  0  0  0  0  0
   11.0587   -5.0729    0.2866 H   0  0  0  0  0  0  0  0  0  0  0  0
    6.6910   -1.8115    3.6001 H   0  0  0  0  0  0  0  0  0  0  0  0
    7.7879   -2.8101    4.3890 H   0  0  0  0  0  0  0  0  0  0  0  0
  1  6  2  0  0  0  0
  1  2  1  0  0  0  0
  1 21  1  0  0  0  0
  2  3  2  0  0  0  0
  2 22  1  0  0  0  0
  3  4  1  0  0  0  0
  3 23  1  0  0  0  0
  4  5  2  0  0  0  0
  4  7  1  0  0  0  0
  5  6  1  0  0  0  0
  5 24  1  0  0  0  0
  6 25  1  0  0  0  0
  7  8  1  0  0  0  0
  7 26  1  0  0  0  0
  8  9  1  0  0  0  0
  8 27  1  0  0  0  0
  8 28  1  0  0  0  0
  9 14  2  0  0  0  0
  9 10  1  0  0  0  0
 10 11  2  0  0  0  0
 10 29  1  0  0  0  0
 11 12  1  0  0  0  0
 11 30  1  0  0  0  0
 12 18  2  0  0  0  0
 12 13  1  0  0  0  0
 13 14  1  0  0  0  0
 13 15  2  0  0  0  0
 15 16  1  0  0  0  0
 15 20  1  0  0  0  0
 16 17  2  0  0  0  0
 17 18  1  0  0  0  0
 17 19  1  0  0  0  0
 19 31  1  0  0  0  0
 19 32  1  0  0  0  0
 20 33  1  0  0  0  0
 20 34  1  0  0  0  0
M  END
$$$$
ZINC03814922
  -OEChem-08230709403D

 35 37  0     0  0  0  0  0  0999 V2000
   -0.0167    1.3786    0.0096 C   0  0  0  0  0  0  0  0  0  0  0  0
    1.1695    2.0894    0.0021 C   0  0  0  0  0  0  0  0  0  0  0  0
    2.3774    1.4200   -0.0131 C   0  0  0  0  0  0  0  0  0  0  0  0
    2.3998    0.0311   -0.0208 C   0  0  0  0  0  0  0  0  0  0  0  0
    1.2064   -0.6798   -0.0132 C   0  0  0  0  0  0  0  0  0  0  0  0
    0.0021   -0.0041    0.0020 C   0  0  0  0  0  0  0  0  0  0  0  0
    3.6196   -0.6491   -0.0366 N   0  0  0  0  0  0  0  0  0  0  0  0
    4.8773    0.1022   -0.0446 C   0  0  0  0  0  0  0  0  0  0  0  0
    6.0371   -0.8599   -0.0614 C   0  0  0  0  0  0  0  0  0  0  0  0
    6.6119   -1.2094   -1.2814 C   0  0  0  0  0  0  0  0  0  0  0  0
    7.6676   -2.0772   -1.3159 C   0  0  0  0  0  0  0  0  0  0  0  0
    8.1336   -2.5995   -0.0973 C   0  0  0  0  0  0  0  0  0  0  0  0
    7.4973   -2.2037    1.1034 C   0  0  0  0  0  0  0  0  0  0  0  0
    6.4769   -1.3518    1.0732 N   0  0  0  0  0  0  0  0  0  0  0  0
    8.0046   -2.7643    2.3567 C   0  0  0  0  0  0  0  0  0  0  0  0
    9.0263   -3.6057    2.2872 N   0  0  0  0  0  0  0  0  0  0  0  0
    9.5757   -3.9331    1.1218 C   0  0  0  0  0  0  0  0  0  0  0  0
   10.6395   -4.8173    1.1231 N   0  0  0  0  0  0  0  0  0  0  0  0
    7.4386   -2.4288    3.5683 N   0  0  0  0  0  0  0  0  0  0  0  0
   -0.9599    1.9046    0.0170 H   0  0  0  0  0  0  0  0  0  0  0  0
    1.1513    3.1692    0.0078 H   0  0  0  0  0  0  0  0  0  0  0  0
    3.3034    1.9757   -0.0190 H   0  0  0  0  0  0  0  0  0  0  0  0
    1.2204   -1.7597   -0.0194 H   0  0  0  0  0  0  0  0  0  0  0  0
   -0.9261   -0.5561    0.0076 H   0  0  0  0  0  0  0  0  0  0  0  0
    3.6341   -1.6190   -0.0423 H   0  0  0  0  0  0  0  0  0  0  0  0
    4.9170    0.7347   -0.9314 H   0  0  0  0  0  0  0  0  0  0  0  0
    4.9344    0.7246    0.8484 H   0  0  0  0  0  0  0  0  0  0  0  0
    6.2260   -0.7917   -2.1996 H   0  0  0  0  0  0  0  0  0  0  0  0
    8.1275   -2.3561   -2.2524 H   0  0  0  0  0  0  0  0  0  0  0  0
   10.9663   -5.1817    1.9606 H   0  0  0  0  0  0  0  0  0  0  0  0
   11.0587   -5.0729    0.2866 H   0  0  0  0  0  0  0  0  0  0  0  0
    6.6910   -1.8115    3.6001 H   0  0  0  0  0  0  0  0  0  0  0  0
    7.7879   -2.8101    4.3890 H   0  0  0  0  0  0  0  0  0  0  0  0
    9.1934   -3.4795   -0.0976 N   0  3  0  0  0  0  0  0  0  0  0  0
    9.6252   -3.7418   -0.9606 H   0  0  0  0  0  0  0  0  0  0  0  0
  1  6  2  0  0  0  0
  1  2  1  0  0  0  0
  1 20  1  0  0  0  0
  2  3  2  0  0  0  0
  2 21  1  0  0  0  0
  3  4  1  0  0  0  0
  3 22  1  0  0  0  0
  4  5  2  0  0  0  0
  4  7  1  0  0  0  0
  5  6  1  0  0  0  0
  5 23  1  0  0  0  0
  6 24  1  0  0  0  0
  7  8  1  0  0  0  0
  7 25  1  0  0  0  0
  8  9  1  0  0  0  0
  8 26  1  0  0  0  0
  8 27  1  0  0  0  0
  9 14  2  0  0  0  0
  9 10  1  0  0  0  0
 10 11  2  0  0  0  0
 10 28  1  0  0  0  0
 11 12  1  0  0  0  0
 11 29  1  0  0  0  0
 12 13  2  0  0  0  0
 12 34  1  0  0  0  0
 13 14  1  0  0  0  0
 13 15  1  0  0  0  0
 15 16  2  0  0  0  0
 15 19  1  0  0  0  0
 16 17  1  0  0  0  0
 17 18  1  0  0  0  0
 17 34  2  0  0  0  0
 18 30  1  0  0  0  0
 18 31  1  0  0  0  0
 19 32  1  0  0  0  0
 19 33  1  0  0  0  0
 34 35  1  0  0  0  0
M  CHG  1  34   1
M  END
$$$$
ZINC03814923
  -OEChem-08230709403D

 39 41  0     0  0  0  0  0  0999 V2000
    2.4708    4.3104    0.0016 C   0  0  0  0  0  0  0  0  0  0  0  0
    1.1735    3.5436    0.0099 C   0  0  0  0  0  0  0  0  0  0  0  0
    0.1169    4.1393    0.0232 O   0  0  0  0  0  0  0  0  0  0  0  0
    1.1885    2.0762    0.0019 C   0  0  0  0  0  0  0  0  0  0  0  0
   -0.0164    1.3612    0.0095 C   0  0  0  0  0  0  0  0  0  0  0  0
    0.0021   -0.0041    0.0020 C   0  0  0  0  0  0  0  0  0  0  0  0
    1.2167   -0.6862   -0.0132 C   0  0  0  0  0  0  0  0  0  0  0  0
    2.4171    0.0207   -0.0204 C   0  0  0  0  0  0  0  0  0  0  0  0
    2.4078    1.3861   -0.0130 C   0  0  0  0  0  0  0  0  0  0  0  0
    1.2309   -2.0750   -0.0208 N   0  0  0  0  0  0  0  0  0  0  0  0
    2.5070   -2.7944   -0.0369 C   0  0  0  0  0  0  0  0  0  0  0  0
    2.2467   -4.2788   -0.0424 C   0  0  0  0  0  0  0  0  0  0  0  0
    2.2166   -4.9585   -1.2581 C   0  0  0  0  0  0  0  0  0  0  0  0
    1.9864   -6.3058   -1.2823 C   0  0  0  0  0  0  0  0  0  0  0  0
    1.7758   -6.9622   -0.0577 C   0  0  0  0  0  0  0  0  0  0  0  0
    1.8154   -6.2063    1.1381 C   0  0  0  0  0  0  0  0  0  0  0  0
    2.0488   -4.8979    1.0979 N   0  0  0  0  0  0  0  0  0  0  0  0
    1.5924   -6.9174    2.3980 C   0  0  0  0  0  0  0  0  0  0  0  0
    1.3679   -8.2223    2.3384 N   0  0  0  0  0  0  0  0  0  0  0  0
    1.3449   -8.8686    1.1770 C   0  0  0  0  0  0  0  0  0  0  0  0
    1.5396   -8.2780    0.0151 N   0  0  0  0  0  0  0  0  0  0  0  0
    1.1049  -10.2309    1.1887 N   0  0  0  0  0  0  0  0  0  0  0  0
    1.6146   -6.2523    3.6055 N   0  0  0  0  0  0  0  0  0  0  0  0
    2.7487    4.4851   -0.9430 H   0  0  0  0  0  0  0  0  0  0  0  0
    2.3357    5.2587    0.5219 H   0  0  0  0  0  0  0  0  0  0  0  0
    3.2413    3.7264    0.5050 H   0  0  0  0  0  0  0  0  0  0  0  0
   -0.9585    1.8893    0.0169 H   0  0  0  0  0  0  0  0  0  0  0  0
   -0.9262   -0.5560    0.0083 H   0  0  0  0  0  0  0  0  0  0  0  0
    3.3565   -0.5120   -0.0316 H   0  0  0  0  0  0  0  0  0  0  0  0
    3.3389    1.9333   -0.0183 H   0  0  0  0  0  0  0  0  0  0  0  0
    0.3959   -2.5686   -0.0155 H   0  0  0  0  0  0  0  0  0  0  0  0
    3.0673   -2.5205   -0.9308 H   0  0  0  0  0  0  0  0  0  0  0  0
    3.0843   -2.5300    0.8491 H   0  0  0  0  0  0  0  0  0  0  0  0
    2.3790   -4.4218   -2.1811 H   0  0  0  0  0  0  0  0  0  0  0  0
    1.9633   -6.8491   -2.2154 H   0  0  0  0  0  0  0  0  0  0  0  0
    0.9586  -10.6904    2.0304 H   0  0  0  0  0  0  0  0  0  0  0  0
    1.0828  -10.7266    0.3553 H   0  0  0  0  0  0  0  0  0  0  0  0
    1.7801   -5.2968    3.6300 H   0  0  0  0  0  0  0  0  0  0  0  0
    1.4647   -6.7398    4.4306 H   0  0  0  0  0  0  0  0  0  0  0  0
  1  2  1  0  0  0  0
  1 24  1  0  0  0  0
  1 25  1  0  0  0  0
  1 26  1  0  0  0  0
  2  3  2  0  0  0  0
  2  4  1  0  0  0  0
  4  9  2  0  0  0  0
  4  5  1  0  0  0  0
  5  6  2  0  0  0  0
  5 27  1  0  0  0  0
  6  7  1  0  0  0  0
  6 28  1  0  0  0  0
  7  8  2  0  0  0  0
  7 10  1  0  0  0  0
  8  9  1  0  0  0  0
  8 29  1  0  0  0  0
  9 30  1  0  0  0  0
 10 11  1  0  0  0  0
 10 31  1  0  0  0  0
 11 12  1  0  0  0  0
 11 32  1  0  0  0  0
 11 33  1  0  0  0  0
 12 17  2  0  0  0  0
 12 13  1  0  0  0  0
 13 14  2  0  0  0  0
 13 34  1  0  0  0  0
 14 15  1  0  0  0  0
 14 35  1  0  0  0  0
 15 21  2  0  0  0  0
 15 16  1  0  0  0  0
 16 17  1  0  0  0  0
 16 18  2  0  0  0  0
 18 19  1  0  0  0  0
 18 23  1  0  0  0  0
 19 20  2  0  0  0  0
 20 21  1  0  0  0  0
 20 22  1  0  0  0  0
 22 36  1  0  0  0  0
 22 37  1  0  0  0  0
 23 38  1  0  0  0  0
 23 39  1  0  0  0  0
M  END
$$$$
ZINC03814923
  -OEChem-08230709403D

 40 42  0     0  0  0  0  0  0999 V2000
    2.4708    4.3104    0.0016 C   0  0  0  0  0  0  0  0  0  0  0  0
    1.1735    3.5436    0.0099 C   0  0  0  0  0  0  0  0  0  0  0  0
    0.1169    4.1393    0.0232 O   0  0  0  0  0  0  0  0  0  0  0  0
    1.1885    2.0762    0.0019 C   0  0  0  0  0  0  0  0  0  0  0  0
   -0.0164    1.3612    0.0095 C   0  0  0  0  0  0  0  0  0  0  0  0
    0.0021   -0.0041    0.0020 C   0  0  0  0  0  0  0  0  0  0  0  0
    1.2167   -0.6862   -0.0132 C   0  0  0  0  0  0  0  0  0  0  0  0
    2.4171    0.0207   -0.0204 C   0  0  0  0  0  0  0  0  0  0  0  0
    2.4078    1.3861   -0.0130 C   0  0  0  0  0  0  0  0  0  0  0  0
    1.2309   -2.0750   -0.0208 N   0  0  0  0  0  0  0  0  0  0  0  0
    2.5070   -2.7944   -0.0369 C   0  0  0  0  0  0  0  0  0  0  0  0
    2.2467   -4.2788   -0.0424 C   0  0  0  0  0  0  0  0  0  0  0  0
    2.2166   -4.9585   -1.2581 C   0  0  0  0  0  0  0  0  0  0  0  0
    1.9864   -6.3058   -1.2823 C   0  0  0  0  0  0  0  0  0  0  0  0
    1.7758   -6.9622   -0.0577 C   0  0  0  0  0  0  0  0  0  0  0  0
    1.8154   -6.2063    1.1381 C   0  0  0  0  0  0  0  0  0  0  0  0
    2.0488   -4.8979    1.0979 N   0  0  0  0  0  0  0  0  0  0  0  0
    1.5924   -6.9174    2.3980 C   0  0  0  0  0  0  0  0  0  0  0  0
    1.3679   -8.2223    2.3384 N   0  0  0  0  0  0  0  0  0  0  0  0
    1.3449   -8.8686    1.1770 C   0  0  0  0  0  0  0  0  0  0  0  0
    1.1049  -10.2309    1.1887 N   0  0  0  0  0  0  0  0  0  0  0  0
    1.6146   -6.2523    3.6055 N   0  0  0  0  0  0  0  0  0  0  0  0
    2.7487    4.4851   -0.9430 H   0  0  0  0  0  0  0  0  0  0  0  0
    2.3357    5.2587    0.5219 H   0  0  0  0  0  0  0  0  0  0  0  0
    3.2413    3.7264    0.5050 H   0  0  0  0  0  0  0  0  0  0  0  0
   -0.9585    1.8893    0.0169 H   0  0  0  0  0  0  0  0  0  0  0  0
   -0.9262   -0.5560    0.0083 H   0  0  0  0  0  0  0  0  0  0  0  0
    3.3565   -0.5120   -0.0316 H   0  0  0  0  0  0  0  0  0  0  0  0
    3.3389    1.9333   -0.0183 H   0  0  0  0  0  0  0  0  0  0  0  0
    0.3959   -2.5686   -0.0155 H   0  0  0  0  0  0  0  0  0  0  0  0
    3.0673   -2.5205   -0.9308 H   0  0  0  0  0  0  0  0  0  0  0  0
    3.0843   -2.5300    0.8491 H   0  0  0  0  0  0  0  0  0  0  0  0
    2.3790   -4.4218   -2.1811 H   0  0  0  0  0  0  0  0  0  0  0  0
    1.9633   -6.8491   -2.2154 H   0  0  0  0  0  0  0  0  0  0  0  0
    0.9586  -10.6904    2.0304 H   0  0  0  0  0  0  0  0  0  0  0  0
    1.0828  -10.7266    0.3553 H   0  0  0  0  0  0  0  0  0  0  0  0
    1.7801   -5.2968    3.6300 H   0  0  0  0  0  0  0  0  0  0  0  0
    1.4647   -6.7398    4.4306 H   0  0  0  0  0  0  0  0  0  0  0  0
    1.5374   -8.3189   -0.0477 N   0  3  0  0  0  0  0  0  0  0  0  0
    1.5155   -8.8291   -0.9074 H   0  0  0  0  0  0  0  0  0  0  0  0
  1  2  1  0  0  0  0
  1 23  1  0  0  0  0
  1 24  1  0  0  0  0
  1 25  1  0  0  0  0
  2  3  2  0  0  0  0
  2  4  1  0  0  0  0
  4  9  2  0  0  0  0
  4  5  1  0  0  0  0
  5  6  2  0  0  0  0
  5 26  1  0  0  0  0
  6  7  1  0  0  0  0
  6 27  1  0  0  0  0
  7  8  2  0  0  0  0
  7 10  1  0  0  0  0
  8  9  1  0  0  0  0
  8 28  1  0  0  0  0
  9 29  1  0  0  0  0
 10 11  1  0  0  0  0
 10 30  1  0  0  0  0
 11 12  1  0  0  0  0
 11 31  1  0  0  0  0
 11 32  1  0  0  0  0
 12 17  2  0  0  0  0
 12 13  1  0  0  0  0
 13 14  2  0  0  0  0
 13 33  1  0  0  0  0
 14 15  1  0  0  0  0
 14 34  1  0  0  0  0
 15 16  2  0  0  0  0
 15 39  1  0  0  0  0
 16 17  1  0  0  0  0
 16 18  1  0  0  0  0
 18 19  2  0  0  0  0
 18 22  1  0  0  0  0
 19 20  1  0  0  0  0
 20 21  1  0  0  0  0
 20 39  2  0  0  0  0
 21 35  1  0  0  0  0
 21 36  1  0  0  0  0
 22 37  1  0  0  0  0
 22 38  1  0  0  0  0
 39 40  1  0  0  0  0
M  CHG  1  39   1
M  END
$$$$
ZINC03814924
  -OEChem-08230709403D

 42 44  0     1  0  0  0  0  0999 V2000
    0.2041   -2.0957    6.1580 C   0  0  0  0  0  0  0  0  0  0  0  0
    0.0876   -2.8394    4.8524 C   0  0  0  0  0  0  0  0  0  0  0  0
    0.0105   -4.0500    4.8488 O   0  0  0  0  0  0  0  0  0  0  0  0
    0.0674   -2.0990    3.5855 C   0  0  0  0  0  0  0  0  0  0  0  0
    0.0757   -2.7909    2.3672 C   0  0  0  0  0  0  0  0  0  0  0  0
    0.0564   -2.0981    1.1908 C   0  0  0  0  0  0  0  0  0  0  0  0
    0.0284   -0.7052    1.2006 C   0  0  0  0  0  0  0  0  0  0  0  0
    0.0253   -0.0131    2.4097 C   0  0  0  0  0  0  0  0  0  0  0  0
    0.0392   -0.6982    3.5908 C   0  0  0  0  0  0  0  0  0  0  0  0
    0.0093   -0.0045    0.0016 N   0  0  3  0  0  0  0  0  0  0  0  0
    0.0186   -0.7301   -1.2710 C   0  0  0  0  0  0  0  0  0  0  0  0
   -0.0202    1.4602    0.0096 C   0  0  0  0  0  0  0  0  0  0  0  0
    1.3902    1.9910    0.0064 C   0  0  0  0  0  0  0  0  0  0  0  0
    1.9853    2.3305   -1.2067 C   0  0  0  0  0  0  0  0  0  0  0  0
    3.2623    2.8178   -1.2287 C   0  0  0  0  0  0  0  0  0  0  0  0
    3.9402    2.9503   -0.0048 C   0  0  0  0  0  0  0  0  0  0  0  0
    3.2745    2.5806    1.1882 C   0  0  0  0  0  0  0  0  0  0  0  0
    2.0291    2.1168    1.1460 N   0  0  0  0  0  0  0  0  0  0  0  0
    4.0059    2.7296    2.4473 C   0  0  0  0  0  0  0  0  0  0  0  0
    5.2434    3.2009    2.3898 N   0  0  0  0  0  0  0  0  0  0  0  0
    5.8064    3.5287    1.2310 C   0  0  0  0  0  0  0  0  0  0  0  0
    5.1936    3.4149    0.0699 N   0  0  0  0  0  0  0  0  0  0  0  0
    7.1015    4.0145    1.2448 N   0  0  0  0  0  0  0  0  0  0  0  0
    3.4274    2.3909    3.6521 N   0  0  0  0  0  0  0  0  0  0  0  0
    0.1736   -1.1113    5.9847 H   0  0  0  0  0  0  0  0  0  0  0  0
   -0.6229   -2.3756    6.8106 H   0  0  0  0  0  0  0  0  0  0  0  0
    1.1486   -2.3510    6.6385 H   0  0  0  0  0  0  0  0  0  0  0  0
    0.0971   -3.8707    2.3587 H   0  0  0  0  0  0  0  0  0  0  0  0
    0.0625   -2.6306    0.2512 H   0  0  0  0  0  0  0  0  0  0  0  0
    0.0081    1.0667    2.4128 H   0  0  0  0  0  0  0  0  0  0  0  0
    0.0322   -0.1609    4.5277 H   0  0  0  0  0  0  0  0  0  0  0  0
    1.0483   -0.8893   -1.5910 H   0  0  0  0  0  0  0  0  0  0  0  0
   -0.4754   -1.6933   -1.1437 H   0  0  0  0  0  0  0  0  0  0  0  0
   -0.5102   -0.1474   -2.0253 H   0  0  0  0  0  0  0  0  0  0  0  0
   -0.5450    1.8178   -0.8763 H   0  0  0  0  0  0  0  0  0  0  0  0
   -0.5374    1.8083    0.9037 H   0  0  0  0  0  0  0  0  0  0  0  0
    1.4364    2.2124   -2.1292 H   0  0  0  0  0  0  0  0  0  0  0  0
    3.7377    3.0894   -2.1597 H   0  0  0  0  0  0  0  0  0  0  0  0
    7.5753    4.1085    2.0860 H   0  0  0  0  0  0  0  0  0  0  0  0
    7.5358    4.2611    0.4133 H   0  0  0  0  0  0  0  0  0  0  0  0
    2.5206    2.0471    3.6750 H   0  0  0  0  0  0  0  0  0  0  0  0
    3.9271    2.4963    4.4767 H   0  0  0  0  0  0  0  0  0  0  0  0
  1  2  1  0  0  0  0
  1 25  1  0  0  0  0
  1 26  1  0  0  0  0
  1 27  1  0  0  0  0
  2  3  2  0  0  0  0
  2  4  1  0  0  0  0
  4  9  2  0  0  0  0
  4  5  1  0  0  0  0
  5  6  2  0  0  0  0
  5 28  1  0  0  0  0
  6  7  1  0  0  0  0
  6 29  1  0  0  0  0
  7  8  2  0  0  0  0
  7 10  1  0  0  0  0
  8  9  1  0  0  0  0
  8 30  1  0  0  0  0
  9 31  1  0  0  0  0
 10 11  1  0  0  0  0
 10 12  1  0  0  0  0
 11 32  1  0  0  0  0
 11 33  1  0  0  0  0
 11 34  1  0  0  0  0
 12 13  1  0  0  0  0
 12 35  1  0  0  0  0
 12 36  1  0  0  0  0
 13 18  2  0  0  0  0
 13 14  1  0  0  0  0
 14 15  2  0  0  0  0
 14 37  1  0  0  0  0
 15 16  1  0  0  0  0
 15 38  1  0  0  0  0
 16 22  2  0  0  0  0
 16 17  1  0  0  0  0
 17 18  1  0  0  0  0
 17 19  2  0  0  0  0
 19 20  1  0  0  0  0
 19 24  1  0  0  0  0
 20 21  2  0  0  0  0
 21 22  1  0  0  0  0
 21 23  1  0  0  0  0
 23 39  1  0  0  0  0
 23 40  1  0  0  0  0
 24 41  1  0  0  0  0
 24 42  1  0  0  0  0
M  END
$$$$
ZINC03814924
  -OEChem-08230709403D

 43 45  0     1  0  0  0  0  0999 V2000
    0.2041   -2.0957    6.1580 C   0  0  0  0  0  0  0  0  0  0  0  0
    0.0876   -2.8394    4.8524 C   0  0  0  0  0  0  0  0  0  0  0  0
    0.0105   -4.0500    4.8488 O   0  0  0  0  0  0  0  0  0  0  0  0
    0.0674   -2.0990    3.5855 C   0  0  0  0  0  0  0  0  0  0  0  0
    0.0757   -2.7909    2.3672 C   0  0  0  0  0  0  0  0  0  0  0  0
    0.0564   -2.0981    1.1908 C   0  0  0  0  0  0  0  0  0  0  0  0
    0.0284   -0.7052    1.2006 C   0  0  0  0  0  0  0  0  0  0  0  0
    0.0253   -0.0131    2.4097 C   0  0  0  0  0  0  0  0  0  0  0  0
    0.0392   -0.6982    3.5908 C   0  0  0  0  0  0  0  0  0  0  0  0
    0.0093   -0.0045    0.0016 N   0  0  3  0  0  0  0  0  0  0  0  0
    0.0186   -0.7301   -1.2710 C   0  0  0  0  0  0  0  0  0  0  0  0
   -0.0202    1.4602    0.0096 C   0  0  0  0  0  0  0  0  0  0  0  0
    1.3902    1.9910    0.0064 C   0  0  0  0  0  0  0  0  0  0  0  0
    1.9853    2.3305   -1.2067 C   0  0  0  0  0  0  0  0  0  0  0  0
    3.2623    2.8178   -1.2287 C   0  0  0  0  0  0  0  0  0  0  0  0
    3.9402    2.9503   -0.0048 C   0  0  0  0  0  0  0  0  0  0  0  0
    3.2745    2.5806    1.1882 C   0  0  0  0  0  0  0  0  0  0  0  0
    2.0291    2.1168    1.1460 N   0  0  0  0  0  0  0  0  0  0  0  0
    4.0059    2.7296    2.4473 C   0  0  0  0  0  0  0  0  0  0  0  0
    5.2434    3.2009    2.3898 N   0  0  0  0  0  0  0  0  0  0  0  0
    5.8064    3.5287    1.2310 C   0  0  0  0  0  0  0  0  0  0  0  0
    7.1015    4.0145    1.2448 N   0  0  0  0  0  0  0  0  0  0  0  0
    3.4274    2.3909    3.6521 N   0  0  0  0  0  0  0  0  0  0  0  0
    0.1736   -1.1113    5.9847 H   0  0  0  0  0  0  0  0  0  0  0  0
   -0.6229   -2.3756    6.8106 H   0  0  0  0  0  0  0  0  0  0  0  0
    1.1486   -2.3510    6.6385 H   0  0  0  0  0  0  0  0  0  0  0  0
    0.0971   -3.8707    2.3587 H   0  0  0  0  0  0  0  0  0  0  0  0
    0.0625   -2.6306    0.2512 H   0  0  0  0  0  0  0  0  0  0  0  0
    0.0081    1.0667    2.4128 H   0  0  0  0  0  0  0  0  0  0  0  0
    0.0322   -0.1609    4.5277 H   0  0  0  0  0  0  0  0  0  0  0  0
    1.0483   -0.8893   -1.5910 H   0  0  0  0  0  0  0  0  0  0  0  0
   -0.4754   -1.6933   -1.1437 H   0  0  0  0  0  0  0  0  0  0  0  0
   -0.5102   -0.1474   -2.0253 H   0  0  0  0  0  0  0  0  0  0  0  0
   -0.5450    1.8178   -0.8763 H   0  0  0  0  0  0  0  0  0  0  0  0
   -0.5374    1.8083    0.9037 H   0  0  0  0  0  0  0  0  0  0  0  0
    1.4364    2.2124   -2.1292 H   0  0  0  0  0  0  0  0  0  0  0  0
    3.7377    3.0894   -2.1597 H   0  0  0  0  0  0  0  0  0  0  0  0
    7.5753    4.1085    2.0860 H   0  0  0  0  0  0  0  0  0  0  0  0
    7.5358    4.2611    0.4133 H   0  0  0  0  0  0  0  0  0  0  0  0
    2.5206    2.0471    3.6750 H   0  0  0  0  0  0  0  0  0  0  0  0
    3.9271    2.4963    4.4767 H   0  0  0  0  0  0  0  0  0  0  0  0
    5.2297    3.4348    0.0073 N   0  3  0  0  0  0  0  0  0  0  0  0
    5.6762    3.6894   -0.8505 H   0  0  0  0  0  0  0  0  0  0  0  0
  1  2  1  0  0  0  0
  1 24  1  0  0  0  0
  1 25  1  0  0  0  0
  1 26  1  0  0  0  0
  2  3  2  0  0  0  0
  2  4  1  0  0  0  0
  4  9  2  0  0  0  0
  4  5  1  0  0  0  0
  5  6  2  0  0  0  0
  5 27  1  0  0  0  0
  6  7  1  0  0  0  0
  6 28  1  0  0  0  0
  7  8  2  0  0  0  0
  7 10  1  0  0  0  0
  8  9  1  0  0  0  0
  8 29  1  0  0  0  0
  9 30  1  0  0  0  0
 10 11  1  0  0  0  0
 10 12  1  0  0  0  0
 11 31  1  0  0  0  0
 11 32  1  0  0  0  0
 11 33  1  0  0  0  0
 12 13  1  0  0  0  0
 12 34  1  0  0  0  0
 12 35  1  0  0  0  0
 13 18  2  0  0  0  0
 13 14  1  0  0  0  0
 14 15  2  0  0  0  0
 14 36  1  0  0  0  0
 15 16  1  0  0  0  0
 15 37  1  0  0  0  0
 16 17  2  0  0  0  0
 16 42  1  0  0  0  0
 17 18  1  0  0  0  0
 17 19  1  0  0  0  0
 19 20  2  0  0  0  0
 19 23  1  0  0  0  0
 20 21  1  0  0  0  0
 21 22  1  0  0  0  0
 21 42  2  0  0  0  0
 22 38  1  0  0  0  0
 22 39  1  0  0  0  0
 23 40  1  0  0  0  0
 23 41  1  0  0  0  0
 42 43  1  0  0  0  0
M  CHG  1  42   1
M  END
$$$$
ZINC03814925
  -OEChem-08230709403D

 41 43  0     0  0  0  0  0  0999 V2000
    0.2031   -2.0960    6.1585 C   0  0  0  0  0  0  0  0  0  0  0  0
    0.0866   -2.8396    4.8529 C   0  0  0  0  0  0  0  0  0  0  0  0
    0.0091   -4.0503    4.8492 O   0  0  0  0  0  0  0  0  0  0  0  0
    0.0669   -2.0993    3.5860 C   0  0  0  0  0  0  0  0  0  0  0  0
    0.0753   -2.7913    2.3677 C   0  0  0  0  0  0  0  0  0  0  0  0
    0.0564   -2.0985    1.1912 C   0  0  0  0  0  0  0  0  0  0  0  0
    0.0284   -0.7055    1.2011 C   0  0  0  0  0  0  0  0  0  0  0  0
    0.0253   -0.0133    2.4103 C   0  0  0  0  0  0  0  0  0  0  0  0
    0.0392   -0.6984    3.5913 C   0  0  0  0  0  0  0  0  0  0  0  0
    0.0093   -0.0045    0.0016 N   0  0  0  0  0  0  0  0  0  0  0  0
   -0.0202    1.4601    0.0096 C   0  0  0  0  0  0  0  0  0  0  0  0
    1.3902    1.9910    0.0064 C   0  0  0  0  0  0  0  0  0  0  0  0
    1.9854    2.3305   -1.2067 C   0  0  0  0  0  0  0  0  0  0  0  0
    3.2623    2.8178   -1.2287 C   0  0  0  0  0  0  0  0  0  0  0  0
    3.9402    2.9503   -0.0048 C   0  0  0  0  0  0  0  0  0  0  0  0
    3.2745    2.5805    1.1881 C   0  0  0  0  0  0  0  0  0  0  0  0
    2.0291    2.1168    1.1460 N   0  0  0  0  0  0  0  0  0  0  0  0
    4.0059    2.7296    2.4473 C   0  0  0  0  0  0  0  0  0  0  0  0
    5.2434    3.2009    2.3898 N   0  0  0  0  0  0  0  0  0  0  0  0
    5.8064    3.5287    1.2310 C   0  0  0  0  0  0  0  0  0  0  0  0
    5.1937    3.4148    0.0699 N   0  0  0  0  0  0  0  0  0  0  0  0
    7.1015    4.0145    1.2448 N   0  0  0  0  0  0  0  0  0  0  0  0
    3.4274    2.3909    3.6521 N   0  0  0  0  0  0  0  0  0  0  0  0
    0.0179   -0.6756   -1.1755 C   0  0  0  0  0  0  0  0  0  0  0  0
    0.0254   -1.2571   -2.1954 C   0  0  0  0  0  0  0  0  0  0  0  0
    0.1729   -1.1116    5.9853 H   0  0  0  0  0  0  0  0  0  0  0  0
   -0.6240   -2.3756    6.8109 H   0  0  0  0  0  0  0  0  0  0  0  0
    1.1475   -2.3516    6.6391 H   0  0  0  0  0  0  0  0  0  0  0  0
    0.0963   -3.8710    2.3591 H   0  0  0  0  0  0  0  0  0  0  0  0
    0.0629   -2.6311    0.2517 H   0  0  0  0  0  0  0  0  0  0  0  0
    0.0077    1.0665    2.4134 H   0  0  0  0  0  0  0  0  0  0  0  0
    0.0323   -0.1611    4.5282 H   0  0  0  0  0  0  0  0  0  0  0  0
   -0.5450    1.8178   -0.8763 H   0  0  0  0  0  0  0  0  0  0  0  0
   -0.5374    1.8083    0.9036 H   0  0  0  0  0  0  0  0  0  0  0  0
    1.4364    2.2124   -2.1293 H   0  0  0  0  0  0  0  0  0  0  0  0
    3.7377    3.0893   -2.1597 H   0  0  0  0  0  0  0  0  0  0  0  0
    7.5753    4.1085    2.0860 H   0  0  0  0  0  0  0  0  0  0  0  0
    7.5358    4.2611    0.4133 H   0  0  0  0  0  0  0  0  0  0  0  0
    2.5206    2.0471    3.6750 H   0  0  0  0  0  0  0  0  0  0  0  0
    3.9271    2.4963    4.4767 H   0  0  0  0  0  0  0  0  0  0  0  0
    0.0320   -1.7771   -3.1075 H   0  0  0  0  0  0  0  0  0  0  0  0
  1  2  1  0  0  0  0
  1 26  1  0  0  0  0
  1 27  1  0  0  0  0
  1 28  1  0  0  0  0
  2  3  2  0  0  0  0
  2  4  1  0  0  0  0
  4  9  2  0  0  0  0
  4  5  1  0  0  0  0
  5  6  2  0  0  0  0
  5 29  1  0  0  0  0
  6  7  1  0  0  0  0
  6 30  1  0  0  0  0
  7  8  2  0  0  0  0
  7 10  1  0  0  0  0
  8  9  1  0  0  0  0
  8 31  1  0  0  0  0
  9 32  1  0  0  0  0
 10 11  1  0  0  0  0
 10 24  1  0  0  0  0
 11 12  1  0  0  0  0
 11 33  1  0  0  0  0
 11 34  1  0  0  0  0
 12 17  2  0  0  0  0
 12 13  1  0  0  0  0
 13 14  2  0  0  0  0
 13 35  1  0  0  0  0
 14 15  1  0  0  0  0
 14 36  1  0  0  0  0
 15 21  2  0  0  0  0
 15 16  1  0  0  0  0
 16 17  1  0  0  0  0
 16 18  2  0  0  0  0
 18 19  1  0  0  0  0
 18 23  1  0  0  0  0
 19 20  2  0  0  0  0
 20 21  1  0  0  0  0
 20 22  1  0  0  0  0
 22 37  1  0  0  0  0
 22 38  1  0  0  0  0
 23 39  1  0  0  0  0
 23 40  1  0  0  0  0
 24 25  3  0  0  0  0
 25 41  1  0  0  0  0
M  END
$$$$
ZINC03814925
  -OEChem-08230709403D

 42 44  0     0  0  0  0  0  0999 V2000
    0.2031   -2.0960    6.1585 C   0  0  0  0  0  0  0  0  0  0  0  0
    0.0866   -2.8396    4.8529 C   0  0  0  0  0  0  0  0  0  0  0  0
    0.0091   -4.0503    4.8492 O   0  0  0  0  0  0  0  0  0  0  0  0
    0.0669   -2.0993    3.5860 C   0  0  0  0  0  0  0  0  0  0  0  0
    0.0753   -2.7913    2.3677 C   0  0  0  0  0  0  0  0  0  0  0  0
    0.0564   -2.0985    1.1912 C   0  0  0  0  0  0  0  0  0  0  0  0
    0.0284   -0.7055    1.2011 C   0  0  0  0  0  0  0  0  0  0  0  0
    0.0253   -0.0133    2.4103 C   0  0  0  0  0  0  0  0  0  0  0  0
    0.0392   -0.6984    3.5913 C   0  0  0  0  0  0  0  0  0  0  0  0
    0.0093   -0.0045    0.0016 N   0  0  0  0  0  0  0  0  0  0  0  0
   -0.0202    1.4601    0.0096 C   0  0  0  0  0  0  0  0  0  0  0  0
    1.3902    1.9910    0.0064 C   0  0  0  0  0  0  0  0  0  0  0  0
    1.9854    2.3305   -1.2067 C   0  0  0  0  0  0  0  0  0  0  0  0
    3.2623    2.8178   -1.2287 C   0  0  0  0  0  0  0  0  0  0  0  0
    3.9402    2.9503   -0.0048 C   0  0  0  0  0  0  0  0  0  0  0  0
    3.2745    2.5805    1.1881 C   0  0  0  0  0  0  0  0  0  0  0  0
    2.0291    2.1168    1.1460 N   0  0  0  0  0  0  0  0  0  0  0  0
    4.0059    2.7296    2.4473 C   0  0  0  0  0  0  0  0  0  0  0  0
    5.2434    3.2009    2.3898 N   0  0  0  0  0  0  0  0  0  0  0  0
    5.8064    3.5287    1.2310 C   0  0  0  0  0  0  0  0  0  0  0  0
    7.1015    4.0145    1.2448 N   0  0  0  0  0  0  0  0  0  0  0  0
    3.4274    2.3909    3.6521 N   0  0  0  0  0  0  0  0  0  0  0  0
    0.0179   -0.6756   -1.1755 C   0  0  0  0  0  0  0  0  0  0  0  0
    0.0254   -1.2571   -2.1954 C   0  0  0  0  0  0  0  0  0  0  0  0
    0.1729   -1.1116    5.9853 H   0  0  0  0  0  0  0  0  0  0  0  0
   -0.6240   -2.3756    6.8109 H   0  0  0  0  0  0  0  0  0  0  0  0
    1.1475   -2.3516    6.6391 H   0  0  0  0  0  0  0  0  0  0  0  0
    0.0963   -3.8710    2.3591 H   0  0  0  0  0  0  0  0  0  0  0  0
    0.0629   -2.6311    0.2517 H   0  0  0  0  0  0  0  0  0  0  0  0
    0.0077    1.0665    2.4134 H   0  0  0  0  0  0  0  0  0  0  0  0
    0.0323   -0.1611    4.5282 H   0  0  0  0  0  0  0  0  0  0  0  0
   -0.5450    1.8178   -0.8763 H   0  0  0  0  0  0  0  0  0  0  0  0
   -0.5374    1.8083    0.9036 H   0  0  0  0  0  0  0  0  0  0  0  0
    1.4364    2.2124   -2.1293 H   0  0  0  0  0  0  0  0  0  0  0  0
    3.7377    3.0893   -2.1597 H   0  0  0  0  0  0  0  0  0  0  0  0
    7.5753    4.1085    2.0860 H   0  0  0  0  0  0  0  0  0  0  0  0
    7.5358    4.2611    0.4133 H   0  0  0  0  0  0  0  0  0  0  0  0
    2.5206    2.0471    3.6750 H   0  0  0  0  0  0  0  0  0  0  0  0
    3.9271    2.4963    4.4767 H   0  0  0  0  0  0  0  0  0  0  0  0
    0.0320   -1.7771   -3.1075 H   0  0  0  0  0  0  0  0  0  0  0  0
    5.2298    3.4347    0.0073 N   0  3  0  0  0  0  0  0  0  0  0  0
    5.6764    3.6892   -0.8505 H   0  0  0  0  0  0  0  0  0  0  0  0
  1  2  1  0  0  0  0
  1 25  1  0  0  0  0
  1 26  1  0  0  0  0
  1 27  1  0  0  0  0
  2  3  2  0  0  0  0
  2  4  1  0  0  0  0
  4  9  2  0  0  0  0
  4  5  1  0  0  0  0
  5  6  2  0  0  0  0
  5 28  1  0  0  0  0
  6  7  1  0  0  0  0
  6 29  1  0  0  0  0
  7  8  2  0  0  0  0
  7 10  1  0  0  0  0
  8  9  1  0  0  0  0
  8 30  1  0  0  0  0
  9 31  1  0  0  0  0
 10 11  1  0  0  0  0
 10 23  1  0  0  0  0
 11 12  1  0  0  0  0
 11 32  1  0  0  0  0
 11 33  1  0  0  0  0
 12 17  2  0  0  0  0
 12 13  1  0  0  0  0
 13 14  2  0  0  0  0
 13 34  1  0  0  0  0
 14 15  1  0  0  0  0
 14 35  1  0  0  0  0
 15 16  2  0  0  0  0
 15 41  1  0  0  0  0
 16 17  1  0  0  0  0
 16 18  1  0  0  0  0
 18 19  2  0  0  0  0
 18 22  1  0  0  0  0
 19 20  1  0  0  0  0
 20 21  1  0  0  0  0
 20 41  2  0  0  0  0
 21 36  1  0  0  0  0
 21 37  1  0  0  0  0
 22 38  1  0  0  0  0
 22 39  1  0  0  0  0
 23 24  3  0  0  0  0
 24 40  1  0  0  0  0
 41 42  1  0  0  0  0
M  CHG  1  41   1
M  END
$$$$
ZINC03814926
  -OEChem-08230709403D

 42 44  0     1  0  0  0  0  0999 V2000
    0.0338   -0.6866   -1.2561 C   0  0  0  0  0  0  0  0  0  0  0  0
    0.0842    0.0295    0.0210 N   0  0  3  0  0  0  0  0  0  0  0  0
    0.1340    1.4935    0.0384 C   0  0  0  0  0  0  0  0  0  0  0  0
    1.5707    1.9476    0.0152 C   0  0  0  0  0  0  0  0  0  0  0  0
    2.1637    2.2631   -1.2054 C   0  0  0  0  0  0  0  0  0  0  0  0
    3.4646    2.6810   -1.2455 C   0  0  0  0  0  0  0  0  0  0  0  0
    4.1683    2.7682   -0.0322 C   0  0  0  0  0  0  0  0  0  0  0  0
    3.5030    2.4265    1.1693 C   0  0  0  0  0  0  0  0  0  0  0  0
    2.2338    2.0308    1.1449 N   0  0  0  0  0  0  0  0  0  0  0  0
    4.2615    2.5271    2.4171 C   0  0  0  0  0  0  0  0  0  0  0  0
    5.5216    2.9314    2.3421 N   0  0  0  0  0  0  0  0  0  0  0  0
    6.0827    3.2365    1.1763 C   0  0  0  0  0  0  0  0  0  0  0  0
    5.4460    3.1640    0.0247 N   0  0  0  0  0  0  0  0  0  0  0  0
    7.4022    3.6517    1.1717 N   0  0  0  0  0  0  0  0  0  0  0  0
    3.6851    2.2116    3.6292 N   0  0  0  0  0  0  0  0  0  0  0  0
    0.0848   -0.6797    1.2152 C   0  0  0  0  0  0  0  0  0  0  0  0
    0.1386    0.0031    2.4284 C   0  0  0  0  0  0  0  0  0  0  0  0
    0.1345   -0.6899    3.6049 C   0  0  0  0  0  0  0  0  0  0  0  0
    0.0869   -2.0901    3.5906 C   0  0  0  0  0  0  0  0  0  0  0  0
    0.0383   -2.7729    2.3681 C   0  0  0  0  0  0  0  0  0  0  0  0
    0.0374   -2.0719    1.1964 C   0  0  0  0  0  0  0  0  0  0  0  0
    0.0876   -2.8394    4.8524 C   0  0  0  0  0  0  0  0  0  0  0  0
    0.5292   -3.9687    4.8871 O   0  0  0  0  0  0  0  0  0  0  0  0
   -0.4604   -2.2058    6.1052 C   0  0  0  0  0  0  0  0  0  0  0  0
    0.5767   -2.0194    7.0255 F   0  0  0  0  0  0  0  0  0  0  0  0
   -1.0325   -0.9686    5.7903 F   0  0  0  0  0  0  0  0  0  0  0  0
   -1.4341   -3.0414    6.6629 F   0  0  0  0  0  0  0  0  0  0  0  0
    1.0481   -0.8989   -1.5939 H   0  0  0  0  0  0  0  0  0  0  0  0
   -0.5094   -1.6227   -1.1265 H   0  0  0  0  0  0  0  0  0  0  0  0
   -0.4749   -0.0711   -1.9979 H   0  0  0  0  0  0  0  0  0  0  0  0
   -0.3850    1.8851   -0.8365 H   0  0  0  0  0  0  0  0  0  0  0  0
   -0.3492    1.8628    0.9430 H   0  0  0  0  0  0  0  0  0  0  0  0
    1.5944    2.1811   -2.1195 H   0  0  0  0  0  0  0  0  0  0  0  0
    3.9388    2.9330   -2.1825 H   0  0  0  0  0  0  0  0  0  0  0  0
    7.8939    3.7142    2.0055 H   0  0  0  0  0  0  0  0  0  0  0  0
    7.8357    3.8804    0.3346 H   0  0  0  0  0  0  0  0  0  0  0  0
    2.7616    1.9171    3.6650 H   0  0  0  0  0  0  0  0  0  0  0  0
    4.2030    2.2842    4.4461 H   0  0  0  0  0  0  0  0  0  0  0  0
    0.1797    1.0823    2.4384 H   0  0  0  0  0  0  0  0  0  0  0  0
    0.1717   -0.1596    4.5450 H   0  0  0  0  0  0  0  0  0  0  0  0
    0.0012   -3.8522    2.3526 H   0  0  0  0  0  0  0  0  0  0  0  0
   -0.0004   -2.5974    0.2536 H   0  0  0  0  0  0  0  0  0  0  0  0
  1  2  1  0  0  0  0
  1 28  1  0  0  0  0
  1 29  1  0  0  0  0
  1 30  1  0  0  0  0
  2  3  1  0  0  0  0
  2 16  1  0  0  0  0
  3  4  1  0  0  0  0
  3 31  1  0  0  0  0
  3 32  1  0  0  0  0
  4  9  2  0  0  0  0
  4  5  1  0  0  0  0
  5  6  2  0  0  0  0
  5 33  1  0  0  0  0
  6  7  1  0  0  0  0
  6 34  1  0  0  0  0
  7 13  2  0  0  0  0
  7  8  1  0  0  0  0
  8  9  1  0  0  0  0
  8 10  2  0  0  0  0
 10 11  1  0  0  0  0
 10 15  1  0  0  0  0
 11 12  2  0  0  0  0
 12 13  1  0  0  0  0
 12 14  1  0  0  0  0
 14 35  1  0  0  0  0
 14 36  1  0  0  0  0
 15 37  1  0  0  0  0
 15 38  1  0  0  0  0
 16 21  2  0  0  0  0
 16 17  1  0  0  0  0
 17 18  2  0  0  0  0
 17 39  1  0  0  0  0
 18 19  1  0  0  0  0
 18 40  1  0  0  0  0
 19 20  2  0  0  0  0
 19 22  1  0  0  0  0
 20 21  1  0  0  0  0
 20 41  1  0  0  0  0
 21 42  1  0  0  0  0
 22 23  2  0  0  0  0
 22 24  1  0  0  0  0
 24 25  1  0  0  0  0
 24 26  1  0  0  0  0
 24 27  1  0  0  0  0
M  END
$$$$
ZINC03814926
  -OEChem-08230709403D

 43 45  0     1  0  0  0  0  0999 V2000
    0.0338   -0.6866   -1.2561 C   0  0  0  0  0  0  0  0  0  0  0  0
    0.0842    0.0295    0.0210 N   0  0  3  0  0  0  0  0  0  0  0  0
    0.1340    1.4935    0.0384 C   0  0  0  0  0  0  0  0  0  0  0  0
    1.5707    1.9476    0.0152 C   0  0  0  0  0  0  0  0  0  0  0  0
    2.1637    2.2631   -1.2054 C   0  0  0  0  0  0  0  0  0  0  0  0
    3.4646    2.6810   -1.2455 C   0  0  0  0  0  0  0  0  0  0  0  0
    4.1683    2.7682   -0.0322 C   0  0  0  0  0  0  0  0  0  0  0  0
    3.5030    2.4265    1.1693 C   0  0  0  0  0  0  0  0  0  0  0  0
    2.2338    2.0308    1.1449 N   0  0  0  0  0  0  0  0  0  0  0  0
    4.2615    2.5271    2.4171 C   0  0  0  0  0  0  0  0  0  0  0  0
    5.5216    2.9314    2.3421 N   0  0  0  0  0  0  0  0  0  0  0  0
    6.0827    3.2365    1.1763 C   0  0  0  0  0  0  0  0  0  0  0  0
    7.4022    3.6517    1.1717 N   0  0  0  0  0  0  0  0  0  0  0  0
    3.6851    2.2116    3.6292 N   0  0  0  0  0  0  0  0  0  0  0  0
    0.0848   -0.6797    1.2152 C   0  0  0  0  0  0  0  0  0  0  0  0
    0.1386    0.0031    2.4284 C   0  0  0  0  0  0  0  0  0  0  0  0
    0.1345   -0.6899    3.6049 C   0  0  0  0  0  0  0  0  0  0  0  0
    0.0869   -2.0901    3.5906 C   0  0  0  0  0  0  0  0  0  0  0  0
    0.0383   -2.7729    2.3681 C   0  0  0  0  0  0  0  0  0  0  0  0
    0.0374   -2.0719    1.1964 C   0  0  0  0  0  0  0  0  0  0  0  0
    0.0876   -2.8394    4.8524 C   0  0  0  0  0  0  0  0  0  0  0  0
    0.5292   -3.9687    4.8871 O   0  0  0  0  0  0  0  0  0  0  0  0
   -0.4604   -2.2058    6.1052 C   0  0  0  0  0  0  0  0  0  0  0  0
    0.5767   -2.0194    7.0255 F   0  0  0  0  0  0  0  0  0  0  0  0
   -1.0325   -0.9686    5.7903 F   0  0  0  0  0  0  0  0  0  0  0  0
   -1.4341   -3.0414    6.6629 F   0  0  0  0  0  0  0  0  0  0  0  0
    1.0481   -0.8989   -1.5939 H   0  0  0  0  0  0  0  0  0  0  0  0
   -0.5094   -1.6227   -1.1265 H   0  0  0  0  0  0  0  0  0  0  0  0
   -0.4749   -0.0711   -1.9979 H   0  0  0  0  0  0  0  0  0  0  0  0
   -0.3850    1.8851   -0.8365 H   0  0  0  0  0  0  0  0  0  0  0  0
   -0.3492    1.8628    0.9430 H   0  0  0  0  0  0  0  0  0  0  0  0
    1.5944    2.1811   -2.1195 H   0  0  0  0  0  0  0  0  0  0  0  0
    3.9388    2.9330   -2.1825 H   0  0  0  0  0  0  0  0  0  0  0  0
    7.8939    3.7142    2.0055 H   0  0  0  0  0  0  0  0  0  0  0  0
    7.8357    3.8804    0.3346 H   0  0  0  0  0  0  0  0  0  0  0  0
    2.7616    1.9171    3.6650 H   0  0  0  0  0  0  0  0  0  0  0  0
    4.2030    2.2842    4.4461 H   0  0  0  0  0  0  0  0  0  0  0  0
    0.1797    1.0823    2.4384 H   0  0  0  0  0  0  0  0  0  0  0  0
    0.1717   -0.1596    4.5450 H   0  0  0  0  0  0  0  0  0  0  0  0
    0.0012   -3.8522    2.3526 H   0  0  0  0  0  0  0  0  0  0  0  0
   -0.0004   -2.5974    0.2536 H   0  0  0  0  0  0  0  0  0  0  0  0
    5.4821    3.1824   -0.0384 N   0  3  0  0  0  0  0  0  0  0  0  0
    5.9278    3.4185   -0.9018 H   0  0  0  0  0  0  0  0  0  0  0  0
  1  2  1  0  0  0  0
  1 27  1  0  0  0  0
  1 28  1  0  0  0  0
  1 29  1  0  0  0  0
  2  3  1  0  0  0  0
  2 15  1  0  0  0  0
  3  4  1  0  0  0  0
  3 30  1  0  0  0  0
  3 31  1  0  0  0  0
  4  9  2  0  0  0  0
  4  5  1  0  0  0  0
  5  6  2  0  0  0  0
  5 32  1  0  0  0  0
  6  7  1  0  0  0  0
  6 33  1  0  0  0  0
  7  8  2  0  0  0  0
  7 42  1  0  0  0  0
  8  9  1  0  0  0  0
  8 10  1  0  0  0  0
 10 11  2  0  0  0  0
 10 14  1  0  0  0  0
 11 12  1  0  0  0  0
 12 13  1  0  0  0  0
 12 42  2  0  0  0  0
 13 34  1  0  0  0  0
 13 35  1  0  0  0  0
 14 36  1  0  0  0  0
 14 37  1  0  0  0  0
 15 20  2  0  0  0  0
 15 16  1  0  0  0  0
 16 17  2  0  0  0  0
 16 38  1  0  0  0  0
 17 18  1  0  0  0  0
 17 39  1  0  0  0  0
 18 19  2  0  0  0  0
 18 21  1  0  0  0  0
 19 20  1  0  0  0  0
 19 40  1  0  0  0  0
 20 41  1  0  0  0  0
 21 22  2  0  0  0  0
 21 23  1  0  0  0  0
 23 24  1  0  0  0  0
 23 25  1  0  0  0  0
 23 26  1  0  0  0  0
 42 43  1  0  0  0  0
M  CHG  1  42   1
M  END
$$$$
ZINC03814927
  -OEChem-08230709403D

 41 43  0     0  0  0  0  0  0999 V2000
   -0.9459   -3.3625   -0.0070 C   0  0  0  0  0  0  0  0  0  0  0  0
    0.0647   -2.7651   -0.0134 C   0  0  0  0  0  0  0  0  0  0  0  0
    1.2311   -2.0756   -0.0208 N   0  0  0  0  0  0  0  0  0  0  0  0
    2.5072   -2.7949   -0.0369 C   0  0  0  0  0  0  0  0  0  0  0  0
    2.9583   -3.0492    1.3783 C   0  0  0  0  0  0  0  0  0  0  0  0
    2.6483   -4.2661    1.9817 C   0  0  0  0  0  0  0  0  0  0  0  0
    3.0531   -4.5163    3.2632 C   0  0  0  0  0  0  0  0  0  0  0  0
    3.7709   -3.5135    3.9370 C   0  0  0  0  0  0  0  0  0  0  0  0
    4.0451   -2.2997    3.2630 C   0  0  0  0  0  0  0  0  0  0  0  0
    3.6288   -2.1166    2.0135 N   0  0  0  0  0  0  0  0  0  0  0  0
    4.7945   -1.2740    3.9903 C   0  0  0  0  0  0  0  0  0  0  0  0
    5.1680   -1.5473    5.2323 N   0  0  0  0  0  0  0  0  0  0  0  0
    4.8749   -2.7115    5.8032 C   0  0  0  0  0  0  0  0  0  0  0  0
    4.2040   -3.6686    5.1944 N   0  0  0  0  0  0  0  0  0  0  0  0
    5.2960   -2.9297    7.1026 N   0  0  0  0  0  0  0  0  0  0  0  0
    5.1010   -0.0646    3.4036 N   0  0  0  0  0  0  0  0  0  0  0  0
    1.2169   -0.6863   -0.0132 C   0  0  0  0  0  0  0  0  0  0  0  0
    0.0021   -0.0041    0.0020 C   0  0  0  0  0  0  0  0  0  0  0  0
   -0.0164    1.3612    0.0095 C   0  0  0  0  0  0  0  0  0  0  0  0
    1.1886    2.0762    0.0019 C   0  0  0  0  0  0  0  0  0  0  0  0
    2.4080    1.3861   -0.0135 C   0  0  0  0  0  0  0  0  0  0  0  0
    2.4174    0.0208   -0.0214 C   0  0  0  0  0  0  0  0  0  0  0  0
    1.1735    3.5436    0.0094 C   0  0  0  0  0  0  0  0  0  0  0  0
    0.1168    4.1393    0.0223 O   0  0  0  0  0  0  0  0  0  0  0  0
    2.4708    4.3105    0.0011 C   0  0  0  0  0  0  0  0  0  0  0  0
    2.2011    5.6832    0.0106 F   0  0  0  0  0  0  0  0  0  0  0  0
    3.2185    3.9743    1.1348 F   0  0  0  0  0  0  0  0  0  0  0  0
    3.1971    3.9858   -1.1496 F   0  0  0  0  0  0  0  0  0  0  0  0
   -1.8498   -3.8968   -0.0012 H   0  0  0  0  0  0  0  0  0  0  0  0
    2.3817   -3.7459   -0.5547 H   0  0  0  0  0  0  0  0  0  0  0  0
    3.2558   -2.1953   -0.5547 H   0  0  0  0  0  0  0  0  0  0  0  0
    2.0916   -5.0133    1.4356 H   0  0  0  0  0  0  0  0  0  0  0  0
    2.8246   -5.4555    3.7450 H   0  0  0  0  0  0  0  0  0  0  0  0
    5.7919   -2.2419    7.5737 H   0  0  0  0  0  0  0  0  0  0  0  0
    5.0954   -3.7705    7.5428 H   0  0  0  0  0  0  0  0  0  0  0  0
    4.8192    0.1183    2.4936 H   0  0  0  0  0  0  0  0  0  0  0  0
    5.5985    0.6035    3.9008 H   0  0  0  0  0  0  0  0  0  0  0  0
   -0.9262   -0.5560    0.0083 H   0  0  0  0  0  0  0  0  0  0  0  0
   -0.9585    1.8892    0.0169 H   0  0  0  0  0  0  0  0  0  0  0  0
    3.3390    1.9334   -0.0191 H   0  0  0  0  0  0  0  0  0  0  0  0
    3.3568   -0.5119   -0.0336 H   0  0  0  0  0  0  0  0  0  0  0  0
  1  2  3  0  0  0  0
  1 29  1  0  0  0  0
  2  3  1  0  0  0  0
  3  4  1  0  0  0  0
  3 17  1  0  0  0  0
  4  5  1  0  0  0  0
  4 30  1  0  0  0  0
  4 31  1  0  0  0  0
  5 10  2  0  0  0  0
  5  6  1  0  0  0  0
  6  7  2  0  0  0  0
  6 32  1  0  0  0  0
  7  8  1  0  0  0  0
  7 33  1  0  0  0  0
  8 14  2  0  0  0  0
  8  9  1  0  0  0  0
  9 10  1  0  0  0  0
  9 11  2  0  0  0  0
 11 12  1  0  0  0  0
 11 16  1  0  0  0  0
 12 13  2  0  0  0  0
 13 14  1  0  0  0  0
 13 15  1  0  0  0  0
 15 34  1  0  0  0  0
 15 35  1  0  0  0  0
 16 36  1  0  0  0  0
 16 37  1  0  0  0  0
 17 22  2  0  0  0  0
 17 18  1  0  0  0  0
 18 19  2  0  0  0  0
 18 38  1  0  0  0  0
 19 20  1  0  0  0  0
 19 39  1  0  0  0  0
 20 21  2  0  0  0  0
 20 23  1  0  0  0  0
 21 22  1  0  0  0  0
 21 40  1  0  0  0  0
 22 41  1  0  0  0  0
 23 24  2  0  0  0  0
 23 25  1  0  0  0  0
 25 26  1  0  0  0  0
 25 27  1  0  0  0  0
 25 28  1  0  0  0  0
M  END
$$$$
ZINC03814927
  -OEChem-08230709403D

 42 44  0     0  0  0  0  0  0999 V2000
   -0.9459   -3.3625   -0.0070 C   0  0  0  0  0  0  0  0  0  0  0  0
    0.0647   -2.7651   -0.0134 C   0  0  0  0  0  0  0  0  0  0  0  0
    1.2311   -2.0756   -0.0208 N   0  0  0  0  0  0  0  0  0  0  0  0
    2.5072   -2.7949   -0.0369 C   0  0  0  0  0  0  0  0  0  0  0  0
    2.9583   -3.0492    1.3783 C   0  0  0  0  0  0  0  0  0  0  0  0
    2.6483   -4.2661    1.9817 C   0  0  0  0  0  0  0  0  0  0  0  0
    3.0531   -4.5163    3.2632 C   0  0  0  0  0  0  0  0  0  0  0  0
    3.7709   -3.5135    3.9370 C   0  0  0  0  0  0  0  0  0  0  0  0
    4.0451   -2.2997    3.2630 C   0  0  0  0  0  0  0  0  0  0  0  0
    3.6288   -2.1166    2.0135 N   0  0  0  0  0  0  0  0  0  0  0  0
    4.7945   -1.2740    3.9903 C   0  0  0  0  0  0  0  0  0  0  0  0
    5.1680   -1.5473    5.2323 N   0  0  0  0  0  0  0  0  0  0  0  0
    4.8749   -2.7115    5.8032 C   0  0  0  0  0  0  0  0  0  0  0  0
    5.2960   -2.9297    7.1026 N   0  0  0  0  0  0  0  0  0  0  0  0
    5.1010   -0.0646    3.4036 N   0  0  0  0  0  0  0  0  0  0  0  0
    1.2169   -0.6863   -0.0132 C   0  0  0  0  0  0  0  0  0  0  0  0
    0.0021   -0.0041    0.0020 C   0  0  0  0  0  0  0  0  0  0  0  0
   -0.0164    1.3612    0.0095 C   0  0  0  0  0  0  0  0  0  0  0  0
    1.1886    2.0762    0.0019 C   0  0  0  0  0  0  0  0  0  0  0  0
    2.4080    1.3861   -0.0135 C   0  0  0  0  0  0  0  0  0  0  0  0
    2.4174    0.0208   -0.0214 C   0  0  0  0  0  0  0  0  0  0  0  0
    1.1735    3.5436    0.0094 C   0  0  0  0  0  0  0  0  0  0  0  0
    0.1168    4.1393    0.0223 O   0  0  0  0  0  0  0  0  0  0  0  0
    2.4708    4.3105    0.0011 C   0  0  0  0  0  0  0  0  0  0  0  0
    2.2011    5.6832    0.0106 F   0  0  0  0  0  0  0  0  0  0  0  0
    3.2185    3.9743    1.1348 F   0  0  0  0  0  0  0  0  0  0  0  0
    3.1971    3.9858   -1.1496 F   0  0  0  0  0  0  0  0  0  0  0  0
   -1.8498   -3.8968   -0.0012 H   0  0  0  0  0  0  0  0  0  0  0  0
    2.3817   -3.7459   -0.5547 H   0  0  0  0  0  0  0  0  0  0  0  0
    3.2558   -2.1953   -0.5547 H   0  0  0  0  0  0  0  0  0  0  0  0
    2.0916   -5.0133    1.4356 H   0  0  0  0  0  0  0  0  0  0  0  0
    2.8246   -5.4555    3.7450 H   0  0  0  0  0  0  0  0  0  0  0  0
    5.7919   -2.2419    7.5737 H   0  0  0  0  0  0  0  0  0  0  0  0
    5.0954   -3.7705    7.5428 H   0  0  0  0  0  0  0  0  0  0  0  0
    4.8192    0.1183    2.4936 H   0  0  0  0  0  0  0  0  0  0  0  0
    5.5985    0.6035    3.9008 H   0  0  0  0  0  0  0  0  0  0  0  0
   -0.9262   -0.5560    0.0083 H   0  0  0  0  0  0  0  0  0  0  0  0
   -0.9585    1.8892    0.0169 H   0  0  0  0  0  0  0  0  0  0  0  0
    3.3390    1.9334   -0.0191 H   0  0  0  0  0  0  0  0  0  0  0  0
    3.3568   -0.5119   -0.0336 H   0  0  0  0  0  0  0  0  0  0  0  0
    4.1900   -3.7325    5.2309 N   0  3  0  0  0  0  0  0  0  0  0  0
    3.9832   -4.6000    5.6834 H   0  0  0  0  0  0  0  0  0  0  0  0
  1  2  3  0  0  0  0
  1 28  1  0  0  0  0
  2  3  1  0  0  0  0
  3  4  1  0  0  0  0
  3 16  1  0  0  0  0
  4  5  1  0  0  0  0
  4 29  1  0  0  0  0
  4 30  1  0  0  0  0
  5 10  2  0  0  0  0
  5  6  1  0  0  0  0
  6  7  2  0  0  0  0
  6 31  1  0  0  0  0
  7  8  1  0  0  0  0
  7 32  1  0  0  0  0
  8  9  2  0  0  0  0
  8 41  1  0  0  0  0
  9 10  1  0  0  0  0
  9 11  1  0  0  0  0
 11 12  2  0  0  0  0
 11 15  1  0  0  0  0
 12 13  1  0  0  0  0
 13 14  1  0  0  0  0
 13 41  2  0  0  0  0
 14 33  1  0  0  0  0
 14 34  1  0  0  0  0
 15 35  1  0  0  0  0
 15 36  1  0  0  0  0
 16 21  2  0  0  0  0
 16 17  1  0  0  0  0
 17 18  2  0  0  0  0
 17 37  1  0  0  0  0
 18 19  1  0  0  0  0
 18 38  1  0  0  0  0
 19 20  2  0  0  0  0
 19 22  1  0  0  0  0
 20 21  1  0  0  0  0
 20 39  1  0  0  0  0
 21 40  1  0  0  0  0
 22 23  2  0  0  0  0
 22 24  1  0  0  0  0
 24 25  1  0  0  0  0
 24 26  1  0  0  0  0
 24 27  1  0  0  0  0
 41 42  1  0  0  0  0
M  CHG  1  41   1
M  END
$$$$
ZINC03814928
  -OEChem-08230709403D

 37 39  0     1  0  0  0  0  0999 V2000
   -0.0127    1.0858    0.0080 C   0  0  0  0  0  0  0  0  0  0  0  0
   -0.6984    1.5583    1.2133 N   0  0  3  0  0  0  0  0  0  0  0  0
    0.0634    1.8061    2.4399 C   0  0  0  0  0  0  0  0  0  0  0  0
    0.5393    3.2358    2.4555 C   0  0  0  0  0  0  0  0  0  0  0  0
   -0.2213    4.1976    3.1169 C   0  0  0  0  0  0  0  0  0  0  0  0
    0.1969    5.4988    3.1453 C   0  0  0  0  0  0  0  0  0  0  0  0
    1.3949    5.8223    2.4858 C   0  0  0  0  0  0  0  0  0  0  0  0
    2.1127    4.7939    1.8299 C   0  0  0  0  0  0  0  0  0  0  0  0
    1.6572    3.5449    1.8410 N   0  0  0  0  0  0  0  0  0  0  0  0
    3.3568    5.1612    1.1516 C   0  0  0  0  0  0  0  0  0  0  0  0
    3.7311    6.4320    1.1951 N   0  0  0  0  0  0  0  0  0  0  0  0
    3.0055    7.3462    1.8314 C   0  0  0  0  0  0  0  0  0  0  0  0
    1.8795    7.0701    2.4579 N   0  0  0  0  0  0  0  0  0  0  0  0
    3.4558    8.6541    1.8367 N   0  0  0  0  0  0  0  0  0  0  0  0
    4.1132    4.2175    0.4897 N   0  0  0  0  0  0  0  0  0  0  0  0
   -2.0785    1.7725    1.1931 C   0  0  0  0  0  0  0  0  0  0  0  0
   -2.7311    2.2149    2.3367 C   0  0  0  0  0  0  0  0  0  0  0  0
   -4.0951    2.4303    2.3118 C   0  0  0  0  0  0  0  0  0  0  0  0
   -4.8126    2.1959    1.1532 C   0  0  0  0  0  0  0  0  0  0  0  0
   -4.1669    1.7504    0.0144 C   0  0  0  0  0  0  0  0  0  0  0  0
   -2.8023    1.5380    0.0309 C   0  0  0  0  0  0  0  0  0  0  0  0
    0.0021   -0.0041    0.0020 H   0  0  0  0  0  0  0  0  0  0  0  0
    1.0099    1.4631    0.0003 H   0  0  0  0  0  0  0  0  0  0  0  0
   -0.5399    1.4469   -0.8751 H   0  0  0  0  0  0  0  0  0  0  0  0
   -0.5735    1.6257    3.3059 H   0  0  0  0  0  0  0  0  0  0  0  0
    0.9229    1.1366    2.4753 H   0  0  0  0  0  0  0  0  0  0  0  0
   -1.1393    3.9146    3.6104 H   0  0  0  0  0  0  0  0  0  0  0  0
   -0.3785    6.2565    3.6564 H   0  0  0  0  0  0  0  0  0  0  0  0
    4.2819    8.8845    1.3834 H   0  0  0  0  0  0  0  0  0  0  0  0
    2.9455    9.3409    2.2936 H   0  0  0  0  0  0  0  0  0  0  0  0
    3.8236    3.2920    0.4680 H   0  0  0  0  0  0  0  0  0  0  0  0
    4.9350    4.4791    0.0457 H   0  0  0  0  0  0  0  0  0  0  0  0
   -2.1720    2.3939    3.2432 H   0  0  0  0  0  0  0  0  0  0  0  0
   -4.6025    2.7782    3.1995 H   0  0  0  0  0  0  0  0  0  0  0  0
   -5.8797    2.3615    1.1375 H   0  0  0  0  0  0  0  0  0  0  0  0
   -4.7302    1.5687   -0.8889 H   0  0  0  0  0  0  0  0  0  0  0  0
   -2.2987    1.1897   -0.8587 H   0  0  0  0  0  0  0  0  0  0  0  0
  1  2  1  0  0  0  0
  1 22  1  0  0  0  0
  1 23  1  0  0  0  0
  1 24  1  0  0  0  0
  2  3  1  0  0  0  0
  2 16  1  0  0  0  0
  3  4  1  0  0  0  0
  3 25  1  0  0  0  0
  3 26  1  0  0  0  0
  4  9  2  0  0  0  0
  4  5  1  0  0  0  0
  5  6  2  0  0  0  0
  5 27  1  0  0  0  0
  6  7  1  0  0  0  0
  6 28  1  0  0  0  0
  7 13  2  0  0  0  0
  7  8  1  0  0  0  0
  8  9  1  0  0  0  0
  8 10  2  0  0  0  0
 10 11  1  0  0  0  0
 10 15  1  0  0  0  0
 11 12  2  0  0  0  0
 12 13  1  0  0  0  0
 12 14  1  0  0  0  0
 14 29  1  0  0  0  0
 14 30  1  0  0  0  0
 15 31  1  0  0  0  0
 15 32  1  0  0  0  0
 16 21  2  0  0  0  0
 16 17  1  0  0  0  0
 17 18  2  0  0  0  0
 17 33  1  0  0  0  0
 18 19  1  0  0  0  0
 18 34  1  0  0  0  0
 19 20  2  0  0  0  0
 19 35  1  0  0  0  0
 20 21  1  0  0  0  0
 20 36  1  0  0  0  0
 21 37  1  0  0  0  0
M  END
$$$$
ZINC03814928
  -OEChem-08230709403D

 38 40  0     1  0  0  0  0  0999 V2000
   -0.0127    1.0858    0.0080 C   0  0  0  0  0  0  0  0  0  0  0  0
   -0.6984    1.5583    1.2133 N   0  0  3  0  0  0  0  0  0  0  0  0
    0.0634    1.8061    2.4399 C   0  0  0  0  0  0  0  0  0  0  0  0
    0.5393    3.2358    2.4555 C   0  0  0  0  0  0  0  0  0  0  0  0
   -0.2213    4.1976    3.1169 C   0  0  0  0  0  0  0  0  0  0  0  0
    0.1969    5.4988    3.1453 C   0  0  0  0  0  0  0  0  0  0  0  0
    1.3949    5.8223    2.4858 C   0  0  0  0  0  0  0  0  0  0  0  0
    2.1127    4.7939    1.8299 C   0  0  0  0  0  0  0  0  0  0  0  0
    1.6572    3.5449    1.8410 N   0  0  0  0  0  0  0  0  0  0  0  0
    3.3568    5.1612    1.1516 C   0  0  0  0  0  0  0  0  0  0  0  0
    3.7311    6.4320    1.1951 N   0  0  0  0  0  0  0  0  0  0  0  0
    3.0055    7.3462    1.8314 C   0  0  0  0  0  0  0  0  0  0  0  0
    3.4558    8.6541    1.8367 N   0  0  0  0  0  0  0  0  0  0  0  0
    4.1132    4.2175    0.4897 N   0  0  0  0  0  0  0  0  0  0  0  0
   -2.0785    1.7725    1.1931 C   0  0  0  0  0  0  0  0  0  0  0  0
   -2.7311    2.2149    2.3367 C   0  0  0  0  0  0  0  0  0  0  0  0
   -4.0951    2.4303    2.3118 C   0  0  0  0  0  0  0  0  0  0  0  0
   -4.8126    2.1959    1.1532 C   0  0  0  0  0  0  0  0  0  0  0  0
   -4.1669    1.7504    0.0144 C   0  0  0  0  0  0  0  0  0  0  0  0
   -2.8023    1.5380    0.0309 C   0  0  0  0  0  0  0  0  0  0  0  0
    0.0021   -0.0041    0.0020 H   0  0  0  0  0  0  0  0  0  0  0  0
    1.0099    1.4631    0.0003 H   0  0  0  0  0  0  0  0  0  0  0  0
   -0.5399    1.4469   -0.8751 H   0  0  0  0  0  0  0  0  0  0  0  0
   -0.5735    1.6257    3.3059 H   0  0  0  0  0  0  0  0  0  0  0  0
    0.9229    1.1366    2.4753 H   0  0  0  0  0  0  0  0  0  0  0  0
   -1.1393    3.9146    3.6104 H   0  0  0  0  0  0  0  0  0  0  0  0
   -0.3785    6.2565    3.6564 H   0  0  0  0  0  0  0  0  0  0  0  0
    4.2819    8.8845    1.3834 H   0  0  0  0  0  0  0  0  0  0  0  0
    2.9455    9.3409    2.2936 H   0  0  0  0  0  0  0  0  0  0  0  0
    3.8236    3.2920    0.4680 H   0  0  0  0  0  0  0  0  0  0  0  0
    4.9350    4.4791    0.0457 H   0  0  0  0  0  0  0  0  0  0  0  0
   -2.1720    2.3939    3.2432 H   0  0  0  0  0  0  0  0  0  0  0  0
   -4.6025    2.7782    3.1995 H   0  0  0  0  0  0  0  0  0  0  0  0
   -5.8797    2.3615    1.1375 H   0  0  0  0  0  0  0  0  0  0  0  0
   -4.7302    1.5687   -0.8889 H   0  0  0  0  0  0  0  0  0  0  0  0
   -2.2987    1.1897   -0.8587 H   0  0  0  0  0  0  0  0  0  0  0  0
    1.8423    7.1252    2.4924 N   0  3  0  0  0  0  0  0  0  0  0  0
    1.3157    7.8323    2.9644 H   0  0  0  0  0  0  0  0  0  0  0  0
  1  2  1  0  0  0  0
  1 21  1  0  0  0  0
  1 22  1  0  0  0  0
  1 23  1  0  0  0  0
  2  3  1  0  0  0  0
  2 15  1  0  0  0  0
  3  4  1  0  0  0  0
  3 24  1  0  0  0  0
  3 25  1  0  0  0  0
  4  9  2  0  0  0  0
  4  5  1  0  0  0  0
  5  6  2  0  0  0  0
  5 26  1  0  0  0  0
  6  7  1  0  0  0  0
  6 27  1  0  0  0  0
  7  8  2  0  0  0  0
  7 37  1  0  0  0  0
  8  9  1  0  0  0  0
  8 10  1  0  0  0  0
 10 11  2  0  0  0  0
 10 14  1  0  0  0  0
 11 12  1  0  0  0  0
 12 13  1  0  0  0  0
 12 37  2  0  0  0  0
 13 28  1  0  0  0  0
 13 29  1  0  0  0  0
 14 30  1  0  0  0  0
 14 31  1  0  0  0  0
 15 20  2  0  0  0  0
 15 16  1  0  0  0  0
 16 17  2  0  0  0  0
 16 32  1  0  0  0  0
 17 18  1  0  0  0  0
 17 33  1  0  0  0  0
 18 19  2  0  0  0  0
 18 34  1  0  0  0  0
 19 20  1  0  0  0  0
 19 35  1  0  0  0  0
 20 36  1  0  0  0  0
 37 38  1  0  0  0  0
M  CHG  1  37   1
M  END
$$$$
ZINC03814929
  -OEChem-08230709403D

 38 40  0     0  0  0  0  0  0999 V2000
    1.2479    2.0219    0.0010 C   0  0  0  0  0  0  0  0  0  0  0  0
   -0.0164    1.3559    0.0095 O   0  0  0  0  0  0  0  0  0  0  0  0
    0.0021   -0.0041    0.0020 C   0  0  0  0  0  0  0  0  0  0  0  0
    1.2098   -0.6818   -0.0189 C   0  0  0  0  0  0  0  0  0  0  0  0
    1.2271   -2.0646   -0.0211 C   0  0  0  0  0  0  0  0  0  0  0  0
    0.0408   -2.7745   -0.0131 C   0  0  0  0  0  0  0  0  0  0  0  0
   -1.1687   -2.1057    0.0020 C   0  0  0  0  0  0  0  0  0  0  0  0
   -1.1938   -0.7187    0.0096 C   0  0  0  0  0  0  0  0  0  0  0  0
   -2.4173   -0.0390    0.0244 N   0  0  0  0  0  0  0  0  0  0  0  0
   -3.6737   -0.7924    0.0324 C   0  0  0  0  0  0  0  0  0  0  0  0
   -4.8351    0.1677    0.0480 C   0  0  0  0  0  0  0  0  0  0  0  0
   -5.4337    0.5292   -1.1569 C   0  0  0  0  0  0  0  0  0  0  0  0
   -6.4912    1.3955   -1.1619 C   0  0  0  0  0  0  0  0  0  0  0  0
   -6.9346    1.9039    0.0709 C   0  0  0  0  0  0  0  0  0  0  0  0
   -6.2748    1.4965    1.2548 C   0  0  0  0  0  0  0  0  0  0  0  0
   -5.2539    0.6467    1.1960 N   0  0  0  0  0  0  0  0  0  0  0  0
   -6.7590    2.0427    2.5236 C   0  0  0  0  0  0  0  0  0  0  0  0
   -7.7831    2.8831    2.4827 N   0  0  0  0  0  0  0  0  0  0  0  0
   -8.3552    3.2219    1.3316 C   0  0  0  0  0  0  0  0  0  0  0  0
   -7.9599    2.7600    0.1623 N   0  0  0  0  0  0  0  0  0  0  0  0
   -9.4201    4.1042    1.3627 N   0  0  0  0  0  0  0  0  0  0  0  0
   -6.1693    1.6953    3.7205 N   0  0  0  0  0  0  0  0  0  0  0  0
    1.8173    1.7319    0.8840 H   0  0  0  0  0  0  0  0  0  0  0  0
    1.8003    1.7414   -0.8958 H   0  0  0  0  0  0  0  0  0  0  0  0
    1.0905    3.1005    0.0083 H   0  0  0  0  0  0  0  0  0  0  0  0
    2.1383   -0.1303   -0.0293 H   0  0  0  0  0  0  0  0  0  0  0  0
    2.1698   -2.5913   -0.0336 H   0  0  0  0  0  0  0  0  0  0  0  0
    0.0592   -3.8544   -0.0191 H   0  0  0  0  0  0  0  0  0  0  0  0
   -2.0940   -2.6627    0.0074 H   0  0  0  0  0  0  0  0  0  0  0  0
   -2.4333    0.9308    0.0294 H   0  0  0  0  0  0  0  0  0  0  0  0
   -3.7294   -1.4155   -0.8603 H   0  0  0  0  0  0  0  0  0  0  0  0
   -3.7128   -1.4244    0.9196 H   0  0  0  0  0  0  0  0  0  0  0  0
   -5.0648    0.1221   -2.0867 H   0  0  0  0  0  0  0  0  0  0  0  0
   -6.9693    1.6837   -2.0864 H   0  0  0  0  0  0  0  0  0  0  0  0
   -9.7314    4.4591    2.2101 H   0  0  0  0  0  0  0  0  0  0  0  0
   -9.8557    4.3680    0.5371 H   0  0  0  0  0  0  0  0  0  0  0  0
   -5.4204    1.0790    3.7314 H   0  0  0  0  0  0  0  0  0  0  0  0
   -6.5035    2.0672    4.5518 H   0  0  0  0  0  0  0  0  0  0  0  0
  1  2  1  0  0  0  0
  1 23  1  0  0  0  0
  1 24  1  0  0  0  0
  1 25  1  0  0  0  0
  2  3  1  0  0  0  0
  3  8  2  0  0  0  0
  3  4  1  0  0  0  0
  4  5  2  0  0  0  0
  4 26  1  0  0  0  0
  5  6  1  0  0  0  0
  5 27  1  0  0  0  0
  6  7  2  0  0  0  0
  6 28  1  0  0  0  0
  7  8  1  0  0  0  0
  7 29  1  0  0  0  0
  8  9  1  0  0  0  0
  9 10  1  0  0  0  0
  9 30  1  0  0  0  0
 10 11  1  0  0  0  0
 10 31  1  0  0  0  0
 10 32  1  0  0  0  0
 11 16  2  0  0  0  0
 11 12  1  0  0  0  0
 12 13  2  0  0  0  0
 12 33  1  0  0  0  0
 13 14  1  0  0  0  0
 13 34  1  0  0  0  0
 14 20  2  0  0  0  0
 14 15  1  0  0  0  0
 15 16  1  0  0  0  0
 15 17  2  0  0  0  0
 17 18  1  0  0  0  0
 17 22  1  0  0  0  0
 18 19  2  0  0  0  0
 19 20  1  0  0  0  0
 19 21  1  0  0  0  0
 21 35  1  0  0  0  0
 21 36  1  0  0  0  0
 22 37  1  0  0  0  0
 22 38  1  0  0  0  0
M  END
$$$$
ZINC03814929
  -OEChem-08230709403D

 39 41  0     0  0  0  0  0  0999 V2000
    1.2479    2.0219    0.0010 C   0  0  0  0  0  0  0  0  0  0  0  0
   -0.0164    1.3559    0.0095 O   0  0  0  0  0  0  0  0  0  0  0  0
    0.0021   -0.0041    0.0020 C   0  0  0  0  0  0  0  0  0  0  0  0
    1.2098   -0.6818   -0.0189 C   0  0  0  0  0  0  0  0  0  0  0  0
    1.2271   -2.0646   -0.0211 C   0  0  0  0  0  0  0  0  0  0  0  0
    0.0408   -2.7745   -0.0131 C   0  0  0  0  0  0  0  0  0  0  0  0
   -1.1687   -2.1057    0.0020 C   0  0  0  0  0  0  0  0  0  0  0  0
   -1.1938   -0.7187    0.0096 C   0  0  0  0  0  0  0  0  0  0  0  0
   -2.4173   -0.0390    0.0244 N   0  0  0  0  0  0  0  0  0  0  0  0
   -3.6737   -0.7924    0.0324 C   0  0  0  0  0  0  0  0  0  0  0  0
   -4.8351    0.1677    0.0480 C   0  0  0  0  0  0  0  0  0  0  0  0
   -5.4337    0.5292   -1.1569 C   0  0  0  0  0  0  0  0  0  0  0  0
   -6.4912    1.3955   -1.1619 C   0  0  0  0  0  0  0  0  0  0  0  0
   -6.9346    1.9039    0.0709 C   0  0  0  0  0  0  0  0  0  0  0  0
   -6.2748    1.4965    1.2548 C   0  0  0  0  0  0  0  0  0  0  0  0
   -5.2539    0.6467    1.1960 N   0  0  0  0  0  0  0  0  0  0  0  0
   -6.7590    2.0427    2.5236 C   0  0  0  0  0  0  0  0  0  0  0  0
   -7.7831    2.8831    2.4827 N   0  0  0  0  0  0  0  0  0  0  0  0
   -8.3552    3.2219    1.3316 C   0  0  0  0  0  0  0  0  0  0  0  0
   -9.4201    4.1042    1.3627 N   0  0  0  0  0  0  0  0  0  0  0  0
   -6.1693    1.6953    3.7205 N   0  0  0  0  0  0  0  0  0  0  0  0
    1.8173    1.7319    0.8840 H   0  0  0  0  0  0  0  0  0  0  0  0
    1.8003    1.7414   -0.8958 H   0  0  0  0  0  0  0  0  0  0  0  0
    1.0905    3.1005    0.0083 H   0  0  0  0  0  0  0  0  0  0  0  0
    2.1383   -0.1303   -0.0293 H   0  0  0  0  0  0  0  0  0  0  0  0
    2.1698   -2.5913   -0.0336 H   0  0  0  0  0  0  0  0  0  0  0  0
    0.0592   -3.8544   -0.0191 H   0  0  0  0  0  0  0  0  0  0  0  0
   -2.0940   -2.6627    0.0074 H   0  0  0  0  0  0  0  0  0  0  0  0
   -2.4333    0.9308    0.0294 H   0  0  0  0  0  0  0  0  0  0  0  0
   -3.7294   -1.4155   -0.8603 H   0  0  0  0  0  0  0  0  0  0  0  0
   -3.7128   -1.4244    0.9196 H   0  0  0  0  0  0  0  0  0  0  0  0
   -5.0648    0.1221   -2.0867 H   0  0  0  0  0  0  0  0  0  0  0  0
   -6.9693    1.6837   -2.0864 H   0  0  0  0  0  0  0  0  0  0  0  0
   -9.7314    4.4591    2.2101 H   0  0  0  0  0  0  0  0  0  0  0  0
   -9.8557    4.3680    0.5371 H   0  0  0  0  0  0  0  0  0  0  0  0
   -5.4204    1.0790    3.7314 H   0  0  0  0  0  0  0  0  0  0  0  0
   -6.5035    2.0672    4.5518 H   0  0  0  0  0  0  0  0  0  0  0  0
   -7.9955    2.7821    0.1002 N   0  3  0  0  0  0  0  0  0  0  0  0
   -8.4440    3.0530   -0.7515 H   0  0  0  0  0  0  0  0  0  0  0  0
  1  2  1  0  0  0  0
  1 22  1  0  0  0  0
  1 23  1  0  0  0  0
  1 24  1  0  0  0  0
  2  3  1  0  0  0  0
  3  8  2  0  0  0  0
  3  4  1  0  0  0  0
  4  5  2  0  0  0  0
  4 25  1  0  0  0  0
  5  6  1  0  0  0  0
  5 26  1  0  0  0  0
  6  7  2  0  0  0  0
  6 27  1  0  0  0  0
  7  8  1  0  0  0  0
  7 28  1  0  0  0  0
  8  9  1  0  0  0  0
  9 10  1  0  0  0  0
  9 29  1  0  0  0  0
 10 11  1  0  0  0  0
 10 30  1  0  0  0  0
 10 31  1  0  0  0  0
 11 16  2  0  0  0  0
 11 12  1  0  0  0  0
 12 13  2  0  0  0  0
 12 32  1  0  0  0  0
 13 14  1  0  0  0  0
 13 33  1  0  0  0  0
 14 15  2  0  0  0  0
 14 38  1  0  0  0  0
 15 16  1  0  0  0  0
 15 17  1  0  0  0  0
 17 18  2  0  0  0  0
 17 21  1  0  0  0  0
 18 19  1  0  0  0  0
 19 20  1  0  0  0  0
 19 38  2  0  0  0  0
 20 34  1  0  0  0  0
 20 35  1  0  0  0  0
 21 36  1  0  0  0  0
 21 37  1  0  0  0  0
 38 39  1  0  0  0  0
M  CHG  1  38   1
M  END
$$$$
ZINC03814930
  -OEChem-08230709403D

 41 43  0     1  0  0  0  0  0999 V2000
   -3.1814   -0.3037   -1.2020 C   0  0  0  0  0  0  0  0  0  0  0  0
   -2.4173   -0.0390    0.0244 N   0  0  1  0  0  0  0  0  0  0  0  0
   -3.1994   -0.3888    1.2177 C   0  0  0  0  0  0  0  0  0  0  0  0
   -4.3861    0.5334    1.3287 C   0  0  0  0  0  0  0  0  0  0  0  0
   -5.6113    0.1299    0.8024 C   0  0  0  0  0  0  0  0  0  0  0  0
   -6.6998    0.9513    0.8977 C   0  0  0  0  0  0  0  0  0  0  0  0
   -6.5343    2.1974    1.5259 C   0  0  0  0  0  0  0  0  0  0  0  0
   -5.2587    2.5429    2.0325 C   0  0  0  0  0  0  0  0  0  0  0  0
   -4.2382    1.6990    1.9139 N   0  0  0  0  0  0  0  0  0  0  0  0
   -5.1170    3.8472    2.6815 C   0  0  0  0  0  0  0  0  0  0  0  0
   -6.1910    4.6205    2.7532 N   0  0  0  0  0  0  0  0  0  0  0  0
   -7.3598    4.2302    2.2545 C   0  0  0  0  0  0  0  0  0  0  0  0
   -7.5427    3.0677    1.6613 N   0  0  0  0  0  0  0  0  0  0  0  0
   -8.4395    5.0880    2.3643 N   0  0  0  0  0  0  0  0  0  0  0  0
   -3.9072    4.2576    3.2001 N   0  0  0  0  0  0  0  0  0  0  0  0
   -1.1938   -0.7187    0.0096 C   0  0  0  0  0  0  0  0  0  0  0  0
   -1.1687   -2.1057    0.0020 C   0  0  0  0  0  0  0  0  0  0  0  0
    0.0408   -2.7745   -0.0131 C   0  0  0  0  0  0  0  0  0  0  0  0
    1.2271   -2.0646   -0.0211 C   0  0  0  0  0  0  0  0  0  0  0  0
    1.2098   -0.6818   -0.0189 C   0  0  0  0  0  0  0  0  0  0  0  0
    0.0021   -0.0041    0.0020 C   0  0  0  0  0  0  0  0  0  0  0  0
   -0.0164    1.3559    0.0095 O   0  0  0  0  0  0  0  0  0  0  0  0
    1.2479    2.0219    0.0010 C   0  0  0  0  0  0  0  0  0  0  0  0
   -3.3765   -1.3728   -1.2849 H   0  0  0  0  0  0  0  0  0  0  0  0
   -4.1274    0.2365   -1.1643 H   0  0  0  0  0  0  0  0  0  0  0  0
   -2.6072    0.0291   -2.0667 H   0  0  0  0  0  0  0  0  0  0  0  0
   -3.5462   -1.4189    1.1358 H   0  0  0  0  0  0  0  0  0  0  0  0
   -2.5746   -0.2852    2.1048 H   0  0  0  0  0  0  0  0  0  0  0  0
   -5.7021   -0.8334    0.3227 H   0  0  0  0  0  0  0  0  0  0  0  0
   -7.6580    0.6529    0.4985 H   0  0  0  0  0  0  0  0  0  0  0  0
   -8.3324    5.9496    2.7967 H   0  0  0  0  0  0  0  0  0  0  0  0
   -9.3037    4.8278    2.0089 H   0  0  0  0  0  0  0  0  0  0  0  0
   -3.1315    3.6785    3.1383 H   0  0  0  0  0  0  0  0  0  0  0  0
   -3.8318    5.1254    3.6268 H   0  0  0  0  0  0  0  0  0  0  0  0
   -2.0940   -2.6627    0.0074 H   0  0  0  0  0  0  0  0  0  0  0  0
    0.0592   -3.8544   -0.0191 H   0  0  0  0  0  0  0  0  0  0  0  0
    2.1698   -2.5913   -0.0336 H   0  0  0  0  0  0  0  0  0  0  0  0
    2.1383   -0.1303   -0.0293 H   0  0  0  0  0  0  0  0  0  0  0  0
    1.8173    1.7319    0.8840 H   0  0  0  0  0  0  0  0  0  0  0  0
    1.8003    1.7414   -0.8958 H   0  0  0  0  0  0  0  0  0  0  0  0
    1.0905    3.1005    0.0083 H   0  0  0  0  0  0  0  0  0  0  0  0
  1  2  1  0  0  0  0
  1 24  1  0  0  0  0
  1 25  1  0  0  0  0
  1 26  1  0  0  0  0
  2  3  1  0  0  0  0
  2 16  1  0  0  0  0
  3  4  1  0  0  0  0
  3 27  1  0  0  0  0
  3 28  1  0  0  0  0
  4  9  2  0  0  0  0
  4  5  1  0  0  0  0
  5  6  2  0  0  0  0
  5 29  1  0  0  0  0
  6  7  1  0  0  0  0
  6 30  1  0  0  0  0
  7 13  2  0  0  0  0
  7  8  1  0  0  0  0
  8  9  1  0  0  0  0
  8 10  2  0  0  0  0
 10 11  1  0  0  0  0
 10 15  1  0  0  0  0
 11 12  2  0  0  0  0
 12 13  1  0  0  0  0
 12 14  1  0  0  0  0
 14 31  1  0  0  0  0
 14 32  1  0  0  0  0
 15 33  1  0  0  0  0
 15 34  1  0  0  0  0
 16 21  2  0  0  0  0
 16 17  1  0  0  0  0
 17 18  2  0  0  0  0
 17 35  1  0  0  0  0
 18 19  1  0  0  0  0
 18 36  1  0  0  0  0
 19 20  2  0  0  0  0
 19 37  1  0  0  0  0
 20 21  1  0  0  0  0
 20 38  1  0  0  0  0
 21 22  1  0  0  0  0
 22 23  1  0  0  0  0
 23 39  1  0  0  0  0
 23 40  1  0  0  0  0
 23 41  1  0  0  0  0
M  END
$$$$
ZINC03814930
  -OEChem-08230709403D

 42 44  0     1  0  0  0  0  0999 V2000
   -3.1814   -0.3037   -1.2020 C   0  0  0  0  0  0  0  0  0  0  0  0
   -2.4173   -0.0390    0.0244 N   0  0  1  0  0  0  0  0  0  0  0  0
   -3.1994   -0.3888    1.2177 C   0  0  0  0  0  0  0  0  0  0  0  0
   -4.3861    0.5334    1.3287 C   0  0  0  0  0  0  0  0  0  0  0  0
   -5.6113    0.1299    0.8024 C   0  0  0  0  0  0  0  0  0  0  0  0
   -6.6998    0.9513    0.8977 C   0  0  0  0  0  0  0  0  0  0  0  0
   -6.5343    2.1974    1.5259 C   0  0  0  0  0  0  0  0  0  0  0  0
   -5.2587    2.5429    2.0325 C   0  0  0  0  0  0  0  0  0  0  0  0
   -4.2382    1.6990    1.9139 N   0  0  0  0  0  0  0  0  0  0  0  0
   -5.1170    3.8472    2.6815 C   0  0  0  0  0  0  0  0  0  0  0  0
   -6.1910    4.6205    2.7532 N   0  0  0  0  0  0  0  0  0  0  0  0
   -7.3598    4.2302    2.2545 C   0  0  0  0  0  0  0  0  0  0  0  0
   -8.4395    5.0880    2.3643 N   0  0  0  0  0  0  0  0  0  0  0  0
   -3.9072    4.2576    3.2001 N   0  0  0  0  0  0  0  0  0  0  0  0
   -1.1938   -0.7187    0.0096 C   0  0  0  0  0  0  0  0  0  0  0  0
   -1.1687   -2.1057    0.0020 C   0  0  0  0  0  0  0  0  0  0  0  0
    0.0408   -2.7745   -0.0131 C   0  0  0  0  0  0  0  0  0  0  0  0
    1.2271   -2.0646   -0.0211 C   0  0  0  0  0  0  0  0  0  0  0  0
    1.2098   -0.6818   -0.0189 C   0  0  0  0  0  0  0  0  0  0  0  0
    0.0021   -0.0041    0.0020 C   0  0  0  0  0  0  0  0  0  0  0  0
   -0.0164    1.3559    0.0095 O   0  0  0  0  0  0  0  0  0  0  0  0
    1.2479    2.0219    0.0010 C   0  0  0  0  0  0  0  0  0  0  0  0
   -3.3765   -1.3728   -1.2849 H   0  0  0  0  0  0  0  0  0  0  0  0
   -4.1274    0.2365   -1.1643 H   0  0  0  0  0  0  0  0  0  0  0  0
   -2.6072    0.0291   -2.0667 H   0  0  0  0  0  0  0  0  0  0  0  0
   -3.5462   -1.4189    1.1358 H   0  0  0  0  0  0  0  0  0  0  0  0
   -2.5746   -0.2852    2.1048 H   0  0  0  0  0  0  0  0  0  0  0  0
   -5.7021   -0.8334    0.3227 H   0  0  0  0  0  0  0  0  0  0  0  0
   -7.6580    0.6529    0.4985 H   0  0  0  0  0  0  0  0  0  0  0  0
   -8.3324    5.9496    2.7967 H   0  0  0  0  0  0  0  0  0  0  0  0
   -9.3037    4.8278    2.0089 H   0  0  0  0  0  0  0  0  0  0  0  0
   -3.1315    3.6785    3.1383 H   0  0  0  0  0  0  0  0  0  0  0  0
   -3.8318    5.1254    3.6268 H   0  0  0  0  0  0  0  0  0  0  0  0
   -2.0940   -2.6627    0.0074 H   0  0  0  0  0  0  0  0  0  0  0  0
    0.0592   -3.8544   -0.0191 H   0  0  0  0  0  0  0  0  0  0  0  0
    2.1698   -2.5913   -0.0336 H   0  0  0  0  0  0  0  0  0  0  0  0
    2.1383   -0.1303   -0.0293 H   0  0  0  0  0  0  0  0  0  0  0  0
    1.8173    1.7319    0.8840 H   0  0  0  0  0  0  0  0  0  0  0  0
    1.8003    1.7414   -0.8958 H   0  0  0  0  0  0  0  0  0  0  0  0
    1.0905    3.1005    0.0083 H   0  0  0  0  0  0  0  0  0  0  0  0
   -7.6106    3.0503    1.6349 N   0  3  0  0  0  0  0  0  0  0  0  0
   -8.5012    2.7808    1.2687 H   0  0  0  0  0  0  0  0  0  0  0  0
  1  2  1  0  0  0  0
  1 23  1  0  0  0  0
  1 24  1  0  0  0  0
  1 25  1  0  0  0  0
  2  3  1  0  0  0  0
  2 15  1  0  0  0  0
  3  4  1  0  0  0  0
  3 26  1  0  0  0  0
  3 27  1  0  0  0  0
  4  9  2  0  0  0  0
  4  5  1  0  0  0  0
  5  6  2  0  0  0  0
  5 28  1  0  0  0  0
  6  7  1  0  0  0  0
  6 29  1  0  0  0  0
  7  8  2  0  0  0  0
  7 41  1  0  0  0  0
  8  9  1  0  0  0  0
  8 10  1  0  0  0  0
 10 11  2  0  0  0  0
 10 14  1  0  0  0  0
 11 12  1  0  0  0  0
 12 13  1  0  0  0  0
 12 41  2  0  0  0  0
 13 30  1  0  0  0  0
 13 31  1  0  0  0  0
 14 32  1  0  0  0  0
 14 33  1  0  0  0  0
 15 20  2  0  0  0  0
 15 16  1  0  0  0  0
 16 17  2  0  0  0  0
 16 34  1  0  0  0  0
 17 18  1  0  0  0  0
 17 35  1  0  0  0  0
 18 19  2  0  0  0  0
 18 36  1  0  0  0  0
 19 20  1  0  0  0  0
 19 37  1  0  0  0  0
 20 21  1  0  0  0  0
 21 22  1  0  0  0  0
 22 38  1  0  0  0  0
 22 39  1  0  0  0  0
 22 40  1  0  0  0  0
 41 42  1  0  0  0  0
M  CHG  1  41   1
M  END
$$$$
ZINC03814931
  -OEChem-08230709403D

 38 40  0     0  0  0  0  0  0999 V2000
   -0.0127    1.0858    0.0080 C   0  0  0  0  0  0  0  0  0  0  0  0
   -0.6816    1.5467    1.1837 O   0  0  0  0  0  0  0  0  0  0  0  0
   -1.9749    1.1630    1.3482 C   0  0  0  0  0  0  0  0  0  0  0  0
   -2.5871    0.3591    0.3965 C   0  0  0  0  0  0  0  0  0  0  0  0
   -3.9017   -0.0327    0.5627 C   0  0  0  0  0  0  0  0  0  0  0  0
   -4.6111    0.3743    1.6762 C   0  0  0  0  0  0  0  0  0  0  0  0
   -4.0036    1.1790    2.6320 C   0  0  0  0  0  0  0  0  0  0  0  0
   -2.6813    1.5695    2.4689 C   0  0  0  0  0  0  0  0  0  0  0  0
   -4.7204    1.5901    3.7580 N   0  0  0  0  0  0  0  0  0  0  0  0
   -6.1139    1.1729    3.9318 C   0  0  0  0  0  0  0  0  0  0  0  0
   -6.6535    1.7464    5.2167 C   0  0  0  0  0  0  0  0  0  0  0  0
   -7.3554    2.9493    5.1816 C   0  0  0  0  0  0  0  0  0  0  0  0
   -7.8560    3.4825    6.3365 C   0  0  0  0  0  0  0  0  0  0  0  0
   -7.6302    2.7878    7.5371 C   0  0  0  0  0  0  0  0  0  0  0  0
   -6.9038    1.5738    7.4976 C   0  0  0  0  0  0  0  0  0  0  0  0
   -6.4457    1.1029    6.3417 N   0  0  0  0  0  0  0  0  0  0  0  0
   -6.6844    0.8730    8.7638 C   0  0  0  0  0  0  0  0  0  0  0  0
   -7.1795    1.4195    9.8652 N   0  0  0  0  0  0  0  0  0  0  0  0
   -7.8532    2.5648    9.8273 C   0  0  0  0  0  0  0  0  0  0  0  0
   -8.0795    3.2360    8.7160 N   0  0  0  0  0  0  0  0  0  0  0  0
   -8.3420    3.0782   11.0151 N   0  0  0  0  0  0  0  0  0  0  0  0
   -5.9861   -0.3150    8.8093 N   0  0  0  0  0  0  0  0  0  0  0  0
    0.0021   -0.0041    0.0020 H   0  0  0  0  0  0  0  0  0  0  0  0
    1.0099    1.4631    0.0003 H   0  0  0  0  0  0  0  0  0  0  0  0
   -0.5399    1.4469   -0.8751 H   0  0  0  0  0  0  0  0  0  0  0  0
   -2.0351    0.0390   -0.4748 H   0  0  0  0  0  0  0  0  0  0  0  0
   -4.3755   -0.6585   -0.1791 H   0  0  0  0  0  0  0  0  0  0  0  0
   -5.6384    0.0664    1.8039 H   0  0  0  0  0  0  0  0  0  0  0  0
   -2.2053    2.1916    3.2124 H   0  0  0  0  0  0  0  0  0  0  0  0
   -4.2955    2.1519    4.4249 H   0  0  0  0  0  0  0  0  0  0  0  0
   -6.7091    1.5357    3.0938 H   0  0  0  0  0  0  0  0  0  0  0  0
   -6.1653    0.0847    3.9698 H   0  0  0  0  0  0  0  0  0  0  0  0
   -7.5074    3.4586    4.2414 H   0  0  0  0  0  0  0  0  0  0  0  0
   -8.4056    4.4121    6.3270 H   0  0  0  0  0  0  0  0  0  0  0  0
   -8.1898    2.6040   11.8475 H   0  0  0  0  0  0  0  0  0  0  0  0
   -8.8371    3.9124   11.0157 H   0  0  0  0  0  0  0  0  0  0  0  0
   -5.6306   -0.7002    7.9931 H   0  0  0  0  0  0  0  0  0  0  0  0
   -5.8504   -0.7656    9.6575 H   0  0  0  0  0  0  0  0  0  0  0  0
  1  2  1  0  0  0  0
  1 23  1  0  0  0  0
  1 24  1  0  0  0  0
  1 25  1  0  0  0  0
  2  3  1  0  0  0  0
  3  8  2  0  0  0  0
  3  4  1  0  0  0  0
  4  5  2  0  0  0  0
  4 26  1  0  0  0  0
  5  6  1  0  0  0  0
  5 27  1  0  0  0  0
  6  7  2  0  0  0  0
  6 28  1  0  0  0  0
  7  8  1  0  0  0  0
  7  9  1  0  0  0  0
  8 29  1  0  0  0  0
  9 10  1  0  0  0  0
  9 30  1  0  0  0  0
 10 11  1  0  0  0  0
 10 31  1  0  0  0  0
 10 32  1  0  0  0  0
 11 16  2  0  0  0  0
 11 12  1  0  0  0  0
 12 13  2  0  0  0  0
 12 33  1  0  0  0  0
 13 14  1  0  0  0  0
 13 34  1  0  0  0  0
 14 20  2  0  0  0  0
 14 15  1  0  0  0  0
 15 16  1  0  0  0  0
 15 17  2  0  0  0  0
 17 18  1  0  0  0  0
 17 22  1  0  0  0  0
 18 19  2  0  0  0  0
 19 20  1  0  0  0  0
 19 21  1  0  0  0  0
 21 35  1  0  0  0  0
 21 36  1  0  0  0  0
 22 37  1  0  0  0  0
 22 38  1  0  0  0  0
M  END
$$$$
ZINC03814931
  -OEChem-08230709403D

 39 41  0     0  0  0  0  0  0999 V2000
   -0.0127    1.0858    0.0080 C   0  0  0  0  0  0  0  0  0  0  0  0
   -0.6816    1.5467    1.1837 O   0  0  0  0  0  0  0  0  0  0  0  0
   -1.9749    1.1630    1.3482 C   0  0  0  0  0  0  0  0  0  0  0  0
   -2.5871    0.3591    0.3965 C   0  0  0  0  0  0  0  0  0  0  0  0
   -3.9017   -0.0327    0.5627 C   0  0  0  0  0  0  0  0  0  0  0  0
   -4.6111    0.3743    1.6762 C   0  0  0  0  0  0  0  0  0  0  0  0
   -4.0036    1.1790    2.6320 C   0  0  0  0  0  0  0  0  0  0  0  0
   -2.6813    1.5695    2.4689 C   0  0  0  0  0  0  0  0  0  0  0  0
   -4.7204    1.5901    3.7580 N   0  0  0  0  0  0  0  0  0  0  0  0
   -6.1139    1.1729    3.9318 C   0  0  0  0  0  0  0  0  0  0  0  0
   -6.6535    1.7464    5.2167 C   0  0  0  0  0  0  0  0  0  0  0  0
   -7.3554    2.9493    5.1816 C   0  0  0  0  0  0  0  0  0  0  0  0
   -7.8560    3.4825    6.3365 C   0  0  0  0  0  0  0  0  0  0  0  0
   -7.6302    2.7878    7.5371 C   0  0  0  0  0  0  0  0  0  0  0  0
   -6.9038    1.5738    7.4976 C   0  0  0  0  0  0  0  0  0  0  0  0
   -6.4457    1.1029    6.3417 N   0  0  0  0  0  0  0  0  0  0  0  0
   -6.6844    0.8730    8.7638 C   0  0  0  0  0  0  0  0  0  0  0  0
   -7.1795    1.4195    9.8652 N   0  0  0  0  0  0  0  0  0  0  0  0
   -7.8532    2.5648    9.8273 C   0  0  0  0  0  0  0  0  0  0  0  0
   -8.3420    3.0782   11.0151 N   0  0  0  0  0  0  0  0  0  0  0  0
   -5.9861   -0.3150    8.8093 N   0  0  0  0  0  0  0  0  0  0  0  0
    0.0021   -0.0041    0.0020 H   0  0  0  0  0  0  0  0  0  0  0  0
    1.0099    1.4631    0.0003 H   0  0  0  0  0  0  0  0  0  0  0  0
   -0.5399    1.4469   -0.8751 H   0  0  0  0  0  0  0  0  0  0  0  0
   -2.0351    0.0390   -0.4748 H   0  0  0  0  0  0  0  0  0  0  0  0
   -4.3755   -0.6585   -0.1791 H   0  0  0  0  0  0  0  0  0  0  0  0
   -5.6384    0.0664    1.8039 H   0  0  0  0  0  0  0  0  0  0  0  0
   -2.2053    2.1916    3.2124 H   0  0  0  0  0  0  0  0  0  0  0  0
   -4.2955    2.1519    4.4249 H   0  0  0  0  0  0  0  0  0  0  0  0
   -6.7091    1.5357    3.0938 H   0  0  0  0  0  0  0  0  0  0  0  0
   -6.1653    0.0847    3.9698 H   0  0  0  0  0  0  0  0  0  0  0  0
   -7.5074    3.4586    4.2414 H   0  0  0  0  0  0  0  0  0  0  0  0
   -8.4056    4.4121    6.3270 H   0  0  0  0  0  0  0  0  0  0  0  0
   -8.1898    2.6040   11.8475 H   0  0  0  0  0  0  0  0  0  0  0  0
   -8.8371    3.9124   11.0157 H   0  0  0  0  0  0  0  0  0  0  0  0
   -5.6306   -0.7002    7.9931 H   0  0  0  0  0  0  0  0  0  0  0  0
   -5.8504   -0.7656    9.6575 H   0  0  0  0  0  0  0  0  0  0  0  0
   -8.1181    3.3001    8.7191 N   0  3  0  0  0  0  0  0  0  0  0  0
   -8.6288    4.1599    8.7184 H   0  0  0  0  0  0  0  0  0  0  0  0
  1  2  1  0  0  0  0
  1 22  1  0  0  0  0
  1 23  1  0  0  0  0
  1 24  1  0  0  0  0
  2  3  1  0  0  0  0
  3  8  2  0  0  0  0
  3  4  1  0  0  0  0
  4  5  2  0  0  0  0
  4 25  1  0  0  0  0
  5  6  1  0  0  0  0
  5 26  1  0  0  0  0
  6  7  2  0  0  0  0
  6 27  1  0  0  0  0
  7  8  1  0  0  0  0
  7  9  1  0  0  0  0
  8 28  1  0  0  0  0
  9 10  1  0  0  0  0
  9 29  1  0  0  0  0
 10 11  1  0  0  0  0
 10 30  1  0  0  0  0
 10 31  1  0  0  0  0
 11 16  2  0  0  0  0
 11 12  1  0  0  0  0
 12 13  2  0  0  0  0
 12 32  1  0  0  0  0
 13 14  1  0  0  0  0
 13 33  1  0  0  0  0
 14 15  2  0  0  0  0
 14 38  1  0  0  0  0
 15 16  1  0  0  0  0
 15 17  1  0  0  0  0
 17 18  2  0  0  0  0
 17 21  1  0  0  0  0
 18 19  1  0  0  0  0
 19 20  1  0  0  0  0
 19 38  2  0  0  0  0
 20 34  1  0  0  0  0
 20 35  1  0  0  0  0
 21 36  1  0  0  0  0
 21 37  1  0  0  0  0
 38 39  1  0  0  0  0
M  CHG  1  38   1
M  END
$$$$
ZINC03814932
  -OEChem-08230709403D

 41 43  0     1  0  0  0  0  0999 V2000
   -4.0793    2.4410    4.7642 C   0  0  0  0  0  0  0  0  0  0  0  0
   -4.7208    1.5920    3.7572 N   0  0  3  0  0  0  0  0  0  0  0  0
   -6.1144    1.1749    3.9310 C   0  0  0  0  0  0  0  0  0  0  0  0
   -6.1583   -0.1261    4.6904 C   0  0  0  0  0  0  0  0  0  0  0  0
   -6.3311   -0.1002    6.0725 C   0  0  0  0  0  0  0  0  0  0  0  0
   -6.3779   -1.2705    6.7775 C   0  0  0  0  0  0  0  0  0  0  0  0
   -6.2376   -2.4754    6.0678 C   0  0  0  0  0  0  0  0  0  0  0  0
   -6.0599   -2.4249    4.6646 C   0  0  0  0  0  0  0  0  0  0  0  0
   -6.0275   -1.2550    4.0337 N   0  0  0  0  0  0  0  0  0  0  0  0
   -5.9166   -3.6958    3.9528 C   0  0  0  0  0  0  0  0  0  0  0  0
   -5.9624   -4.8115    4.6670 N   0  0  0  0  0  0  0  0  0  0  0  0
   -6.1325   -4.7833    5.9851 C   0  0  0  0  0  0  0  0  0  0  0  0
   -6.2669   -3.6684    6.6747 N   0  0  0  0  0  0  0  0  0  0  0  0
   -6.1707   -5.9859    6.6677 N   0  0  0  0  0  0  0  0  0  0  0  0
   -5.7395   -3.7312    2.5859 N   0  0  0  0  0  0  0  0  0  0  0  0
   -4.0039    1.1804    2.6315 C   0  0  0  0  0  0  0  0  0  0  0  0
   -4.6115    0.3751    1.6757 C   0  0  0  0  0  0  0  0  0  0  0  0
   -3.9021   -0.0321    0.5628 C   0  0  0  0  0  0  0  0  0  0  0  0
   -2.5869    0.3593    0.3968 C   0  0  0  0  0  0  0  0  0  0  0  0
   -1.9748    1.1630    1.3482 C   0  0  0  0  0  0  0  0  0  0  0  0
   -2.6815    1.5697    2.4692 C   0  0  0  0  0  0  0  0  0  0  0  0
   -0.6816    1.5467    1.1837 O   0  0  0  0  0  0  0  0  0  0  0  0
   -0.0127    1.0858    0.0080 C   0  0  0  0  0  0  0  0  0  0  0  0
   -4.2341    3.4890    4.5079 H   0  0  0  0  0  0  0  0  0  0  0  0
   -4.5159    2.2379    5.7421 H   0  0  0  0  0  0  0  0  0  0  0  0
   -3.0108    2.2276    4.7920 H   0  0  0  0  0  0  0  0  0  0  0  0
   -6.6557    1.9394    4.4884 H   0  0  0  0  0  0  0  0  0  0  0  0
   -6.5781    1.0410    2.9537 H   0  0  0  0  0  0  0  0  0  0  0  0
   -6.4319    0.8442    6.5866 H   0  0  0  0  0  0  0  0  0  0  0  0
   -6.5148   -1.2691    7.8487 H   0  0  0  0  0  0  0  0  0  0  0  0
   -6.0745   -6.8213    6.1842 H   0  0  0  0  0  0  0  0  0  0  0  0
   -6.2936   -5.9937    7.6298 H   0  0  0  0  0  0  0  0  0  0  0  0
   -5.7082   -2.9046    2.0793 H   0  0  0  0  0  0  0  0  0  0  0  0
   -5.6463   -4.5828    2.1308 H   0  0  0  0  0  0  0  0  0  0  0  0
   -5.6388    0.0673    1.8033 H   0  0  0  0  0  0  0  0  0  0  0  0
   -4.3759   -0.6579   -0.1790 H   0  0  0  0  0  0  0  0  0  0  0  0
   -2.0348    0.0389   -0.4743 H   0  0  0  0  0  0  0  0  0  0  0  0
   -2.2053    2.1912    3.2130 H   0  0  0  0  0  0  0  0  0  0  0  0
    0.0021   -0.0041    0.0020 H   0  0  0  0  0  0  0  0  0  0  0  0
    1.0099    1.4631    0.0003 H   0  0  0  0  0  0  0  0  0  0  0  0
   -0.5399    1.4469   -0.8751 H   0  0  0  0  0  0  0  0  0  0  0  0
  1  2  1  0  0  0  0
  1 24  1  0  0  0  0
  1 25  1  0  0  0  0
  1 26  1  0  0  0  0
  2  3  1  0  0  0  0
  2 16  1  0  0  0  0
  3  4  1  0  0  0  0
  3 27  1  0  0  0  0
  3 28  1  0  0  0  0
  4  9  2  0  0  0  0
  4  5  1  0  0  0  0
  5  6  2  0  0  0  0
  5 29  1  0  0  0  0
  6  7  1  0  0  0  0
  6 30  1  0  0  0  0
  7 13  2  0  0  0  0
  7  8  1  0  0  0  0
  8  9  1  0  0  0  0
  8 10  2  0  0  0  0
 10 11  1  0  0  0  0
 10 15  1  0  0  0  0
 11 12  2  0  0  0  0
 12 13  1  0  0  0  0
 12 14  1  0  0  0  0
 14 31  1  0  0  0  0
 14 32  1  0  0  0  0
 15 33  1  0  0  0  0
 15 34  1  0  0  0  0
 16 21  2  0  0  0  0
 16 17  1  0  0  0  0
 17 18  2  0  0  0  0
 17 35  1  0  0  0  0
 18 19  1  0  0  0  0
 18 36  1  0  0  0  0
 19 20  2  0  0  0  0
 19 37  1  0  0  0  0
 20 21  1  0  0  0  0
 20 22  1  0  0  0  0
 21 38  1  0  0  0  0
 22 23  1  0  0  0  0
 23 39  1  0  0  0  0
 23 40  1  0  0  0  0
 23 41  1  0  0  0  0
M  END
$$$$
ZINC03814932
  -OEChem-08230709403D

 42 44  0     1  0  0  0  0  0999 V2000
   -4.0793    2.4410    4.7642 C   0  0  0  0  0  0  0  0  0  0  0  0
   -4.7208    1.5920    3.7572 N   0  0  3  0  0  0  0  0  0  0  0  0
   -6.1144    1.1749    3.9310 C   0  0  0  0  0  0  0  0  0  0  0  0
   -6.1583   -0.1261    4.6904 C   0  0  0  0  0  0  0  0  0  0  0  0
   -6.3311   -0.1002    6.0725 C   0  0  0  0  0  0  0  0  0  0  0  0
   -6.3779   -1.2705    6.7775 C   0  0  0  0  0  0  0  0  0  0  0  0
   -6.2376   -2.4754    6.0678 C   0  0  0  0  0  0  0  0  0  0  0  0
   -6.0599   -2.4249    4.6646 C   0  0  0  0  0  0  0  0  0  0  0  0
   -6.0275   -1.2550    4.0337 N   0  0  0  0  0  0  0  0  0  0  0  0
   -5.9166   -3.6958    3.9528 C   0  0  0  0  0  0  0  0  0  0  0  0
   -5.9624   -4.8115    4.6670 N   0  0  0  0  0  0  0  0  0  0  0  0
   -6.1325   -4.7833    5.9851 C   0  0  0  0  0  0  0  0  0  0  0  0
   -6.1707   -5.9859    6.6677 N   0  0  0  0  0  0  0  0  0  0  0  0
   -5.7395   -3.7312    2.5859 N   0  0  0  0  0  0  0  0  0  0  0  0
   -4.0039    1.1804    2.6315 C   0  0  0  0  0  0  0  0  0  0  0  0
   -4.6115    0.3751    1.6757 C   0  0  0  0  0  0  0  0  0  0  0  0
   -3.9021   -0.0321    0.5628 C   0  0  0  0  0  0  0  0  0  0  0  0
   -2.5869    0.3593    0.3968 C   0  0  0  0  0  0  0  0  0  0  0  0
   -1.9748    1.1630    1.3482 C   0  0  0  0  0  0  0  0  0  0  0  0
   -2.6815    1.5697    2.4692 C   0  0  0  0  0  0  0  0  0  0  0  0
   -0.6816    1.5467    1.1837 O   0  0  0  0  0  0  0  0  0  0  0  0
   -0.0127    1.0858    0.0080 C   0  0  0  0  0  0  0  0  0  0  0  0
   -4.2341    3.4890    4.5079 H   0  0  0  0  0  0  0  0  0  0  0  0
   -4.5159    2.2379    5.7421 H   0  0  0  0  0  0  0  0  0  0  0  0
   -3.0108    2.2276    4.7920 H   0  0  0  0  0  0  0  0  0  0  0  0
   -6.6557    1.9394    4.4884 H   0  0  0  0  0  0  0  0  0  0  0  0
   -6.5781    1.0410    2.9537 H   0  0  0  0  0  0  0  0  0  0  0  0
   -6.4319    0.8442    6.5866 H   0  0  0  0  0  0  0  0  0  0  0  0
   -6.5148   -1.2691    7.8487 H   0  0  0  0  0  0  0  0  0  0  0  0
   -6.0745   -6.8213    6.1842 H   0  0  0  0  0  0  0  0  0  0  0  0
   -6.2936   -5.9937    7.6298 H   0  0  0  0  0  0  0  0  0  0  0  0
   -5.7082   -2.9046    2.0793 H   0  0  0  0  0  0  0  0  0  0  0  0
   -5.6463   -4.5828    2.1308 H   0  0  0  0  0  0  0  0  0  0  0  0
   -5.6388    0.0673    1.8033 H   0  0  0  0  0  0  0  0  0  0  0  0
   -4.3759   -0.6579   -0.1790 H   0  0  0  0  0  0  0  0  0  0  0  0
   -2.0348    0.0389   -0.4743 H   0  0  0  0  0  0  0  0  0  0  0  0
   -2.2053    2.1912    3.2130 H   0  0  0  0  0  0  0  0  0  0  0  0
    0.0021   -0.0041    0.0020 H   0  0  0  0  0  0  0  0  0  0  0  0
    1.0099    1.4631    0.0003 H   0  0  0  0  0  0  0  0  0  0  0  0
   -0.5399    1.4469   -0.8751 H   0  0  0  0  0  0  0  0  0  0  0  0
   -6.2763   -3.6721    6.7489 N   0  3  0  0  0  0  0  0  0  0  0  0
   -6.4037   -3.6790    7.7408 H   0  0  0  0  0  0  0  0  0  0  0  0
  1  2  1  0  0  0  0
  1 23  1  0  0  0  0
  1 24  1  0  0  0  0
  1 25  1  0  0  0  0
  2  3  1  0  0  0  0
  2 15  1  0  0  0  0
  3  4  1  0  0  0  0
  3 26  1  0  0  0  0
  3 27  1  0  0  0  0
  4  9  2  0  0  0  0
  4  5  1  0  0  0  0
  5  6  2  0  0  0  0
  5 28  1  0  0  0  0
  6  7  1  0  0  0  0
  6 29  1  0  0  0  0
  7  8  2  0  0  0  0
  7 41  1  0  0  0  0
  8  9  1  0  0  0  0
  8 10  1  0  0  0  0
 10 11  2  0  0  0  0
 10 14  1  0  0  0  0
 11 12  1  0  0  0  0
 12 13  1  0  0  0  0
 12 41  2  0  0  0  0
 13 30  1  0  0  0  0
 13 31  1  0  0  0  0
 14 32  1  0  0  0  0
 14 33  1  0  0  0  0
 15 20  2  0  0  0  0
 15 16  1  0  0  0  0
 16 17  2  0  0  0  0
 16 34  1  0  0  0  0
 17 18  1  0  0  0  0
 17 35  1  0  0  0  0
 18 19  2  0  0  0  0
 18 36  1  0  0  0  0
 19 20  1  0  0  0  0
 19 21  1  0  0  0  0
 20 37  1  0  0  0  0
 21 22  1  0  0  0  0
 22 38  1  0  0  0  0
 22 39  1  0  0  0  0
 22 40  1  0  0  0  0
 41 42  1  0  0  0  0
M  CHG  1  41   1
M  END
$$$$
ZINC03814933
  -OEChem-08230709403D

 31 33  0     0  0  0  0  0  0999 V2000
    3.4419    7.3723   -0.6548 C   0  0  0  0  0  0  0  0  0  0  0  0
    2.2459    7.8251   -1.1811 C   0  0  0  0  0  0  0  0  0  0  0  0
    1.0808    7.1172   -0.9607 C   0  0  0  0  0  0  0  0  0  0  0  0
    1.1092    5.9553   -0.1998 C   0  0  0  0  0  0  0  0  0  0  0  0
    2.3114    5.5064    0.3322 C   0  0  0  0  0  0  0  0  0  0  0  0
    3.4738    6.2161    0.1032 C   0  0  0  0  0  0  0  0  0  0  0  0
   -0.0691    5.2399    0.0304 N   0  0  0  0  0  0  0  0  0  0  0  0
   -1.2791    5.9136    0.1505 C   0  0  0  0  0  0  0  0  0  0  0  0
   -2.4665    5.1762    0.2574 C   0  0  0  0  0  0  0  0  0  0  0  0
   -3.6600    5.8242    0.3821 C   0  0  0  0  0  0  0  0  0  0  0  0
   -3.6557    7.2316    0.3864 C   0  0  0  0  0  0  0  0  0  0  0  0
   -2.4239    7.9147    0.2691 C   0  0  0  0  0  0  0  0  0  0  0  0
   -1.2851    7.2314    0.1559 N   0  0  0  0  0  0  0  0  0  0  0  0
   -2.4449    9.3337    0.2769 C   0  0  0  0  0  0  0  0  0  0  0  0
   -3.6129    9.9458    0.3931 N   0  0  0  0  0  0  0  0  0  0  0  0
   -4.7480    9.2613    0.5010 C   0  0  0  0  0  0  0  0  0  0  0  0
   -4.7858    7.9425    0.4994 N   0  0  0  0  0  0  0  0  0  0  0  0
   -5.9369    9.9602    0.6201 N   0  0  0  0  0  0  0  0  0  0  0  0
   -1.2757   10.0581    0.1654 N   0  0  0  0  0  0  0  0  0  0  0  0
    4.3524    7.9254   -0.8324 H   0  0  0  0  0  0  0  0  0  0  0  0
    2.2238    8.7308   -1.7689 H   0  0  0  0  0  0  0  0  0  0  0  0
    0.1478    7.4689   -1.3758 H   0  0  0  0  0  0  0  0  0  0  0  0
    2.3369    4.6037    0.9245 H   0  0  0  0  0  0  0  0  0  0  0  0
    4.4087    5.8678    0.5168 H   0  0  0  0  0  0  0  0  0  0  0  0
   -0.0425    4.2733    0.1064 H   0  0  0  0  0  0  0  0  0  0  0  0
   -2.4356    4.0967    0.2460 H   0  0  0  0  0  0  0  0  0  0  0  0
   -4.5842    5.2722    0.4696 H   0  0  0  0  0  0  0  0  0  0  0  0
   -5.9311   10.9302    0.6237 H   0  0  0  0  0  0  0  0  0  0  0  0
   -6.7759    9.4800    0.6999 H   0  0  0  0  0  0  0  0  0  0  0  0
   -0.4262    9.5977    0.0804 H   0  0  0  0  0  0  0  0  0  0  0  0
   -1.3034   11.0277    0.1720 H   0  0  0  0  0  0  0  0  0  0  0  0
  1  6  2  0  0  0  0
  1  2  1  0  0  0  0
  1 20  1  0  0  0  0
  2  3  2  0  0  0  0
  2 21  1  0  0  0  0
  3  4  1  0  0  0  0
  3 22  1  0  0  0  0
  4  5  2  0  0  0  0
  4  7  1  0  0  0  0
  5  6  1  0  0  0  0
  5 23  1  0  0  0  0
  6 24  1  0  0  0  0
  7  8  1  0  0  0  0
  7 25  1  0  0  0  0
  8 13  2  0  0  0  0
  8  9  1  0  0  0  0
  9 10  2  0  0  0  0
  9 26  1  0  0  0  0
 10 11  1  0  0  0  0
 10 27  1  0  0  0  0
 11 17  2  0  0  0  0
 11 12  1  0  0  0  0
 12 13  1  0  0  0  0
 12 14  2  0  0  0  0
 14 15  1  0  0  0  0
 14 19  1  0  0  0  0
 15 16  2  0  0  0  0
 16 17  1  0  0  0  0
 16 18  1  0  0  0  0
 18 28  1  0  0  0  0
 18 29  1  0  0  0  0
 19 30  1  0  0  0  0
 19 31  1  0  0  0  0
M  END
$$$$
ZINC03814933
  -OEChem-08230709403D

 32 34  0     0  0  0  0  0  0999 V2000
    3.4419    7.3723   -0.6548 C   0  0  0  0  0  0  0  0  0  0  0  0
    2.2459    7.8251   -1.1811 C   0  0  0  0  0  0  0  0  0  0  0  0
    1.0808    7.1172   -0.9607 C   0  0  0  0  0  0  0  0  0  0  0  0
    1.1092    5.9553   -0.1998 C   0  0  0  0  0  0  0  0  0  0  0  0
    2.3114    5.5064    0.3322 C   0  0  0  0  0  0  0  0  0  0  0  0
    3.4738    6.2161    0.1032 C   0  0  0  0  0  0  0  0  0  0  0  0
   -0.0691    5.2399    0.0304 N   0  0  0  0  0  0  0  0  0  0  0  0
   -1.2791    5.9136    0.1505 C   0  0  0  0  0  0  0  0  0  0  0  0
   -2.4665    5.1762    0.2574 C   0  0  0  0  0  0  0  0  0  0  0  0
   -3.6600    5.8242    0.3821 C   0  0  0  0  0  0  0  0  0  0  0  0
   -3.6557    7.2316    0.3864 C   0  0  0  0  0  0  0  0  0  0  0  0
   -2.4239    7.9147    0.2691 C   0  0  0  0  0  0  0  0  0  0  0  0
   -1.2851    7.2314    0.1559 N   0  0  0  0  0  0  0  0  0  0  0  0
   -2.4449    9.3337    0.2769 C   0  0  0  0  0  0  0  0  0  0  0  0
   -3.6129    9.9458    0.3931 N   0  0  0  0  0  0  0  0  0  0  0  0
   -4.7480    9.2613    0.5010 C   0  0  0  0  0  0  0  0  0  0  0  0
   -5.9369    9.9602    0.6201 N   0  0  0  0  0  0  0  0  0  0  0  0
   -1.2757   10.0581    0.1654 N   0  0  0  0  0  0  0  0  0  0  0  0
    4.3524    7.9254   -0.8324 H   0  0  0  0  0  0  0  0  0  0  0  0
    2.2238    8.7308   -1.7689 H   0  0  0  0  0  0  0  0  0  0  0  0
    0.1478    7.4689   -1.3758 H   0  0  0  0  0  0  0  0  0  0  0  0
    2.3369    4.6037    0.9245 H   0  0  0  0  0  0  0  0  0  0  0  0
    4.4087    5.8678    0.5168 H   0  0  0  0  0  0  0  0  0  0  0  0
   -0.0425    4.2733    0.1064 H   0  0  0  0  0  0  0  0  0  0  0  0
   -2.4356    4.0967    0.2460 H   0  0  0  0  0  0  0  0  0  0  0  0
   -4.5842    5.2722    0.4696 H   0  0  0  0  0  0  0  0  0  0  0  0
   -5.9311   10.9302    0.6237 H   0  0  0  0  0  0  0  0  0  0  0  0
   -6.7759    9.4800    0.6999 H   0  0  0  0  0  0  0  0  0  0  0  0
   -0.4262    9.5977    0.0804 H   0  0  0  0  0  0  0  0  0  0  0  0
   -1.3034   11.0277    0.1720 H   0  0  0  0  0  0  0  0  0  0  0  0
   -4.8486    7.9091    0.5054 N   0  3  0  0  0  0  0  0  0  0  0  0
   -5.7061    7.4011    0.5869 H   0  0  0  0  0  0  0  0  0  0  0  0
  1  6  2  0  0  0  0
  1  2  1  0  0  0  0
  1 19  1  0  0  0  0
  2  3  2  0  0  0  0
  2 20  1  0  0  0  0
  3  4  1  0  0  0  0
  3 21  1  0  0  0  0
  4  5  2  0  0  0  0
  4  7  1  0  0  0  0
  5  6  1  0  0  0  0
  5 22  1  0  0  0  0
  6 23  1  0  0  0  0
  7  8  1  0  0  0  0
  7 24  1  0  0  0  0
  8 13  2  0  0  0  0
  8  9  1  0  0  0  0
  9 10  2  0  0  0  0
  9 25  1  0  0  0  0
 10 11  1  0  0  0  0
 10 26  1  0  0  0  0
 11 12  2  0  0  0  0
 11 31  1  0  0  0  0
 12 13  1  0  0  0  0
 12 14  1  0  0  0  0
 14 15  2  0  0  0  0
 14 18  1  0  0  0  0
 15 16  1  0  0  0  0
 16 17  1  0  0  0  0
 16 31  2  0  0  0  0
 17 27  1  0  0  0  0
 17 28  1  0  0  0  0
 18 29  1  0  0  0  0
 18 30  1  0  0  0  0
 31 32  1  0  0  0  0
M  CHG  1  31   1
M  END
$$$$
ZINC03814934
  -OEChem-08230709403D

 35 37  0     0  0  0  0  0  0999 V2000
    0.8875    0.3859    1.2122 C   0  0  0  0  0  0  0  0  0  0  0  0
   -0.1398    1.0297    1.9686 O   0  0  0  0  0  0  0  0  0  0  0  0
    0.1231    2.2836    2.4248 C   0  0  0  0  0  0  0  0  0  0  0  0
    1.3425    2.8808    2.1505 C   0  0  0  0  0  0  0  0  0  0  0  0
    1.6080    4.1561    2.6142 C   0  0  0  0  0  0  0  0  0  0  0  0
    0.6591    4.8391    3.3523 C   0  0  0  0  0  0  0  0  0  0  0  0
   -0.5599    4.2503    3.6308 C   0  0  0  0  0  0  0  0  0  0  0  0
   -0.8355    2.9730    3.1644 C   0  0  0  0  0  0  0  0  0  0  0  0
   -2.0720    2.3767    3.4398 N   0  0  0  0  0  0  0  0  0  0  0  0
   -2.7513    2.6944    4.6098 C   0  0  0  0  0  0  0  0  0  0  0  0
   -4.0484    2.1997    4.8052 C   0  0  0  0  0  0  0  0  0  0  0  0
   -4.7265    2.5031    5.9489 C   0  0  0  0  0  0  0  0  0  0  0  0
   -4.0881    3.3148    6.9054 C   0  0  0  0  0  0  0  0  0  0  0  0
   -2.7792    3.7809    6.6465 C   0  0  0  0  0  0  0  0  0  0  0  0
   -2.1600    3.4497    5.5135 N   0  0  0  0  0  0  0  0  0  0  0  0
   -2.1565    4.5981    7.6255 C   0  0  0  0  0  0  0  0  0  0  0  0
   -2.8297    4.8828    8.7293 N   0  0  0  0  0  0  0  0  0  0  0  0
   -4.0607    4.4216    8.9303 C   0  0  0  0  0  0  0  0  0  0  0  0
   -4.6860    3.6587    8.0541 N   0  0  0  0  0  0  0  0  0  0  0  0
   -4.7116    4.7547   10.1057 N   0  0  0  0  0  0  0  0  0  0  0  0
   -0.8796    5.0840    7.4317 N   0  0  0  0  0  0  0  0  0  0  0  0
    1.1119    0.9791    0.3256 H   0  0  0  0  0  0  0  0  0  0  0  0
    0.5493   -0.6053    0.9101 H   0  0  0  0  0  0  0  0  0  0  0  0
    1.7850    0.2929    1.8237 H   0  0  0  0  0  0  0  0  0  0  0  0
    2.0858    2.3503    1.5739 H   0  0  0  0  0  0  0  0  0  0  0  0
    2.5592    4.6201    2.3989 H   0  0  0  0  0  0  0  0  0  0  0  0
    0.8708    5.8353    3.7117 H   0  0  0  0  0  0  0  0  0  0  0  0
   -1.2992    4.7859    4.2078 H   0  0  0  0  0  0  0  0  0  0  0  0
   -2.4544    1.7419    2.8140 H   0  0  0  0  0  0  0  0  0  0  0  0
   -4.5100    1.5794    4.0512 H   0  0  0  0  0  0  0  0  0  0  0  0
   -5.7262    2.1304    6.1163 H   0  0  0  0  0  0  0  0  0  0  0  0
   -5.6098    4.4283   10.2720 H   0  0  0  0  0  0  0  0  0  0  0  0
   -4.2696    5.3145   10.7631 H   0  0  0  0  0  0  0  0  0  0  0  0
   -0.4648    5.6413    8.1086 H   0  0  0  0  0  0  0  0  0  0  0  0
   -0.3967    4.8682    6.6186 H   0  0  0  0  0  0  0  0  0  0  0  0
  1  2  1  0  0  0  0
  1 22  1  0  0  0  0
  1 23  1  0  0  0  0
  1 24  1  0  0  0  0
  2  3  1  0  0  0  0
  3  8  2  0  0  0  0
  3  4  1  0  0  0  0
  4  5  2  0  0  0  0
  4 25  1  0  0  0  0
  5  6  1  0  0  0  0
  5 26  1  0  0  0  0
  6  7  2  0  0  0  0
  6 27  1  0  0  0  0
  7  8  1  0  0  0  0
  7 28  1  0  0  0  0
  8  9  1  0  0  0  0
  9 10  1  0  0  0  0
  9 29  1  0  0  0  0
 10 15  2  0  0  0  0
 10 11  1  0  0  0  0
 11 12  2  0  0  0  0
 11 30  1  0  0  0  0
 12 13  1  0  0  0  0
 12 31  1  0  0  0  0
 13 19  2  0  0  0  0
 13 14  1  0  0  0  0
 14 15  1  0  0  0  0
 14 16  2  0  0  0  0
 16 17  1  0  0  0  0
 16 21  1  0  0  0  0
 17 18  2  0  0  0  0
 18 19  1  0  0  0  0
 18 20  1  0  0  0  0
 20 32  1  0  0  0  0
 20 33  1  0  0  0  0
 21 34  1  0  0  0  0
 21 35  1  0  0  0  0
M  END
$$$$
ZINC03814934
  -OEChem-08230709403D

 36 38  0     0  0  0  0  0  0999 V2000
    0.8875    0.3859    1.2122 C   0  0  0  0  0  0  0  0  0  0  0  0
   -0.1398    1.0297    1.9686 O   0  0  0  0  0  0  0  0  0  0  0  0
    0.1231    2.2836    2.4248 C   0  0  0  0  0  0  0  0  0  0  0  0
    1.3425    2.8808    2.1505 C   0  0  0  0  0  0  0  0  0  0  0  0
    1.6080    4.1561    2.6142 C   0  0  0  0  0  0  0  0  0  0  0  0
    0.6591    4.8391    3.3523 C   0  0  0  0  0  0  0  0  0  0  0  0
   -0.5599    4.2503    3.6308 C   0  0  0  0  0  0  0  0  0  0  0  0
   -0.8355    2.9730    3.1644 C   0  0  0  0  0  0  0  0  0  0  0  0
   -2.0720    2.3767    3.4398 N   0  0  0  0  0  0  0  0  0  0  0  0
   -2.7513    2.6944    4.6098 C   0  0  0  0  0  0  0  0  0  0  0  0
   -4.0484    2.1997    4.8052 C   0  0  0  0  0  0  0  0  0  0  0  0
   -4.7265    2.5031    5.9489 C   0  0  0  0  0  0  0  0  0  0  0  0
   -4.0881    3.3148    6.9054 C   0  0  0  0  0  0  0  0  0  0  0  0
   -2.7792    3.7809    6.6465 C   0  0  0  0  0  0  0  0  0  0  0  0
   -2.1600    3.4497    5.5135 N   0  0  0  0  0  0  0  0  0  0  0  0
   -2.1565    4.5981    7.6255 C   0  0  0  0  0  0  0  0  0  0  0  0
   -2.8297    4.8828    8.7293 N   0  0  0  0  0  0  0  0  0  0  0  0
   -4.0607    4.4216    8.9303 C   0  0  0  0  0  0  0  0  0  0  0  0
   -4.7116    4.7547   10.1057 N   0  0  0  0  0  0  0  0  0  0  0  0
   -0.8796    5.0840    7.4317 N   0  0  0  0  0  0  0  0  0  0  0  0
    1.1119    0.9791    0.3256 H   0  0  0  0  0  0  0  0  0  0  0  0
    0.5493   -0.6053    0.9101 H   0  0  0  0  0  0  0  0  0  0  0  0
    1.7850    0.2929    1.8237 H   0  0  0  0  0  0  0  0  0  0  0  0
    2.0858    2.3503    1.5739 H   0  0  0  0  0  0  0  0  0  0  0  0
    2.5592    4.6201    2.3989 H   0  0  0  0  0  0  0  0  0  0  0  0
    0.8708    5.8353    3.7117 H   0  0  0  0  0  0  0  0  0  0  0  0
   -1.2992    4.7859    4.2078 H   0  0  0  0  0  0  0  0  0  0  0  0
   -2.4544    1.7419    2.8140 H   0  0  0  0  0  0  0  0  0  0  0  0
   -4.5100    1.5794    4.0512 H   0  0  0  0  0  0  0  0  0  0  0  0
   -5.7262    2.1304    6.1163 H   0  0  0  0  0  0  0  0  0  0  0  0
   -5.6098    4.4283   10.2720 H   0  0  0  0  0  0  0  0  0  0  0  0
   -4.2696    5.3145   10.7631 H   0  0  0  0  0  0  0  0  0  0  0  0
   -0.4648    5.6413    8.1086 H   0  0  0  0  0  0  0  0  0  0  0  0
   -0.3967    4.8682    6.6186 H   0  0  0  0  0  0  0  0  0  0  0  0
   -4.7521    3.6357    8.0682 N   0  3  0  0  0  0  0  0  0  0  0  0
   -5.6779    3.2926    8.2263 H   0  0  0  0  0  0  0  0  0  0  0  0
  1  2  1  0  0  0  0
  1 21  1  0  0  0  0
  1 22  1  0  0  0  0
  1 23  1  0  0  0  0
  2  3  1  0  0  0  0
  3  8  2  0  0  0  0
  3  4  1  0  0  0  0
  4  5  2  0  0  0  0
  4 24  1  0  0  0  0
  5  6  1  0  0  0  0
  5 25  1  0  0  0  0
  6  7  2  0  0  0  0
  6 26  1  0  0  0  0
  7  8  1  0  0  0  0
  7 27  1  0  0  0  0
  8  9  1  0  0  0  0
  9 10  1  0  0  0  0
  9 28  1  0  0  0  0
 10 15  2  0  0  0  0
 10 11  1  0  0  0  0
 11 12  2  0  0  0  0
 11 29  1  0  0  0  0
 12 13  1  0  0  0  0
 12 30  1  0  0  0  0
 13 14  2  0  0  0  0
 13 35  1  0  0  0  0
 14 15  1  0  0  0  0
 14 16  1  0  0  0  0
 16 17  2  0  0  0  0
 16 20  1  0  0  0  0
 17 18  1  0  0  0  0
 18 19  1  0  0  0  0
 18 35  2  0  0  0  0
 19 31  1  0  0  0  0
 19 32  1  0  0  0  0
 20 33  1  0  0  0  0
 20 34  1  0  0  0  0
 35 36  1  0  0  0  0
M  CHG  1  35   1
M  END
$$$$
ZINC03814935
  -OEChem-08230709403D

 31 33  0     0  0  0  0  0  0999 V2000
    0.8307    1.9117   -1.2191 C   0  0  0  0  0  0  0  0  0  0  0  0
    2.0123    1.2525   -1.4956 C   0  0  0  0  0  0  0  0  0  0  0  0
    2.3324    0.0894   -0.8174 C   0  0  0  0  0  0  0  0  0  0  0  0
    1.4699   -0.4165    0.1393 C   0  0  0  0  0  0  0  0  0  0  0  0
    0.2871    0.2388    0.4201 C   0  0  0  0  0  0  0  0  0  0  0  0
   -0.0367    1.4064   -0.2590 C   0  0  0  0  0  0  0  0  0  0  0  0
   -1.2362    2.0687    0.0191 N   0  0  0  0  0  0  0  0  0  0  0  0
   -1.2553    3.4540    0.1317 C   0  0  0  0  0  0  0  0  0  0  0  0
   -0.0432    4.1583    0.1342 C   0  0  0  0  0  0  0  0  0  0  0  0
   -0.0474    5.5180    0.2390 C   0  0  0  0  0  0  0  0  0  0  0  0
   -1.2882    6.1727    0.3532 C   0  0  0  0  0  0  0  0  0  0  0  0
   -2.4734    5.4028    0.3494 C   0  0  0  0  0  0  0  0  0  0  0  0
   -2.4122    4.0759    0.2391 N   0  0  0  0  0  0  0  0  0  0  0  0
   -3.7123    6.0854    0.4653 C   0  0  0  0  0  0  0  0  0  0  0  0
   -3.6971    7.4049    0.5709 N   0  0  0  0  0  0  0  0  0  0  0  0
   -2.5564    8.0885    0.5698 C   0  0  0  0  0  0  0  0  0  0  0  0
   -1.3779    7.5049    0.4644 N   0  0  0  0  0  0  0  0  0  0  0  0
   -2.6076    9.4672    0.6834 N   0  0  0  0  0  0  0  0  0  0  0  0
   -4.9043    5.3901    0.4684 N   0  0  0  0  0  0  0  0  0  0  0  0
    3.8189   -0.7362   -1.1671 Cl  0  0  0  0  0  0  0  0  0  0  0  0
    0.5812    2.8191   -1.7489 H   0  0  0  0  0  0  0  0  0  0  0  0
    2.6873    1.6451   -2.2417 H   0  0  0  0  0  0  0  0  0  0  0  0
    1.7222   -1.3243    0.6670 H   0  0  0  0  0  0  0  0  0  0  0  0
   -0.3853   -0.1561    1.1674 H   0  0  0  0  0  0  0  0  0  0  0  0
   -2.0550    1.5614    0.1336 H   0  0  0  0  0  0  0  0  0  0  0  0
    0.8922    3.6252    0.0494 H   0  0  0  0  0  0  0  0  0  0  0  0
    0.8766    6.0771    0.2387 H   0  0  0  0  0  0  0  0  0  0  0  0
   -3.4641    9.9159    0.7616 H   0  0  0  0  0  0  0  0  0  0  0  0
   -1.7871    9.9846    0.6847 H   0  0  0  0  0  0  0  0  0  0  0  0
   -4.9020    4.4232    0.3907 H   0  0  0  0  0  0  0  0  0  0  0  0
   -5.7445    5.8683    0.5482 H   0  0  0  0  0  0  0  0  0  0  0  0
  1  6  2  0  0  0  0
  1  2  1  0  0  0  0
  1 21  1  0  0  0  0
  2  3  2  0  0  0  0
  2 22  1  0  0  0  0
  3  4  1  0  0  0  0
  3 20  1  0  0  0  0
  4  5  2  0  0  0  0
  4 23  1  0  0  0  0
  5  6  1  0  0  0  0
  5 24  1  0  0  0  0
  6  7  1  0  0  0  0
  7  8  1  0  0  0  0
  7 25  1  0  0  0  0
  8 13  2  0  0  0  0
  8  9  1  0  0  0  0
  9 10  2  0  0  0  0
  9 26  1  0  0  0  0
 10 11  1  0  0  0  0
 10 27  1  0  0  0  0
 11 17  2  0  0  0  0
 11 12  1  0  0  0  0
 12 13  1  0  0  0  0
 12 14  2  0  0  0  0
 14 15  1  0  0  0  0
 14 19  1  0  0  0  0
 15 16  2  0  0  0  0
 16 17  1  0  0  0  0
 16 18  1  0  0  0  0
 18 28  1  0  0  0  0
 18 29  1  0  0  0  0
 19 30  1  0  0  0  0
 19 31  1  0  0  0  0
M  END
$$$$
ZINC03814935
  -OEChem-08230709403D

 32 34  0     0  0  0  0  0  0999 V2000
    0.8307    1.9117   -1.2191 C   0  0  0  0  0  0  0  0  0  0  0  0
    2.0123    1.2525   -1.4956 C   0  0  0  0  0  0  0  0  0  0  0  0
    2.3324    0.0894   -0.8174 C   0  0  0  0  0  0  0  0  0  0  0  0
    1.4699   -0.4165    0.1393 C   0  0  0  0  0  0  0  0  0  0  0  0
    0.2871    0.2388    0.4201 C   0  0  0  0  0  0  0  0  0  0  0  0
   -0.0367    1.4064   -0.2590 C   0  0  0  0  0  0  0  0  0  0  0  0
   -1.2362    2.0687    0.0191 N   0  0  0  0  0  0  0  0  0  0  0  0
   -1.2553    3.4540    0.1317 C   0  0  0  0  0  0  0  0  0  0  0  0
   -0.0432    4.1583    0.1342 C   0  0  0  0  0  0  0  0  0  0  0  0
   -0.0474    5.5180    0.2390 C   0  0  0  0  0  0  0  0  0  0  0  0
   -1.2882    6.1727    0.3532 C   0  0  0  0  0  0  0  0  0  0  0  0
   -2.4734    5.4028    0.3494 C   0  0  0  0  0  0  0  0  0  0  0  0
   -2.4122    4.0759    0.2391 N   0  0  0  0  0  0  0  0  0  0  0  0
   -3.7123    6.0854    0.4653 C   0  0  0  0  0  0  0  0  0  0  0  0
   -3.6971    7.4049    0.5709 N   0  0  0  0  0  0  0  0  0  0  0  0
   -2.5564    8.0885    0.5698 C   0  0  0  0  0  0  0  0  0  0  0  0
   -2.6076    9.4672    0.6834 N   0  0  0  0  0  0  0  0  0  0  0  0
   -4.9043    5.3901    0.4684 N   0  0  0  0  0  0  0  0  0  0  0  0
    3.8189   -0.7362   -1.1671 Cl  0  0  0  0  0  0  0  0  0  0  0  0
    0.5812    2.8191   -1.7489 H   0  0  0  0  0  0  0  0  0  0  0  0
    2.6873    1.6451   -2.2417 H   0  0  0  0  0  0  0  0  0  0  0  0
    1.7222   -1.3243    0.6670 H   0  0  0  0  0  0  0  0  0  0  0  0
   -0.3853   -0.1561    1.1674 H   0  0  0  0  0  0  0  0  0  0  0  0
   -2.0550    1.5614    0.1336 H   0  0  0  0  0  0  0  0  0  0  0  0
    0.8922    3.6252    0.0494 H   0  0  0  0  0  0  0  0  0  0  0  0
    0.8766    6.0771    0.2387 H   0  0  0  0  0  0  0  0  0  0  0  0
   -3.4641    9.9159    0.7616 H   0  0  0  0  0  0  0  0  0  0  0  0
   -1.7871    9.9846    0.6847 H   0  0  0  0  0  0  0  0  0  0  0  0
   -4.9020    4.4232    0.3907 H   0  0  0  0  0  0  0  0  0  0  0  0
   -5.7445    5.8683    0.5482 H   0  0  0  0  0  0  0  0  0  0  0  0
   -1.3187    7.5448    0.4646 N   0  3  0  0  0  0  0  0  0  0  0  0
   -0.4651    8.0656    0.4639 H   0  0  0  0  0  0  0  0  0  0  0  0
  1  6  2  0  0  0  0
  1  2  1  0  0  0  0
  1 20  1  0  0  0  0
  2  3  2  0  0  0  0
  2 21  1  0  0  0  0
  3  4  1  0  0  0  0
  3 19  1  0  0  0  0
  4  5  2  0  0  0  0
  4 22  1  0  0  0  0
  5  6  1  0  0  0  0
  5 23  1  0  0  0  0
  6  7  1  0  0  0  0
  7  8  1  0  0  0  0
  7 24  1  0  0  0  0
  8 13  2  0  0  0  0
  8  9  1  0  0  0  0
  9 10  2  0  0  0  0
  9 25  1  0  0  0  0
 10 11  1  0  0  0  0
 10 26  1  0  0  0  0
 11 12  2  0  0  0  0
 11 31  1  0  0  0  0
 12 13  1  0  0  0  0
 12 14  1  0  0  0  0
 14 15  2  0  0  0  0
 14 18  1  0  0  0  0
 15 16  1  0  0  0  0
 16 17  1  0  0  0  0
 16 31  2  0  0  0  0
 17 27  1  0  0  0  0
 17 28  1  0  0  0  0
 18 29  1  0  0  0  0
 18 30  1  0  0  0  0
 31 32  1  0  0  0  0
M  CHG  1  31   1
M  END
$$$$
ZINC03814936
  -OEChem-08230709403D

 34 36  0     0  0  0  0  0  0999 V2000
   -0.2100    0.8491    0.0281 C   0  0  0  0  0  0  0  0  0  0  0  0
   -0.6984    1.5583    1.2133 N   0  0  0  0  0  0  0  0  0  0  0  0
    0.1406    1.7353    2.3169 C   0  0  0  0  0  0  0  0  0  0  0  0
    1.2544    2.5598    2.2194 C   0  0  0  0  0  0  0  0  0  0  0  0
    2.0779    2.7374    3.3137 C   0  0  0  0  0  0  0  0  0  0  0  0
    1.8014    2.0863    4.5020 C   0  0  0  0  0  0  0  0  0  0  0  0
    0.6969    1.2600    4.6006 C   0  0  0  0  0  0  0  0  0  0  0  0
   -0.1342    1.0828    3.5121 C   0  0  0  0  0  0  0  0  0  0  0  0
   -1.9964    2.0551    1.2403 C   0  0  0  0  0  0  0  0  0  0  0  0
   -2.8905    1.6922    0.2233 C   0  0  0  0  0  0  0  0  0  0  0  0
   -4.1686    2.1676    0.2404 C   0  0  0  0  0  0  0  0  0  0  0  0
   -4.5445    3.0277    1.2893 C   0  0  0  0  0  0  0  0  0  0  0  0
   -3.5927    3.3587    2.2802 C   0  0  0  0  0  0  0  0  0  0  0  0
   -2.3577    2.8610    2.2183 N   0  0  0  0  0  0  0  0  0  0  0  0
   -3.9953    4.2272    3.3279 C   0  0  0  0  0  0  0  0  0  0  0  0
   -5.2382    4.6831    3.3258 N   0  0  0  0  0  0  0  0  0  0  0  0
   -6.1004    4.3443    2.3716 C   0  0  0  0  0  0  0  0  0  0  0  0
   -5.7791    3.5412    1.3755 N   0  0  0  0  0  0  0  0  0  0  0  0
   -7.3862    4.8543    2.4261 N   0  0  0  0  0  0  0  0  0  0  0  0
   -3.1122    4.5882    4.3249 N   0  0  0  0  0  0  0  0  0  0  0  0
   -0.4208   -0.2155    0.1292 H   0  0  0  0  0  0  0  0  0  0  0  0
    0.8654    0.9991   -0.0675 H   0  0  0  0  0  0  0  0  0  0  0  0
   -0.7111    1.2361   -0.8591 H   0  0  0  0  0  0  0  0  0  0  0  0
    1.4735    3.0648    1.2903 H   0  0  0  0  0  0  0  0  0  0  0  0
    2.9414    3.3818    3.2400 H   0  0  0  0  0  0  0  0  0  0  0  0
    2.4498    2.2231    5.3549 H   0  0  0  0  0  0  0  0  0  0  0  0
    0.4839    0.7529    5.5301 H   0  0  0  0  0  0  0  0  0  0  0  0
   -0.9966    0.4373    3.5898 H   0  0  0  0  0  0  0  0  0  0  0  0
   -2.5688    1.0339   -0.5701 H   0  0  0  0  0  0  0  0  0  0  0  0
   -4.8720    1.8952   -0.5325 H   0  0  0  0  0  0  0  0  0  0  0  0
   -7.6429    5.4463    3.1503 H   0  0  0  0  0  0  0  0  0  0  0  0
   -8.0305    4.6196    1.7399 H   0  0  0  0  0  0  0  0  0  0  0  0
   -2.2040    4.2477    4.3150 H   0  0  0  0  0  0  0  0  0  0  0  0
   -3.3996    5.1826    5.0355 H   0  0  0  0  0  0  0  0  0  0  0  0
  1  2  1  0  0  0  0
  1 21  1  0  0  0  0
  1 22  1  0  0  0  0
  1 23  1  0  0  0  0
  2  3  1  0  0  0  0
  2  9  1  0  0  0  0
  3  8  2  0  0  0  0
  3  4  1  0  0  0  0
  4  5  2  0  0  0  0
  4 24  1  0  0  0  0
  5  6  1  0  0  0  0
  5 25  1  0  0  0  0
  6  7  2  0  0  0  0
  6 26  1  0  0  0  0
  7  8  1  0  0  0  0
  7 27  1  0  0  0  0
  8 28  1  0  0  0  0
  9 14  2  0  0  0  0
  9 10  1  0  0  0  0
 10 11  2  0  0  0  0
 10 29  1  0  0  0  0
 11 12  1  0  0  0  0
 11 30  1  0  0  0  0
 12 18  2  0  0  0  0
 12 13  1  0  0  0  0
 13 14  1  0  0  0  0
 13 15  2  0  0  0  0
 15 16  1  0  0  0  0
 15 20  1  0  0  0  0
 16 17  2  0  0  0  0
 17 18  1  0  0  0  0
 17 19  1  0  0  0  0
 19 31  1  0  0  0  0
 19 32  1  0  0  0  0
 20 33  1  0  0  0  0
 20 34  1  0  0  0  0
M  END
$$$$
ZINC03814936
  -OEChem-08230709403D

 35 37  0     0  0  0  0  0  0999 V2000
   -0.2100    0.8491    0.0281 C   0  0  0  0  0  0  0  0  0  0  0  0
   -0.6984    1.5583    1.2133 N   0  0  0  0  0  0  0  0  0  0  0  0
    0.1406    1.7353    2.3169 C   0  0  0  0  0  0  0  0  0  0  0  0
    1.2544    2.5598    2.2194 C   0  0  0  0  0  0  0  0  0  0  0  0
    2.0779    2.7374    3.3137 C   0  0  0  0  0  0  0  0  0  0  0  0
    1.8014    2.0863    4.5020 C   0  0  0  0  0  0  0  0  0  0  0  0
    0.6969    1.2600    4.6006 C   0  0  0  0  0  0  0  0  0  0  0  0
   -0.1342    1.0828    3.5121 C   0  0  0  0  0  0  0  0  0  0  0  0
   -1.9964    2.0551    1.2403 C   0  0  0  0  0  0  0  0  0  0  0  0
   -2.8905    1.6922    0.2233 C   0  0  0  0  0  0  0  0  0  0  0  0
   -4.1686    2.1676    0.2404 C   0  0  0  0  0  0  0  0  0  0  0  0
   -4.5445    3.0277    1.2893 C   0  0  0  0  0  0  0  0  0  0  0  0
   -3.5927    3.3587    2.2802 C   0  0  0  0  0  0  0  0  0  0  0  0
   -2.3577    2.8610    2.2183 N   0  0  0  0  0  0  0  0  0  0  0  0
   -3.9953    4.2272    3.3279 C   0  0  0  0  0  0  0  0  0  0  0  0
   -5.2382    4.6831    3.3258 N   0  0  0  0  0  0  0  0  0  0  0  0
   -6.1004    4.3443    2.3716 C   0  0  0  0  0  0  0  0  0  0  0  0
   -7.3862    4.8543    2.4261 N   0  0  0  0  0  0  0  0  0  0  0  0
   -3.1122    4.5882    4.3249 N   0  0  0  0  0  0  0  0  0  0  0  0
   -0.4208   -0.2155    0.1292 H   0  0  0  0  0  0  0  0  0  0  0  0
    0.8654    0.9991   -0.0675 H   0  0  0  0  0  0  0  0  0  0  0  0
   -0.7111    1.2361   -0.8591 H   0  0  0  0  0  0  0  0  0  0  0  0
    1.4735    3.0648    1.2903 H   0  0  0  0  0  0  0  0  0  0  0  0
    2.9414    3.3818    3.2400 H   0  0  0  0  0  0  0  0  0  0  0  0
    2.4498    2.2231    5.3549 H   0  0  0  0  0  0  0  0  0  0  0  0
    0.4839    0.7529    5.5301 H   0  0  0  0  0  0  0  0  0  0  0  0
   -0.9966    0.4373    3.5898 H   0  0  0  0  0  0  0  0  0  0  0  0
   -2.5688    1.0339   -0.5701 H   0  0  0  0  0  0  0  0  0  0  0  0
   -4.8720    1.8952   -0.5325 H   0  0  0  0  0  0  0  0  0  0  0  0
   -7.6429    5.4463    3.1503 H   0  0  0  0  0  0  0  0  0  0  0  0
   -8.0305    4.6196    1.7399 H   0  0  0  0  0  0  0  0  0  0  0  0
   -2.2040    4.2477    4.3150 H   0  0  0  0  0  0  0  0  0  0  0  0
   -3.3996    5.1826    5.0355 H   0  0  0  0  0  0  0  0  0  0  0  0
   -5.8280    3.5252    1.3260 N   0  3  0  0  0  0  0  0  0  0  0  0
   -6.4819    3.2748    0.6121 H   0  0  0  0  0  0  0  0  0  0  0  0
  1  2  1  0  0  0  0
  1 20  1  0  0  0  0
  1 21  1  0  0  0  0
  1 22  1  0  0  0  0
  2  3  1  0  0  0  0
  2  9  1  0  0  0  0
  3  8  2  0  0  0  0
  3  4  1  0  0  0  0
  4  5  2  0  0  0  0
  4 23  1  0  0  0  0
  5  6  1  0  0  0  0
  5 24  1  0  0  0  0
  6  7  2  0  0  0  0
  6 25  1  0  0  0  0
  7  8  1  0  0  0  0
  7 26  1  0  0  0  0
  8 27  1  0  0  0  0
  9 14  2  0  0  0  0
  9 10  1  0  0  0  0
 10 11  2  0  0  0  0
 10 28  1  0  0  0  0
 11 12  1  0  0  0  0
 11 29  1  0  0  0  0
 12 13  2  0  0  0  0
 12 34  1  0  0  0  0
 13 14  1  0  0  0  0
 13 15  1  0  0  0  0
 15 16  2  0  0  0  0
 15 19  1  0  0  0  0
 16 17  1  0  0  0  0
 17 18  1  0  0  0  0
 17 34  2  0  0  0  0
 18 30  1  0  0  0  0
 18 31  1  0  0  0  0
 19 32  1  0  0  0  0
 19 33  1  0  0  0  0
 34 35  1  0  0  0  0
M  CHG  1  34   1
M  END
$$$$
ZINC03814937
  -OEChem-08230709403D

 38 40  0     0  0  0  0  0  0999 V2000
   -0.2105    0.8492    0.0278 C   0  0  0  0  0  0  0  0  0  0  0  0
   -0.6984    1.5583    1.2133 N   0  0  0  0  0  0  0  0  0  0  0  0
    0.1424    1.7354    2.3184 C   0  0  0  0  0  0  0  0  0  0  0  0
    1.2556    2.5597    2.2194 C   0  0  0  0  0  0  0  0  0  0  0  0
    2.0819    2.7377    3.3115 C   0  0  0  0  0  0  0  0  0  0  0  0
    1.8064    2.0846    4.5038 C   0  0  0  0  0  0  0  0  0  0  0  0
    0.6973    1.2573    4.6022 C   0  0  0  0  0  0  0  0  0  0  0  0
   -0.1330    1.0823    3.5127 C   0  0  0  0  0  0  0  0  0  0  0  0
    2.6237    2.2560    5.5771 O   0  0  0  0  0  0  0  0  0  0  0  0
    3.7474    3.1219    5.4051 C   0  0  0  0  0  0  0  0  0  0  0  0
   -1.9961    2.0551    1.2408 C   0  0  0  0  0  0  0  0  0  0  0  0
   -2.8907    1.6924    0.2242 C   0  0  0  0  0  0  0  0  0  0  0  0
   -4.1687    2.1679    0.2419 C   0  0  0  0  0  0  0  0  0  0  0  0
   -4.5442    3.0279    1.2910 C   0  0  0  0  0  0  0  0  0  0  0  0
   -3.5919    3.3587    2.2816 C   0  0  0  0  0  0  0  0  0  0  0  0
   -2.3570    2.8610    2.2191 N   0  0  0  0  0  0  0  0  0  0  0  0
   -3.9941    4.2272    3.3295 C   0  0  0  0  0  0  0  0  0  0  0  0
   -5.2369    4.6831    3.3279 N   0  0  0  0  0  0  0  0  0  0  0  0
   -6.0996    4.3446    2.3740 C   0  0  0  0  0  0  0  0  0  0  0  0
   -5.7787    3.5415    1.3777 N   0  0  0  0  0  0  0  0  0  0  0  0
   -7.3853    4.8546    2.4290 N   0  0  0  0  0  0  0  0  0  0  0  0
   -3.1106    4.5881    4.3262 N   0  0  0  0  0  0  0  0  0  0  0  0
   -0.4214   -0.2154    0.1288 H   0  0  0  0  0  0  0  0  0  0  0  0
    0.8649    0.9991   -0.0682 H   0  0  0  0  0  0  0  0  0  0  0  0
   -0.7119    1.2364   -0.8591 H   0  0  0  0  0  0  0  0  0  0  0  0
    1.4730    3.0645    1.2896 H   0  0  0  0  0  0  0  0  0  0  0  0
    2.9454    3.3819    3.2358 H   0  0  0  0  0  0  0  0  0  0  0  0
    0.4833    0.7495    5.5311 H   0  0  0  0  0  0  0  0  0  0  0  0
   -0.9964    0.4382    3.5895 H   0  0  0  0  0  0  0  0  0  0  0  0
    4.3146    3.1701    6.3347 H   0  0  0  0  0  0  0  0  0  0  0  0
    4.3852    2.7359    4.6099 H   0  0  0  0  0  0  0  0  0  0  0  0
    3.3995    4.1202    5.1396 H   0  0  0  0  0  0  0  0  0  0  0  0
   -2.5695    1.0338   -0.5693 H   0  0  0  0  0  0  0  0  0  0  0  0
   -4.8723    1.8959   -0.5310 H   0  0  0  0  0  0  0  0  0  0  0  0
   -7.6417    5.4466    3.1534 H   0  0  0  0  0  0  0  0  0  0  0  0
   -8.0298    4.6201    1.7431 H   0  0  0  0  0  0  0  0  0  0  0  0
   -2.2024    4.2474    4.3159 H   0  0  0  0  0  0  0  0  0  0  0  0
   -3.3977    5.1824    5.0370 H   0  0  0  0  0  0  0  0  0  0  0  0
  1  2  1  0  0  0  0
  1 23  1  0  0  0  0
  1 24  1  0  0  0  0
  1 25  1  0  0  0  0
  2  3  1  0  0  0  0
  2 11  1  0  0  0  0
  3  8  2  0  0  0  0
  3  4  1  0  0  0  0
  4  5  2  0  0  0  0
  4 26  1  0  0  0  0
  5  6  1  0  0  0  0
  5 27  1  0  0  0  0
  6  7  2  0  0  0  0
  6  9  1  0  0  0  0
  7  8  1  0  0  0  0
  7 28  1  0  0  0  0
  8 29  1  0  0  0  0
  9 10  1  0  0  0  0
 10 30  1  0  0  0  0
 10 31  1  0  0  0  0
 10 32  1  0  0  0  0
 11 16  2  0  0  0  0
 11 12  1  0  0  0  0
 12 13  2  0  0  0  0
 12 33  1  0  0  0  0
 13 14  1  0  0  0  0
 13 34  1  0  0  0  0
 14 20  2  0  0  0  0
 14 15  1  0  0  0  0
 15 16  1  0  0  0  0
 15 17  2  0  0  0  0
 17 18  1  0  0  0  0
 17 22  1  0  0  0  0
 18 19  2  0  0  0  0
 19 20  1  0  0  0  0
 19 21  1  0  0  0  0
 21 35  1  0  0  0  0
 21 36  1  0  0  0  0
 22 37  1  0  0  0  0
 22 38  1  0  0  0  0
M  END
$$$$
ZINC03814937
  -OEChem-08230709403D

 39 41  0     0  0  0  0  0  0999 V2000
   -0.2105    0.8492    0.0278 C   0  0  0  0  0  0  0  0  0  0  0  0
   -0.6984    1.5583    1.2133 N   0  0  0  0  0  0  0  0  0  0  0  0
    0.1424    1.7354    2.3184 C   0  0  0  0  0  0  0  0  0  0  0  0
    1.2556    2.5597    2.2194 C   0  0  0  0  0  0  0  0  0  0  0  0
    2.0819    2.7377    3.3115 C   0  0  0  0  0  0  0  0  0  0  0  0
    1.8064    2.0846    4.5038 C   0  0  0  0  0  0  0  0  0  0  0  0
    0.6973    1.2573    4.6022 C   0  0  0  0  0  0  0  0  0  0  0  0
   -0.1330    1.0823    3.5127 C   0  0  0  0  0  0  0  0  0  0  0  0
    2.6237    2.2560    5.5771 O   0  0  0  0  0  0  0  0  0  0  0  0
    3.7474    3.1219    5.4051 C   0  0  0  0  0  0  0  0  0  0  0  0
   -1.9961    2.0551    1.2408 C   0  0  0  0  0  0  0  0  0  0  0  0
   -2.8907    1.6924    0.2242 C   0  0  0  0  0  0  0  0  0  0  0  0
   -4.1687    2.1679    0.2419 C   0  0  0  0  0  0  0  0  0  0  0  0
   -4.5442    3.0279    1.2910 C   0  0  0  0  0  0  0  0  0  0  0  0
   -3.5919    3.3587    2.2816 C   0  0  0  0  0  0  0  0  0  0  0  0
   -2.3570    2.8610    2.2191 N   0  0  0  0  0  0  0  0  0  0  0  0
   -3.9941    4.2272    3.3295 C   0  0  0  0  0  0  0  0  0  0  0  0
   -5.2369    4.6831    3.3279 N   0  0  0  0  0  0  0  0  0  0  0  0
   -6.0996    4.3446    2.3740 C   0  0  0  0  0  0  0  0  0  0  0  0
   -7.3853    4.8546    2.4290 N   0  0  0  0  0  0  0  0  0  0  0  0
   -3.1106    4.5881    4.3262 N   0  0  0  0  0  0  0  0  0  0  0  0
   -0.4214   -0.2154    0.1288 H   0  0  0  0  0  0  0  0  0  0  0  0
    0.8649    0.9991   -0.0682 H   0  0  0  0  0  0  0  0  0  0  0  0
   -0.7119    1.2364   -0.8591 H   0  0  0  0  0  0  0  0  0  0  0  0
    1.4730    3.0645    1.2896 H   0  0  0  0  0  0  0  0  0  0  0  0
    2.9454    3.3819    3.2358 H   0  0  0  0  0  0  0  0  0  0  0  0
    0.4833    0.7495    5.5311 H   0  0  0  0  0  0  0  0  0  0  0  0
   -0.9964    0.4382    3.5895 H   0  0  0  0  0  0  0  0  0  0  0  0
    4.3146    3.1701    6.3347 H   0  0  0  0  0  0  0  0  0  0  0  0
    4.3852    2.7359    4.6099 H   0  0  0  0  0  0  0  0  0  0  0  0
    3.3995    4.1202    5.1396 H   0  0  0  0  0  0  0  0  0  0  0  0
   -2.5695    1.0338   -0.5693 H   0  0  0  0  0  0  0  0  0  0  0  0
   -4.8723    1.8959   -0.5310 H   0  0  0  0  0  0  0  0  0  0  0  0
   -7.6417    5.4466    3.1534 H   0  0  0  0  0  0  0  0  0  0  0  0
   -8.0298    4.6201    1.7431 H   0  0  0  0  0  0  0  0  0  0  0  0
   -2.2024    4.2474    4.3159 H   0  0  0  0  0  0  0  0  0  0  0  0
   -3.3977    5.1824    5.0370 H   0  0  0  0  0  0  0  0  0  0  0  0
   -5.8276    3.5255    1.3282 N   0  3  0  0  0  0  0  0  0  0  0  0
   -6.4818    3.2752    0.6145 H   0  0  0  0  0  0  0  0  0  0  0  0
  1  2  1  0  0  0  0
  1 22  1  0  0  0  0
  1 23  1  0  0  0  0
  1 24  1  0  0  0  0
  2  3  1  0  0  0  0
  2 11  1  0  0  0  0
  3  8  2  0  0  0  0
  3  4  1  0  0  0  0
  4  5  2  0  0  0  0
  4 25  1  0  0  0  0
  5  6  1  0  0  0  0
  5 26  1  0  0  0  0
  6  7  2  0  0  0  0
  6  9  1  0  0  0  0
  7  8  1  0  0  0  0
  7 27  1  0  0  0  0
  8 28  1  0  0  0  0
  9 10  1  0  0  0  0
 10 29  1  0  0  0  0
 10 30  1  0  0  0  0
 10 31  1  0  0  0  0
 11 16  2  0  0  0  0
 11 12  1  0  0  0  0
 12 13  2  0  0  0  0
 12 32  1  0  0  0  0
 13 14  1  0  0  0  0
 13 33  1  0  0  0  0
 14 15  2  0  0  0  0
 14 38  1  0  0  0  0
 15 16  1  0  0  0  0
 15 17  1  0  0  0  0
 17 18  2  0  0  0  0
 17 21  1  0  0  0  0
 18 19  1  0  0  0  0
 19 20  1  0  0  0  0
 19 38  2  0  0  0  0
 20 34  1  0  0  0  0
 20 35  1  0  0  0  0
 21 36  1  0  0  0  0
 21 37  1  0  0  0  0
 38 39  1  0  0  0  0
M  CHG  1  38   1
M  END
$$$$
ZINC03814938
  -OEChem-08230709403D

 42 44  0     0  0  0  0  0  0999 V2000
    3.0534    0.7423    1.2463 C   0  0  0  0  0  0  0  0  0  0  0  0
    2.4017    1.1052   -0.0145 N   0  0  0  0  0  0  0  0  0  0  0  0
    2.9974    0.7732   -1.2254 C   0  0  0  0  0  0  0  0  0  0  0  0
    2.4158    1.2190   -2.4206 C   0  0  0  0  0  0  0  0  0  0  0  0
    2.9900    0.9009   -3.6159 C   0  0  0  0  0  0  0  0  0  0  0  0
    4.1639    0.1244   -3.6045 C   0  0  0  0  0  0  0  0  0  0  0  0
    4.6989   -0.2929   -2.3646 C   0  0  0  0  0  0  0  0  0  0  0  0
    4.0995    0.0507   -1.2247 N   0  0  0  0  0  0  0  0  0  0  0  0
    5.8830   -1.0749   -2.3786 C   0  0  0  0  0  0  0  0  0  0  0  0
    6.4265   -1.3745   -3.5480 N   0  0  0  0  0  0  0  0  0  0  0  0
    5.8874   -0.9598   -4.6908 C   0  0  0  0  0  0  0  0  0  0  0  0
    4.7887   -0.2308   -4.7353 N   0  0  0  0  0  0  0  0  0  0  0  0
    6.5037   -1.3065   -5.8808 N   0  0  0  0  0  0  0  0  0  0  0  0
    6.4547   -1.5122   -1.2012 N   0  0  0  0  0  0  0  0  0  0  0  0
    1.1788    1.7865    0.0004 C   0  0  0  0  0  0  0  0  0  0  0  0
   -0.0126    1.0758    0.0080 C   0  0  0  0  0  0  0  0  0  0  0  0
   -1.2220    1.7533    0.0174 C   0  0  0  0  0  0  0  0  0  0  0  0
   -1.2412    3.1403    0.0304 C   0  0  0  0  0  0  0  0  0  0  0  0
   -0.0551    3.8508    0.0234 C   0  0  0  0  0  0  0  0  0  0  0  0
    1.1560    3.1793    0.0081 C   0  0  0  0  0  0  0  0  0  0  0  0
    2.3227    3.8795    0.0003 O   0  0  0  0  0  0  0  0  0  0  0  0
    2.2239    5.3051    0.0090 C   0  0  0  0  0  0  0  0  0  0  0  0
   -2.3903    1.0577    0.0191 O   0  0  0  0  0  0  0  0  0  0  0  0
   -3.5991    1.8198    0.0290 C   0  0  0  0  0  0  0  0  0  0  0  0
    2.7149   -0.2454    1.5592 H   0  0  0  0  0  0  0  0  0  0  0  0
    4.1342    0.7284    1.1058 H   0  0  0  0  0  0  0  0  0  0  0  0
    2.7960    1.4740    2.0121 H   0  0  0  0  0  0  0  0  0  0  0  0
    1.5142    1.8131   -2.3947 H   0  0  0  0  0  0  0  0  0  0  0  0
    2.5559    1.2361   -4.5463 H   0  0  0  0  0  0  0  0  0  0  0  0
    6.1269   -1.0140   -6.7254 H   0  0  0  0  0  0  0  0  0  0  0  0
    7.3124   -1.8420   -5.8701 H   0  0  0  0  0  0  0  0  0  0  0  0
    7.2644   -2.0459   -1.2241 H   0  0  0  0  0  0  0  0  0  0  0  0
    6.0468   -1.2860   -0.3507 H   0  0  0  0  0  0  0  0  0  0  0  0
    0.0021   -0.0041    0.0020 H   0  0  0  0  0  0  0  0  0  0  0  0
   -2.1844    3.6662    0.0416 H   0  0  0  0  0  0  0  0  0  0  0  0
   -0.0731    4.9306    0.0294 H   0  0  0  0  0  0  0  0  0  0  0  0
    3.2239    5.7387    0.0014 H   0  0  0  0  0  0  0  0  0  0  0  0
    1.6773    5.6368   -0.8738 H   0  0  0  0  0  0  0  0  0  0  0  0
    1.6951    5.6272    0.9060 H   0  0  0  0  0  0  0  0  0  0  0  0
   -4.4545    1.1443    0.0293 H   0  0  0  0  0  0  0  0  0  0  0  0
   -3.6282    2.4434    0.9225 H   0  0  0  0  0  0  0  0  0  0  0  0
   -3.6366    2.4531   -0.8574 H   0  0  0  0  0  0  0  0  0  0  0  0
  1  2  1  0  0  0  0
  1 25  1  0  0  0  0
  1 26  1  0  0  0  0
  1 27  1  0  0  0  0
  2  3  1  0  0  0  0
  2 15  1  0  0  0  0
  3  8  2  0  0  0  0
  3  4  1  0  0  0  0
  4  5  2  0  0  0  0
  4 28  1  0  0  0  0
  5  6  1  0  0  0  0
  5 29  1  0  0  0  0
  6 12  2  0  0  0  0
  6  7  1  0  0  0  0
  7  8  1  0  0  0  0
  7  9  2  0  0  0  0
  9 10  1  0  0  0  0
  9 14  1  0  0  0  0
 10 11  2  0  0  0  0
 11 12  1  0  0  0  0
 11 13  1  0  0  0  0
 13 30  1  0  0  0  0
 13 31  1  0  0  0  0
 14 32  1  0  0  0  0
 14 33  1  0  0  0  0
 15 20  2  0  0  0  0
 15 16  1  0  0  0  0
 16 17  2  0  0  0  0
 16 34  1  0  0  0  0
 17 18  1  0  0  0  0
 17 23  1  0  0  0  0
 18 19  2  0  0  0  0
 18 35  1  0  0  0  0
 19 20  1  0  0  0  0
 19 36  1  0  0  0  0
 20 21  1  0  0  0  0
 21 22  1  0  0  0  0
 22 37  1  0  0  0  0
 22 38  1  0  0  0  0
 22 39  1  0  0  0  0
 23 24  1  0  0  0  0
 24 40  1  0  0  0  0
 24 41  1  0  0  0  0
 24 42  1  0  0  0  0
M  END
$$$$
ZINC03814938
  -OEChem-08230709403D

 43 45  0     0  0  0  0  0  0999 V2000
    3.0534    0.7423    1.2463 C   0  0  0  0  0  0  0  0  0  0  0  0
    2.4017    1.1052   -0.0145 N   0  0  0  0  0  0  0  0  0  0  0  0
    2.9974    0.7732   -1.2254 C   0  0  0  0  0  0  0  0  0  0  0  0
    2.4158    1.2190   -2.4206 C   0  0  0  0  0  0  0  0  0  0  0  0
    2.9900    0.9009   -3.6159 C   0  0  0  0  0  0  0  0  0  0  0  0
    4.1639    0.1244   -3.6045 C   0  0  0  0  0  0  0  0  0  0  0  0
    4.6989   -0.2929   -2.3646 C   0  0  0  0  0  0  0  0  0  0  0  0
    4.0995    0.0507   -1.2247 N   0  0  0  0  0  0  0  0  0  0  0  0
    5.8830   -1.0749   -2.3786 C   0  0  0  0  0  0  0  0  0  0  0  0
    6.4265   -1.3745   -3.5480 N   0  0  0  0  0  0  0  0  0  0  0  0
    5.8874   -0.9598   -4.6908 C   0  0  0  0  0  0  0  0  0  0  0  0
    6.5037   -1.3065   -5.8808 N   0  0  0  0  0  0  0  0  0  0  0  0
    6.4547   -1.5122   -1.2012 N   0  0  0  0  0  0  0  0  0  0  0  0
    1.1788    1.7865    0.0004 C   0  0  0  0  0  0  0  0  0  0  0  0
   -0.0126    1.0758    0.0080 C   0  0  0  0  0  0  0  0  0  0  0  0
   -1.2220    1.7533    0.0174 C   0  0  0  0  0  0  0  0  0  0  0  0
   -1.2412    3.1403    0.0304 C   0  0  0  0  0  0  0  0  0  0  0  0
   -0.0551    3.8508    0.0234 C   0  0  0  0  0  0  0  0  0  0  0  0
    1.1560    3.1793    0.0081 C   0  0  0  0  0  0  0  0  0  0  0  0
    2.3227    3.8795    0.0003 O   0  0  0  0  0  0  0  0  0  0  0  0
    2.2239    5.3051    0.0090 C   0  0  0  0  0  0  0  0  0  0  0  0
   -2.3903    1.0577    0.0191 O   0  0  0  0  0  0  0  0  0  0  0  0
   -3.5991    1.8198    0.0290 C   0  0  0  0  0  0  0  0  0  0  0  0
    2.7149   -0.2454    1.5592 H   0  0  0  0  0  0  0  0  0  0  0  0
    4.1342    0.7284    1.1058 H   0  0  0  0  0  0  0  0  0  0  0  0
    2.7960    1.4740    2.0121 H   0  0  0  0  0  0  0  0  0  0  0  0
    1.5142    1.8131   -2.3947 H   0  0  0  0  0  0  0  0  0  0  0  0
    2.5559    1.2361   -4.5463 H   0  0  0  0  0  0  0  0  0  0  0  0
    6.1269   -1.0140   -6.7254 H   0  0  0  0  0  0  0  0  0  0  0  0
    7.3124   -1.8420   -5.8701 H   0  0  0  0  0  0  0  0  0  0  0  0
    7.2644   -2.0459   -1.2241 H   0  0  0  0  0  0  0  0  0  0  0  0
    6.0468   -1.2860   -0.3507 H   0  0  0  0  0  0  0  0  0  0  0  0
    0.0021   -0.0041    0.0020 H   0  0  0  0  0  0  0  0  0  0  0  0
   -2.1844    3.6662    0.0416 H   0  0  0  0  0  0  0  0  0  0  0  0
   -0.0731    4.9306    0.0294 H   0  0  0  0  0  0  0  0  0  0  0  0
    3.2239    5.7387    0.0014 H   0  0  0  0  0  0  0  0  0  0  0  0
    1.6773    5.6368   -0.8738 H   0  0  0  0  0  0  0  0  0  0  0  0
    1.6951    5.6272    0.9060 H   0  0  0  0  0  0  0  0  0  0  0  0
   -4.4545    1.1443    0.0293 H   0  0  0  0  0  0  0  0  0  0  0  0
   -3.6282    2.4434    0.9225 H   0  0  0  0  0  0  0  0  0  0  0  0
   -3.6366    2.4531   -0.8574 H   0  0  0  0  0  0  0  0  0  0  0  0
    4.7626   -0.2103   -4.7985 N   0  3  0  0  0  0  0  0  0  0  0  0
    4.3632    0.0982   -5.6618 H   0  0  0  0  0  0  0  0  0  0  0  0
  1  2  1  0  0  0  0
  1 24  1  0  0  0  0
  1 25  1  0  0  0  0
  1 26  1  0  0  0  0
  2  3  1  0  0  0  0
  2 14  1  0  0  0  0
  3  8  2  0  0  0  0
  3  4  1  0  0  0  0
  4  5  2  0  0  0  0
  4 27  1  0  0  0  0
  5  6  1  0  0  0  0
  5 28  1  0  0  0  0
  6  7  2  0  0  0  0
  6 42  1  0  0  0  0
  7  8  1  0  0  0  0
  7  9  1  0  0  0  0
  9 10  2  0  0  0  0
  9 13  1  0  0  0  0
 10 11  1  0  0  0  0
 11 12  1  0  0  0  0
 11 42  2  0  0  0  0
 12 29  1  0  0  0  0
 12 30  1  0  0  0  0
 13 31  1  0  0  0  0
 13 32  1  0  0  0  0
 14 19  2  0  0  0  0
 14 15  1  0  0  0  0
 15 16  2  0  0  0  0
 15 33  1  0  0  0  0
 16 17  1  0  0  0  0
 16 22  1  0  0  0  0
 17 18  2  0  0  0  0
 17 34  1  0  0  0  0
 18 19  1  0  0  0  0
 18 35  1  0  0  0  0
 19 20  1  0  0  0  0
 20 21  1  0  0  0  0
 21 36  1  0  0  0  0
 21 37  1  0  0  0  0
 21 38  1  0  0  0  0
 22 23  1  0  0  0  0
 23 39  1  0  0  0  0
 23 40  1  0  0  0  0
 23 41  1  0  0  0  0
 42 43  1  0  0  0  0
M  CHG  1  42   1
M  END
$$$$
ZINC03814940
  -OEChem-08230709403D

 46 48  0     0  0  0  0  0  0999 V2000
    0.7469    5.4293   -1.6263 C   0  0  0  0  0  0  0  0  0  0  0  0
    0.1674    5.9887   -0.4026 N   0  0  0  0  0  0  0  0  0  0  0  0
   -0.0309    7.3598   -0.2912 C   0  0  0  0  0  0  0  0  0  0  0  0
   -0.5856    7.8787    0.8870 C   0  0  0  0  0  0  0  0  0  0  0  0
   -0.7808    9.2227    1.0119 C   0  0  0  0  0  0  0  0  0  0  0  0
   -0.4217   10.0503   -0.0685 C   0  0  0  0  0  0  0  0  0  0  0  0
    0.1276    9.4626   -1.2305 C   0  0  0  0  0  0  0  0  0  0  0  0
    0.3018    8.1428   -1.2977 N   0  0  0  0  0  0  0  0  0  0  0  0
    0.4818   10.3175   -2.3065 C   0  0  0  0  0  0  0  0  0  0  0  0
    0.2811   11.6189   -2.1695 N   0  0  0  0  0  0  0  0  0  0  0  0
   -0.2391   12.1279   -1.0565 C   0  0  0  0  0  0  0  0  0  0  0  0
   -0.5857   11.3795   -0.0268 N   0  0  0  0  0  0  0  0  0  0  0  0
   -0.4237   13.4974   -0.9749 N   0  0  0  0  0  0  0  0  0  0  0  0
    1.0221    9.8045   -3.4680 N   0  0  0  0  0  0  0  0  0  0  0  0
   -0.1867    5.1423    0.6544 C   0  0  0  0  0  0  0  0  0  0  0  0
    0.7362    4.8527    1.6505 C   0  0  0  0  0  0  0  0  0  0  0  0
    0.3863    4.0146    2.6975 C   0  0  0  0  0  0  0  0  0  0  0  0
   -0.8904    3.4682    2.7529 C   0  0  0  0  0  0  0  0  0  0  0  0
   -1.8118    3.7540    1.7525 C   0  0  0  0  0  0  0  0  0  0  0  0
   -1.4605    4.5922    0.7061 C   0  0  0  0  0  0  0  0  0  0  0  0
   -3.0596    3.2157    1.8032 O   0  0  0  0  0  0  0  0  0  0  0  0
   -3.9569    3.5571    0.7448 C   0  0  0  0  0  0  0  0  0  0  0  0
   -1.2367    2.6492    3.7843 O   0  0  0  0  0  0  0  0  0  0  0  0
   -0.9940    1.2515    3.6124 C   0  0  0  0  0  0  0  0  0  0  0  0
    1.2902    3.7314    3.6733 O   0  0  0  0  0  0  0  0  0  0  0  0
    2.5814    4.3323    3.5557 C   0  0  0  0  0  0  0  0  0  0  0  0
   -0.0509    5.1868   -2.3283 H   0  0  0  0  0  0  0  0  0  0  0  0
    1.4181    6.1601   -2.0774 H   0  0  0  0  0  0  0  0  0  0  0  0
    1.3048    4.5249   -1.3836 H   0  0  0  0  0  0  0  0  0  0  0  0
   -0.8544    7.2157    1.6960 H   0  0  0  0  0  0  0  0  0  0  0  0
   -1.2033    9.6402    1.9138 H   0  0  0  0  0  0  0  0  0  0  0  0
   -0.1751   14.0656   -1.7207 H   0  0  0  0  0  0  0  0  0  0  0  0
   -0.8016   13.8889   -0.1719 H   0  0  0  0  0  0  0  0  0  0  0  0
    1.1640    8.8490   -3.5562 H   0  0  0  0  0  0  0  0  0  0  0  0
    1.2600   10.3994   -4.1963 H   0  0  0  0  0  0  0  0  0  0  0  0
    1.7271    5.2803    1.6092 H   0  0  0  0  0  0  0  0  0  0  0  0
   -2.1778    4.8179   -0.0691 H   0  0  0  0  0  0  0  0  0  0  0  0
   -4.9146    3.0623    0.9065 H   0  0  0  0  0  0  0  0  0  0  0  0
   -3.5364    3.2325   -0.2070 H   0  0  0  0  0  0  0  0  0  0  0  0
   -4.1043    4.6370    0.7275 H   0  0  0  0  0  0  0  0  0  0  0  0
   -1.3145    0.7146    4.5052 H   0  0  0  0  0  0  0  0  0  0  0  0
   -1.5534    0.8890    2.7500 H   0  0  0  0  0  0  0  0  0  0  0  0
    0.0710    1.0848    3.4510 H   0  0  0  0  0  0  0  0  0  0  0  0
    3.0472    4.0130    2.6233 H   0  0  0  0  0  0  0  0  0  0  0  0
    2.4787    5.4174    3.5576 H   0  0  0  0  0  0  0  0  0  0  0  0
    3.2032    4.0247    4.3964 H   0  0  0  0  0  0  0  0  0  0  0  0
  1  2  1  0  0  0  0
  1 27  1  0  0  0  0
  1 28  1  0  0  0  0
  1 29  1  0  0  0  0
  2  3  1  0  0  0  0
  2 15  1  0  0  0  0
  3  8  2  0  0  0  0
  3  4  1  0  0  0  0
  4  5  2  0  0  0  0
  4 30  1  0  0  0  0
  5  6  1  0  0  0  0
  5 31  1  0  0  0  0
  6 12  2  0  0  0  0
  6  7  1  0  0  0  0
  7  8  1  0  0  0  0
  7  9  2  0  0  0  0
  9 10  1  0  0  0  0
  9 14  1  0  0  0  0
 10 11  2  0  0  0  0
 11 12  1  0  0  0  0
 11 13  1  0  0  0  0
 13 32  1  0  0  0  0
 13 33  1  0  0  0  0
 14 34  1  0  0  0  0
 14 35  1  0  0  0  0
 15 20  2  0  0  0  0
 15 16  1  0  0  0  0
 16 17  2  0  0  0  0
 16 36  1  0  0  0  0
 17 18  1  0  0  0  0
 17 25  1  0  0  0  0
 18 19  2  0  0  0  0
 18 23  1  0  0  0  0
 19 20  1  0  0  0  0
 19 21  1  0  0  0  0
 20 37  1  0  0  0  0
 21 22  1  0  0  0  0
 22 38  1  0  0  0  0
 22 39  1  0  0  0  0
 22 40  1  0  0  0  0
 23 24  1  0  0  0  0
 24 41  1  0  0  0  0
 24 42  1  0  0  0  0
 24 43  1  0  0  0  0
 25 26  1  0  0  0  0
 26 44  1  0  0  0  0
 26 45  1  0  0  0  0
 26 46  1  0  0  0  0
M  END
$$$$
ZINC03814940
  -OEChem-08230709403D

 47 49  0     0  0  0  0  0  0999 V2000
    0.7469    5.4293   -1.6263 C   0  0  0  0  0  0  0  0  0  0  0  0
    0.1674    5.9887   -0.4026 N   0  0  0  0  0  0  0  0  0  0  0  0
   -0.0309    7.3598   -0.2912 C   0  0  0  0  0  0  0  0  0  0  0  0
   -0.5856    7.8787    0.8870 C   0  0  0  0  0  0  0  0  0  0  0  0
   -0.7808    9.2227    1.0119 C   0  0  0  0  0  0  0  0  0  0  0  0
   -0.4217   10.0503   -0.0685 C   0  0  0  0  0  0  0  0  0  0  0  0
    0.1276    9.4626   -1.2305 C   0  0  0  0  0  0  0  0  0  0  0  0
    0.3018    8.1428   -1.2977 N   0  0  0  0  0  0  0  0  0  0  0  0
    0.4818   10.3175   -2.3065 C   0  0  0  0  0  0  0  0  0  0  0  0
    0.2811   11.6189   -2.1695 N   0  0  0  0  0  0  0  0  0  0  0  0
   -0.2391   12.1279   -1.0565 C   0  0  0  0  0  0  0  0  0  0  0  0
   -0.4237   13.4974   -0.9749 N   0  0  0  0  0  0  0  0  0  0  0  0
    1.0221    9.8045   -3.4680 N   0  0  0  0  0  0  0  0  0  0  0  0
   -0.1867    5.1423    0.6544 C   0  0  0  0  0  0  0  0  0  0  0  0
    0.7362    4.8527    1.6505 C   0  0  0  0  0  0  0  0  0  0  0  0
    0.3863    4.0146    2.6975 C   0  0  0  0  0  0  0  0  0  0  0  0
   -0.8904    3.4682    2.7529 C   0  0  0  0  0  0  0  0  0  0  0  0
   -1.8118    3.7540    1.7525 C   0  0  0  0  0  0  0  0  0  0  0  0
   -1.4605    4.5922    0.7061 C   0  0  0  0  0  0  0  0  0  0  0  0
   -3.0596    3.2157    1.8032 O   0  0  0  0  0  0  0  0  0  0  0  0
   -3.9569    3.5571    0.7448 C   0  0  0  0  0  0  0  0  0  0  0  0
   -1.2367    2.6492    3.7843 O   0  0  0  0  0  0  0  0  0  0  0  0
   -0.9940    1.2515    3.6124 C   0  0  0  0  0  0  0  0  0  0  0  0
    1.2902    3.7314    3.6733 O   0  0  0  0  0  0  0  0  0  0  0  0
    2.5814    4.3323    3.5557 C   0  0  0  0  0  0  0  0  0  0  0  0
   -0.0509    5.1868   -2.3283 H   0  0  0  0  0  0  0  0  0  0  0  0
    1.4181    6.1601   -2.0774 H   0  0  0  0  0  0  0  0  0  0  0  0
    1.3048    4.5249   -1.3836 H   0  0  0  0  0  0  0  0  0  0  0  0
   -0.8544    7.2157    1.6960 H   0  0  0  0  0  0  0  0  0  0  0  0
   -1.2033    9.6402    1.9138 H   0  0  0  0  0  0  0  0  0  0  0  0
   -0.1751   14.0656   -1.7207 H   0  0  0  0  0  0  0  0  0  0  0  0
   -0.8016   13.8889   -0.1719 H   0  0  0  0  0  0  0  0  0  0  0  0
    1.1640    8.8490   -3.5562 H   0  0  0  0  0  0  0  0  0  0  0  0
    1.2600   10.3994   -4.1963 H   0  0  0  0  0  0  0  0  0  0  0  0
    1.7271    5.2803    1.6092 H   0  0  0  0  0  0  0  0  0  0  0  0
   -2.1778    4.8179   -0.0691 H   0  0  0  0  0  0  0  0  0  0  0  0
   -4.9146    3.0623    0.9065 H   0  0  0  0  0  0  0  0  0  0  0  0
   -3.5364    3.2325   -0.2070 H   0  0  0  0  0  0  0  0  0  0  0  0
   -4.1043    4.6370    0.7275 H   0  0  0  0  0  0  0  0  0  0  0  0
   -1.3145    0.7146    4.5052 H   0  0  0  0  0  0  0  0  0  0  0  0
   -1.5534    0.8890    2.7500 H   0  0  0  0  0  0  0  0  0  0  0  0
    0.0710    1.0848    3.4510 H   0  0  0  0  0  0  0  0  0  0  0  0
    3.0472    4.0130    2.6233 H   0  0  0  0  0  0  0  0  0  0  0  0
    2.4787    5.4174    3.5576 H   0  0  0  0  0  0  0  0  0  0  0  0
    3.2032    4.0247    4.3964 H   0  0  0  0  0  0  0  0  0  0  0  0
   -0.6133   11.4102    0.0314 N   0  3  0  0  0  0  0  0  0  0  0  0
   -1.0039   11.8003    0.8652 H   0  0  0  0  0  0  0  0  0  0  0  0
  1  2  1  0  0  0  0
  1 26  1  0  0  0  0
  1 27  1  0  0  0  0
  1 28  1  0  0  0  0
  2  3  1  0  0  0  0
  2 14  1  0  0  0  0
  3  8  2  0  0  0  0
  3  4  1  0  0  0  0
  4  5  2  0  0  0  0
  4 29  1  0  0  0  0
  5  6  1  0  0  0  0
  5 30  1  0  0  0  0
  6  7  2  0  0  0  0
  6 46  1  0  0  0  0
  7  8  1  0  0  0  0
  7  9  1  0  0  0  0
  9 10  2  0  0  0  0
  9 13  1  0  0  0  0
 10 11  1  0  0  0  0
 11 12  1  0  0  0  0
 11 46  2  0  0  0  0
 12 31  1  0  0  0  0
 12 32  1  0  0  0  0
 13 33  1  0  0  0  0
 13 34  1  0  0  0  0
 14 19  2  0  0  0  0
 14 15  1  0  0  0  0
 15 16  2  0  0  0  0
 15 35  1  0  0  0  0
 16 17  1  0  0  0  0
 16 24  1  0  0  0  0
 17 18  2  0  0  0  0
 17 22  1  0  0  0  0
 18 19  1  0  0  0  0
 18 20  1  0  0  0  0
 19 36  1  0  0  0  0
 20 21  1  0  0  0  0
 21 37  1  0  0  0  0
 21 38  1  0  0  0  0
 21 39  1  0  0  0  0
 22 23  1  0  0  0  0
 23 40  1  0  0  0  0
 23 41  1  0  0  0  0
 23 42  1  0  0  0  0
 24 25  1  0  0  0  0
 25 43  1  0  0  0  0
 25 44  1  0  0  0  0
 25 45  1  0  0  0  0
 46 47  1  0  0  0  0
M  CHG  1  46   1
M  END
$$$$
ZINC03814941
  -OEChem-08230709403D

 34 36  0     0  0  0  0  0  0999 V2000
    1.5127    4.7332    4.5914 C   0  0  0  0  0  0  0  0  0  0  0  0
    0.3441    3.9926    4.2336 O   0  0  0  0  0  0  0  0  0  0  0  0
    0.5139    2.6759    3.9386 C   0  0  0  0  0  0  0  0  0  0  0  0
    1.7768    2.1097    3.9924 C   0  0  0  0  0  0  0  0  0  0  0  0
    1.9479    0.7704    3.6931 C   0  0  0  0  0  0  0  0  0  0  0  0
    0.8607   -0.0073    3.3391 C   0  0  0  0  0  0  0  0  0  0  0  0
   -0.4027    0.5496    3.2829 C   0  0  0  0  0  0  0  0  0  0  0  0
   -0.5831    1.8917    3.5870 C   0  0  0  0  0  0  0  0  0  0  0  0
   -2.1937    2.6034    3.5229 S   0  0  0  0  0  0  0  0  0  0  0  0
   -2.6612    2.7532    5.2151 C   0  0  0  0  0  0  0  0  0  0  0  0
   -3.8548    3.4129    5.5410 C   0  0  0  0  0  0  0  0  0  0  0  0
   -4.2290    3.5356    6.8464 C   0  0  0  0  0  0  0  0  0  0  0  0
   -3.3893    2.9865    7.8340 C   0  0  0  0  0  0  0  0  0  0  0  0
   -2.1997    2.3339    7.4383 C   0  0  0  0  0  0  0  0  0  0  0  0
   -1.8838    2.2377    6.1469 N   0  0  0  0  0  0  0  0  0  0  0  0
   -1.3693    1.7889    8.4519 C   0  0  0  0  0  0  0  0  0  0  0  0
   -1.7482    1.9178    9.7138 N   0  0  0  0  0  0  0  0  0  0  0  0
   -2.8772    2.5405   10.0396 C   0  0  0  0  0  0  0  0  0  0  0  0
   -3.6854    3.0651    9.1383 N   0  0  0  0  0  0  0  0  0  0  0  0
   -3.2182    2.6419   11.3774 N   0  0  0  0  0  0  0  0  0  0  0  0
   -0.1950    1.1395    8.1298 N   0  0  0  0  0  0  0  0  0  0  0  0
    2.2258    4.7072    3.7675 H   0  0  0  0  0  0  0  0  0  0  0  0
    1.9660    4.2904    5.4783 H   0  0  0  0  0  0  0  0  0  0  0  0
    1.2376    5.7668    4.8014 H   0  0  0  0  0  0  0  0  0  0  0  0
    2.6281    2.7141    4.2686 H   0  0  0  0  0  0  0  0  0  0  0  0
    2.9333    0.3307    3.7364 H   0  0  0  0  0  0  0  0  0  0  0  0
    0.9994   -1.0528    3.1062 H   0  0  0  0  0  0  0  0  0  0  0  0
   -1.2501   -0.0603    3.0065 H   0  0  0  0  0  0  0  0  0  0  0  0
   -4.4767    3.8235    4.7593 H   0  0  0  0  0  0  0  0  0  0  0  0
   -5.1451    4.0402    7.1155 H   0  0  0  0  0  0  0  0  0  0  0  0
   -4.0376    3.0919   11.6363 H   0  0  0  0  0  0  0  0  0  0  0  0
   -2.6378    2.2630   12.0559 H   0  0  0  0  0  0  0  0  0  0  0  0
    0.3638    0.7710    8.8318 H   0  0  0  0  0  0  0  0  0  0  0  0
    0.0717    1.0516    7.2013 H   0  0  0  0  0  0  0  0  0  0  0  0
  1  2  1  0  0  0  0
  1 22  1  0  0  0  0
  1 23  1  0  0  0  0
  1 24  1  0  0  0  0
  2  3  1  0  0  0  0
  3  8  2  0  0  0  0
  3  4  1  0  0  0  0
  4  5  2  0  0  0  0
  4 25  1  0  0  0  0
  5  6  1  0  0  0  0
  5 26  1  0  0  0  0
  6  7  2  0  0  0  0
  6 27  1  0  0  0  0
  7  8  1  0  0  0  0
  7 28  1  0  0  0  0
  8  9  1  0  0  0  0
  9 10  1  0  0  0  0
 10 15  2  0  0  0  0
 10 11  1  0  0  0  0
 11 12  2  0  0  0  0
 11 29  1  0  0  0  0
 12 13  1  0  0  0  0
 12 30  1  0  0  0  0
 13 19  2  0  0  0  0
 13 14  1  0  0  0  0
 14 15  1  0  0  0  0
 14 16  2  0  0  0  0
 16 17  1  0  0  0  0
 16 21  1  0  0  0  0
 17 18  2  0  0  0  0
 18 19  1  0  0  0  0
 18 20  1  0  0  0  0
 20 31  1  0  0  0  0
 20 32  1  0  0  0  0
 21 33  1  0  0  0  0
 21 34  1  0  0  0  0
M  END
$$$$
ZINC03814941
  -OEChem-08230709403D

 35 37  0     0  0  0  0  0  0999 V2000
    1.5127    4.7332    4.5914 C   0  0  0  0  0  0  0  0  0  0  0  0
    0.3441    3.9926    4.2336 O   0  0  0  0  0  0  0  0  0  0  0  0
    0.5139    2.6759    3.9386 C   0  0  0  0  0  0  0  0  0  0  0  0
    1.7768    2.1097    3.9924 C   0  0  0  0  0  0  0  0  0  0  0  0
    1.9479    0.7704    3.6931 C   0  0  0  0  0  0  0  0  0  0  0  0
    0.8607   -0.0073    3.3391 C   0  0  0  0  0  0  0  0  0  0  0  0
   -0.4027    0.5496    3.2829 C   0  0  0  0  0  0  0  0  0  0  0  0
   -0.5831    1.8917    3.5870 C   0  0  0  0  0  0  0  0  0  0  0  0
   -2.1937    2.6034    3.5229 S   0  0  0  0  0  0  0  0  0  0  0  0
   -2.6612    2.7532    5.2151 C   0  0  0  0  0  0  0  0  0  0  0  0
   -3.8548    3.4129    5.5410 C   0  0  0  0  0  0  0  0  0  0  0  0
   -4.2290    3.5356    6.8464 C   0  0  0  0  0  0  0  0  0  0  0  0
   -3.3893    2.9865    7.8340 C   0  0  0  0  0  0  0  0  0  0  0  0
   -2.1997    2.3339    7.4383 C   0  0  0  0  0  0  0  0  0  0  0  0
   -1.8838    2.2377    6.1469 N   0  0  0  0  0  0  0  0  0  0  0  0
   -1.3693    1.7889    8.4519 C   0  0  0  0  0  0  0  0  0  0  0  0
   -1.7482    1.9178    9.7138 N   0  0  0  0  0  0  0  0  0  0  0  0
   -2.8772    2.5405   10.0396 C   0  0  0  0  0  0  0  0  0  0  0  0
   -3.2182    2.6419   11.3774 N   0  0  0  0  0  0  0  0  0  0  0  0
   -0.1950    1.1395    8.1298 N   0  0  0  0  0  0  0  0  0  0  0  0
    2.2258    4.7072    3.7675 H   0  0  0  0  0  0  0  0  0  0  0  0
    1.9660    4.2904    5.4783 H   0  0  0  0  0  0  0  0  0  0  0  0
    1.2376    5.7668    4.8014 H   0  0  0  0  0  0  0  0  0  0  0  0
    2.6281    2.7141    4.2686 H   0  0  0  0  0  0  0  0  0  0  0  0
    2.9333    0.3307    3.7364 H   0  0  0  0  0  0  0  0  0  0  0  0
    0.9994   -1.0528    3.1062 H   0  0  0  0  0  0  0  0  0  0  0  0
   -1.2501   -0.0603    3.0065 H   0  0  0  0  0  0  0  0  0  0  0  0
   -4.4767    3.8235    4.7593 H   0  0  0  0  0  0  0  0  0  0  0  0
   -5.1451    4.0402    7.1155 H   0  0  0  0  0  0  0  0  0  0  0  0
   -4.0376    3.0919   11.6363 H   0  0  0  0  0  0  0  0  0  0  0  0
   -2.6378    2.2630   12.0559 H   0  0  0  0  0  0  0  0  0  0  0  0
    0.3638    0.7710    8.8318 H   0  0  0  0  0  0  0  0  0  0  0  0
    0.0717    1.0516    7.2013 H   0  0  0  0  0  0  0  0  0  0  0  0
   -3.7452    3.0978    9.1594 N   0  3  0  0  0  0  0  0  0  0  0  0
   -4.5927    3.5647    9.4120 H   0  0  0  0  0  0  0  0  0  0  0  0
  1  2  1  0  0  0  0
  1 21  1  0  0  0  0
  1 22  1  0  0  0  0
  1 23  1  0  0  0  0
  2  3  1  0  0  0  0
  3  8  2  0  0  0  0
  3  4  1  0  0  0  0
  4  5  2  0  0  0  0
  4 24  1  0  0  0  0
  5  6  1  0  0  0  0
  5 25  1  0  0  0  0
  6  7  2  0  0  0  0
  6 26  1  0  0  0  0
  7  8  1  0  0  0  0
  7 27  1  0  0  0  0
  8  9  1  0  0  0  0
  9 10  1  0  0  0  0
 10 15  2  0  0  0  0
 10 11  1  0  0  0  0
 11 12  2  0  0  0  0
 11 28  1  0  0  0  0
 12 13  1  0  0  0  0
 12 29  1  0  0  0  0
 13 14  2  0  0  0  0
 13 34  1  0  0  0  0
 14 15  1  0  0  0  0
 14 16  1  0  0  0  0
 16 17  2  0  0  0  0
 16 20  1  0  0  0  0
 17 18  1  0  0  0  0
 18 19  1  0  0  0  0
 18 34  2  0  0  0  0
 19 30  1  0  0  0  0
 19 31  1  0  0  0  0
 20 32  1  0  0  0  0
 20 33  1  0  0  0  0
 34 35  1  0  0  0  0
M  CHG  1  34   1
M  END
$$$$
ZINC03814942
  -OEChem-08230709403D

 34 36  0     0  0  0  0  0  0999 V2000
    4.1664   -0.9614   -1.1522 C   0  0  0  0  0  0  0  0  0  0  0  0
    3.5710   -0.6573    0.1108 O   0  0  0  0  0  0  0  0  0  0  0  0
    2.3887    0.0143    0.0903 C   0  0  0  0  0  0  0  0  0  0  0  0
    1.7565    0.3413    1.2810 C   0  0  0  0  0  0  0  0  0  0  0  0
    0.5560    1.0232    1.2612 C   0  0  0  0  0  0  0  0  0  0  0  0
   -0.0187    1.3818    0.0484 C   0  0  0  0  0  0  0  0  0  0  0  0
    0.6152    1.0540   -1.1434 C   0  0  0  0  0  0  0  0  0  0  0  0
    1.8159    0.3724   -1.1214 C   0  0  0  0  0  0  0  0  0  0  0  0
   -1.5542    2.2457    0.0216 S   0  0  0  0  0  0  0  0  0  0  0  0
   -1.0933    3.9392    0.1777 C   0  0  0  0  0  0  0  0  0  0  0  0
   -2.0934    4.9116    0.3204 C   0  0  0  0  0  0  0  0  0  0  0  0
   -1.7507    6.2253    0.4466 C   0  0  0  0  0  0  0  0  0  0  0  0
   -0.3842    6.5624    0.4187 C   0  0  0  0  0  0  0  0  0  0  0  0
    0.5737    5.5343    0.2667 C   0  0  0  0  0  0  0  0  0  0  0  0
    0.1840    4.2648    0.1522 N   0  0  0  0  0  0  0  0  0  0  0  0
    1.9449    5.8989    0.2414 C   0  0  0  0  0  0  0  0  0  0  0  0
    2.2586    7.1795    0.3610 N   0  0  0  0  0  0  0  0  0  0  0  0
    1.3225    8.1135    0.5022 C   0  0  0  0  0  0  0  0  0  0  0  0
    0.0343    7.8301    0.5321 N   0  0  0  0  0  0  0  0  0  0  0  0
    1.7154    9.4354    0.6230 N   0  0  0  0  0  0  0  0  0  0  0  0
    2.9279    4.9415    0.0951 N   0  0  0  0  0  0  0  0  0  0  0  0
    3.4863   -1.5834   -1.7341 H   0  0  0  0  0  0  0  0  0  0  0  0
    4.3647   -0.0359   -1.6927 H   0  0  0  0  0  0  0  0  0  0  0  0
    5.1023   -1.4969   -0.9931 H   0  0  0  0  0  0  0  0  0  0  0  0
    2.2032    0.0621    2.2238 H   0  0  0  0  0  0  0  0  0  0  0  0
    0.0641    1.2780    2.1883 H   0  0  0  0  0  0  0  0  0  0  0  0
    0.1693    1.3323   -2.0868 H   0  0  0  0  0  0  0  0  0  0  0  0
    2.3090    0.1177   -2.0479 H   0  0  0  0  0  0  0  0  0  0  0  0
   -3.1332    4.6201    0.3339 H   0  0  0  0  0  0  0  0  0  0  0  0
   -2.5076    6.9872    0.5610 H   0  0  0  0  0  0  0  0  0  0  0  0
    2.6576    9.6651    0.6037 H   0  0  0  0  0  0  0  0  0  0  0  0
    1.0484   10.1320    0.7268 H   0  0  0  0  0  0  0  0  0  0  0  0
    2.6851    4.0064    0.0081 H   0  0  0  0  0  0  0  0  0  0  0  0
    3.8617    5.2035    0.0793 H   0  0  0  0  0  0  0  0  0  0  0  0
  1  2  1  0  0  0  0
  1 22  1  0  0  0  0
  1 23  1  0  0  0  0
  1 24  1  0  0  0  0
  2  3  1  0  0  0  0
  3  8  2  0  0  0  0
  3  4  1  0  0  0  0
  4  5  2  0  0  0  0
  4 25  1  0  0  0  0
  5  6  1  0  0  0  0
  5 26  1  0  0  0  0
  6  7  2  0  0  0  0
  6  9  1  0  0  0  0
  7  8  1  0  0  0  0
  7 27  1  0  0  0  0
  8 28  1  0  0  0  0
  9 10  1  0  0  0  0
 10 15  2  0  0  0  0
 10 11  1  0  0  0  0
 11 12  2  0  0  0  0
 11 29  1  0  0  0  0
 12 13  1  0  0  0  0
 12 30  1  0  0  0  0
 13 19  2  0  0  0  0
 13 14  1  0  0  0  0
 14 15  1  0  0  0  0
 14 16  2  0  0  0  0
 16 17  1  0  0  0  0
 16 21  1  0  0  0  0
 17 18  2  0  0  0  0
 18 19  1  0  0  0  0
 18 20  1  0  0  0  0
 20 31  1  0  0  0  0
 20 32  1  0  0  0  0
 21 33  1  0  0  0  0
 21 34  1  0  0  0  0
M  END
$$$$
ZINC03814942
  -OEChem-08230709403D

 35 37  0     0  0  0  0  0  0999 V2000
    4.1664   -0.9614   -1.1522 C   0  0  0  0  0  0  0  0  0  0  0  0
    3.5710   -0.6573    0.1108 O   0  0  0  0  0  0  0  0  0  0  0  0
    2.3887    0.0143    0.0903 C   0  0  0  0  0  0  0  0  0  0  0  0
    1.7565    0.3413    1.2810 C   0  0  0  0  0  0  0  0  0  0  0  0
    0.5560    1.0232    1.2612 C   0  0  0  0  0  0  0  0  0  0  0  0
   -0.0187    1.3818    0.0484 C   0  0  0  0  0  0  0  0  0  0  0  0
    0.6152    1.0540   -1.1434 C   0  0  0  0  0  0  0  0  0  0  0  0
    1.8159    0.3724   -1.1214 C   0  0  0  0  0  0  0  0  0  0  0  0
   -1.5542    2.2457    0.0216 S   0  0  0  0  0  0  0  0  0  0  0  0
   -1.0933    3.9392    0.1777 C   0  0  0  0  0  0  0  0  0  0  0  0
   -2.0934    4.9116    0.3204 C   0  0  0  0  0  0  0  0  0  0  0  0
   -1.7507    6.2253    0.4466 C   0  0  0  0  0  0  0  0  0  0  0  0
   -0.3842    6.5624    0.4187 C   0  0  0  0  0  0  0  0  0  0  0  0
    0.5737    5.5343    0.2667 C   0  0  0  0  0  0  0  0  0  0  0  0
    0.1840    4.2648    0.1522 N   0  0  0  0  0  0  0  0  0  0  0  0
    1.9449    5.8989    0.2414 C   0  0  0  0  0  0  0  0  0  0  0  0
    2.2586    7.1795    0.3610 N   0  0  0  0  0  0  0  0  0  0  0  0
    1.3225    8.1135    0.5022 C   0  0  0  0  0  0  0  0  0  0  0  0
    1.7154    9.4354    0.6230 N   0  0  0  0  0  0  0  0  0  0  0  0
    2.9279    4.9415    0.0951 N   0  0  0  0  0  0  0  0  0  0  0  0
    3.4863   -1.5834   -1.7341 H   0  0  0  0  0  0  0  0  0  0  0  0
    4.3647   -0.0359   -1.6927 H   0  0  0  0  0  0  0  0  0  0  0  0
    5.1023   -1.4969   -0.9931 H   0  0  0  0  0  0  0  0  0  0  0  0
    2.2032    0.0621    2.2238 H   0  0  0  0  0  0  0  0  0  0  0  0
    0.0641    1.2780    2.1883 H   0  0  0  0  0  0  0  0  0  0  0  0
    0.1693    1.3323   -2.0868 H   0  0  0  0  0  0  0  0  0  0  0  0
    2.3090    0.1177   -2.0479 H   0  0  0  0  0  0  0  0  0  0  0  0
   -3.1332    4.6201    0.3339 H   0  0  0  0  0  0  0  0  0  0  0  0
   -2.5076    6.9872    0.5610 H   0  0  0  0  0  0  0  0  0  0  0  0
    2.6576    9.6651    0.6037 H   0  0  0  0  0  0  0  0  0  0  0  0
    1.0484   10.1320    0.7268 H   0  0  0  0  0  0  0  0  0  0  0  0
    2.6851    4.0064    0.0081 H   0  0  0  0  0  0  0  0  0  0  0  0
    3.8617    5.2035    0.0793 H   0  0  0  0  0  0  0  0  0  0  0  0
   -0.0132    7.8828    0.5398 N   0  3  0  0  0  0  0  0  0  0  0  0
   -0.7115    8.5906    0.6462 H   0  0  0  0  0  0  0  0  0  0  0  0
  1  2  1  0  0  0  0
  1 21  1  0  0  0  0
  1 22  1  0  0  0  0
  1 23  1  0  0  0  0
  2  3  1  0  0  0  0
  3  8  2  0  0  0  0
  3  4  1  0  0  0  0
  4  5  2  0  0  0  0
  4 24  1  0  0  0  0
  5  6  1  0  0  0  0
  5 25  1  0  0  0  0
  6  7  2  0  0  0  0
  6  9  1  0  0  0  0
  7  8  1  0  0  0  0
  7 26  1  0  0  0  0
  8 27  1  0  0  0  0
  9 10  1  0  0  0  0
 10 15  2  0  0  0  0
 10 11  1  0  0  0  0
 11 12  2  0  0  0  0
 11 28  1  0  0  0  0
 12 13  1  0  0  0  0
 12 29  1  0  0  0  0
 13 14  2  0  0  0  0
 13 34  1  0  0  0  0
 14 15  1  0  0  0  0
 14 16  1  0  0  0  0
 16 17  2  0  0  0  0
 16 20  1  0  0  0  0
 17 18  1  0  0  0  0
 18 19  1  0  0  0  0
 18 34  2  0  0  0  0
 19 30  1  0  0  0  0
 19 31  1  0  0  0  0
 20 32  1  0  0  0  0
 20 33  1  0  0  0  0
 34 35  1  0  0  0  0
M  CHG  1  34   1
M  END
$$$$
ZINC03814943
  -OEChem-08230709403D

 38 40  0     0  0  0  0  0  0999 V2000
   -1.7500    0.5853    0.6597 C   0  0  0  0  0  0  0  0  0  0  0  0
   -0.7585    1.4646    1.1943 O   0  0  0  0  0  0  0  0  0  0  0  0
   -0.2058    1.1192    2.3888 C   0  0  0  0  0  0  0  0  0  0  0  0
   -0.6105   -0.0406    3.0298 C   0  0  0  0  0  0  0  0  0  0  0  0
   -0.0500   -0.3932    4.2426 C   0  0  0  0  0  0  0  0  0  0  0  0
    0.9205    0.4145    4.8218 C   0  0  0  0  0  0  0  0  0  0  0  0
    1.3282    1.5776    4.1818 C   0  0  0  0  0  0  0  0  0  0  0  0
    0.7700    1.9279    2.9637 C   0  0  0  0  0  0  0  0  0  0  0  0
    1.1716    3.0634    2.3323 O   0  0  0  0  0  0  0  0  0  0  0  0
    2.1771    3.8451    2.9804 C   0  0  0  0  0  0  0  0  0  0  0  0
    1.6337   -0.0364    6.3686 S   0  0  0  0  0  0  0  0  0  0  0  0
    2.9500   -1.1227    5.9307 C   0  0  0  0  0  0  0  0  0  0  0  0
    3.6630   -1.7795    6.9438 C   0  0  0  0  0  0  0  0  0  0  0  0
    4.6837   -2.6232    6.6190 C   0  0  0  0  0  0  0  0  0  0  0  0
    4.9882   -2.8062    5.2568 C   0  0  0  0  0  0  0  0  0  0  0  0
    4.2307   -2.1141    4.2849 C   0  0  0  0  0  0  0  0  0  0  0  0
    3.2394   -1.3044    4.6573 N   0  0  0  0  0  0  0  0  0  0  0  0
    4.5562   -2.3151    2.9183 C   0  0  0  0  0  0  0  0  0  0  0  0
    5.5499   -3.1382    2.6219 N   0  0  0  0  0  0  0  0  0  0  0  0
    6.2359   -3.7686    3.5708 C   0  0  0  0  0  0  0  0  0  0  0  0
    5.9755   -3.6181    4.8554 N   0  0  0  0  0  0  0  0  0  0  0  0
    7.2637   -4.6168    3.1958 N   0  0  0  0  0  0  0  0  0  0  0  0
    3.8539   -1.6678    1.9222 N   0  0  0  0  0  0  0  0  0  0  0  0
   -2.5839    0.5108    1.3577 H   0  0  0  0  0  0  0  0  0  0  0  0
   -1.3151   -0.4024    0.5065 H   0  0  0  0  0  0  0  0  0  0  0  0
   -2.1073    0.9767   -0.2928 H   0  0  0  0  0  0  0  0  0  0  0  0
   -1.3647   -0.6700    2.5808 H   0  0  0  0  0  0  0  0  0  0  0  0
   -0.3671   -1.2974    4.7409 H   0  0  0  0  0  0  0  0  0  0  0  0
    2.0827    2.2060    4.6314 H   0  0  0  0  0  0  0  0  0  0  0  0
    2.4049    4.7204    2.3722 H   0  0  0  0  0  0  0  0  0  0  0  0
    1.8147    4.1656    3.9571 H   0  0  0  0  0  0  0  0  0  0  0  0
    3.0786    3.2454    3.1061 H   0  0  0  0  0  0  0  0  0  0  0  0
    3.4043   -1.6170    7.9797 H   0  0  0  0  0  0  0  0  0  0  0  0
    5.2433   -3.1376    7.3863 H   0  0  0  0  0  0  0  0  0  0  0  0
    7.4711   -4.7417    2.2565 H   0  0  0  0  0  0  0  0  0  0  0  0
    7.7763   -5.0863    3.8723 H   0  0  0  0  0  0  0  0  0  0  0  0
    3.1281   -1.0670    2.1524 H   0  0  0  0  0  0  0  0  0  0  0  0
    4.0862   -1.8137    0.9917 H   0  0  0  0  0  0  0  0  0  0  0  0
  1  2  1  0  0  0  0
  1 24  1  0  0  0  0
  1 25  1  0  0  0  0
  1 26  1  0  0  0  0
  2  3  1  0  0  0  0
  3  8  2  0  0  0  0
  3  4  1  0  0  0  0
  4  5  2  0  0  0  0
  4 27  1  0  0  0  0
  5  6  1  0  0  0  0
  5 28  1  0  0  0  0
  6  7  2  0  0  0  0
  6 11  1  0  0  0  0
  7  8  1  0  0  0  0
  7 29  1  0  0  0  0
  8  9  1  0  0  0  0
  9 10  1  0  0  0  0
 10 30  1  0  0  0  0
 10 31  1  0  0  0  0
 10 32  1  0  0  0  0
 11 12  1  0  0  0  0
 12 17  2  0  0  0  0
 12 13  1  0  0  0  0
 13 14  2  0  0  0  0
 13 33  1  0  0  0  0
 14 15  1  0  0  0  0
 14 34  1  0  0  0  0
 15 21  2  0  0  0  0
 15 16  1  0  0  0  0
 16 17  1  0  0  0  0
 16 18  2  0  0  0  0
 18 19  1  0  0  0  0
 18 23  1  0  0  0  0
 19 20  2  0  0  0  0
 20 21  1  0  0  0  0
 20 22  1  0  0  0  0
 22 35  1  0  0  0  0
 22 36  1  0  0  0  0
 23 37  1  0  0  0  0
 23 38  1  0  0  0  0
M  END
$$$$
ZINC03814943
  -OEChem-08230709403D

 39 41  0     0  0  0  0  0  0999 V2000
   -1.7500    0.5853    0.6597 C   0  0  0  0  0  0  0  0  0  0  0  0
   -0.7585    1.4646    1.1943 O   0  0  0  0  0  0  0  0  0  0  0  0
   -0.2058    1.1192    2.3888 C   0  0  0  0  0  0  0  0  0  0  0  0
   -0.6105   -0.0406    3.0298 C   0  0  0  0  0  0  0  0  0  0  0  0
   -0.0500   -0.3932    4.2426 C   0  0  0  0  0  0  0  0  0  0  0  0
    0.9205    0.4145    4.8218 C   0  0  0  0  0  0  0  0  0  0  0  0
    1.3282    1.5776    4.1818 C   0  0  0  0  0  0  0  0  0  0  0  0
    0.7700    1.9279    2.9637 C   0  0  0  0  0  0  0  0  0  0  0  0
    1.1716    3.0634    2.3323 O   0  0  0  0  0  0  0  0  0  0  0  0
    2.1771    3.8451    2.9804 C   0  0  0  0  0  0  0  0  0  0  0  0
    1.6337   -0.0364    6.3686 S   0  0  0  0  0  0  0  0  0  0  0  0
    2.9500   -1.1227    5.9307 C   0  0  0  0  0  0  0  0  0  0  0  0
    3.6630   -1.7795    6.9438 C   0  0  0  0  0  0  0  0  0  0  0  0
    4.6837   -2.6232    6.6190 C   0  0  0  0  0  0  0  0  0  0  0  0
    4.9882   -2.8062    5.2568 C   0  0  0  0  0  0  0  0  0  0  0  0
    4.2307   -2.1141    4.2849 C   0  0  0  0  0  0  0  0  0  0  0  0
    3.2394   -1.3044    4.6573 N   0  0  0  0  0  0  0  0  0  0  0  0
    4.5562   -2.3151    2.9183 C   0  0  0  0  0  0  0  0  0  0  0  0
    5.5499   -3.1382    2.6219 N   0  0  0  0  0  0  0  0  0  0  0  0
    6.2359   -3.7686    3.5708 C   0  0  0  0  0  0  0  0  0  0  0  0
    7.2637   -4.6168    3.1958 N   0  0  0  0  0  0  0  0  0  0  0  0
    3.8539   -1.6678    1.9222 N   0  0  0  0  0  0  0  0  0  0  0  0
   -2.5839    0.5108    1.3577 H   0  0  0  0  0  0  0  0  0  0  0  0
   -1.3151   -0.4024    0.5065 H   0  0  0  0  0  0  0  0  0  0  0  0
   -2.1073    0.9767   -0.2928 H   0  0  0  0  0  0  0  0  0  0  0  0
   -1.3647   -0.6700    2.5808 H   0  0  0  0  0  0  0  0  0  0  0  0
   -0.3671   -1.2974    4.7409 H   0  0  0  0  0  0  0  0  0  0  0  0
    2.0827    2.2060    4.6314 H   0  0  0  0  0  0  0  0  0  0  0  0
    2.4049    4.7204    2.3722 H   0  0  0  0  0  0  0  0  0  0  0  0
    1.8147    4.1656    3.9571 H   0  0  0  0  0  0  0  0  0  0  0  0
    3.0786    3.2454    3.1061 H   0  0  0  0  0  0  0  0  0  0  0  0
    3.4043   -1.6170    7.9797 H   0  0  0  0  0  0  0  0  0  0  0  0
    5.2433   -3.1376    7.3863 H   0  0  0  0  0  0  0  0  0  0  0  0
    7.4711   -4.7417    2.2565 H   0  0  0  0  0  0  0  0  0  0  0  0
    7.7763   -5.0863    3.8723 H   0  0  0  0  0  0  0  0  0  0  0  0
    3.1281   -1.0670    2.1524 H   0  0  0  0  0  0  0  0  0  0  0  0
    4.0862   -1.8137    0.9917 H   0  0  0  0  0  0  0  0  0  0  0  0
    6.0144   -3.6535    4.9036 N   0  3  0  0  0  0  0  0  0  0  0  0
    6.5347   -4.1310    5.6116 H   0  0  0  0  0  0  0  0  0  0  0  0
  1  2  1  0  0  0  0
  1 23  1  0  0  0  0
  1 24  1  0  0  0  0
  1 25  1  0  0  0  0
  2  3  1  0  0  0  0
  3  8  2  0  0  0  0
  3  4  1  0  0  0  0
  4  5  2  0  0  0  0
  4 26  1  0  0  0  0
  5  6  1  0  0  0  0
  5 27  1  0  0  0  0
  6  7  2  0  0  0  0
  6 11  1  0  0  0  0
  7  8  1  0  0  0  0
  7 28  1  0  0  0  0
  8  9  1  0  0  0  0
  9 10  1  0  0  0  0
 10 29  1  0  0  0  0
 10 30  1  0  0  0  0
 10 31  1  0  0  0  0
 11 12  1  0  0  0  0
 12 17  2  0  0  0  0
 12 13  1  0  0  0  0
 13 14  2  0  0  0  0
 13 32  1  0  0  0  0
 14 15  1  0  0  0  0
 14 33  1  0  0  0  0
 15 16  2  0  0  0  0
 15 38  1  0  0  0  0
 16 17  1  0  0  0  0
 16 18  1  0  0  0  0
 18 19  2  0  0  0  0
 18 22  1  0  0  0  0
 19 20  1  0  0  0  0
 20 21  1  0  0  0  0
 20 38  2  0  0  0  0
 21 34  1  0  0  0  0
 21 35  1  0  0  0  0
 22 36  1  0  0  0  0
 22 37  1  0  0  0  0
 38 39  1  0  0  0  0
M  CHG  1  38   1
M  END
$$$$
ZINC03814944
  -OEChem-08230709403D

 40 42  0     0  0  0  0  0  0999 V2000
   -2.3605    5.2398    0.0534 C   0  0  0  0  0  0  0  0  0  0  0  0
   -2.4214    3.8121    0.0463 O   0  0  0  0  0  0  0  0  0  0  0  0
   -1.2371    3.1437    0.0313 C   0  0  0  0  0  0  0  0  0  0  0  0
   -0.0431    3.8467    0.0237 C   0  0  0  0  0  0  0  0  0  0  0  0
    1.1599    3.1657    0.0080 C   0  0  0  0  0  0  0  0  0  0  0  0
    1.1751    1.7833    0.0004 C   0  0  0  0  0  0  0  0  0  0  0  0
   -0.0126    1.0758    0.0080 C   0  0  0  0  0  0  0  0  0  0  0  0
   -1.2218    1.7523    0.0174 C   0  0  0  0  0  0  0  0  0  0  0  0
   -2.3911    1.0578    0.0191 O   0  0  0  0  0  0  0  0  0  0  0  0
   -2.2988   -0.3681    0.0109 C   0  0  0  0  0  0  0  0  0  0  0  0
    2.7117    0.9212   -0.0195 S   0  0  0  0  0  0  0  0  0  0  0  0
    3.6806    1.8054    0.5269 O   0  0  0  0  0  0  0  0  0  0  0  0
    2.4619   -0.3668    0.5264 O   0  0  0  0  0  0  0  0  0  0  0  0
    3.1495    0.6759   -1.7085 C   0  0  0  0  0  0  0  0  0  0  0  0
    3.9135    1.6423   -2.3593 C   0  0  0  0  0  0  0  0  0  0  0  0
    4.2632    1.4689   -3.6694 C   0  0  0  0  0  0  0  0  0  0  0  0
    3.8300    0.3010   -4.3199 C   0  0  0  0  0  0  0  0  0  0  0  0
    3.0567   -0.6374   -3.5957 C   0  0  0  0  0  0  0  0  0  0  0  0
    2.7524   -0.4151   -2.3206 N   0  0  0  0  0  0  0  0  0  0  0  0
    2.6200   -1.8441   -4.2997 C   0  0  0  0  0  0  0  0  0  0  0  0
    2.9763   -1.9808   -5.5690 N   0  0  0  0  0  0  0  0  0  0  0  0
    3.7054   -1.0568   -6.1869 C   0  0  0  0  0  0  0  0  0  0  0  0
    4.1248    0.0466   -5.6009 N   0  0  0  0  0  0  0  0  0  0  0  0
    4.0413   -1.2642   -7.5127 N   0  0  0  0  0  0  0  0  0  0  0  0
    1.8634   -2.8057   -3.6642 N   0  0  0  0  0  0  0  0  0  0  0  0
   -1.8231    5.5761    0.9401 H   0  0  0  0  0  0  0  0  0  0  0  0
   -1.8402    5.5857   -0.8397 H   0  0  0  0  0  0  0  0  0  0  0  0
   -3.3717    5.6465    0.0653 H   0  0  0  0  0  0  0  0  0  0  0  0
   -0.0522    4.9266    0.0296 H   0  0  0  0  0  0  0  0  0  0  0  0
    2.0898    3.7148    0.0021 H   0  0  0  0  0  0  0  0  0  0  0  0
    0.0021   -0.0041    0.0020 H   0  0  0  0  0  0  0  0  0  0  0  0
   -1.7584   -0.7024    0.8965 H   0  0  0  0  0  0  0  0  0  0  0  0
   -3.3009   -0.7971    0.0132 H   0  0  0  0  0  0  0  0  0  0  0  0
   -1.7668   -0.6926   -0.8834 H   0  0  0  0  0  0  0  0  0  0  0  0
    4.2292    2.5285   -1.8289 H   0  0  0  0  0  0  0  0  0  0  0  0
    4.8552    2.2077   -4.1891 H   0  0  0  0  0  0  0  0  0  0  0  0
    3.7457   -2.0681   -7.9678 H   0  0  0  0  0  0  0  0  0  0  0  0
    4.5725   -0.6057   -7.9871 H   0  0  0  0  0  0  0  0  0  0  0  0
    1.6116   -2.6887   -2.7348 H   0  0  0  0  0  0  0  0  0  0  0  0
    1.5829   -3.5992   -4.1466 H   0  0  0  0  0  0  0  0  0  0  0  0
  1  2  1  0  0  0  0
  1 26  1  0  0  0  0
  1 27  1  0  0  0  0
  1 28  1  0  0  0  0
  2  3  1  0  0  0  0
  3  8  2  0  0  0  0
  3  4  1  0  0  0  0
  4  5  2  0  0  0  0
  4 29  1  0  0  0  0
  5  6  1  0  0  0  0
  5 30  1  0  0  0  0
  6  7  2  0  0  0  0
  6 11  1  0  0  0  0
  7  8  1  0  0  0  0
  7 31  1  0  0  0  0
  8  9  1  0  0  0  0
  9 10  1  0  0  0  0
 10 32  1  0  0  0  0
 10 33  1  0  0  0  0
 10 34  1  0  0  0  0
 11 12  2  0  0  0  0
 11 13  2  0  0  0  0
 11 14  1  0  0  0  0
 14 19  2  0  0  0  0
 14 15  1  0  0  0  0
 15 16  2  0  0  0  0
 15 35  1  0  0  0  0
 16 17  1  0  0  0  0
 16 36  1  0  0  0  0
 17 23  2  0  0  0  0
 17 18  1  0  0  0  0
 18 19  1  0  0  0  0
 18 20  2  0  0  0  0
 20 21  1  0  0  0  0
 20 25  1  0  0  0  0
 21 22  2  0  0  0  0
 22 23  1  0  0  0  0
 22 24  1  0  0  0  0
 24 37  1  0  0  0  0
 24 38  1  0  0  0  0
 25 39  1  0  0  0  0
 25 40  1  0  0  0  0
M  END
$$$$
ZINC03814944
  -OEChem-08230709403D

 41 43  0     0  0  0  0  0  0999 V2000
   -2.3605    5.2398    0.0534 C   0  0  0  0  0  0  0  0  0  0  0  0
   -2.4214    3.8121    0.0463 O   0  0  0  0  0  0  0  0  0  0  0  0
   -1.2371    3.1437    0.0313 C   0  0  0  0  0  0  0  0  0  0  0  0
   -0.0431    3.8467    0.0237 C   0  0  0  0  0  0  0  0  0  0  0  0
    1.1599    3.1657    0.0080 C   0  0  0  0  0  0  0  0  0  0  0  0
    1.1751    1.7833    0.0004 C   0  0  0  0  0  0  0  0  0  0  0  0
   -0.0126    1.0758    0.0080 C   0  0  0  0  0  0  0  0  0  0  0  0
   -1.2218    1.7523    0.0174 C   0  0  0  0  0  0  0  0  0  0  0  0
   -2.3911    1.0578    0.0191 O   0  0  0  0  0  0  0  0  0  0  0  0
   -2.2988   -0.3681    0.0109 C   0  0  0  0  0  0  0  0  0  0  0  0
    2.7117    0.9212   -0.0195 S   0  0  0  0  0  0  0  0  0  0  0  0
    3.6806    1.8054    0.5269 O   0  0  0  0  0  0  0  0  0  0  0  0
    2.4619   -0.3668    0.5264 O   0  0  0  0  0  0  0  0  0  0  0  0
    3.1495    0.6759   -1.7085 C   0  0  0  0  0  0  0  0  0  0  0  0
    3.9135    1.6423   -2.3593 C   0  0  0  0  0  0  0  0  0  0  0  0
    4.2632    1.4689   -3.6694 C   0  0  0  0  0  0  0  0  0  0  0  0
    3.8300    0.3010   -4.3199 C   0  0  0  0  0  0  0  0  0  0  0  0
    3.0567   -0.6374   -3.5957 C   0  0  0  0  0  0  0  0  0  0  0  0
    2.7524   -0.4151   -2.3206 N   0  0  0  0  0  0  0  0  0  0  0  0
    2.6200   -1.8441   -4.2997 C   0  0  0  0  0  0  0  0  0  0  0  0
    2.9763   -1.9808   -5.5690 N   0  0  0  0  0  0  0  0  0  0  0  0
    3.7054   -1.0568   -6.1869 C   0  0  0  0  0  0  0  0  0  0  0  0
    4.0413   -1.2642   -7.5127 N   0  0  0  0  0  0  0  0  0  0  0  0
    1.8634   -2.8057   -3.6642 N   0  0  0  0  0  0  0  0  0  0  0  0
   -1.8231    5.5761    0.9401 H   0  0  0  0  0  0  0  0  0  0  0  0
   -1.8402    5.5857   -0.8397 H   0  0  0  0  0  0  0  0  0  0  0  0
   -3.3717    5.6465    0.0653 H   0  0  0  0  0  0  0  0  0  0  0  0
   -0.0522    4.9266    0.0296 H   0  0  0  0  0  0  0  0  0  0  0  0
    2.0898    3.7148    0.0021 H   0  0  0  0  0  0  0  0  0  0  0  0
    0.0021   -0.0041    0.0020 H   0  0  0  0  0  0  0  0  0  0  0  0
   -1.7584   -0.7024    0.8965 H   0  0  0  0  0  0  0  0  0  0  0  0
   -3.3009   -0.7971    0.0132 H   0  0  0  0  0  0  0  0  0  0  0  0
   -1.7668   -0.6926   -0.8834 H   0  0  0  0  0  0  0  0  0  0  0  0
    4.2292    2.5285   -1.8289 H   0  0  0  0  0  0  0  0  0  0  0  0
    4.8552    2.2077   -4.1891 H   0  0  0  0  0  0  0  0  0  0  0  0
    3.7457   -2.0681   -7.9678 H   0  0  0  0  0  0  0  0  0  0  0  0
    4.5725   -0.6057   -7.9871 H   0  0  0  0  0  0  0  0  0  0  0  0
    1.6116   -2.6887   -2.7348 H   0  0  0  0  0  0  0  0  0  0  0  0
    1.5829   -3.5992   -4.1466 H   0  0  0  0  0  0  0  0  0  0  0  0
    4.1657    0.0956   -5.6401 N   0  3  0  0  0  0  0  0  0  0  0  0
    4.7139    0.7749   -6.1281 H   0  0  0  0  0  0  0  0  0  0  0  0
  1  2  1  0  0  0  0
  1 25  1  0  0  0  0
  1 26  1  0  0  0  0
  1 27  1  0  0  0  0
  2  3  1  0  0  0  0
  3  8  2  0  0  0  0
  3  4  1  0  0  0  0
  4  5  2  0  0  0  0
  4 28  1  0  0  0  0
  5  6  1  0  0  0  0
  5 29  1  0  0  0  0
  6  7  2  0  0  0  0
  6 11  1  0  0  0  0
  7  8  1  0  0  0  0
  7 30  1  0  0  0  0
  8  9  1  0  0  0  0
  9 10  1  0  0  0  0
 10 31  1  0  0  0  0
 10 32  1  0  0  0  0
 10 33  1  0  0  0  0
 11 12  2  0  0  0  0
 11 13  2  0  0  0  0
 11 14  1  0  0  0  0
 14 19  2  0  0  0  0
 14 15  1  0  0  0  0
 15 16  2  0  0  0  0
 15 34  1  0  0  0  0
 16 17  1  0  0  0  0
 16 35  1  0  0  0  0
 17 18  2  0  0  0  0
 17 40  1  0  0  0  0
 18 19  1  0  0  0  0
 18 20  1  0  0  0  0
 20 21  2  0  0  0  0
 20 24  1  0  0  0  0
 21 22  1  0  0  0  0
 22 23  1  0  0  0  0
 22 40  2  0  0  0  0
 23 36  1  0  0  0  0
 23 37  1  0  0  0  0
 24 38  1  0  0  0  0
 24 39  1  0  0  0  0
 40 41  1  0  0  0  0
M  CHG  1  40   1
M  END
$$$$
ZINC03814945
  -OEChem-08230709403D

 37 39  0     0  0  0  0  0  0999 V2000
   -0.0700   -0.0033    0.6150 C   0  0  0  0  0  0  0  0  0  0  0  0
   -0.0875    1.5035    0.5983 C   0  0  0  0  0  0  0  0  0  0  0  0
   -1.2454    2.1982    0.8324 C   0  0  0  0  0  0  0  0  0  0  0  0
   -1.2346    3.5874    0.8144 C   0  0  0  0  0  0  0  0  0  0  0  0
   -0.1370    4.2679    0.5695 N   0  0  0  0  0  0  0  0  0  0  0  0
    1.0200    3.6503    0.3300 C   0  0  0  0  0  0  0  0  0  0  0  0
    1.0769    2.2347    0.3375 C   0  0  0  0  0  0  0  0  0  0  0  0
    2.3199    1.6054    0.0792 C   0  0  0  0  0  0  0  0  0  0  0  0
    3.3743    2.3726   -0.1580 N   0  0  0  0  0  0  0  0  0  0  0  0
    3.2781    3.6991   -0.1557 C   0  0  0  0  0  0  0  0  0  0  0  0
    2.1452    4.3344    0.0784 N   0  0  0  0  0  0  0  0  0  0  0  0
    4.4134    4.4445   -0.4100 N   0  0  0  0  0  0  0  0  0  0  0  0
    2.4294    0.2322    0.0742 N   0  0  0  0  0  0  0  0  0  0  0  0
   -2.5273    1.4568    1.1120 C   0  0  0  0  0  0  0  0  0  0  0  0
   -2.5467    1.0258    2.5121 N   0  0  0  0  0  0  0  0  0  0  0  0
   -3.6421    0.3146    3.0090 C   0  0  0  0  0  0  0  0  0  0  0  0
   -4.7159    0.0206    2.1780 C   0  0  0  0  0  0  0  0  0  0  0  0
   -5.7947   -0.6878    2.6695 C   0  0  0  0  0  0  0  0  0  0  0  0
   -5.8126   -1.0947    3.9920 C   0  0  0  0  0  0  0  0  0  0  0  0
   -4.7467   -0.7980    4.8247 C   0  0  0  0  0  0  0  0  0  0  0  0
   -3.6617   -0.0946    4.3358 C   0  0  0  0  0  0  0  0  0  0  0  0
   -4.7727   -1.3102    6.4832 Cl  0  0  0  0  0  0  0  0  0  0  0  0
   -7.1734   -1.9792    4.6081 Cl  0  0  0  0  0  0  0  0  0  0  0  0
    0.2751   -0.3519    1.5884 H   0  0  0  0  0  0  0  0  0  0  0  0
   -1.0758   -0.3804    0.4297 H   0  0  0  0  0  0  0  0  0  0  0  0
    0.6032   -0.3675   -0.1610 H   0  0  0  0  0  0  0  0  0  0  0  0
   -2.1534    4.1226    1.0036 H   0  0  0  0  0  0  0  0  0  0  0  0
    5.2570    3.9988   -0.5850 H   0  0  0  0  0  0  0  0  0  0  0  0
    4.3668    5.4133   -0.4134 H   0  0  0  0  0  0  0  0  0  0  0  0
    2.9687   -0.2089   -0.6007 H   0  0  0  0  0  0  0  0  0  0  0  0
    1.9673   -0.2936    0.7456 H   0  0  0  0  0  0  0  0  0  0  0  0
   -3.3760    2.1140    0.9224 H   0  0  0  0  0  0  0  0  0  0  0  0
   -2.5914    0.5840    0.4622 H   0  0  0  0  0  0  0  0  0  0  0  0
   -1.7992    1.2340    3.0941 H   0  0  0  0  0  0  0  0  0  0  0  0
   -4.7048    0.3416    1.1469 H   0  0  0  0  0  0  0  0  0  0  0  0
   -6.6273   -0.9205    2.0222 H   0  0  0  0  0  0  0  0  0  0  0  0
   -2.8304    0.1369    4.9853 H   0  0  0  0  0  0  0  0  0  0  0  0
  1  2  1  0  0  0  0
  1 24  1  0  0  0  0
  1 25  1  0  0  0  0
  1 26  1  0  0  0  0
  2  7  2  0  0  0  0
  2  3  1  0  0  0  0
  3  4  2  0  0  0  0
  3 14  1  0  0  0  0
  4  5  1  0  0  0  0
  4 27  1  0  0  0  0
  5  6  2  0  0  0  0
  6 11  1  0  0  0  0
  6  7  1  0  0  0  0
  7  8  1  0  0  0  0
  8  9  2  0  0  0  0
  8 13  1  0  0  0  0
  9 10  1  0  0  0  0
 10 11  2  0  0  0  0
 10 12  1  0  0  0  0
 12 28  1  0  0  0  0
 12 29  1  0  0  0  0
 13 30  1  0  0  0  0
 13 31  1  0  0  0  0
 14 15  1  0  0  0  0
 14 32  1  0  0  0  0
 14 33  1  0  0  0  0
 15 16  1  0  0  0  0
 15 34  1  0  0  0  0
 16 21  2  0  0  0  0
 16 17  1  0  0  0  0
 17 18  2  0  0  0  0
 17 35  1  0  0  0  0
 18 19  1  0  0  0  0
 18 36  1  0  0  0  0
 19 20  2  0  0  0  0
 19 23  1  0  0  0  0
 20 21  1  0  0  0  0
 20 22  1  0  0  0  0
 21 37  1  0  0  0  0
M  END
$$$$
ZINC03814945
  -OEChem-08230709403D

 38 40  0     0  0  0  0  0  0999 V2000
   -0.0700   -0.0033    0.6150 C   0  0  0  0  0  0  0  0  0  0  0  0
   -0.0875    1.5035    0.5983 C   0  0  0  0  0  0  0  0  0  0  0  0
   -1.2454    2.1982    0.8324 C   0  0  0  0  0  0  0  0  0  0  0  0
   -1.2346    3.5874    0.8144 C   0  0  0  0  0  0  0  0  0  0  0  0
   -0.1370    4.2679    0.5695 N   0  0  0  0  0  0  0  0  0  0  0  0
    1.0200    3.6503    0.3300 C   0  0  0  0  0  0  0  0  0  0  0  0
    1.0769    2.2347    0.3375 C   0  0  0  0  0  0  0  0  0  0  0  0
    2.3199    1.6054    0.0792 C   0  0  0  0  0  0  0  0  0  0  0  0
    3.3743    2.3726   -0.1580 N   0  0  0  0  0  0  0  0  0  0  0  0
    3.2781    3.6991   -0.1557 C   0  0  0  0  0  0  0  0  0  0  0  0
    4.4134    4.4445   -0.4100 N   0  0  0  0  0  0  0  0  0  0  0  0
    2.4294    0.2322    0.0742 N   0  0  0  0  0  0  0  0  0  0  0  0
   -2.5273    1.4568    1.1120 C   0  0  0  0  0  0  0  0  0  0  0  0
   -2.5467    1.0258    2.5121 N   0  0  0  0  0  0  0  0  0  0  0  0
   -3.6421    0.3146    3.0090 C   0  0  0  0  0  0  0  0  0  0  0  0
   -4.7159    0.0206    2.1780 C   0  0  0  0  0  0  0  0  0  0  0  0
   -5.7947   -0.6878    2.6695 C   0  0  0  0  0  0  0  0  0  0  0  0
   -5.8126   -1.0947    3.9920 C   0  0  0  0  0  0  0  0  0  0  0  0
   -4.7467   -0.7980    4.8247 C   0  0  0  0  0  0  0  0  0  0  0  0
   -3.6617   -0.0946    4.3358 C   0  0  0  0  0  0  0  0  0  0  0  0
   -4.7727   -1.3102    6.4832 Cl  0  0  0  0  0  0  0  0  0  0  0  0
   -7.1734   -1.9792    4.6081 Cl  0  0  0  0  0  0  0  0  0  0  0  0
    0.2751   -0.3519    1.5884 H   0  0  0  0  0  0  0  0  0  0  0  0
   -1.0758   -0.3804    0.4297 H   0  0  0  0  0  0  0  0  0  0  0  0
    0.6032   -0.3675   -0.1610 H   0  0  0  0  0  0  0  0  0  0  0  0
   -2.1534    4.1226    1.0036 H   0  0  0  0  0  0  0  0  0  0  0  0
    5.2570    3.9988   -0.5850 H   0  0  0  0  0  0  0  0  0  0  0  0
    4.3668    5.4133   -0.4134 H   0  0  0  0  0  0  0  0  0  0  0  0
    2.9687   -0.2089   -0.6007 H   0  0  0  0  0  0  0  0  0  0  0  0
    1.9673   -0.2936    0.7456 H   0  0  0  0  0  0  0  0  0  0  0  0
   -3.3760    2.1140    0.9224 H   0  0  0  0  0  0  0  0  0  0  0  0
   -2.5914    0.5840    0.4622 H   0  0  0  0  0  0  0  0  0  0  0  0
   -1.7992    1.2340    3.0941 H   0  0  0  0  0  0  0  0  0  0  0  0
   -4.7048    0.3416    1.1469 H   0  0  0  0  0  0  0  0  0  0  0  0
   -6.6273   -0.9205    2.0222 H   0  0  0  0  0  0  0  0  0  0  0  0
   -2.8304    0.1369    4.9853 H   0  0  0  0  0  0  0  0  0  0  0  0
    2.1441    4.4066    0.0776 N   0  3  0  0  0  0  0  0  0  0  0  0
    2.1655    5.4062    0.0585 H   0  0  0  0  0  0  0  0  0  0  0  0
  1  2  1  0  0  0  0
  1 23  1  0  0  0  0
  1 24  1  0  0  0  0
  1 25  1  0  0  0  0
  2  7  2  0  0  0  0
  2  3  1  0  0  0  0
  3  4  2  0  0  0  0
  3 13  1  0  0  0  0
  4  5  1  0  0  0  0
  4 26  1  0  0  0  0
  5  6  2  0  0  0  0
  6  7  1  0  0  0  0
  6 37  1  0  0  0  0
  7  8  1  0  0  0  0
  8  9  2  0  0  0  0
  8 12  1  0  0  0  0
  9 10  1  0  0  0  0
 10 11  1  0  0  0  0
 10 37  2  0  0  0  0
 11 27  1  0  0  0  0
 11 28  1  0  0  0  0
 12 29  1  0  0  0  0
 12 30  1  0  0  0  0
 13 14  1  0  0  0  0
 13 31  1  0  0  0  0
 13 32  1  0  0  0  0
 14 15  1  0  0  0  0
 14 33  1  0  0  0  0
 15 20  2  0  0  0  0
 15 16  1  0  0  0  0
 16 17  2  0  0  0  0
 16 34  1  0  0  0  0
 17 18  1  0  0  0  0
 17 35  1  0  0  0  0
 18 19  2  0  0  0  0
 18 22  1  0  0  0  0
 19 20  1  0  0  0  0
 19 21  1  0  0  0  0
 20 36  1  0  0  0  0
 37 38  1  0  0  0  0
M  CHG  1  37   1
M  END
$$$$
ZINC03814946
  -OEChem-08230709403D

 51 53  0     0  0  0  0  0  0999 V2000
    1.2329    3.6559    0.2102 C   0  0  0  0  0  0  0  0  0  0  0  0
    2.1769    2.4825    0.1572 C   0  0  0  0  0  0  0  0  0  0  0  0
    1.8357    1.2769    0.7125 C   0  0  0  0  0  0  0  0  0  0  0  0
    2.7215    0.2087    0.6453 C   0  0  0  0  0  0  0  0  0  0  0  0
    3.8927    0.3165    0.0582 N   0  0  0  0  0  0  0  0  0  0  0  0
    4.2827    1.4624   -0.5006 C   0  0  0  0  0  0  0  0  0  0  0  0
    3.4255    2.5899   -0.4658 C   0  0  0  0  0  0  0  0  0  0  0  0
    3.8658    3.7945   -1.0680 C   0  0  0  0  0  0  0  0  0  0  0  0
    5.0628    3.8104   -1.6372 N   0  0  0  0  0  0  0  0  0  0  0  0
    5.8371    2.7293   -1.6477 C   0  0  0  0  0  0  0  0  0  0  0  0
    5.4746    1.5834   -1.1023 N   0  0  0  0  0  0  0  0  0  0  0  0
    7.0748    2.8088   -2.2568 N   0  0  0  0  0  0  0  0  0  0  0  0
    3.0710    4.9196   -1.0618 N   0  0  0  0  0  0  0  0  0  0  0  0
    0.5021    1.1101    1.3943 C   0  0  0  0  0  0  0  0  0  0  0  0
   -0.5207    0.7913    0.3951 N   0  0  0  0  0  0  0  0  0  0  0  0
   -0.6839   -0.4805   -0.0201 C   0  0  0  0  0  0  0  0  0  0  0  0
   -1.5825   -0.7577   -0.7862 O   0  0  0  0  0  0  0  0  0  0  0  0
   -1.3290    1.8084   -0.1289 C   0  0  0  0  0  0  0  0  0  0  0  0
   -2.2757    2.4264    0.6767 C   0  0  0  0  0  0  0  0  0  0  0  0
   -3.0726    3.4361    0.1604 C   0  0  0  0  0  0  0  0  0  0  0  0
   -2.9310    3.8225   -1.1671 C   0  0  0  0  0  0  0  0  0  0  0  0
   -1.9866    3.1995   -1.9743 C   0  0  0  0  0  0  0  0  0  0  0  0
   -1.1869    2.1936   -1.4549 C   0  0  0  0  0  0  0  0  0  0  0  0
   -1.8474    3.5765   -3.2735 O   0  0  0  0  0  0  0  0  0  0  0  0
   -0.8575    2.8931   -4.0449 C   0  0  0  0  0  0  0  0  0  0  0  0
   -3.7167    4.8110   -1.6763 O   0  0  0  0  0  0  0  0  0  0  0  0
   -4.9577    4.4154   -2.2641 C   0  0  0  0  0  0  0  0  0  0  0  0
   -3.9963    4.0450    0.9512 O   0  0  0  0  0  0  0  0  0  0  0  0
   -4.0198    3.6683    2.3295 C   0  0  0  0  0  0  0  0  0  0  0  0
    1.5223    4.3185    1.0259 H   0  0  0  0  0  0  0  0  0  0  0  0
    1.2766    4.2003   -0.7331 H   0  0  0  0  0  0  0  0  0  0  0  0
    0.2169    3.2977    0.3762 H   0  0  0  0  0  0  0  0  0  0  0  0
    2.4402   -0.7358    1.0870 H   0  0  0  0  0  0  0  0  0  0  0  0
    7.3620    3.6407   -2.6648 H   0  0  0  0  0  0  0  0  0  0  0  0
    7.6565    2.0328   -2.2765 H   0  0  0  0  0  0  0  0  0  0  0  0
    2.5350    5.1304   -0.2814 H   0  0  0  0  0  0  0  0  0  0  0  0
    3.0475    5.5010   -1.8379 H   0  0  0  0  0  0  0  0  0  0  0  0
    0.5645    0.3005    2.1214 H   0  0  0  0  0  0  0  0  0  0  0  0
    0.2362    2.0363    1.9038 H   0  0  0  0  0  0  0  0  0  0  0  0
   -0.0146   -1.2527    0.3294 H   0  0  0  0  0  0  0  0  0  0  0  0
   -2.3884    2.1232    1.7071 H   0  0  0  0  0  0  0  0  0  0  0  0
   -0.4527    1.7097   -2.0819 H   0  0  0  0  0  0  0  0  0  0  0  0
   -0.8505    3.2894   -5.0602 H   0  0  0  0  0  0  0  0  0  0  0  0
    0.1224    3.0402   -3.5907 H   0  0  0  0  0  0  0  0  0  0  0  0
   -1.0892    1.8283   -4.0720 H   0  0  0  0  0  0  0  0  0  0  0  0
   -4.7661    3.7363   -3.0949 H   0  0  0  0  0  0  0  0  0  0  0  0
   -5.5695    3.9111   -1.5162 H   0  0  0  0  0  0  0  0  0  0  0  0
   -5.4840    5.2972   -2.6296 H   0  0  0  0  0  0  0  0  0  0  0  0
   -4.1566    2.5899    2.4091 H   0  0  0  0  0  0  0  0  0  0  0  0
   -3.0778    3.9507    2.7994 H   0  0  0  0  0  0  0  0  0  0  0  0
   -4.8430    4.1770    2.8312 H   0  0  0  0  0  0  0  0  0  0  0  0
  1  2  1  0  0  0  0
  1 30  1  0  0  0  0
  1 31  1  0  0  0  0
  1 32  1  0  0  0  0
  2  7  2  0  0  0  0
  2  3  1  0  0  0  0
  3  4  2  0  0  0  0
  3 14  1  0  0  0  0
  4  5  1  0  0  0  0
  4 33  1  0  0  0  0
  5  6  2  0  0  0  0
  6 11  1  0  0  0  0
  6  7  1  0  0  0  0
  7  8  1  0  0  0  0
  8  9  2  0  0  0  0
  8 13  1  0  0  0  0
  9 10  1  0  0  0  0
 10 11  2  0  0  0  0
 10 12  1  0  0  0  0
 12 34  1  0  0  0  0
 12 35  1  0  0  0  0
 13 36  1  0  0  0  0
 13 37  1  0  0  0  0
 14 15  1  0  0  0  0
 14 38  1  0  0  0  0
 14 39  1  0  0  0  0
 15 16  1  0  0  0  0
 15 18  1  0  0  0  0
 16 17  2  0  0  0  0
 16 40  1  0  0  0  0
 18 23  2  0  0  0  0
 18 19  1  0  0  0  0
 19 20  2  0  0  0  0
 19 41  1  0  0  0  0
 20 21  1  0  0  0  0
 20 28  1  0  0  0  0
 21 22  2  0  0  0  0
 21 26  1  0  0  0  0
 22 23  1  0  0  0  0
 22 24  1  0  0  0  0
 23 42  1  0  0  0  0
 24 25  1  0  0  0  0
 25 43  1  0  0  0  0
 25 44  1  0  0  0  0
 25 45  1  0  0  0  0
 26 27  1  0  0  0  0
 27 46  1  0  0  0  0
 27 47  1  0  0  0  0
 27 48  1  0  0  0  0
 28 29  1  0  0  0  0
 29 49  1  0  0  0  0
 29 50  1  0  0  0  0
 29 51  1  0  0  0  0
M  END
$$$$
ZINC03814946
  -OEChem-08230709403D

 52 54  0     0  0  0  0  0  0999 V2000
    1.2329    3.6559    0.2102 C   0  0  0  0  0  0  0  0  0  0  0  0
    2.1769    2.4825    0.1572 C   0  0  0  0  0  0  0  0  0  0  0  0
    1.8357    1.2769    0.7125 C   0  0  0  0  0  0  0  0  0  0  0  0
    2.7215    0.2087    0.6453 C   0  0  0  0  0  0  0  0  0  0  0  0
    3.8927    0.3165    0.0582 N   0  0  0  0  0  0  0  0  0  0  0  0
    4.2827    1.4624   -0.5006 C   0  0  0  0  0  0  0  0  0  0  0  0
    3.4255    2.5899   -0.4658 C   0  0  0  0  0  0  0  0  0  0  0  0
    3.8658    3.7945   -1.0680 C   0  0  0  0  0  0  0  0  0  0  0  0
    5.0628    3.8104   -1.6372 N   0  0  0  0  0  0  0  0  0  0  0  0
    5.8371    2.7293   -1.6477 C   0  0  0  0  0  0  0  0  0  0  0  0
    7.0748    2.8088   -2.2568 N   0  0  0  0  0  0  0  0  0  0  0  0
    3.0710    4.9196   -1.0618 N   0  0  0  0  0  0  0  0  0  0  0  0
    0.5021    1.1101    1.3943 C   0  0  0  0  0  0  0  0  0  0  0  0
   -0.5207    0.7913    0.3951 N   0  0  0  0  0  0  0  0  0  0  0  0
   -0.6839   -0.4805   -0.0201 C   0  0  0  0  0  0  0  0  0  0  0  0
   -1.5825   -0.7577   -0.7862 O   0  0  0  0  0  0  0  0  0  0  0  0
   -1.3290    1.8084   -0.1289 C   0  0  0  0  0  0  0  0  0  0  0  0
   -2.2757    2.4264    0.6767 C   0  0  0  0  0  0  0  0  0  0  0  0
   -3.0726    3.4361    0.1604 C   0  0  0  0  0  0  0  0  0  0  0  0
   -2.9310    3.8225   -1.1671 C   0  0  0  0  0  0  0  0  0  0  0  0
   -1.9866    3.1995   -1.9743 C   0  0  0  0  0  0  0  0  0  0  0  0
   -1.1869    2.1936   -1.4549 C   0  0  0  0  0  0  0  0  0  0  0  0
   -1.8474    3.5765   -3.2735 O   0  0  0  0  0  0  0  0  0  0  0  0
   -0.8575    2.8931   -4.0449 C   0  0  0  0  0  0  0  0  0  0  0  0
   -3.7167    4.8110   -1.6763 O   0  0  0  0  0  0  0  0  0  0  0  0
   -4.9577    4.4154   -2.2641 C   0  0  0  0  0  0  0  0  0  0  0  0
   -3.9963    4.0450    0.9512 O   0  0  0  0  0  0  0  0  0  0  0  0
   -4.0198    3.6683    2.3295 C   0  0  0  0  0  0  0  0  0  0  0  0
    1.5223    4.3185    1.0259 H   0  0  0  0  0  0  0  0  0  0  0  0
    1.2766    4.2003   -0.7331 H   0  0  0  0  0  0  0  0  0  0  0  0
    0.2169    3.2977    0.3762 H   0  0  0  0  0  0  0  0  0  0  0  0
    2.4402   -0.7358    1.0870 H   0  0  0  0  0  0  0  0  0  0  0  0
    7.3620    3.6407   -2.6648 H   0  0  0  0  0  0  0  0  0  0  0  0
    7.6565    2.0328   -2.2765 H   0  0  0  0  0  0  0  0  0  0  0  0
    2.5350    5.1304   -0.2814 H   0  0  0  0  0  0  0  0  0  0  0  0
    3.0475    5.5010   -1.8379 H   0  0  0  0  0  0  0  0  0  0  0  0
    0.5645    0.3005    2.1214 H   0  0  0  0  0  0  0  0  0  0  0  0
    0.2362    2.0363    1.9038 H   0  0  0  0  0  0  0  0  0  0  0  0
   -0.0146   -1.2527    0.3294 H   0  0  0  0  0  0  0  0  0  0  0  0
   -2.3884    2.1232    1.7071 H   0  0  0  0  0  0  0  0  0  0  0  0
   -0.4527    1.7097   -2.0819 H   0  0  0  0  0  0  0  0  0  0  0  0
   -0.8505    3.2894   -5.0602 H   0  0  0  0  0  0  0  0  0  0  0  0
    0.1224    3.0402   -3.5907 H   0  0  0  0  0  0  0  0  0  0  0  0
   -1.0892    1.8283   -4.0720 H   0  0  0  0  0  0  0  0  0  0  0  0
   -4.7661    3.7363   -3.0949 H   0  0  0  0  0  0  0  0  0  0  0  0
   -5.5695    3.9111   -1.5162 H   0  0  0  0  0  0  0  0  0  0  0  0
   -5.4840    5.2972   -2.6296 H   0  0  0  0  0  0  0  0  0  0  0  0
   -4.1566    2.5899    2.4091 H   0  0  0  0  0  0  0  0  0  0  0  0
   -3.0778    3.9507    2.7994 H   0  0  0  0  0  0  0  0  0  0  0  0
   -4.8430    4.1770    2.8312 H   0  0  0  0  0  0  0  0  0  0  0  0
    5.5195    1.5270   -1.1050 N   0  3  0  0  0  0  0  0  0  0  0  0
    6.1662    0.7664   -1.1615 H   0  0  0  0  0  0  0  0  0  0  0  0
  1  2  1  0  0  0  0
  1 29  1  0  0  0  0
  1 30  1  0  0  0  0
  1 31  1  0  0  0  0
  2  7  2  0  0  0  0
  2  3  1  0  0  0  0
  3  4  2  0  0  0  0
  3 13  1  0  0  0  0
  4  5  1  0  0  0  0
  4 32  1  0  0  0  0
  5  6  2  0  0  0  0
  6  7  1  0  0  0  0
  6 51  1  0  0  0  0
  7  8  1  0  0  0  0
  8  9  2  0  0  0  0
  8 12  1  0  0  0  0
  9 10  1  0  0  0  0
 10 11  1  0  0  0  0
 10 51  2  0  0  0  0
 11 33  1  0  0  0  0
 11 34  1  0  0  0  0
 12 35  1  0  0  0  0
 12 36  1  0  0  0  0
 13 14  1  0  0  0  0
 13 37  1  0  0  0  0
 13 38  1  0  0  0  0
 14 15  1  0  0  0  0
 14 17  1  0  0  0  0
 15 16  2  0  0  0  0
 15 39  1  0  0  0  0
 17 22  2  0  0  0  0
 17 18  1  0  0  0  0
 18 19  2  0  0  0  0
 18 40  1  0  0  0  0
 19 20  1  0  0  0  0
 19 27  1  0  0  0  0
 20 21  2  0  0  0  0
 20 25  1  0  0  0  0
 21 22  1  0  0  0  0
 21 23  1  0  0  0  0
 22 41  1  0  0  0  0
 23 24  1  0  0  0  0
 24 42  1  0  0  0  0
 24 43  1  0  0  0  0
 24 44  1  0  0  0  0
 25 26  1  0  0  0  0
 26 45  1  0  0  0  0
 26 46  1  0  0  0  0
 26 47  1  0  0  0  0
 27 28  1  0  0  0  0
 28 48  1  0  0  0  0
 28 49  1  0  0  0  0
 28 50  1  0  0  0  0
 51 52  1  0  0  0  0
M  CHG  1  51   1
M  END
$$$$
ZINC03814947
  -OEChem-08230709403D

 39 41  0     0  0  0  0  0  0999 V2000
    0.8208    0.0470    0.4190 C   0  0  0  0  0  0  0  0  0  0  0  0
    0.9340    1.5495    0.3972 C   0  0  0  0  0  0  0  0  0  0  0  0
   -0.1635    2.3429    0.6075 C   0  0  0  0  0  0  0  0  0  0  0  0
   -0.0322    3.7258    0.5852 C   0  0  0  0  0  0  0  0  0  0  0  0
    1.1245    4.3077    0.3586 N   0  0  0  0  0  0  0  0  0  0  0  0
    2.2279    3.5913    0.1426 C   0  0  0  0  0  0  0  0  0  0  0  0
    2.1619    2.1760    0.1556 C   0  0  0  0  0  0  0  0  0  0  0  0
    3.3503    1.4404   -0.0776 C   0  0  0  0  0  0  0  0  0  0  0  0
    4.4713    2.1125   -0.2976 N   0  0  0  0  0  0  0  0  0  0  0  0
    4.4901    3.4423   -0.3014 C   0  0  0  0  0  0  0  0  0  0  0  0
    3.4124    4.1743   -0.0903 N   0  0  0  0  0  0  0  0  0  0  0  0
    5.6902    4.0855   -0.5369 N   0  0  0  0  0  0  0  0  0  0  0  0
    3.3407    0.0629   -0.0761 N   0  0  0  0  0  0  0  0  0  0  0  0
   -1.5096    1.7164    0.8657 C   0  0  0  0  0  0  0  0  0  0  0  0
   -1.5917    1.2953    2.2665 N   0  0  0  0  0  0  0  0  0  0  0  0
   -1.1983    0.0562    2.6219 C   0  0  0  0  0  0  0  0  0  0  0  0
   -1.1835   -0.2631    3.7919 O   0  0  0  0  0  0  0  0  0  0  0  0
   -2.0787    2.1799    3.2358 C   0  0  0  0  0  0  0  0  0  0  0  0
   -3.4096    2.5762    3.2098 C   0  0  0  0  0  0  0  0  0  0  0  0
   -3.8899    3.4438    4.1709 C   0  0  0  0  0  0  0  0  0  0  0  0
   -3.0434    3.9289    5.1523 C   0  0  0  0  0  0  0  0  0  0  0  0
   -1.7144    3.5406    5.1772 C   0  0  0  0  0  0  0  0  0  0  0  0
   -1.2307    2.6671    4.2211 C   0  0  0  0  0  0  0  0  0  0  0  0
   -0.6553    4.1506    6.4101 Cl  0  0  0  0  0  0  0  0  0  0  0  0
   -3.6486    5.0255    6.3543 Cl  0  0  0  0  0  0  0  0  0  0  0  0
    1.1086   -0.3248    1.4024 H   0  0  0  0  0  0  0  0  0  0  0  0
   -0.2085   -0.2430    0.2079 H   0  0  0  0  0  0  0  0  0  0  0  0
    1.4805   -0.3782   -0.3374 H   0  0  0  0  0  0  0  0  0  0  0  0
   -0.9044    4.3393    0.7564 H   0  0  0  0  0  0  0  0  0  0  0  0
    6.4951    3.5678   -0.6948 H   0  0  0  0  0  0  0  0  0  0  0  0
    5.7277    5.0548   -0.5443 H   0  0  0  0  0  0  0  0  0  0  0  0
    3.8508   -0.4264   -0.7404 H   0  0  0  0  0  0  0  0  0  0  0  0
    2.8238   -0.4178    0.5892 H   0  0  0  0  0  0  0  0  0  0  0  0
   -2.2946    2.4436    0.6583 H   0  0  0  0  0  0  0  0  0  0  0  0
   -1.6371    0.8493    0.2176 H   0  0  0  0  0  0  0  0  0  0  0  0
   -0.8963   -0.6524    1.8649 H   0  0  0  0  0  0  0  0  0  0  0  0
   -4.0698    2.2022    2.4412 H   0  0  0  0  0  0  0  0  0  0  0  0
   -4.9260    3.7481    4.1536 H   0  0  0  0  0  0  0  0  0  0  0  0
   -0.1943    2.3642    4.2406 H   0  0  0  0  0  0  0  0  0  0  0  0
  1  2  1  0  0  0  0
  1 26  1  0  0  0  0
  1 27  1  0  0  0  0
  1 28  1  0  0  0  0
  2  7  2  0  0  0  0
  2  3  1  0  0  0  0
  3  4  2  0  0  0  0
  3 14  1  0  0  0  0
  4  5  1  0  0  0  0
  4 29  1  0  0  0  0
  5  6  2  0  0  0  0
  6 11  1  0  0  0  0
  6  7  1  0  0  0  0
  7  8  1  0  0  0  0
  8  9  2  0  0  0  0
  8 13  1  0  0  0  0
  9 10  1  0  0  0  0
 10 11  2  0  0  0  0
 10 12  1  0  0  0  0
 12 30  1  0  0  0  0
 12 31  1  0  0  0  0
 13 32  1  0  0  0  0
 13 33  1  0  0  0  0
 14 15  1  0  0  0  0
 14 34  1  0  0  0  0
 14 35  1  0  0  0  0
 15 16  1  0  0  0  0
 15 18  1  0  0  0  0
 16 17  2  0  0  0  0
 16 36  1  0  0  0  0
 18 23  2  0  0  0  0
 18 19  1  0  0  0  0
 19 20  2  0  0  0  0
 19 37  1  0  0  0  0
 20 21  1  0  0  0  0
 20 38  1  0  0  0  0
 21 22  2  0  0  0  0
 21 25  1  0  0  0  0
 22 23  1  0  0  0  0
 22 24  1  0  0  0  0
 23 39  1  0  0  0  0
M  END
$$$$
ZINC03814947
  -OEChem-08230709403D

 40 42  0     0  0  0  0  0  0999 V2000
    0.8208    0.0470    0.4190 C   0  0  0  0  0  0  0  0  0  0  0  0
    0.9340    1.5495    0.3972 C   0  0  0  0  0  0  0  0  0  0  0  0
   -0.1635    2.3429    0.6075 C   0  0  0  0  0  0  0  0  0  0  0  0
   -0.0322    3.7258    0.5852 C   0  0  0  0  0  0  0  0  0  0  0  0
    1.1245    4.3077    0.3586 N   0  0  0  0  0  0  0  0  0  0  0  0
    2.2279    3.5913    0.1426 C   0  0  0  0  0  0  0  0  0  0  0  0
    2.1619    2.1760    0.1556 C   0  0  0  0  0  0  0  0  0  0  0  0
    3.3503    1.4404   -0.0776 C   0  0  0  0  0  0  0  0  0  0  0  0
    4.4713    2.1125   -0.2976 N   0  0  0  0  0  0  0  0  0  0  0  0
    4.4901    3.4423   -0.3014 C   0  0  0  0  0  0  0  0  0  0  0  0
    5.6902    4.0855   -0.5369 N   0  0  0  0  0  0  0  0  0  0  0  0
    3.3407    0.0629   -0.0761 N   0  0  0  0  0  0  0  0  0  0  0  0
   -1.5096    1.7164    0.8657 C   0  0  0  0  0  0  0  0  0  0  0  0
   -1.5917    1.2953    2.2665 N   0  0  0  0  0  0  0  0  0  0  0  0
   -1.1983    0.0562    2.6219 C   0  0  0  0  0  0  0  0  0  0  0  0
   -1.1835   -0.2631    3.7919 O   0  0  0  0  0  0  0  0  0  0  0  0
   -2.0787    2.1799    3.2358 C   0  0  0  0  0  0  0  0  0  0  0  0
   -3.4096    2.5762    3.2098 C   0  0  0  0  0  0  0  0  0  0  0  0
   -3.8899    3.4438    4.1709 C   0  0  0  0  0  0  0  0  0  0  0  0
   -3.0434    3.9289    5.1523 C   0  0  0  0  0  0  0  0  0  0  0  0
   -1.7144    3.5406    5.1772 C   0  0  0  0  0  0  0  0  0  0  0  0
   -1.2307    2.6671    4.2211 C   0  0  0  0  0  0  0  0  0  0  0  0
   -0.6553    4.1506    6.4101 Cl  0  0  0  0  0  0  0  0  0  0  0  0
   -3.6486    5.0255    6.3543 Cl  0  0  0  0  0  0  0  0  0  0  0  0
    1.1086   -0.3248    1.4024 H   0  0  0  0  0  0  0  0  0  0  0  0
   -0.2085   -0.2430    0.2079 H   0  0  0  0  0  0  0  0  0  0  0  0
    1.4805   -0.3782   -0.3374 H   0  0  0  0  0  0  0  0  0  0  0  0
   -0.9044    4.3393    0.7564 H   0  0  0  0  0  0  0  0  0  0  0  0
    6.4951    3.5678   -0.6948 H   0  0  0  0  0  0  0  0  0  0  0  0
    5.7277    5.0548   -0.5443 H   0  0  0  0  0  0  0  0  0  0  0  0
    3.8508   -0.4264   -0.7404 H   0  0  0  0  0  0  0  0  0  0  0  0
    2.8238   -0.4178    0.5892 H   0  0  0  0  0  0  0  0  0  0  0  0
   -2.2946    2.4436    0.6583 H   0  0  0  0  0  0  0  0  0  0  0  0
   -1.6371    0.8493    0.2176 H   0  0  0  0  0  0  0  0  0  0  0  0
   -0.8963   -0.6524    1.8649 H   0  0  0  0  0  0  0  0  0  0  0  0
   -4.0698    2.2022    2.4412 H   0  0  0  0  0  0  0  0  0  0  0  0
   -4.9260    3.7481    4.1536 H   0  0  0  0  0  0  0  0  0  0  0  0
   -0.1943    2.3642    4.2406 H   0  0  0  0  0  0  0  0  0  0  0  0
    3.4175    4.2463   -0.0914 N   0  3  0  0  0  0  0  0  0  0  0  0
    3.5258    5.2402   -0.1132 H   0  0  0  0  0  0  0  0  0  0  0  0
  1  2  1  0  0  0  0
  1 25  1  0  0  0  0
  1 26  1  0  0  0  0
  1 27  1  0  0  0  0
  2  7  2  0  0  0  0
  2  3  1  0  0  0  0
  3  4  2  0  0  0  0
  3 13  1  0  0  0  0
  4  5  1  0  0  0  0
  4 28  1  0  0  0  0
  5  6  2  0  0  0  0
  6  7  1  0  0  0  0
  6 39  1  0  0  0  0
  7  8  1  0  0  0  0
  8  9  2  0  0  0  0
  8 12  1  0  0  0  0
  9 10  1  0  0  0  0
 10 11  1  0  0  0  0
 10 39  2  0  0  0  0
 11 29  1  0  0  0  0
 11 30  1  0  0  0  0
 12 31  1  0  0  0  0
 12 32  1  0  0  0  0
 13 14  1  0  0  0  0
 13 33  1  0  0  0  0
 13 34  1  0  0  0  0
 14 15  1  0  0  0  0
 14 17  1  0  0  0  0
 15 16  2  0  0  0  0
 15 35  1  0  0  0  0
 17 22  2  0  0  0  0
 17 18  1  0  0  0  0
 18 19  2  0  0  0  0
 18 36  1  0  0  0  0
 19 20  1  0  0  0  0
 19 37  1  0  0  0  0
 20 21  2  0  0  0  0
 20 24  1  0  0  0  0
 21 22  1  0  0  0  0
 21 23  1  0  0  0  0
 22 38  1  0  0  0  0
 39 40  1  0  0  0  0
M  CHG  1  39   1
M  END
$$$$
ZINC03814948
  -OEChem-08230709403D

 45 47  0     0  0  0  0  0  0999 V2000
    0.6018    1.5059    0.0250 C   0  0  0  0  0  0  0  0  0  0  0  0
    0.5970   -0.0011    0.0161 C   0  0  0  0  0  0  0  0  0  0  0  0
    0.7585   -0.7002   -1.1515 C   0  0  0  0  0  0  0  0  0  0  0  0
    0.7532   -2.0894   -1.1326 C   0  0  0  0  0  0  0  0  0  0  0  0
    0.5888   -2.7658   -0.0176 N   0  0  0  0  0  0  0  0  0  0  0  0
    0.4225   -2.1439    1.1498 C   0  0  0  0  0  0  0  0  0  0  0  0
    0.4215   -0.7279    1.1991 C   0  0  0  0  0  0  0  0  0  0  0  0
    0.2422   -0.0940    2.4535 C   0  0  0  0  0  0  0  0  0  0  0  0
    0.0832   -0.8573    3.5253 N   0  0  0  0  0  0  0  0  0  0  0  0
    0.0905   -2.1842    3.4357 C   0  0  0  0  0  0  0  0  0  0  0  0
    0.2532   -2.8238    2.2928 N   0  0  0  0  0  0  0  0  0  0  0  0
   -0.0802   -2.9254    4.5893 N   0  0  0  0  0  0  0  0  0  0  0  0
    0.2328    1.2797    2.5563 N   0  0  0  0  0  0  0  0  0  0  0  0
    0.9447    0.0365   -2.4530 C   0  0  0  0  0  0  0  0  0  0  0  0
    2.3364    0.4790   -2.5689 N   0  0  0  0  0  0  0  0  0  0  0  0
    2.7529    1.1893   -3.7005 C   0  0  0  0  0  0  0  0  0  0  0  0
    1.8504    1.4701   -4.7157 C   0  0  0  0  0  0  0  0  0  0  0  0
    2.2647    2.1785   -5.8331 C   0  0  0  0  0  0  0  0  0  0  0  0
    3.5828    2.5966   -5.9411 C   0  0  0  0  0  0  0  0  0  0  0  0
    4.4855    2.3133   -4.9327 C   0  0  0  0  0  0  0  0  0  0  0  0
    4.0759    1.6106   -3.8121 C   0  0  0  0  0  0  0  0  0  0  0  0
    4.9654    1.3315   -2.8206 O   0  0  0  0  0  0  0  0  0  0  0  0
    6.3052    1.7942   -3.0018 C   0  0  0  0  0  0  0  0  0  0  0  0
    1.3796    2.4588   -6.8265 O   0  0  0  0  0  0  0  0  0  0  0  0
    1.8760    3.1870   -7.9514 C   0  0  0  0  0  0  0  0  0  0  0  0
    1.5932    1.8644    0.3020 H   0  0  0  0  0  0  0  0  0  0  0  0
    0.3459    1.8759   -0.9678 H   0  0  0  0  0  0  0  0  0  0  0  0
   -0.1301    1.8674    0.7473 H   0  0  0  0  0  0  0  0  0  0  0  0
    0.8854   -2.6280   -2.0594 H   0  0  0  0  0  0  0  0  0  0  0  0
   -0.2018   -2.4766    5.4406 H   0  0  0  0  0  0  0  0  0  0  0  0
   -0.0784   -3.8945    4.5478 H   0  0  0  0  0  0  0  0  0  0  0  0
   -0.4080    1.7182    3.1377 H   0  0  0  0  0  0  0  0  0  0  0  0
    0.8670    1.8085    2.0474 H   0  0  0  0  0  0  0  0  0  0  0  0
    0.7040   -0.6270   -3.2836 H   0  0  0  0  0  0  0  0  0  0  0  0
    0.2845    0.9035   -2.4774 H   0  0  0  0  0  0  0  0  0  0  0  0
    2.9693    0.2796   -1.8613 H   0  0  0  0  0  0  0  0  0  0  0  0
    0.8252    1.1404   -4.6340 H   0  0  0  0  0  0  0  0  0  0  0  0
    3.9048    3.1442   -6.8145 H   0  0  0  0  0  0  0  0  0  0  0  0
    5.5112    2.6401   -5.0195 H   0  0  0  0  0  0  0  0  0  0  0  0
    6.9088    1.5057   -2.1412 H   0  0  0  0  0  0  0  0  0  0  0  0
    6.7241    1.3498   -3.9047 H   0  0  0  0  0  0  0  0  0  0  0  0
    6.3048    2.8800   -3.0977 H   0  0  0  0  0  0  0  0  0  0  0  0
    1.0695    3.3430   -8.6678 H   0  0  0  0  0  0  0  0  0  0  0  0
    2.2588    4.1520   -7.6193 H   0  0  0  0  0  0  0  0  0  0  0  0
    2.6783    2.6213   -8.4250 H   0  0  0  0  0  0  0  0  0  0  0  0
  1  2  1  0  0  0  0
  1 26  1  0  0  0  0
  1 27  1  0  0  0  0
  1 28  1  0  0  0  0
  2  7  2  0  0  0  0
  2  3  1  0  0  0  0
  3  4  2  0  0  0  0
  3 14  1  0  0  0  0
  4  5  1  0  0  0  0
  4 29  1  0  0  0  0
  5  6  2  0  0  0  0
  6 11  1  0  0  0  0
  6  7  1  0  0  0  0
  7  8  1  0  0  0  0
  8  9  2  0  0  0  0
  8 13  1  0  0  0  0
  9 10  1  0  0  0  0
 10 11  2  0  0  0  0
 10 12  1  0  0  0  0
 12 30  1  0  0  0  0
 12 31  1  0  0  0  0
 13 32  1  0  0  0  0
 13 33  1  0  0  0  0
 14 15  1  0  0  0  0
 14 34  1  0  0  0  0
 14 35  1  0  0  0  0
 15 16  1  0  0  0  0
 15 36  1  0  0  0  0
 16 21  2  0  0  0  0
 16 17  1  0  0  0  0
 17 18  2  0  0  0  0
 17 37  1  0  0  0  0
 18 19  1  0  0  0  0
 18 24  1  0  0  0  0
 19 20  2  0  0  0  0
 19 38  1  0  0  0  0
 20 21  1  0  0  0  0
 20 39  1  0  0  0  0
 21 22  1  0  0  0  0
 22 23  1  0  0  0  0
 23 40  1  0  0  0  0
 23 41  1  0  0  0  0
 23 42  1  0  0  0  0
 24 25  1  0  0  0  0
 25 43  1  0  0  0  0
 25 44  1  0  0  0  0
 25 45  1  0  0  0  0
M  END
$$$$
ZINC03814948
  -OEChem-08230709403D

 46 48  0     0  0  0  0  0  0999 V2000
    0.6018    1.5059    0.0250 C   0  0  0  0  0  0  0  0  0  0  0  0
    0.5970   -0.0011    0.0161 C   0  0  0  0  0  0  0  0  0  0  0  0
    0.7585   -0.7002   -1.1515 C   0  0  0  0  0  0  0  0  0  0  0  0
    0.7532   -2.0894   -1.1326 C   0  0  0  0  0  0  0  0  0  0  0  0
    0.5888   -2.7658   -0.0176 N   0  0  0  0  0  0  0  0  0  0  0  0
    0.4225   -2.1439    1.1498 C   0  0  0  0  0  0  0  0  0  0  0  0
    0.4215   -0.7279    1.1991 C   0  0  0  0  0  0  0  0  0  0  0  0
    0.2422   -0.0940    2.4535 C   0  0  0  0  0  0  0  0  0  0  0  0
    0.0832   -0.8573    3.5253 N   0  0  0  0  0  0  0  0  0  0  0  0
    0.0905   -2.1842    3.4357 C   0  0  0  0  0  0  0  0  0  0  0  0
   -0.0802   -2.9254    4.5893 N   0  0  0  0  0  0  0  0  0  0  0  0
    0.2328    1.2797    2.5563 N   0  0  0  0  0  0  0  0  0  0  0  0
    0.9447    0.0365   -2.4530 C   0  0  0  0  0  0  0  0  0  0  0  0
    2.3364    0.4790   -2.5689 N   0  0  0  0  0  0  0  0  0  0  0  0
    2.7529    1.1893   -3.7005 C   0  0  0  0  0  0  0  0  0  0  0  0
    1.8504    1.4701   -4.7157 C   0  0  0  0  0  0  0  0  0  0  0  0
    2.2647    2.1785   -5.8331 C   0  0  0  0  0  0  0  0  0  0  0  0
    3.5828    2.5966   -5.9411 C   0  0  0  0  0  0  0  0  0  0  0  0
    4.4855    2.3133   -4.9327 C   0  0  0  0  0  0  0  0  0  0  0  0
    4.0759    1.6106   -3.8121 C   0  0  0  0  0  0  0  0  0  0  0  0
    4.9654    1.3315   -2.8206 O   0  0  0  0  0  0  0  0  0  0  0  0
    6.3052    1.7942   -3.0018 C   0  0  0  0  0  0  0  0  0  0  0  0
    1.3796    2.4588   -6.8265 O   0  0  0  0  0  0  0  0  0  0  0  0
    1.8760    3.1870   -7.9514 C   0  0  0  0  0  0  0  0  0  0  0  0
    1.5932    1.8644    0.3020 H   0  0  0  0  0  0  0  0  0  0  0  0
    0.3459    1.8759   -0.9678 H   0  0  0  0  0  0  0  0  0  0  0  0
   -0.1301    1.8674    0.7473 H   0  0  0  0  0  0  0  0  0  0  0  0
    0.8854   -2.6280   -2.0594 H   0  0  0  0  0  0  0  0  0  0  0  0
   -0.2018   -2.4766    5.4406 H   0  0  0  0  0  0  0  0  0  0  0  0
   -0.0784   -3.8945    4.5478 H   0  0  0  0  0  0  0  0  0  0  0  0
   -0.4080    1.7182    3.1377 H   0  0  0  0  0  0  0  0  0  0  0  0
    0.8670    1.8085    2.0474 H   0  0  0  0  0  0  0  0  0  0  0  0
    0.7040   -0.6270   -3.2836 H   0  0  0  0  0  0  0  0  0  0  0  0
    0.2845    0.9035   -2.4774 H   0  0  0  0  0  0  0  0  0  0  0  0
    2.9693    0.2796   -1.8613 H   0  0  0  0  0  0  0  0  0  0  0  0
    0.8252    1.1404   -4.6340 H   0  0  0  0  0  0  0  0  0  0  0  0
    3.9048    3.1442   -6.8145 H   0  0  0  0  0  0  0  0  0  0  0  0
    5.5112    2.6401   -5.0195 H   0  0  0  0  0  0  0  0  0  0  0  0
    6.9088    1.5057   -2.1412 H   0  0  0  0  0  0  0  0  0  0  0  0
    6.7241    1.3498   -3.9047 H   0  0  0  0  0  0  0  0  0  0  0  0
    6.3048    2.8800   -3.0977 H   0  0  0  0  0  0  0  0  0  0  0  0
    1.0695    3.3430   -8.6678 H   0  0  0  0  0  0  0  0  0  0  0  0
    2.2588    4.1520   -7.6193 H   0  0  0  0  0  0  0  0  0  0  0  0
    2.6783    2.6213   -8.4250 H   0  0  0  0  0  0  0  0  0  0  0  0
    0.2529   -2.8960    2.2921 N   0  3  0  0  0  0  0  0  0  0  0  0
    0.2439   -3.8956    2.3198 H   0  0  0  0  0  0  0  0  0  0  0  0
  1  2  1  0  0  0  0
  1 25  1  0  0  0  0
  1 26  1  0  0  0  0
  1 27  1  0  0  0  0
  2  7  2  0  0  0  0
  2  3  1  0  0  0  0
  3  4  2  0  0  0  0
  3 13  1  0  0  0  0
  4  5  1  0  0  0  0
  4 28  1  0  0  0  0
  5  6  2  0  0  0  0
  6  7  1  0  0  0  0
  6 45  1  0  0  0  0
  7  8  1  0  0  0  0
  8  9  2  0  0  0  0
  8 12  1  0  0  0  0
  9 10  1  0  0  0  0
 10 11  1  0  0  0  0
 10 45  2  0  0  0  0
 11 29  1  0  0  0  0
 11 30  1  0  0  0  0
 12 31  1  0  0  0  0
 12 32  1  0  0  0  0
 13 14  1  0  0  0  0
 13 33  1  0  0  0  0
 13 34  1  0  0  0  0
 14 15  1  0  0  0  0
 14 35  1  0  0  0  0
 15 20  2  0  0  0  0
 15 16  1  0  0  0  0
 16 17  2  0  0  0  0
 16 36  1  0  0  0  0
 17 18  1  0  0  0  0
 17 23  1  0  0  0  0
 18 19  2  0  0  0  0
 18 37  1  0  0  0  0
 19 20  1  0  0  0  0
 19 38  1  0  0  0  0
 20 21  1  0  0  0  0
 21 22  1  0  0  0  0
 22 39  1  0  0  0  0
 22 40  1  0  0  0  0
 22 41  1  0  0  0  0
 23 24  1  0  0  0  0
 24 42  1  0  0  0  0
 24 43  1  0  0  0  0
 24 44  1  0  0  0  0
 45 46  1  0  0  0  0
M  CHG  1  45   1
M  END
$$$$
ZINC03814949
  -OEChem-08230709403D

 45 47  0     0  0  0  0  0  0999 V2000
   -0.2047    0.0038    1.0672 C   0  0  0  0  0  0  0  0  0  0  0  0
   -0.2171    1.5104    1.0320 C   0  0  0  0  0  0  0  0  0  0  0  0
    0.9309    2.2303    1.2368 C   0  0  0  0  0  0  0  0  0  0  0  0
    0.8931    3.6186    1.1988 C   0  0  0  0  0  0  0  0  0  0  0  0
   -0.2227    4.2746    0.9694 N   0  0  0  0  0  0  0  0  0  0  0  0
   -1.3722    3.6318    0.7626 C   0  0  0  0  0  0  0  0  0  0  0  0
   -1.4001    2.2154    0.7835 C   0  0  0  0  0  0  0  0  0  0  0  0
   -2.6346    1.5588    0.5544 C   0  0  0  0  0  0  0  0  0  0  0  0
   -3.7080    2.3023    0.3263 N   0  0  0  0  0  0  0  0  0  0  0  0
   -3.6378    3.6302    0.3108 C   0  0  0  0  0  0  0  0  0  0  0  0
   -2.5159    4.2907    0.5273 N   0  0  0  0  0  0  0  0  0  0  0  0
   -4.7919    4.3501    0.0673 N   0  0  0  0  0  0  0  0  0  0  0  0
   -2.7173    0.1838    0.5689 N   0  0  0  0  0  0  0  0  0  0  0  0
    2.2319    1.5175    1.5021 C   0  0  0  0  0  0  0  0  0  0  0  0
    2.7976    1.0462    0.2356 N   0  0  0  0  0  0  0  0  0  0  0  0
    4.0096    0.3523    0.2274 C   0  0  0  0  0  0  0  0  0  0  0  0
    4.6817    0.1139    1.4189 C   0  0  0  0  0  0  0  0  0  0  0  0
    5.8821   -0.5795    1.4104 C   0  0  0  0  0  0  0  0  0  0  0  0
    6.4176   -1.0251    0.2111 C   0  0  0  0  0  0  0  0  0  0  0  0
    5.7496   -0.7829   -0.9800 C   0  0  0  0  0  0  0  0  0  0  0  0
    4.5462   -0.0946   -0.9728 C   0  0  0  0  0  0  0  0  0  0  0  0
    6.2747   -1.2207   -2.1545 O   0  0  0  0  0  0  0  0  0  0  0  0
    7.5175   -1.9228   -2.0878 C   0  0  0  0  0  0  0  0  0  0  0  0
    6.5369   -0.8182    2.5770 O   0  0  0  0  0  0  0  0  0  0  0  0
    7.7712   -1.5335    2.4935 C   0  0  0  0  0  0  0  0  0  0  0  0
   -0.5220   -0.3393    2.0519 H   0  0  0  0  0  0  0  0  0  0  0  0
   -0.8871   -0.3829    0.3103 H   0  0  0  0  0  0  0  0  0  0  0  0
    0.8041   -0.3560    0.8647 H   0  0  0  0  0  0  0  0  0  0  0  0
    1.8050    4.1737    1.3618 H   0  0  0  0  0  0  0  0  0  0  0  0
   -5.6294    3.8859   -0.0877 H   0  0  0  0  0  0  0  0  0  0  0  0
   -4.7645    5.3196    0.0513 H   0  0  0  0  0  0  0  0  0  0  0  0
   -2.2352   -0.3240    1.2402 H   0  0  0  0  0  0  0  0  0  0  0  0
   -3.2575   -0.2766   -0.0922 H   0  0  0  0  0  0  0  0  0  0  0  0
    2.9314    2.2037    1.9794 H   0  0  0  0  0  0  0  0  0  0  0  0
    2.0525    0.6663    2.1589 H   0  0  0  0  0  0  0  0  0  0  0  0
    2.3304    1.2160   -0.5974 H   0  0  0  0  0  0  0  0  0  0  0  0
    4.2671    0.4647    2.3524 H   0  0  0  0  0  0  0  0  0  0  0  0
    7.3550   -1.5614    0.2047 H   0  0  0  0  0  0  0  0  0  0  0  0
    4.0260    0.0937   -1.9004 H   0  0  0  0  0  0  0  0  0  0  0  0
    7.8237   -2.2157   -3.0921 H   0  0  0  0  0  0  0  0  0  0  0  0
    8.2775   -1.2754   -1.6505 H   0  0  0  0  0  0  0  0  0  0  0  0
    7.3992   -2.8130   -1.4699 H   0  0  0  0  0  0  0  0  0  0  0  0
    7.5938   -2.5139    2.0514 H   0  0  0  0  0  0  0  0  0  0  0  0
    8.4727   -0.9765    1.8726 H   0  0  0  0  0  0  0  0  0  0  0  0
    8.1885   -1.6559    3.4930 H   0  0  0  0  0  0  0  0  0  0  0  0
  1  2  1  0  0  0  0
  1 26  1  0  0  0  0
  1 27  1  0  0  0  0
  1 28  1  0  0  0  0
  2  7  2  0  0  0  0
  2  3  1  0  0  0  0
  3  4  2  0  0  0  0
  3 14  1  0  0  0  0
  4  5  1  0  0  0  0
  4 29  1  0  0  0  0
  5  6  2  0  0  0  0
  6 11  1  0  0  0  0
  6  7  1  0  0  0  0
  7  8  1  0  0  0  0
  8  9  2  0  0  0  0
  8 13  1  0  0  0  0
  9 10  1  0  0  0  0
 10 11  2  0  0  0  0
 10 12  1  0  0  0  0
 12 30  1  0  0  0  0
 12 31  1  0  0  0  0
 13 32  1  0  0  0  0
 13 33  1  0  0  0  0
 14 15  1  0  0  0  0
 14 34  1  0  0  0  0
 14 35  1  0  0  0  0
 15 16  1  0  0  0  0
 15 36  1  0  0  0  0
 16 21  2  0  0  0  0
 16 17  1  0  0  0  0
 17 18  2  0  0  0  0
 17 37  1  0  0  0  0
 18 19  1  0  0  0  0
 18 24  1  0  0  0  0
 19 20  2  0  0  0  0
 19 38  1  0  0  0  0
 20 21  1  0  0  0  0
 20 22  1  0  0  0  0
 21 39  1  0  0  0  0
 22 23  1  0  0  0  0
 23 40  1  0  0  0  0
 23 41  1  0  0  0  0
 23 42  1  0  0  0  0
 24 25  1  0  0  0  0
 25 43  1  0  0  0  0
 25 44  1  0  0  0  0
 25 45  1  0  0  0  0
M  END
$$$$
ZINC03814949
  -OEChem-08230709403D

 46 48  0     0  0  0  0  0  0999 V2000
   -0.2047    0.0038    1.0672 C   0  0  0  0  0  0  0  0  0  0  0  0
   -0.2171    1.5104    1.0320 C   0  0  0  0  0  0  0  0  0  0  0  0
    0.9309    2.2303    1.2368 C   0  0  0  0  0  0  0  0  0  0  0  0
    0.8931    3.6186    1.1988 C   0  0  0  0  0  0  0  0  0  0  0  0
   -0.2227    4.2746    0.9694 N   0  0  0  0  0  0  0  0  0  0  0  0
   -1.3722    3.6318    0.7626 C   0  0  0  0  0  0  0  0  0  0  0  0
   -1.4001    2.2154    0.7835 C   0  0  0  0  0  0  0  0  0  0  0  0
   -2.6346    1.5588    0.5544 C   0  0  0  0  0  0  0  0  0  0  0  0
   -3.7080    2.3023    0.3263 N   0  0  0  0  0  0  0  0  0  0  0  0
   -3.6378    3.6302    0.3108 C   0  0  0  0  0  0  0  0  0  0  0  0
   -4.7919    4.3501    0.0673 N   0  0  0  0  0  0  0  0  0  0  0  0
   -2.7173    0.1838    0.5689 N   0  0  0  0  0  0  0  0  0  0  0  0
    2.2319    1.5175    1.5021 C   0  0  0  0  0  0  0  0  0  0  0  0
    2.7976    1.0462    0.2356 N   0  0  0  0  0  0  0  0  0  0  0  0
    4.0096    0.3523    0.2274 C   0  0  0  0  0  0  0  0  0  0  0  0
    4.6817    0.1139    1.4189 C   0  0  0  0  0  0  0  0  0  0  0  0
    5.8821   -0.5795    1.4104 C   0  0  0  0  0  0  0  0  0  0  0  0
    6.4176   -1.0251    0.2111 C   0  0  0  0  0  0  0  0  0  0  0  0
    5.7496   -0.7829   -0.9800 C   0  0  0  0  0  0  0  0  0  0  0  0
    4.5462   -0.0946   -0.9728 C   0  0  0  0  0  0  0  0  0  0  0  0
    6.2747   -1.2207   -2.1545 O   0  0  0  0  0  0  0  0  0  0  0  0
    7.5175   -1.9228   -2.0878 C   0  0  0  0  0  0  0  0  0  0  0  0
    6.5369   -0.8182    2.5770 O   0  0  0  0  0  0  0  0  0  0  0  0
    7.7712   -1.5335    2.4935 C   0  0  0  0  0  0  0  0  0  0  0  0
   -0.5220   -0.3393    2.0519 H   0  0  0  0  0  0  0  0  0  0  0  0
   -0.8871   -0.3829    0.3103 H   0  0  0  0  0  0  0  0  0  0  0  0
    0.8041   -0.3560    0.8647 H   0  0  0  0  0  0  0  0  0  0  0  0
    1.8050    4.1737    1.3618 H   0  0  0  0  0  0  0  0  0  0  0  0
   -5.6294    3.8859   -0.0877 H   0  0  0  0  0  0  0  0  0  0  0  0
   -4.7645    5.3196    0.0513 H   0  0  0  0  0  0  0  0  0  0  0  0
   -2.2352   -0.3240    1.2402 H   0  0  0  0  0  0  0  0  0  0  0  0
   -3.2575   -0.2766   -0.0922 H   0  0  0  0  0  0  0  0  0  0  0  0
    2.9314    2.2037    1.9794 H   0  0  0  0  0  0  0  0  0  0  0  0
    2.0525    0.6663    2.1589 H   0  0  0  0  0  0  0  0  0  0  0  0
    2.3304    1.2160   -0.5974 H   0  0  0  0  0  0  0  0  0  0  0  0
    4.2671    0.4647    2.3524 H   0  0  0  0  0  0  0  0  0  0  0  0
    7.3550   -1.5614    0.2047 H   0  0  0  0  0  0  0  0  0  0  0  0
    4.0260    0.0937   -1.9004 H   0  0  0  0  0  0  0  0  0  0  0  0
    7.8237   -2.2157   -3.0921 H   0  0  0  0  0  0  0  0  0  0  0  0
    8.2775   -1.2754   -1.6505 H   0  0  0  0  0  0  0  0  0  0  0  0
    7.3992   -2.8130   -1.4699 H   0  0  0  0  0  0  0  0  0  0  0  0
    7.5938   -2.5139    2.0514 H   0  0  0  0  0  0  0  0  0  0  0  0
    8.4727   -0.9765    1.8726 H   0  0  0  0  0  0  0  0  0  0  0  0
    8.1885   -1.6559    3.4930 H   0  0  0  0  0  0  0  0  0  0  0  0
   -2.5164    4.3628    0.5264 N   0  3  0  0  0  0  0  0  0  0  0  0
   -2.5602    5.3617    0.5067 H   0  0  0  0  0  0  0  0  0  0  0  0
  1  2  1  0  0  0  0
  1 25  1  0  0  0  0
  1 26  1  0  0  0  0
  1 27  1  0  0  0  0
  2  7  2  0  0  0  0
  2  3  1  0  0  0  0
  3  4  2  0  0  0  0
  3 13  1  0  0  0  0
  4  5  1  0  0  0  0
  4 28  1  0  0  0  0
  5  6  2  0  0  0  0
  6  7  1  0  0  0  0
  6 45  1  0  0  0  0
  7  8  1  0  0  0  0
  8  9  2  0  0  0  0
  8 12  1  0  0  0  0
  9 10  1  0  0  0  0
 10 11  1  0  0  0  0
 10 45  2  0  0  0  0
 11 29  1  0  0  0  0
 11 30  1  0  0  0  0
 12 31  1  0  0  0  0
 12 32  1  0  0  0  0
 13 14  1  0  0  0  0
 13 33  1  0  0  0  0
 13 34  1  0  0  0  0
 14 15  1  0  0  0  0
 14 35  1  0  0  0  0
 15 20  2  0  0  0  0
 15 16  1  0  0  0  0
 16 17  2  0  0  0  0
 16 36  1  0  0  0  0
 17 18  1  0  0  0  0
 17 23  1  0  0  0  0
 18 19  2  0  0  0  0
 18 37  1  0  0  0  0
 19 20  1  0  0  0  0
 19 21  1  0  0  0  0
 20 38  1  0  0  0  0
 21 22  1  0  0  0  0
 22 39  1  0  0  0  0
 22 40  1  0  0  0  0
 22 41  1  0  0  0  0
 23 24  1  0  0  0  0
 24 42  1  0  0  0  0
 24 43  1  0  0  0  0
 24 44  1  0  0  0  0
 45 46  1  0  0  0  0
M  CHG  1  45   1
M  END
$$$$
ZINC03814950
  -OEChem-08230709403D

 45 47  0     0  0  0  0  0  0999 V2000
    0.6018    1.5059    0.0250 C   0  0  0  0  0  0  0  0  0  0  0  0
    0.5970   -0.0011    0.0161 C   0  0  0  0  0  0  0  0  0  0  0  0
    0.7585   -0.7002   -1.1515 C   0  0  0  0  0  0  0  0  0  0  0  0
    0.7532   -2.0894   -1.1326 C   0  0  0  0  0  0  0  0  0  0  0  0
    0.5888   -2.7658   -0.0176 N   0  0  0  0  0  0  0  0  0  0  0  0
    0.4225   -2.1439    1.1498 C   0  0  0  0  0  0  0  0  0  0  0  0
    0.4215   -0.7279    1.1991 C   0  0  0  0  0  0  0  0  0  0  0  0
    0.2422   -0.0940    2.4535 C   0  0  0  0  0  0  0  0  0  0  0  0
    0.0832   -0.8573    3.5253 N   0  0  0  0  0  0  0  0  0  0  0  0
    0.0905   -2.1842    3.4357 C   0  0  0  0  0  0  0  0  0  0  0  0
    0.2532   -2.8238    2.2928 N   0  0  0  0  0  0  0  0  0  0  0  0
   -0.0802   -2.9254    4.5893 N   0  0  0  0  0  0  0  0  0  0  0  0
    0.2328    1.2797    2.5563 N   0  0  0  0  0  0  0  0  0  0  0  0
    0.9447    0.0365   -2.4530 C   0  0  0  0  0  0  0  0  0  0  0  0
    2.3364    0.4790   -2.5689 N   0  0  0  0  0  0  0  0  0  0  0  0
    2.7538    1.1907   -3.7028 C   0  0  0  0  0  0  0  0  0  0  0  0
    1.8496    1.4761   -4.7148 C   0  0  0  0  0  0  0  0  0  0  0  0
    2.2608    2.1785   -5.8321 C   0  0  0  0  0  0  0  0  0  0  0  0
    3.5777    2.5988   -5.9438 C   0  0  0  0  0  0  0  0  0  0  0  0
    4.4855    2.3157   -4.9343 C   0  0  0  0  0  0  0  0  0  0  0  0
    4.0754    1.6167   -3.8111 C   0  0  0  0  0  0  0  0  0  0  0  0
    4.9628    1.3431   -2.8174 O   0  0  0  0  0  0  0  0  0  0  0  0
    6.3012    1.8107   -2.9961 C   0  0  0  0  0  0  0  0  0  0  0  0
    3.9792    3.2896   -7.0443 O   0  0  0  0  0  0  0  0  0  0  0  0
    2.9919    3.5467   -8.0449 C   0  0  0  0  0  0  0  0  0  0  0  0
    1.5932    1.8644    0.3020 H   0  0  0  0  0  0  0  0  0  0  0  0
    0.3459    1.8759   -0.9678 H   0  0  0  0  0  0  0  0  0  0  0  0
   -0.1301    1.8674    0.7473 H   0  0  0  0  0  0  0  0  0  0  0  0
    0.8847   -2.6280   -2.0595 H   0  0  0  0  0  0  0  0  0  0  0  0
   -0.2018   -2.4766    5.4406 H   0  0  0  0  0  0  0  0  0  0  0  0
   -0.0784   -3.8945    4.5478 H   0  0  0  0  0  0  0  0  0  0  0  0
   -0.4080    1.7182    3.1377 H   0  0  0  0  0  0  0  0  0  0  0  0
    0.8670    1.8085    2.0474 H   0  0  0  0  0  0  0  0  0  0  0  0
    0.7040   -0.6270   -3.2836 H   0  0  0  0  0  0  0  0  0  0  0  0
    0.2845    0.9035   -2.4774 H   0  0  0  0  0  0  0  0  0  0  0  0
    2.9693    0.2796   -1.8613 H   0  0  0  0  0  0  0  0  0  0  0  0
    0.8236    1.1497   -4.6299 H   0  0  0  0  0  0  0  0  0  0  0  0
    1.5554    2.4006   -6.6192 H   0  0  0  0  0  0  0  0  0  0  0  0
    5.5106    2.6441   -5.0218 H   0  0  0  0  0  0  0  0  0  0  0  0
    6.2968    2.8963   -3.0940 H   0  0  0  0  0  0  0  0  0  0  0  0
    6.9037    1.5263   -2.1334 H   0  0  0  0  0  0  0  0  0  0  0  0
    6.7242    1.3664   -3.8970 H   0  0  0  0  0  0  0  0  0  0  0  0
    2.1798    4.1311   -7.6123 H   0  0  0  0  0  0  0  0  0  0  0  0
    3.4432    4.1037   -8.8659 H   0  0  0  0  0  0  0  0  0  0  0  0
    2.5997    2.6012   -8.4196 H   0  0  0  0  0  0  0  0  0  0  0  0
  1  2  1  0  0  0  0
  1 26  1  0  0  0  0
  1 27  1  0  0  0  0
  1 28  1  0  0  0  0
  2  7  2  0  0  0  0
  2  3  1  0  0  0  0
  3  4  2  0  0  0  0
  3 14  1  0  0  0  0
  4  5  1  0  0  0  0
  4 29  1  0  0  0  0
  5  6  2  0  0  0  0
  6 11  1  0  0  0  0
  6  7  1  0  0  0  0
  7  8  1  0  0  0  0
  8  9  2  0  0  0  0
  8 13  1  0  0  0  0
  9 10  1  0  0  0  0
 10 11  2  0  0  0  0
 10 12  1  0  0  0  0
 12 30  1  0  0  0  0
 12 31  1  0  0  0  0
 13 32  1  0  0  0  0
 13 33  1  0  0  0  0
 14 15  1  0  0  0  0
 14 34  1  0  0  0  0
 14 35  1  0  0  0  0
 15 16  1  0  0  0  0
 15 36  1  0  0  0  0
 16 21  2  0  0  0  0
 16 17  1  0  0  0  0
 17 18  2  0  0  0  0
 17 37  1  0  0  0  0
 18 19  1  0  0  0  0
 18 38  1  0  0  0  0
 19 20  2  0  0  0  0
 19 24  1  0  0  0  0
 20 21  1  0  0  0  0
 20 39  1  0  0  0  0
 21 22  1  0  0  0  0
 22 23  1  0  0  0  0
 23 40  1  0  0  0  0
 23 41  1  0  0  0  0
 23 42  1  0  0  0  0
 24 25  1  0  0  0  0
 25 43  1  0  0  0  0
 25 44  1  0  0  0  0
 25 45  1  0  0  0  0
M  END
$$$$
ZINC03814950
  -OEChem-08230709403D

 46 48  0     0  0  0  0  0  0999 V2000
    0.6018    1.5059    0.0250 C   0  0  0  0  0  0  0  0  0  0  0  0
    0.5970   -0.0011    0.0161 C   0  0  0  0  0  0  0  0  0  0  0  0
    0.7585   -0.7002   -1.1515 C   0  0  0  0  0  0  0  0  0  0  0  0
    0.7532   -2.0894   -1.1326 C   0  0  0  0  0  0  0  0  0  0  0  0
    0.5888   -2.7658   -0.0176 N   0  0  0  0  0  0  0  0  0  0  0  0
    0.4225   -2.1439    1.1498 C   0  0  0  0  0  0  0  0  0  0  0  0
    0.4215   -0.7279    1.1991 C   0  0  0  0  0  0  0  0  0  0  0  0
    0.2422   -0.0940    2.4535 C   0  0  0  0  0  0  0  0  0  0  0  0
    0.0832   -0.8573    3.5253 N   0  0  0  0  0  0  0  0  0  0  0  0
    0.0905   -2.1842    3.4357 C   0  0  0  0  0  0  0  0  0  0  0  0
   -0.0802   -2.9254    4.5893 N   0  0  0  0  0  0  0  0  0  0  0  0
    0.2328    1.2797    2.5563 N   0  0  0  0  0  0  0  0  0  0  0  0
    0.9447    0.0365   -2.4530 C   0  0  0  0  0  0  0  0  0  0  0  0
    2.3364    0.4790   -2.5689 N   0  0  0  0  0  0  0  0  0  0  0  0
    2.7538    1.1907   -3.7028 C   0  0  0  0  0  0  0  0  0  0  0  0
    1.8496    1.4761   -4.7148 C   0  0  0  0  0  0  0  0  0  0  0  0
    2.2608    2.1785   -5.8321 C   0  0  0  0  0  0  0  0  0  0  0  0
    3.5777    2.5988   -5.9438 C   0  0  0  0  0  0  0  0  0  0  0  0
    4.4855    2.3157   -4.9343 C   0  0  0  0  0  0  0  0  0  0  0  0
    4.0754    1.6167   -3.8111 C   0  0  0  0  0  0  0  0  0  0  0  0
    4.9628    1.3431   -2.8174 O   0  0  0  0  0  0  0  0  0  0  0  0
    6.3012    1.8107   -2.9961 C   0  0  0  0  0  0  0  0  0  0  0  0
    3.9792    3.2896   -7.0443 O   0  0  0  0  0  0  0  0  0  0  0  0
    2.9919    3.5467   -8.0449 C   0  0  0  0  0  0  0  0  0  0  0  0
    1.5932    1.8644    0.3020 H   0  0  0  0  0  0  0  0  0  0  0  0
    0.3459    1.8759   -0.9678 H   0  0  0  0  0  0  0  0  0  0  0  0
   -0.1301    1.8674    0.7473 H   0  0  0  0  0  0  0  0  0  0  0  0
    0.8847   -2.6280   -2.0595 H   0  0  0  0  0  0  0  0  0  0  0  0
   -0.2018   -2.4766    5.4406 H   0  0  0  0  0  0  0  0  0  0  0  0
   -0.0784   -3.8945    4.5478 H   0  0  0  0  0  0  0  0  0  0  0  0
   -0.4080    1.7182    3.1377 H   0  0  0  0  0  0  0  0  0  0  0  0
    0.8670    1.8085    2.0474 H   0  0  0  0  0  0  0  0  0  0  0  0
    0.7040   -0.6270   -3.2836 H   0  0  0  0  0  0  0  0  0  0  0  0
    0.2845    0.9035   -2.4774 H   0  0  0  0  0  0  0  0  0  0  0  0
    2.9693    0.2796   -1.8613 H   0  0  0  0  0  0  0  0  0  0  0  0
    0.8236    1.1497   -4.6299 H   0  0  0  0  0  0  0  0  0  0  0  0
    1.5554    2.4006   -6.6192 H   0  0  0  0  0  0  0  0  0  0  0  0
    5.5106    2.6441   -5.0218 H   0  0  0  0  0  0  0  0  0  0  0  0
    6.2968    2.8963   -3.0940 H   0  0  0  0  0  0  0  0  0  0  0  0
    6.9037    1.5263   -2.1334 H   0  0  0  0  0  0  0  0  0  0  0  0
    6.7242    1.3664   -3.8970 H   0  0  0  0  0  0  0  0  0  0  0  0
    2.1798    4.1311   -7.6123 H   0  0  0  0  0  0  0  0  0  0  0  0
    3.4432    4.1037   -8.8659 H   0  0  0  0  0  0  0  0  0  0  0  0
    2.5997    2.6012   -8.4196 H   0  0  0  0  0  0  0  0  0  0  0  0
    0.2529   -2.8960    2.2921 N   0  3  0  0  0  0  0  0  0  0  0  0
    0.2439   -3.8956    2.3198 H   0  0  0  0  0  0  0  0  0  0  0  0
  1  2  1  0  0  0  0
  1 25  1  0  0  0  0
  1 26  1  0  0  0  0
  1 27  1  0  0  0  0
  2  7  2  0  0  0  0
  2  3  1  0  0  0  0
  3  4  2  0  0  0  0
  3 13  1  0  0  0  0
  4  5  1  0  0  0  0
  4 28  1  0  0  0  0
  5  6  2  0  0  0  0
  6  7  1  0  0  0  0
  6 45  1  0  0  0  0
  7  8  1  0  0  0  0
  8  9  2  0  0  0  0
  8 12  1  0  0  0  0
  9 10  1  0  0  0  0
 10 11  1  0  0  0  0
 10 45  2  0  0  0  0
 11 29  1  0  0  0  0
 11 30  1  0  0  0  0
 12 31  1  0  0  0  0
 12 32  1  0  0  0  0
 13 14  1  0  0  0  0
 13 33  1  0  0  0  0
 13 34  1  0  0  0  0
 14 15  1  0  0  0  0
 14 35  1  0  0  0  0
 15 20  2  0  0  0  0
 15 16  1  0  0  0  0
 16 17  2  0  0  0  0
 16 36  1  0  0  0  0
 17 18  1  0  0  0  0
 17 37  1  0  0  0  0
 18 19  2  0  0  0  0
 18 23  1  0  0  0  0
 19 20  1  0  0  0  0
 19 38  1  0  0  0  0
 20 21  1  0  0  0  0
 21 22  1  0  0  0  0
 22 39  1  0  0  0  0
 22 40  1  0  0  0  0
 22 41  1  0  0  0  0
 23 24  1  0  0  0  0
 24 42  1  0  0  0  0
 24 43  1  0  0  0  0
 24 44  1  0  0  0  0
 45 46  1  0  0  0  0
M  CHG  1  45   1
M  END
$$$$
ZINC03814951
  -OEChem-08230709403D

 45 47  0     0  0  0  0  0  0999 V2000
   -0.0700   -0.0033    0.6150 C   0  0  0  0  0  0  0  0  0  0  0  0
   -0.0875    1.5035    0.5983 C   0  0  0  0  0  0  0  0  0  0  0  0
   -1.2455    2.1982    0.8324 C   0  0  0  0  0  0  0  0  0  0  0  0
   -1.2346    3.5874    0.8144 C   0  0  0  0  0  0  0  0  0  0  0  0
   -0.1370    4.2679    0.5695 N   0  0  0  0  0  0  0  0  0  0  0  0
    1.0200    3.6503    0.3300 C   0  0  0  0  0  0  0  0  0  0  0  0
    1.0769    2.2347    0.3375 C   0  0  0  0  0  0  0  0  0  0  0  0
    2.3199    1.6054    0.0792 C   0  0  0  0  0  0  0  0  0  0  0  0
    3.3743    2.3726   -0.1580 N   0  0  0  0  0  0  0  0  0  0  0  0
    3.2781    3.6991   -0.1557 C   0  0  0  0  0  0  0  0  0  0  0  0
    2.1452    4.3344    0.0784 N   0  0  0  0  0  0  0  0  0  0  0  0
    4.4134    4.4445   -0.4100 N   0  0  0  0  0  0  0  0  0  0  0  0
    2.4294    0.2322    0.0742 N   0  0  0  0  0  0  0  0  0  0  0  0
   -2.5273    1.4568    1.1120 C   0  0  0  0  0  0  0  0  0  0  0  0
   -2.5467    1.0258    2.5121 N   0  0  0  0  0  0  0  0  0  0  0  0
   -3.6436    0.3136    3.0097 C   0  0  0  0  0  0  0  0  0  0  0  0
   -4.7162    0.0204    2.1780 C   0  0  0  0  0  0  0  0  0  0  0  0
   -5.7980   -0.6876    2.6667 C   0  0  0  0  0  0  0  0  0  0  0  0
   -5.8192   -1.0970    3.9900 C   0  0  0  0  0  0  0  0  0  0  0  0
   -4.7486   -0.7998    4.8274 C   0  0  0  0  0  0  0  0  0  0  0  0
   -3.6620   -0.0948    4.3364 C   0  0  0  0  0  0  0  0  0  0  0  0
   -4.7687   -1.2013    6.1265 O   0  0  0  0  0  0  0  0  0  0  0  0
   -3.6354   -0.8618    6.9281 C   0  0  0  0  0  0  0  0  0  0  0  0
   -6.8875   -1.7895    4.4710 O   0  0  0  0  0  0  0  0  0  0  0  0
   -7.9510   -2.0596    3.5555 C   0  0  0  0  0  0  0  0  0  0  0  0
    0.2751   -0.3519    1.5884 H   0  0  0  0  0  0  0  0  0  0  0  0
   -1.0758   -0.3804    0.4297 H   0  0  0  0  0  0  0  0  0  0  0  0
    0.6032   -0.3675   -0.1610 H   0  0  0  0  0  0  0  0  0  0  0  0
   -2.1533    4.1226    1.0043 H   0  0  0  0  0  0  0  0  0  0  0  0
    5.2570    3.9988   -0.5850 H   0  0  0  0  0  0  0  0  0  0  0  0
    4.3668    5.4133   -0.4134 H   0  0  0  0  0  0  0  0  0  0  0  0
    2.9687   -0.2089   -0.6007 H   0  0  0  0  0  0  0  0  0  0  0  0
    1.9673   -0.2936    0.7456 H   0  0  0  0  0  0  0  0  0  0  0  0
   -3.3760    2.1140    0.9224 H   0  0  0  0  0  0  0  0  0  0  0  0
   -2.5914    0.5840    0.4622 H   0  0  0  0  0  0  0  0  0  0  0  0
   -1.7992    1.2340    3.0941 H   0  0  0  0  0  0  0  0  0  0  0  0
   -4.7035    0.3426    1.1473 H   0  0  0  0  0  0  0  0  0  0  0  0
   -6.6295   -0.9183    2.0173 H   0  0  0  0  0  0  0  0  0  0  0  0
   -2.8302    0.1371    4.9850 H   0  0  0  0  0  0  0  0  0  0  0  0
   -3.7796   -1.2405    7.9400 H   0  0  0  0  0  0  0  0  0  0  0  0
   -2.7390   -1.3080    6.4975 H   0  0  0  0  0  0  0  0  0  0  0  0
   -3.5233    0.2220    6.9583 H   0  0  0  0  0  0  0  0  0  0  0  0
   -8.3559   -1.1193    3.1814 H   0  0  0  0  0  0  0  0  0  0  0  0
   -7.5713   -2.6493    2.7212 H   0  0  0  0  0  0  0  0  0  0  0  0
   -8.7371   -2.6162    4.0659 H   0  0  0  0  0  0  0  0  0  0  0  0
  1  2  1  0  0  0  0
  1 26  1  0  0  0  0
  1 27  1  0  0  0  0
  1 28  1  0  0  0  0
  2  7  2  0  0  0  0
  2  3  1  0  0  0  0
  3  4  2  0  0  0  0
  3 14  1  0  0  0  0
  4  5  1  0  0  0  0
  4 29  1  0  0  0  0
  5  6  2  0  0  0  0
  6 11  1  0  0  0  0
  6  7  1  0  0  0  0
  7  8  1  0  0  0  0
  8  9  2  0  0  0  0
  8 13  1  0  0  0  0
  9 10  1  0  0  0  0
 10 11  2  0  0  0  0
 10 12  1  0  0  0  0
 12 30  1  0  0  0  0
 12 31  1  0  0  0  0
 13 32  1  0  0  0  0
 13 33  1  0  0  0  0
 14 15  1  0  0  0  0
 14 34  1  0  0  0  0
 14 35  1  0  0  0  0
 15 16  1  0  0  0  0
 15 36  1  0  0  0  0
 16 21  2  0  0  0  0
 16 17  1  0  0  0  0
 17 18  2  0  0  0  0
 17 37  1  0  0  0  0
 18 19  1  0  0  0  0
 18 38  1  0  0  0  0
 19 20  2  0  0  0  0
 19 24  1  0  0  0  0
 20 21  1  0  0  0  0
 20 22  1  0  0  0  0
 21 39  1  0  0  0  0
 22 23  1  0  0  0  0
 23 40  1  0  0  0  0
 23 41  1  0  0  0  0
 23 42  1  0  0  0  0
 24 25  1  0  0  0  0
 25 43  1  0  0  0  0
 25 44  1  0  0  0  0
 25 45  1  0  0  0  0
M  END
$$$$
ZINC03814951
  -OEChem-08230709403D

 46 48  0     0  0  0  0  0  0999 V2000
   -0.0700   -0.0033    0.6150 C   0  0  0  0  0  0  0  0  0  0  0  0
   -0.0875    1.5035    0.5983 C   0  0  0  0  0  0  0  0  0  0  0  0
   -1.2455    2.1982    0.8324 C   0  0  0  0  0  0  0  0  0  0  0  0
   -1.2346    3.5874    0.8144 C   0  0  0  0  0  0  0  0  0  0  0  0
   -0.1370    4.2679    0.5695 N   0  0  0  0  0  0  0  0  0  0  0  0
    1.0200    3.6503    0.3300 C   0  0  0  0  0  0  0  0  0  0  0  0
    1.0769    2.2347    0.3375 C   0  0  0  0  0  0  0  0  0  0  0  0
    2.3199    1.6054    0.0792 C   0  0  0  0  0  0  0  0  0  0  0  0
    3.3743    2.3726   -0.1580 N   0  0  0  0  0  0  0  0  0  0  0  0
    3.2781    3.6991   -0.1557 C   0  0  0  0  0  0  0  0  0  0  0  0
    4.4134    4.4445   -0.4100 N   0  0  0  0  0  0  0  0  0  0  0  0
    2.4294    0.2322    0.0742 N   0  0  0  0  0  0  0  0  0  0  0  0
   -2.5273    1.4568    1.1120 C   0  0  0  0  0  0  0  0  0  0  0  0
   -2.5467    1.0258    2.5121 N   0  0  0  0  0  0  0  0  0  0  0  0
   -3.6436    0.3136    3.0097 C   0  0  0  0  0  0  0  0  0  0  0  0
   -4.7162    0.0204    2.1780 C   0  0  0  0  0  0  0  0  0  0  0  0
   -5.7980   -0.6876    2.6667 C   0  0  0  0  0  0  0  0  0  0  0  0
   -5.8192   -1.0970    3.9900 C   0  0  0  0  0  0  0  0  0  0  0  0
   -4.7486   -0.7998    4.8274 C   0  0  0  0  0  0  0  0  0  0  0  0
   -3.6620   -0.0948    4.3364 C   0  0  0  0  0  0  0  0  0  0  0  0
   -4.7687   -1.2013    6.1265 O   0  0  0  0  0  0  0  0  0  0  0  0
   -3.6354   -0.8618    6.9281 C   0  0  0  0  0  0  0  0  0  0  0  0
   -6.8875   -1.7895    4.4710 O   0  0  0  0  0  0  0  0  0  0  0  0
   -7.9510   -2.0596    3.5555 C   0  0  0  0  0  0  0  0  0  0  0  0
    0.2751   -0.3519    1.5884 H   0  0  0  0  0  0  0  0  0  0  0  0
   -1.0758   -0.3804    0.4297 H   0  0  0  0  0  0  0  0  0  0  0  0
    0.6032   -0.3675   -0.1610 H   0  0  0  0  0  0  0  0  0  0  0  0
   -2.1533    4.1226    1.0043 H   0  0  0  0  0  0  0  0  0  0  0  0
    5.2570    3.9988   -0.5850 H   0  0  0  0  0  0  0  0  0  0  0  0
    4.3668    5.4133   -0.4134 H   0  0  0  0  0  0  0  0  0  0  0  0
    2.9687   -0.2089   -0.6007 H   0  0  0  0  0  0  0  0  0  0  0  0
    1.9673   -0.2936    0.7456 H   0  0  0  0  0  0  0  0  0  0  0  0
   -3.3760    2.1140    0.9224 H   0  0  0  0  0  0  0  0  0  0  0  0
   -2.5914    0.5840    0.4622 H   0  0  0  0  0  0  0  0  0  0  0  0
   -1.7992    1.2340    3.0941 H   0  0  0  0  0  0  0  0  0  0  0  0
   -4.7035    0.3426    1.1473 H   0  0  0  0  0  0  0  0  0  0  0  0
   -6.6295   -0.9183    2.0173 H   0  0  0  0  0  0  0  0  0  0  0  0
   -2.8302    0.1371    4.9850 H   0  0  0  0  0  0  0  0  0  0  0  0
   -3.7796   -1.2405    7.9400 H   0  0  0  0  0  0  0  0  0  0  0  0
   -2.7390   -1.3080    6.4975 H   0  0  0  0  0  0  0  0  0  0  0  0
   -3.5233    0.2220    6.9583 H   0  0  0  0  0  0  0  0  0  0  0  0
   -8.3559   -1.1193    3.1814 H   0  0  0  0  0  0  0  0  0  0  0  0
   -7.5713   -2.6493    2.7212 H   0  0  0  0  0  0  0  0  0  0  0  0
   -8.7371   -2.6162    4.0659 H   0  0  0  0  0  0  0  0  0  0  0  0
    2.1441    4.4066    0.0776 N   0  3  0  0  0  0  0  0  0  0  0  0
    2.1655    5.4062    0.0585 H   0  0  0  0  0  0  0  0  0  0  0  0
  1  2  1  0  0  0  0
  1 25  1  0  0  0  0
  1 26  1  0  0  0  0
  1 27  1  0  0  0  0
  2  7  2  0  0  0  0
  2  3  1  0  0  0  0
  3  4  2  0  0  0  0
  3 13  1  0  0  0  0
  4  5  1  0  0  0  0
  4 28  1  0  0  0  0
  5  6  2  0  0  0  0
  6  7  1  0  0  0  0
  6 45  1  0  0  0  0
  7  8  1  0  0  0  0
  8  9  2  0  0  0  0
  8 12  1  0  0  0  0
  9 10  1  0  0  0  0
 10 11  1  0  0  0  0
 10 45  2  0  0  0  0
 11 29  1  0  0  0  0
 11 30  1  0  0  0  0
 12 31  1  0  0  0  0
 12 32  1  0  0  0  0
 13 14  1  0  0  0  0
 13 33  1  0  0  0  0
 13 34  1  0  0  0  0
 14 15  1  0  0  0  0
 14 35  1  0  0  0  0
 15 20  2  0  0  0  0
 15 16  1  0  0  0  0
 16 17  2  0  0  0  0
 16 36  1  0  0  0  0
 17 18  1  0  0  0  0
 17 37  1  0  0  0  0
 18 19  2  0  0  0  0
 18 23  1  0  0  0  0
 19 20  1  0  0  0  0
 19 21  1  0  0  0  0
 20 38  1  0  0  0  0
 21 22  1  0  0  0  0
 22 39  1  0  0  0  0
 22 40  1  0  0  0  0
 22 41  1  0  0  0  0
 23 24  1  0  0  0  0
 24 42  1  0  0  0  0
 24 43  1  0  0  0  0
 24 44  1  0  0  0  0
 45 46  1  0  0  0  0
M  CHG  1  45   1
M  END
$$$$
ZINC03814952
  -OEChem-08230709403D

 51 53  0     0  0  0  0  0  0999 V2000
    0.7443    3.4018   -8.9591 C   0  0  0  0  0  0  0  0  0  0  0  0
    1.8761    3.1840   -7.9528 C   0  0  0  0  0  0  0  0  0  0  0  0
    1.3795    2.4566   -6.8275 O   0  0  0  0  0  0  0  0  0  0  0  0
    2.2644    2.1775   -5.8335 C   0  0  0  0  0  0  0  0  0  0  0  0
    3.5824    2.5960   -5.9414 C   0  0  0  0  0  0  0  0  0  0  0  0
    4.4851    2.3131   -4.9329 C   0  0  0  0  0  0  0  0  0  0  0  0
    4.0754    1.6108   -3.8120 C   0  0  0  0  0  0  0  0  0  0  0  0
    2.7524    1.1895   -3.7003 C   0  0  0  0  0  0  0  0  0  0  0  0
    1.8499    1.4703   -4.7154 C   0  0  0  0  0  0  0  0  0  0  0  0
    2.3360    0.4792   -2.5687 N   0  0  0  0  0  0  0  0  0  0  0  0
    0.9442    0.0367   -2.4527 C   0  0  0  0  0  0  0  0  0  0  0  0
    0.7581   -0.7000   -1.1513 C   0  0  0  0  0  0  0  0  0  0  0  0
    0.7545   -2.0896   -1.1322 C   0  0  0  0  0  0  0  0  0  0  0  0
    0.5894   -2.7660   -0.0176 N   0  0  0  0  0  0  0  0  0  0  0  0
    0.4223   -2.1441    1.1501 C   0  0  0  0  0  0  0  0  0  0  0  0
    0.4214   -0.7281    1.1994 C   0  0  0  0  0  0  0  0  0  0  0  0
    0.5967   -0.0010    0.0160 C   0  0  0  0  0  0  0  0  0  0  0  0
    0.6016    1.5059    0.0249 C   0  0  0  0  0  0  0  0  0  0  0  0
    0.2422   -0.0944    2.4535 C   0  0  0  0  0  0  0  0  0  0  0  0
    0.0833   -0.8578    3.5256 N   0  0  0  0  0  0  0  0  0  0  0  0
    0.0906   -2.1844    3.4359 C   0  0  0  0  0  0  0  0  0  0  0  0
    0.2532   -2.8240    2.2927 N   0  0  0  0  0  0  0  0  0  0  0  0
   -0.0800   -2.9256    4.5895 N   0  0  0  0  0  0  0  0  0  0  0  0
    0.2328    1.2794    2.5563 N   0  0  0  0  0  0  0  0  0  0  0  0
    4.9648    1.3320   -2.8203 O   0  0  0  0  0  0  0  0  0  0  0  0
    6.3046    1.7947   -3.0016 C   0  0  0  0  0  0  0  0  0  0  0  0
    7.1517    1.3902   -1.7934 C   0  0  0  0  0  0  0  0  0  0  0  0
    0.3620    2.4363   -9.2905 H   0  0  0  0  0  0  0  0  0  0  0  0
   -0.0584    3.9676   -8.4862 H   0  0  0  0  0  0  0  0  0  0  0  0
    1.1231    3.9566   -9.8175 H   0  0  0  0  0  0  0  0  0  0  0  0
    2.2585    4.1495   -7.6215 H   0  0  0  0  0  0  0  0  0  0  0  0
    2.6788    2.6182   -8.4257 H   0  0  0  0  0  0  0  0  0  0  0  0
    3.9043    3.1436   -6.8149 H   0  0  0  0  0  0  0  0  0  0  0  0
    5.5108    2.6398   -5.0197 H   0  0  0  0  0  0  0  0  0  0  0  0
    0.8245    1.1410   -4.6336 H   0  0  0  0  0  0  0  0  0  0  0  0
    2.9688    0.2798   -1.8612 H   0  0  0  0  0  0  0  0  0  0  0  0
    0.7034   -0.6267   -3.2834 H   0  0  0  0  0  0  0  0  0  0  0  0
    0.2841    0.9038   -2.4770 H   0  0  0  0  0  0  0  0  0  0  0  0
    0.8873   -2.6282   -2.0588 H   0  0  0  0  0  0  0  0  0  0  0  0
    1.5930    1.8644    0.3018 H   0  0  0  0  0  0  0  0  0  0  0  0
    0.3455    1.8759   -0.9678 H   0  0  0  0  0  0  0  0  0  0  0  0
   -0.1303    1.8673    0.7473 H   0  0  0  0  0  0  0  0  0  0  0  0
   -0.2015   -2.4769    5.4409 H   0  0  0  0  0  0  0  0  0  0  0  0
   -0.0781   -3.8947    4.5480 H   0  0  0  0  0  0  0  0  0  0  0  0
   -0.4080    1.7178    3.1376 H   0  0  0  0  0  0  0  0  0  0  0  0
    0.8670    1.8081    2.0473 H   0  0  0  0  0  0  0  0  0  0  0  0
    6.7236    1.3499   -3.9043 H   0  0  0  0  0  0  0  0  0  0  0  0
    6.3042    2.8804   -3.0980 H   0  0  0  0  0  0  0  0  0  0  0  0
    7.1521    0.3045   -1.6971 H   0  0  0  0  0  0  0  0  0  0  0  0
    8.1737    1.7431   -1.9317 H   0  0  0  0  0  0  0  0  0  0  0  0
    6.7328    1.8349   -0.8907 H   0  0  0  0  0  0  0  0  0  0  0  0
  1  2  1  0  0  0  0
  1 28  1  0  0  0  0
  1 29  1  0  0  0  0
  1 30  1  0  0  0  0
  2  3  1  0  0  0  0
  2 31  1  0  0  0  0
  2 32  1  0  0  0  0
  3  4  1  0  0  0  0
  4  9  2  0  0  0  0
  4  5  1  0  0  0  0
  5  6  2  0  0  0  0
  5 33  1  0  0  0  0
  6  7  1  0  0  0  0
  6 34  1  0  0  0  0
  7  8  2  0  0  0  0
  7 25  1  0  0  0  0
  8  9  1  0  0  0  0
  8 10  1  0  0  0  0
  9 35  1  0  0  0  0
 10 11  1  0  0  0  0
 10 36  1  0  0  0  0
 11 12  1  0  0  0  0
 11 37  1  0  0  0  0
 11 38  1  0  0  0  0
 12 17  2  0  0  0  0
 12 13  1  0  0  0  0
 13 14  2  0  0  0  0
 13 39  1  0  0  0  0
 14 15  1  0  0  0  0
 15 22  2  0  0  0  0
 15 16  1  0  0  0  0
 16 17  1  0  0  0  0
 16 19  2  0  0  0  0
 17 18  1  0  0  0  0
 18 40  1  0  0  0  0
 18 41  1  0  0  0  0
 18 42  1  0  0  0  0
 19 20  1  0  0  0  0
 19 24  1  0  0  0  0
 20 21  2  0  0  0  0
 21 22  1  0  0  0  0
 21 23  1  0  0  0  0
 23 43  1  0  0  0  0
 23 44  1  0  0  0  0
 24 45  1  0  0  0  0
 24 46  1  0  0  0  0
 25 26  1  0  0  0  0
 26 27  1  0  0  0  0
 26 47  1  0  0  0  0
 26 48  1  0  0  0  0
 27 49  1  0  0  0  0
 27 50  1  0  0  0  0
 27 51  1  0  0  0  0
M  END
$$$$
ZINC03814952
  -OEChem-08230709403D

 52 54  0     0  0  0  0  0  0999 V2000
    0.7443    3.4018   -8.9591 C   0  0  0  0  0  0  0  0  0  0  0  0
    1.8761    3.1840   -7.9528 C   0  0  0  0  0  0  0  0  0  0  0  0
    1.3795    2.4566   -6.8275 O   0  0  0  0  0  0  0  0  0  0  0  0
    2.2644    2.1775   -5.8335 C   0  0  0  0  0  0  0  0  0  0  0  0
    3.5824    2.5960   -5.9414 C   0  0  0  0  0  0  0  0  0  0  0  0
    4.4851    2.3131   -4.9329 C   0  0  0  0  0  0  0  0  0  0  0  0
    4.0754    1.6108   -3.8120 C   0  0  0  0  0  0  0  0  0  0  0  0
    2.7524    1.1895   -3.7003 C   0  0  0  0  0  0  0  0  0  0  0  0
    1.8499    1.4703   -4.7154 C   0  0  0  0  0  0  0  0  0  0  0  0
    2.3360    0.4792   -2.5687 N   0  0  0  0  0  0  0  0  0  0  0  0
    0.9442    0.0367   -2.4527 C   0  0  0  0  0  0  0  0  0  0  0  0
    0.7581   -0.7000   -1.1513 C   0  0  0  0  0  0  0  0  0  0  0  0
    0.7545   -2.0896   -1.1322 C   0  0  0  0  0  0  0  0  0  0  0  0
    0.5894   -2.7660   -0.0176 N   0  0  0  0  0  0  0  0  0  0  0  0
    0.4223   -2.1441    1.1501 C   0  0  0  0  0  0  0  0  0  0  0  0
    0.4214   -0.7281    1.1994 C   0  0  0  0  0  0  0  0  0  0  0  0
    0.5967   -0.0010    0.0160 C   0  0  0  0  0  0  0  0  0  0  0  0
    0.6016    1.5059    0.0249 C   0  0  0  0  0  0  0  0  0  0  0  0
    0.2422   -0.0944    2.4535 C   0  0  0  0  0  0  0  0  0  0  0  0
    0.0833   -0.8578    3.5256 N   0  0  0  0  0  0  0  0  0  0  0  0
    0.0906   -2.1844    3.4359 C   0  0  0  0  0  0  0  0  0  0  0  0
   -0.0800   -2.9256    4.5895 N   0  0  0  0  0  0  0  0  0  0  0  0
    0.2328    1.2794    2.5563 N   0  0  0  0  0  0  0  0  0  0  0  0
    4.9648    1.3320   -2.8203 O   0  0  0  0  0  0  0  0  0  0  0  0
    6.3046    1.7947   -3.0016 C   0  0  0  0  0  0  0  0  0  0  0  0
    7.1517    1.3902   -1.7934 C   0  0  0  0  0  0  0  0  0  0  0  0
    0.3620    2.4363   -9.2905 H   0  0  0  0  0  0  0  0  0  0  0  0
   -0.0584    3.9676   -8.4862 H   0  0  0  0  0  0  0  0  0  0  0  0
    1.1231    3.9566   -9.8175 H   0  0  0  0  0  0  0  0  0  0  0  0
    2.2585    4.1495   -7.6215 H   0  0  0  0  0  0  0  0  0  0  0  0
    2.6788    2.6182   -8.4257 H   0  0  0  0  0  0  0  0  0  0  0  0
    3.9043    3.1436   -6.8149 H   0  0  0  0  0  0  0  0  0  0  0  0
    5.5108    2.6398   -5.0197 H   0  0  0  0  0  0  0  0  0  0  0  0
    0.8245    1.1410   -4.6336 H   0  0  0  0  0  0  0  0  0  0  0  0
    2.9688    0.2798   -1.8612 H   0  0  0  0  0  0  0  0  0  0  0  0
    0.7034   -0.6267   -3.2834 H   0  0  0  0  0  0  0  0  0  0  0  0
    0.2841    0.9038   -2.4770 H   0  0  0  0  0  0  0  0  0  0  0  0
    0.8873   -2.6282   -2.0588 H   0  0  0  0  0  0  0  0  0  0  0  0
    1.5930    1.8644    0.3018 H   0  0  0  0  0  0  0  0  0  0  0  0
    0.3455    1.8759   -0.9678 H   0  0  0  0  0  0  0  0  0  0  0  0
   -0.1303    1.8673    0.7473 H   0  0  0  0  0  0  0  0  0  0  0  0
   -0.2015   -2.4769    5.4409 H   0  0  0  0  0  0  0  0  0  0  0  0
   -0.0781   -3.8947    4.5480 H   0  0  0  0  0  0  0  0  0  0  0  0
   -0.4080    1.7178    3.1376 H   0  0  0  0  0  0  0  0  0  0  0  0
    0.8670    1.8081    2.0473 H   0  0  0  0  0  0  0  0  0  0  0  0
    6.7236    1.3499   -3.9043 H   0  0  0  0  0  0  0  0  0  0  0  0
    6.3042    2.8804   -3.0980 H   0  0  0  0  0  0  0  0  0  0  0  0
    7.1521    0.3045   -1.6971 H   0  0  0  0  0  0  0  0  0  0  0  0
    8.1737    1.7431   -1.9317 H   0  0  0  0  0  0  0  0  0  0  0  0
    6.7328    1.8349   -0.8907 H   0  0  0  0  0  0  0  0  0  0  0  0
    0.2529   -2.8962    2.2920 N   0  3  0  0  0  0  0  0  0  0  0  0
    0.2558   -3.8947    2.2380 H   0  0  0  0  0  0  0  0  0  0  0  0
  1  2  1  0  0  0  0
  1 27  1  0  0  0  0
  1 28  1  0  0  0  0
  1 29  1  0  0  0  0
  2  3  1  0  0  0  0
  2 30  1  0  0  0  0
  2 31  1  0  0  0  0
  3  4  1  0  0  0  0
  4  9  2  0  0  0  0
  4  5  1  0  0  0  0
  5  6  2  0  0  0  0
  5 32  1  0  0  0  0
  6  7  1  0  0  0  0
  6 33  1  0  0  0  0
  7  8  2  0  0  0  0
  7 24  1  0  0  0  0
  8  9  1  0  0  0  0
  8 10  1  0  0  0  0
  9 34  1  0  0  0  0
 10 11  1  0  0  0  0
 10 35  1  0  0  0  0
 11 12  1  0  0  0  0
 11 36  1  0  0  0  0
 11 37  1  0  0  0  0
 12 17  2  0  0  0  0
 12 13  1  0  0  0  0
 13 14  2  0  0  0  0
 13 38  1  0  0  0  0
 14 15  1  0  0  0  0
 15 16  2  0  0  0  0
 15 51  1  0  0  0  0
 16 17  1  0  0  0  0
 16 19  1  0  0  0  0
 17 18  1  0  0  0  0
 18 39  1  0  0  0  0
 18 40  1  0  0  0  0
 18 41  1  0  0  0  0
 19 20  2  0  0  0  0
 19 23  1  0  0  0  0
 20 21  1  0  0  0  0
 21 22  1  0  0  0  0
 21 51  2  0  0  0  0
 22 42  1  0  0  0  0
 22 43  1  0  0  0  0
 23 44  1  0  0  0  0
 23 45  1  0  0  0  0
 24 25  1  0  0  0  0
 25 26  1  0  0  0  0
 25 46  1  0  0  0  0
 25 47  1  0  0  0  0
 26 48  1  0  0  0  0
 26 49  1  0  0  0  0
 26 50  1  0  0  0  0
 51 52  1  0  0  0  0
M  CHG  1  51   1
M  END
$$$$
ZINC03814953
  -OEChem-08230709403D

 48 50  0     1  0  0  0  0  0999 V2000
    0.2524   -3.0368   -2.4213 C   0  0  0  0  0  0  0  0  0  0  0  0
   -0.1224   -2.3172   -1.1513 C   0  0  0  0  0  0  0  0  0  0  0  0
   -0.6679   -1.0605   -1.1873 C   0  0  0  0  0  0  0  0  0  0  0  0
   -1.0075   -0.4194   -0.0024 C   0  0  0  0  0  0  0  0  0  0  0  0
   -0.8137   -0.9826    1.1694 N   0  0  0  0  0  0  0  0  0  0  0  0
   -0.2830   -2.2014    1.2711 C   0  0  0  0  0  0  0  0  0  0  0  0
    0.0819   -2.9101    0.0998 C   0  0  0  0  0  0  0  0  0  0  0  0
    0.6442   -4.2032    0.2382 C   0  0  0  0  0  0  0  0  0  0  0  0
    0.8030   -4.6910    1.4603 N   0  0  0  0  0  0  0  0  0  0  0  0
    0.4469   -3.9924    2.5346 C   0  0  0  0  0  0  0  0  0  0  0  0
   -0.0803   -2.7847    2.4610 N   0  0  0  0  0  0  0  0  0  0  0  0
    0.6375   -4.5554    3.7820 N   0  0  0  0  0  0  0  0  0  0  0  0
    1.0165   -4.9342   -0.8685 N   0  0  0  0  0  0  0  0  0  0  0  0
   -0.9019   -0.3766   -2.5096 C   0  0  0  0  0  0  0  0  0  0  0  0
    0.3782    0.1063   -3.0444 N   0  0  2  0  0  0  0  0  0  0  0  0
    0.8660    1.2618   -2.2796 C   0  0  0  0  0  0  0  0  0  0  0  0
    0.2688    0.4155   -4.4049 C   0  0  0  0  0  0  0  0  0  0  0  0
   -0.6342    1.3796   -4.8278 C   0  0  0  0  0  0  0  0  0  0  0  0
   -0.7367    1.6875   -6.1758 C   0  0  0  0  0  0  0  0  0  0  0  0
    0.0551    1.0245   -7.1018 C   0  0  0  0  0  0  0  0  0  0  0  0
    0.9522    0.0593   -6.6830 C   0  0  0  0  0  0  0  0  0  0  0  0
    1.0624   -0.2485   -5.3375 C   0  0  0  0  0  0  0  0  0  0  0  0
    1.9451   -1.1993   -4.9264 O   0  0  0  0  0  0  0  0  0  0  0  0
    2.7265   -1.8394   -5.9372 C   0  0  0  0  0  0  0  0  0  0  0  0
   -1.6179    2.6362   -6.5909 O   0  0  0  0  0  0  0  0  0  0  0  0
   -1.6754    2.8986   -7.9944 C   0  0  0  0  0  0  0  0  0  0  0  0
   -0.5515   -3.7163   -2.7046 H   0  0  0  0  0  0  0  0  0  0  0  0
    0.4112   -2.3097   -3.2176 H   0  0  0  0  0  0  0  0  0  0  0  0
    1.1685   -3.6051   -2.2601 H   0  0  0  0  0  0  0  0  0  0  0  0
   -1.4402    0.5692   -0.0452 H   0  0  0  0  0  0  0  0  0  0  0  0
    1.0237   -5.4418    3.8601 H   0  0  0  0  0  0  0  0  0  0  0  0
    0.3852   -4.0642    4.5795 H   0  0  0  0  0  0  0  0  0  0  0  0
    1.8469   -5.4356   -0.8617 H   0  0  0  0  0  0  0  0  0  0  0  0
    0.4483   -4.9476   -1.6545 H   0  0  0  0  0  0  0  0  0  0  0  0
   -1.3451   -1.0836   -3.2109 H   0  0  0  0  0  0  0  0  0  0  0  0
   -1.5778    0.4668   -2.3679 H   0  0  0  0  0  0  0  0  0  0  0  0
    1.0994    0.9511   -1.2612 H   0  0  0  0  0  0  0  0  0  0  0  0
    1.7641    1.6582   -2.7533 H   0  0  0  0  0  0  0  0  0  0  0  0
    0.0965    2.0334   -2.2566 H   0  0  0  0  0  0  0  0  0  0  0  0
   -1.2543    1.8926   -4.1075 H   0  0  0  0  0  0  0  0  0  0  0  0
   -0.0296    1.2624   -8.1519 H   0  0  0  0  0  0  0  0  0  0  0  0
    1.5674   -0.4553   -7.4062 H   0  0  0  0  0  0  0  0  0  0  0  0
    3.3230   -1.0933   -6.4622 H   0  0  0  0  0  0  0  0  0  0  0  0
    3.3869   -2.5734   -5.4755 H   0  0  0  0  0  0  0  0  0  0  0  0
    2.0655   -2.3398   -6.6450 H   0  0  0  0  0  0  0  0  0  0  0  0
   -0.6983    3.2346   -8.3415 H   0  0  0  0  0  0  0  0  0  0  0  0
   -1.9552    1.9875   -8.5232 H   0  0  0  0  0  0  0  0  0  0  0  0
   -2.4164    3.6738   -8.1891 H   0  0  0  0  0  0  0  0  0  0  0  0
  1  2  1  0  0  0  0
  1 27  1  0  0  0  0
  1 28  1  0  0  0  0
  1 29  1  0  0  0  0
  2  7  2  0  0  0  0
  2  3  1  0  0  0  0
  3  4  2  0  0  0  0
  3 14  1  0  0  0  0
  4  5  1  0  0  0  0
  4 30  1  0  0  0  0
  5  6  2  0  0  0  0
  6 11  1  0  0  0  0
  6  7  1  0  0  0  0
  7  8  1  0  0  0  0
  8  9  2  0  0  0  0
  8 13  1  0  0  0  0
  9 10  1  0  0  0  0
 10 11  2  0  0  0  0
 10 12  1  0  0  0  0
 12 31  1  0  0  0  0
 12 32  1  0  0  0  0
 13 33  1  0  0  0  0
 13 34  1  0  0  0  0
 14 15  1  0  0  0  0
 14 35  1  0  0  0  0
 14 36  1  0  0  0  0
 15 16  1  0  0  0  0
 15 17  1  0  0  0  0
 16 37  1  0  0  0  0
 16 38  1  0  0  0  0
 16 39  1  0  0  0  0
 17 22  2  0  0  0  0
 17 18  1  0  0  0  0
 18 19  2  0  0  0  0
 18 40  1  0  0  0  0
 19 20  1  0  0  0  0
 19 25  1  0  0  0  0
 20 21  2  0  0  0  0
 20 41  1  0  0  0  0
 21 22  1  0  0  0  0
 21 42  1  0  0  0  0
 22 23  1  0  0  0  0
 23 24  1  0  0  0  0
 24 43  1  0  0  0  0
 24 44  1  0  0  0  0
 24 45  1  0  0  0  0
 25 26  1  0  0  0  0
 26 46  1  0  0  0  0
 26 47  1  0  0  0  0
 26 48  1  0  0  0  0
M  END
$$$$
ZINC03814953
  -OEChem-08230709403D

 49 51  0     1  0  0  0  0  0999 V2000
    0.2524   -3.0368   -2.4213 C   0  0  0  0  0  0  0  0  0  0  0  0
   -0.1224   -2.3172   -1.1513 C   0  0  0  0  0  0  0  0  0  0  0  0
   -0.6679   -1.0605   -1.1873 C   0  0  0  0  0  0  0  0  0  0  0  0
   -1.0075   -0.4194   -0.0024 C   0  0  0  0  0  0  0  0  0  0  0  0
   -0.8137   -0.9826    1.1694 N   0  0  0  0  0  0  0  0  0  0  0  0
   -0.2830   -2.2014    1.2711 C   0  0  0  0  0  0  0  0  0  0  0  0
    0.0819   -2.9101    0.0998 C   0  0  0  0  0  0  0  0  0  0  0  0
    0.6442   -4.2032    0.2382 C   0  0  0  0  0  0  0  0  0  0  0  0
    0.8030   -4.6910    1.4603 N   0  0  0  0  0  0  0  0  0  0  0  0
    0.4469   -3.9924    2.5346 C   0  0  0  0  0  0  0  0  0  0  0  0
    0.6375   -4.5554    3.7820 N   0  0  0  0  0  0  0  0  0  0  0  0
    1.0165   -4.9342   -0.8685 N   0  0  0  0  0  0  0  0  0  0  0  0
   -0.9019   -0.3766   -2.5096 C   0  0  0  0  0  0  0  0  0  0  0  0
    0.3782    0.1063   -3.0444 N   0  0  2  0  0  0  0  0  0  0  0  0
    0.8660    1.2618   -2.2796 C   0  0  0  0  0  0  0  0  0  0  0  0
    0.2688    0.4155   -4.4049 C   0  0  0  0  0  0  0  0  0  0  0  0
   -0.6342    1.3796   -4.8278 C   0  0  0  0  0  0  0  0  0  0  0  0
   -0.7367    1.6875   -6.1758 C   0  0  0  0  0  0  0  0  0  0  0  0
    0.0551    1.0245   -7.1018 C   0  0  0  0  0  0  0  0  0  0  0  0
    0.9522    0.0593   -6.6830 C   0  0  0  0  0  0  0  0  0  0  0  0
    1.0624   -0.2485   -5.3375 C   0  0  0  0  0  0  0  0  0  0  0  0
    1.9451   -1.1993   -4.9264 O   0  0  0  0  0  0  0  0  0  0  0  0
    2.7265   -1.8394   -5.9372 C   0  0  0  0  0  0  0  0  0  0  0  0
   -1.6179    2.6362   -6.5909 O   0  0  0  0  0  0  0  0  0  0  0  0
   -1.6754    2.8986   -7.9944 C   0  0  0  0  0  0  0  0  0  0  0  0
   -0.5515   -3.7163   -2.7046 H   0  0  0  0  0  0  0  0  0  0  0  0
    0.4112   -2.3097   -3.2176 H   0  0  0  0  0  0  0  0  0  0  0  0
    1.1685   -3.6051   -2.2601 H   0  0  0  0  0  0  0  0  0  0  0  0
   -1.4402    0.5692   -0.0452 H   0  0  0  0  0  0  0  0  0  0  0  0
    1.0237   -5.4418    3.8601 H   0  0  0  0  0  0  0  0  0  0  0  0
    0.3852   -4.0642    4.5795 H   0  0  0  0  0  0  0  0  0  0  0  0
    1.8469   -5.4356   -0.8617 H   0  0  0  0  0  0  0  0  0  0  0  0
    0.4483   -4.9476   -1.6545 H   0  0  0  0  0  0  0  0  0  0  0  0
   -1.3451   -1.0836   -3.2109 H   0  0  0  0  0  0  0  0  0  0  0  0
   -1.5778    0.4668   -2.3679 H   0  0  0  0  0  0  0  0  0  0  0  0
    1.0994    0.9511   -1.2612 H   0  0  0  0  0  0  0  0  0  0  0  0
    1.7641    1.6582   -2.7533 H   0  0  0  0  0  0  0  0  0  0  0  0
    0.0965    2.0334   -2.2566 H   0  0  0  0  0  0  0  0  0  0  0  0
   -1.2543    1.8926   -4.1075 H   0  0  0  0  0  0  0  0  0  0  0  0
   -0.0296    1.2624   -8.1519 H   0  0  0  0  0  0  0  0  0  0  0  0
    1.5674   -0.4553   -7.4062 H   0  0  0  0  0  0  0  0  0  0  0  0
    3.3230   -1.0933   -6.4622 H   0  0  0  0  0  0  0  0  0  0  0  0
    3.3869   -2.5734   -5.4755 H   0  0  0  0  0  0  0  0  0  0  0  0
    2.0655   -2.3398   -6.6450 H   0  0  0  0  0  0  0  0  0  0  0  0
   -0.6983    3.2346   -8.3415 H   0  0  0  0  0  0  0  0  0  0  0  0
   -1.9552    1.9875   -8.5232 H   0  0  0  0  0  0  0  0  0  0  0  0
   -2.4164    3.6738   -8.1891 H   0  0  0  0  0  0  0  0  0  0  0  0
   -0.0983   -2.7500    2.5217 N   0  3  0  0  0  0  0  0  0  0  0  0
   -0.3351   -2.2989    3.3822 H   0  0  0  0  0  0  0  0  0  0  0  0
  1  2  1  0  0  0  0
  1 26  1  0  0  0  0
  1 27  1  0  0  0  0
  1 28  1  0  0  0  0
  2  7  2  0  0  0  0
  2  3  1  0  0  0  0
  3  4  2  0  0  0  0
  3 13  1  0  0  0  0
  4  5  1  0  0  0  0
  4 29  1  0  0  0  0
  5  6  2  0  0  0  0
  6  7  1  0  0  0  0
  6 48  1  0  0  0  0
  7  8  1  0  0  0  0
  8  9  2  0  0  0  0
  8 12  1  0  0  0  0
  9 10  1  0  0  0  0
 10 11  1  0  0  0  0
 10 48  2  0  0  0  0
 11 30  1  0  0  0  0
 11 31  1  0  0  0  0
 12 32  1  0  0  0  0
 12 33  1  0  0  0  0
 13 14  1  0  0  0  0
 13 34  1  0  0  0  0
 13 35  1  0  0  0  0
 14 15  1  0  0  0  0
 14 16  1  0  0  0  0
 15 36  1  0  0  0  0
 15 37  1  0  0  0  0
 15 38  1  0  0  0  0
 16 21  2  0  0  0  0
 16 17  1  0  0  0  0
 17 18  2  0  0  0  0
 17 39  1  0  0  0  0
 18 19  1  0  0  0  0
 18 24  1  0  0  0  0
 19 20  2  0  0  0  0
 19 40  1  0  0  0  0
 20 21  1  0  0  0  0
 20 41  1  0  0  0  0
 21 22  1  0  0  0  0
 22 23  1  0  0  0  0
 23 42  1  0  0  0  0
 23 43  1  0  0  0  0
 23 44  1  0  0  0  0
 24 25  1  0  0  0  0
 25 45  1  0  0  0  0
 25 46  1  0  0  0  0
 25 47  1  0  0  0  0
 48 49  1  0  0  0  0
M  CHG  1  48   1
M  END
$$$$
ZINC03814954
  -OEChem-08230709403D

 48 50  0     1  0  0  0  0  0999 V2000
    5.1292    1.5771   -1.1433 C   0  0  0  0  0  0  0  0  0  0  0  0
    5.1035    0.0982   -0.8552 C   0  0  0  0  0  0  0  0  0  0  0  0
    4.0319   -0.4794   -0.2256 C   0  0  0  0  0  0  0  0  0  0  0  0
    4.0352   -1.8442    0.0341 C   0  0  0  0  0  0  0  0  0  0  0  0
    5.0410   -2.6135   -0.3185 N   0  0  0  0  0  0  0  0  0  0  0  0
    6.1121   -2.1118   -0.9337 C   0  0  0  0  0  0  0  0  0  0  0  0
    6.1733   -0.7260   -1.2222 C   0  0  0  0  0  0  0  0  0  0  0  0
    7.3237   -0.2208   -1.8772 C   0  0  0  0  0  0  0  0  0  0  0  0
    8.2915   -1.0705   -2.1903 N   0  0  0  0  0  0  0  0  0  0  0  0
    8.1945   -2.3650   -1.9014 C   0  0  0  0  0  0  0  0  0  0  0  0
    7.1457   -2.8863   -1.2930 N   0  0  0  0  0  0  0  0  0  0  0  0
    9.2373   -3.2006   -2.2533 N   0  0  0  0  0  0  0  0  0  0  0  0
    7.4336    1.1185   -2.1801 N   0  0  0  0  0  0  0  0  0  0  0  0
    2.8550    0.3653    0.1897 C   0  0  0  0  0  0  0  0  0  0  0  0
    3.2199    1.1705    1.3629 N   0  0  2  0  0  0  0  0  0  0  0  0
    3.3503    0.3284    2.5595 C   0  0  0  0  0  0  0  0  0  0  0  0
    2.2931    2.2017    1.5727 C   0  0  0  0  0  0  0  0  0  0  0  0
    0.9595    1.8999    1.8044 C   0  0  0  0  0  0  0  0  0  0  0  0
    0.0450    2.9166    2.0060 C   0  0  0  0  0  0  0  0  0  0  0  0
    0.4606    4.2396    1.9884 C   0  0  0  0  0  0  0  0  0  0  0  0
    1.7932    4.5463    1.7570 C   0  0  0  0  0  0  0  0  0  0  0  0
    2.7109    3.5301    1.5490 C   0  0  0  0  0  0  0  0  0  0  0  0
    4.0183    3.8289    1.3225 O   0  0  0  0  0  0  0  0  0  0  0  0
    4.3751    5.2126    1.3121 C   0  0  0  0  0  0  0  0  0  0  0  0
   -0.4405    5.2374    2.1926 O   0  0  0  0  0  0  0  0  0  0  0  0
   -1.7962    4.8498    2.4249 C   0  0  0  0  0  0  0  0  0  0  0  0
    5.6864    2.0903   -0.3595 H   0  0  0  0  0  0  0  0  0  0  0  0
    5.6110    1.7516   -2.1053 H   0  0  0  0  0  0  0  0  0  0  0  0
    4.1088    1.9593   -1.1733 H   0  0  0  0  0  0  0  0  0  0  0  0
    3.1865   -2.2858    0.5353 H   0  0  0  0  0  0  0  0  0  0  0  0
   10.0183   -2.8394   -2.7010 H   0  0  0  0  0  0  0  0  0  0  0  0
    9.1883   -4.1483   -2.0525 H   0  0  0  0  0  0  0  0  0  0  0  0
    7.1556    1.7864   -1.5339 H   0  0  0  0  0  0  0  0  0  0  0  0
    7.7890    1.3938   -3.0397 H   0  0  0  0  0  0  0  0  0  0  0  0
    2.0140   -0.2813    0.4401 H   0  0  0  0  0  0  0  0  0  0  0  0
    2.5741    1.0254   -0.6309 H   0  0  0  0  0  0  0  0  0  0  0  0
    2.4108   -0.1939    2.7403 H   0  0  0  0  0  0  0  0  0  0  0  0
    4.1470   -0.3996    2.4064 H   0  0  0  0  0  0  0  0  0  0  0  0
    3.5898    0.9537    3.4195 H   0  0  0  0  0  0  0  0  0  0  0  0
    0.6346    0.8701    1.8229 H   0  0  0  0  0  0  0  0  0  0  0  0
   -0.9940    2.6801    2.1819 H   0  0  0  0  0  0  0  0  0  0  0  0
    2.1150    5.5771    1.7388 H   0  0  0  0  0  0  0  0  0  0  0  0
    3.8174    5.7258    0.5288 H   0  0  0  0  0  0  0  0  0  0  0  0
    4.1365    5.6566    2.2786 H   0  0  0  0  0  0  0  0  0  0  0  0
    5.4438    5.3108    1.1212 H   0  0  0  0  0  0  0  0  0  0  0  0
   -2.4084    5.7395    2.5721 H   0  0  0  0  0  0  0  0  0  0  0  0
   -2.1670    4.2918    1.5651 H   0  0  0  0  0  0  0  0  0  0  0  0
   -1.8473    4.2224    3.3148 H   0  0  0  0  0  0  0  0  0  0  0  0
  1  2  1  0  0  0  0
  1 27  1  0  0  0  0
  1 28  1  0  0  0  0
  1 29  1  0  0  0  0
  2  7  2  0  0  0  0
  2  3  1  0  0  0  0
  3  4  2  0  0  0  0
  3 14  1  0  0  0  0
  4  5  1  0  0  0  0
  4 30  1  0  0  0  0
  5  6  2  0  0  0  0
  6 11  1  0  0  0  0
  6  7  1  0  0  0  0
  7  8  1  0  0  0  0
  8  9  2  0  0  0  0
  8 13  1  0  0  0  0
  9 10  1  0  0  0  0
 10 11  2  0  0  0  0
 10 12  1  0  0  0  0
 12 31  1  0  0  0  0
 12 32  1  0  0  0  0
 13 33  1  0  0  0  0
 13 34  1  0  0  0  0
 14 15  1  0  0  0  0
 14 35  1  0  0  0  0
 14 36  1  0  0  0  0
 15 16  1  0  0  0  0
 15 17  1  0  0  0  0
 16 37  1  0  0  0  0
 16 38  1  0  0  0  0
 16 39  1  0  0  0  0
 17 22  2  0  0  0  0
 17 18  1  0  0  0  0
 18 19  2  0  0  0  0
 18 40  1  0  0  0  0
 19 20  1  0  0  0  0
 19 41  1  0  0  0  0
 20 21  2  0  0  0  0
 20 25  1  0  0  0  0
 21 22  1  0  0  0  0
 21 42  1  0  0  0  0
 22 23  1  0  0  0  0
 23 24  1  0  0  0  0
 24 43  1  0  0  0  0
 24 44  1  0  0  0  0
 24 45  1  0  0  0  0
 25 26  1  0  0  0  0
 26 46  1  0  0  0  0
 26 47  1  0  0  0  0
 26 48  1  0  0  0  0
M  END
$$$$
ZINC03814954
  -OEChem-08230709403D

 49 51  0     1  0  0  0  0  0999 V2000
    5.1292    1.5771   -1.1433 C   0  0  0  0  0  0  0  0  0  0  0  0
    5.1035    0.0982   -0.8552 C   0  0  0  0  0  0  0  0  0  0  0  0
    4.0319   -0.4794   -0.2256 C   0  0  0  0  0  0  0  0  0  0  0  0
    4.0352   -1.8442    0.0341 C   0  0  0  0  0  0  0  0  0  0  0  0
    5.0410   -2.6135   -0.3185 N   0  0  0  0  0  0  0  0  0  0  0  0
    6.1121   -2.1118   -0.9337 C   0  0  0  0  0  0  0  0  0  0  0  0
    6.1733   -0.7260   -1.2222 C   0  0  0  0  0  0  0  0  0  0  0  0
    7.3237   -0.2208   -1.8772 C   0  0  0  0  0  0  0  0  0  0  0  0
    8.2915   -1.0705   -2.1903 N   0  0  0  0  0  0  0  0  0  0  0  0
    8.1945   -2.3650   -1.9014 C   0  0  0  0  0  0  0  0  0  0  0  0
    9.2373   -3.2006   -2.2533 N   0  0  0  0  0  0  0  0  0  0  0  0
    7.4336    1.1185   -2.1801 N   0  0  0  0  0  0  0  0  0  0  0  0
    2.8550    0.3653    0.1897 C   0  0  0  0  0  0  0  0  0  0  0  0
    3.2199    1.1705    1.3629 N   0  0  2  0  0  0  0  0  0  0  0  0
    3.3503    0.3284    2.5595 C   0  0  0  0  0  0  0  0  0  0  0  0
    2.2931    2.2017    1.5727 C   0  0  0  0  0  0  0  0  0  0  0  0
    0.9595    1.8999    1.8044 C   0  0  0  0  0  0  0  0  0  0  0  0
    0.0450    2.9166    2.0060 C   0  0  0  0  0  0  0  0  0  0  0  0
    0.4606    4.2396    1.9884 C   0  0  0  0  0  0  0  0  0  0  0  0
    1.7932    4.5463    1.7570 C   0  0  0  0  0  0  0  0  0  0  0  0
    2.7109    3.5301    1.5490 C   0  0  0  0  0  0  0  0  0  0  0  0
    4.0183    3.8289    1.3225 O   0  0  0  0  0  0  0  0  0  0  0  0
    4.3751    5.2126    1.3121 C   0  0  0  0  0  0  0  0  0  0  0  0
   -0.4405    5.2374    2.1926 O   0  0  0  0  0  0  0  0  0  0  0  0
   -1.7962    4.8498    2.4249 C   0  0  0  0  0  0  0  0  0  0  0  0
    5.6864    2.0903   -0.3595 H   0  0  0  0  0  0  0  0  0  0  0  0
    5.6110    1.7516   -2.1053 H   0  0  0  0  0  0  0  0  0  0  0  0
    4.1088    1.9593   -1.1733 H   0  0  0  0  0  0  0  0  0  0  0  0
    3.1865   -2.2858    0.5353 H   0  0  0  0  0  0  0  0  0  0  0  0
   10.0183   -2.8394   -2.7010 H   0  0  0  0  0  0  0  0  0  0  0  0
    9.1883   -4.1483   -2.0525 H   0  0  0  0  0  0  0  0  0  0  0  0
    7.1556    1.7864   -1.5339 H   0  0  0  0  0  0  0  0  0  0  0  0
    7.7890    1.3938   -3.0397 H   0  0  0  0  0  0  0  0  0  0  0  0
    2.0140   -0.2813    0.4401 H   0  0  0  0  0  0  0  0  0  0  0  0
    2.5741    1.0254   -0.6309 H   0  0  0  0  0  0  0  0  0  0  0  0
    2.4108   -0.1939    2.7403 H   0  0  0  0  0  0  0  0  0  0  0  0
    4.1470   -0.3996    2.4064 H   0  0  0  0  0  0  0  0  0  0  0  0
    3.5898    0.9537    3.4195 H   0  0  0  0  0  0  0  0  0  0  0  0
    0.6346    0.8701    1.8229 H   0  0  0  0  0  0  0  0  0  0  0  0
   -0.9940    2.6801    2.1819 H   0  0  0  0  0  0  0  0  0  0  0  0
    2.1150    5.5771    1.7388 H   0  0  0  0  0  0  0  0  0  0  0  0
    3.8174    5.7258    0.5288 H   0  0  0  0  0  0  0  0  0  0  0  0
    4.1365    5.6566    2.2786 H   0  0  0  0  0  0  0  0  0  0  0  0
    5.4438    5.3108    1.1212 H   0  0  0  0  0  0  0  0  0  0  0  0
   -2.4084    5.7395    2.5721 H   0  0  0  0  0  0  0  0  0  0  0  0
   -2.1670    4.2918    1.5651 H   0  0  0  0  0  0  0  0  0  0  0  0
   -1.8473    4.2224    3.3148 H   0  0  0  0  0  0  0  0  0  0  0  0
    7.1442   -2.9571   -1.2791 N   0  3  0  0  0  0  0  0  0  0  0  0
    7.1579   -3.9412   -1.1022 H   0  0  0  0  0  0  0  0  0  0  0  0
  1  2  1  0  0  0  0
  1 26  1  0  0  0  0
  1 27  1  0  0  0  0
  1 28  1  0  0  0  0
  2  7  2  0  0  0  0
  2  3  1  0  0  0  0
  3  4  2  0  0  0  0
  3 13  1  0  0  0  0
  4  5  1  0  0  0  0
  4 29  1  0  0  0  0
  5  6  2  0  0  0  0
  6  7  1  0  0  0  0
  6 48  1  0  0  0  0
  7  8  1  0  0  0  0
  8  9  2  0  0  0  0
  8 12  1  0  0  0  0
  9 10  1  0  0  0  0
 10 11  1  0  0  0  0
 10 48  2  0  0  0  0
 11 30  1  0  0  0  0
 11 31  1  0  0  0  0
 12 32  1  0  0  0  0
 12 33  1  0  0  0  0
 13 14  1  0  0  0  0
 13 34  1  0  0  0  0
 13 35  1  0  0  0  0
 14 15  1  0  0  0  0
 14 16  1  0  0  0  0
 15 36  1  0  0  0  0
 15 37  1  0  0  0  0
 15 38  1  0  0  0  0
 16 21  2  0  0  0  0
 16 17  1  0  0  0  0
 17 18  2  0  0  0  0
 17 39  1  0  0  0  0
 18 19  1  0  0  0  0
 18 40  1  0  0  0  0
 19 20  2  0  0  0  0
 19 24  1  0  0  0  0
 20 21  1  0  0  0  0
 20 41  1  0  0  0  0
 21 22  1  0  0  0  0
 22 23  1  0  0  0  0
 23 42  1  0  0  0  0
 23 43  1  0  0  0  0
 23 44  1  0  0  0  0
 24 25  1  0  0  0  0
 25 45  1  0  0  0  0
 25 46  1  0  0  0  0
 25 47  1  0  0  0  0
 48 49  1  0  0  0  0
M  CHG  1  48   1
M  END
$$$$
ZINC03814955
  -OEChem-08230709403D

 54 56  0     1  0  0  0  0  0999 V2000
    3.1123    2.8096    0.2275 C   0  0  0  0  0  0  0  0  0  0  0  0
    2.2139    3.0314   -0.9619 C   0  0  0  0  0  0  0  0  0  0  0  0
    1.3036    2.0813   -1.3453 C   0  0  0  0  0  0  0  0  0  0  0  0
    0.4910    2.3073   -2.4493 C   0  0  0  0  0  0  0  0  0  0  0  0
    0.5588    3.4223   -3.1420 N   0  0  0  0  0  0  0  0  0  0  0  0
    1.4234    4.3846   -2.8196 C   0  0  0  0  0  0  0  0  0  0  0  0
    2.2847    4.2134   -1.7077 C   0  0  0  0  0  0  0  0  0  0  0  0
    3.1930    5.2529   -1.3883 C   0  0  0  0  0  0  0  0  0  0  0  0
    3.1946    6.3399   -2.1467 N   0  0  0  0  0  0  0  0  0  0  0  0
    2.3690    6.4610   -3.1823 C   0  0  0  0  0  0  0  0  0  0  0  0
    1.5047    5.5234   -3.5224 N   0  0  0  0  0  0  0  0  0  0  0  0
    2.4187    7.6185   -3.9352 N   0  0  0  0  0  0  0  0  0  0  0  0
    4.0523    5.1365   -0.3179 N   0  0  0  0  0  0  0  0  0  0  0  0
    1.1887    0.7913   -0.5747 C   0  0  0  0  0  0  0  0  0  0  0  0
    0.2661    0.9741    0.5486 N   0  0  3  0  0  0  0  0  0  0  0  0
    0.7871    1.2948    1.8797 C   0  0  0  0  0  0  0  0  0  0  0  0
    0.7447    2.7518    2.0853 C   0  0  0  0  0  0  0  0  0  0  0  0
    0.7109    3.9138    2.2492 C   0  0  0  0  0  0  0  0  0  0  0  0
   -1.1125    0.8424    0.3500 C   0  0  0  0  0  0  0  0  0  0  0  0
   -1.5995    0.4275   -0.8821 C   0  0  0  0  0  0  0  0  0  0  0  0
   -2.9651    0.2921   -1.0781 C   0  0  0  0  0  0  0  0  0  0  0  0
   -3.8472    0.5815   -0.0440 C   0  0  0  0  0  0  0  0  0  0  0  0
   -3.3593    1.0018    1.1874 C   0  0  0  0  0  0  0  0  0  0  0  0
   -1.9932    1.1321    1.3834 C   0  0  0  0  0  0  0  0  0  0  0  0
   -4.2217    1.2857    2.1998 O   0  0  0  0  0  0  0  0  0  0  0  0
   -3.6506    1.7128    3.4381 C   0  0  0  0  0  0  0  0  0  0  0  0
   -5.1892    0.4528   -0.2372 O   0  0  0  0  0  0  0  0  0  0  0  0
   -5.8885    1.6022   -0.7187 C   0  0  0  0  0  0  0  0  0  0  0  0
   -3.4417   -0.1194   -2.2835 O   0  0  0  0  0  0  0  0  0  0  0  0
   -2.4773   -0.5017   -3.2662 C   0  0  0  0  0  0  0  0  0  0  0  0
    4.0845    2.4532   -0.1130 H   0  0  0  0  0  0  0  0  0  0  0  0
    3.2381    3.7479    0.7678 H   0  0  0  0  0  0  0  0  0  0  0  0
    2.6642    2.0672    0.8880 H   0  0  0  0  0  0  0  0  0  0  0  0
   -0.2187    1.5482   -2.7436 H   0  0  0  0  0  0  0  0  0  0  0  0
    3.0464    8.3210   -3.7039 H   0  0  0  0  0  0  0  0  0  0  0  0
    1.8260    7.7287   -4.6951 H   0  0  0  0  0  0  0  0  0  0  0  0
    4.4948    4.2917   -0.1408 H   0  0  0  0  0  0  0  0  0  0  0  0
    4.2149    5.8994    0.2587 H   0  0  0  0  0  0  0  0  0  0  0  0
    0.8106    0.0081   -1.2316 H   0  0  0  0  0  0  0  0  0  0  0  0
    2.1701    0.5057   -0.1960 H   0  0  0  0  0  0  0  0  0  0  0  0
    0.1765    0.8032    2.6370 H   0  0  0  0  0  0  0  0  0  0  0  0
    1.8166    0.9463    1.9606 H   0  0  0  0  0  0  0  0  0  0  0  0
    0.6807    4.9531    2.3958 H   0  0  0  0  0  0  0  0  0  0  0  0
   -0.9141    0.2065   -1.6869 H   0  0  0  0  0  0  0  0  0  0  0  0
   -1.6138    1.4588    2.3404 H   0  0  0  0  0  0  0  0  0  0  0  0
   -2.9934    0.9331    3.8231 H   0  0  0  0  0  0  0  0  0  0  0  0
   -3.0765    2.6254    3.2778 H   0  0  0  0  0  0  0  0  0  0  0  0
   -4.4461    1.9057    4.1578 H   0  0  0  0  0  0  0  0  0  0  0  0
   -5.4804    1.8972   -1.6854 H   0  0  0  0  0  0  0  0  0  0  0  0
   -6.9465    1.3643   -0.8282 H   0  0  0  0  0  0  0  0  0  0  0  0
   -5.7719    2.4219   -0.0097 H   0  0  0  0  0  0  0  0  0  0  0  0
   -1.7832    0.3219   -3.4338 H   0  0  0  0  0  0  0  0  0  0  0  0
   -1.9272   -1.3747   -2.9151 H   0  0  0  0  0  0  0  0  0  0  0  0
   -2.9859   -0.7439   -4.1994 H   0  0  0  0  0  0  0  0  0  0  0  0
  1  2  1  0  0  0  0
  1 31  1  0  0  0  0
  1 32  1  0  0  0  0
  1 33  1  0  0  0  0
  2  7  2  0  0  0  0
  2  3  1  0  0  0  0
  3  4  2  0  0  0  0
  3 14  1  0  0  0  0
  4  5  1  0  0  0  0
  4 34  1  0  0  0  0
  5  6  2  0  0  0  0
  6 11  1  0  0  0  0
  6  7  1  0  0  0  0
  7  8  1  0  0  0  0
  8  9  2  0  0  0  0
  8 13  1  0  0  0  0
  9 10  1  0  0  0  0
 10 11  2  0  0  0  0
 10 12  1  0  0  0  0
 12 35  1  0  0  0  0
 12 36  1  0  0  0  0
 13 37  1  0  0  0  0
 13 38  1  0  0  0  0
 14 15  1  0  0  0  0
 14 39  1  0  0  0  0
 14 40  1  0  0  0  0
 15 16  1  0  0  0  0
 15 19  1  0  0  0  0
 16 17  1  0  0  0  0
 16 41  1  0  0  0  0
 16 42  1  0  0  0  0
 17 18  3  0  0  0  0
 18 43  1  0  0  0  0
 19 24  2  0  0  0  0
 19 20  1  0  0  0  0
 20 21  2  0  0  0  0
 20 44  1  0  0  0  0
 21 22  1  0  0  0  0
 21 29  1  0  0  0  0
 22 23  2  0  0  0  0
 22 27  1  0  0  0  0
 23 24  1  0  0  0  0
 23 25  1  0  0  0  0
 24 45  1  0  0  0  0
 25 26  1  0  0  0  0
 26 46  1  0  0  0  0
 26 47  1  0  0  0  0
 26 48  1  0  0  0  0
 27 28  1  0  0  0  0
 28 49  1  0  0  0  0
 28 50  1  0  0  0  0
 28 51  1  0  0  0  0
 29 30  1  0  0  0  0
 30 52  1  0  0  0  0
 30 53  1  0  0  0  0
 30 54  1  0  0  0  0
M  END
$$$$
ZINC03814955
  -OEChem-08230709403D

 55 57  0     1  0  0  0  0  0999 V2000
    3.1123    2.8096    0.2275 C   0  0  0  0  0  0  0  0  0  0  0  0
    2.2139    3.0314   -0.9619 C   0  0  0  0  0  0  0  0  0  0  0  0
    1.3036    2.0813   -1.3453 C   0  0  0  0  0  0  0  0  0  0  0  0
    0.4910    2.3073   -2.4493 C   0  0  0  0  0  0  0  0  0  0  0  0
    0.5588    3.4223   -3.1420 N   0  0  0  0  0  0  0  0  0  0  0  0
    1.4234    4.3846   -2.8196 C   0  0  0  0  0  0  0  0  0  0  0  0
    2.2847    4.2134   -1.7077 C   0  0  0  0  0  0  0  0  0  0  0  0
    3.1930    5.2529   -1.3883 C   0  0  0  0  0  0  0  0  0  0  0  0
    3.1946    6.3399   -2.1467 N   0  0  0  0  0  0  0  0  0  0  0  0
    2.3690    6.4610   -3.1823 C   0  0  0  0  0  0  0  0  0  0  0  0
    2.4187    7.6185   -3.9352 N   0  0  0  0  0  0  0  0  0  0  0  0
    4.0523    5.1365   -0.3179 N   0  0  0  0  0  0  0  0  0  0  0  0
    1.1887    0.7913   -0.5747 C   0  0  0  0  0  0  0  0  0  0  0  0
    0.2661    0.9741    0.5486 N   0  0  3  0  0  0  0  0  0  0  0  0
    0.7871    1.2948    1.8797 C   0  0  0  0  0  0  0  0  0  0  0  0
    0.7447    2.7518    2.0853 C   0  0  0  0  0  0  0  0  0  0  0  0
    0.7109    3.9138    2.2492 C   0  0  0  0  0  0  0  0  0  0  0  0
   -1.1125    0.8424    0.3500 C   0  0  0  0  0  0  0  0  0  0  0  0
   -1.5995    0.4275   -0.8821 C   0  0  0  0  0  0  0  0  0  0  0  0
   -2.9651    0.2921   -1.0781 C   0  0  0  0  0  0  0  0  0  0  0  0
   -3.8472    0.5815   -0.0440 C   0  0  0  0  0  0  0  0  0  0  0  0
   -3.3593    1.0018    1.1874 C   0  0  0  0  0  0  0  0  0  0  0  0
   -1.9932    1.1321    1.3834 C   0  0  0  0  0  0  0  0  0  0  0  0
   -4.2217    1.2857    2.1998 O   0  0  0  0  0  0  0  0  0  0  0  0
   -3.6506    1.7128    3.4381 C   0  0  0  0  0  0  0  0  0  0  0  0
   -5.1892    0.4528   -0.2372 O   0  0  0  0  0  0  0  0  0  0  0  0
   -5.8885    1.6022   -0.7187 C   0  0  0  0  0  0  0  0  0  0  0  0
   -3.4417   -0.1194   -2.2835 O   0  0  0  0  0  0  0  0  0  0  0  0
   -2.4773   -0.5017   -3.2662 C   0  0  0  0  0  0  0  0  0  0  0  0
    4.0845    2.4532   -0.1130 H   0  0  0  0  0  0  0  0  0  0  0  0
    3.2381    3.7479    0.7678 H   0  0  0  0  0  0  0  0  0  0  0  0
    2.6642    2.0672    0.8880 H   0  0  0  0  0  0  0  0  0  0  0  0
   -0.2187    1.5482   -2.7436 H   0  0  0  0  0  0  0  0  0  0  0  0
    3.0464    8.3210   -3.7039 H   0  0  0  0  0  0  0  0  0  0  0  0
    1.8260    7.7287   -4.6951 H   0  0  0  0  0  0  0  0  0  0  0  0
    4.4948    4.2917   -0.1408 H   0  0  0  0  0  0  0  0  0  0  0  0
    4.2149    5.8994    0.2587 H   0  0  0  0  0  0  0  0  0  0  0  0
    0.8106    0.0081   -1.2316 H   0  0  0  0  0  0  0  0  0  0  0  0
    2.1701    0.5057   -0.1960 H   0  0  0  0  0  0  0  0  0  0  0  0
    0.1765    0.8032    2.6370 H   0  0  0  0  0  0  0  0  0  0  0  0
    1.8166    0.9463    1.9606 H   0  0  0  0  0  0  0  0  0  0  0  0
    0.6807    4.9531    2.3958 H   0  0  0  0  0  0  0  0  0  0  0  0
   -0.9141    0.2065   -1.6869 H   0  0  0  0  0  0  0  0  0  0  0  0
   -1.6138    1.4588    2.3404 H   0  0  0  0  0  0  0  0  0  0  0  0
   -2.9934    0.9331    3.8231 H   0  0  0  0  0  0  0  0  0  0  0  0
   -3.0765    2.6254    3.2778 H   0  0  0  0  0  0  0  0  0  0  0  0
   -4.4461    1.9057    4.1578 H   0  0  0  0  0  0  0  0  0  0  0  0
   -5.4804    1.8972   -1.6854 H   0  0  0  0  0  0  0  0  0  0  0  0
   -6.9465    1.3643   -0.8282 H   0  0  0  0  0  0  0  0  0  0  0  0
   -5.7719    2.4219   -0.0097 H   0  0  0  0  0  0  0  0  0  0  0  0
   -1.7832    0.3219   -3.4338 H   0  0  0  0  0  0  0  0  0  0  0  0
   -1.9272   -1.3747   -2.9151 H   0  0  0  0  0  0  0  0  0  0  0  0
   -2.9859   -0.7439   -4.1994 H   0  0  0  0  0  0  0  0  0  0  0  0
    1.4616    5.5338   -3.5793 N   0  3  0  0  0  0  0  0  0  0  0  0
    0.8801    5.7112   -4.3734 H   0  0  0  0  0  0  0  0  0  0  0  0
  1  2  1  0  0  0  0
  1 30  1  0  0  0  0
  1 31  1  0  0  0  0
  1 32  1  0  0  0  0
  2  7  2  0  0  0  0
  2  3  1  0  0  0  0
  3  4  2  0  0  0  0
  3 13  1  0  0  0  0
  4  5  1  0  0  0  0
  4 33  1  0  0  0  0
  5  6  2  0  0  0  0
  6  7  1  0  0  0  0
  6 54  1  0  0  0  0
  7  8  1  0  0  0  0
  8  9  2  0  0  0  0
  8 12  1  0  0  0  0
  9 10  1  0  0  0  0
 10 11  1  0  0  0  0
 10 54  2  0  0  0  0
 11 34  1  0  0  0  0
 11 35  1  0  0  0  0
 12 36  1  0  0  0  0
 12 37  1  0  0  0  0
 13 14  1  0  0  0  0
 13 38  1  0  0  0  0
 13 39  1  0  0  0  0
 14 15  1  0  0  0  0
 14 18  1  0  0  0  0
 15 16  1  0  0  0  0
 15 40  1  0  0  0  0
 15 41  1  0  0  0  0
 16 17  3  0  0  0  0
 17 42  1  0  0  0  0
 18 23  2  0  0  0  0
 18 19  1  0  0  0  0
 19 20  2  0  0  0  0
 19 43  1  0  0  0  0
 20 21  1  0  0  0  0
 20 28  1  0  0  0  0
 21 22  2  0  0  0  0
 21 26  1  0  0  0  0
 22 23  1  0  0  0  0
 22 24  1  0  0  0  0
 23 44  1  0  0  0  0
 24 25  1  0  0  0  0
 25 45  1  0  0  0  0
 25 46  1  0  0  0  0
 25 47  1  0  0  0  0
 26 27  1  0  0  0  0
 27 48  1  0  0  0  0
 27 49  1  0  0  0  0
 27 50  1  0  0  0  0
 28 29  1  0  0  0  0
 29 51  1  0  0  0  0
 29 52  1  0  0  0  0
 29 53  1  0  0  0  0
 54 55  1  0  0  0  0
M  CHG  1  54   1
M  END
$$$$
ZINC03814956
  -OEChem-08230709403D

 55 57  0     1  0  0  0  0  0999 V2000
   -0.6542    4.8508   -1.0483 C   0  0  0  0  0  0  0  0  0  0  0  0
    0.3301    3.6798   -1.0754 C   0  0  0  0  0  0  0  0  0  0  0  0
    0.1691    2.8783    0.1403 N   0  0  3  0  0  0  0  0  0  0  0  0
   -0.7791    1.7617    0.1612 C   0  0  0  0  0  0  0  0  0  0  0  0
   -0.3363    0.7081   -0.8211 C   0  0  0  0  0  0  0  0  0  0  0  0
   -0.9191    0.6421   -2.0811 C   0  0  0  0  0  0  0  0  0  0  0  0
   -0.5553   -0.2594   -2.9655 N   0  0  0  0  0  0  0  0  0  0  0  0
    0.3866   -1.1610   -2.6860 C   0  0  0  0  0  0  0  0  0  0  0  0
    1.0161   -1.1509   -1.4168 C   0  0  0  0  0  0  0  0  0  0  0  0
    0.6376   -0.1900   -0.4718 C   0  0  0  0  0  0  0  0  0  0  0  0
    1.2820   -0.1451    0.8898 C   0  0  0  0  0  0  0  0  0  0  0  0
    2.0134   -2.1202   -1.1479 C   0  0  0  0  0  0  0  0  0  0  0  0
    2.3121   -2.9940   -2.0990 N   0  0  0  0  0  0  0  0  0  0  0  0
    1.6972   -2.9691   -3.2775 C   0  0  0  0  0  0  0  0  0  0  0  0
    0.7615   -2.0880   -3.5786 N   0  0  0  0  0  0  0  0  0  0  0  0
    2.0526   -3.9066   -4.2284 N   0  0  0  0  0  0  0  0  0  0  0  0
    2.6558   -2.1542    0.0703 N   0  0  0  0  0  0  0  0  0  0  0  0
    0.9208    3.1791    1.2812 C   0  0  0  0  0  0  0  0  0  0  0  0
    0.6618    2.5214    2.4761 C   0  0  0  0  0  0  0  0  0  0  0  0
    1.4094    2.8156    3.6057 C   0  0  0  0  0  0  0  0  0  0  0  0
    2.4116    3.7763    3.5445 C   0  0  0  0  0  0  0  0  0  0  0  0
    2.6668    4.4380    2.3494 C   0  0  0  0  0  0  0  0  0  0  0  0
    1.9216    4.1393    1.2194 C   0  0  0  0  0  0  0  0  0  0  0  0
    3.6471    5.3786    2.2887 O   0  0  0  0  0  0  0  0  0  0  0  0
    3.8543    6.0192    1.0283 C   0  0  0  0  0  0  0  0  0  0  0  0
    3.1437    4.0688    4.6550 O   0  0  0  0  0  0  0  0  0  0  0  0
    2.6498    5.1081    5.5024 C   0  0  0  0  0  0  0  0  0  0  0  0
    1.1590    2.1675    4.7748 O   0  0  0  0  0  0  0  0  0  0  0  0
    0.1853    1.1221    4.7414 C   0  0  0  0  0  0  0  0  0  0  0  0
   -0.5344    5.4472   -1.9528 H   0  0  0  0  0  0  0  0  0  0  0  0
   -1.6734    4.4676   -0.9981 H   0  0  0  0  0  0  0  0  0  0  0  0
   -0.4561    5.4719   -0.1748 H   0  0  0  0  0  0  0  0  0  0  0  0
    1.3493    4.0630   -1.1256 H   0  0  0  0  0  0  0  0  0  0  0  0
    0.1320    3.0587   -1.9490 H   0  0  0  0  0  0  0  0  0  0  0  0
   -1.7704    2.1217   -0.1143 H   0  0  0  0  0  0  0  0  0  0  0  0
   -0.8136    1.3331    1.1628 H   0  0  0  0  0  0  0  0  0  0  0  0
   -1.6888    1.3534   -2.3419 H   0  0  0  0  0  0  0  0  0  0  0  0
    0.8010   -0.8726    1.5436 H   0  0  0  0  0  0  0  0  0  0  0  0
    2.3416   -0.3834    0.7983 H   0  0  0  0  0  0  0  0  0  0  0  0
    1.1693    0.8534    1.3123 H   0  0  0  0  0  0  0  0  0  0  0  0
    2.7375   -4.5640   -4.0291 H   0  0  0  0  0  0  0  0  0  0  0  0
    1.6173   -3.9074   -5.0952 H   0  0  0  0  0  0  0  0  0  0  0  0
    2.1587   -1.9835    0.8856 H   0  0  0  0  0  0  0  0  0  0  0  0
    3.6051   -2.3488    0.1128 H   0  0  0  0  0  0  0  0  0  0  0  0
   -0.1199    1.7778    2.5245 H   0  0  0  0  0  0  0  0  0  0  0  0
    2.1198    4.6535    0.2906 H   0  0  0  0  0  0  0  0  0  0  0  0
    2.9399    6.5291    0.7252 H   0  0  0  0  0  0  0  0  0  0  0  0
    4.6625    6.7450    1.1181 H   0  0  0  0  0  0  0  0  0  0  0  0
    4.1187    5.2719    0.2800 H   0  0  0  0  0  0  0  0  0  0  0  0
    3.3252    5.2393    6.3478 H   0  0  0  0  0  0  0  0  0  0  0  0
    2.5889    6.0387    4.9382 H   0  0  0  0  0  0  0  0  0  0  0  0
    1.6587    4.8390    5.8675 H   0  0  0  0  0  0  0  0  0  0  0  0
   -0.7557    1.5143    4.3556 H   0  0  0  0  0  0  0  0  0  0  0  0
    0.5368    0.3188    4.0940 H   0  0  0  0  0  0  0  0  0  0  0  0
    0.0321    0.7360    5.7491 H   0  0  0  0  0  0  0  0  0  0  0  0
  1  2  1  0  0  0  0
  1 30  1  0  0  0  0
  1 31  1  0  0  0  0
  1 32  1  0  0  0  0
  2  3  1  0  0  0  0
  2 33  1  0  0  0  0
  2 34  1  0  0  0  0
  3  4  1  0  0  0  0
  3 18  1  0  0  0  0
  4  5  1  0  0  0  0
  4 35  1  0  0  0  0
  4 36  1  0  0  0  0
  5 10  2  0  0  0  0
  5  6  1  0  0  0  0
  6  7  2  0  0  0  0
  6 37  1  0  0  0  0
  7  8  1  0  0  0  0
  8 15  2  0  0  0  0
  8  9  1  0  0  0  0
  9 10  1  0  0  0  0
  9 12  2  0  0  0  0
 10 11  1  0  0  0  0
 11 38  1  0  0  0  0
 11 39  1  0  0  0  0
 11 40  1  0  0  0  0
 12 13  1  0  0  0  0
 12 17  1  0  0  0  0
 13 14  2  0  0  0  0
 14 15  1  0  0  0  0
 14 16  1  0  0  0  0
 16 41  1  0  0  0  0
 16 42  1  0  0  0  0
 17 43  1  0  0  0  0
 17 44  1  0  0  0  0
 18 23  2  0  0  0  0
 18 19  1  0  0  0  0
 19 20  2  0  0  0  0
 19 45  1  0  0  0  0
 20 21  1  0  0  0  0
 20 28  1  0  0  0  0
 21 22  2  0  0  0  0
 21 26  1  0  0  0  0
 22 23  1  0  0  0  0
 22 24  1  0  0  0  0
 23 46  1  0  0  0  0
 24 25  1  0  0  0  0
 25 47  1  0  0  0  0
 25 48  1  0  0  0  0
 25 49  1  0  0  0  0
 26 27  1  0  0  0  0
 27 50  1  0  0  0  0
 27 51  1  0  0  0  0
 27 52  1  0  0  0  0
 28 29  1  0  0  0  0
 29 53  1  0  0  0  0
 29 54  1  0  0  0  0
 29 55  1  0  0  0  0
M  END
$$$$
ZINC03814956
  -OEChem-08230709403D

 56 58  0     1  0  0  0  0  0999 V2000
   -0.6542    4.8508   -1.0483 C   0  0  0  0  0  0  0  0  0  0  0  0
    0.3301    3.6798   -1.0754 C   0  0  0  0  0  0  0  0  0  0  0  0
    0.1691    2.8783    0.1403 N   0  0  3  0  0  0  0  0  0  0  0  0
   -0.7791    1.7617    0.1612 C   0  0  0  0  0  0  0  0  0  0  0  0
   -0.3363    0.7081   -0.8211 C   0  0  0  0  0  0  0  0  0  0  0  0
   -0.9191    0.6421   -2.0811 C   0  0  0  0  0  0  0  0  0  0  0  0
   -0.5553   -0.2594   -2.9655 N   0  0  0  0  0  0  0  0  0  0  0  0
    0.3866   -1.1610   -2.6860 C   0  0  0  0  0  0  0  0  0  0  0  0
    1.0161   -1.1509   -1.4168 C   0  0  0  0  0  0  0  0  0  0  0  0
    0.6376   -0.1900   -0.4718 C   0  0  0  0  0  0  0  0  0  0  0  0
    1.2820   -0.1451    0.8898 C   0  0  0  0  0  0  0  0  0  0  0  0
    2.0134   -2.1202   -1.1479 C   0  0  0  0  0  0  0  0  0  0  0  0
    2.3121   -2.9940   -2.0990 N   0  0  0  0  0  0  0  0  0  0  0  0
    1.6972   -2.9691   -3.2775 C   0  0  0  0  0  0  0  0  0  0  0  0
    2.0526   -3.9066   -4.2284 N   0  0  0  0  0  0  0  0  0  0  0  0
    2.6558   -2.1542    0.0703 N   0  0  0  0  0  0  0  0  0  0  0  0
    0.9208    3.1791    1.2812 C   0  0  0  0  0  0  0  0  0  0  0  0
    0.6618    2.5214    2.4761 C   0  0  0  0  0  0  0  0  0  0  0  0
    1.4094    2.8156    3.6057 C   0  0  0  0  0  0  0  0  0  0  0  0
    2.4116    3.7763    3.5445 C   0  0  0  0  0  0  0  0  0  0  0  0
    2.6668    4.4380    2.3494 C   0  0  0  0  0  0  0  0  0  0  0  0
    1.9216    4.1393    1.2194 C   0  0  0  0  0  0  0  0  0  0  0  0
    3.6471    5.3786    2.2887 O   0  0  0  0  0  0  0  0  0  0  0  0
    3.8543    6.0192    1.0283 C   0  0  0  0  0  0  0  0  0  0  0  0
    3.1437    4.0688    4.6550 O   0  0  0  0  0  0  0  0  0  0  0  0
    2.6498    5.1081    5.5024 C   0  0  0  0  0  0  0  0  0  0  0  0
    1.1590    2.1675    4.7748 O   0  0  0  0  0  0  0  0  0  0  0  0
    0.1853    1.1221    4.7414 C   0  0  0  0  0  0  0  0  0  0  0  0
   -0.5344    5.4472   -1.9528 H   0  0  0  0  0  0  0  0  0  0  0  0
   -1.6734    4.4676   -0.9981 H   0  0  0  0  0  0  0  0  0  0  0  0
   -0.4561    5.4719   -0.1748 H   0  0  0  0  0  0  0  0  0  0  0  0
    1.3493    4.0630   -1.1256 H   0  0  0  0  0  0  0  0  0  0  0  0
    0.1320    3.0587   -1.9490 H   0  0  0  0  0  0  0  0  0  0  0  0
   -1.7704    2.1217   -0.1143 H   0  0  0  0  0  0  0  0  0  0  0  0
   -0.8136    1.3331    1.1628 H   0  0  0  0  0  0  0  0  0  0  0  0
   -1.6888    1.3534   -2.3419 H   0  0  0  0  0  0  0  0  0  0  0  0
    0.8010   -0.8726    1.5436 H   0  0  0  0  0  0  0  0  0  0  0  0
    2.3416   -0.3834    0.7983 H   0  0  0  0  0  0  0  0  0  0  0  0
    1.1693    0.8534    1.3123 H   0  0  0  0  0  0  0  0  0  0  0  0
    2.7375   -4.5640   -4.0291 H   0  0  0  0  0  0  0  0  0  0  0  0
    1.6173   -3.9074   -5.0952 H   0  0  0  0  0  0  0  0  0  0  0  0
    2.1587   -1.9835    0.8856 H   0  0  0  0  0  0  0  0  0  0  0  0
    3.6051   -2.3488    0.1128 H   0  0  0  0  0  0  0  0  0  0  0  0
   -0.1199    1.7778    2.5245 H   0  0  0  0  0  0  0  0  0  0  0  0
    2.1198    4.6535    0.2906 H   0  0  0  0  0  0  0  0  0  0  0  0
    2.9399    6.5291    0.7252 H   0  0  0  0  0  0  0  0  0  0  0  0
    4.6625    6.7450    1.1181 H   0  0  0  0  0  0  0  0  0  0  0  0
    4.1187    5.2719    0.2800 H   0  0  0  0  0  0  0  0  0  0  0  0
    3.3252    5.2393    6.3478 H   0  0  0  0  0  0  0  0  0  0  0  0
    2.5889    6.0387    4.9382 H   0  0  0  0  0  0  0  0  0  0  0  0
    1.6587    4.8390    5.8675 H   0  0  0  0  0  0  0  0  0  0  0  0
   -0.7557    1.5143    4.3556 H   0  0  0  0  0  0  0  0  0  0  0  0
    0.5368    0.3188    4.0940 H   0  0  0  0  0  0  0  0  0  0  0  0
    0.0321    0.7360    5.7491 H   0  0  0  0  0  0  0  0  0  0  0  0
    0.7304   -2.0900   -3.6437 N   0  3  0  0  0  0  0  0  0  0  0  0
    0.2750   -2.0824   -4.5339 H   0  0  0  0  0  0  0  0  0  0  0  0
  1  2  1  0  0  0  0
  1 29  1  0  0  0  0
  1 30  1  0  0  0  0
  1 31  1  0  0  0  0
  2  3  1  0  0  0  0
  2 32  1  0  0  0  0
  2 33  1  0  0  0  0
  3  4  1  0  0  0  0
  3 17  1  0  0  0  0
  4  5  1  0  0  0  0
  4 34  1  0  0  0  0
  4 35  1  0  0  0  0
  5 10  2  0  0  0  0
  5  6  1  0  0  0  0
  6  7  2  0  0  0  0
  6 36  1  0  0  0  0
  7  8  1  0  0  0  0
  8  9  2  0  0  0  0
  8 55  1  0  0  0  0
  9 10  1  0  0  0  0
  9 12  1  0  0  0  0
 10 11  1  0  0  0  0
 11 37  1  0  0  0  0
 11 38  1  0  0  0  0
 11 39  1  0  0  0  0
 12 13  2  0  0  0  0
 12 16  1  0  0  0  0
 13 14  1  0  0  0  0
 14 15  1  0  0  0  0
 14 55  2  0  0  0  0
 15 40  1  0  0  0  0
 15 41  1  0  0  0  0
 16 42  1  0  0  0  0
 16 43  1  0  0  0  0
 17 22  2  0  0  0  0
 17 18  1  0  0  0  0
 18 19  2  0  0  0  0
 18 44  1  0  0  0  0
 19 20  1  0  0  0  0
 19 27  1  0  0  0  0
 20 21  2  0  0  0  0
 20 25  1  0  0  0  0
 21 22  1  0  0  0  0
 21 23  1  0  0  0  0
 22 45  1  0  0  0  0
 23 24  1  0  0  0  0
 24 46  1  0  0  0  0
 24 47  1  0  0  0  0
 24 48  1  0  0  0  0
 25 26  1  0  0  0  0
 26 49  1  0  0  0  0
 26 50  1  0  0  0  0
 26 51  1  0  0  0  0
 27 28  1  0  0  0  0
 28 52  1  0  0  0  0
 28 53  1  0  0  0  0
 28 54  1  0  0  0  0
 55 56  1  0  0  0  0
M  CHG  1  55   1
M  END
$$$$
ZINC03814957
  -OEChem-08230709403D

 43 46  0     0  0  0  0  0  0999 V2000
   -4.1072    7.7420   -2.6627 C   0  0  0  0  0  0  0  0  0  0  0  0
   -4.1577    8.4769   -1.3480 C   0  0  0  0  0  0  0  0  0  0  0  0
   -4.6686    7.8799   -0.2252 C   0  0  0  0  0  0  0  0  0  0  0  0
   -4.7097    8.5810    0.9736 C   0  0  0  0  0  0  0  0  0  0  0  0
   -4.2585    9.8117    1.0714 N   0  0  0  0  0  0  0  0  0  0  0  0
   -3.7498   10.4472    0.0156 C   0  0  0  0  0  0  0  0  0  0  0  0
   -3.6848    9.7895   -1.2377 C   0  0  0  0  0  0  0  0  0  0  0  0
   -3.1388   10.4892   -2.3422 C   0  0  0  0  0  0  0  0  0  0  0  0
   -2.7132   11.7297   -2.1510 N   0  0  0  0  0  0  0  0  0  0  0  0
   -2.7923   12.3109   -0.9574 C   0  0  0  0  0  0  0  0  0  0  0  0
   -3.2917   11.7041    0.1029 N   0  0  0  0  0  0  0  0  0  0  0  0
   -2.3321   13.6067   -0.8216 N   0  0  0  0  0  0  0  0  0  0  0  0
   -3.0531    9.8958   -3.5825 N   0  0  0  0  0  0  0  0  0  0  0  0
   -5.1905    6.4677   -0.2921 C   0  0  0  0  0  0  0  0  0  0  0  0
   -4.0673    5.5288   -0.2351 N   0  0  0  0  0  0  0  0  0  0  0  0
   -4.3035    4.1566   -0.2814 C   0  0  0  0  0  0  0  0  0  0  0  0
   -5.5918    3.6753   -0.3804 C   0  0  0  0  0  0  0  0  0  0  0  0
   -5.8384    2.3066   -0.4264 C   0  0  0  0  0  0  0  0  0  0  0  0
   -4.8180    1.4063   -0.3756 C   0  0  0  0  0  0  0  0  0  0  0  0
   -3.4899    1.8554   -0.2809 C   0  0  0  0  0  0  0  0  0  0  0  0
   -3.2262    3.2463   -0.2269 C   0  0  0  0  0  0  0  0  0  0  0  0
   -1.8994    3.6929   -0.1256 C   0  0  0  0  0  0  0  0  0  0  0  0
   -0.8850    2.7861   -0.0749 C   0  0  0  0  0  0  0  0  0  0  0  0
   -1.1436    1.4177   -0.1225 C   0  0  0  0  0  0  0  0  0  0  0  0
   -2.4174    0.9486   -0.2207 C   0  0  0  0  0  0  0  0  0  0  0  0
   -4.9682    8.0229   -3.2692 H   0  0  0  0  0  0  0  0  0  0  0  0
   -3.1901    8.0040   -3.1903 H   0  0  0  0  0  0  0  0  0  0  0  0
   -4.1267    6.6677   -2.4794 H   0  0  0  0  0  0  0  0  0  0  0  0
   -5.1193    8.1003    1.8497 H   0  0  0  0  0  0  0  0  0  0  0  0
   -1.9613   14.0725   -1.5874 H   0  0  0  0  0  0  0  0  0  0  0  0
   -2.3798   14.0506    0.0396 H   0  0  0  0  0  0  0  0  0  0  0  0
   -3.7859    9.3522   -3.9117 H   0  0  0  0  0  0  0  0  0  0  0  0
   -2.2599   10.0215   -4.1265 H   0  0  0  0  0  0  0  0  0  0  0  0
   -5.7357    6.3257   -1.2251 H   0  0  0  0  0  0  0  0  0  0  0  0
   -5.8583    6.2868    0.5502 H   0  0  0  0  0  0  0  0  0  0  0  0
   -3.1593    5.8626   -0.1650 H   0  0  0  0  0  0  0  0  0  0  0  0
   -6.4189    4.3685   -0.4224 H   0  0  0  0  0  0  0  0  0  0  0  0
   -6.8557    1.9526   -0.5041 H   0  0  0  0  0  0  0  0  0  0  0  0
   -5.0291    0.3478   -0.4130 H   0  0  0  0  0  0  0  0  0  0  0  0
   -1.6843    4.7506   -0.0877 H   0  0  0  0  0  0  0  0  0  0  0  0
    0.1350    3.1325    0.0031 H   0  0  0  0  0  0  0  0  0  0  0  0
   -0.3210    0.7190   -0.0813 H   0  0  0  0  0  0  0  0  0  0  0  0
   -2.6030   -0.1147   -0.2566 H   0  0  0  0  0  0  0  0  0  0  0  0
  1  2  1  0  0  0  0
  1 26  1  0  0  0  0
  1 27  1  0  0  0  0
  1 28  1  0  0  0  0
  2  7  2  0  0  0  0
  2  3  1  0  0  0  0
  3  4  2  0  0  0  0
  3 14  1  0  0  0  0
  4  5  1  0  0  0  0
  4 29  1  0  0  0  0
  5  6  2  0  0  0  0
  6 11  1  0  0  0  0
  6  7  1  0  0  0  0
  7  8  1  0  0  0  0
  8  9  2  0  0  0  0
  8 13  1  0  0  0  0
  9 10  1  0  0  0  0
 10 11  2  0  0  0  0
 10 12  1  0  0  0  0
 12 30  1  0  0  0  0
 12 31  1  0  0  0  0
 13 32  1  0  0  0  0
 13 33  1  0  0  0  0
 14 15  1  0  0  0  0
 14 34  1  0  0  0  0
 14 35  1  0  0  0  0
 15 16  1  0  0  0  0
 15 36  1  0  0  0  0
 16 21  2  0  0  0  0
 16 17  1  0  0  0  0
 17 18  2  0  0  0  0
 17 37  1  0  0  0  0
 18 19  1  0  0  0  0
 18 38  1  0  0  0  0
 19 20  2  0  0  0  0
 19 39  1  0  0  0  0
 20 25  1  0  0  0  0
 20 21  1  0  0  0  0
 21 22  1  0  0  0  0
 22 23  2  0  0  0  0
 22 40  1  0  0  0  0
 23 24  1  0  0  0  0
 23 41  1  0  0  0  0
 24 25  2  0  0  0  0
 24 42  1  0  0  0  0
 25 43  1  0  0  0  0
M  END
$$$$
ZINC03814957
  -OEChem-08230709403D

 44 47  0     0  0  0  0  0  0999 V2000
   -4.1072    7.7420   -2.6627 C   0  0  0  0  0  0  0  0  0  0  0  0
   -4.1577    8.4769   -1.3480 C   0  0  0  0  0  0  0  0  0  0  0  0
   -4.6686    7.8799   -0.2252 C   0  0  0  0  0  0  0  0  0  0  0  0
   -4.7097    8.5810    0.9736 C   0  0  0  0  0  0  0  0  0  0  0  0
   -4.2585    9.8117    1.0714 N   0  0  0  0  0  0  0  0  0  0  0  0
   -3.7498   10.4472    0.0156 C   0  0  0  0  0  0  0  0  0  0  0  0
   -3.6848    9.7895   -1.2377 C   0  0  0  0  0  0  0  0  0  0  0  0
   -3.1388   10.4892   -2.3422 C   0  0  0  0  0  0  0  0  0  0  0  0
   -2.7132   11.7297   -2.1510 N   0  0  0  0  0  0  0  0  0  0  0  0
   -2.7923   12.3109   -0.9574 C   0  0  0  0  0  0  0  0  0  0  0  0
   -2.3321   13.6067   -0.8216 N   0  0  0  0  0  0  0  0  0  0  0  0
   -3.0531    9.8958   -3.5825 N   0  0  0  0  0  0  0  0  0  0  0  0
   -5.1905    6.4677   -0.2921 C   0  0  0  0  0  0  0  0  0  0  0  0
   -4.0673    5.5288   -0.2351 N   0  0  0  0  0  0  0  0  0  0  0  0
   -4.3035    4.1566   -0.2814 C   0  0  0  0  0  0  0  0  0  0  0  0
   -5.5918    3.6753   -0.3804 C   0  0  0  0  0  0  0  0  0  0  0  0
   -5.8384    2.3066   -0.4264 C   0  0  0  0  0  0  0  0  0  0  0  0
   -4.8180    1.4063   -0.3756 C   0  0  0  0  0  0  0  0  0  0  0  0
   -3.4899    1.8554   -0.2809 C   0  0  0  0  0  0  0  0  0  0  0  0
   -3.2262    3.2463   -0.2269 C   0  0  0  0  0  0  0  0  0  0  0  0
   -1.8994    3.6929   -0.1256 C   0  0  0  0  0  0  0  0  0  0  0  0
   -0.8850    2.7861   -0.0749 C   0  0  0  0  0  0  0  0  0  0  0  0
   -1.1436    1.4177   -0.1225 C   0  0  0  0  0  0  0  0  0  0  0  0
   -2.4174    0.9486   -0.2207 C   0  0  0  0  0  0  0  0  0  0  0  0
   -4.9682    8.0229   -3.2692 H   0  0  0  0  0  0  0  0  0  0  0  0
   -3.1901    8.0040   -3.1903 H   0  0  0  0  0  0  0  0  0  0  0  0
   -4.1267    6.6677   -2.4794 H   0  0  0  0  0  0  0  0  0  0  0  0
   -5.1193    8.1003    1.8497 H   0  0  0  0  0  0  0  0  0  0  0  0
   -1.9613   14.0725   -1.5874 H   0  0  0  0  0  0  0  0  0  0  0  0
   -2.3798   14.0506    0.0396 H   0  0  0  0  0  0  0  0  0  0  0  0
   -3.7859    9.3522   -3.9117 H   0  0  0  0  0  0  0  0  0  0  0  0
   -2.2599   10.0215   -4.1265 H   0  0  0  0  0  0  0  0  0  0  0  0
   -5.7357    6.3257   -1.2251 H   0  0  0  0  0  0  0  0  0  0  0  0
   -5.8583    6.2868    0.5502 H   0  0  0  0  0  0  0  0  0  0  0  0
   -3.1593    5.8626   -0.1650 H   0  0  0  0  0  0  0  0  0  0  0  0
   -6.4189    4.3685   -0.4224 H   0  0  0  0  0  0  0  0  0  0  0  0
   -6.8557    1.9526   -0.5041 H   0  0  0  0  0  0  0  0  0  0  0  0
   -5.0291    0.3478   -0.4130 H   0  0  0  0  0  0  0  0  0  0  0  0
   -1.6843    4.7506   -0.0877 H   0  0  0  0  0  0  0  0  0  0  0  0
    0.1350    3.1325    0.0031 H   0  0  0  0  0  0  0  0  0  0  0  0
   -0.3210    0.7190   -0.0813 H   0  0  0  0  0  0  0  0  0  0  0  0
   -2.6030   -0.1147   -0.2566 H   0  0  0  0  0  0  0  0  0  0  0  0
   -3.2943   11.7391    0.1660 N   0  3  0  0  0  0  0  0  0  0  0  0
   -3.3139   12.2538    1.0231 H   0  0  0  0  0  0  0  0  0  0  0  0
  1  2  1  0  0  0  0
  1 25  1  0  0  0  0
  1 26  1  0  0  0  0
  1 27  1  0  0  0  0
  2  7  2  0  0  0  0
  2  3  1  0  0  0  0
  3  4  2  0  0  0  0
  3 13  1  0  0  0  0
  4  5  1  0  0  0  0
  4 28  1  0  0  0  0
  5  6  2  0  0  0  0
  6  7  1  0  0  0  0
  6 43  1  0  0  0  0
  7  8  1  0  0  0  0
  8  9  2  0  0  0  0
  8 12  1  0  0  0  0
  9 10  1  0  0  0  0
 10 11  1  0  0  0  0
 10 43  2  0  0  0  0
 11 29  1  0  0  0  0
 11 30  1  0  0  0  0
 12 31  1  0  0  0  0
 12 32  1  0  0  0  0
 13 14  1  0  0  0  0
 13 33  1  0  0  0  0
 13 34  1  0  0  0  0
 14 15  1  0  0  0  0
 14 35  1  0  0  0  0
 15 20  2  0  0  0  0
 15 16  1  0  0  0  0
 16 17  2  0  0  0  0
 16 36  1  0  0  0  0
 17 18  1  0  0  0  0
 17 37  1  0  0  0  0
 18 19  2  0  0  0  0
 18 38  1  0  0  0  0
 19 24  1  0  0  0  0
 19 20  1  0  0  0  0
 20 21  1  0  0  0  0
 21 22  2  0  0  0  0
 21 39  1  0  0  0  0
 22 23  1  0  0  0  0
 22 40  1  0  0  0  0
 23 24  2  0  0  0  0
 23 41  1  0  0  0  0
 24 42  1  0  0  0  0
 43 44  1  0  0  0  0
M  CHG  1  43   1
M  END
$$$$
ZINC03814958
  -OEChem-08230709403D

 47 50  0     0  0  0  0  0  0999 V2000
    1.7540   -6.6058   -2.7967 C   0  0  0  0  0  0  0  0  0  0  0  0
    1.8474   -7.3532   -1.4914 C   0  0  0  0  0  0  0  0  0  0  0  0
    2.3656   -6.7560   -0.3720 C   0  0  0  0  0  0  0  0  0  0  0  0
    2.4464   -7.4687    0.8179 C   0  0  0  0  0  0  0  0  0  0  0  0
    2.0265   -8.7108    0.9106 N   0  0  0  0  0  0  0  0  0  0  0  0
    1.5127   -9.3470   -0.1423 C   0  0  0  0  0  0  0  0  0  0  0  0
    1.4080   -8.6778   -1.3867 C   0  0  0  0  0  0  0  0  0  0  0  0
    0.8576   -9.3785   -2.4884 C   0  0  0  0  0  0  0  0  0  0  0  0
    0.4653  -10.6309   -2.3028 N   0  0  0  0  0  0  0  0  0  0  0  0
    0.5812  -11.2227   -1.1175 C   0  0  0  0  0  0  0  0  0  0  0  0
    1.0864  -10.6154   -0.0602 N   0  0  0  0  0  0  0  0  0  0  0  0
    0.1546  -12.5306   -0.9873 N   0  0  0  0  0  0  0  0  0  0  0  0
    0.7338   -8.7742   -3.7201 N   0  0  0  0  0  0  0  0  0  0  0  0
    2.8523   -5.3311   -0.4331 C   0  0  0  0  0  0  0  0  0  0  0  0
    1.7085   -4.4201   -0.3443 N   0  0  0  0  0  0  0  0  0  0  0  0
    1.9116   -3.0384   -0.3800 C   0  0  0  0  0  0  0  0  0  0  0  0
    3.1856   -2.5270   -0.4981 C   0  0  0  0  0  0  0  0  0  0  0  0
    3.4009   -1.1526   -0.5404 C   0  0  0  0  0  0  0  0  0  0  0  0
    2.3587   -0.2740   -0.4544 C   0  0  0  0  0  0  0  0  0  0  0  0
    1.0414   -0.7585   -0.3324 C   0  0  0  0  0  0  0  0  0  0  0  0
    0.8139   -2.1564   -0.2948 C   0  0  0  0  0  0  0  0  0  0  0  0
   -0.4995   -2.6380   -0.1745 C   0  0  0  0  0  0  0  0  0  0  0  0
   -1.5352   -1.7580   -0.0944 C   0  0  0  0  0  0  0  0  0  0  0  0
   -1.3119   -0.3829   -0.1309 C   0  0  0  0  0  0  0  0  0  0  0  0
   -0.0521    0.1194   -0.2477 C   0  0  0  0  0  0  0  0  0  0  0  0
    2.5914    1.0649   -0.4921 O   0  0  0  0  0  0  0  0  0  0  0  0
    3.9520    1.4837   -0.6171 C   0  0  0  0  0  0  0  0  0  0  0  0
    2.6096   -6.8594   -3.4226 H   0  0  0  0  0  0  0  0  0  0  0  0
    0.8334   -6.8839   -3.3096 H   0  0  0  0  0  0  0  0  0  0  0  0
    1.7516   -5.5333   -2.6018 H   0  0  0  0  0  0  0  0  0  0  0  0
    2.8613   -6.9877    1.6913 H   0  0  0  0  0  0  0  0  0  0  0  0
   -0.2197  -12.9969   -1.7511 H   0  0  0  0  0  0  0  0  0  0  0  0
    0.2295  -12.9823   -0.1322 H   0  0  0  0  0  0  0  0  0  0  0  0
    1.4470   -8.2097   -4.0572 H   0  0  0  0  0  0  0  0  0  0  0  0
   -0.0665   -8.9131   -4.2503 H   0  0  0  0  0  0  0  0  0  0  0  0
    3.3760   -5.1662   -1.3748 H   0  0  0  0  0  0  0  0  0  0  0  0
    3.5318   -5.1433    0.3982 H   0  0  0  0  0  0  0  0  0  0  0  0
    0.8101   -4.7763   -0.2607 H   0  0  0  0  0  0  0  0  0  0  0  0
    4.0270   -3.2010   -0.5638 H   0  0  0  0  0  0  0  0  0  0  0  0
    4.4080   -0.7749   -0.6383 H   0  0  0  0  0  0  0  0  0  0  0  0
   -0.6872   -3.7012   -0.1456 H   0  0  0  0  0  0  0  0  0  0  0  0
   -2.5445   -2.1310   -0.0015 H   0  0  0  0  0  0  0  0  0  0  0  0
   -2.1507    0.2943   -0.0660 H   0  0  0  0  0  0  0  0  0  0  0  0
    0.1059    1.1874   -0.2755 H   0  0  0  0  0  0  0  0  0  0  0  0
    4.5263    1.1104    0.2307 H   0  0  0  0  0  0  0  0  0  0  0  0
    4.3705    1.0875   -1.5422 H   0  0  0  0  0  0  0  0  0  0  0  0
    3.9968    2.5726   -0.6351 H   0  0  0  0  0  0  0  0  0  0  0  0
  1  2  1  0  0  0  0
  1 28  1  0  0  0  0
  1 29  1  0  0  0  0
  1 30  1  0  0  0  0
  2  7  2  0  0  0  0
  2  3  1  0  0  0  0
  3  4  2  0  0  0  0
  3 14  1  0  0  0  0
  4  5  1  0  0  0  0
  4 31  1  0  0  0  0
  5  6  2  0  0  0  0
  6 11  1  0  0  0  0
  6  7  1  0  0  0  0
  7  8  1  0  0  0  0
  8  9  2  0  0  0  0
  8 13  1  0  0  0  0
  9 10  1  0  0  0  0
 10 11  2  0  0  0  0
 10 12  1  0  0  0  0
 12 32  1  0  0  0  0
 12 33  1  0  0  0  0
 13 34  1  0  0  0  0
 13 35  1  0  0  0  0
 14 15  1  0  0  0  0
 14 36  1  0  0  0  0
 14 37  1  0  0  0  0
 15 16  1  0  0  0  0
 15 38  1  0  0  0  0
 16 21  2  0  0  0  0
 16 17  1  0  0  0  0
 17 18  2  0  0  0  0
 17 39  1  0  0  0  0
 18 19  1  0  0  0  0
 18 40  1  0  0  0  0
 19 20  2  0  0  0  0
 19 26  1  0  0  0  0
 20 25  1  0  0  0  0
 20 21  1  0  0  0  0
 21 22  1  0  0  0  0
 22 23  2  0  0  0  0
 22 41  1  0  0  0  0
 23 24  1  0  0  0  0
 23 42  1  0  0  0  0
 24 25  2  0  0  0  0
 24 43  1  0  0  0  0
 25 44  1  0  0  0  0
 26 27  1  0  0  0  0
 27 45  1  0  0  0  0
 27 46  1  0  0  0  0
 27 47  1  0  0  0  0
M  END
$$$$
ZINC03814958
  -OEChem-08230709403D

 48 51  0     0  0  0  0  0  0999 V2000
    1.7540   -6.6058   -2.7967 C   0  0  0  0  0  0  0  0  0  0  0  0
    1.8474   -7.3532   -1.4914 C   0  0  0  0  0  0  0  0  0  0  0  0
    2.3656   -6.7560   -0.3720 C   0  0  0  0  0  0  0  0  0  0  0  0
    2.4464   -7.4687    0.8179 C   0  0  0  0  0  0  0  0  0  0  0  0
    2.0265   -8.7108    0.9106 N   0  0  0  0  0  0  0  0  0  0  0  0
    1.5127   -9.3470   -0.1423 C   0  0  0  0  0  0  0  0  0  0  0  0
    1.4080   -8.6778   -1.3867 C   0  0  0  0  0  0  0  0  0  0  0  0
    0.8576   -9.3785   -2.4884 C   0  0  0  0  0  0  0  0  0  0  0  0
    0.4653  -10.6309   -2.3028 N   0  0  0  0  0  0  0  0  0  0  0  0
    0.5812  -11.2227   -1.1175 C   0  0  0  0  0  0  0  0  0  0  0  0
    0.1546  -12.5306   -0.9873 N   0  0  0  0  0  0  0  0  0  0  0  0
    0.7338   -8.7742   -3.7201 N   0  0  0  0  0  0  0  0  0  0  0  0
    2.8523   -5.3311   -0.4331 C   0  0  0  0  0  0  0  0  0  0  0  0
    1.7085   -4.4201   -0.3443 N   0  0  0  0  0  0  0  0  0  0  0  0
    1.9116   -3.0384   -0.3800 C   0  0  0  0  0  0  0  0  0  0  0  0
    3.1856   -2.5270   -0.4981 C   0  0  0  0  0  0  0  0  0  0  0  0
    3.4009   -1.1526   -0.5404 C   0  0  0  0  0  0  0  0  0  0  0  0
    2.3587   -0.2740   -0.4544 C   0  0  0  0  0  0  0  0  0  0  0  0
    1.0414   -0.7585   -0.3324 C   0  0  0  0  0  0  0  0  0  0  0  0
    0.8139   -2.1564   -0.2948 C   0  0  0  0  0  0  0  0  0  0  0  0
   -0.4995   -2.6380   -0.1745 C   0  0  0  0  0  0  0  0  0  0  0  0
   -1.5352   -1.7580   -0.0944 C   0  0  0  0  0  0  0  0  0  0  0  0
   -1.3119   -0.3829   -0.1309 C   0  0  0  0  0  0  0  0  0  0  0  0
   -0.0521    0.1194   -0.2477 C   0  0  0  0  0  0  0  0  0  0  0  0
    2.5914    1.0649   -0.4921 O   0  0  0  0  0  0  0  0  0  0  0  0
    3.9520    1.4837   -0.6171 C   0  0  0  0  0  0  0  0  0  0  0  0
    2.6096   -6.8594   -3.4226 H   0  0  0  0  0  0  0  0  0  0  0  0
    0.8334   -6.8839   -3.3096 H   0  0  0  0  0  0  0  0  0  0  0  0
    1.7516   -5.5333   -2.6018 H   0  0  0  0  0  0  0  0  0  0  0  0
    2.8613   -6.9877    1.6913 H   0  0  0  0  0  0  0  0  0  0  0  0
   -0.2197  -12.9969   -1.7511 H   0  0  0  0  0  0  0  0  0  0  0  0
    0.2295  -12.9823   -0.1322 H   0  0  0  0  0  0  0  0  0  0  0  0
    1.4470   -8.2097   -4.0572 H   0  0  0  0  0  0  0  0  0  0  0  0
   -0.0665   -8.9131   -4.2503 H   0  0  0  0  0  0  0  0  0  0  0  0
    3.3760   -5.1662   -1.3748 H   0  0  0  0  0  0  0  0  0  0  0  0
    3.5318   -5.1433    0.3982 H   0  0  0  0  0  0  0  0  0  0  0  0
    0.8101   -4.7763   -0.2607 H   0  0  0  0  0  0  0  0  0  0  0  0
    4.0270   -3.2010   -0.5638 H   0  0  0  0  0  0  0  0  0  0  0  0
    4.4080   -0.7749   -0.6383 H   0  0  0  0  0  0  0  0  0  0  0  0
   -0.6872   -3.7012   -0.1456 H   0  0  0  0  0  0  0  0  0  0  0  0
   -2.5445   -2.1310   -0.0015 H   0  0  0  0  0  0  0  0  0  0  0  0
   -2.1507    0.2943   -0.0660 H   0  0  0  0  0  0  0  0  0  0  0  0
    0.1059    1.1874   -0.2755 H   0  0  0  0  0  0  0  0  0  0  0  0
    4.5263    1.1104    0.2307 H   0  0  0  0  0  0  0  0  0  0  0  0
    4.3705    1.0875   -1.5422 H   0  0  0  0  0  0  0  0  0  0  0  0
    3.9968    2.5726   -0.6351 H   0  0  0  0  0  0  0  0  0  0  0  0
    1.0910  -10.6510    0.0024 N   0  3  0  0  0  0  0  0  0  0  0  0
    1.1395  -11.1742    0.8532 H   0  0  0  0  0  0  0  0  0  0  0  0
  1  2  1  0  0  0  0
  1 27  1  0  0  0  0
  1 28  1  0  0  0  0
  1 29  1  0  0  0  0
  2  7  2  0  0  0  0
  2  3  1  0  0  0  0
  3  4  2  0  0  0  0
  3 13  1  0  0  0  0
  4  5  1  0  0  0  0
  4 30  1  0  0  0  0
  5  6  2  0  0  0  0
  6  7  1  0  0  0  0
  6 47  1  0  0  0  0
  7  8  1  0  0  0  0
  8  9  2  0  0  0  0
  8 12  1  0  0  0  0
  9 10  1  0  0  0  0
 10 11  1  0  0  0  0
 10 47  2  0  0  0  0
 11 31  1  0  0  0  0
 11 32  1  0  0  0  0
 12 33  1  0  0  0  0
 12 34  1  0  0  0  0
 13 14  1  0  0  0  0
 13 35  1  0  0  0  0
 13 36  1  0  0  0  0
 14 15  1  0  0  0  0
 14 37  1  0  0  0  0
 15 20  2  0  0  0  0
 15 16  1  0  0  0  0
 16 17  2  0  0  0  0
 16 38  1  0  0  0  0
 17 18  1  0  0  0  0
 17 39  1  0  0  0  0
 18 19  2  0  0  0  0
 18 25  1  0  0  0  0
 19 24  1  0  0  0  0
 19 20  1  0  0  0  0
 20 21  1  0  0  0  0
 21 22  2  0  0  0  0
 21 40  1  0  0  0  0
 22 23  1  0  0  0  0
 22 41  1  0  0  0  0
 23 24  2  0  0  0  0
 23 42  1  0  0  0  0
 24 43  1  0  0  0  0
 25 26  1  0  0  0  0
 26 44  1  0  0  0  0
 26 45  1  0  0  0  0
 26 46  1  0  0  0  0
 47 48  1  0  0  0  0
M  CHG  1  47   1
M  END
$$$$
ZINC03814959
  -OEChem-08230709403D

 37 39  0     1  0  0  0  0  0999 V2000
    3.7100   -2.1602   -2.1195 C   0  0  0  0  0  0  0  0  0  0  0  0
    4.1233   -0.9376   -1.4260 N   0  0  3  0  0  0  0  0  0  0  0  0
    3.7112   -0.7071   -0.0392 C   0  0  0  0  0  0  0  0  0  0  0  0
    2.3960    0.0285   -0.0217 C   0  0  0  0  0  0  0  0  0  0  0  0
    1.2084   -0.6789   -0.0136 C   0  0  0  0  0  0  0  0  0  0  0  0
    0.0021   -0.0041    0.0020 C   0  0  0  0  0  0  0  0  0  0  0  0
   -0.0167    1.3781    0.0096 C   0  0  0  0  0  0  0  0  0  0  0  0
    1.1709    2.0855    0.0021 C   0  0  0  0  0  0  0  0  0  0  0  0
    2.3773    1.4107   -0.0141 C   0  0  0  0  0  0  0  0  0  0  0  0
    4.9118    0.0100   -2.0884 C   0  0  0  0  0  0  0  0  0  0  0  0
    5.3089   -0.2061   -3.3983 C   0  0  0  0  0  0  0  0  0  0  0  0
    6.0921    0.7760   -4.0156 C   0  0  0  0  0  0  0  0  0  0  0  0
    6.5419    0.6476   -5.3531 C   0  0  0  0  0  0  0  0  0  0  0  0
    7.2845    1.6202   -5.8618 N   0  0  0  0  0  0  0  0  0  0  0  0
    7.6042    2.6928   -5.1432 C   0  0  0  0  0  0  0  0  0  0  0  0
    7.2115    2.8618   -3.8954 N   0  0  0  0  0  0  0  0  0  0  0  0
    6.4555    1.9350   -3.2867 C   0  0  0  0  0  0  0  0  0  0  0  0
    6.0478    2.0849   -2.0266 N   0  0  0  0  0  0  0  0  0  0  0  0
    5.3082    1.1764   -1.4321 C   0  0  0  0  0  0  0  0  0  0  0  0
    8.3820    3.6739   -5.7301 N   0  0  0  0  0  0  0  0  0  0  0  0
    6.2154   -0.4599   -6.1056 N   0  0  0  0  0  0  0  0  0  0  0  0
    2.7584   -1.9884   -2.6227 H   0  0  0  0  0  0  0  0  0  0  0  0
    4.4660   -2.4337   -2.8554 H   0  0  0  0  0  0  0  0  0  0  0  0
    3.5979   -2.9679   -1.3962 H   0  0  0  0  0  0  0  0  0  0  0  0
    4.4679   -0.1107    0.4703 H   0  0  0  0  0  0  0  0  0  0  0  0
    3.5990   -1.6641    0.4703 H   0  0  0  0  0  0  0  0  0  0  0  0
    1.2231   -1.7587   -0.0199 H   0  0  0  0  0  0  0  0  0  0  0  0
   -0.9258   -0.5567    0.0079 H   0  0  0  0  0  0  0  0  0  0  0  0
   -0.9592    1.9054    0.0170 H   0  0  0  0  0  0  0  0  0  0  0  0
    1.1563    3.1654    0.0077 H   0  0  0  0  0  0  0  0  0  0  0  0
    3.3051    1.9634   -0.0207 H   0  0  0  0  0  0  0  0  0  0  0  0
    5.0200   -1.1022   -3.9275 H   0  0  0  0  0  0  0  0  0  0  0  0
    4.9988    1.3363   -0.4097 H   0  0  0  0  0  0  0  0  0  0  0  0
    8.6273    4.4650   -5.2252 H   0  0  0  0  0  0  0  0  0  0  0  0
    8.6824    3.5711   -6.6466 H   0  0  0  0  0  0  0  0  0  0  0  0
    6.5298   -0.5348   -7.0202 H   0  0  0  0  0  0  0  0  0  0  0  0
    5.6711   -1.1645   -5.7207 H   0  0  0  0  0  0  0  0  0  0  0  0
  1  2  1  0  0  0  0
  1 22  1  0  0  0  0
  1 23  1  0  0  0  0
  1 24  1  0  0  0  0
  2  3  1  0  0  0  0
  2 10  1  0  0  0  0
  3  4  1  0  0  0  0
  3 25  1  0  0  0  0
  3 26  1  0  0  0  0
  4  9  2  0  0  0  0
  4  5  1  0  0  0  0
  5  6  2  0  0  0  0
  5 27  1  0  0  0  0
  6  7  1  0  0  0  0
  6 28  1  0  0  0  0
  7  8  2  0  0  0  0
  7 29  1  0  0  0  0
  8  9  1  0  0  0  0
  8 30  1  0  0  0  0
  9 31  1  0  0  0  0
 10 19  2  0  0  0  0
 10 11  1  0  0  0  0
 11 12  2  0  0  0  0
 11 32  1  0  0  0  0
 12 17  1  0  0  0  0
 12 13  1  0  0  0  0
 13 14  2  0  0  0  0
 13 21  1  0  0  0  0
 14 15  1  0  0  0  0
 15 16  2  0  0  0  0
 15 20  1  0  0  0  0
 16 17  1  0  0  0  0
 17 18  2  0  0  0  0
 18 19  1  0  0  0  0
 19 33  1  0  0  0  0
 20 34  1  0  0  0  0
 20 35  1  0  0  0  0
 21 36  1  0  0  0  0
 21 37  1  0  0  0  0
M  END
$$$$
ZINC03814959
  -OEChem-08230709403D

 38 40  0     1  0  0  0  0  0999 V2000
    3.7100   -2.1602   -2.1195 C   0  0  0  0  0  0  0  0  0  0  0  0
    4.1233   -0.9376   -1.4260 N   0  0  3  0  0  0  0  0  0  0  0  0
    3.7112   -0.7071   -0.0392 C   0  0  0  0  0  0  0  0  0  0  0  0
    2.3960    0.0285   -0.0217 C   0  0  0  0  0  0  0  0  0  0  0  0
    1.2084   -0.6789   -0.0136 C   0  0  0  0  0  0  0  0  0  0  0  0
    0.0021   -0.0041    0.0020 C   0  0  0  0  0  0  0  0  0  0  0  0
   -0.0167    1.3781    0.0096 C   0  0  0  0  0  0  0  0  0  0  0  0
    1.1709    2.0855    0.0021 C   0  0  0  0  0  0  0  0  0  0  0  0
    2.3773    1.4107   -0.0141 C   0  0  0  0  0  0  0  0  0  0  0  0
    4.9118    0.0100   -2.0884 C   0  0  0  0  0  0  0  0  0  0  0  0
    5.3089   -0.2061   -3.3983 C   0  0  0  0  0  0  0  0  0  0  0  0
    6.0921    0.7760   -4.0156 C   0  0  0  0  0  0  0  0  0  0  0  0
    6.5419    0.6476   -5.3531 C   0  0  0  0  0  0  0  0  0  0  0  0
    7.2845    1.6202   -5.8618 N   0  0  0  0  0  0  0  0  0  0  0  0
    7.6042    2.6928   -5.1432 C   0  0  0  0  0  0  0  0  0  0  0  0
    6.4555    1.9350   -3.2867 C   0  0  0  0  0  0  0  0  0  0  0  0
    6.0478    2.0849   -2.0266 N   0  0  0  0  0  0  0  0  0  0  0  0
    5.3082    1.1764   -1.4321 C   0  0  0  0  0  0  0  0  0  0  0  0
    8.3820    3.6739   -5.7301 N   0  0  0  0  0  0  0  0  0  0  0  0
    6.2154   -0.4599   -6.1056 N   0  0  0  0  0  0  0  0  0  0  0  0
    2.7584   -1.9884   -2.6227 H   0  0  0  0  0  0  0  0  0  0  0  0
    4.4660   -2.4337   -2.8554 H   0  0  0  0  0  0  0  0  0  0  0  0
    3.5979   -2.9679   -1.3962 H   0  0  0  0  0  0  0  0  0  0  0  0
    4.4679   -0.1107    0.4703 H   0  0  0  0  0  0  0  0  0  0  0  0
    3.5990   -1.6641    0.4703 H   0  0  0  0  0  0  0  0  0  0  0  0
    1.2231   -1.7587   -0.0199 H   0  0  0  0  0  0  0  0  0  0  0  0
   -0.9258   -0.5567    0.0079 H   0  0  0  0  0  0  0  0  0  0  0  0
   -0.9592    1.9054    0.0170 H   0  0  0  0  0  0  0  0  0  0  0  0
    1.1563    3.1654    0.0077 H   0  0  0  0  0  0  0  0  0  0  0  0
    3.3051    1.9634   -0.0207 H   0  0  0  0  0  0  0  0  0  0  0  0
    5.0200   -1.1022   -3.9275 H   0  0  0  0  0  0  0  0  0  0  0  0
    4.9988    1.3363   -0.4097 H   0  0  0  0  0  0  0  0  0  0  0  0
    8.6273    4.4650   -5.2252 H   0  0  0  0  0  0  0  0  0  0  0  0
    8.6824    3.5711   -6.6466 H   0  0  0  0  0  0  0  0  0  0  0  0
    6.5298   -0.5348   -7.0202 H   0  0  0  0  0  0  0  0  0  0  0  0
    5.6711   -1.1645   -5.7207 H   0  0  0  0  0  0  0  0  0  0  0  0
    7.2310    2.9216   -3.8597 N   0  3  0  0  0  0  0  0  0  0  0  0
    7.5193    3.7600   -3.3971 H   0  0  0  0  0  0  0  0  0  0  0  0
  1  2  1  0  0  0  0
  1 21  1  0  0  0  0
  1 22  1  0  0  0  0
  1 23  1  0  0  0  0
  2  3  1  0  0  0  0
  2 10  1  0  0  0  0
  3  4  1  0  0  0  0
  3 24  1  0  0  0  0
  3 25  1  0  0  0  0
  4  9  2  0  0  0  0
  4  5  1  0  0  0  0
  5  6  2  0  0  0  0
  5 26  1  0  0  0  0
  6  7  1  0  0  0  0
  6 27  1  0  0  0  0
  7  8  2  0  0  0  0
  7 28  1  0  0  0  0
  8  9  1  0  0  0  0
  8 29  1  0  0  0  0
  9 30  1  0  0  0  0
 10 18  2  0  0  0  0
 10 11  1  0  0  0  0
 11 12  2  0  0  0  0
 11 31  1  0  0  0  0
 12 16  1  0  0  0  0
 12 13  1  0  0  0  0
 13 14  2  0  0  0  0
 13 20  1  0  0  0  0
 14 15  1  0  0  0  0
 15 19  1  0  0  0  0
 15 37  2  0  0  0  0
 16 17  2  0  0  0  0
 16 37  1  0  0  0  0
 17 18  1  0  0  0  0
 18 32  1  0  0  0  0
 19 33  1  0  0  0  0
 19 34  1  0  0  0  0
 20 35  1  0  0  0  0
 20 36  1  0  0  0  0
 37 38  1  0  0  0  0
M  CHG  1  37   1
M  END
$$$$
ZINC03814960
  -OEChem-08230709403D

 49 51  0     1  0  0  0  0  0999 V2000
   -0.9195    5.4817   -2.6788 C   0  0  0  0  0  0  0  0  0  0  0  0
   -0.8045    6.3364   -1.4946 N   0  0  3  0  0  0  0  0  0  0  0  0
    0.2110    6.0479   -0.4789 C   0  0  0  0  0  0  0  0  0  0  0  0
   -0.3657    5.1191    0.5583 C   0  0  0  0  0  0  0  0  0  0  0  0
   -0.9998    5.6377    1.6717 C   0  0  0  0  0  0  0  0  0  0  0  0
   -1.5314    4.7865    2.6286 C   0  0  0  0  0  0  0  0  0  0  0  0
   -1.4309    3.4101    2.4642 C   0  0  0  0  0  0  0  0  0  0  0  0
   -0.7875    2.8927    1.3463 C   0  0  0  0  0  0  0  0  0  0  0  0
   -0.2586    3.7508    0.3940 C   0  0  0  0  0  0  0  0  0  0  0  0
   -0.6816    1.5467    1.1837 O   0  0  0  0  0  0  0  0  0  0  0  0
   -0.0127    1.0858    0.0080 C   0  0  0  0  0  0  0  0  0  0  0  0
   -1.9566    2.5712    3.3981 O   0  0  0  0  0  0  0  0  0  0  0  0
   -1.1017    2.1816    4.4748 C   0  0  0  0  0  0  0  0  0  0  0  0
   -2.1556    5.2977    3.7234 O   0  0  0  0  0  0  0  0  0  0  0  0
   -2.2275    6.7214    3.8234 C   0  0  0  0  0  0  0  0  0  0  0  0
   -1.6646    7.4285   -1.3337 C   0  0  0  0  0  0  0  0  0  0  0  0
   -2.6230    7.7090   -2.2945 C   0  0  0  0  0  0  0  0  0  0  0  0
   -3.4610    8.8096   -2.0816 C   0  0  0  0  0  0  0  0  0  0  0  0
   -4.4737    9.1725   -3.0039 C   0  0  0  0  0  0  0  0  0  0  0  0
   -5.2211   10.2322   -2.7307 N   0  0  0  0  0  0  0  0  0  0  0  0
   -5.0329   10.9428   -1.6222 C   0  0  0  0  0  0  0  0  0  0  0  0
   -4.1057   10.6481   -0.7316 N   0  0  0  0  0  0  0  0  0  0  0  0
   -3.2954    9.5939   -0.9137 C   0  0  0  0  0  0  0  0  0  0  0  0
   -2.3516    9.2780   -0.0272 N   0  0  0  0  0  0  0  0  0  0  0  0
   -1.5589    8.2460   -0.2071 C   0  0  0  0  0  0  0  0  0  0  0  0
   -5.8452   12.0381   -1.3933 N   0  0  0  0  0  0  0  0  0  0  0  0
   -4.6765    8.4420   -4.1549 N   0  0  0  0  0  0  0  0  0  0  0  0
   -1.6170    4.6694   -2.4742 H   0  0  0  0  0  0  0  0  0  0  0  0
   -1.2856    6.0720   -3.5188 H   0  0  0  0  0  0  0  0  0  0  0  0
    0.0584    5.0676   -2.9245 H   0  0  0  0  0  0  0  0  0  0  0  0
    0.5219    6.9773   -0.0016 H   0  0  0  0  0  0  0  0  0  0  0  0
    1.0728    5.5757   -0.9505 H   0  0  0  0  0  0  0  0  0  0  0  0
   -1.0811    6.7074    1.7966 H   0  0  0  0  0  0  0  0  0  0  0  0
    0.2374    3.3495   -0.4774 H   0  0  0  0  0  0  0  0  0  0  0  0
    0.0021   -0.0041    0.0020 H   0  0  0  0  0  0  0  0  0  0  0  0
    1.0099    1.4631    0.0003 H   0  0  0  0  0  0  0  0  0  0  0  0
   -0.5399    1.4469   -0.8751 H   0  0  0  0  0  0  0  0  0  0  0  0
   -0.7819    3.0674    5.0237 H   0  0  0  0  0  0  0  0  0  0  0  0
   -1.6431    1.5144    5.1455 H   0  0  0  0  0  0  0  0  0  0  0  0
   -0.2279    1.6658    4.0766 H   0  0  0  0  0  0  0  0  0  0  0  0
   -1.2195    7.1358    3.8408 H   0  0  0  0  0  0  0  0  0  0  0  0
   -2.7691    7.1191    2.9651 H   0  0  0  0  0  0  0  0  0  0  0  0
   -2.7488    6.9953    4.7407 H   0  0  0  0  0  0  0  0  0  0  0  0
   -2.7228    7.0954   -3.1776 H   0  0  0  0  0  0  0  0  0  0  0  0
   -0.8068    8.0242    0.5355 H   0  0  0  0  0  0  0  0  0  0  0  0
   -5.7264   12.5709   -0.5914 H   0  0  0  0  0  0  0  0  0  0  0  0
   -6.5338   12.2737   -2.0345 H   0  0  0  0  0  0  0  0  0  0  0  0
   -5.3736    8.7015   -4.7775 H   0  0  0  0  0  0  0  0  0  0  0  0
   -4.1221    7.6685   -4.3425 H   0  0  0  0  0  0  0  0  0  0  0  0
  1  2  1  0  0  0  0
  1 28  1  0  0  0  0
  1 29  1  0  0  0  0
  1 30  1  0  0  0  0
  2  3  1  0  0  0  0
  2 16  1  0  0  0  0
  3  4  1  0  0  0  0
  3 31  1  0  0  0  0
  3 32  1  0  0  0  0
  4  9  2  0  0  0  0
  4  5  1  0  0  0  0
  5  6  2  0  0  0  0
  5 33  1  0  0  0  0
  6  7  1  0  0  0  0
  6 14  1  0  0  0  0
  7  8  2  0  0  0  0
  7 12  1  0  0  0  0
  8  9  1  0  0  0  0
  8 10  1  0  0  0  0
  9 34  1  0  0  0  0
 10 11  1  0  0  0  0
 11 35  1  0  0  0  0
 11 36  1  0  0  0  0
 11 37  1  0  0  0  0
 12 13  1  0  0  0  0
 13 38  1  0  0  0  0
 13 39  1  0  0  0  0
 13 40  1  0  0  0  0
 14 15  1  0  0  0  0
 15 41  1  0  0  0  0
 15 42  1  0  0  0  0
 15 43  1  0  0  0  0
 16 25  2  0  0  0  0
 16 17  1  0  0  0  0
 17 18  2  0  0  0  0
 17 44  1  0  0  0  0
 18 23  1  0  0  0  0
 18 19  1  0  0  0  0
 19 20  2  0  0  0  0
 19 27  1  0  0  0  0
 20 21  1  0  0  0  0
 21 22  2  0  0  0  0
 21 26  1  0  0  0  0
 22 23  1  0  0  0  0
 23 24  2  0  0  0  0
 24 25  1  0  0  0  0
 25 45  1  0  0  0  0
 26 46  1  0  0  0  0
 26 47  1  0  0  0  0
 27 48  1  0  0  0  0
 27 49  1  0  0  0  0
M  END
$$$$
ZINC03814960
  -OEChem-08230709403D

 50 52  0     1  0  0  0  0  0999 V2000
   -0.9195    5.4817   -2.6788 C   0  0  0  0  0  0  0  0  0  0  0  0
   -0.8045    6.3364   -1.4946 N   0  0  3  0  0  0  0  0  0  0  0  0
    0.2110    6.0479   -0.4789 C   0  0  0  0  0  0  0  0  0  0  0  0
   -0.3657    5.1191    0.5583 C   0  0  0  0  0  0  0  0  0  0  0  0
   -0.9998    5.6377    1.6717 C   0  0  0  0  0  0  0  0  0  0  0  0
   -1.5314    4.7865    2.6286 C   0  0  0  0  0  0  0  0  0  0  0  0
   -1.4309    3.4101    2.4642 C   0  0  0  0  0  0  0  0  0  0  0  0
   -0.7875    2.8927    1.3463 C   0  0  0  0  0  0  0  0  0  0  0  0
   -0.2586    3.7508    0.3940 C   0  0  0  0  0  0  0  0  0  0  0  0
   -0.6816    1.5467    1.1837 O   0  0  0  0  0  0  0  0  0  0  0  0
   -0.0127    1.0858    0.0080 C   0  0  0  0  0  0  0  0  0  0  0  0
   -1.9566    2.5712    3.3981 O   0  0  0  0  0  0  0  0  0  0  0  0
   -1.1017    2.1816    4.4748 C   0  0  0  0  0  0  0  0  0  0  0  0
   -2.1556    5.2977    3.7234 O   0  0  0  0  0  0  0  0  0  0  0  0
   -2.2275    6.7214    3.8234 C   0  0  0  0  0  0  0  0  0  0  0  0
   -1.6646    7.4285   -1.3337 C   0  0  0  0  0  0  0  0  0  0  0  0
   -2.6230    7.7090   -2.2945 C   0  0  0  0  0  0  0  0  0  0  0  0
   -3.4610    8.8096   -2.0816 C   0  0  0  0  0  0  0  0  0  0  0  0
   -4.4737    9.1725   -3.0039 C   0  0  0  0  0  0  0  0  0  0  0  0
   -5.2211   10.2322   -2.7307 N   0  0  0  0  0  0  0  0  0  0  0  0
   -5.0329   10.9428   -1.6222 C   0  0  0  0  0  0  0  0  0  0  0  0
   -3.2954    9.5939   -0.9137 C   0  0  0  0  0  0  0  0  0  0  0  0
   -2.3516    9.2780   -0.0272 N   0  0  0  0  0  0  0  0  0  0  0  0
   -1.5589    8.2460   -0.2071 C   0  0  0  0  0  0  0  0  0  0  0  0
   -5.8452   12.0381   -1.3933 N   0  0  0  0  0  0  0  0  0  0  0  0
   -4.6765    8.4420   -4.1549 N   0  0  0  0  0  0  0  0  0  0  0  0
   -1.6170    4.6694   -2.4742 H   0  0  0  0  0  0  0  0  0  0  0  0
   -1.2856    6.0720   -3.5188 H   0  0  0  0  0  0  0  0  0  0  0  0
    0.0584    5.0676   -2.9245 H   0  0  0  0  0  0  0  0  0  0  0  0
    0.5219    6.9773   -0.0016 H   0  0  0  0  0  0  0  0  0  0  0  0
    1.0728    5.5757   -0.9505 H   0  0  0  0  0  0  0  0  0  0  0  0
   -1.0811    6.7074    1.7966 H   0  0  0  0  0  0  0  0  0  0  0  0
    0.2374    3.3495   -0.4774 H   0  0  0  0  0  0  0  0  0  0  0  0
    0.0021   -0.0041    0.0020 H   0  0  0  0  0  0  0  0  0  0  0  0
    1.0099    1.4631    0.0003 H   0  0  0  0  0  0  0  0  0  0  0  0
   -0.5399    1.4469   -0.8751 H   0  0  0  0  0  0  0  0  0  0  0  0
   -0.7819    3.0674    5.0237 H   0  0  0  0  0  0  0  0  0  0  0  0
   -1.6431    1.5144    5.1455 H   0  0  0  0  0  0  0  0  0  0  0  0
   -0.2279    1.6658    4.0766 H   0  0  0  0  0  0  0  0  0  0  0  0
   -1.2195    7.1358    3.8408 H   0  0  0  0  0  0  0  0  0  0  0  0
   -2.7691    7.1191    2.9651 H   0  0  0  0  0  0  0  0  0  0  0  0
   -2.7488    6.9953    4.7407 H   0  0  0  0  0  0  0  0  0  0  0  0
   -2.7228    7.0954   -3.1776 H   0  0  0  0  0  0  0  0  0  0  0  0
   -0.8068    8.0242    0.5355 H   0  0  0  0  0  0  0  0  0  0  0  0
   -5.7264   12.5709   -0.5914 H   0  0  0  0  0  0  0  0  0  0  0  0
   -6.5338   12.2737   -2.0345 H   0  0  0  0  0  0  0  0  0  0  0  0
   -5.3736    8.7015   -4.7775 H   0  0  0  0  0  0  0  0  0  0  0  0
   -4.1221    7.6685   -4.3425 H   0  0  0  0  0  0  0  0  0  0  0  0
   -4.0987   10.6893   -0.6726 N   0  3  0  0  0  0  0  0  0  0  0  0
   -4.0301   11.2798    0.1315 H   0  0  0  0  0  0  0  0  0  0  0  0
  1  2  1  0  0  0  0
  1 27  1  0  0  0  0
  1 28  1  0  0  0  0
  1 29  1  0  0  0  0
  2  3  1  0  0  0  0
  2 16  1  0  0  0  0
  3  4  1  0  0  0  0
  3 30  1  0  0  0  0
  3 31  1  0  0  0  0
  4  9  2  0  0  0  0
  4  5  1  0  0  0  0
  5  6  2  0  0  0  0
  5 32  1  0  0  0  0
  6  7  1  0  0  0  0
  6 14  1  0  0  0  0
  7  8  2  0  0  0  0
  7 12  1  0  0  0  0
  8  9  1  0  0  0  0
  8 10  1  0  0  0  0
  9 33  1  0  0  0  0
 10 11  1  0  0  0  0
 11 34  1  0  0  0  0
 11 35  1  0  0  0  0
 11 36  1  0  0  0  0
 12 13  1  0  0  0  0
 13 37  1  0  0  0  0
 13 38  1  0  0  0  0
 13 39  1  0  0  0  0
 14 15  1  0  0  0  0
 15 40  1  0  0  0  0
 15 41  1  0  0  0  0
 15 42  1  0  0  0  0
 16 24  2  0  0  0  0
 16 17  1  0  0  0  0
 17 18  2  0  0  0  0
 17 43  1  0  0  0  0
 18 22  1  0  0  0  0
 18 19  1  0  0  0  0
 19 20  2  0  0  0  0
 19 26  1  0  0  0  0
 20 21  1  0  0  0  0
 21 25  1  0  0  0  0
 21 49  2  0  0  0  0
 22 23  2  0  0  0  0
 22 49  1  0  0  0  0
 23 24  1  0  0  0  0
 24 44  1  0  0  0  0
 25 45  1  0  0  0  0
 25 46  1  0  0  0  0
 26 47  1  0  0  0  0
 26 48  1  0  0  0  0
 49 50  1  0  0  0  0
M  CHG  1  49   1
M  END
$$$$
ZINC03814961
  -OEChem-08230709403D

 49 51  0     1  0  0  0  0  0999 V2000
   -3.8799    2.4555   -1.6116 C   0  0  0  0  0  0  0  0  0  0  0  0
   -3.0627    1.2695   -1.3439 N   0  0  3  0  0  0  0  0  0  0  0  0
   -2.4635    1.0761   -0.0211 C   0  0  0  0  0  0  0  0  0  0  0  0
   -1.0857    1.6864    0.0004 C   0  0  0  0  0  0  0  0  0  0  0  0
    0.0296    0.8768   -0.1087 C   0  0  0  0  0  0  0  0  0  0  0  0
    1.2952    1.4321   -0.0953 C   0  0  0  0  0  0  0  0  0  0  0  0
    1.4511    2.8042    0.0335 C   0  0  0  0  0  0  0  0  0  0  0  0
    0.3328    3.6208    0.1492 C   0  0  0  0  0  0  0  0  0  0  0  0
   -0.9383    3.0584    0.1352 C   0  0  0  0  0  0  0  0  0  0  0  0
   -2.0359    3.8534    0.2476 O   0  0  0  0  0  0  0  0  0  0  0  0
   -2.4504    4.2040    1.5694 C   0  0  0  0  0  0  0  0  0  0  0  0
    0.4816    4.9676    0.2762 O   0  0  0  0  0  0  0  0  0  0  0  0
    0.5976    5.7242   -0.9305 C   0  0  0  0  0  0  0  0  0  0  0  0
    2.6968    3.3496    0.0471 O   0  0  0  0  0  0  0  0  0  0  0  0
    3.8003    2.4500   -0.0757 C   0  0  0  0  0  0  0  0  0  0  0  0
   -2.8544    0.3212   -2.3518 C   0  0  0  0  0  0  0  0  0  0  0  0
   -3.4190    0.4996   -3.6047 C   0  0  0  0  0  0  0  0  0  0  0  0
   -3.1792   -0.4789   -4.5762 C   0  0  0  0  0  0  0  0  0  0  0  0
   -3.7129   -0.3845   -5.8855 C   0  0  0  0  0  0  0  0  0  0  0  0
   -3.4378   -1.3531   -6.7469 N   0  0  0  0  0  0  0  0  0  0  0  0
   -2.6821   -2.3914   -6.4004 C   0  0  0  0  0  0  0  0  0  0  0  0
   -2.1613   -2.5277   -5.1961 N   0  0  0  0  0  0  0  0  0  0  0  0
   -2.3792   -1.6014   -4.2498 C   0  0  0  0  0  0  0  0  0  0  0  0
   -1.8627   -1.7185   -3.0268 N   0  0  0  0  0  0  0  0  0  0  0  0
   -2.0718   -0.8077   -2.1034 C   0  0  0  0  0  0  0  0  0  0  0  0
   -2.4311   -3.3705   -7.3439 N   0  0  0  0  0  0  0  0  0  0  0  0
   -4.4970    0.6876   -6.2538 N   0  0  0  0  0  0  0  0  0  0  0  0
   -3.2612    3.2272   -2.0698 H   0  0  0  0  0  0  0  0  0  0  0  0
   -4.6924    2.1917   -2.2887 H   0  0  0  0  0  0  0  0  0  0  0  0
   -4.2941    2.8302   -0.6756 H   0  0  0  0  0  0  0  0  0  0  0  0
   -2.3919    0.0098    0.1930 H   0  0  0  0  0  0  0  0  0  0  0  0
   -3.0858    1.5573    0.7335 H   0  0  0  0  0  0  0  0  0  0  0  0
   -0.0885   -0.1920   -0.2092 H   0  0  0  0  0  0  0  0  0  0  0  0
    2.1638    0.7968   -0.1856 H   0  0  0  0  0  0  0  0  0  0  0  0
   -3.3847    4.7634    1.5209 H   0  0  0  0  0  0  0  0  0  0  0  0
   -2.5998    3.2975    2.1559 H   0  0  0  0  0  0  0  0  0  0  0  0
   -1.6830    4.8187    2.0398 H   0  0  0  0  0  0  0  0  0  0  0  0
   -0.3324    5.6535   -1.4945 H   0  0  0  0  0  0  0  0  0  0  0  0
    0.7967    6.7679   -0.6873 H   0  0  0  0  0  0  0  0  0  0  0  0
    1.4172    5.3282   -1.5302 H   0  0  0  0  0  0  0  0  0  0  0  0
    3.7830    1.7388    0.7501 H   0  0  0  0  0  0  0  0  0  0  0  0
    3.7266    1.9114   -1.0205 H   0  0  0  0  0  0  0  0  0  0  0  0
    4.7330    3.0134   -0.0505 H   0  0  0  0  0  0  0  0  0  0  0  0
   -4.0246    1.3663   -3.8246 H   0  0  0  0  0  0  0  0  0  0  0  0
   -1.6309   -0.9379   -1.1262 H   0  0  0  0  0  0  0  0  0  0  0  0
   -1.8824   -4.1366   -7.1137 H   0  0  0  0  0  0  0  0  0  0  0  0
   -2.8037   -3.2913   -8.2359 H   0  0  0  0  0  0  0  0  0  0  0  0
   -4.6899    1.3900   -5.6133 H   0  0  0  0  0  0  0  0  0  0  0  0
   -4.8558    0.7396   -7.1534 H   0  0  0  0  0  0  0  0  0  0  0  0
  1  2  1  0  0  0  0
  1 28  1  0  0  0  0
  1 29  1  0  0  0  0
  1 30  1  0  0  0  0
  2  3  1  0  0  0  0
  2 16  1  0  0  0  0
  3  4  1  0  0  0  0
  3 31  1  0  0  0  0
  3 32  1  0  0  0  0
  4  9  2  0  0  0  0
  4  5  1  0  0  0  0
  5  6  2  0  0  0  0
  5 33  1  0  0  0  0
  6  7  1  0  0  0  0
  6 34  1  0  0  0  0
  7  8  2  0  0  0  0
  7 14  1  0  0  0  0
  8  9  1  0  0  0  0
  8 12  1  0  0  0  0
  9 10  1  0  0  0  0
 10 11  1  0  0  0  0
 11 35  1  0  0  0  0
 11 36  1  0  0  0  0
 11 37  1  0  0  0  0
 12 13  1  0  0  0  0
 13 38  1  0  0  0  0
 13 39  1  0  0  0  0
 13 40  1  0  0  0  0
 14 15  1  0  0  0  0
 15 41  1  0  0  0  0
 15 42  1  0  0  0  0
 15 43  1  0  0  0  0
 16 25  2  0  0  0  0
 16 17  1  0  0  0  0
 17 18  2  0  0  0  0
 17 44  1  0  0  0  0
 18 23  1  0  0  0  0
 18 19  1  0  0  0  0
 19 20  2  0  0  0  0
 19 27  1  0  0  0  0
 20 21  1  0  0  0  0
 21 22  2  0  0  0  0
 21 26  1  0  0  0  0
 22 23  1  0  0  0  0
 23 24  2  0  0  0  0
 24 25  1  0  0  0  0
 25 45  1  0  0  0  0
 26 46  1  0  0  0  0
 26 47  1  0  0  0  0
 27 48  1  0  0  0  0
 27 49  1  0  0  0  0
M  END
$$$$
ZINC03814961
  -OEChem-08230709403D

 50 52  0     1  0  0  0  0  0999 V2000
   -3.8799    2.4555   -1.6116 C   0  0  0  0  0  0  0  0  0  0  0  0
   -3.0627    1.2695   -1.3439 N   0  0  3  0  0  0  0  0  0  0  0  0
   -2.4635    1.0761   -0.0211 C   0  0  0  0  0  0  0  0  0  0  0  0
   -1.0857    1.6864    0.0004 C   0  0  0  0  0  0  0  0  0  0  0  0
    0.0296    0.8768   -0.1087 C   0  0  0  0  0  0  0  0  0  0  0  0
    1.2952    1.4321   -0.0953 C   0  0  0  0  0  0  0  0  0  0  0  0
    1.4511    2.8042    0.0335 C   0  0  0  0  0  0  0  0  0  0  0  0
    0.3328    3.6208    0.1492 C   0  0  0  0  0  0  0  0  0  0  0  0
   -0.9383    3.0584    0.1352 C   0  0  0  0  0  0  0  0  0  0  0  0
   -2.0359    3.8534    0.2476 O   0  0  0  0  0  0  0  0  0  0  0  0
   -2.4504    4.2040    1.5694 C   0  0  0  0  0  0  0  0  0  0  0  0
    0.4816    4.9676    0.2762 O   0  0  0  0  0  0  0  0  0  0  0  0
    0.5976    5.7242   -0.9305 C   0  0  0  0  0  0  0  0  0  0  0  0
    2.6968    3.3496    0.0471 O   0  0  0  0  0  0  0  0  0  0  0  0
    3.8003    2.4500   -0.0757 C   0  0  0  0  0  0  0  0  0  0  0  0
   -2.8544    0.3212   -2.3518 C   0  0  0  0  0  0  0  0  0  0  0  0
   -3.4190    0.4996   -3.6047 C   0  0  0  0  0  0  0  0  0  0  0  0
   -3.1792   -0.4789   -4.5762 C   0  0  0  0  0  0  0  0  0  0  0  0
   -3.7129   -0.3845   -5.8855 C   0  0  0  0  0  0  0  0  0  0  0  0
   -3.4378   -1.3531   -6.7469 N   0  0  0  0  0  0  0  0  0  0  0  0
   -2.6821   -2.3914   -6.4004 C   0  0  0  0  0  0  0  0  0  0  0  0
   -2.3792   -1.6014   -4.2498 C   0  0  0  0  0  0  0  0  0  0  0  0
   -1.8627   -1.7185   -3.0268 N   0  0  0  0  0  0  0  0  0  0  0  0
   -2.0718   -0.8077   -2.1034 C   0  0  0  0  0  0  0  0  0  0  0  0
   -2.4311   -3.3705   -7.3439 N   0  0  0  0  0  0  0  0  0  0  0  0
   -4.4970    0.6876   -6.2538 N   0  0  0  0  0  0  0  0  0  0  0  0
   -3.2612    3.2272   -2.0698 H   0  0  0  0  0  0  0  0  0  0  0  0
   -4.6924    2.1917   -2.2887 H   0  0  0  0  0  0  0  0  0  0  0  0
   -4.2941    2.8302   -0.6756 H   0  0  0  0  0  0  0  0  0  0  0  0
   -2.3919    0.0098    0.1930 H   0  0  0  0  0  0  0  0  0  0  0  0
   -3.0858    1.5573    0.7335 H   0  0  0  0  0  0  0  0  0  0  0  0
   -0.0885   -0.1920   -0.2092 H   0  0  0  0  0  0  0  0  0  0  0  0
    2.1638    0.7968   -0.1856 H   0  0  0  0  0  0  0  0  0  0  0  0
   -3.3847    4.7634    1.5209 H   0  0  0  0  0  0  0  0  0  0  0  0
   -2.5998    3.2975    2.1559 H   0  0  0  0  0  0  0  0  0  0  0  0
   -1.6830    4.8187    2.0398 H   0  0  0  0  0  0  0  0  0  0  0  0
   -0.3324    5.6535   -1.4945 H   0  0  0  0  0  0  0  0  0  0  0  0
    0.7967    6.7679   -0.6873 H   0  0  0  0  0  0  0  0  0  0  0  0
    1.4172    5.3282   -1.5302 H   0  0  0  0  0  0  0  0  0  0  0  0
    3.7830    1.7388    0.7501 H   0  0  0  0  0  0  0  0  0  0  0  0
    3.7266    1.9114   -1.0205 H   0  0  0  0  0  0  0  0  0  0  0  0
    4.7330    3.0134   -0.0505 H   0  0  0  0  0  0  0  0  0  0  0  0
   -4.0246    1.3663   -3.8246 H   0  0  0  0  0  0  0  0  0  0  0  0
   -1.6309   -0.9379   -1.1262 H   0  0  0  0  0  0  0  0  0  0  0  0
   -1.8824   -4.1366   -7.1137 H   0  0  0  0  0  0  0  0  0  0  0  0
   -2.8037   -3.2913   -8.2359 H   0  0  0  0  0  0  0  0  0  0  0  0
   -4.6899    1.3900   -5.6133 H   0  0  0  0  0  0  0  0  0  0  0  0
   -4.8558    0.7396   -7.1534 H   0  0  0  0  0  0  0  0  0  0  0  0
   -2.1207   -2.5857   -5.1812 N   0  3  0  0  0  0  0  0  0  0  0  0
   -1.5649   -3.3993   -5.0106 H   0  0  0  0  0  0  0  0  0  0  0  0
  1  2  1  0  0  0  0
  1 27  1  0  0  0  0
  1 28  1  0  0  0  0
  1 29  1  0  0  0  0
  2  3  1  0  0  0  0
  2 16  1  0  0  0  0
  3  4  1  0  0  0  0
  3 30  1  0  0  0  0
  3 31  1  0  0  0  0
  4  9  2  0  0  0  0
  4  5  1  0  0  0  0
  5  6  2  0  0  0  0
  5 32  1  0  0  0  0
  6  7  1  0  0  0  0
  6 33  1  0  0  0  0
  7  8  2  0  0  0  0
  7 14  1  0  0  0  0
  8  9  1  0  0  0  0
  8 12  1  0  0  0  0
  9 10  1  0  0  0  0
 10 11  1  0  0  0  0
 11 34  1  0  0  0  0
 11 35  1  0  0  0  0
 11 36  1  0  0  0  0
 12 13  1  0  0  0  0
 13 37  1  0  0  0  0
 13 38  1  0  0  0  0
 13 39  1  0  0  0  0
 14 15  1  0  0  0  0
 15 40  1  0  0  0  0
 15 41  1  0  0  0  0
 15 42  1  0  0  0  0
 16 24  2  0  0  0  0
 16 17  1  0  0  0  0
 17 18  2  0  0  0  0
 17 43  1  0  0  0  0
 18 22  1  0  0  0  0
 18 19  1  0  0  0  0
 19 20  2  0  0  0  0
 19 26  1  0  0  0  0
 20 21  1  0  0  0  0
 21 25  1  0  0  0  0
 21 49  2  0  0  0  0
 22 23  2  0  0  0  0
 22 49  1  0  0  0  0
 23 24  1  0  0  0  0
 24 44  1  0  0  0  0
 25 45  1  0  0  0  0
 25 46  1  0  0  0  0
 26 47  1  0  0  0  0
 26 48  1  0  0  0  0
 49 50  1  0  0  0  0
M  CHG  1  49   1
M  END
$$$$
ZINC03814962
  -OEChem-08230709403D

 45 47  0     1  0  0  0  0  0999 V2000
   -1.1720   -2.1895    0.0020 C   0  0  0  0  0  0  0  0  0  0  0  0
   -1.1974   -0.7248    0.0101 N   0  0  3  0  0  0  0  0  0  0  0  0
   -2.4786   -0.0145    0.0266 C   0  0  0  0  0  0  0  0  0  0  0  0
   -2.9321    0.2367   -1.3884 C   0  0  0  0  0  0  0  0  0  0  0  0
   -2.5637    1.4014   -2.0343 C   0  0  0  0  0  0  0  0  0  0  0  0
   -2.9753    1.6324   -3.3393 C   0  0  0  0  0  0  0  0  0  0  0  0
   -3.7656    0.6985   -3.9913 C   0  0  0  0  0  0  0  0  0  0  0  0
   -4.1385   -0.4667   -3.3392 C   0  0  0  0  0  0  0  0  0  0  0  0
   -3.7201   -0.6955   -2.0359 C   0  0  0  0  0  0  0  0  0  0  0  0
   -4.9128   -1.3843   -3.9758 O   0  0  0  0  0  0  0  0  0  0  0  0
   -5.3066   -1.0830   -5.3160 C   0  0  0  0  0  0  0  0  0  0  0  0
   -2.6078    2.7753   -3.9760 O   0  0  0  0  0  0  0  0  0  0  0  0
   -3.0717    2.9491   -5.3164 C   0  0  0  0  0  0  0  0  0  0  0  0
    0.0021   -0.0041    0.0020 C   0  0  0  0  0  0  0  0  0  0  0  0
    1.2166   -0.6713   -0.0132 C   0  0  0  0  0  0  0  0  0  0  0  0
    2.3861    0.0975   -0.0202 C   0  0  0  0  0  0  0  0  0  0  0  0
    3.6740   -0.4932   -0.0352 C   0  0  0  0  0  0  0  0  0  0  0  0
    4.7311    0.3058   -0.0406 N   0  0  0  0  0  0  0  0  0  0  0  0
    4.5968    1.6291   -0.0321 C   0  0  0  0  0  0  0  0  0  0  0  0
    3.4223    2.2293   -0.0181 N   0  0  0  0  0  0  0  0  0  0  0  0
    2.2889    1.5107   -0.0116 C   0  0  0  0  0  0  0  0  0  0  0  0
    1.0918    2.0964    0.0029 N   0  0  0  0  0  0  0  0  0  0  0  0
   -0.0169    1.3917    0.0097 C   0  0  0  0  0  0  0  0  0  0  0  0
    5.7381    2.4096   -0.0378 N   0  0  0  0  0  0  0  0  0  0  0  0
    3.8233   -1.8634   -0.0436 N   0  0  0  0  0  0  0  0  0  0  0  0
   -1.1555   -2.5583    1.0275 H   0  0  0  0  0  0  0  0  0  0  0  0
   -2.0606   -2.5655   -0.5051 H   0  0  0  0  0  0  0  0  0  0  0  0
   -0.2810   -2.5345   -0.5226 H   0  0  0  0  0  0  0  0  0  0  0  0
   -3.2228   -0.6194    0.5446 H   0  0  0  0  0  0  0  0  0  0  0  0
   -2.3598    0.9373    0.5444 H   0  0  0  0  0  0  0  0  0  0  0  0
   -1.9514    2.1305   -1.5245 H   0  0  0  0  0  0  0  0  0  0  0  0
   -4.0900    0.8781   -5.0056 H   0  0  0  0  0  0  0  0  0  0  0  0
   -4.0103   -1.6031   -1.5275 H   0  0  0  0  0  0  0  0  0  0  0  0
   -5.8815   -0.1570   -5.3263 H   0  0  0  0  0  0  0  0  0  0  0  0
   -4.4191   -0.9667   -5.9380 H   0  0  0  0  0  0  0  0  0  0  0  0
   -5.9196   -1.8956   -5.7060 H   0  0  0  0  0  0  0  0  0  0  0  0
   -2.7077    3.8997   -5.7065 H   0  0  0  0  0  0  0  0  0  0  0  0
   -2.6995    2.1349   -5.9382 H   0  0  0  0  0  0  0  0  0  0  0  0
   -4.1616    2.9455   -5.3270 H   0  0  0  0  0  0  0  0  0  0  0  0
    1.2593   -1.7505   -0.0197 H   0  0  0  0  0  0  0  0  0  0  0  0
   -0.9669    1.9052    0.0169 H   0  0  0  0  0  0  0  0  0  0  0  0
    6.6126    1.9900   -0.0478 H   0  0  0  0  0  0  0  0  0  0  0  0
    5.6643    3.3768   -0.0318 H   0  0  0  0  0  0  0  0  0  0  0  0
    3.0408   -2.4366   -0.0393 H   0  0  0  0  0  0  0  0  0  0  0  0
    4.7109   -2.2544   -0.0539 H   0  0  0  0  0  0  0  0  0  0  0  0
  1  2  1  0  0  0  0
  1 26  1  0  0  0  0
  1 27  1  0  0  0  0
  1 28  1  0  0  0  0
  2  3  1  0  0  0  0
  2 14  1  0  0  0  0
  3  4  1  0  0  0  0
  3 29  1  0  0  0  0
  3 30  1  0  0  0  0
  4  9  2  0  0  0  0
  4  5  1  0  0  0  0
  5  6  2  0  0  0  0
  5 31  1  0  0  0  0
  6  7  1  0  0  0  0
  6 12  1  0  0  0  0
  7  8  2  0  0  0  0
  7 32  1  0  0  0  0
  8  9  1  0  0  0  0
  8 10  1  0  0  0  0
  9 33  1  0  0  0  0
 10 11  1  0  0  0  0
 11 34  1  0  0  0  0
 11 35  1  0  0  0  0
 11 36  1  0  0  0  0
 12 13  1  0  0  0  0
 13 37  1  0  0  0  0
 13 38  1  0  0  0  0
 13 39  1  0  0  0  0
 14 23  2  0  0  0  0
 14 15  1  0  0  0  0
 15 16  2  0  0  0  0
 15 40  1  0  0  0  0
 16 21  1  0  0  0  0
 16 17  1  0  0  0  0
 17 18  2  0  0  0  0
 17 25  1  0  0  0  0
 18 19  1  0  0  0  0
 19 20  2  0  0  0  0
 19 24  1  0  0  0  0
 20 21  1  0  0  0  0
 21 22  2  0  0  0  0
 22 23  1  0  0  0  0
 23 41  1  0  0  0  0
 24 42  1  0  0  0  0
 24 43  1  0  0  0  0
 25 44  1  0  0  0  0
 25 45  1  0  0  0  0
M  END
$$$$
ZINC03814962
  -OEChem-08230709403D

 46 48  0     1  0  0  0  0  0999 V2000
   -1.1720   -2.1895    0.0020 C   0  0  0  0  0  0  0  0  0  0  0  0
   -1.1974   -0.7248    0.0101 N   0  0  3  0  0  0  0  0  0  0  0  0
   -2.4786   -0.0145    0.0266 C   0  0  0  0  0  0  0  0  0  0  0  0
   -2.9321    0.2367   -1.3884 C   0  0  0  0  0  0  0  0  0  0  0  0
   -2.5637    1.4014   -2.0343 C   0  0  0  0  0  0  0  0  0  0  0  0
   -2.9753    1.6324   -3.3393 C   0  0  0  0  0  0  0  0  0  0  0  0
   -3.7656    0.6985   -3.9913 C   0  0  0  0  0  0  0  0  0  0  0  0
   -4.1385   -0.4667   -3.3392 C   0  0  0  0  0  0  0  0  0  0  0  0
   -3.7201   -0.6955   -2.0359 C   0  0  0  0  0  0  0  0  0  0  0  0
   -4.9128   -1.3843   -3.9758 O   0  0  0  0  0  0  0  0  0  0  0  0
   -5.3066   -1.0830   -5.3160 C   0  0  0  0  0  0  0  0  0  0  0  0
   -2.6078    2.7753   -3.9760 O   0  0  0  0  0  0  0  0  0  0  0  0
   -3.0717    2.9491   -5.3164 C   0  0  0  0  0  0  0  0  0  0  0  0
    0.0021   -0.0041    0.0020 C   0  0  0  0  0  0  0  0  0  0  0  0
    1.2166   -0.6713   -0.0132 C   0  0  0  0  0  0  0  0  0  0  0  0
    2.3861    0.0975   -0.0202 C   0  0  0  0  0  0  0  0  0  0  0  0
    3.6740   -0.4932   -0.0352 C   0  0  0  0  0  0  0  0  0  0  0  0
    4.7311    0.3058   -0.0406 N   0  0  0  0  0  0  0  0  0  0  0  0
    4.5968    1.6291   -0.0321 C   0  0  0  0  0  0  0  0  0  0  0  0
    2.2889    1.5107   -0.0116 C   0  0  0  0  0  0  0  0  0  0  0  0
    1.0918    2.0964    0.0029 N   0  0  0  0  0  0  0  0  0  0  0  0
   -0.0169    1.3917    0.0097 C   0  0  0  0  0  0  0  0  0  0  0  0
    5.7381    2.4096   -0.0378 N   0  0  0  0  0  0  0  0  0  0  0  0
    3.8233   -1.8634   -0.0436 N   0  0  0  0  0  0  0  0  0  0  0  0
   -1.1555   -2.5583    1.0275 H   0  0  0  0  0  0  0  0  0  0  0  0
   -2.0606   -2.5655   -0.5051 H   0  0  0  0  0  0  0  0  0  0  0  0
   -0.2810   -2.5345   -0.5226 H   0  0  0  0  0  0  0  0  0  0  0  0
   -3.2228   -0.6194    0.5446 H   0  0  0  0  0  0  0  0  0  0  0  0
   -2.3598    0.9373    0.5444 H   0  0  0  0  0  0  0  0  0  0  0  0
   -1.9514    2.1305   -1.5245 H   0  0  0  0  0  0  0  0  0  0  0  0
   -4.0900    0.8781   -5.0056 H   0  0  0  0  0  0  0  0  0  0  0  0
   -4.0103   -1.6031   -1.5275 H   0  0  0  0  0  0  0  0  0  0  0  0
   -5.8815   -0.1570   -5.3263 H   0  0  0  0  0  0  0  0  0  0  0  0
   -4.4191   -0.9667   -5.9380 H   0  0  0  0  0  0  0  0  0  0  0  0
   -5.9196   -1.8956   -5.7060 H   0  0  0  0  0  0  0  0  0  0  0  0
   -2.7077    3.8997   -5.7065 H   0  0  0  0  0  0  0  0  0  0  0  0
   -2.6995    2.1349   -5.9382 H   0  0  0  0  0  0  0  0  0  0  0  0
   -4.1616    2.9455   -5.3270 H   0  0  0  0  0  0  0  0  0  0  0  0
    1.2593   -1.7505   -0.0197 H   0  0  0  0  0  0  0  0  0  0  0  0
   -0.9669    1.9052    0.0169 H   0  0  0  0  0  0  0  0  0  0  0  0
    6.6126    1.9900   -0.0478 H   0  0  0  0  0  0  0  0  0  0  0  0
    5.6643    3.3768   -0.0318 H   0  0  0  0  0  0  0  0  0  0  0  0
    3.0408   -2.4366   -0.0393 H   0  0  0  0  0  0  0  0  0  0  0  0
    4.7109   -2.2544   -0.0539 H   0  0  0  0  0  0  0  0  0  0  0  0
    3.4193    2.3016   -0.0177 N   0  3  0  0  0  0  0  0  0  0  0  0
    3.4146    3.3016   -0.0122 H   0  0  0  0  0  0  0  0  0  0  0  0
  1  2  1  0  0  0  0
  1 25  1  0  0  0  0
  1 26  1  0  0  0  0
  1 27  1  0  0  0  0
  2  3  1  0  0  0  0
  2 14  1  0  0  0  0
  3  4  1  0  0  0  0
  3 28  1  0  0  0  0
  3 29  1  0  0  0  0
  4  9  2  0  0  0  0
  4  5  1  0  0  0  0
  5  6  2  0  0  0  0
  5 30  1  0  0  0  0
  6  7  1  0  0  0  0
  6 12  1  0  0  0  0
  7  8  2  0  0  0  0
  7 31  1  0  0  0  0
  8  9  1  0  0  0  0
  8 10  1  0  0  0  0
  9 32  1  0  0  0  0
 10 11  1  0  0  0  0
 11 33  1  0  0  0  0
 11 34  1  0  0  0  0
 11 35  1  0  0  0  0
 12 13  1  0  0  0  0
 13 36  1  0  0  0  0
 13 37  1  0  0  0  0
 13 38  1  0  0  0  0
 14 22  2  0  0  0  0
 14 15  1  0  0  0  0
 15 16  2  0  0  0  0
 15 39  1  0  0  0  0
 16 20  1  0  0  0  0
 16 17  1  0  0  0  0
 17 18  2  0  0  0  0
 17 24  1  0  0  0  0
 18 19  1  0  0  0  0
 19 23  1  0  0  0  0
 19 45  2  0  0  0  0
 20 21  2  0  0  0  0
 20 45  1  0  0  0  0
 21 22  1  0  0  0  0
 22 40  1  0  0  0  0
 23 41  1  0  0  0  0
 23 42  1  0  0  0  0
 24 43  1  0  0  0  0
 24 44  1  0  0  0  0
 45 46  1  0  0  0  0
M  CHG  1  45   1
M  END
$$$$
ZINC03814963
  -OEChem-08230709403D

 42 44  0     0  0  0  0  0  0999 V2000
    2.4206    4.1127    0.0006 C   0  0  0  0  0  0  0  0  0  0  0  0
    1.1563    3.4467    0.0091 O   0  0  0  0  0  0  0  0  0  0  0  0
    1.1747    2.0870    0.0021 C   0  0  0  0  0  0  0  0  0  0  0  0
    2.3853    1.4098   -0.0136 C   0  0  0  0  0  0  0  0  0  0  0  0
    2.4041    0.0289   -0.0207 C   0  0  0  0  0  0  0  0  0  0  0  0
    1.2123   -0.6810   -0.0132 C   0  0  0  0  0  0  0  0  0  0  0  0
    0.0021   -0.0041    0.0020 C   0  0  0  0  0  0  0  0  0  0  0  0
   -0.0167    1.3773    0.0096 C   0  0  0  0  0  0  0  0  0  0  0  0
   -1.2926   -0.7753    0.0107 C   0  0  0  0  0  0  0  0  0  0  0  0
   -1.5760   -1.2385    1.3714 N   0  0  0  0  0  0  0  0  0  0  0  0
   -2.7328   -1.9821    1.6307 C   0  0  0  0  0  0  0  0  0  0  0  0
   -3.0053   -2.4226    2.9160 C   0  0  0  0  0  0  0  0  0  0  0  0
   -4.1756   -3.1623    3.1203 C   0  0  0  0  0  0  0  0  0  0  0  0
   -4.5397   -3.6550    4.3980 C   0  0  0  0  0  0  0  0  0  0  0  0
   -5.6650   -4.3463    4.5070 N   0  0  0  0  0  0  0  0  0  0  0  0
   -6.4386   -4.5774    3.4500 C   0  0  0  0  0  0  0  0  0  0  0  0
   -6.1462   -4.1419    2.2398 N   0  0  0  0  0  0  0  0  0  0  0  0
   -5.0288   -3.4312    2.0219 C   0  0  0  0  0  0  0  0  0  0  0  0
   -4.7138   -2.9810    0.8077 N   0  0  0  0  0  0  0  0  0  0  0  0
   -3.6228   -2.2801    0.5974 C   0  0  0  0  0  0  0  0  0  0  0  0
   -7.6004   -5.3057    3.6277 N   0  0  0  0  0  0  0  0  0  0  0  0
   -3.7445   -3.4206    5.4991 N   0  0  0  0  0  0  0  0  0  0  0  0
    1.2307   -2.0407   -0.0211 O   0  0  0  0  0  0  0  0  0  0  0  0
    2.5126   -2.6721   -0.0367 C   0  0  0  0  0  0  0  0  0  0  0  0
    2.2631    5.1912    0.0075 H   0  0  0  0  0  0  0  0  0  0  0  0
    2.9898    3.8229    0.8838 H   0  0  0  0  0  0  0  0  0  0  0  0
    2.9732    3.8319   -0.8960 H   0  0  0  0  0  0  0  0  0  0  0  0
    3.3132    1.9625   -0.0198 H   0  0  0  0  0  0  0  0  0  0  0  0
    3.3466   -0.4984   -0.0325 H   0  0  0  0  0  0  0  0  0  0  0  0
   -0.9592    1.9045    0.0169 H   0  0  0  0  0  0  0  0  0  0  0  0
   -2.1024   -0.1297   -0.3293 H   0  0  0  0  0  0  0  0  0  0  0  0
   -1.2085   -1.6340   -0.6553 H   0  0  0  0  0  0  0  0  0  0  0  0
   -0.9617   -1.0298    2.0925 H   0  0  0  0  0  0  0  0  0  0  0  0
   -2.3358   -2.2017    3.7343 H   0  0  0  0  0  0  0  0  0  0  0  0
   -3.4066   -1.9296   -0.4010 H   0  0  0  0  0  0  0  0  0  0  0  0
   -8.1802   -5.4863    2.8712 H   0  0  0  0  0  0  0  0  0  0  0  0
   -7.8358   -5.6361    4.5088 H   0  0  0  0  0  0  0  0  0  0  0  0
   -2.9236   -2.9125    5.4052 H   0  0  0  0  0  0  0  0  0  0  0  0
   -4.0057   -3.7638    6.3680 H   0  0  0  0  0  0  0  0  0  0  0  0
    3.0739   -2.3767    0.8498 H   0  0  0  0  0  0  0  0  0  0  0  0
    2.3845   -3.7545   -0.0416 H   0  0  0  0  0  0  0  0  0  0  0  0
    3.0572   -2.3665   -0.9300 H   0  0  0  0  0  0  0  0  0  0  0  0
  1  2  1  0  0  0  0
  1 25  1  0  0  0  0
  1 26  1  0  0  0  0
  1 27  1  0  0  0  0
  2  3  1  0  0  0  0
  3  8  2  0  0  0  0
  3  4  1  0  0  0  0
  4  5  2  0  0  0  0
  4 28  1  0  0  0  0
  5  6  1  0  0  0  0
  5 29  1  0  0  0  0
  6  7  2  0  0  0  0
  6 23  1  0  0  0  0
  7  8  1  0  0  0  0
  7  9  1  0  0  0  0
  8 30  1  0  0  0  0
  9 10  1  0  0  0  0
  9 31  1  0  0  0  0
  9 32  1  0  0  0  0
 10 11  1  0  0  0  0
 10 33  1  0  0  0  0
 11 20  2  0  0  0  0
 11 12  1  0  0  0  0
 12 13  2  0  0  0  0
 12 34  1  0  0  0  0
 13 18  1  0  0  0  0
 13 14  1  0  0  0  0
 14 15  2  0  0  0  0
 14 22  1  0  0  0  0
 15 16  1  0  0  0  0
 16 17  2  0  0  0  0
 16 21  1  0  0  0  0
 17 18  1  0  0  0  0
 18 19  2  0  0  0  0
 19 20  1  0  0  0  0
 20 35  1  0  0  0  0
 21 36  1  0  0  0  0
 21 37  1  0  0  0  0
 22 38  1  0  0  0  0
 22 39  1  0  0  0  0
 23 24  1  0  0  0  0
 24 40  1  0  0  0  0
 24 41  1  0  0  0  0
 24 42  1  0  0  0  0
M  END
$$$$
ZINC03814963
  -OEChem-08230709403D

 43 45  0     0  0  0  0  0  0999 V2000
    2.4206    4.1127    0.0006 C   0  0  0  0  0  0  0  0  0  0  0  0
    1.1563    3.4467    0.0091 O   0  0  0  0  0  0  0  0  0  0  0  0
    1.1747    2.0870    0.0021 C   0  0  0  0  0  0  0  0  0  0  0  0
    2.3853    1.4098   -0.0136 C   0  0  0  0  0  0  0  0  0  0  0  0
    2.4041    0.0289   -0.0207 C   0  0  0  0  0  0  0  0  0  0  0  0
    1.2123   -0.6810   -0.0132 C   0  0  0  0  0  0  0  0  0  0  0  0
    0.0021   -0.0041    0.0020 C   0  0  0  0  0  0  0  0  0  0  0  0
   -0.0167    1.3773    0.0096 C   0  0  0  0  0  0  0  0  0  0  0  0
   -1.2926   -0.7753    0.0107 C   0  0  0  0  0  0  0  0  0  0  0  0
   -1.5760   -1.2385    1.3714 N   0  0  0  0  0  0  0  0  0  0  0  0
   -2.7328   -1.9821    1.6307 C   0  0  0  0  0  0  0  0  0  0  0  0
   -3.0053   -2.4226    2.9160 C   0  0  0  0  0  0  0  0  0  0  0  0
   -4.1756   -3.1623    3.1203 C   0  0  0  0  0  0  0  0  0  0  0  0
   -4.5397   -3.6550    4.3980 C   0  0  0  0  0  0  0  0  0  0  0  0
   -5.6650   -4.3463    4.5070 N   0  0  0  0  0  0  0  0  0  0  0  0
   -6.4386   -4.5774    3.4500 C   0  0  0  0  0  0  0  0  0  0  0  0
   -5.0288   -3.4312    2.0219 C   0  0  0  0  0  0  0  0  0  0  0  0
   -4.7138   -2.9810    0.8077 N   0  0  0  0  0  0  0  0  0  0  0  0
   -3.6228   -2.2801    0.5974 C   0  0  0  0  0  0  0  0  0  0  0  0
   -7.6004   -5.3057    3.6277 N   0  0  0  0  0  0  0  0  0  0  0  0
   -3.7445   -3.4206    5.4991 N   0  0  0  0  0  0  0  0  0  0  0  0
    1.2307   -2.0407   -0.0211 O   0  0  0  0  0  0  0  0  0  0  0  0
    2.5126   -2.6721   -0.0367 C   0  0  0  0  0  0  0  0  0  0  0  0
    2.2631    5.1912    0.0075 H   0  0  0  0  0  0  0  0  0  0  0  0
    2.9898    3.8229    0.8838 H   0  0  0  0  0  0  0  0  0  0  0  0
    2.9732    3.8319   -0.8960 H   0  0  0  0  0  0  0  0  0  0  0  0
    3.3132    1.9625   -0.0198 H   0  0  0  0  0  0  0  0  0  0  0  0
    3.3466   -0.4984   -0.0325 H   0  0  0  0  0  0  0  0  0  0  0  0
   -0.9592    1.9045    0.0169 H   0  0  0  0  0  0  0  0  0  0  0  0
   -2.1024   -0.1297   -0.3293 H   0  0  0  0  0  0  0  0  0  0  0  0
   -1.2085   -1.6340   -0.6553 H   0  0  0  0  0  0  0  0  0  0  0  0
   -0.9617   -1.0298    2.0925 H   0  0  0  0  0  0  0  0  0  0  0  0
   -2.3358   -2.2017    3.7343 H   0  0  0  0  0  0  0  0  0  0  0  0
   -3.4066   -1.9296   -0.4010 H   0  0  0  0  0  0  0  0  0  0  0  0
   -8.1802   -5.4863    2.8712 H   0  0  0  0  0  0  0  0  0  0  0  0
   -7.8358   -5.6361    4.5088 H   0  0  0  0  0  0  0  0  0  0  0  0
   -2.9236   -2.9125    5.4052 H   0  0  0  0  0  0  0  0  0  0  0  0
   -4.0057   -3.7638    6.3680 H   0  0  0  0  0  0  0  0  0  0  0  0
    3.0739   -2.3767    0.8498 H   0  0  0  0  0  0  0  0  0  0  0  0
    2.3845   -3.7545   -0.0416 H   0  0  0  0  0  0  0  0  0  0  0  0
    3.0572   -2.3665   -0.9300 H   0  0  0  0  0  0  0  0  0  0  0  0
   -6.1910   -4.1566    2.1849 N   0  3  0  0  0  0  0  0  0  0  0  0
   -6.8318   -4.3781    1.4498 H   0  0  0  0  0  0  0  0  0  0  0  0
  1  2  1  0  0  0  0
  1 24  1  0  0  0  0
  1 25  1  0  0  0  0
  1 26  1  0  0  0  0
  2  3  1  0  0  0  0
  3  8  2  0  0  0  0
  3  4  1  0  0  0  0
  4  5  2  0  0  0  0
  4 27  1  0  0  0  0
  5  6  1  0  0  0  0
  5 28  1  0  0  0  0
  6  7  2  0  0  0  0
  6 22  1  0  0  0  0
  7  8  1  0  0  0  0
  7  9  1  0  0  0  0
  8 29  1  0  0  0  0
  9 10  1  0  0  0  0
  9 30  1  0  0  0  0
  9 31  1  0  0  0  0
 10 11  1  0  0  0  0
 10 32  1  0  0  0  0
 11 19  2  0  0  0  0
 11 12  1  0  0  0  0
 12 13  2  0  0  0  0
 12 33  1  0  0  0  0
 13 17  1  0  0  0  0
 13 14  1  0  0  0  0
 14 15  2  0  0  0  0
 14 21  1  0  0  0  0
 15 16  1  0  0  0  0
 16 20  1  0  0  0  0
 16 42  2  0  0  0  0
 17 18  2  0  0  0  0
 17 42  1  0  0  0  0
 18 19  1  0  0  0  0
 19 34  1  0  0  0  0
 20 35  1  0  0  0  0
 20 36  1  0  0  0  0
 21 37  1  0  0  0  0
 21 38  1  0  0  0  0
 22 23  1  0  0  0  0
 23 39  1  0  0  0  0
 23 40  1  0  0  0  0
 23 41  1  0  0  0  0
 42 43  1  0  0  0  0
M  CHG  1  42   1
M  END
$$$$
ZINC03814965
  -OEChem-08230709403D

 40 43  0     0  0  0  0  0  0999 V2000
    2.2865    5.2702    0.0076 C   0  0  0  0  0  0  0  0  0  0  0  0
    1.0643    5.9401    0.0230 C   0  0  0  0  0  0  0  0  0  0  0  0
   -0.1108    5.2538    0.0306 C   0  0  0  0  0  0  0  0  0  0  0  0
   -0.0954    3.8484    0.0237 C   0  0  0  0  0  0  0  0  0  0  0  0
    1.1475    3.1672    0.0081 C   0  0  0  0  0  0  0  0  0  0  0  0
    2.3404    3.9104    0.0001 C   0  0  0  0  0  0  0  0  0  0  0  0
    1.1629    1.7623    0.0004 C   0  0  0  0  0  0  0  0  0  0  0  0
   -0.0126    1.0758    0.0080 C   0  0  0  0  0  0  0  0  0  0  0  0
   -1.2344    1.7455    0.0174 C   0  0  0  0  0  0  0  0  0  0  0  0
   -1.2880    3.1056    0.0315 C   0  0  0  0  0  0  0  0  0  0  0  0
   -2.6196    3.8110    0.0475 C   0  0  0  0  0  0  0  0  0  0  0  0
   -2.9518    4.2579   -1.3075 N   0  0  0  0  0  0  0  0  0  0  0  0
   -4.1492    4.9424   -1.5447 C   0  0  0  0  0  0  0  0  0  0  0  0
   -4.4679    5.3672   -2.8247 C   0  0  0  0  0  0  0  0  0  0  0  0
   -5.6776    6.0472   -3.0067 C   0  0  0  0  0  0  0  0  0  0  0  0
   -6.0903    6.5196   -4.2772 C   0  0  0  0  0  0  0  0  0  0  0  0
   -7.2507    7.1536   -4.3647 N   0  0  0  0  0  0  0  0  0  0  0  0
   -8.0145    7.3469   -3.2931 C   0  0  0  0  0  0  0  0  0  0  0  0
   -7.6775    6.9279   -2.0887 N   0  0  0  0  0  0  0  0  0  0  0  0
   -6.5219    6.2743   -1.8922 C   0  0  0  0  0  0  0  0  0  0  0  0
   -6.1617    5.8418   -0.6841 N   0  0  0  0  0  0  0  0  0  0  0  0
   -5.0330    5.1967   -0.4946 C   0  0  0  0  0  0  0  0  0  0  0  0
   -9.2145    8.0159   -3.4486 N   0  0  0  0  0  0  0  0  0  0  0  0
   -5.3055    6.3241   -5.3933 N   0  0  0  0  0  0  0  0  0  0  0  0
    3.2046    5.8389    0.0011 H   0  0  0  0  0  0  0  0  0  0  0  0
    1.0496    7.0200    0.0286 H   0  0  0  0  0  0  0  0  0  0  0  0
   -1.0504    5.7863    0.0418 H   0  0  0  0  0  0  0  0  0  0  0  0
    3.2947    3.4051   -0.0122 H   0  0  0  0  0  0  0  0  0  0  0  0
    2.1024    1.2298   -0.0118 H   0  0  0  0  0  0  0  0  0  0  0  0
    0.0021   -0.0041    0.0020 H   0  0  0  0  0  0  0  0  0  0  0  0
   -2.1526    1.1769    0.0184 H   0  0  0  0  0  0  0  0  0  0  0  0
   -3.3894    3.1261    0.4031 H   0  0  0  0  0  0  0  0  0  0  0  0
   -2.5659    4.6736    0.7117 H   0  0  0  0  0  0  0  0  0  0  0  0
   -2.3418    4.0795   -2.0403 H   0  0  0  0  0  0  0  0  0  0  0  0
   -3.8041    5.1792   -3.6556 H   0  0  0  0  0  0  0  0  0  0  0  0
   -4.7805    4.8585    0.4995 H   0  0  0  0  0  0  0  0  0  0  0  0
   -9.7880    8.1680   -2.6812 H   0  0  0  0  0  0  0  0  0  0  0  0
   -9.4829    8.3331   -4.3251 H   0  0  0  0  0  0  0  0  0  0  0  0
   -4.4586    5.8578   -5.3150 H   0  0  0  0  0  0  0  0  0  0  0  0
   -5.6002    6.6527   -6.2570 H   0  0  0  0  0  0  0  0  0  0  0  0
  1  6  2  0  0  0  0
  1  2  1  0  0  0  0
  1 25  1  0  0  0  0
  2  3  2  0  0  0  0
  2 26  1  0  0  0  0
  3  4  1  0  0  0  0
  3 27  1  0  0  0  0
  4 10  2  0  0  0  0
  4  5  1  0  0  0  0
  5  6  1  0  0  0  0
  5  7  2  0  0  0  0
  6 28  1  0  0  0  0
  7  8  1  0  0  0  0
  7 29  1  0  0  0  0
  8  9  2  0  0  0  0
  8 30  1  0  0  0  0
  9 10  1  0  0  0  0
  9 31  1  0  0  0  0
 10 11  1  0  0  0  0
 11 12  1  0  0  0  0
 11 32  1  0  0  0  0
 11 33  1  0  0  0  0
 12 13  1  0  0  0  0
 12 34  1  0  0  0  0
 13 22  2  0  0  0  0
 13 14  1  0  0  0  0
 14 15  2  0  0  0  0
 14 35  1  0  0  0  0
 15 20  1  0  0  0  0
 15 16  1  0  0  0  0
 16 17  2  0  0  0  0
 16 24  1  0  0  0  0
 17 18  1  0  0  0  0
 18 19  2  0  0  0  0
 18 23  1  0  0  0  0
 19 20  1  0  0  0  0
 20 21  2  0  0  0  0
 21 22  1  0  0  0  0
 22 36  1  0  0  0  0
 23 37  1  0  0  0  0
 23 38  1  0  0  0  0
 24 39  1  0  0  0  0
 24 40  1  0  0  0  0
M  END
$$$$
ZINC03814965
  -OEChem-08230709403D

 41 44  0     0  0  0  0  0  0999 V2000
    2.2865    5.2702    0.0076 C   0  0  0  0  0  0  0  0  0  0  0  0
    1.0643    5.9401    0.0230 C   0  0  0  0  0  0  0  0  0  0  0  0
   -0.1108    5.2538    0.0306 C   0  0  0  0  0  0  0  0  0  0  0  0
   -0.0954    3.8484    0.0237 C   0  0  0  0  0  0  0  0  0  0  0  0
    1.1475    3.1672    0.0081 C   0  0  0  0  0  0  0  0  0  0  0  0
    2.3404    3.9104    0.0001 C   0  0  0  0  0  0  0  0  0  0  0  0
    1.1629    1.7623    0.0004 C   0  0  0  0  0  0  0  0  0  0  0  0
   -0.0126    1.0758    0.0080 C   0  0  0  0  0  0  0  0  0  0  0  0
   -1.2344    1.7455    0.0174 C   0  0  0  0  0  0  0  0  0  0  0  0
   -1.2880    3.1056    0.0315 C   0  0  0  0  0  0  0  0  0  0  0  0
   -2.6196    3.8110    0.0475 C   0  0  0  0  0  0  0  0  0  0  0  0
   -2.9518    4.2579   -1.3075 N   0  0  0  0  0  0  0  0  0  0  0  0
   -4.1492    4.9424   -1.5447 C   0  0  0  0  0  0  0  0  0  0  0  0
   -4.4679    5.3672   -2.8247 C   0  0  0  0  0  0  0  0  0  0  0  0
   -5.6776    6.0472   -3.0067 C   0  0  0  0  0  0  0  0  0  0  0  0
   -6.0903    6.5196   -4.2772 C   0  0  0  0  0  0  0  0  0  0  0  0
   -7.2507    7.1536   -4.3647 N   0  0  0  0  0  0  0  0  0  0  0  0
   -8.0145    7.3469   -3.2931 C   0  0  0  0  0  0  0  0  0  0  0  0
   -6.5219    6.2743   -1.8922 C   0  0  0  0  0  0  0  0  0  0  0  0
   -6.1617    5.8418   -0.6841 N   0  0  0  0  0  0  0  0  0  0  0  0
   -5.0330    5.1967   -0.4946 C   0  0  0  0  0  0  0  0  0  0  0  0
   -9.2145    8.0159   -3.4486 N   0  0  0  0  0  0  0  0  0  0  0  0
   -5.3055    6.3241   -5.3933 N   0  0  0  0  0  0  0  0  0  0  0  0
    3.2046    5.8389    0.0011 H   0  0  0  0  0  0  0  0  0  0  0  0
    1.0496    7.0200    0.0286 H   0  0  0  0  0  0  0  0  0  0  0  0
   -1.0504    5.7863    0.0418 H   0  0  0  0  0  0  0  0  0  0  0  0
    3.2947    3.4051   -0.0122 H   0  0  0  0  0  0  0  0  0  0  0  0
    2.1024    1.2298   -0.0118 H   0  0  0  0  0  0  0  0  0  0  0  0
    0.0021   -0.0041    0.0020 H   0  0  0  0  0  0  0  0  0  0  0  0
   -2.1526    1.1769    0.0184 H   0  0  0  0  0  0  0  0  0  0  0  0
   -3.3894    3.1261    0.4031 H   0  0  0  0  0  0  0  0  0  0  0  0
   -2.5659    4.6736    0.7117 H   0  0  0  0  0  0  0  0  0  0  0  0
   -2.3418    4.0795   -2.0403 H   0  0  0  0  0  0  0  0  0  0  0  0
   -3.8041    5.1792   -3.6556 H   0  0  0  0  0  0  0  0  0  0  0  0
   -4.7805    4.8585    0.4995 H   0  0  0  0  0  0  0  0  0  0  0  0
   -9.7880    8.1680   -2.6812 H   0  0  0  0  0  0  0  0  0  0  0  0
   -9.4829    8.3331   -4.3251 H   0  0  0  0  0  0  0  0  0  0  0  0
   -4.4586    5.8578   -5.3150 H   0  0  0  0  0  0  0  0  0  0  0  0
   -5.6002    6.6527   -6.2570 H   0  0  0  0  0  0  0  0  0  0  0  0
   -7.7219    6.9404   -2.0330 N   0  3  0  0  0  0  0  0  0  0  0  0
   -8.3588    7.1303   -1.2858 H   0  0  0  0  0  0  0  0  0  0  0  0
  1  6  2  0  0  0  0
  1  2  1  0  0  0  0
  1 24  1  0  0  0  0
  2  3  2  0  0  0  0
  2 25  1  0  0  0  0
  3  4  1  0  0  0  0
  3 26  1  0  0  0  0
  4 10  2  0  0  0  0
  4  5  1  0  0  0  0
  5  6  1  0  0  0  0
  5  7  2  0  0  0  0
  6 27  1  0  0  0  0
  7  8  1  0  0  0  0
  7 28  1  0  0  0  0
  8  9  2  0  0  0  0
  8 29  1  0  0  0  0
  9 10  1  0  0  0  0
  9 30  1  0  0  0  0
 10 11  1  0  0  0  0
 11 12  1  0  0  0  0
 11 31  1  0  0  0  0
 11 32  1  0  0  0  0
 12 13  1  0  0  0  0
 12 33  1  0  0  0  0
 13 21  2  0  0  0  0
 13 14  1  0  0  0  0
 14 15  2  0  0  0  0
 14 34  1  0  0  0  0
 15 19  1  0  0  0  0
 15 16  1  0  0  0  0
 16 17  2  0  0  0  0
 16 23  1  0  0  0  0
 17 18  1  0  0  0  0
 18 22  1  0  0  0  0
 18 40  2  0  0  0  0
 19 20  2  0  0  0  0
 19 40  1  0  0  0  0
 20 21  1  0  0  0  0
 21 35  1  0  0  0  0
 22 36  1  0  0  0  0
 22 37  1  0  0  0  0
 23 38  1  0  0  0  0
 23 39  1  0  0  0  0
 40 41  1  0  0  0  0
M  CHG  1  40   1
M  END
$$$$
ZINC03814966
  -OEChem-08230709403D

 44 47  0     0  0  0  0  0  0999 V2000
   -6.9531   -4.6112    1.3963 C   0  0  0  0  0  0  0  0  0  0  0  0
   -6.4705   -4.1806    0.1220 O   0  0  0  0  0  0  0  0  0  0  0  0
   -5.2012   -3.7003    0.0736 C   0  0  0  0  0  0  0  0  0  0  0  0
   -4.4432   -3.6433    1.2094 C   0  0  0  0  0  0  0  0  0  0  0  0
   -3.1409   -3.1533    1.1765 C   0  0  0  0  0  0  0  0  0  0  0  0
   -2.5838   -2.7165    0.0132 C   0  0  0  0  0  0  0  0  0  0  0  0
   -3.3320   -2.7535   -1.1757 C   0  0  0  0  0  0  0  0  0  0  0  0
   -4.6565   -3.2565   -1.1484 C   0  0  0  0  0  0  0  0  0  0  0  0
   -5.4020   -3.2988   -2.3376 C   0  0  0  0  0  0  0  0  0  0  0  0
   -4.8427   -2.8620   -3.4994 C   0  0  0  0  0  0  0  0  0  0  0  0
   -3.5384   -2.3720   -3.5278 C   0  0  0  0  0  0  0  0  0  0  0  0
   -2.7864   -2.3157   -2.3948 C   0  0  0  0  0  0  0  0  0  0  0  0
   -1.1720   -2.1895    0.0020 C   0  0  0  0  0  0  0  0  0  0  0  0
   -1.1975   -0.7248    0.0101 N   0  0  0  0  0  0  0  0  0  0  0  0
    0.0021   -0.0041    0.0020 C   0  0  0  0  0  0  0  0  0  0  0  0
   -0.0167    1.3816    0.0096 C   0  0  0  0  0  0  0  0  0  0  0  0
    1.2112    2.0531    0.0015 C   0  0  0  0  0  0  0  0  0  0  0  0
    1.2944    3.4677    0.0087 C   0  0  0  0  0  0  0  0  0  0  0  0
    2.4963    4.0259    0.0007 N   0  0  0  0  0  0  0  0  0  0  0  0
    3.6014    3.2859   -0.0137 C   0  0  0  0  0  0  0  0  0  0  0  0
    3.5798    1.9670   -0.0210 N   0  0  0  0  0  0  0  0  0  0  0  0
    2.4132    1.3038   -0.0139 C   0  0  0  0  0  0  0  0  0  0  0  0
    2.3681   -0.0282   -0.0207 N   0  0  0  0  0  0  0  0  0  0  0  0
    1.2254   -0.6762   -0.0133 C   0  0  0  0  0  0  0  0  0  0  0  0
    4.8264    3.9271   -0.0210 N   0  0  0  0  0  0  0  0  0  0  0  0
    0.1549    4.2429    0.0233 N   0  0  0  0  0  0  0  0  0  0  0  0
   -6.3208   -5.4160    1.7712 H   0  0  0  0  0  0  0  0  0  0  0  0
   -6.9295   -3.7750    2.0952 H   0  0  0  0  0  0  0  0  0  0  0  0
   -7.9770   -4.9708    1.2945 H   0  0  0  0  0  0  0  0  0  0  0  0
   -4.8605   -3.9837    2.1456 H   0  0  0  0  0  0  0  0  0  0  0  0
   -2.5630   -3.1185    2.0882 H   0  0  0  0  0  0  0  0  0  0  0  0
   -6.4141   -3.6757   -2.3306 H   0  0  0  0  0  0  0  0  0  0  0  0
   -5.4184   -2.8953   -4.4125 H   0  0  0  0  0  0  0  0  0  0  0  0
   -3.1182   -2.0315   -4.4626 H   0  0  0  0  0  0  0  0  0  0  0  0
   -1.7772   -1.9329   -2.4315 H   0  0  0  0  0  0  0  0  0  0  0  0
   -0.6608   -2.5391   -0.8950 H   0  0  0  0  0  0  0  0  0  0  0  0
   -0.6431   -2.5486    0.8848 H   0  0  0  0  0  0  0  0  0  0  0  0
   -2.0457   -0.2545    0.0210 H   0  0  0  0  0  0  0  0  0  0  0  0
   -0.9494    1.9260    0.0170 H   0  0  0  0  0  0  0  0  0  0  0  0
    1.2326   -1.7562   -0.0188 H   0  0  0  0  0  0  0  0  0  0  0  0
    5.6457    3.4078   -0.0312 H   0  0  0  0  0  0  0  0  0  0  0  0
    4.8666    4.8963   -0.0158 H   0  0  0  0  0  0  0  0  0  0  0  0
    0.2264    5.2102    0.0277 H   0  0  0  0  0  0  0  0  0  0  0  0
   -0.7186    3.8211    0.0290 H   0  0  0  0  0  0  0  0  0  0  0  0
  1  2  1  0  0  0  0
  1 27  1  0  0  0  0
  1 28  1  0  0  0  0
  1 29  1  0  0  0  0
  2  3  1  0  0  0  0
  3  8  2  0  0  0  0
  3  4  1  0  0  0  0
  4  5  2  0  0  0  0
  4 30  1  0  0  0  0
  5  6  1  0  0  0  0
  5 31  1  0  0  0  0
  6  7  2  0  0  0  0
  6 13  1  0  0  0  0
  7 12  1  0  0  0  0
  7  8  1  0  0  0  0
  8  9  1  0  0  0  0
  9 10  2  0  0  0  0
  9 32  1  0  0  0  0
 10 11  1  0  0  0  0
 10 33  1  0  0  0  0
 11 12  2  0  0  0  0
 11 34  1  0  0  0  0
 12 35  1  0  0  0  0
 13 14  1  0  0  0  0
 13 36  1  0  0  0  0
 13 37  1  0  0  0  0
 14 15  1  0  0  0  0
 14 38  1  0  0  0  0
 15 24  2  0  0  0  0
 15 16  1  0  0  0  0
 16 17  2  0  0  0  0
 16 39  1  0  0  0  0
 17 22  1  0  0  0  0
 17 18  1  0  0  0  0
 18 19  2  0  0  0  0
 18 26  1  0  0  0  0
 19 20  1  0  0  0  0
 20 21  2  0  0  0  0
 20 25  1  0  0  0  0
 21 22  1  0  0  0  0
 22 23  2  0  0  0  0
 23 24  1  0  0  0  0
 24 40  1  0  0  0  0
 25 41  1  0  0  0  0
 25 42  1  0  0  0  0
 26 43  1  0  0  0  0
 26 44  1  0  0  0  0
M  END
$$$$
ZINC03814966
  -OEChem-08230709403D

 45 48  0     0  0  0  0  0  0999 V2000
   -6.9531   -4.6112    1.3963 C   0  0  0  0  0  0  0  0  0  0  0  0
   -6.4705   -4.1806    0.1220 O   0  0  0  0  0  0  0  0  0  0  0  0
   -5.2012   -3.7003    0.0736 C   0  0  0  0  0  0  0  0  0  0  0  0
   -4.4432   -3.6433    1.2094 C   0  0  0  0  0  0  0  0  0  0  0  0
   -3.1409   -3.1533    1.1765 C   0  0  0  0  0  0  0  0  0  0  0  0
   -2.5838   -2.7165    0.0132 C   0  0  0  0  0  0  0  0  0  0  0  0
   -3.3320   -2.7535   -1.1757 C   0  0  0  0  0  0  0  0  0  0  0  0
   -4.6565   -3.2565   -1.1484 C   0  0  0  0  0  0  0  0  0  0  0  0
   -5.4020   -3.2988   -2.3376 C   0  0  0  0  0  0  0  0  0  0  0  0
   -4.8427   -2.8620   -3.4994 C   0  0  0  0  0  0  0  0  0  0  0  0
   -3.5384   -2.3720   -3.5278 C   0  0  0  0  0  0  0  0  0  0  0  0
   -2.7864   -2.3157   -2.3948 C   0  0  0  0  0  0  0  0  0  0  0  0
   -1.1720   -2.1895    0.0020 C   0  0  0  0  0  0  0  0  0  0  0  0
   -1.1975   -0.7248    0.0101 N   0  0  0  0  0  0  0  0  0  0  0  0
    0.0021   -0.0041    0.0020 C   0  0  0  0  0  0  0  0  0  0  0  0
   -0.0167    1.3816    0.0096 C   0  0  0  0  0  0  0  0  0  0  0  0
    1.2112    2.0531    0.0015 C   0  0  0  0  0  0  0  0  0  0  0  0
    1.2944    3.4677    0.0087 C   0  0  0  0  0  0  0  0  0  0  0  0
    2.4963    4.0259    0.0007 N   0  0  0  0  0  0  0  0  0  0  0  0
    3.6014    3.2859   -0.0137 C   0  0  0  0  0  0  0  0  0  0  0  0
    2.4132    1.3038   -0.0139 C   0  0  0  0  0  0  0  0  0  0  0  0
    2.3681   -0.0282   -0.0207 N   0  0  0  0  0  0  0  0  0  0  0  0
    1.2254   -0.6762   -0.0133 C   0  0  0  0  0  0  0  0  0  0  0  0
    4.8264    3.9271   -0.0210 N   0  0  0  0  0  0  0  0  0  0  0  0
    0.1549    4.2429    0.0233 N   0  0  0  0  0  0  0  0  0  0  0  0
   -6.3208   -5.4160    1.7712 H   0  0  0  0  0  0  0  0  0  0  0  0
   -6.9295   -3.7750    2.0952 H   0  0  0  0  0  0  0  0  0  0  0  0
   -7.9770   -4.9708    1.2945 H   0  0  0  0  0  0  0  0  0  0  0  0
   -4.8605   -3.9837    2.1456 H   0  0  0  0  0  0  0  0  0  0  0  0
   -2.5630   -3.1185    2.0882 H   0  0  0  0  0  0  0  0  0  0  0  0
   -6.4141   -3.6757   -2.3306 H   0  0  0  0  0  0  0  0  0  0  0  0
   -5.4184   -2.8953   -4.4125 H   0  0  0  0  0  0  0  0  0  0  0  0
   -3.1182   -2.0315   -4.4626 H   0  0  0  0  0  0  0  0  0  0  0  0
   -1.7772   -1.9329   -2.4315 H   0  0  0  0  0  0  0  0  0  0  0  0
   -0.6608   -2.5391   -0.8950 H   0  0  0  0  0  0  0  0  0  0  0  0
   -0.6431   -2.5486    0.8848 H   0  0  0  0  0  0  0  0  0  0  0  0
   -2.0457   -0.2545    0.0210 H   0  0  0  0  0  0  0  0  0  0  0  0
   -0.9494    1.9260    0.0170 H   0  0  0  0  0  0  0  0  0  0  0  0
    1.2326   -1.7562   -0.0188 H   0  0  0  0  0  0  0  0  0  0  0  0
    5.6457    3.4078   -0.0312 H   0  0  0  0  0  0  0  0  0  0  0  0
    4.8666    4.8963   -0.0158 H   0  0  0  0  0  0  0  0  0  0  0  0
    0.2264    5.2102    0.0277 H   0  0  0  0  0  0  0  0  0  0  0  0
   -0.7186    3.8211    0.0290 H   0  0  0  0  0  0  0  0  0  0  0  0
    3.6422    1.9304   -0.0218 N   0  3  0  0  0  0  0  0  0  0  0  0
    4.5228    1.4567   -0.0327 H   0  0  0  0  0  0  0  0  0  0  0  0
  1  2  1  0  0  0  0
  1 26  1  0  0  0  0
  1 27  1  0  0  0  0
  1 28  1  0  0  0  0
  2  3  1  0  0  0  0
  3  8  2  0  0  0  0
  3  4  1  0  0  0  0
  4  5  2  0  0  0  0
  4 29  1  0  0  0  0
  5  6  1  0  0  0  0
  5 30  1  0  0  0  0
  6  7  2  0  0  0  0
  6 13  1  0  0  0  0
  7 12  1  0  0  0  0
  7  8  1  0  0  0  0
  8  9  1  0  0  0  0
  9 10  2  0  0  0  0
  9 31  1  0  0  0  0
 10 11  1  0  0  0  0
 10 32  1  0  0  0  0
 11 12  2  0  0  0  0
 11 33  1  0  0  0  0
 12 34  1  0  0  0  0
 13 14  1  0  0  0  0
 13 35  1  0  0  0  0
 13 36  1  0  0  0  0
 14 15  1  0  0  0  0
 14 37  1  0  0  0  0
 15 23  2  0  0  0  0
 15 16  1  0  0  0  0
 16 17  2  0  0  0  0
 16 38  1  0  0  0  0
 17 21  1  0  0  0  0
 17 18  1  0  0  0  0
 18 19  2  0  0  0  0
 18 25  1  0  0  0  0
 19 20  1  0  0  0  0
 20 24  1  0  0  0  0
 20 44  2  0  0  0  0
 21 22  2  0  0  0  0
 21 44  1  0  0  0  0
 22 23  1  0  0  0  0
 23 39  1  0  0  0  0
 24 40  1  0  0  0  0
 24 41  1  0  0  0  0
 25 42  1  0  0  0  0
 25 43  1  0  0  0  0
 44 45  1  0  0  0  0
M  CHG  1  44   1
M  END
$$$$
ZINC03814967
  -OEChem-08230709403D

 44 47  0     0  0  0  0  0  0999 V2000
    2.3148    7.9659    0.0224 C   0  0  0  0  0  0  0  0  0  0  0  0
    1.0500    7.3008    0.0304 O   0  0  0  0  0  0  0  0  0  0  0  0
    1.0674    5.9421    0.0234 C   0  0  0  0  0  0  0  0  0  0  0  0
    2.2925    5.2677    0.0085 C   0  0  0  0  0  0  0  0  0  0  0  0
    2.3422    3.9088    0.0007 C   0  0  0  0  0  0  0  0  0  0  0  0
    1.1478    3.1673    0.0077 C   0  0  0  0  0  0  0  0  0  0  0  0
    1.1627    1.7621    0.0004 C   0  0  0  0  0  0  0  0  0  0  0  0
   -0.0126    1.0758    0.0080 C   0  0  0  0  0  0  0  0  0  0  0  0
   -1.2348    1.7456    0.0174 C   0  0  0  0  0  0  0  0  0  0  0  0
   -1.2883    3.1054    0.0301 C   0  0  0  0  0  0  0  0  0  0  0  0
   -0.0951    3.8486    0.0227 C   0  0  0  0  0  0  0  0  0  0  0  0
   -0.1117    5.2530    0.0305 C   0  0  0  0  0  0  0  0  0  0  0  0
   -1.4231    5.9952    0.0460 C   0  0  0  0  0  0  0  0  0  0  0  0
   -1.8360    6.2283    1.4321 N   0  0  0  0  0  0  0  0  0  0  0  0
   -3.0310    6.9046    1.7020 C   0  0  0  0  0  0  0  0  0  0  0  0
   -3.4287    7.1225    3.0115 C   0  0  0  0  0  0  0  0  0  0  0  0
   -4.6296    7.8088    3.2254 C   0  0  0  0  0  0  0  0  0  0  0  0
   -5.1165    8.0834    4.5275 C   0  0  0  0  0  0  0  0  0  0  0  0
   -6.2653    8.7335    4.6439 N   0  0  0  0  0  0  0  0  0  0  0  0
   -6.9506    9.1222    3.5723 C   0  0  0  0  0  0  0  0  0  0  0  0
   -6.5425    8.8922    2.3392 N   0  0  0  0  0  0  0  0  0  0  0  0
   -5.3914    8.2408    2.1120 C   0  0  0  0  0  0  0  0  0  0  0  0
   -4.9601    7.9972    0.8746 N   0  0  0  0  0  0  0  0  0  0  0  0
   -3.8333    7.3590    0.6539 C   0  0  0  0  0  0  0  0  0  0  0  0
   -8.1428    9.7974    3.7589 N   0  0  0  0  0  0  0  0  0  0  0  0
   -4.4133    7.6850    5.6439 N   0  0  0  0  0  0  0  0  0  0  0  0
    2.8835    7.6757    0.9059 H   0  0  0  0  0  0  0  0  0  0  0  0
    2.8675    7.6847   -0.8740 H   0  0  0  0  0  0  0  0  0  0  0  0
    2.1582    9.0445    0.0293 H   0  0  0  0  0  0  0  0  0  0  0  0
    3.2120    5.8341    0.0031 H   0  0  0  0  0  0  0  0  0  0  0  0
    3.2955    3.4012   -0.0104 H   0  0  0  0  0  0  0  0  0  0  0  0
    2.1022    1.2294   -0.0107 H   0  0  0  0  0  0  0  0  0  0  0  0
    0.0021   -0.0041    0.0020 H   0  0  0  0  0  0  0  0  0  0  0  0
   -2.1530    1.1770    0.0191 H   0  0  0  0  0  0  0  0  0  0  0  0
   -2.2426    3.6110    0.0416 H   0  0  0  0  0  0  0  0  0  0  0  0
   -1.3055    6.9515   -0.4638 H   0  0  0  0  0  0  0  0  0  0  0  0
   -2.1822    5.4024   -0.4644 H   0  0  0  0  0  0  0  0  0  0  0  0
   -1.2810    5.9139    2.1629 H   0  0  0  0  0  0  0  0  0  0  0  0
   -2.8289    6.7774    3.8406 H   0  0  0  0  0  0  0  0  0  0  0  0
   -3.5194    7.1818   -0.3642 H   0  0  0  0  0  0  0  0  0  0  0  0
   -8.6592   10.0907    2.9920 H   0  0  0  0  0  0  0  0  0  0  0  0
   -8.4626    9.9777    4.6568 H   0  0  0  0  0  0  0  0  0  0  0  0
   -4.7581    7.8798    6.5294 H   0  0  0  0  0  0  0  0  0  0  0  0
   -3.5736    7.2097    5.5442 H   0  0  0  0  0  0  0  0  0  0  0  0
  1  2  1  0  0  0  0
  1 27  1  0  0  0  0
  1 28  1  0  0  0  0
  1 29  1  0  0  0  0
  2  3  1  0  0  0  0
  3 12  2  0  0  0  0
  3  4  1  0  0  0  0
  4  5  2  0  0  0  0
  4 30  1  0  0  0  0
  5  6  1  0  0  0  0
  5 31  1  0  0  0  0
  6 11  2  0  0  0  0
  6  7  1  0  0  0  0
  7  8  2  0  0  0  0
  7 32  1  0  0  0  0
  8  9  1  0  0  0  0
  8 33  1  0  0  0  0
  9 10  2  0  0  0  0
  9 34  1  0  0  0  0
 10 11  1  0  0  0  0
 10 35  1  0  0  0  0
 11 12  1  0  0  0  0
 12 13  1  0  0  0  0
 13 14  1  0  0  0  0
 13 36  1  0  0  0  0
 13 37  1  0  0  0  0
 14 15  1  0  0  0  0
 14 38  1  0  0  0  0
 15 24  2  0  0  0  0
 15 16  1  0  0  0  0
 16 17  2  0  0  0  0
 16 39  1  0  0  0  0
 17 22  1  0  0  0  0
 17 18  1  0  0  0  0
 18 19  2  0  0  0  0
 18 26  1  0  0  0  0
 19 20  1  0  0  0  0
 20 21  2  0  0  0  0
 20 25  1  0  0  0  0
 21 22  1  0  0  0  0
 22 23  2  0  0  0  0
 23 24  1  0  0  0  0
 24 40  1  0  0  0  0
 25 41  1  0  0  0  0
 25 42  1  0  0  0  0
 26 43  1  0  0  0  0
 26 44  1  0  0  0  0
M  END
$$$$
ZINC03814967
  -OEChem-08230709403D

 45 48  0     0  0  0  0  0  0999 V2000
    2.3148    7.9659    0.0224 C   0  0  0  0  0  0  0  0  0  0  0  0
    1.0500    7.3008    0.0304 O   0  0  0  0  0  0  0  0  0  0  0  0
    1.0674    5.9421    0.0234 C   0  0  0  0  0  0  0  0  0  0  0  0
    2.2925    5.2677    0.0085 C   0  0  0  0  0  0  0  0  0  0  0  0
    2.3422    3.9088    0.0007 C   0  0  0  0  0  0  0  0  0  0  0  0
    1.1478    3.1673    0.0077 C   0  0  0  0  0  0  0  0  0  0  0  0
    1.1627    1.7621    0.0004 C   0  0  0  0  0  0  0  0  0  0  0  0
   -0.0126    1.0758    0.0080 C   0  0  0  0  0  0  0  0  0  0  0  0
   -1.2348    1.7456    0.0174 C   0  0  0  0  0  0  0  0  0  0  0  0
   -1.2883    3.1054    0.0301 C   0  0  0  0  0  0  0  0  0  0  0  0
   -0.0951    3.8486    0.0227 C   0  0  0  0  0  0  0  0  0  0  0  0
   -0.1117    5.2530    0.0305 C   0  0  0  0  0  0  0  0  0  0  0  0
   -1.4231    5.9952    0.0460 C   0  0  0  0  0  0  0  0  0  0  0  0
   -1.8360    6.2283    1.4321 N   0  0  0  0  0  0  0  0  0  0  0  0
   -3.0310    6.9046    1.7020 C   0  0  0  0  0  0  0  0  0  0  0  0
   -3.4287    7.1225    3.0115 C   0  0  0  0  0  0  0  0  0  0  0  0
   -4.6296    7.8088    3.2254 C   0  0  0  0  0  0  0  0  0  0  0  0
   -5.1165    8.0834    4.5275 C   0  0  0  0  0  0  0  0  0  0  0  0
   -6.2653    8.7335    4.6439 N   0  0  0  0  0  0  0  0  0  0  0  0
   -6.9506    9.1222    3.5723 C   0  0  0  0  0  0  0  0  0  0  0  0
   -5.3914    8.2408    2.1120 C   0  0  0  0  0  0  0  0  0  0  0  0
   -4.9601    7.9972    0.8746 N   0  0  0  0  0  0  0  0  0  0  0  0
   -3.8333    7.3590    0.6539 C   0  0  0  0  0  0  0  0  0  0  0  0
   -8.1428    9.7974    3.7589 N   0  0  0  0  0  0  0  0  0  0  0  0
   -4.4133    7.6850    5.6439 N   0  0  0  0  0  0  0  0  0  0  0  0
    2.8835    7.6757    0.9059 H   0  0  0  0  0  0  0  0  0  0  0  0
    2.8675    7.6847   -0.8740 H   0  0  0  0  0  0  0  0  0  0  0  0
    2.1582    9.0445    0.0293 H   0  0  0  0  0  0  0  0  0  0  0  0
    3.2120    5.8341    0.0031 H   0  0  0  0  0  0  0  0  0  0  0  0
    3.2955    3.4012   -0.0104 H   0  0  0  0  0  0  0  0  0  0  0  0
    2.1022    1.2294   -0.0107 H   0  0  0  0  0  0  0  0  0  0  0  0
    0.0021   -0.0041    0.0020 H   0  0  0  0  0  0  0  0  0  0  0  0
   -2.1530    1.1770    0.0191 H   0  0  0  0  0  0  0  0  0  0  0  0
   -2.2426    3.6110    0.0416 H   0  0  0  0  0  0  0  0  0  0  0  0
   -1.3055    6.9515   -0.4638 H   0  0  0  0  0  0  0  0  0  0  0  0
   -2.1822    5.4024   -0.4644 H   0  0  0  0  0  0  0  0  0  0  0  0
   -1.2810    5.9139    2.1629 H   0  0  0  0  0  0  0  0  0  0  0  0
   -2.8289    6.7774    3.8406 H   0  0  0  0  0  0  0  0  0  0  0  0
   -3.5194    7.1818   -0.3642 H   0  0  0  0  0  0  0  0  0  0  0  0
   -8.6592   10.0907    2.9920 H   0  0  0  0  0  0  0  0  0  0  0  0
   -8.4626    9.9777    4.6568 H   0  0  0  0  0  0  0  0  0  0  0  0
   -4.7581    7.8798    6.5294 H   0  0  0  0  0  0  0  0  0  0  0  0
   -3.5736    7.2097    5.5442 H   0  0  0  0  0  0  0  0  0  0  0  0
   -6.5827    8.9150    2.2836 N   0  3  0  0  0  0  0  0  0  0  0  0
   -7.1631    9.2442    1.5388 H   0  0  0  0  0  0  0  0  0  0  0  0
  1  2  1  0  0  0  0
  1 26  1  0  0  0  0
  1 27  1  0  0  0  0
  1 28  1  0  0  0  0
  2  3  1  0  0  0  0
  3 12  2  0  0  0  0
  3  4  1  0  0  0  0
  4  5  2  0  0  0  0
  4 29  1  0  0  0  0
  5  6  1  0  0  0  0
  5 30  1  0  0  0  0
  6 11  2  0  0  0  0
  6  7  1  0  0  0  0
  7  8  2  0  0  0  0
  7 31  1  0  0  0  0
  8  9  1  0  0  0  0
  8 32  1  0  0  0  0
  9 10  2  0  0  0  0
  9 33  1  0  0  0  0
 10 11  1  0  0  0  0
 10 34  1  0  0  0  0
 11 12  1  0  0  0  0
 12 13  1  0  0  0  0
 13 14  1  0  0  0  0
 13 35  1  0  0  0  0
 13 36  1  0  0  0  0
 14 15  1  0  0  0  0
 14 37  1  0  0  0  0
 15 23  2  0  0  0  0
 15 16  1  0  0  0  0
 16 17  2  0  0  0  0
 16 38  1  0  0  0  0
 17 21  1  0  0  0  0
 17 18  1  0  0  0  0
 18 19  2  0  0  0  0
 18 25  1  0  0  0  0
 19 20  1  0  0  0  0
 20 24  1  0  0  0  0
 20 44  2  0  0  0  0
 21 22  2  0  0  0  0
 21 44  1  0  0  0  0
 22 23  1  0  0  0  0
 23 39  1  0  0  0  0
 24 40  1  0  0  0  0
 24 41  1  0  0  0  0
 25 42  1  0  0  0  0
 25 43  1  0  0  0  0
 44 45  1  0  0  0  0
M  CHG  1  44   1
M  END
$$$$
ZINC03814968
  -OEChem-08230709403D

 51 54  0     0  0  0  0  0  0999 V2000
    0.6018    1.5059    0.0250 C   0  0  0  0  0  0  0  0  0  0  0  0
    0.5970   -0.0011    0.0161 C   0  0  0  0  0  0  0  0  0  0  0  0
    0.7585   -0.7002   -1.1515 C   0  0  0  0  0  0  0  0  0  0  0  0
    0.7532   -2.0894   -1.1326 C   0  0  0  0  0  0  0  0  0  0  0  0
    0.5888   -2.7658   -0.0176 N   0  0  0  0  0  0  0  0  0  0  0  0
    0.4225   -2.1439    1.1498 C   0  0  0  0  0  0  0  0  0  0  0  0
    0.4215   -0.7279    1.1991 C   0  0  0  0  0  0  0  0  0  0  0  0
    0.2422   -0.0940    2.4535 C   0  0  0  0  0  0  0  0  0  0  0  0
    0.0832   -0.8573    3.5253 N   0  0  0  0  0  0  0  0  0  0  0  0
    0.0905   -2.1842    3.4357 C   0  0  0  0  0  0  0  0  0  0  0  0
    0.2532   -2.8238    2.2928 N   0  0  0  0  0  0  0  0  0  0  0  0
   -0.0802   -2.9254    4.5893 N   0  0  0  0  0  0  0  0  0  0  0  0
    0.2328    1.2797    2.5563 N   0  0  0  0  0  0  0  0  0  0  0  0
    0.9447    0.0365   -2.4530 C   0  0  0  0  0  0  0  0  0  0  0  0
    2.3364    0.4790   -2.5689 N   0  0  0  0  0  0  0  0  0  0  0  0
    2.7530    1.1894   -3.7007 C   0  0  0  0  0  0  0  0  0  0  0  0
    1.8513    1.4694   -4.7140 C   0  0  0  0  0  0  0  0  0  0  0  0
    2.2685    2.1819   -5.8365 C   0  0  0  0  0  0  0  0  0  0  0  0
    3.5936    2.6007   -5.9411 C   0  0  0  0  0  0  0  0  0  0  0  0
    4.4909    2.3144   -4.9320 C   0  0  0  0  0  0  0  0  0  0  0  0
    4.0772    1.6108   -3.8117 C   0  0  0  0  0  0  0  0  0  0  0  0
    4.9643    1.3308   -2.8198 O   0  0  0  0  0  0  0  0  0  0  0  0
    6.3047    1.7925   -2.9989 C   0  0  0  0  0  0  0  0  0  0  0  0
    1.3046    2.4890   -6.9218 C   0  0  0  0  0  0  0  0  0  0  0  0
   -0.0194    2.0660   -6.8216 C   0  0  0  0  0  0  0  0  0  0  0  0
   -0.9128    2.3582   -7.8322 C   0  0  0  0  0  0  0  0  0  0  0  0
   -0.4936    3.0608   -8.9476 C   0  0  0  0  0  0  0  0  0  0  0  0
    0.8206    3.4789   -9.0545 C   0  0  0  0  0  0  0  0  0  0  0  0
    1.7214    3.1964   -8.0478 C   0  0  0  0  0  0  0  0  0  0  0  0
    1.5932    1.8644    0.3020 H   0  0  0  0  0  0  0  0  0  0  0  0
    0.3459    1.8759   -0.9678 H   0  0  0  0  0  0  0  0  0  0  0  0
   -0.1301    1.8674    0.7473 H   0  0  0  0  0  0  0  0  0  0  0  0
    0.8854   -2.6280   -2.0594 H   0  0  0  0  0  0  0  0  0  0  0  0
   -0.2018   -2.4766    5.4406 H   0  0  0  0  0  0  0  0  0  0  0  0
   -0.0784   -3.8945    4.5478 H   0  0  0  0  0  0  0  0  0  0  0  0
   -0.4080    1.7182    3.1377 H   0  0  0  0  0  0  0  0  0  0  0  0
    0.8670    1.8085    2.0474 H   0  0  0  0  0  0  0  0  0  0  0  0
    0.7040   -0.6270   -3.2836 H   0  0  0  0  0  0  0  0  0  0  0  0
    0.2845    0.9035   -2.4774 H   0  0  0  0  0  0  0  0  0  0  0  0
    2.9693    0.2796   -1.8613 H   0  0  0  0  0  0  0  0  0  0  0  0
    0.8261    1.1398   -4.6324 H   0  0  0  0  0  0  0  0  0  0  0  0
    3.9188    3.1494   -6.8126 H   0  0  0  0  0  0  0  0  0  0  0  0
    5.5174    2.6396   -5.0153 H   0  0  0  0  0  0  0  0  0  0  0  0
    6.3053    2.8783   -3.0944 H   0  0  0  0  0  0  0  0  0  0  0  0
    6.9068    1.5032   -2.1375 H   0  0  0  0  0  0  0  0  0  0  0  0
    6.7246    1.3482   -3.9013 H   0  0  0  0  0  0  0  0  0  0  0  0
   -0.3466    1.5136   -5.9532 H   0  0  0  0  0  0  0  0  0  0  0  0
   -1.9400    2.0342   -7.7539 H   0  0  0  0  0  0  0  0  0  0  0  0
   -1.1952    3.2840   -9.7378 H   0  0  0  0  0  0  0  0  0  0  0  0
    1.1425    4.0271   -9.9276 H   0  0  0  0  0  0  0  0  0  0  0  0
    2.7472    3.5233   -8.1322 H   0  0  0  0  0  0  0  0  0  0  0  0
  1  2  1  0  0  0  0
  1 30  1  0  0  0  0
  1 31  1  0  0  0  0
  1 32  1  0  0  0  0
  2  7  2  0  0  0  0
  2  3  1  0  0  0  0
  3  4  2  0  0  0  0
  3 14  1  0  0  0  0
  4  5  1  0  0  0  0
  4 33  1  0  0  0  0
  5  6  2  0  0  0  0
  6 11  1  0  0  0  0
  6  7  1  0  0  0  0
  7  8  1  0  0  0  0
  8  9  2  0  0  0  0
  8 13  1  0  0  0  0
  9 10  1  0  0  0  0
 10 11  2  0  0  0  0
 10 12  1  0  0  0  0
 12 34  1  0  0  0  0
 12 35  1  0  0  0  0
 13 36  1  0  0  0  0
 13 37  1  0  0  0  0
 14 15  1  0  0  0  0
 14 38  1  0  0  0  0
 14 39  1  0  0  0  0
 15 16  1  0  0  0  0
 15 40  1  0  0  0  0
 16 21  2  0  0  0  0
 16 17  1  0  0  0  0
 17 18  2  0  0  0  0
 17 41  1  0  0  0  0
 18 19  1  0  0  0  0
 18 24  1  0  0  0  0
 19 20  2  0  0  0  0
 19 42  1  0  0  0  0
 20 21  1  0  0  0  0
 20 43  1  0  0  0  0
 21 22  1  0  0  0  0
 22 23  1  0  0  0  0
 23 44  1  0  0  0  0
 23 45  1  0  0  0  0
 23 46  1  0  0  0  0
 24 29  2  0  0  0  0
 24 25  1  0  0  0  0
 25 26  2  0  0  0  0
 25 47  1  0  0  0  0
 26 27  1  0  0  0  0
 26 48  1  0  0  0  0
 27 28  2  0  0  0  0
 27 49  1  0  0  0  0
 28 29  1  0  0  0  0
 28 50  1  0  0  0  0
 29 51  1  0  0  0  0
M  END
$$$$
ZINC03814968
  -OEChem-08230709403D

 52 55  0     0  0  0  0  0  0999 V2000
    0.6018    1.5059    0.0250 C   0  0  0  0  0  0  0  0  0  0  0  0
    0.5970   -0.0011    0.0161 C   0  0  0  0  0  0  0  0  0  0  0  0
    0.7585   -0.7002   -1.1515 C   0  0  0  0  0  0  0  0  0  0  0  0
    0.7532   -2.0894   -1.1326 C   0  0  0  0  0  0  0  0  0  0  0  0
    0.5888   -2.7658   -0.0176 N   0  0  0  0  0  0  0  0  0  0  0  0
    0.4225   -2.1439    1.1498 C   0  0  0  0  0  0  0  0  0  0  0  0
    0.4215   -0.7279    1.1991 C   0  0  0  0  0  0  0  0  0  0  0  0
    0.2422   -0.0940    2.4535 C   0  0  0  0  0  0  0  0  0  0  0  0
    0.0832   -0.8573    3.5253 N   0  0  0  0  0  0  0  0  0  0  0  0
    0.0905   -2.1842    3.4357 C   0  0  0  0  0  0  0  0  0  0  0  0
   -0.0802   -2.9254    4.5893 N   0  0  0  0  0  0  0  0  0  0  0  0
    0.2328    1.2797    2.5563 N   0  0  0  0  0  0  0  0  0  0  0  0
    0.9447    0.0365   -2.4530 C   0  0  0  0  0  0  0  0  0  0  0  0
    2.3364    0.4790   -2.5689 N   0  0  0  0  0  0  0  0  0  0  0  0
    2.7530    1.1894   -3.7007 C   0  0  0  0  0  0  0  0  0  0  0  0
    1.8513    1.4694   -4.7140 C   0  0  0  0  0  0  0  0  0  0  0  0
    2.2685    2.1819   -5.8365 C   0  0  0  0  0  0  0  0  0  0  0  0
    3.5936    2.6007   -5.9411 C   0  0  0  0  0  0  0  0  0  0  0  0
    4.4909    2.3144   -4.9320 C   0  0  0  0  0  0  0  0  0  0  0  0
    4.0772    1.6108   -3.8117 C   0  0  0  0  0  0  0  0  0  0  0  0
    4.9643    1.3308   -2.8198 O   0  0  0  0  0  0  0  0  0  0  0  0
    6.3047    1.7925   -2.9989 C   0  0  0  0  0  0  0  0  0  0  0  0
    1.3046    2.4890   -6.9218 C   0  0  0  0  0  0  0  0  0  0  0  0
   -0.0194    2.0660   -6.8216 C   0  0  0  0  0  0  0  0  0  0  0  0
   -0.9128    2.3582   -7.8322 C   0  0  0  0  0  0  0  0  0  0  0  0
   -0.4936    3.0608   -8.9476 C   0  0  0  0  0  0  0  0  0  0  0  0
    0.8206    3.4789   -9.0545 C   0  0  0  0  0  0  0  0  0  0  0  0
    1.7214    3.1964   -8.0478 C   0  0  0  0  0  0  0  0  0  0  0  0
    1.5932    1.8644    0.3020 H   0  0  0  0  0  0  0  0  0  0  0  0
    0.3459    1.8759   -0.9678 H   0  0  0  0  0  0  0  0  0  0  0  0
   -0.1301    1.8674    0.7473 H   0  0  0  0  0  0  0  0  0  0  0  0
    0.8854   -2.6280   -2.0594 H   0  0  0  0  0  0  0  0  0  0  0  0
   -0.2018   -2.4766    5.4406 H   0  0  0  0  0  0  0  0  0  0  0  0
   -0.0784   -3.8945    4.5478 H   0  0  0  0  0  0  0  0  0  0  0  0
   -0.4080    1.7182    3.1377 H   0  0  0  0  0  0  0  0  0  0  0  0
    0.8670    1.8085    2.0474 H   0  0  0  0  0  0  0  0  0  0  0  0
    0.7040   -0.6270   -3.2836 H   0  0  0  0  0  0  0  0  0  0  0  0
    0.2845    0.9035   -2.4774 H   0  0  0  0  0  0  0  0  0  0  0  0
    2.9693    0.2796   -1.8613 H   0  0  0  0  0  0  0  0  0  0  0  0
    0.8261    1.1398   -4.6324 H   0  0  0  0  0  0  0  0  0  0  0  0
    3.9188    3.1494   -6.8126 H   0  0  0  0  0  0  0  0  0  0  0  0
    5.5174    2.6396   -5.0153 H   0  0  0  0  0  0  0  0  0  0  0  0
    6.3053    2.8783   -3.0944 H   0  0  0  0  0  0  0  0  0  0  0  0
    6.9068    1.5032   -2.1375 H   0  0  0  0  0  0  0  0  0  0  0  0
    6.7246    1.3482   -3.9013 H   0  0  0  0  0  0  0  0  0  0  0  0
   -0.3466    1.5136   -5.9532 H   0  0  0  0  0  0  0  0  0  0  0  0
   -1.9400    2.0342   -7.7539 H   0  0  0  0  0  0  0  0  0  0  0  0
   -1.1952    3.2840   -9.7378 H   0  0  0  0  0  0  0  0  0  0  0  0
    1.1425    4.0271   -9.9276 H   0  0  0  0  0  0  0  0  0  0  0  0
    2.7472    3.5233   -8.1322 H   0  0  0  0  0  0  0  0  0  0  0  0
    0.2529   -2.8960    2.2921 N   0  3  0  0  0  0  0  0  0  0  0  0
    0.2439   -3.8956    2.3198 H   0  0  0  0  0  0  0  0  0  0  0  0
  1  2  1  0  0  0  0
  1 29  1  0  0  0  0
  1 30  1  0  0  0  0
  1 31  1  0  0  0  0
  2  7  2  0  0  0  0
  2  3  1  0  0  0  0
  3  4  2  0  0  0  0
  3 13  1  0  0  0  0
  4  5  1  0  0  0  0
  4 32  1  0  0  0  0
  5  6  2  0  0  0  0
  6  7  1  0  0  0  0
  6 51  1  0  0  0  0
  7  8  1  0  0  0  0
  8  9  2  0  0  0  0
  8 12  1  0  0  0  0
  9 10  1  0  0  0  0
 10 11  1  0  0  0  0
 10 51  2  0  0  0  0
 11 33  1  0  0  0  0
 11 34  1  0  0  0  0
 12 35  1  0  0  0  0
 12 36  1  0  0  0  0
 13 14  1  0  0  0  0
 13 37  1  0  0  0  0
 13 38  1  0  0  0  0
 14 15  1  0  0  0  0
 14 39  1  0  0  0  0
 15 20  2  0  0  0  0
 15 16  1  0  0  0  0
 16 17  2  0  0  0  0
 16 40  1  0  0  0  0
 17 18  1  0  0  0  0
 17 23  1  0  0  0  0
 18 19  2  0  0  0  0
 18 41  1  0  0  0  0
 19 20  1  0  0  0  0
 19 42  1  0  0  0  0
 20 21  1  0  0  0  0
 21 22  1  0  0  0  0
 22 43  1  0  0  0  0
 22 44  1  0  0  0  0
 22 45  1  0  0  0  0
 23 28  2  0  0  0  0
 23 24  1  0  0  0  0
 24 25  2  0  0  0  0
 24 46  1  0  0  0  0
 25 26  1  0  0  0  0
 25 47  1  0  0  0  0
 26 27  2  0  0  0  0
 26 48  1  0  0  0  0
 27 28  1  0  0  0  0
 27 49  1  0  0  0  0
 28 50  1  0  0  0  0
 51 52  1  0  0  0  0
M  CHG  1  51   1
M  END
$$$$
ZINC03814969
  -OEChem-08230709403D

 45 48  0     1  0  0  0  0  0999 V2000
   -4.5081    5.8818   -3.0549 C   0  0  0  0  0  0  0  0  0  0  0  0
   -3.2260    5.1738   -3.4100 C   0  0  0  0  0  0  0  0  0  0  0  0
   -2.1848    5.1117   -2.5210 C   0  0  0  0  0  0  0  0  0  0  0  0
   -1.0109    4.4584   -2.8748 C   0  0  0  0  0  0  0  0  0  0  0  0
   -0.8669    3.8797   -4.0463 N   0  0  0  0  0  0  0  0  0  0  0  0
   -1.8428    3.9053   -4.9543 C   0  0  0  0  0  0  0  0  0  0  0  0
   -3.0633    4.5607   -4.6575 C   0  0  0  0  0  0  0  0  0  0  0  0
   -4.0829    4.5717   -5.6413 C   0  0  0  0  0  0  0  0  0  0  0  0
   -3.8466    3.9665   -6.7966 N   0  0  0  0  0  0  0  0  0  0  0  0
   -2.6862    3.3622   -7.0353 C   0  0  0  0  0  0  0  0  0  0  0  0
   -1.7046    3.3230   -6.1539 N   0  0  0  0  0  0  0  0  0  0  0  0
   -2.5000    2.7490   -8.2595 N   0  0  0  0  0  0  0  0  0  0  0  0
   -5.2879    5.1953   -5.4036 N   0  0  0  0  0  0  0  0  0  0  0  0
   -2.3108    5.7563   -1.1646 C   0  0  0  0  0  0  0  0  0  0  0  0
   -2.1081    4.7432   -0.1204 N   0  0  1  0  0  0  0  0  0  0  0  0
   -2.8451    3.5006   -0.4372 C   0  0  0  0  0  0  0  0  0  0  0  0
   -1.9571    2.4083    0.2017 C   0  0  0  0  0  0  0  0  0  0  0  0
   -0.5843    3.0510    0.2065 C   0  0  0  0  0  0  0  0  0  0  0  0
   -0.7493    4.4163    0.0062 C   0  0  0  0  0  0  0  0  0  0  0  0
    0.3757    5.2367   -0.0422 C   0  0  0  0  0  0  0  0  0  0  0  0
    1.6360    4.6989    0.1174 C   0  0  0  0  0  0  0  0  0  0  0  0
    1.7917    3.3372    0.3287 C   0  0  0  0  0  0  0  0  0  0  0  0
    0.6749    2.5151    0.3756 C   0  0  0  0  0  0  0  0  0  0  0  0
    3.0348    2.8093    0.4888 O   0  0  0  0  0  0  0  0  0  0  0  0
    4.1375    3.7163    0.4284 C   0  0  0  0  0  0  0  0  0  0  0  0
   -4.4874    6.8946   -3.4572 H   0  0  0  0  0  0  0  0  0  0  0  0
   -5.3525    5.3392   -3.4800 H   0  0  0  0  0  0  0  0  0  0  0  0
   -4.6118    5.9235   -1.9706 H   0  0  0  0  0  0  0  0  0  0  0  0
   -0.1964    4.4210   -2.1667 H   0  0  0  0  0  0  0  0  0  0  0  0
   -3.2075    2.7654   -8.9228 H   0  0  0  0  0  0  0  0  0  0  0  0
   -1.6617    2.3021   -8.4556 H   0  0  0  0  0  0  0  0  0  0  0  0
   -5.3093    6.0520   -4.9491 H   0  0  0  0  0  0  0  0  0  0  0  0
   -6.1151    4.7778   -5.6907 H   0  0  0  0  0  0  0  0  0  0  0  0
   -3.3044    6.1920   -1.0602 H   0  0  0  0  0  0  0  0  0  0  0  0
   -1.5585    6.5385   -1.0628 H   0  0  0  0  0  0  0  0  0  0  0  0
   -3.8346    3.5107    0.0199 H   0  0  0  0  0  0  0  0  0  0  0  0
   -2.9176    3.3582   -1.5154 H   0  0  0  0  0  0  0  0  0  0  0  0
   -2.2874    2.1874    1.2167 H   0  0  0  0  0  0  0  0  0  0  0  0
   -1.9554    1.5060   -0.4097 H   0  0  0  0  0  0  0  0  0  0  0  0
    0.2606    6.2981   -0.2058 H   0  0  0  0  0  0  0  0  0  0  0  0
    2.5039    5.3404    0.0781 H   0  0  0  0  0  0  0  0  0  0  0  0
    0.7923    1.4542    0.5402 H   0  0  0  0  0  0  0  0  0  0  0  0
    5.0680    3.1669    0.5710 H   0  0  0  0  0  0  0  0  0  0  0  0
    4.1510    4.2075   -0.5445 H   0  0  0  0  0  0  0  0  0  0  0  0
    4.0345    4.4662    1.2127 H   0  0  0  0  0  0  0  0  0  0  0  0
  1  2  1  0  0  0  0
  1 26  1  0  0  0  0
  1 27  1  0  0  0  0
  1 28  1  0  0  0  0
  2  7  2  0  0  0  0
  2  3  1  0  0  0  0
  3  4  2  0  0  0  0
  3 14  1  0  0  0  0
  4  5  1  0  0  0  0
  4 29  1  0  0  0  0
  5  6  2  0  0  0  0
  6 11  1  0  0  0  0
  6  7  1  0  0  0  0
  7  8  1  0  0  0  0
  8  9  2  0  0  0  0
  8 13  1  0  0  0  0
  9 10  1  0  0  0  0
 10 11  2  0  0  0  0
 10 12  1  0  0  0  0
 12 30  1  0  0  0  0
 12 31  1  0  0  0  0
 13 32  1  0  0  0  0
 13 33  1  0  0  0  0
 14 15  1  0  0  0  0
 14 34  1  0  0  0  0
 14 35  1  0  0  0  0
 15 19  1  0  0  0  0
 15 16  1  0  0  0  0
 16 17  1  0  0  0  0
 16 36  1  0  0  0  0
 16 37  1  0  0  0  0
 17 18  1  0  0  0  0
 17 38  1  0  0  0  0
 17 39  1  0  0  0  0
 18 23  2  0  0  0  0
 18 19  1  0  0  0  0
 19 20  2  0  0  0  0
 20 21  1  0  0  0  0
 20 40  1  0  0  0  0
 21 22  2  0  0  0  0
 21 41  1  0  0  0  0
 22 23  1  0  0  0  0
 22 24  1  0  0  0  0
 23 42  1  0  0  0  0
 24 25  1  0  0  0  0
 25 43  1  0  0  0  0
 25 44  1  0  0  0  0
 25 45  1  0  0  0  0
M  END
$$$$
ZINC03814969
  -OEChem-08230709403D

 43 46  0     0  0  0  0  0  0999 V2000
   -0.2525    5.1761   -1.4871 C   0  0  0  0  0  0  0  0  0  0  0  0
    1.1705    5.0320   -1.9617 C   0  0  0  0  0  0  0  0  0  0  0  0
    2.1811    4.7404   -1.0832 C   0  0  0  0  0  0  0  0  0  0  0  0
    3.4840    4.6071   -1.5469 C   0  0  0  0  0  0  0  0  0  0  0  0
    3.7855    4.7582   -2.8174 N   0  0  0  0  0  0  0  0  0  0  0  0
    2.8482    5.0475   -3.7203 C   0  0  0  0  0  0  0  0  0  0  0  0
    1.4998    5.1966   -3.3119 C   0  0  0  0  0  0  0  0  0  0  0  0
    0.5248    5.5035   -4.2932 C   0  0  0  0  0  0  0  0  0  0  0  0
    0.9208    5.6372   -5.5510 N   0  0  0  0  0  0  0  0  0  0  0  0
    2.1976    5.4890   -5.8926 C   0  0  0  0  0  0  0  0  0  0  0  0
    3.1443    5.2033   -5.0186 N   0  0  0  0  0  0  0  0  0  0  0  0
    2.5482    5.6408   -7.2205 N   0  0  0  0  0  0  0  0  0  0  0  0
   -0.7999    5.6594   -3.9489 N   0  0  0  0  0  0  0  0  0  0  0  0
    1.8788    4.5585    0.3819 C   0  0  0  0  0  0  0  0  0  0  0  0
    1.5124    3.1628    0.6353 N   0  0  0  0  0  0  0  0  0  0  0  0
    0.2335    2.7007    0.7854 C   0  0  0  0  0  0  0  0  0  0  0  0
    0.2480    1.3764    1.0047 C   0  0  0  0  0  0  0  0  0  0  0  0
    1.6511    0.9552    0.9942 C   0  0  0  0  0  0  0  0  0  0  0  0
    2.4050    2.1188    0.7576 C   0  0  0  0  0  0  0  0  0  0  0  0
    3.7915    2.0354    0.6919 C   0  0  0  0  0  0  0  0  0  0  0  0
    4.4167    0.8195    0.8576 C   0  0  0  0  0  0  0  0  0  0  0  0
    3.6733   -0.3340    1.0924 C   0  0  0  0  0  0  0  0  0  0  0  0
    2.2956   -0.2721    1.1611 C   0  0  0  0  0  0  0  0  0  0  0  0
    4.3066   -1.5265    1.2542 O   0  0  0  0  0  0  0  0  0  0  0  0
    5.7332   -1.5200    1.1713 C   0  0  0  0  0  0  0  0  0  0  0  0
   -0.4778    6.2307   -1.3290 H   0  0  0  0  0  0  0  0  0  0  0  0
   -0.9291    4.7686   -2.2383 H   0  0  0  0  0  0  0  0  0  0  0  0
   -0.3799    4.6330   -0.5506 H   0  0  0  0  0  0  0  0  0  0  0  0
    4.2703    4.3728   -0.8446 H   0  0  0  0  0  0  0  0  0  0  0  0
    1.8691    5.8510   -7.8805 H   0  0  0  0  0  0  0  0  0  0  0  0
    3.4734    5.5373   -7.4927 H   0  0  0  0  0  0  0  0  0  0  0  0
   -1.0383    6.1558   -3.1504 H   0  0  0  0  0  0  0  0  0  0  0  0
   -1.4943    5.2726   -4.5049 H   0  0  0  0  0  0  0  0  0  0  0  0
    1.0513    5.2087    0.6657 H   0  0  0  0  0  0  0  0  0  0  0  0
    2.7604    4.8150    0.9694 H   0  0  0  0  0  0  0  0  0  0  0  0
   -0.6563    3.3104    0.7310 H   0  0  0  0  0  0  0  0  0  0  0  0
   -0.6120    0.7417    1.1595 H   0  0  0  0  0  0  0  0  0  0  0  0
    4.3780    2.9239    0.5102 H   0  0  0  0  0  0  0  0  0  0  0  0
    5.4939    0.7603    0.8053 H   0  0  0  0  0  0  0  0  0  0  0  0
    1.7201   -1.1677    1.3433 H   0  0  0  0  0  0  0  0  0  0  0  0
    6.0384   -1.1572    0.1899 H   0  0  0  0  0  0  0  0  0  0  0  0
    6.1390   -0.8658    1.9429 H   0  0  0  0  0  0  0  0  0  0  0  0
    6.1102   -2.5322    1.3179 H   0  0  0  0  0  0  0  0  0  0  0  0
  1  2  1  0  0  0  0
  1 26  1  0  0  0  0
  1 27  1  0  0  0  0
  1 28  1  0  0  0  0
  2  7  2  0  0  0  0
  2  3  1  0  0  0  0
  3  4  2  0  0  0  0
  3 14  1  0  0  0  0
  4  5  1  0  0  0  0
  4 29  1  0  0  0  0
  5  6  2  0  0  0  0
  6 11  1  0  0  0  0
  6  7  1  0  0  0  0
  7  8  1  0  0  0  0
  8  9  2  0  0  0  0
  8 13  1  0  0  0  0
  9 10  1  0  0  0  0
 10 11  2  0  0  0  0
 10 12  1  0  0  0  0
 12 30  1  0  0  0  0
 12 31  1  0  0  0  0
 13 32  1  0  0  0  0
 13 33  1  0  0  0  0
 14 15  1  0  0  0  0
 14 34  1  0  0  0  0
 14 35  1  0  0  0  0
 15 19  1  0  0  0  0
 15 16  1  0  0  0  0
 16 17  2  0  0  0  0
 16 36  1  0  0  0  0
 17 18  1  0  0  0  0
 17 37  1  0  0  0  0
 18 23  2  0  0  0  0
 18 19  1  0  0  0  0
 19 20  2  0  0  0  0
 20 21  1  0  0  0  0
 20 38  1  0  0  0  0
 21 22  2  0  0  0  0
 21 39  1  0  0  0  0
 22 23  1  0  0  0  0
 22 24  1  0  0  0  0
 23 40  1  0  0  0  0
 24 25  1  0  0  0  0
 25 41  1  0  0  0  0
 25 42  1  0  0  0  0
 25 43  1  0  0  0  0
M  END
$$$$
ZINC03814969
  -OEChem-08230709403D

 46 49  0     1  0  0  0  0  0999 V2000
   -4.5081    5.8818   -3.0549 C   0  0  0  0  0  0  0  0  0  0  0  0
   -3.2260    5.1738   -3.4100 C   0  0  0  0  0  0  0  0  0  0  0  0
   -2.1848    5.1117   -2.5210 C   0  0  0  0  0  0  0  0  0  0  0  0
   -1.0109    4.4584   -2.8748 C   0  0  0  0  0  0  0  0  0  0  0  0
   -0.8669    3.8797   -4.0463 N   0  0  0  0  0  0  0  0  0  0  0  0
   -1.8428    3.9053   -4.9543 C   0  0  0  0  0  0  0  0  0  0  0  0
   -3.0633    4.5607   -4.6575 C   0  0  0  0  0  0  0  0  0  0  0  0
   -4.0829    4.5717   -5.6413 C   0  0  0  0  0  0  0  0  0  0  0  0
   -3.8466    3.9665   -6.7966 N   0  0  0  0  0  0  0  0  0  0  0  0
   -2.6862    3.3622   -7.0353 C   0  0  0  0  0  0  0  0  0  0  0  0
   -2.5000    2.7490   -8.2595 N   0  0  0  0  0  0  0  0  0  0  0  0
   -5.2879    5.1953   -5.4036 N   0  0  0  0  0  0  0  0  0  0  0  0
   -2.3108    5.7563   -1.1646 C   0  0  0  0  0  0  0  0  0  0  0  0
   -2.1081    4.7432   -0.1204 N   0  0  1  0  0  0  0  0  0  0  0  0
   -2.8451    3.5006   -0.4372 C   0  0  0  0  0  0  0  0  0  0  0  0
   -1.9571    2.4083    0.2017 C   0  0  0  0  0  0  0  0  0  0  0  0
   -0.5843    3.0510    0.2065 C   0  0  0  0  0  0  0  0  0  0  0  0
   -0.7493    4.4163    0.0062 C   0  0  0  0  0  0  0  0  0  0  0  0
    0.3757    5.2367   -0.0422 C   0  0  0  0  0  0  0  0  0  0  0  0
    1.6360    4.6989    0.1174 C   0  0  0  0  0  0  0  0  0  0  0  0
    1.7917    3.3372    0.3287 C   0  0  0  0  0  0  0  0  0  0  0  0
    0.6749    2.5151    0.3756 C   0  0  0  0  0  0  0  0  0  0  0  0
    3.0348    2.8093    0.4888 O   0  0  0  0  0  0  0  0  0  0  0  0
    4.1375    3.7163    0.4284 C   0  0  0  0  0  0  0  0  0  0  0  0
   -4.4874    6.8946   -3.4572 H   0  0  0  0  0  0  0  0  0  0  0  0
   -5.3525    5.3392   -3.4800 H   0  0  0  0  0  0  0  0  0  0  0  0
   -4.6118    5.9235   -1.9706 H   0  0  0  0  0  0  0  0  0  0  0  0
   -0.1964    4.4210   -2.1667 H   0  0  0  0  0  0  0  0  0  0  0  0
   -3.2075    2.7654   -8.9228 H   0  0  0  0  0  0  0  0  0  0  0  0
   -1.6617    2.3021   -8.4556 H   0  0  0  0  0  0  0  0  0  0  0  0
   -5.3093    6.0520   -4.9491 H   0  0  0  0  0  0  0  0  0  0  0  0
   -6.1151    4.7778   -5.6907 H   0  0  0  0  0  0  0  0  0  0  0  0
   -3.3044    6.1920   -1.0602 H   0  0  0  0  0  0  0  0  0  0  0  0
   -1.5585    6.5385   -1.0628 H   0  0  0  0  0  0  0  0  0  0  0  0
   -3.8346    3.5107    0.0199 H   0  0  0  0  0  0  0  0  0  0  0  0
   -2.9176    3.3582   -1.5154 H   0  0  0  0  0  0  0  0  0  0  0  0
   -2.2874    2.1874    1.2167 H   0  0  0  0  0  0  0  0  0  0  0  0
   -1.9554    1.5060   -0.4097 H   0  0  0  0  0  0  0  0  0  0  0  0
    0.2606    6.2981   -0.2058 H   0  0  0  0  0  0  0  0  0  0  0  0
    2.5039    5.3404    0.0781 H   0  0  0  0  0  0  0  0  0  0  0  0
    0.7923    1.4542    0.5402 H   0  0  0  0  0  0  0  0  0  0  0  0
    5.0680    3.1669    0.5710 H   0  0  0  0  0  0  0  0  0  0  0  0
    4.1510    4.2075   -0.5445 H   0  0  0  0  0  0  0  0  0  0  0  0
    4.0345    4.4662    1.2127 H   0  0  0  0  0  0  0  0  0  0  0  0
   -1.6431    3.2892   -6.1707 N   0  3  0  0  0  0  0  0  0  0  0  0
   -0.8055    2.8121   -6.4368 H   0  0  0  0  0  0  0  0  0  0  0  0
  1  2  1  0  0  0  0
  1 25  1  0  0  0  0
  1 26  1  0  0  0  0
  1 27  1  0  0  0  0
  2  7  2  0  0  0  0
  2  3  1  0  0  0  0
  3  4  2  0  0  0  0
  3 13  1  0  0  0  0
  4  5  1  0  0  0  0
  4 28  1  0  0  0  0
  5  6  2  0  0  0  0
  6  7  1  0  0  0  0
  6 45  1  0  0  0  0
  7  8  1  0  0  0  0
  8  9  2  0  0  0  0
  8 12  1  0  0  0  0
  9 10  1  0  0  0  0
 10 11  1  0  0  0  0
 10 45  2  0  0  0  0
 11 29  1  0  0  0  0
 11 30  1  0  0  0  0
 12 31  1  0  0  0  0
 12 32  1  0  0  0  0
 13 14  1  0  0  0  0
 13 33  1  0  0  0  0
 13 34  1  0  0  0  0
 14 18  1  0  0  0  0
 14 15  1  0  0  0  0
 15 16  1  0  0  0  0
 15 35  1  0  0  0  0
 15 36  1  0  0  0  0
 16 17  1  0  0  0  0
 16 37  1  0  0  0  0
 16 38  1  0  0  0  0
 17 22  2  0  0  0  0
 17 18  1  0  0  0  0
 18 19  2  0  0  0  0
 19 20  1  0  0  0  0
 19 39  1  0  0  0  0
 20 21  2  0  0  0  0
 20 40  1  0  0  0  0
 21 22  1  0  0  0  0
 21 23  1  0  0  0  0
 22 41  1  0  0  0  0
 23 24  1  0  0  0  0
 24 42  1  0  0  0  0
 24 43  1  0  0  0  0
 24 44  1  0  0  0  0
 45 46  1  0  0  0  0
M  CHG  1  45   1
M  END
$$$$
ZINC03814969
  -OEChem-08230709403D

 44 47  0     0  0  0  0  0  0999 V2000
   -0.2525    5.1761   -1.4871 C   0  0  0  0  0  0  0  0  0  0  0  0
    1.1705    5.0320   -1.9617 C   0  0  0  0  0  0  0  0  0  0  0  0
    2.1811    4.7404   -1.0832 C   0  0  0  0  0  0  0  0  0  0  0  0
    3.4840    4.6071   -1.5469 C   0  0  0  0  0  0  0  0  0  0  0  0
    3.7855    4.7582   -2.8174 N   0  0  0  0  0  0  0  0  0  0  0  0
    2.8482    5.0475   -3.7203 C   0  0  0  0  0  0  0  0  0  0  0  0
    1.4998    5.1966   -3.3119 C   0  0  0  0  0  0  0  0  0  0  0  0
    0.5248    5.5035   -4.2932 C   0  0  0  0  0  0  0  0  0  0  0  0
    0.9208    5.6372   -5.5510 N   0  0  0  0  0  0  0  0  0  0  0  0
    2.1976    5.4890   -5.8926 C   0  0  0  0  0  0  0  0  0  0  0  0
    2.5482    5.6408   -7.2205 N   0  0  0  0  0  0  0  0  0  0  0  0
   -0.7999    5.6594   -3.9489 N   0  0  0  0  0  0  0  0  0  0  0  0
    1.8788    4.5585    0.3819 C   0  0  0  0  0  0  0  0  0  0  0  0
    1.5124    3.1628    0.6353 N   0  0  0  0  0  0  0  0  0  0  0  0
    0.2335    2.7007    0.7854 C   0  0  0  0  0  0  0  0  0  0  0  0
    0.2480    1.3764    1.0047 C   0  0  0  0  0  0  0  0  0  0  0  0
    1.6511    0.9552    0.9942 C   0  0  0  0  0  0  0  0  0  0  0  0
    2.4050    2.1188    0.7576 C   0  0  0  0  0  0  0  0  0  0  0  0
    3.7915    2.0354    0.6919 C   0  0  0  0  0  0  0  0  0  0  0  0
    4.4167    0.8195    0.8576 C   0  0  0  0  0  0  0  0  0  0  0  0
    3.6733   -0.3340    1.0924 C   0  0  0  0  0  0  0  0  0  0  0  0
    2.2956   -0.2721    1.1611 C   0  0  0  0  0  0  0  0  0  0  0  0
    4.3066   -1.5265    1.2542 O   0  0  0  0  0  0  0  0  0  0  0  0
    5.7332   -1.5200    1.1713 C   0  0  0  0  0  0  0  0  0  0  0  0
   -0.4778    6.2307   -1.3290 H   0  0  0  0  0  0  0  0  0  0  0  0
   -0.9291    4.7686   -2.2383 H   0  0  0  0  0  0  0  0  0  0  0  0
   -0.3799    4.6330   -0.5506 H   0  0  0  0  0  0  0  0  0  0  0  0
    4.2703    4.3728   -0.8446 H   0  0  0  0  0  0  0  0  0  0  0  0
    1.8691    5.8510   -7.8805 H   0  0  0  0  0  0  0  0  0  0  0  0
    3.4734    5.5373   -7.4927 H   0  0  0  0  0  0  0  0  0  0  0  0
   -1.0383    6.1558   -3.1504 H   0  0  0  0  0  0  0  0  0  0  0  0
   -1.4943    5.2726   -4.5049 H   0  0  0  0  0  0  0  0  0  0  0  0
    1.0513    5.2087    0.6657 H   0  0  0  0  0  0  0  0  0  0  0  0
    2.7604    4.8150    0.9694 H   0  0  0  0  0  0  0  0  0  0  0  0
   -0.6563    3.3104    0.7310 H   0  0  0  0  0  0  0  0  0  0  0  0
   -0.6120    0.7417    1.1595 H   0  0  0  0  0  0  0  0  0  0  0  0
    4.3780    2.9239    0.5102 H   0  0  0  0  0  0  0  0  0  0  0  0
    5.4939    0.7603    0.8053 H   0  0  0  0  0  0  0  0  0  0  0  0
    1.7201   -1.1677    1.3433 H   0  0  0  0  0  0  0  0  0  0  0  0
    6.0384   -1.1572    0.1899 H   0  0  0  0  0  0  0  0  0  0  0  0
    6.1390   -0.8658    1.9429 H   0  0  0  0  0  0  0  0  0  0  0  0
    6.1102   -2.5322    1.3179 H   0  0  0  0  0  0  0  0  0  0  0  0
    3.2125    5.1961   -5.0411 N   0  3  0  0  0  0  0  0  0  0  0  0
    4.1455    5.1030   -5.3886 H   0  0  0  0  0  0  0  0  0  0  0  0
  1  2  1  0  0  0  0
  1 25  1  0  0  0  0
  1 26  1  0  0  0  0
  1 27  1  0  0  0  0
  2  7  2  0  0  0  0
  2  3  1  0  0  0  0
  3  4  2  0  0  0  0
  3 13  1  0  0  0  0
  4  5  1  0  0  0  0
  4 28  1  0  0  0  0
  5  6  2  0  0  0  0
  6  7  1  0  0  0  0
  6 43  1  0  0  0  0
  7  8  1  0  0  0  0
  8  9  2  0  0  0  0
  8 12  1  0  0  0  0
  9 10  1  0  0  0  0
 10 11  1  0  0  0  0
 10 43  2  0  0  0  0
 11 29  1  0  0  0  0
 11 30  1  0  0  0  0
 12 31  1  0  0  0  0
 12 32  1  0  0  0  0
 13 14  1  0  0  0  0
 13 33  1  0  0  0  0
 13 34  1  0  0  0  0
 14 18  1  0  0  0  0
 14 15  1  0  0  0  0
 15 16  2  0  0  0  0
 15 35  1  0  0  0  0
 16 17  1  0  0  0  0
 16 36  1  0  0  0  0
 17 22  2  0  0  0  0
 17 18  1  0  0  0  0
 18 19  2  0  0  0  0
 19 20  1  0  0  0  0
 19 37  1  0  0  0  0
 20 21  2  0  0  0  0
 20 38  1  0  0  0  0
 21 22  1  0  0  0  0
 21 23  1  0  0  0  0
 22 39  1  0  0  0  0
 23 24  1  0  0  0  0
 24 40  1  0  0  0  0
 24 41  1  0  0  0  0
 24 42  1  0  0  0  0
 43 44  1  0  0  0  0
M  CHG  1  43   1
M  END
$$$$
ZINC03814970
  -OEChem-08230709403D

 53 56  0     0  0  0  0  0  0999 V2000
    1.2200   -6.6664    2.9107 C   0  0  0  0  0  0  0  0  0  0  0  0
    0.1857   -7.4183    2.1132 C   0  0  0  0  0  0  0  0  0  0  0  0
   -1.0250   -6.8498    1.8143 C   0  0  0  0  0  0  0  0  0  0  0  0
   -1.9641   -7.5663    1.0828 C   0  0  0  0  0  0  0  0  0  0  0  0
   -1.7230   -8.7846    0.6520 N   0  0  0  0  0  0  0  0  0  0  0  0
   -0.5648   -9.3922    0.9100 C   0  0  0  0  0  0  0  0  0  0  0  0
    0.4329   -8.7178    1.6565 C   0  0  0  0  0  0  0  0  0  0  0  0
    1.6542   -9.3880    1.9152 C   0  0  0  0  0  0  0  0  0  0  0  0
    1.8067  -10.6180    1.4455 N   0  0  0  0  0  0  0  0  0  0  0  0
    0.8445  -11.2157    0.7486 C   0  0  0  0  0  0  0  0  0  0  0  0
   -0.3105  -10.6364    0.4801 N   0  0  0  0  0  0  0  0  0  0  0  0
    1.0634  -12.4992    0.2860 N   0  0  0  0  0  0  0  0  0  0  0  0
    2.6566   -8.7775    2.6364 N   0  0  0  0  0  0  0  0  0  0  0  0
   -1.3394   -5.4526    2.2833 C   0  0  0  0  0  0  0  0  0  0  0  0
   -0.7047   -4.4824    1.3877 N   0  0  0  0  0  0  0  0  0  0  0  0
   -0.8555   -3.1095    1.6223 C   0  0  0  0  0  0  0  0  0  0  0  0
   -1.6060   -2.6685    2.7027 C   0  0  0  0  0  0  0  0  0  0  0  0
   -1.7554   -1.3109    2.9342 C   0  0  0  0  0  0  0  0  0  0  0  0
   -1.1525   -0.3892    2.0826 C   0  0  0  0  0  0  0  0  0  0  0  0
   -0.4064   -0.8302    0.9992 C   0  0  0  0  0  0  0  0  0  0  0  0
   -0.2526   -2.1872    0.7707 C   0  0  0  0  0  0  0  0  0  0  0  0
    0.4839   -2.6195   -0.2888 O   0  0  0  0  0  0  0  0  0  0  0  0
    1.0738   -1.6184   -1.1206 C   0  0  0  0  0  0  0  0  0  0  0  0
   -1.3044    0.9878    2.3171 N   0  0  0  0  0  0  0  0  0  0  0  0
   -2.4884    1.6328    2.5296 C   0  0  0  0  0  0  0  0  0  0  0  0
   -2.2266    2.9426    2.7191 C   0  0  0  0  0  0  0  0  0  0  0  0
   -0.8325    3.1149    2.6103 C   0  0  0  0  0  0  0  0  0  0  0  0
   -0.2931    1.9031    2.3643 C   0  0  0  0  0  0  0  0  0  0  0  0
   -2.4908   -0.8784    3.9936 O   0  0  0  0  0  0  0  0  0  0  0  0
   -3.0808   -1.8793    4.8256 C   0  0  0  0  0  0  0  0  0  0  0  0
    1.1592   -6.9646    3.9573 H   0  0  0  0  0  0  0  0  0  0  0  0
    2.2133   -6.8953    2.5248 H   0  0  0  0  0  0  0  0  0  0  0  0
    1.0355   -5.5954    2.8268 H   0  0  0  0  0  0  0  0  0  0  0  0
   -2.9160   -7.1083    0.8583 H   0  0  0  0  0  0  0  0  0  0  0  0
    1.9048  -12.9447    0.4716 H   0  0  0  0  0  0  0  0  0  0  0  0
    0.3757  -12.9546   -0.2245 H   0  0  0  0  0  0  0  0  0  0  0  0
    2.4378   -8.2513    3.4214 H   0  0  0  0  0  0  0  0  0  0  0  0
    3.5811   -8.8736    2.3592 H   0  0  0  0  0  0  0  0  0  0  0  0
   -0.9596   -5.3152    3.2957 H   0  0  0  0  0  0  0  0  0  0  0  0
   -2.4188   -5.3014    2.2765 H   0  0  0  0  0  0  0  0  0  0  0  0
   -0.1800   -4.7907    0.6324 H   0  0  0  0  0  0  0  0  0  0  0  0
   -2.0734   -3.3837    3.3634 H   0  0  0  0  0  0  0  0  0  0  0  0
    0.0575   -0.1150    0.3362 H   0  0  0  0  0  0  0  0  0  0  0  0
    1.6318   -2.0971   -1.9253 H   0  0  0  0  0  0  0  0  0  0  0  0
    0.2902   -0.9909   -1.5452 H   0  0  0  0  0  0  0  0  0  0  0  0
    1.7492   -1.0035   -0.5258 H   0  0  0  0  0  0  0  0  0  0  0  0
   -3.4657    1.1734    2.5462 H   0  0  0  0  0  0  0  0  0  0  0  0
   -2.9530    3.7177    2.9142 H   0  0  0  0  0  0  0  0  0  0  0  0
   -0.2943    4.0463    2.7069 H   0  0  0  0  0  0  0  0  0  0  0  0
    0.7576    1.6935    2.2282 H   0  0  0  0  0  0  0  0  0  0  0  0
   -3.6382   -1.4003    5.6306 H   0  0  0  0  0  0  0  0  0  0  0  0
   -3.7570   -2.4937    4.2310 H   0  0  0  0  0  0  0  0  0  0  0  0
   -2.2974   -2.5073    5.2497 H   0  0  0  0  0  0  0  0  0  0  0  0
  1  2  1  0  0  0  0
  1 31  1  0  0  0  0
  1 32  1  0  0  0  0
  1 33  1  0  0  0  0
  2  7  2  0  0  0  0
  2  3  1  0  0  0  0
  3  4  2  0  0  0  0
  3 14  1  0  0  0  0
  4  5  1  0  0  0  0
  4 34  1  0  0  0  0
  5  6  2  0  0  0  0
  6 11  1  0  0  0  0
  6  7  1  0  0  0  0
  7  8  1  0  0  0  0
  8  9  2  0  0  0  0
  8 13  1  0  0  0  0
  9 10  1  0  0  0  0
 10 11  2  0  0  0  0
 10 12  1  0  0  0  0
 12 35  1  0  0  0  0
 12 36  1  0  0  0  0
 13 37  1  0  0  0  0
 13 38  1  0  0  0  0
 14 15  1  0  0  0  0
 14 39  1  0  0  0  0
 14 40  1  0  0  0  0
 15 16  1  0  0  0  0
 15 41  1  0  0  0  0
 16 21  2  0  0  0  0
 16 17  1  0  0  0  0
 17 18  2  0  0  0  0
 17 42  1  0  0  0  0
 18 19  1  0  0  0  0
 18 29  1  0  0  0  0
 19 20  2  0  0  0  0
 19 24  1  0  0  0  0
 20 21  1  0  0  0  0
 20 43  1  0  0  0  0
 21 22  1  0  0  0  0
 22 23  1  0  0  0  0
 23 44  1  0  0  0  0
 23 45  1  0  0  0  0
 23 46  1  0  0  0  0
 24 28  1  0  0  0  0
 24 25  1  0  0  0  0
 25 26  2  0  0  0  0
 25 47  1  0  0  0  0
 26 27  1  0  0  0  0
 26 48  1  0  0  0  0
 27 28  2  0  0  0  0
 27 49  1  0  0  0  0
 28 50  1  0  0  0  0
 29 30  1  0  0  0  0
 30 51  1  0  0  0  0
 30 52  1  0  0  0  0
 30 53  1  0  0  0  0
M  END
$$$$
ZINC03814970
  -OEChem-08230709403D

 54 57  0     0  0  0  0  0  0999 V2000
    1.2200   -6.6664    2.9107 C   0  0  0  0  0  0  0  0  0  0  0  0
    0.1857   -7.4183    2.1132 C   0  0  0  0  0  0  0  0  0  0  0  0
   -1.0250   -6.8498    1.8143 C   0  0  0  0  0  0  0  0  0  0  0  0
   -1.9641   -7.5663    1.0828 C   0  0  0  0  0  0  0  0  0  0  0  0
   -1.7230   -8.7846    0.6520 N   0  0  0  0  0  0  0  0  0  0  0  0
   -0.5648   -9.3922    0.9100 C   0  0  0  0  0  0  0  0  0  0  0  0
    0.4329   -8.7178    1.6565 C   0  0  0  0  0  0  0  0  0  0  0  0
    1.6542   -9.3880    1.9152 C   0  0  0  0  0  0  0  0  0  0  0  0
    1.8067  -10.6180    1.4455 N   0  0  0  0  0  0  0  0  0  0  0  0
    0.8445  -11.2157    0.7486 C   0  0  0  0  0  0  0  0  0  0  0  0
    1.0634  -12.4992    0.2860 N   0  0  0  0  0  0  0  0  0  0  0  0
    2.6566   -8.7775    2.6364 N   0  0  0  0  0  0  0  0  0  0  0  0
   -1.3394   -5.4526    2.2833 C   0  0  0  0  0  0  0  0  0  0  0  0
   -0.7047   -4.4824    1.3877 N   0  0  0  0  0  0  0  0  0  0  0  0
   -0.8555   -3.1095    1.6223 C   0  0  0  0  0  0  0  0  0  0  0  0
   -1.6060   -2.6685    2.7027 C   0  0  0  0  0  0  0  0  0  0  0  0
   -1.7554   -1.3109    2.9342 C   0  0  0  0  0  0  0  0  0  0  0  0
   -1.1525   -0.3892    2.0826 C   0  0  0  0  0  0  0  0  0  0  0  0
   -0.4064   -0.8302    0.9992 C   0  0  0  0  0  0  0  0  0  0  0  0
   -0.2526   -2.1872    0.7707 C   0  0  0  0  0  0  0  0  0  0  0  0
    0.4839   -2.6195   -0.2888 O   0  0  0  0  0  0  0  0  0  0  0  0
    1.0738   -1.6184   -1.1206 C   0  0  0  0  0  0  0  0  0  0  0  0
   -1.3044    0.9878    2.3171 N   0  0  0  0  0  0  0  0  0  0  0  0
   -2.4884    1.6328    2.5296 C   0  0  0  0  0  0  0  0  0  0  0  0
   -2.2266    2.9426    2.7191 C   0  0  0  0  0  0  0  0  0  0  0  0
   -0.8325    3.1149    2.6103 C   0  0  0  0  0  0  0  0  0  0  0  0
   -0.2931    1.9031    2.3643 C   0  0  0  0  0  0  0  0  0  0  0  0
   -2.4908   -0.8784    3.9936 O   0  0  0  0  0  0  0  0  0  0  0  0
   -3.0808   -1.8793    4.8256 C   0  0  0  0  0  0  0  0  0  0  0  0
    1.1592   -6.9646    3.9573 H   0  0  0  0  0  0  0  0  0  0  0  0
    2.2133   -6.8953    2.5248 H   0  0  0  0  0  0  0  0  0  0  0  0
    1.0355   -5.5954    2.8268 H   0  0  0  0  0  0  0  0  0  0  0  0
   -2.9160   -7.1083    0.8583 H   0  0  0  0  0  0  0  0  0  0  0  0
    1.9048  -12.9447    0.4716 H   0  0  0  0  0  0  0  0  0  0  0  0
    0.3757  -12.9546   -0.2245 H   0  0  0  0  0  0  0  0  0  0  0  0
    2.4378   -8.2513    3.4214 H   0  0  0  0  0  0  0  0  0  0  0  0
    3.5811   -8.8736    2.3592 H   0  0  0  0  0  0  0  0  0  0  0  0
   -0.9596   -5.3152    3.2957 H   0  0  0  0  0  0  0  0  0  0  0  0
   -2.4188   -5.3014    2.2765 H   0  0  0  0  0  0  0  0  0  0  0  0
   -0.1800   -4.7907    0.6324 H   0  0  0  0  0  0  0  0  0  0  0  0
   -2.0734   -3.3837    3.3634 H   0  0  0  0  0  0  0  0  0  0  0  0
    0.0575   -0.1150    0.3362 H   0  0  0  0  0  0  0  0  0  0  0  0
    1.6318   -2.0971   -1.9253 H   0  0  0  0  0  0  0  0  0  0  0  0
    0.2902   -0.9909   -1.5452 H   0  0  0  0  0  0  0  0  0  0  0  0
    1.7492   -1.0035   -0.5258 H   0  0  0  0  0  0  0  0  0  0  0  0
   -3.4657    1.1734    2.5462 H   0  0  0  0  0  0  0  0  0  0  0  0
   -2.9530    3.7177    2.9142 H   0  0  0  0  0  0  0  0  0  0  0  0
   -0.2943    4.0463    2.7069 H   0  0  0  0  0  0  0  0  0  0  0  0
    0.7576    1.6935    2.2282 H   0  0  0  0  0  0  0  0  0  0  0  0
   -3.6382   -1.4003    5.6306 H   0  0  0  0  0  0  0  0  0  0  0  0
   -3.7570   -2.4937    4.2310 H   0  0  0  0  0  0  0  0  0  0  0  0
   -2.2974   -2.5073    5.2497 H   0  0  0  0  0  0  0  0  0  0  0  0
   -0.3602  -10.6722    0.4419 N   0  3  0  0  0  0  0  0  0  0  0  0
   -1.0252  -11.1976   -0.0888 H   0  0  0  0  0  0  0  0  0  0  0  0
  1  2  1  0  0  0  0
  1 30  1  0  0  0  0
  1 31  1  0  0  0  0
  1 32  1  0  0  0  0
  2  7  2  0  0  0  0
  2  3  1  0  0  0  0
  3  4  2  0  0  0  0
  3 13  1  0  0  0  0
  4  5  1  0  0  0  0
  4 33  1  0  0  0  0
  5  6  2  0  0  0  0
  6  7  1  0  0  0  0
  6 53  1  0  0  0  0
  7  8  1  0  0  0  0
  8  9  2  0  0  0  0
  8 12  1  0  0  0  0
  9 10  1  0  0  0  0
 10 11  1  0  0  0  0
 10 53  2  0  0  0  0
 11 34  1  0  0  0  0
 11 35  1  0  0  0  0
 12 36  1  0  0  0  0
 12 37  1  0  0  0  0
 13 14  1  0  0  0  0
 13 38  1  0  0  0  0
 13 39  1  0  0  0  0
 14 15  1  0  0  0  0
 14 40  1  0  0  0  0
 15 20  2  0  0  0  0
 15 16  1  0  0  0  0
 16 17  2  0  0  0  0
 16 41  1  0  0  0  0
 17 18  1  0  0  0  0
 17 28  1  0  0  0  0
 18 19  2  0  0  0  0
 18 23  1  0  0  0  0
 19 20  1  0  0  0  0
 19 42  1  0  0  0  0
 20 21  1  0  0  0  0
 21 22  1  0  0  0  0
 22 43  1  0  0  0  0
 22 44  1  0  0  0  0
 22 45  1  0  0  0  0
 23 27  1  0  0  0  0
 23 24  1  0  0  0  0
 24 25  2  0  0  0  0
 24 46  1  0  0  0  0
 25 26  1  0  0  0  0
 25 47  1  0  0  0  0
 26 27  2  0  0  0  0
 26 48  1  0  0  0  0
 27 49  1  0  0  0  0
 28 29  1  0  0  0  0
 29 50  1  0  0  0  0
 29 51  1  0  0  0  0
 29 52  1  0  0  0  0
 53 54  1  0  0  0  0
M  CHG  1  53   1
M  END
$$$$
ZINC03814971
  -OEChem-08230709403D

 57 60  0     0  0  0  0  0  0999 V2000
    1.0347   -1.7352    0.3208 C   0  0  0  0  0  0  0  0  0  0  0  0
    1.6579   -0.8083    1.3326 C   0  0  0  0  0  0  0  0  0  0  0  0
    2.4983   -1.3123    2.3049 C   0  0  0  0  0  0  0  0  0  0  0  0
    3.0676   -0.4594    3.2407 C   0  0  0  0  0  0  0  0  0  0  0  0
    2.7973    0.9015    3.1950 C   0  0  0  0  0  0  0  0  0  0  0  0
    1.9619    1.4071    2.2192 C   0  0  0  0  0  0  0  0  0  0  0  0
    1.3917    0.5540    1.2830 C   0  0  0  0  0  0  0  0  0  0  0  0
    0.5455    1.0658    0.2944 N   0  0  0  0  0  0  0  0  0  0  0  0
    1.0755    0.7886   -1.0473 C   0  0  0  0  0  0  0  0  0  0  0  0
    0.1389    1.3537   -2.0840 C   0  0  0  0  0  0  0  0  0  0  0  0
   -0.7574    0.5194   -2.7412 C   0  0  0  0  0  0  0  0  0  0  0  0
   -1.5924    0.9771   -3.6470 N   0  0  0  0  0  0  0  0  0  0  0  0
   -1.6078    2.2673   -3.9836 C   0  0  0  0  0  0  0  0  0  0  0  0
   -0.7150    3.1696   -3.3543 C   0  0  0  0  0  0  0  0  0  0  0  0
    0.1734    2.6901   -2.3844 C   0  0  0  0  0  0  0  0  0  0  0  0
    1.1395    3.6163   -1.6916 C   0  0  0  0  0  0  0  0  0  0  0  0
   -0.7538    4.5344   -3.7314 C   0  0  0  0  0  0  0  0  0  0  0  0
   -1.6263    4.9049   -4.6582 N   0  0  0  0  0  0  0  0  0  0  0  0
   -2.4473    4.0257   -5.2246 C   0  0  0  0  0  0  0  0  0  0  0  0
   -2.4514    2.7438   -4.9098 N   0  0  0  0  0  0  0  0  0  0  0  0
   -3.3346    4.4733   -6.1847 N   0  0  0  0  0  0  0  0  0  0  0  0
    0.0931    5.4526   -3.1506 N   0  0  0  0  0  0  0  0  0  0  0  0
    1.6690    2.8846    2.1694 C   0  0  0  0  0  0  0  0  0  0  0  0
    3.4156    1.8269    4.2111 C   0  0  0  0  0  0  0  0  0  0  0  0
    3.9171   -0.9732    4.2331 N   0  0  0  0  0  0  0  0  0  0  0  0
    5.2489   -0.7009    4.3598 C   0  0  0  0  0  0  0  0  0  0  0  0
    5.7166   -1.3745    5.4308 C   0  0  0  0  0  0  0  0  0  0  0  0
    4.6383   -2.0963    5.9801 C   0  0  0  0  0  0  0  0  0  0  0  0
    3.5500   -1.8327    5.2283 C   0  0  0  0  0  0  0  0  0  0  0  0
    2.7924   -2.7895    2.3547 C   0  0  0  0  0  0  0  0  0  0  0  0
    1.6918   -1.8235   -0.5443 H   0  0  0  0  0  0  0  0  0  0  0  0
    0.8901   -2.7181    0.7692 H   0  0  0  0  0  0  0  0  0  0  0  0
    0.0712   -1.3343    0.0058 H   0  0  0  0  0  0  0  0  0  0  0  0
    0.3927    2.0545    0.4256 H   0  0  0  0  0  0  0  0  0  0  0  0
    1.1649   -0.2887   -1.1872 H   0  0  0  0  0  0  0  0  0  0  0  0
    2.0566    1.2514   -1.1532 H   0  0  0  0  0  0  0  0  0  0  0  0
   -0.7710   -0.5328   -2.4979 H   0  0  0  0  0  0  0  0  0  0  0  0
    2.0190    3.7596   -2.3193 H   0  0  0  0  0  0  0  0  0  0  0  0
    0.6579    4.5782   -1.5157 H   0  0  0  0  0  0  0  0  0  0  0  0
    1.4402    3.1809   -0.7386 H   0  0  0  0  0  0  0  0  0  0  0  0
   -3.3491    5.4111   -6.4321 H   0  0  0  0  0  0  0  0  0  0  0  0
   -3.9429    3.8497   -6.6112 H   0  0  0  0  0  0  0  0  0  0  0  0
    1.0198    5.2197   -2.9834 H   0  0  0  0  0  0  0  0  0  0  0  0
   -0.2371    6.3320   -2.9089 H   0  0  0  0  0  0  0  0  0  0  0  0
    0.7902    3.1014    2.7767 H   0  0  0  0  0  0  0  0  0  0  0  0
    2.5243    3.4378    2.5575 H   0  0  0  0  0  0  0  0  0  0  0  0
    1.4808    3.1831    1.1382 H   0  0  0  0  0  0  0  0  0  0  0  0
    2.7566    1.9099    5.0753 H   0  0  0  0  0  0  0  0  0  0  0  0
    4.3798    1.4281    4.5265 H   0  0  0  0  0  0  0  0  0  0  0  0
    3.5576    2.8119    3.7665 H   0  0  0  0  0  0  0  0  0  0  0  0
    5.8275   -0.0555    3.7155 H   0  0  0  0  0  0  0  0  0  0  0  0
    6.7325   -1.3658    5.7972 H   0  0  0  0  0  0  0  0  0  0  0  0
    4.6763   -2.7423    6.8448 H   0  0  0  0  0  0  0  0  0  0  0  0
    2.5593   -2.2328    5.3860 H   0  0  0  0  0  0  0  0  0  0  0  0
    2.0553   -3.2857    2.9860 H   0  0  0  0  0  0  0  0  0  0  0  0
    2.7457   -3.2034    1.3474 H   0  0  0  0  0  0  0  0  0  0  0  0
    3.7891   -2.9479    2.7667 H   0  0  0  0  0  0  0  0  0  0  0  0
  1  2  1  0  0  0  0
  1 31  1  0  0  0  0
  1 32  1  0  0  0  0
  1 33  1  0  0  0  0
  2  7  2  0  0  0  0
  2  3  1  0  0  0  0
  3  4  2  0  0  0  0
  3 30  1  0  0  0  0
  4  5  1  0  0  0  0
  4 25  1  0  0  0  0
  5  6  2  0  0  0  0
  5 24  1  0  0  0  0
  6  7  1  0  0  0  0
  6 23  1  0  0  0  0
  7  8  1  0  0  0  0
  8  9  1  0  0  0  0
  8 34  1  0  0  0  0
  9 10  1  0  0  0  0
  9 35  1  0  0  0  0
  9 36  1  0  0  0  0
 10 15  2  0  0  0  0
 10 11  1  0  0  0  0
 11 12  2  0  0  0  0
 11 37  1  0  0  0  0
 12 13  1  0  0  0  0
 13 20  2  0  0  0  0
 13 14  1  0  0  0  0
 14 15  1  0  0  0  0
 14 17  2  0  0  0  0
 15 16  1  0  0  0  0
 16 38  1  0  0  0  0
 16 39  1  0  0  0  0
 16 40  1  0  0  0  0
 17 18  1  0  0  0  0
 17 22  1  0  0  0  0
 18 19  2  0  0  0  0
 19 20  1  0  0  0  0
 19 21  1  0  0  0  0
 21 41  1  0  0  0  0
 21 42  1  0  0  0  0
 22 43  1  0  0  0  0
 22 44  1  0  0  0  0
 23 45  1  0  0  0  0
 23 46  1  0  0  0  0
 23 47  1  0  0  0  0
 24 48  1  0  0  0  0
 24 49  1  0  0  0  0
 24 50  1  0  0  0  0
 25 29  1  0  0  0  0
 25 26  1  0  0  0  0
 26 27  2  0  0  0  0
 26 51  1  0  0  0  0
 27 28  1  0  0  0  0
 27 52  1  0  0  0  0
 28 29  2  0  0  0  0
 28 53  1  0  0  0  0
 29 54  1  0  0  0  0
 30 55  1  0  0  0  0
 30 56  1  0  0  0  0
 30 57  1  0  0  0  0
M  END
$$$$
ZINC03814971
  -OEChem-08230709403D

 58 61  0     0  0  0  0  0  0999 V2000
    1.0347   -1.7352    0.3208 C   0  0  0  0  0  0  0  0  0  0  0  0
    1.6579   -0.8083    1.3326 C   0  0  0  0  0  0  0  0  0  0  0  0
    2.4983   -1.3123    2.3049 C   0  0  0  0  0  0  0  0  0  0  0  0
    3.0676   -0.4594    3.2407 C   0  0  0  0  0  0  0  0  0  0  0  0
    2.7973    0.9015    3.1950 C   0  0  0  0  0  0  0  0  0  0  0  0
    1.9619    1.4071    2.2192 C   0  0  0  0  0  0  0  0  0  0  0  0
    1.3917    0.5540    1.2830 C   0  0  0  0  0  0  0  0  0  0  0  0
    0.5455    1.0658    0.2944 N   0  0  0  0  0  0  0  0  0  0  0  0
    1.0755    0.7886   -1.0473 C   0  0  0  0  0  0  0  0  0  0  0  0
    0.1389    1.3537   -2.0840 C   0  0  0  0  0  0  0  0  0  0  0  0
   -0.7574    0.5194   -2.7412 C   0  0  0  0  0  0  0  0  0  0  0  0
   -1.5924    0.9771   -3.6470 N   0  0  0  0  0  0  0  0  0  0  0  0
   -1.6078    2.2673   -3.9836 C   0  0  0  0  0  0  0  0  0  0  0  0
   -0.7150    3.1696   -3.3543 C   0  0  0  0  0  0  0  0  0  0  0  0
    0.1734    2.6901   -2.3844 C   0  0  0  0  0  0  0  0  0  0  0  0
    1.1395    3.6163   -1.6916 C   0  0  0  0  0  0  0  0  0  0  0  0
   -0.7538    4.5344   -3.7314 C   0  0  0  0  0  0  0  0  0  0  0  0
   -1.6263    4.9049   -4.6582 N   0  0  0  0  0  0  0  0  0  0  0  0
   -2.4473    4.0257   -5.2246 C   0  0  0  0  0  0  0  0  0  0  0  0
   -3.3346    4.4733   -6.1847 N   0  0  0  0  0  0  0  0  0  0  0  0
    0.0931    5.4526   -3.1506 N   0  0  0  0  0  0  0  0  0  0  0  0
    1.6690    2.8846    2.1694 C   0  0  0  0  0  0  0  0  0  0  0  0
    3.4156    1.8269    4.2111 C   0  0  0  0  0  0  0  0  0  0  0  0
    3.9171   -0.9732    4.2331 N   0  0  0  0  0  0  0  0  0  0  0  0
    5.2489   -0.7009    4.3598 C   0  0  0  0  0  0  0  0  0  0  0  0
    5.7166   -1.3745    5.4308 C   0  0  0  0  0  0  0  0  0  0  0  0
    4.6383   -2.0963    5.9801 C   0  0  0  0  0  0  0  0  0  0  0  0
    3.5500   -1.8327    5.2283 C   0  0  0  0  0  0  0  0  0  0  0  0
    2.7924   -2.7895    2.3547 C   0  0  0  0  0  0  0  0  0  0  0  0
    1.6918   -1.8235   -0.5443 H   0  0  0  0  0  0  0  0  0  0  0  0
    0.8901   -2.7181    0.7692 H   0  0  0  0  0  0  0  0  0  0  0  0
    0.0712   -1.3343    0.0058 H   0  0  0  0  0  0  0  0  0  0  0  0
    0.3927    2.0545    0.4256 H   0  0  0  0  0  0  0  0  0  0  0  0
    1.1649   -0.2887   -1.1872 H   0  0  0  0  0  0  0  0  0  0  0  0
    2.0566    1.2514   -1.1532 H   0  0  0  0  0  0  0  0  0  0  0  0
   -0.7710   -0.5328   -2.4979 H   0  0  0  0  0  0  0  0  0  0  0  0
    2.0190    3.7596   -2.3193 H   0  0  0  0  0  0  0  0  0  0  0  0
    0.6579    4.5782   -1.5157 H   0  0  0  0  0  0  0  0  0  0  0  0
    1.4402    3.1809   -0.7386 H   0  0  0  0  0  0  0  0  0  0  0  0
   -3.3491    5.4111   -6.4321 H   0  0  0  0  0  0  0  0  0  0  0  0
   -3.9429    3.8497   -6.6112 H   0  0  0  0  0  0  0  0  0  0  0  0
    1.0198    5.2197   -2.9834 H   0  0  0  0  0  0  0  0  0  0  0  0
   -0.2371    6.3320   -2.9089 H   0  0  0  0  0  0  0  0  0  0  0  0
    0.7902    3.1014    2.7767 H   0  0  0  0  0  0  0  0  0  0  0  0
    2.5243    3.4378    2.5575 H   0  0  0  0  0  0  0  0  0  0  0  0
    1.4808    3.1831    1.1382 H   0  0  0  0  0  0  0  0  0  0  0  0
    2.7566    1.9099    5.0753 H   0  0  0  0  0  0  0  0  0  0  0  0
    4.3798    1.4281    4.5265 H   0  0  0  0  0  0  0  0  0  0  0  0
    3.5576    2.8119    3.7665 H   0  0  0  0  0  0  0  0  0  0  0  0
    5.8275   -0.0555    3.7155 H   0  0  0  0  0  0  0  0  0  0  0  0
    6.7325   -1.3658    5.7972 H   0  0  0  0  0  0  0  0  0  0  0  0
    4.6763   -2.7423    6.8448 H   0  0  0  0  0  0  0  0  0  0  0  0
    2.5593   -2.2328    5.3860 H   0  0  0  0  0  0  0  0  0  0  0  0
    2.0553   -3.2857    2.9860 H   0  0  0  0  0  0  0  0  0  0  0  0
    2.7457   -3.2034    1.3474 H   0  0  0  0  0  0  0  0  0  0  0  0
    3.7891   -2.9479    2.7667 H   0  0  0  0  0  0  0  0  0  0  0  0
   -2.4975    2.6992   -4.9429 N   0  3  0  0  0  0  0  0  0  0  0  0
   -3.1200    2.0479   -5.3769 H   0  0  0  0  0  0  0  0  0  0  0  0
  1  2  1  0  0  0  0
  1 30  1  0  0  0  0
  1 31  1  0  0  0  0
  1 32  1  0  0  0  0
  2  7  2  0  0  0  0
  2  3  1  0  0  0  0
  3  4  2  0  0  0  0
  3 29  1  0  0  0  0
  4  5  1  0  0  0  0
  4 24  1  0  0  0  0
  5  6  2  0  0  0  0
  5 23  1  0  0  0  0
  6  7  1  0  0  0  0
  6 22  1  0  0  0  0
  7  8  1  0  0  0  0
  8  9  1  0  0  0  0
  8 33  1  0  0  0  0
  9 10  1  0  0  0  0
  9 34  1  0  0  0  0
  9 35  1  0  0  0  0
 10 15  2  0  0  0  0
 10 11  1  0  0  0  0
 11 12  2  0  0  0  0
 11 36  1  0  0  0  0
 12 13  1  0  0  0  0
 13 14  2  0  0  0  0
 13 57  1  0  0  0  0
 14 15  1  0  0  0  0
 14 17  1  0  0  0  0
 15 16  1  0  0  0  0
 16 37  1  0  0  0  0
 16 38  1  0  0  0  0
 16 39  1  0  0  0  0
 17 18  2  0  0  0  0
 17 21  1  0  0  0  0
 18 19  1  0  0  0  0
 19 20  1  0  0  0  0
 19 57  2  0  0  0  0
 20 40  1  0  0  0  0
 20 41  1  0  0  0  0
 21 42  1  0  0  0  0
 21 43  1  0  0  0  0
 22 44  1  0  0  0  0
 22 45  1  0  0  0  0
 22 46  1  0  0  0  0
 23 47  1  0  0  0  0
 23 48  1  0  0  0  0
 23 49  1  0  0  0  0
 24 28  1  0  0  0  0
 24 25  1  0  0  0  0
 25 26  2  0  0  0  0
 25 50  1  0  0  0  0
 26 27  1  0  0  0  0
 26 51  1  0  0  0  0
 27 28  2  0  0  0  0
 27 52  1  0  0  0  0
 28 53  1  0  0  0  0
 29 54  1  0  0  0  0
 29 55  1  0  0  0  0
 29 56  1  0  0  0  0
 57 58  1  0  0  0  0
M  CHG  1  57   1
M  END
$$$$
ZINC03814972
  -OEChem-08230709403D

 37 39  0     0  0  0  0  0  0999 V2000
   -0.0700   -0.0033    0.6150 C   0  0  0  0  0  0  0  0  0  0  0  0
   -0.0875    1.5035    0.5983 C   0  0  0  0  0  0  0  0  0  0  0  0
   -1.2454    2.1982    0.8324 C   0  0  0  0  0  0  0  0  0  0  0  0
   -1.2346    3.5874    0.8144 C   0  0  0  0  0  0  0  0  0  0  0  0
   -0.1370    4.2679    0.5695 N   0  0  0  0  0  0  0  0  0  0  0  0
    1.0200    3.6503    0.3300 C   0  0  0  0  0  0  0  0  0  0  0  0
    1.0769    2.2347    0.3375 C   0  0  0  0  0  0  0  0  0  0  0  0
    2.3199    1.6054    0.0792 C   0  0  0  0  0  0  0  0  0  0  0  0
    3.3743    2.3726   -0.1580 N   0  0  0  0  0  0  0  0  0  0  0  0
    3.2781    3.6991   -0.1557 C   0  0  0  0  0  0  0  0  0  0  0  0
    2.1452    4.3344    0.0784 N   0  0  0  0  0  0  0  0  0  0  0  0
    4.4134    4.4445   -0.4100 N   0  0  0  0  0  0  0  0  0  0  0  0
    2.4294    0.2322    0.0742 N   0  0  0  0  0  0  0  0  0  0  0  0
   -2.5273    1.4568    1.1120 C   0  0  0  0  0  0  0  0  0  0  0  0
   -2.5467    1.0258    2.5121 N   0  0  0  0  0  0  0  0  0  0  0  0
   -3.6416    0.3149    3.0088 C   0  0  0  0  0  0  0  0  0  0  0  0
   -3.6615   -0.0946    4.3364 C   0  0  0  0  0  0  0  0  0  0  0  0
   -4.7454   -0.7968    4.8251 C   0  0  0  0  0  0  0  0  0  0  0  0
   -5.8112   -1.0926    3.9951 C   0  0  0  0  0  0  0  0  0  0  0  0
   -5.7952   -0.6865    2.6722 C   0  0  0  0  0  0  0  0  0  0  0  0
   -4.7151    0.0210    2.1784 C   0  0  0  0  0  0  0  0  0  0  0  0
   -7.1356   -1.0596    1.6341 Cl  0  0  0  0  0  0  0  0  0  0  0  0
    0.2751   -0.3519    1.5884 H   0  0  0  0  0  0  0  0  0  0  0  0
   -1.0758   -0.3804    0.4297 H   0  0  0  0  0  0  0  0  0  0  0  0
    0.6032   -0.3675   -0.1610 H   0  0  0  0  0  0  0  0  0  0  0  0
   -2.1533    4.1226    1.0043 H   0  0  0  0  0  0  0  0  0  0  0  0
    5.2570    3.9988   -0.5850 H   0  0  0  0  0  0  0  0  0  0  0  0
    4.3668    5.4133   -0.4134 H   0  0  0  0  0  0  0  0  0  0  0  0
    2.9687   -0.2089   -0.6007 H   0  0  0  0  0  0  0  0  0  0  0  0
    1.9673   -0.2936    0.7456 H   0  0  0  0  0  0  0  0  0  0  0  0
   -3.3760    2.1140    0.9224 H   0  0  0  0  0  0  0  0  0  0  0  0
   -2.5914    0.5840    0.4622 H   0  0  0  0  0  0  0  0  0  0  0  0
   -1.7992    1.2340    3.0941 H   0  0  0  0  0  0  0  0  0  0  0  0
   -2.8300    0.1365    4.9857 H   0  0  0  0  0  0  0  0  0  0  0  0
   -4.7609   -1.1152    5.8570 H   0  0  0  0  0  0  0  0  0  0  0  0
   -6.6579   -1.6414    4.3801 H   0  0  0  0  0  0  0  0  0  0  0  0
   -4.7047    0.3418    1.1471 H   0  0  0  0  0  0  0  0  0  0  0  0
  1  2  1  0  0  0  0
  1 23  1  0  0  0  0
  1 24  1  0  0  0  0
  1 25  1  0  0  0  0
  2  7  2  0  0  0  0
  2  3  1  0  0  0  0
  3  4  2  0  0  0  0
  3 14  1  0  0  0  0
  4  5  1  0  0  0  0
  4 26  1  0  0  0  0
  5  6  2  0  0  0  0
  6 11  1  0  0  0  0
  6  7  1  0  0  0  0
  7  8  1  0  0  0  0
  8  9  2  0  0  0  0
  8 13  1  0  0  0  0
  9 10  1  0  0  0  0
 10 11  2  0  0  0  0
 10 12  1  0  0  0  0
 12 27  1  0  0  0  0
 12 28  1  0  0  0  0
 13 29  1  0  0  0  0
 13 30  1  0  0  0  0
 14 15  1  0  0  0  0
 14 31  1  0  0  0  0
 14 32  1  0  0  0  0
 15 16  1  0  0  0  0
 15 33  1  0  0  0  0
 16 21  2  0  0  0  0
 16 17  1  0  0  0  0
 17 18  2  0  0  0  0
 17 34  1  0  0  0  0
 18 19  1  0  0  0  0
 18 35  1  0  0  0  0
 19 20  2  0  0  0  0
 19 36  1  0  0  0  0
 20 21  1  0  0  0  0
 20 22  1  0  0  0  0
 21 37  1  0  0  0  0
M  END
$$$$
ZINC03814972
  -OEChem-08230709403D

 38 40  0     0  0  0  0  0  0999 V2000
   -0.0700   -0.0033    0.6150 C   0  0  0  0  0  0  0  0  0  0  0  0
   -0.0875    1.5035    0.5983 C   0  0  0  0  0  0  0  0  0  0  0  0
   -1.2454    2.1982    0.8324 C   0  0  0  0  0  0  0  0  0  0  0  0
   -1.2346    3.5874    0.8144 C   0  0  0  0  0  0  0  0  0  0  0  0
   -0.1370    4.2679    0.5695 N   0  0  0  0  0  0  0  0  0  0  0  0
    1.0200    3.6503    0.3300 C   0  0  0  0  0  0  0  0  0  0  0  0
    1.0769    2.2347    0.3375 C   0  0  0  0  0  0  0  0  0  0  0  0
    2.3199    1.6054    0.0792 C   0  0  0  0  0  0  0  0  0  0  0  0
    3.3743    2.3726   -0.1580 N   0  0  0  0  0  0  0  0  0  0  0  0
    3.2781    3.6991   -0.1557 C   0  0  0  0  0  0  0  0  0  0  0  0
    4.4134    4.4445   -0.4100 N   0  0  0  0  0  0  0  0  0  0  0  0
    2.4294    0.2322    0.0742 N   0  0  0  0  0  0  0  0  0  0  0  0
   -2.5273    1.4568    1.1120 C   0  0  0  0  0  0  0  0  0  0  0  0
   -2.5467    1.0258    2.5121 N   0  0  0  0  0  0  0  0  0  0  0  0
   -3.6416    0.3149    3.0088 C   0  0  0  0  0  0  0  0  0  0  0  0
   -3.6615   -0.0946    4.3364 C   0  0  0  0  0  0  0  0  0  0  0  0
   -4.7454   -0.7968    4.8251 C   0  0  0  0  0  0  0  0  0  0  0  0
   -5.8112   -1.0926    3.9951 C   0  0  0  0  0  0  0  0  0  0  0  0
   -5.7952   -0.6865    2.6722 C   0  0  0  0  0  0  0  0  0  0  0  0
   -4.7151    0.0210    2.1784 C   0  0  0  0  0  0  0  0  0  0  0  0
   -7.1356   -1.0596    1.6341 Cl  0  0  0  0  0  0  0  0  0  0  0  0
    0.2751   -0.3519    1.5884 H   0  0  0  0  0  0  0  0  0  0  0  0
   -1.0758   -0.3804    0.4297 H   0  0  0  0  0  0  0  0  0  0  0  0
    0.6032   -0.3675   -0.1610 H   0  0  0  0  0  0  0  0  0  0  0  0
   -2.1533    4.1226    1.0043 H   0  0  0  0  0  0  0  0  0  0  0  0
    5.2570    3.9988   -0.5850 H   0  0  0  0  0  0  0  0  0  0  0  0
    4.3668    5.4133   -0.4134 H   0  0  0  0  0  0  0  0  0  0  0  0
    2.9687   -0.2089   -0.6007 H   0  0  0  0  0  0  0  0  0  0  0  0
    1.9673   -0.2936    0.7456 H   0  0  0  0  0  0  0  0  0  0  0  0
   -3.3760    2.1140    0.9224 H   0  0  0  0  0  0  0  0  0  0  0  0
   -2.5914    0.5840    0.4622 H   0  0  0  0  0  0  0  0  0  0  0  0
   -1.7992    1.2340    3.0941 H   0  0  0  0  0  0  0  0  0  0  0  0
   -2.8300    0.1365    4.9857 H   0  0  0  0  0  0  0  0  0  0  0  0
   -4.7609   -1.1152    5.8570 H   0  0  0  0  0  0  0  0  0  0  0  0
   -6.6579   -1.6414    4.3801 H   0  0  0  0  0  0  0  0  0  0  0  0
   -4.7047    0.3418    1.1471 H   0  0  0  0  0  0  0  0  0  0  0  0
    2.1441    4.4066    0.0776 N   0  3  0  0  0  0  0  0  0  0  0  0
    2.1655    5.4062    0.0585 H   0  0  0  0  0  0  0  0  0  0  0  0
  1  2  1  0  0  0  0
  1 22  1  0  0  0  0
  1 23  1  0  0  0  0
  1 24  1  0  0  0  0
  2  7  2  0  0  0  0
  2  3  1  0  0  0  0
  3  4  2  0  0  0  0
  3 13  1  0  0  0  0
  4  5  1  0  0  0  0
  4 25  1  0  0  0  0
  5  6  2  0  0  0  0
  6  7  1  0  0  0  0
  6 37  1  0  0  0  0
  7  8  1  0  0  0  0
  8  9  2  0  0  0  0
  8 12  1  0  0  0  0
  9 10  1  0  0  0  0
 10 11  1  0  0  0  0
 10 37  2  0  0  0  0
 11 26  1  0  0  0  0
 11 27  1  0  0  0  0
 12 28  1  0  0  0  0
 12 29  1  0  0  0  0
 13 14  1  0  0  0  0
 13 30  1  0  0  0  0
 13 31  1  0  0  0  0
 14 15  1  0  0  0  0
 14 32  1  0  0  0  0
 15 20  2  0  0  0  0
 15 16  1  0  0  0  0
 16 17  2  0  0  0  0
 16 33  1  0  0  0  0
 17 18  1  0  0  0  0
 17 34  1  0  0  0  0
 18 19  2  0  0  0  0
 18 35  1  0  0  0  0
 19 20  1  0  0  0  0
 19 21  1  0  0  0  0
 20 36  1  0  0  0  0
 37 38  1  0  0  0  0
M  CHG  1  37   1
M  END
$$$$
ZINC03814973
  -OEChem-08230709403D

 37 39  0     0  0  0  0  0  0999 V2000
    1.1353    3.6264   -1.6998 C   0  0  0  0  0  0  0  0  0  0  0  0
    0.1690    2.6999   -2.3919 C   0  0  0  0  0  0  0  0  0  0  0  0
    0.1355    1.3631   -2.0919 C   0  0  0  0  0  0  0  0  0  0  0  0
   -0.7605    0.5288   -2.7486 C   0  0  0  0  0  0  0  0  0  0  0  0
   -1.5971    0.9867   -3.6532 N   0  0  0  0  0  0  0  0  0  0  0  0
   -1.6135    2.2767   -3.9891 C   0  0  0  0  0  0  0  0  0  0  0  0
   -0.7204    3.1792   -3.3604 C   0  0  0  0  0  0  0  0  0  0  0  0
   -0.7604    4.5445   -3.7370 C   0  0  0  0  0  0  0  0  0  0  0  0
   -1.6339    4.9148   -4.6626 N   0  0  0  0  0  0  0  0  0  0  0  0
   -2.4553    4.0352   -5.2286 C   0  0  0  0  0  0  0  0  0  0  0  0
   -2.4588    2.7534   -4.9141 N   0  0  0  0  0  0  0  0  0  0  0  0
   -3.3435    4.4827   -6.1879 N   0  0  0  0  0  0  0  0  0  0  0  0
    0.0866    5.4630   -3.1569 N   0  0  0  0  0  0  0  0  0  0  0  0
    1.0731    0.7981   -1.0561 C   0  0  0  0  0  0  0  0  0  0  0  0
    0.5453    1.0738    0.2824 N   0  0  0  0  0  0  0  0  0  0  0  0
    1.2463    0.6435    1.4122 C   0  0  0  0  0  0  0  0  0  0  0  0
    2.4407   -0.0505    1.2673 C   0  0  0  0  0  0  0  0  0  0  0  0
    3.1345   -0.4692    2.3857 C   0  0  0  0  0  0  0  0  0  0  0  0
    2.6346   -0.2085    3.6495 C   0  0  0  0  0  0  0  0  0  0  0  0
    1.4420    0.4778    3.7966 C   0  0  0  0  0  0  0  0  0  0  0  0
    0.7471    0.9041    2.6818 C   0  0  0  0  0  0  0  0  0  0  0  0
    3.5055   -0.7430    5.0529 Cl  0  0  0  0  0  0  0  0  0  0  0  0
    2.0147    3.7693   -2.3278 H   0  0  0  0  0  0  0  0  0  0  0  0
    0.6539    4.5884   -1.5244 H   0  0  0  0  0  0  0  0  0  0  0  0
    1.4362    3.1915   -0.7467 H   0  0  0  0  0  0  0  0  0  0  0  0
   -0.7731   -0.5236   -2.5061 H   0  0  0  0  0  0  0  0  0  0  0  0
   -3.3585    5.4205   -6.4351 H   0  0  0  0  0  0  0  0  0  0  0  0
   -3.9520    3.8590   -6.6140 H   0  0  0  0  0  0  0  0  0  0  0  0
    1.0137    5.2307   -2.9911 H   0  0  0  0  0  0  0  0  0  0  0  0
   -0.2440    6.3420   -2.9141 H   0  0  0  0  0  0  0  0  0  0  0  0
    1.1631   -0.2790   -1.1965 H   0  0  0  0  0  0  0  0  0  0  0  0
    2.0539    1.2616   -1.1625 H   0  0  0  0  0  0  0  0  0  0  0  0
   -0.2907    1.5549    0.3845 H   0  0  0  0  0  0  0  0  0  0  0  0
    2.8287   -0.2588    0.2812 H   0  0  0  0  0  0  0  0  0  0  0  0
    4.0659   -1.0043    2.2738 H   0  0  0  0  0  0  0  0  0  0  0  0
    1.0545    0.6805    4.7841 H   0  0  0  0  0  0  0  0  0  0  0  0
   -0.1835    1.4400    2.7973 H   0  0  0  0  0  0  0  0  0  0  0  0
  1  2  1  0  0  0  0
  1 23  1  0  0  0  0
  1 24  1  0  0  0  0
  1 25  1  0  0  0  0
  2  7  2  0  0  0  0
  2  3  1  0  0  0  0
  3  4  2  0  0  0  0
  3 14  1  0  0  0  0
  4  5  1  0  0  0  0
  4 26  1  0  0  0  0
  5  6  2  0  0  0  0
  6 11  1  0  0  0  0
  6  7  1  0  0  0  0
  7  8  1  0  0  0  0
  8  9  2  0  0  0  0
  8 13  1  0  0  0  0
  9 10  1  0  0  0  0
 10 11  2  0  0  0  0
 10 12  1  0  0  0  0
 12 27  1  0  0  0  0
 12 28  1  0  0  0  0
 13 29  1  0  0  0  0
 13 30  1  0  0  0  0
 14 15  1  0  0  0  0
 14 31  1  0  0  0  0
 14 32  1  0  0  0  0
 15 16  1  0  0  0  0
 15 33  1  0  0  0  0
 16 21  2  0  0  0  0
 16 17  1  0  0  0  0
 17 18  2  0  0  0  0
 17 34  1  0  0  0  0
 18 19  1  0  0  0  0
 18 35  1  0  0  0  0
 19 20  2  0  0  0  0
 19 22  1  0  0  0  0
 20 21  1  0  0  0  0
 20 36  1  0  0  0  0
 21 37  1  0  0  0  0
M  END
$$$$
ZINC03814973
  -OEChem-08230709403D

 38 40  0     0  0  0  0  0  0999 V2000
    1.1353    3.6264   -1.6998 C   0  0  0  0  0  0  0  0  0  0  0  0
    0.1690    2.6999   -2.3919 C   0  0  0  0  0  0  0  0  0  0  0  0
    0.1355    1.3631   -2.0919 C   0  0  0  0  0  0  0  0  0  0  0  0
   -0.7605    0.5288   -2.7486 C   0  0  0  0  0  0  0  0  0  0  0  0
   -1.5971    0.9867   -3.6532 N   0  0  0  0  0  0  0  0  0  0  0  0
   -1.6135    2.2767   -3.9891 C   0  0  0  0  0  0  0  0  0  0  0  0
   -0.7204    3.1792   -3.3604 C   0  0  0  0  0  0  0  0  0  0  0  0
   -0.7604    4.5445   -3.7370 C   0  0  0  0  0  0  0  0  0  0  0  0
   -1.6339    4.9148   -4.6626 N   0  0  0  0  0  0  0  0  0  0  0  0
   -2.4553    4.0352   -5.2286 C   0  0  0  0  0  0  0  0  0  0  0  0
   -3.3435    4.4827   -6.1879 N   0  0  0  0  0  0  0  0  0  0  0  0
    0.0866    5.4630   -3.1569 N   0  0  0  0  0  0  0  0  0  0  0  0
    1.0731    0.7981   -1.0561 C   0  0  0  0  0  0  0  0  0  0  0  0
    0.5453    1.0738    0.2824 N   0  0  0  0  0  0  0  0  0  0  0  0
    1.2463    0.6435    1.4122 C   0  0  0  0  0  0  0  0  0  0  0  0
    2.4407   -0.0505    1.2673 C   0  0  0  0  0  0  0  0  0  0  0  0
    3.1345   -0.4692    2.3857 C   0  0  0  0  0  0  0  0  0  0  0  0
    2.6346   -0.2085    3.6495 C   0  0  0  0  0  0  0  0  0  0  0  0
    1.4420    0.4778    3.7966 C   0  0  0  0  0  0  0  0  0  0  0  0
    0.7471    0.9041    2.6818 C   0  0  0  0  0  0  0  0  0  0  0  0
    3.5055   -0.7430    5.0529 Cl  0  0  0  0  0  0  0  0  0  0  0  0
    2.0147    3.7693   -2.3278 H   0  0  0  0  0  0  0  0  0  0  0  0
    0.6539    4.5884   -1.5244 H   0  0  0  0  0  0  0  0  0  0  0  0
    1.4362    3.1915   -0.7467 H   0  0  0  0  0  0  0  0  0  0  0  0
   -0.7731   -0.5236   -2.5061 H   0  0  0  0  0  0  0  0  0  0  0  0
   -3.3585    5.4205   -6.4351 H   0  0  0  0  0  0  0  0  0  0  0  0
   -3.9520    3.8590   -6.6140 H   0  0  0  0  0  0  0  0  0  0  0  0
    1.0137    5.2307   -2.9911 H   0  0  0  0  0  0  0  0  0  0  0  0
   -0.2440    6.3420   -2.9141 H   0  0  0  0  0  0  0  0  0  0  0  0
    1.1631   -0.2790   -1.1965 H   0  0  0  0  0  0  0  0  0  0  0  0
    2.0539    1.2616   -1.1625 H   0  0  0  0  0  0  0  0  0  0  0  0
   -0.2907    1.5549    0.3845 H   0  0  0  0  0  0  0  0  0  0  0  0
    2.8287   -0.2588    0.2812 H   0  0  0  0  0  0  0  0  0  0  0  0
    4.0659   -1.0043    2.2738 H   0  0  0  0  0  0  0  0  0  0  0  0
    1.0545    0.6805    4.7841 H   0  0  0  0  0  0  0  0  0  0  0  0
   -0.1835    1.4400    2.7973 H   0  0  0  0  0  0  0  0  0  0  0  0
   -2.5050    2.7088   -4.9471 N   0  3  0  0  0  0  0  0  0  0  0  0
   -3.1578    2.1205   -5.4243 H   0  0  0  0  0  0  0  0  0  0  0  0
  1  2  1  0  0  0  0
  1 22  1  0  0  0  0
  1 23  1  0  0  0  0
  1 24  1  0  0  0  0
  2  7  2  0  0  0  0
  2  3  1  0  0  0  0
  3  4  2  0  0  0  0
  3 13  1  0  0  0  0
  4  5  1  0  0  0  0
  4 25  1  0  0  0  0
  5  6  2  0  0  0  0
  6  7  1  0  0  0  0
  6 37  1  0  0  0  0
  7  8  1  0  0  0  0
  8  9  2  0  0  0  0
  8 12  1  0  0  0  0
  9 10  1  0  0  0  0
 10 11  1  0  0  0  0
 10 37  2  0  0  0  0
 11 26  1  0  0  0  0
 11 27  1  0  0  0  0
 12 28  1  0  0  0  0
 12 29  1  0  0  0  0
 13 14  1  0  0  0  0
 13 30  1  0  0  0  0
 13 31  1  0  0  0  0
 14 15  1  0  0  0  0
 14 32  1  0  0  0  0
 15 20  2  0  0  0  0
 15 16  1  0  0  0  0
 16 17  2  0  0  0  0
 16 33  1  0  0  0  0
 17 18  1  0  0  0  0
 17 34  1  0  0  0  0
 18 19  2  0  0  0  0
 18 21  1  0  0  0  0
 19 20  1  0  0  0  0
 19 35  1  0  0  0  0
 20 36  1  0  0  0  0
 37 38  1  0  0  0  0
M  CHG  1  37   1
M  END
$$$$
ZINC03814974
  -OEChem-08230709403D

 44 46  0     1  0  0  0  0  0999 V2000
    2.6099    0.5225    8.9183 C   0  0  0  0  0  0  0  0  0  0  0  0
    2.7168    1.6440    7.9174 C   0  0  0  0  0  0  0  0  0  0  0  0
    1.9093    1.6812    6.8106 C   0  0  0  0  0  0  0  0  0  0  0  0
    2.0317    2.7228    5.8995 C   0  0  0  0  0  0  0  0  0  0  0  0
    2.9007    3.6940    6.0710 N   0  0  0  0  0  0  0  0  0  0  0  0
    3.7143    3.7147    7.1270 C   0  0  0  0  0  0  0  0  0  0  0  0
    3.6438    2.6781    8.0903 C   0  0  0  0  0  0  0  0  0  0  0  0
    4.5204    2.7263    9.2024 C   0  0  0  0  0  0  0  0  0  0  0  0
    5.3678    3.7416    9.2900 N   0  0  0  0  0  0  0  0  0  0  0  0
    5.4019    4.6949    8.3633 C   0  0  0  0  0  0  0  0  0  0  0  0
    4.6080    4.6974    7.3090 N   0  0  0  0  0  0  0  0  0  0  0  0
    6.3082    5.7275    8.5104 N   0  0  0  0  0  0  0  0  0  0  0  0
    4.4929    1.7433   10.1672 N   0  0  0  0  0  0  0  0  0  0  0  0
    0.8949    0.5910    6.5793 C   0  0  0  0  0  0  0  0  0  0  0  0
    0.2714    0.7748    5.2664 N   0  0  3  0  0  0  0  0  0  0  0  0
   -1.0002    1.4936    5.1534 C   0  0  0  0  0  0  0  0  0  0  0  0
    0.8893    0.2647    4.1224 C   0  0  0  0  0  0  0  0  0  0  0  0
    2.0955   -0.4173    4.2284 C   0  0  0  0  0  0  0  0  0  0  0  0
    2.7060   -0.9220    3.0970 C   0  0  0  0  0  0  0  0  0  0  0  0
    2.1197   -0.7505    1.8571 C   0  0  0  0  0  0  0  0  0  0  0  0
    0.9156   -0.0699    1.7451 C   0  0  0  0  0  0  0  0  0  0  0  0
    0.3023    0.4432    2.8774 C   0  0  0  0  0  0  0  0  0  0  0  0
    0.3406    0.0982    0.5252 O   0  0  0  0  0  0  0  0  0  0  0  0
    1.0310   -0.4516   -0.5987 C   0  0  0  0  0  0  0  0  0  0  0  0
    3.3624   -0.2345    8.6975 H   0  0  0  0  0  0  0  0  0  0  0  0
    2.7728    0.9148    9.9222 H   0  0  0  0  0  0  0  0  0  0  0  0
    1.6172    0.0762    8.8593 H   0  0  0  0  0  0  0  0  0  0  0  0
    1.3925    2.7374    5.0291 H   0  0  0  0  0  0  0  0  0  0  0  0
    6.9019    5.7461    9.2773 H   0  0  0  0  0  0  0  0  0  0  0  0
    6.3508    6.4337    7.8469 H   0  0  0  0  0  0  0  0  0  0  0  0
    4.4357    0.8104    9.9076 H   0  0  0  0  0  0  0  0  0  0  0  0
    4.5308    1.9841   11.1061 H   0  0  0  0  0  0  0  0  0  0  0  0
    0.1298    0.6363    7.3543 H   0  0  0  0  0  0  0  0  0  0  0  0
    1.3901   -0.3794    6.6137 H   0  0  0  0  0  0  0  0  0  0  0  0
   -1.8226    0.7782    5.1474 H   0  0  0  0  0  0  0  0  0  0  0  0
   -1.1123    2.1690    6.0016 H   0  0  0  0  0  0  0  0  0  0  0  0
   -1.0117    2.0682    4.2273 H   0  0  0  0  0  0  0  0  0  0  0  0
    2.5555   -0.5530    5.1960 H   0  0  0  0  0  0  0  0  0  0  0  0
    3.6436   -1.4514    3.1812 H   0  0  0  0  0  0  0  0  0  0  0  0
    2.5996   -1.1463    0.9743 H   0  0  0  0  0  0  0  0  0  0  0  0
   -0.6326    0.9769    2.7915 H   0  0  0  0  0  0  0  0  0  0  0  0
    1.1348   -1.5290   -0.4698 H   0  0  0  0  0  0  0  0  0  0  0  0
    2.0191    0.0020   -0.6756 H   0  0  0  0  0  0  0  0  0  0  0  0
    0.4656   -0.2473   -1.5079 H   0  0  0  0  0  0  0  0  0  0  0  0
  1  2  1  0  0  0  0
  1 25  1  0  0  0  0
  1 26  1  0  0  0  0
  1 27  1  0  0  0  0
  2  7  2  0  0  0  0
  2  3  1  0  0  0  0
  3  4  2  0  0  0  0
  3 14  1  0  0  0  0
  4  5  1  0  0  0  0
  4 28  1  0  0  0  0
  5  6  2  0  0  0  0
  6 11  1  0  0  0  0
  6  7  1  0  0  0  0
  7  8  1  0  0  0  0
  8  9  2  0  0  0  0
  8 13  1  0  0  0  0
  9 10  1  0  0  0  0
 10 11  2  0  0  0  0
 10 12  1  0  0  0  0
 12 29  1  0  0  0  0
 12 30  1  0  0  0  0
 13 31  1  0  0  0  0
 13 32  1  0  0  0  0
 14 15  1  0  0  0  0
 14 33  1  0  0  0  0
 14 34  1  0  0  0  0
 15 16  1  0  0  0  0
 15 17  1  0  0  0  0
 16 35  1  0  0  0  0
 16 36  1  0  0  0  0
 16 37  1  0  0  0  0
 17 22  2  0  0  0  0
 17 18  1  0  0  0  0
 18 19  2  0  0  0  0
 18 38  1  0  0  0  0
 19 20  1  0  0  0  0
 19 39  1  0  0  0  0
 20 21  2  0  0  0  0
 20 40  1  0  0  0  0
 21 22  1  0  0  0  0
 21 23  1  0  0  0  0
 22 41  1  0  0  0  0
 23 24  1  0  0  0  0
 24 42  1  0  0  0  0
 24 43  1  0  0  0  0
 24 44  1  0  0  0  0
M  END
$$$$
ZINC03814974
  -OEChem-08230709403D

 45 47  0     1  0  0  0  0  0999 V2000
    2.6099    0.5225    8.9183 C   0  0  0  0  0  0  0  0  0  0  0  0
    2.7168    1.6440    7.9174 C   0  0  0  0  0  0  0  0  0  0  0  0
    1.9093    1.6812    6.8106 C   0  0  0  0  0  0  0  0  0  0  0  0
    2.0317    2.7228    5.8995 C   0  0  0  0  0  0  0  0  0  0  0  0
    2.9007    3.6940    6.0710 N   0  0  0  0  0  0  0  0  0  0  0  0
    3.7143    3.7147    7.1270 C   0  0  0  0  0  0  0  0  0  0  0  0
    3.6438    2.6781    8.0903 C   0  0  0  0  0  0  0  0  0  0  0  0
    4.5204    2.7263    9.2024 C   0  0  0  0  0  0  0  0  0  0  0  0
    5.3678    3.7416    9.2900 N   0  0  0  0  0  0  0  0  0  0  0  0
    5.4019    4.6949    8.3633 C   0  0  0  0  0  0  0  0  0  0  0  0
    6.3082    5.7275    8.5104 N   0  0  0  0  0  0  0  0  0  0  0  0
    4.4929    1.7433   10.1672 N   0  0  0  0  0  0  0  0  0  0  0  0
    0.8949    0.5910    6.5793 C   0  0  0  0  0  0  0  0  0  0  0  0
    0.2714    0.7748    5.2664 N   0  0  3  0  0  0  0  0  0  0  0  0
   -1.0002    1.4936    5.1534 C   0  0  0  0  0  0  0  0  0  0  0  0
    0.8893    0.2647    4.1224 C   0  0  0  0  0  0  0  0  0  0  0  0
    2.0955   -0.4173    4.2284 C   0  0  0  0  0  0  0  0  0  0  0  0
    2.7060   -0.9220    3.0970 C   0  0  0  0  0  0  0  0  0  0  0  0
    2.1197   -0.7505    1.8571 C   0  0  0  0  0  0  0  0  0  0  0  0
    0.9156   -0.0699    1.7451 C   0  0  0  0  0  0  0  0  0  0  0  0
    0.3023    0.4432    2.8774 C   0  0  0  0  0  0  0  0  0  0  0  0
    0.3406    0.0982    0.5252 O   0  0  0  0  0  0  0  0  0  0  0  0
    1.0310   -0.4516   -0.5987 C   0  0  0  0  0  0  0  0  0  0  0  0
    3.3624   -0.2345    8.6975 H   0  0  0  0  0  0  0  0  0  0  0  0
    2.7728    0.9148    9.9222 H   0  0  0  0  0  0  0  0  0  0  0  0
    1.6172    0.0762    8.8593 H   0  0  0  0  0  0  0  0  0  0  0  0
    1.3925    2.7374    5.0291 H   0  0  0  0  0  0  0  0  0  0  0  0
    6.9019    5.7461    9.2773 H   0  0  0  0  0  0  0  0  0  0  0  0
    6.3508    6.4337    7.8469 H   0  0  0  0  0  0  0  0  0  0  0  0
    4.4357    0.8104    9.9076 H   0  0  0  0  0  0  0  0  0  0  0  0
    4.5308    1.9841   11.1061 H   0  0  0  0  0  0  0  0  0  0  0  0
    0.1298    0.6363    7.3543 H   0  0  0  0  0  0  0  0  0  0  0  0
    1.3901   -0.3794    6.6137 H   0  0  0  0  0  0  0  0  0  0  0  0
   -1.8226    0.7782    5.1474 H   0  0  0  0  0  0  0  0  0  0  0  0
   -1.1123    2.1690    6.0016 H   0  0  0  0  0  0  0  0  0  0  0  0
   -1.0117    2.0682    4.2273 H   0  0  0  0  0  0  0  0  0  0  0  0
    2.5555   -0.5530    5.1960 H   0  0  0  0  0  0  0  0  0  0  0  0
    3.6436   -1.4514    3.1812 H   0  0  0  0  0  0  0  0  0  0  0  0
    2.5996   -1.1463    0.9743 H   0  0  0  0  0  0  0  0  0  0  0  0
   -0.6326    0.9769    2.7915 H   0  0  0  0  0  0  0  0  0  0  0  0
    1.1348   -1.5290   -0.4698 H   0  0  0  0  0  0  0  0  0  0  0  0
    2.0191    0.0020   -0.6756 H   0  0  0  0  0  0  0  0  0  0  0  0
    0.4656   -0.2473   -1.5079 H   0  0  0  0  0  0  0  0  0  0  0  0
    4.6129    4.7510    7.2609 N   0  3  0  0  0  0  0  0  0  0  0  0
    4.7089    5.5087    6.6154 H   0  0  0  0  0  0  0  0  0  0  0  0
  1  2  1  0  0  0  0
  1 24  1  0  0  0  0
  1 25  1  0  0  0  0
  1 26  1  0  0  0  0
  2  7  2  0  0  0  0
  2  3  1  0  0  0  0
  3  4  2  0  0  0  0
  3 13  1  0  0  0  0
  4  5  1  0  0  0  0
  4 27  1  0  0  0  0
  5  6  2  0  0  0  0
  6  7  1  0  0  0  0
  6 44  1  0  0  0  0
  7  8  1  0  0  0  0
  8  9  2  0  0  0  0
  8 12  1  0  0  0  0
  9 10  1  0  0  0  0
 10 11  1  0  0  0  0
 10 44  2  0  0  0  0
 11 28  1  0  0  0  0
 11 29  1  0  0  0  0
 12 30  1  0  0  0  0
 12 31  1  0  0  0  0
 13 14  1  0  0  0  0
 13 32  1  0  0  0  0
 13 33  1  0  0  0  0
 14 15  1  0  0  0  0
 14 16  1  0  0  0  0
 15 34  1  0  0  0  0
 15 35  1  0  0  0  0
 15 36  1  0  0  0  0
 16 21  2  0  0  0  0
 16 17  1  0  0  0  0
 17 18  2  0  0  0  0
 17 37  1  0  0  0  0
 18 19  1  0  0  0  0
 18 38  1  0  0  0  0
 19 20  2  0  0  0  0
 19 39  1  0  0  0  0
 20 21  1  0  0  0  0
 20 22  1  0  0  0  0
 21 40  1  0  0  0  0
 22 23  1  0  0  0  0
 23 41  1  0  0  0  0
 23 42  1  0  0  0  0
 23 43  1  0  0  0  0
 44 45  1  0  0  0  0
M  CHG  1  44   1
M  END
$$$$
ZINC03814975
  -OEChem-08230709403D

 44 46  0     1  0  0  0  0  0999 V2000
   -0.0832   -0.0034    0.6168 C   0  0  0  0  0  0  0  0  0  0  0  0
   -0.1002    1.5034    0.6000 C   0  0  0  0  0  0  0  0  0  0  0  0
   -1.2579    2.1985    0.8340 C   0  0  0  0  0  0  0  0  0  0  0  0
   -1.2465    3.5877    0.8159 C   0  0  0  0  0  0  0  0  0  0  0  0
   -0.1486    4.2678    0.5711 N   0  0  0  0  0  0  0  0  0  0  0  0
    1.0082    3.6498    0.3318 C   0  0  0  0  0  0  0  0  0  0  0  0
    1.0646    2.2341    0.3393 C   0  0  0  0  0  0  0  0  0  0  0  0
    2.3073    1.6044    0.0812 C   0  0  0  0  0  0  0  0  0  0  0  0
    3.3621    2.3712   -0.1559 N   0  0  0  0  0  0  0  0  0  0  0  0
    3.2663    3.6977   -0.1537 C   0  0  0  0  0  0  0  0  0  0  0  0
    2.1337    4.3335    0.0802 N   0  0  0  0  0  0  0  0  0  0  0  0
    4.4020    4.4427   -0.4078 N   0  0  0  0  0  0  0  0  0  0  0  0
    2.4164    0.2312    0.0763 N   0  0  0  0  0  0  0  0  0  0  0  0
   -2.5400    1.4576    1.1135 C   0  0  0  0  0  0  0  0  0  0  0  0
   -2.5597    1.0266    2.5135 N   0  0  3  0  0  0  0  0  0  0  0  0
   -2.0107   -0.2797    2.8856 C   0  0  0  0  0  0  0  0  0  0  0  0
   -3.1030    1.8627    3.4954 C   0  0  0  0  0  0  0  0  0  0  0  0
   -3.6184    3.1033    3.1439 C   0  0  0  0  0  0  0  0  0  0  0  0
   -4.1596    3.9254    4.1128 C   0  0  0  0  0  0  0  0  0  0  0  0
   -4.1776    3.5172    5.4382 C   0  0  0  0  0  0  0  0  0  0  0  0
   -3.6583    2.2804    5.7909 C   0  0  0  0  0  0  0  0  0  0  0  0
   -3.1219    1.4546    4.8225 C   0  0  0  0  0  0  0  0  0  0  0  0
   -4.7053    4.3299    6.3925 O   0  0  0  0  0  0  0  0  0  0  0  0
   -5.2224    5.5894    5.9585 C   0  0  0  0  0  0  0  0  0  0  0  0
    0.2620   -0.3521    1.5902 H   0  0  0  0  0  0  0  0  0  0  0  0
   -1.0891   -0.3802    0.4317 H   0  0  0  0  0  0  0  0  0  0  0  0
    0.5898   -0.3679   -0.1593 H   0  0  0  0  0  0  0  0  0  0  0  0
   -2.1650    4.1232    1.0056 H   0  0  0  0  0  0  0  0  0  0  0  0
    5.2454    3.9968   -0.5827 H   0  0  0  0  0  0  0  0  0  0  0  0
    4.3557    5.4116   -0.4113 H   0  0  0  0  0  0  0  0  0  0  0  0
    2.9557   -0.2101   -0.5984 H   0  0  0  0  0  0  0  0  0  0  0  0
    1.9539   -0.2945    0.7476 H   0  0  0  0  0  0  0  0  0  0  0  0
   -3.3884    2.1151    0.9237 H   0  0  0  0  0  0  0  0  0  0  0  0
   -2.6043    0.5848    0.4637 H   0  0  0  0  0  0  0  0  0  0  0  0
   -0.9521   -0.1746    3.1230 H   0  0  0  0  0  0  0  0  0  0  0  0
   -2.5422   -0.6623    3.7570 H   0  0  0  0  0  0  0  0  0  0  0  0
   -2.1294   -0.9740    2.0538 H   0  0  0  0  0  0  0  0  0  0  0  0
   -3.5997    3.4235    2.1126 H   0  0  0  0  0  0  0  0  0  0  0  0
   -4.5645    4.8885    3.8390 H   0  0  0  0  0  0  0  0  0  0  0  0
   -3.6731    1.9631    6.8232 H   0  0  0  0  0  0  0  0  0  0  0  0
   -2.7176    0.4916    5.0973 H   0  0  0  0  0  0  0  0  0  0  0  0
   -4.4258    6.1671    5.4896 H   0  0  0  0  0  0  0  0  0  0  0  0
   -6.0239    5.4245    5.2385 H   0  0  0  0  0  0  0  0  0  0  0  0
   -5.6118    6.1374    6.8165 H   0  0  0  0  0  0  0  0  0  0  0  0
  1  2  1  0  0  0  0
  1 25  1  0  0  0  0
  1 26  1  0  0  0  0
  1 27  1  0  0  0  0
  2  7  2  0  0  0  0
  2  3  1  0  0  0  0
  3  4  2  0  0  0  0
  3 14  1  0  0  0  0
  4  5  1  0  0  0  0
  4 28  1  0  0  0  0
  5  6  2  0  0  0  0
  6 11  1  0  0  0  0
  6  7  1  0  0  0  0
  7  8  1  0  0  0  0
  8  9  2  0  0  0  0
  8 13  1  0  0  0  0
  9 10  1  0  0  0  0
 10 11  2  0  0  0  0
 10 12  1  0  0  0  0
 12 29  1  0  0  0  0
 12 30  1  0  0  0  0
 13 31  1  0  0  0  0
 13 32  1  0  0  0  0
 14 15  1  0  0  0  0
 14 33  1  0  0  0  0
 14 34  1  0  0  0  0
 15 16  1  0  0  0  0
 15 17  1  0  0  0  0
 16 35  1  0  0  0  0
 16 36  1  0  0  0  0
 16 37  1  0  0  0  0
 17 22  2  0  0  0  0
 17 18  1  0  0  0  0
 18 19  2  0  0  0  0
 18 38  1  0  0  0  0
 19 20  1  0  0  0  0
 19 39  1  0  0  0  0
 20 21  2  0  0  0  0
 20 23  1  0  0  0  0
 21 22  1  0  0  0  0
 21 40  1  0  0  0  0
 22 41  1  0  0  0  0
 23 24  1  0  0  0  0
 24 42  1  0  0  0  0
 24 43  1  0  0  0  0
 24 44  1  0  0  0  0
M  END
$$$$
ZINC03814975
  -OEChem-08230709403D

 45 47  0     1  0  0  0  0  0999 V2000
   -0.0832   -0.0034    0.6168 C   0  0  0  0  0  0  0  0  0  0  0  0
   -0.1002    1.5034    0.6000 C   0  0  0  0  0  0  0  0  0  0  0  0
   -1.2579    2.1985    0.8340 C   0  0  0  0  0  0  0  0  0  0  0  0
   -1.2465    3.5877    0.8159 C   0  0  0  0  0  0  0  0  0  0  0  0
   -0.1486    4.2678    0.5711 N   0  0  0  0  0  0  0  0  0  0  0  0
    1.0082    3.6498    0.3318 C   0  0  0  0  0  0  0  0  0  0  0  0
    1.0646    2.2341    0.3393 C   0  0  0  0  0  0  0  0  0  0  0  0
    2.3073    1.6044    0.0812 C   0  0  0  0  0  0  0  0  0  0  0  0
    3.3621    2.3712   -0.1559 N   0  0  0  0  0  0  0  0  0  0  0  0
    3.2663    3.6977   -0.1537 C   0  0  0  0  0  0  0  0  0  0  0  0
    4.4020    4.4427   -0.4078 N   0  0  0  0  0  0  0  0  0  0  0  0
    2.4164    0.2312    0.0763 N   0  0  0  0  0  0  0  0  0  0  0  0
   -2.5400    1.4576    1.1135 C   0  0  0  0  0  0  0  0  0  0  0  0
   -2.5597    1.0266    2.5135 N   0  0  3  0  0  0  0  0  0  0  0  0
   -2.0107   -0.2797    2.8856 C   0  0  0  0  0  0  0  0  0  0  0  0
   -3.1030    1.8627    3.4954 C   0  0  0  0  0  0  0  0  0  0  0  0
   -3.6184    3.1033    3.1439 C   0  0  0  0  0  0  0  0  0  0  0  0
   -4.1596    3.9254    4.1128 C   0  0  0  0  0  0  0  0  0  0  0  0
   -4.1776    3.5172    5.4382 C   0  0  0  0  0  0  0  0  0  0  0  0
   -3.6583    2.2804    5.7909 C   0  0  0  0  0  0  0  0  0  0  0  0
   -3.1219    1.4546    4.8225 C   0  0  0  0  0  0  0  0  0  0  0  0
   -4.7053    4.3299    6.3925 O   0  0  0  0  0  0  0  0  0  0  0  0
   -5.2224    5.5894    5.9585 C   0  0  0  0  0  0  0  0  0  0  0  0
    0.2620   -0.3521    1.5902 H   0  0  0  0  0  0  0  0  0  0  0  0
   -1.0891   -0.3802    0.4317 H   0  0  0  0  0  0  0  0  0  0  0  0
    0.5898   -0.3679   -0.1593 H   0  0  0  0  0  0  0  0  0  0  0  0
   -2.1650    4.1232    1.0056 H   0  0  0  0  0  0  0  0  0  0  0  0
    5.2454    3.9968   -0.5827 H   0  0  0  0  0  0  0  0  0  0  0  0
    4.3557    5.4116   -0.4113 H   0  0  0  0  0  0  0  0  0  0  0  0
    2.9557   -0.2101   -0.5984 H   0  0  0  0  0  0  0  0  0  0  0  0
    1.9539   -0.2945    0.7476 H   0  0  0  0  0  0  0  0  0  0  0  0
   -3.3884    2.1151    0.9237 H   0  0  0  0  0  0  0  0  0  0  0  0
   -2.6043    0.5848    0.4637 H   0  0  0  0  0  0  0  0  0  0  0  0
   -0.9521   -0.1746    3.1230 H   0  0  0  0  0  0  0  0  0  0  0  0
   -2.5422   -0.6623    3.7570 H   0  0  0  0  0  0  0  0  0  0  0  0
   -2.1294   -0.9740    2.0538 H   0  0  0  0  0  0  0  0  0  0  0  0
   -3.5997    3.4235    2.1126 H   0  0  0  0  0  0  0  0  0  0  0  0
   -4.5645    4.8885    3.8390 H   0  0  0  0  0  0  0  0  0  0  0  0
   -3.6731    1.9631    6.8232 H   0  0  0  0  0  0  0  0  0  0  0  0
   -2.7176    0.4916    5.0973 H   0  0  0  0  0  0  0  0  0  0  0  0
   -4.4258    6.1671    5.4896 H   0  0  0  0  0  0  0  0  0  0  0  0
   -6.0239    5.4245    5.2385 H   0  0  0  0  0  0  0  0  0  0  0  0
   -5.6118    6.1374    6.8165 H   0  0  0  0  0  0  0  0  0  0  0  0
    2.1326    4.4056    0.0794 N   0  3  0  0  0  0  0  0  0  0  0  0
    2.1545    5.4052    0.0601 H   0  0  0  0  0  0  0  0  0  0  0  0
  1  2  1  0  0  0  0
  1 24  1  0  0  0  0
  1 25  1  0  0  0  0
  1 26  1  0  0  0  0
  2  7  2  0  0  0  0
  2  3  1  0  0  0  0
  3  4  2  0  0  0  0
  3 13  1  0  0  0  0
  4  5  1  0  0  0  0
  4 27  1  0  0  0  0
  5  6  2  0  0  0  0
  6  7  1  0  0  0  0
  6 44  1  0  0  0  0
  7  8  1  0  0  0  0
  8  9  2  0  0  0  0
  8 12  1  0  0  0  0
  9 10  1  0  0  0  0
 10 11  1  0  0  0  0
 10 44  2  0  0  0  0
 11 28  1  0  0  0  0
 11 29  1  0  0  0  0
 12 30  1  0  0  0  0
 12 31  1  0  0  0  0
 13 14  1  0  0  0  0
 13 32  1  0  0  0  0
 13 33  1  0  0  0  0
 14 15  1  0  0  0  0
 14 16  1  0  0  0  0
 15 34  1  0  0  0  0
 15 35  1  0  0  0  0
 15 36  1  0  0  0  0
 16 21  2  0  0  0  0
 16 17  1  0  0  0  0
 17 18  2  0  0  0  0
 17 37  1  0  0  0  0
 18 19  1  0  0  0  0
 18 38  1  0  0  0  0
 19 20  2  0  0  0  0
 19 22  1  0  0  0  0
 20 21  1  0  0  0  0
 20 39  1  0  0  0  0
 21 40  1  0  0  0  0
 22 23  1  0  0  0  0
 23 41  1  0  0  0  0
 23 42  1  0  0  0  0
 23 43  1  0  0  0  0
 44 45  1  0  0  0  0
M  CHG  1  44   1
M  END
$$$$
ZINC03814976
  -OEChem-08230709403D

 40 42  0     1  0  0  0  0  0999 V2000
    0.6019    1.5059    0.0250 C   0  0  0  0  0  0  0  0  0  0  0  0
    0.5971   -0.0011    0.0161 C   0  0  0  0  0  0  0  0  0  0  0  0
    0.7586   -0.7002   -1.1515 C   0  0  0  0  0  0  0  0  0  0  0  0
    0.7533   -2.0894   -1.1326 C   0  0  0  0  0  0  0  0  0  0  0  0
    0.5889   -2.7658   -0.0176 N   0  0  0  0  0  0  0  0  0  0  0  0
    0.4225   -2.1439    1.1498 C   0  0  0  0  0  0  0  0  0  0  0  0
    0.4216   -0.7279    1.1991 C   0  0  0  0  0  0  0  0  0  0  0  0
    0.2422   -0.0940    2.4535 C   0  0  0  0  0  0  0  0  0  0  0  0
    0.0832   -0.8573    3.5253 N   0  0  0  0  0  0  0  0  0  0  0  0
    0.0904   -2.1842    3.4357 C   0  0  0  0  0  0  0  0  0  0  0  0
    0.2531   -2.8238    2.2928 N   0  0  0  0  0  0  0  0  0  0  0  0
   -0.0803   -2.9254    4.5893 N   0  0  0  0  0  0  0  0  0  0  0  0
    0.2328    1.2797    2.5563 N   0  0  0  0  0  0  0  0  0  0  0  0
    0.9449    0.0365   -2.4529 C   0  0  0  0  0  0  0  0  0  0  0  0
    2.3404    0.4802   -2.5691 N   0  0  1  0  0  0  0  0  0  0  0  0
    3.2499   -0.6677   -2.6840 C   0  0  0  0  0  0  0  0  0  0  0  0
    2.4997    1.3552   -3.6471 C   0  0  0  0  0  0  0  0  0  0  0  0
    2.2037    0.9323   -4.9364 C   0  0  0  0  0  0  0  0  0  0  0  0
    2.3571    1.8012   -5.9991 C   0  0  0  0  0  0  0  0  0  0  0  0
    2.8153    3.0878   -5.7822 C   0  0  0  0  0  0  0  0  0  0  0  0
    3.1161    3.5113   -4.5007 C   0  0  0  0  0  0  0  0  0  0  0  0
    2.9600    2.6489   -3.4320 C   0  0  0  0  0  0  0  0  0  0  0  0
    3.3389    3.1805   -1.8235 Cl  0  0  0  0  0  0  0  0  0  0  0  0
    1.5933    1.8644    0.3021 H   0  0  0  0  0  0  0  0  0  0  0  0
    0.3462    1.8759   -0.9679 H   0  0  0  0  0  0  0  0  0  0  0  0
   -0.1301    1.8674    0.7472 H   0  0  0  0  0  0  0  0  0  0  0  0
    0.8848   -2.6280   -2.0594 H   0  0  0  0  0  0  0  0  0  0  0  0
   -0.2020   -2.4766    5.4406 H   0  0  0  0  0  0  0  0  0  0  0  0
   -0.0785   -3.8945    4.5478 H   0  0  0  0  0  0  0  0  0  0  0  0
   -0.4080    1.7182    3.1377 H   0  0  0  0  0  0  0  0  0  0  0  0
    0.8670    1.8085    2.0474 H   0  0  0  0  0  0  0  0  0  0  0  0
    0.7042   -0.6270   -3.2836 H   0  0  0  0  0  0  0  0  0  0  0  0
    0.2847    0.9035   -2.4774 H   0  0  0  0  0  0  0  0  0  0  0  0
    2.9927   -1.2478   -3.5702 H   0  0  0  0  0  0  0  0  0  0  0  0
    4.2764   -0.3108   -2.7686 H   0  0  0  0  0  0  0  0  0  0  0  0
    3.1556   -1.2961   -1.7984 H   0  0  0  0  0  0  0  0  0  0  0  0
    1.8504   -0.0738   -5.1075 H   0  0  0  0  0  0  0  0  0  0  0  0
    2.1235    1.4738   -7.0014 H   0  0  0  0  0  0  0  0  0  0  0  0
    2.9388    3.7634   -6.6157 H   0  0  0  0  0  0  0  0  0  0  0  0
    3.4737    4.5168   -4.3348 H   0  0  0  0  0  0  0  0  0  0  0  0
  1  2  1  0  0  0  0
  1 24  1  0  0  0  0
  1 25  1  0  0  0  0
  1 26  1  0  0  0  0
  2  7  2  0  0  0  0
  2  3  1  0  0  0  0
  3  4  2  0  0  0  0
  3 14  1  0  0  0  0
  4  5  1  0  0  0  0
  4 27  1  0  0  0  0
  5  6  2  0  0  0  0
  6 11  1  0  0  0  0
  6  7  1  0  0  0  0
  7  8  1  0  0  0  0
  8  9  2  0  0  0  0
  8 13  1  0  0  0  0
  9 10  1  0  0  0  0
 10 11  2  0  0  0  0
 10 12  1  0  0  0  0
 12 28  1  0  0  0  0
 12 29  1  0  0  0  0
 13 30  1  0  0  0  0
 13 31  1  0  0  0  0
 14 15  1  0  0  0  0
 14 32  1  0  0  0  0
 14 33  1  0  0  0  0
 15 16  1  0  0  0  0
 15 17  1  0  0  0  0
 16 34  1  0  0  0  0
 16 35  1  0  0  0  0
 16 36  1  0  0  0  0
 17 22  2  0  0  0  0
 17 18  1  0  0  0  0
 18 19  2  0  0  0  0
 18 37  1  0  0  0  0
 19 20  1  0  0  0  0
 19 38  1  0  0  0  0
 20 21  2  0  0  0  0
 20 39  1  0  0  0  0
 21 22  1  0  0  0  0
 21 40  1  0  0  0  0
 22 23  1  0  0  0  0
M  END
$$$$
ZINC03814976
  -OEChem-08230709403D

 41 43  0     1  0  0  0  0  0999 V2000
    0.6019    1.5059    0.0250 C   0  0  0  0  0  0  0  0  0  0  0  0
    0.5971   -0.0011    0.0161 C   0  0  0  0  0  0  0  0  0  0  0  0
    0.7586   -0.7002   -1.1515 C   0  0  0  0  0  0  0  0  0  0  0  0
    0.7533   -2.0894   -1.1326 C   0  0  0  0  0  0  0  0  0  0  0  0
    0.5889   -2.7658   -0.0176 N   0  0  0  0  0  0  0  0  0  0  0  0
    0.4225   -2.1439    1.1498 C   0  0  0  0  0  0  0  0  0  0  0  0
    0.4216   -0.7279    1.1991 C   0  0  0  0  0  0  0  0  0  0  0  0
    0.2422   -0.0940    2.4535 C   0  0  0  0  0  0  0  0  0  0  0  0
    0.0832   -0.8573    3.5253 N   0  0  0  0  0  0  0  0  0  0  0  0
    0.0904   -2.1842    3.4357 C   0  0  0  0  0  0  0  0  0  0  0  0
   -0.0803   -2.9254    4.5893 N   0  0  0  0  0  0  0  0  0  0  0  0
    0.2328    1.2797    2.5563 N   0  0  0  0  0  0  0  0  0  0  0  0
    0.9449    0.0365   -2.4529 C   0  0  0  0  0  0  0  0  0  0  0  0
    2.3404    0.4802   -2.5691 N   0  0  1  0  0  0  0  0  0  0  0  0
    3.2499   -0.6677   -2.6840 C   0  0  0  0  0  0  0  0  0  0  0  0
    2.4997    1.3552   -3.6471 C   0  0  0  0  0  0  0  0  0  0  0  0
    2.2037    0.9323   -4.9364 C   0  0  0  0  0  0  0  0  0  0  0  0
    2.3571    1.8012   -5.9991 C   0  0  0  0  0  0  0  0  0  0  0  0
    2.8153    3.0878   -5.7822 C   0  0  0  0  0  0  0  0  0  0  0  0
    3.1161    3.5113   -4.5007 C   0  0  0  0  0  0  0  0  0  0  0  0
    2.9600    2.6489   -3.4320 C   0  0  0  0  0  0  0  0  0  0  0  0
    3.3389    3.1805   -1.8235 Cl  0  0  0  0  0  0  0  0  0  0  0  0
    1.5933    1.8644    0.3021 H   0  0  0  0  0  0  0  0  0  0  0  0
    0.3462    1.8759   -0.9679 H   0  0  0  0  0  0  0  0  0  0  0  0
   -0.1301    1.8674    0.7472 H   0  0  0  0  0  0  0  0  0  0  0  0
    0.8848   -2.6280   -2.0594 H   0  0  0  0  0  0  0  0  0  0  0  0
   -0.2020   -2.4766    5.4406 H   0  0  0  0  0  0  0  0  0  0  0  0
   -0.0785   -3.8945    4.5478 H   0  0  0  0  0  0  0  0  0  0  0  0
   -0.4080    1.7182    3.1377 H   0  0  0  0  0  0  0  0  0  0  0  0
    0.8670    1.8085    2.0474 H   0  0  0  0  0  0  0  0  0  0  0  0
    0.7042   -0.6270   -3.2836 H   0  0  0  0  0  0  0  0  0  0  0  0
    0.2847    0.9035   -2.4774 H   0  0  0  0  0  0  0  0  0  0  0  0
    2.9927   -1.2478   -3.5702 H   0  0  0  0  0  0  0  0  0  0  0  0
    4.2764   -0.3108   -2.7686 H   0  0  0  0  0  0  0  0  0  0  0  0
    3.1556   -1.2961   -1.7984 H   0  0  0  0  0  0  0  0  0  0  0  0
    1.8504   -0.0738   -5.1075 H   0  0  0  0  0  0  0  0  0  0  0  0
    2.1235    1.4738   -7.0014 H   0  0  0  0  0  0  0  0  0  0  0  0
    2.9388    3.7634   -6.6157 H   0  0  0  0  0  0  0  0  0  0  0  0
    3.4737    4.5168   -4.3348 H   0  0  0  0  0  0  0  0  0  0  0  0
    0.2528   -2.8960    2.2921 N   0  3  0  0  0  0  0  0  0  0  0  0
    0.2438   -3.8956    2.3198 H   0  0  0  0  0  0  0  0  0  0  0  0
  1  2  1  0  0  0  0
  1 23  1  0  0  0  0
  1 24  1  0  0  0  0
  1 25  1  0  0  0  0
  2  7  2  0  0  0  0
  2  3  1  0  0  0  0
  3  4  2  0  0  0  0
  3 13  1  0  0  0  0
  4  5  1  0  0  0  0
  4 26  1  0  0  0  0
  5  6  2  0  0  0  0
  6  7  1  0  0  0  0
  6 40  1  0  0  0  0
  7  8  1  0  0  0  0
  8  9  2  0  0  0  0
  8 12  1  0  0  0  0
  9 10  1  0  0  0  0
 10 11  1  0  0  0  0
 10 40  2  0  0  0  0
 11 27  1  0  0  0  0
 11 28  1  0  0  0  0
 12 29  1  0  0  0  0
 12 30  1  0  0  0  0
 13 14  1  0  0  0  0
 13 31  1  0  0  0  0
 13 32  1  0  0  0  0
 14 15  1  0  0  0  0
 14 16  1  0  0  0  0
 15 33  1  0  0  0  0
 15 34  1  0  0  0  0
 15 35  1  0  0  0  0
 16 21  2  0  0  0  0
 16 17  1  0  0  0  0
 17 18  2  0  0  0  0
 17 36  1  0  0  0  0
 18 19  1  0  0  0  0
 18 37  1  0  0  0  0
 19 20  2  0  0  0  0
 19 38  1  0  0  0  0
 20 21  1  0  0  0  0
 20 39  1  0  0  0  0
 21 22  1  0  0  0  0
 40 41  1  0  0  0  0
M  CHG  1  40   1
M  END
$$$$
ZINC03814977
  -OEChem-08230709403D

 40 42  0     1  0  0  0  0  0999 V2000
   -0.0832   -0.0034    0.6168 C   0  0  0  0  0  0  0  0  0  0  0  0
   -0.1002    1.5034    0.6000 C   0  0  0  0  0  0  0  0  0  0  0  0
   -1.2579    2.1985    0.8340 C   0  0  0  0  0  0  0  0  0  0  0  0
   -1.2465    3.5877    0.8159 C   0  0  0  0  0  0  0  0  0  0  0  0
   -0.1486    4.2678    0.5711 N   0  0  0  0  0  0  0  0  0  0  0  0
    1.0082    3.6498    0.3318 C   0  0  0  0  0  0  0  0  0  0  0  0
    1.0646    2.2341    0.3393 C   0  0  0  0  0  0  0  0  0  0  0  0
    2.3073    1.6044    0.0812 C   0  0  0  0  0  0  0  0  0  0  0  0
    3.3621    2.3712   -0.1559 N   0  0  0  0  0  0  0  0  0  0  0  0
    3.2663    3.6977   -0.1537 C   0  0  0  0  0  0  0  0  0  0  0  0
    2.1337    4.3335    0.0802 N   0  0  0  0  0  0  0  0  0  0  0  0
    4.4020    4.4427   -0.4078 N   0  0  0  0  0  0  0  0  0  0  0  0
    2.4164    0.2312    0.0763 N   0  0  0  0  0  0  0  0  0  0  0  0
   -2.5400    1.4576    1.1135 C   0  0  0  0  0  0  0  0  0  0  0  0
   -2.5597    1.0266    2.5135 N   0  0  3  0  0  0  0  0  0  0  0  0
   -2.0107   -0.2797    2.8856 C   0  0  0  0  0  0  0  0  0  0  0  0
   -3.1023    1.8615    3.4940 C   0  0  0  0  0  0  0  0  0  0  0  0
   -3.6180    3.1026    3.1434 C   0  0  0  0  0  0  0  0  0  0  0  0
   -4.1592    3.9231    4.1136 C   0  0  0  0  0  0  0  0  0  0  0  0
   -4.1767    3.5150    5.4358 C   0  0  0  0  0  0  0  0  0  0  0  0
   -3.6585    2.2814    5.7887 C   0  0  0  0  0  0  0  0  0  0  0  0
   -3.1216    1.4542    4.8218 C   0  0  0  0  0  0  0  0  0  0  0  0
   -4.8508    4.5522    6.6538 Cl  0  0  0  0  0  0  0  0  0  0  0  0
    0.2620   -0.3521    1.5902 H   0  0  0  0  0  0  0  0  0  0  0  0
   -1.0891   -0.3802    0.4317 H   0  0  0  0  0  0  0  0  0  0  0  0
    0.5898   -0.3679   -0.1593 H   0  0  0  0  0  0  0  0  0  0  0  0
   -2.1650    4.1232    1.0056 H   0  0  0  0  0  0  0  0  0  0  0  0
    5.2454    3.9968   -0.5827 H   0  0  0  0  0  0  0  0  0  0  0  0
    4.3557    5.4116   -0.4113 H   0  0  0  0  0  0  0  0  0  0  0  0
    2.9557   -0.2101   -0.5984 H   0  0  0  0  0  0  0  0  0  0  0  0
    1.9539   -0.2945    0.7476 H   0  0  0  0  0  0  0  0  0  0  0  0
   -3.3884    2.1151    0.9237 H   0  0  0  0  0  0  0  0  0  0  0  0
   -2.6043    0.5848    0.4637 H   0  0  0  0  0  0  0  0  0  0  0  0
   -0.9521   -0.1746    3.1230 H   0  0  0  0  0  0  0  0  0  0  0  0
   -2.5422   -0.6623    3.7570 H   0  0  0  0  0  0  0  0  0  0  0  0
   -2.1294   -0.9740    2.0538 H   0  0  0  0  0  0  0  0  0  0  0  0
   -3.5998    3.4239    2.1125 H   0  0  0  0  0  0  0  0  0  0  0  0
   -4.5650    4.8861    3.8409 H   0  0  0  0  0  0  0  0  0  0  0  0
   -3.6741    1.9650    6.8212 H   0  0  0  0  0  0  0  0  0  0  0  0
   -2.7176    0.4914    5.0977 H   0  0  0  0  0  0  0  0  0  0  0  0
  1  2  1  0  0  0  0
  1 24  1  0  0  0  0
  1 25  1  0  0  0  0
  1 26  1  0  0  0  0
  2  7  2  0  0  0  0
  2  3  1  0  0  0  0
  3  4  2  0  0  0  0
  3 14  1  0  0  0  0
  4  5  1  0  0  0  0
  4 27  1  0  0  0  0
  5  6  2  0  0  0  0
  6 11  1  0  0  0  0
  6  7  1  0  0  0  0
  7  8  1  0  0  0  0
  8  9  2  0  0  0  0
  8 13  1  0  0  0  0
  9 10  1  0  0  0  0
 10 11  2  0  0  0  0
 10 12  1  0  0  0  0
 12 28  1  0  0  0  0
 12 29  1  0  0  0  0
 13 30  1  0  0  0  0
 13 31  1  0  0  0  0
 14 15  1  0  0  0  0
 14 32  1  0  0  0  0
 14 33  1  0  0  0  0
 15 16  1  0  0  0  0
 15 17  1  0  0  0  0
 16 34  1  0  0  0  0
 16 35  1  0  0  0  0
 16 36  1  0  0  0  0
 17 22  2  0  0  0  0
 17 18  1  0  0  0  0
 18 19  2  0  0  0  0
 18 37  1  0  0  0  0
 19 20  1  0  0  0  0
 19 38  1  0  0  0  0
 20 21  2  0  0  0  0
 20 23  1  0  0  0  0
 21 22  1  0  0  0  0
 21 39  1  0  0  0  0
 22 40  1  0  0  0  0
M  END
$$$$
ZINC03814977
  -OEChem-08230709403D

 41 43  0     1  0  0  0  0  0999 V2000
   -0.0832   -0.0034    0.6168 C   0  0  0  0  0  0  0  0  0  0  0  0
   -0.1002    1.5034    0.6000 C   0  0  0  0  0  0  0  0  0  0  0  0
   -1.2579    2.1985    0.8340 C   0  0  0  0  0  0  0  0  0  0  0  0
   -1.2465    3.5877    0.8159 C   0  0  0  0  0  0  0  0  0  0  0  0
   -0.1486    4.2678    0.5711 N   0  0  0  0  0  0  0  0  0  0  0  0
    1.0082    3.6498    0.3318 C   0  0  0  0  0  0  0  0  0  0  0  0
    1.0646    2.2341    0.3393 C   0  0  0  0  0  0  0  0  0  0  0  0
    2.3073    1.6044    0.0812 C   0  0  0  0  0  0  0  0  0  0  0  0
    3.3621    2.3712   -0.1559 N   0  0  0  0  0  0  0  0  0  0  0  0
    3.2663    3.6977   -0.1537 C   0  0  0  0  0  0  0  0  0  0  0  0
    4.4020    4.4427   -0.4078 N   0  0  0  0  0  0  0  0  0  0  0  0
    2.4164    0.2312    0.0763 N   0  0  0  0  0  0  0  0  0  0  0  0
   -2.5400    1.4576    1.1135 C   0  0  0  0  0  0  0  0  0  0  0  0
   -2.5597    1.0266    2.5135 N   0  0  3  0  0  0  0  0  0  0  0  0
   -2.0107   -0.2797    2.8856 C   0  0  0  0  0  0  0  0  0  0  0  0
   -3.1023    1.8615    3.4940 C   0  0  0  0  0  0  0  0  0  0  0  0
   -3.6180    3.1026    3.1434 C   0  0  0  0  0  0  0  0  0  0  0  0
   -4.1592    3.9231    4.1136 C   0  0  0  0  0  0  0  0  0  0  0  0
   -4.1767    3.5150    5.4358 C   0  0  0  0  0  0  0  0  0  0  0  0
   -3.6585    2.2814    5.7887 C   0  0  0  0  0  0  0  0  0  0  0  0
   -3.1216    1.4542    4.8218 C   0  0  0  0  0  0  0  0  0  0  0  0
   -4.8508    4.5522    6.6538 Cl  0  0  0  0  0  0  0  0  0  0  0  0
    0.2620   -0.3521    1.5902 H   0  0  0  0  0  0  0  0  0  0  0  0
   -1.0891   -0.3802    0.4317 H   0  0  0  0  0  0  0  0  0  0  0  0
    0.5898   -0.3679   -0.1593 H   0  0  0  0  0  0  0  0  0  0  0  0
   -2.1650    4.1232    1.0056 H   0  0  0  0  0  0  0  0  0  0  0  0
    5.2454    3.9968   -0.5827 H   0  0  0  0  0  0  0  0  0  0  0  0
    4.3557    5.4116   -0.4113 H   0  0  0  0  0  0  0  0  0  0  0  0
    2.9557   -0.2101   -0.5984 H   0  0  0  0  0  0  0  0  0  0  0  0
    1.9539   -0.2945    0.7476 H   0  0  0  0  0  0  0  0  0  0  0  0
   -3.3884    2.1151    0.9237 H   0  0  0  0  0  0  0  0  0  0  0  0
   -2.6043    0.5848    0.4637 H   0  0  0  0  0  0  0  0  0  0  0  0
   -0.9521   -0.1746    3.1230 H   0  0  0  0  0  0  0  0  0  0  0  0
   -2.5422   -0.6623    3.7570 H   0  0  0  0  0  0  0  0  0  0  0  0
   -2.1294   -0.9740    2.0538 H   0  0  0  0  0  0  0  0  0  0  0  0
   -3.5998    3.4239    2.1125 H   0  0  0  0  0  0  0  0  0  0  0  0
   -4.5650    4.8861    3.8409 H   0  0  0  0  0  0  0  0  0  0  0  0
   -3.6741    1.9650    6.8212 H   0  0  0  0  0  0  0  0  0  0  0  0
   -2.7176    0.4914    5.0977 H   0  0  0  0  0  0  0  0  0  0  0  0
    2.1326    4.4056    0.0794 N   0  3  0  0  0  0  0  0  0  0  0  0
    2.1545    5.4052    0.0601 H   0  0  0  0  0  0  0  0  0  0  0  0
  1  2  1  0  0  0  0
  1 23  1  0  0  0  0
  1 24  1  0  0  0  0
  1 25  1  0  0  0  0
  2  7  2  0  0  0  0
  2  3  1  0  0  0  0
  3  4  2  0  0  0  0
  3 13  1  0  0  0  0
  4  5  1  0  0  0  0
  4 26  1  0  0  0  0
  5  6  2  0  0  0  0
  6  7  1  0  0  0  0
  6 40  1  0  0  0  0
  7  8  1  0  0  0  0
  8  9  2  0  0  0  0
  8 12  1  0  0  0  0
  9 10  1  0  0  0  0
 10 11  1  0  0  0  0
 10 40  2  0  0  0  0
 11 27  1  0  0  0  0
 11 28  1  0  0  0  0
 12 29  1  0  0  0  0
 12 30  1  0  0  0  0
 13 14  1  0  0  0  0
 13 31  1  0  0  0  0
 13 32  1  0  0  0  0
 14 15  1  0  0  0  0
 14 16  1  0  0  0  0
 15 33  1  0  0  0  0
 15 34  1  0  0  0  0
 15 35  1  0  0  0  0
 16 21  2  0  0  0  0
 16 17  1  0  0  0  0
 17 18  2  0  0  0  0
 17 36  1  0  0  0  0
 18 19  1  0  0  0  0
 18 37  1  0  0  0  0
 19 20  2  0  0  0  0
 19 22  1  0  0  0  0
 20 21  1  0  0  0  0
 20 38  1  0  0  0  0
 21 39  1  0  0  0  0
 40 41  1  0  0  0  0
M  CHG  1  40   1
M  END
$$$$
ZINC03814978
  -OEChem-08230709403D

 41 43  0     0  0  0  0  0  0999 V2000
    0.6018    1.5059    0.0250 C   0  0  0  0  0  0  0  0  0  0  0  0
    0.5970   -0.0011    0.0161 C   0  0  0  0  0  0  0  0  0  0  0  0
    0.7585   -0.7002   -1.1515 C   0  0  0  0  0  0  0  0  0  0  0  0
    0.7532   -2.0894   -1.1326 C   0  0  0  0  0  0  0  0  0  0  0  0
    0.5888   -2.7658   -0.0176 N   0  0  0  0  0  0  0  0  0  0  0  0
    0.4225   -2.1439    1.1498 C   0  0  0  0  0  0  0  0  0  0  0  0
    0.4215   -0.7279    1.1991 C   0  0  0  0  0  0  0  0  0  0  0  0
    0.2422   -0.0940    2.4535 C   0  0  0  0  0  0  0  0  0  0  0  0
    0.0832   -0.8573    3.5253 N   0  0  0  0  0  0  0  0  0  0  0  0
    0.0905   -2.1842    3.4357 C   0  0  0  0  0  0  0  0  0  0  0  0
    0.2532   -2.8238    2.2928 N   0  0  0  0  0  0  0  0  0  0  0  0
   -0.0802   -2.9254    4.5893 N   0  0  0  0  0  0  0  0  0  0  0  0
    0.2328    1.2797    2.5563 N   0  0  0  0  0  0  0  0  0  0  0  0
    0.9447    0.0365   -2.4530 C   0  0  0  0  0  0  0  0  0  0  0  0
    2.3364    0.4790   -2.5689 N   0  0  0  0  0  0  0  0  0  0  0  0
    2.7530    1.1893   -3.7006 C   0  0  0  0  0  0  0  0  0  0  0  0
    1.8508    1.4705   -4.7163 C   0  0  0  0  0  0  0  0  0  0  0  0
    2.2635    2.1764   -5.8308 C   0  0  0  0  0  0  0  0  0  0  0  0
    3.5765    2.5949   -5.9411 C   0  0  0  0  0  0  0  0  0  0  0  0
    4.4826    2.3137   -4.9350 C   0  0  0  0  0  0  0  0  0  0  0  0
    4.0760    1.6110   -3.8128 C   0  0  0  0  0  0  0  0  0  0  0  0
    4.9664    1.3330   -2.8229 O   0  0  0  0  0  0  0  0  0  0  0  0
    6.3057    1.7965   -3.0060 C   0  0  0  0  0  0  0  0  0  0  0  0
    1.5932    1.8644    0.3020 H   0  0  0  0  0  0  0  0  0  0  0  0
    0.3459    1.8759   -0.9678 H   0  0  0  0  0  0  0  0  0  0  0  0
   -0.1301    1.8674    0.7473 H   0  0  0  0  0  0  0  0  0  0  0  0
    0.8847   -2.6280   -2.0595 H   0  0  0  0  0  0  0  0  0  0  0  0
   -0.2018   -2.4766    5.4406 H   0  0  0  0  0  0  0  0  0  0  0  0
   -0.0784   -3.8945    4.5478 H   0  0  0  0  0  0  0  0  0  0  0  0
   -0.4080    1.7182    3.1377 H   0  0  0  0  0  0  0  0  0  0  0  0
    0.8670    1.8085    2.0474 H   0  0  0  0  0  0  0  0  0  0  0  0
    0.7040   -0.6270   -3.2836 H   0  0  0  0  0  0  0  0  0  0  0  0
    0.2845    0.9035   -2.4774 H   0  0  0  0  0  0  0  0  0  0  0  0
    2.9693    0.2796   -1.8613 H   0  0  0  0  0  0  0  0  0  0  0  0
    0.8255    1.1412   -4.6346 H   0  0  0  0  0  0  0  0  0  0  0  0
    1.5594    2.3980   -6.6192 H   0  0  0  0  0  0  0  0  0  0  0  0
    3.8956    3.1426   -6.8155 H   0  0  0  0  0  0  0  0  0  0  0  0
    5.5077    2.6418   -5.0245 H   0  0  0  0  0  0  0  0  0  0  0  0
    6.7237    1.3521   -3.9092 H   0  0  0  0  0  0  0  0  0  0  0  0
    6.3044    2.8822   -3.1023 H   0  0  0  0  0  0  0  0  0  0  0  0
    6.9105    1.5087   -2.1460 H   0  0  0  0  0  0  0  0  0  0  0  0
  1  2  1  0  0  0  0
  1 24  1  0  0  0  0
  1 25  1  0  0  0  0
  1 26  1  0  0  0  0
  2  7  2  0  0  0  0
  2  3  1  0  0  0  0
  3  4  2  0  0  0  0
  3 14  1  0  0  0  0
  4  5  1  0  0  0  0
  4 27  1  0  0  0  0
  5  6  2  0  0  0  0
  6 11  1  0  0  0  0
  6  7  1  0  0  0  0
  7  8  1  0  0  0  0
  8  9  2  0  0  0  0
  8 13  1  0  0  0  0
  9 10  1  0  0  0  0
 10 11  2  0  0  0  0
 10 12  1  0  0  0  0
 12 28  1  0  0  0  0
 12 29  1  0  0  0  0
 13 30  1  0  0  0  0
 13 31  1  0  0  0  0
 14 15  1  0  0  0  0
 14 32  1  0  0  0  0
 14 33  1  0  0  0  0
 15 16  1  0  0  0  0
 15 34  1  0  0  0  0
 16 21  2  0  0  0  0
 16 17  1  0  0  0  0
 17 18  2  0  0  0  0
 17 35  1  0  0  0  0
 18 19  1  0  0  0  0
 18 36  1  0  0  0  0
 19 20  2  0  0  0  0
 19 37  1  0  0  0  0
 20 21  1  0  0  0  0
 20 38  1  0  0  0  0
 21 22  1  0  0  0  0
 22 23  1  0  0  0  0
 23 39  1  0  0  0  0
 23 40  1  0  0  0  0
 23 41  1  0  0  0  0
M  END
$$$$
ZINC03814978
  -OEChem-08230709403D

 42 44  0     0  0  0  0  0  0999 V2000
    0.6018    1.5059    0.0250 C   0  0  0  0  0  0  0  0  0  0  0  0
    0.5970   -0.0011    0.0161 C   0  0  0  0  0  0  0  0  0  0  0  0
    0.7585   -0.7002   -1.1515 C   0  0  0  0  0  0  0  0  0  0  0  0
    0.7532   -2.0894   -1.1326 C   0  0  0  0  0  0  0  0  0  0  0  0
    0.5888   -2.7658   -0.0176 N   0  0  0  0  0  0  0  0  0  0  0  0
    0.4225   -2.1439    1.1498 C   0  0  0  0  0  0  0  0  0  0  0  0
    0.4215   -0.7279    1.1991 C   0  0  0  0  0  0  0  0  0  0  0  0
    0.2422   -0.0940    2.4535 C   0  0  0  0  0  0  0  0  0  0  0  0
    0.0832   -0.8573    3.5253 N   0  0  0  0  0  0  0  0  0  0  0  0
    0.0905   -2.1842    3.4357 C   0  0  0  0  0  0  0  0  0  0  0  0
   -0.0802   -2.9254    4.5893 N   0  0  0  0  0  0  0  0  0  0  0  0
    0.2328    1.2797    2.5563 N   0  0  0  0  0  0  0  0  0  0  0  0
    0.9447    0.0365   -2.4530 C   0  0  0  0  0  0  0  0  0  0  0  0
    2.3364    0.4790   -2.5689 N   0  0  0  0  0  0  0  0  0  0  0  0
    2.7530    1.1893   -3.7006 C   0  0  0  0  0  0  0  0  0  0  0  0
    1.8508    1.4705   -4.7163 C   0  0  0  0  0  0  0  0  0  0  0  0
    2.2635    2.1764   -5.8308 C   0  0  0  0  0  0  0  0  0  0  0  0
    3.5765    2.5949   -5.9411 C   0  0  0  0  0  0  0  0  0  0  0  0
    4.4826    2.3137   -4.9350 C   0  0  0  0  0  0  0  0  0  0  0  0
    4.0760    1.6110   -3.8128 C   0  0  0  0  0  0  0  0  0  0  0  0
    4.9664    1.3330   -2.8229 O   0  0  0  0  0  0  0  0  0  0  0  0
    6.3057    1.7965   -3.0060 C   0  0  0  0  0  0  0  0  0  0  0  0
    1.5932    1.8644    0.3020 H   0  0  0  0  0  0  0  0  0  0  0  0
    0.3459    1.8759   -0.9678 H   0  0  0  0  0  0  0  0  0  0  0  0
   -0.1301    1.8674    0.7473 H   0  0  0  0  0  0  0  0  0  0  0  0
    0.8847   -2.6280   -2.0595 H   0  0  0  0  0  0  0  0  0  0  0  0
   -0.2018   -2.4766    5.4406 H   0  0  0  0  0  0  0  0  0  0  0  0
   -0.0784   -3.8945    4.5478 H   0  0  0  0  0  0  0  0  0  0  0  0
   -0.4080    1.7182    3.1377 H   0  0  0  0  0  0  0  0  0  0  0  0
    0.8670    1.8085    2.0474 H   0  0  0  0  0  0  0  0  0  0  0  0
    0.7040   -0.6270   -3.2836 H   0  0  0  0  0  0  0  0  0  0  0  0
    0.2845    0.9035   -2.4774 H   0  0  0  0  0  0  0  0  0  0  0  0
    2.9693    0.2796   -1.8613 H   0  0  0  0  0  0  0  0  0  0  0  0
    0.8255    1.1412   -4.6346 H   0  0  0  0  0  0  0  0  0  0  0  0
    1.5594    2.3980   -6.6192 H   0  0  0  0  0  0  0  0  0  0  0  0
    3.8956    3.1426   -6.8155 H   0  0  0  0  0  0  0  0  0  0  0  0
    5.5077    2.6418   -5.0245 H   0  0  0  0  0  0  0  0  0  0  0  0
    6.7237    1.3521   -3.9092 H   0  0  0  0  0  0  0  0  0  0  0  0
    6.3044    2.8822   -3.1023 H   0  0  0  0  0  0  0  0  0  0  0  0
    6.9105    1.5087   -2.1460 H   0  0  0  0  0  0  0  0  0  0  0  0
    0.2529   -2.8960    2.2921 N   0  3  0  0  0  0  0  0  0  0  0  0
    0.2439   -3.8956    2.3198 H   0  0  0  0  0  0  0  0  0  0  0  0
  1  2  1  0  0  0  0
  1 23  1  0  0  0  0
  1 24  1  0  0  0  0
  1 25  1  0  0  0  0
  2  7  2  0  0  0  0
  2  3  1  0  0  0  0
  3  4  2  0  0  0  0
  3 13  1  0  0  0  0
  4  5  1  0  0  0  0
  4 26  1  0  0  0  0
  5  6  2  0  0  0  0
  6  7  1  0  0  0  0
  6 41  1  0  0  0  0
  7  8  1  0  0  0  0
  8  9  2  0  0  0  0
  8 12  1  0  0  0  0
  9 10  1  0  0  0  0
 10 11  1  0  0  0  0
 10 41  2  0  0  0  0
 11 27  1  0  0  0  0
 11 28  1  0  0  0  0
 12 29  1  0  0  0  0
 12 30  1  0  0  0  0
 13 14  1  0  0  0  0
 13 31  1  0  0  0  0
 13 32  1  0  0  0  0
 14 15  1  0  0  0  0
 14 33  1  0  0  0  0
 15 20  2  0  0  0  0
 15 16  1  0  0  0  0
 16 17  2  0  0  0  0
 16 34  1  0  0  0  0
 17 18  1  0  0  0  0
 17 35  1  0  0  0  0
 18 19  2  0  0  0  0
 18 36  1  0  0  0  0
 19 20  1  0  0  0  0
 19 37  1  0  0  0  0
 20 21  1  0  0  0  0
 21 22  1  0  0  0  0
 22 38  1  0  0  0  0
 22 39  1  0  0  0  0
 22 40  1  0  0  0  0
 41 42  1  0  0  0  0
M  CHG  1  41   1
M  END
$$$$
ZINC03814979
  -OEChem-08230709403D

 41 43  0     0  0  0  0  0  0999 V2000
   -2.3304   -0.6429    8.9039 C   0  0  0  0  0  0  0  0  0  0  0  0
   -1.8709    0.6319    9.5633 C   0  0  0  0  0  0  0  0  0  0  0  0
   -0.6120    1.1264    9.3423 C   0  0  0  0  0  0  0  0  0  0  0  0
   -0.2102    2.3005    9.9671 C   0  0  0  0  0  0  0  0  0  0  0  0
   -1.0121    2.9688   10.7660 N   0  0  0  0  0  0  0  0  0  0  0  0
   -2.2483    2.5397   11.0212 C   0  0  0  0  0  0  0  0  0  0  0  0
   -2.7169    1.3455   10.4198 C   0  0  0  0  0  0  0  0  0  0  0  0
   -4.0351    0.9137   10.7088 C   0  0  0  0  0  0  0  0  0  0  0  0
   -4.7703    1.6492   11.5306 N   0  0  0  0  0  0  0  0  0  0  0  0
   -4.2920    2.7646   12.0744 C   0  0  0  0  0  0  0  0  0  0  0  0
   -3.0725    3.2105   11.8384 N   0  0  0  0  0  0  0  0  0  0  0  0
   -5.1073    3.4880   12.9238 N   0  0  0  0  0  0  0  0  0  0  0  0
   -4.5392   -0.2405   10.1508 N   0  0  0  0  0  0  0  0  0  0  0  0
    0.3368    0.3948    8.4282 C   0  0  0  0  0  0  0  0  0  0  0  0
    0.0101    0.7065    7.0345 N   0  0  0  0  0  0  0  0  0  0  0  0
    0.7574    0.1413    5.9988 C   0  0  0  0  0  0  0  0  0  0  0  0
    1.8115   -0.7165    6.2892 C   0  0  0  0  0  0  0  0  0  0  0  0
    2.5507   -1.2750    5.2649 C   0  0  0  0  0  0  0  0  0  0  0  0
    2.2412   -0.9867    3.9490 C   0  0  0  0  0  0  0  0  0  0  0  0
    1.1931   -0.1267    3.6531 C   0  0  0  0  0  0  0  0  0  0  0  0
    0.4487    0.4360    4.6781 C   0  0  0  0  0  0  0  0  0  0  0  0
    0.8932    0.1594    2.3589 O   0  0  0  0  0  0  0  0  0  0  0  0
    1.7020   -0.4557    1.3542 C   0  0  0  0  0  0  0  0  0  0  0  0
   -2.2065   -1.4753    9.5965 H   0  0  0  0  0  0  0  0  0  0  0  0
   -3.3814   -0.5517    8.6296 H   0  0  0  0  0  0  0  0  0  0  0  0
   -1.7356   -0.8237    8.0085 H   0  0  0  0  0  0  0  0  0  0  0  0
    0.7862    2.6766    9.7880 H   0  0  0  0  0  0  0  0  0  0  0  0
   -6.0073    3.1790   13.1120 H   0  0  0  0  0  0  0  0  0  0  0  0
   -4.7796    4.3046   13.3319 H   0  0  0  0  0  0  0  0  0  0  0  0
   -3.9799   -1.0299   10.0809 H   0  0  0  0  0  0  0  0  0  0  0  0
   -5.4535   -0.2638    9.8277 H   0  0  0  0  0  0  0  0  0  0  0  0
    0.2437   -0.6788    8.5918 H   0  0  0  0  0  0  0  0  0  0  0  0
    1.3593    0.7074    8.6403 H   0  0  0  0  0  0  0  0  0  0  0  0
   -0.7253    1.3055    6.8310 H   0  0  0  0  0  0  0  0  0  0  0  0
    2.0526   -0.9469    7.3165 H   0  0  0  0  0  0  0  0  0  0  0  0
    3.3695   -1.9414    5.4924 H   0  0  0  0  0  0  0  0  0  0  0  0
    2.8183   -1.4285    3.1501 H   0  0  0  0  0  0  0  0  0  0  0  0
   -0.3697    1.1026    4.4495 H   0  0  0  0  0  0  0  0  0  0  0  0
    1.6259   -1.5397    1.4398 H   0  0  0  0  0  0  0  0  0  0  0  0
    2.7405   -0.1528    1.4880 H   0  0  0  0  0  0  0  0  0  0  0  0
    1.3567   -0.1439    0.3685 H   0  0  0  0  0  0  0  0  0  0  0  0
  1  2  1  0  0  0  0
  1 24  1  0  0  0  0
  1 25  1  0  0  0  0
  1 26  1  0  0  0  0
  2  7  2  0  0  0  0
  2  3  1  0  0  0  0
  3  4  2  0  0  0  0
  3 14  1  0  0  0  0
  4  5  1  0  0  0  0
  4 27  1  0  0  0  0
  5  6  2  0  0  0  0
  6 11  1  0  0  0  0
  6  7  1  0  0  0  0
  7  8  1  0  0  0  0
  8  9  2  0  0  0  0
  8 13  1  0  0  0  0
  9 10  1  0  0  0  0
 10 11  2  0  0  0  0
 10 12  1  0  0  0  0
 12 28  1  0  0  0  0
 12 29  1  0  0  0  0
 13 30  1  0  0  0  0
 13 31  1  0  0  0  0
 14 15  1  0  0  0  0
 14 32  1  0  0  0  0
 14 33  1  0  0  0  0
 15 16  1  0  0  0  0
 15 34  1  0  0  0  0
 16 21  2  0  0  0  0
 16 17  1  0  0  0  0
 17 18  2  0  0  0  0
 17 35  1  0  0  0  0
 18 19  1  0  0  0  0
 18 36  1  0  0  0  0
 19 20  2  0  0  0  0
 19 37  1  0  0  0  0
 20 21  1  0  0  0  0
 20 22  1  0  0  0  0
 21 38  1  0  0  0  0
 22 23  1  0  0  0  0
 23 39  1  0  0  0  0
 23 40  1  0  0  0  0
 23 41  1  0  0  0  0
M  END
$$$$
ZINC03814979
  -OEChem-08230709403D

 42 44  0     0  0  0  0  0  0999 V2000
   -2.3304   -0.6429    8.9039 C   0  0  0  0  0  0  0  0  0  0  0  0
   -1.8709    0.6319    9.5633 C   0  0  0  0  0  0  0  0  0  0  0  0
   -0.6120    1.1264    9.3423 C   0  0  0  0  0  0  0  0  0  0  0  0
   -0.2102    2.3005    9.9671 C   0  0  0  0  0  0  0  0  0  0  0  0
   -1.0121    2.9688   10.7660 N   0  0  0  0  0  0  0  0  0  0  0  0
   -2.2483    2.5397   11.0212 C   0  0  0  0  0  0  0  0  0  0  0  0
   -2.7169    1.3455   10.4198 C   0  0  0  0  0  0  0  0  0  0  0  0
   -4.0351    0.9137   10.7088 C   0  0  0  0  0  0  0  0  0  0  0  0
   -4.7703    1.6492   11.5306 N   0  0  0  0  0  0  0  0  0  0  0  0
   -4.2920    2.7646   12.0744 C   0  0  0  0  0  0  0  0  0  0  0  0
   -5.1073    3.4880   12.9238 N   0  0  0  0  0  0  0  0  0  0  0  0
   -4.5392   -0.2405   10.1508 N   0  0  0  0  0  0  0  0  0  0  0  0
    0.3368    0.3948    8.4282 C   0  0  0  0  0  0  0  0  0  0  0  0
    0.0101    0.7065    7.0345 N   0  0  0  0  0  0  0  0  0  0  0  0
    0.7574    0.1413    5.9988 C   0  0  0  0  0  0  0  0  0  0  0  0
    1.8115   -0.7165    6.2892 C   0  0  0  0  0  0  0  0  0  0  0  0
    2.5507   -1.2750    5.2649 C   0  0  0  0  0  0  0  0  0  0  0  0
    2.2412   -0.9867    3.9490 C   0  0  0  0  0  0  0  0  0  0  0  0
    1.1931   -0.1267    3.6531 C   0  0  0  0  0  0  0  0  0  0  0  0
    0.4487    0.4360    4.6781 C   0  0  0  0  0  0  0  0  0  0  0  0
    0.8932    0.1594    2.3589 O   0  0  0  0  0  0  0  0  0  0  0  0
    1.7020   -0.4557    1.3542 C   0  0  0  0  0  0  0  0  0  0  0  0
   -2.2065   -1.4753    9.5965 H   0  0  0  0  0  0  0  0  0  0  0  0
   -3.3814   -0.5517    8.6296 H   0  0  0  0  0  0  0  0  0  0  0  0
   -1.7356   -0.8237    8.0085 H   0  0  0  0  0  0  0  0  0  0  0  0
    0.7862    2.6766    9.7880 H   0  0  0  0  0  0  0  0  0  0  0  0
   -6.0073    3.1790   13.1120 H   0  0  0  0  0  0  0  0  0  0  0  0
   -4.7796    4.3046   13.3319 H   0  0  0  0  0  0  0  0  0  0  0  0
   -3.9799   -1.0299   10.0809 H   0  0  0  0  0  0  0  0  0  0  0  0
   -5.4535   -0.2638    9.8277 H   0  0  0  0  0  0  0  0  0  0  0  0
    0.2437   -0.6788    8.5918 H   0  0  0  0  0  0  0  0  0  0  0  0
    1.3593    0.7074    8.6403 H   0  0  0  0  0  0  0  0  0  0  0  0
   -0.7253    1.3055    6.8310 H   0  0  0  0  0  0  0  0  0  0  0  0
    2.0526   -0.9469    7.3165 H   0  0  0  0  0  0  0  0  0  0  0  0
    3.3695   -1.9414    5.4924 H   0  0  0  0  0  0  0  0  0  0  0  0
    2.8183   -1.4285    3.1501 H   0  0  0  0  0  0  0  0  0  0  0  0
   -0.3697    1.1026    4.4495 H   0  0  0  0  0  0  0  0  0  0  0  0
    1.6259   -1.5397    1.4398 H   0  0  0  0  0  0  0  0  0  0  0  0
    2.7405   -0.1528    1.4880 H   0  0  0  0  0  0  0  0  0  0  0  0
    1.3567   -0.1439    0.3685 H   0  0  0  0  0  0  0  0  0  0  0  0
   -3.0502    3.2715   11.8699 N   0  3  0  0  0  0  0  0  0  0  0  0
   -2.7757    4.1198   12.3227 H   0  0  0  0  0  0  0  0  0  0  0  0
  1  2  1  0  0  0  0
  1 23  1  0  0  0  0
  1 24  1  0  0  0  0
  1 25  1  0  0  0  0
  2  7  2  0  0  0  0
  2  3  1  0  0  0  0
  3  4  2  0  0  0  0
  3 13  1  0  0  0  0
  4  5  1  0  0  0  0
  4 26  1  0  0  0  0
  5  6  2  0  0  0  0
  6  7  1  0  0  0  0
  6 41  1  0  0  0  0
  7  8  1  0  0  0  0
  8  9  2  0  0  0  0
  8 12  1  0  0  0  0
  9 10  1  0  0  0  0
 10 11  1  0  0  0  0
 10 41  2  0  0  0  0
 11 27  1  0  0  0  0
 11 28  1  0  0  0  0
 12 29  1  0  0  0  0
 12 30  1  0  0  0  0
 13 14  1  0  0  0  0
 13 31  1  0  0  0  0
 13 32  1  0  0  0  0
 14 15  1  0  0  0  0
 14 33  1  0  0  0  0
 15 20  2  0  0  0  0
 15 16  1  0  0  0  0
 16 17  2  0  0  0  0
 16 34  1  0  0  0  0
 17 18  1  0  0  0  0
 17 35  1  0  0  0  0
 18 19  2  0  0  0  0
 18 36  1  0  0  0  0
 19 20  1  0  0  0  0
 19 21  1  0  0  0  0
 20 37  1  0  0  0  0
 21 22  1  0  0  0  0
 22 38  1  0  0  0  0
 22 39  1  0  0  0  0
 22 40  1  0  0  0  0
 41 42  1  0  0  0  0
M  CHG  1  41   1
M  END
$$$$
ZINC03814981
  -OEChem-08230709403D

 43 45  0     0  0  0  0  0  0999 V2000
    4.7634    1.3298   -0.0358 C   0  0  0  0  0  0  0  0  0  0  0  0
    3.5574    2.0963   -0.0202 O   0  0  0  0  0  0  0  0  0  0  0  0
    2.3864    1.4049   -0.0127 C   0  0  0  0  0  0  0  0  0  0  0  0
    2.3981    0.0193   -0.0203 C   0  0  0  0  0  0  0  0  0  0  0  0
    1.2069   -0.6820   -0.0131 C   0  0  0  0  0  0  0  0  0  0  0  0
    0.0021   -0.0041    0.0020 C   0  0  0  0  0  0  0  0  0  0  0  0
   -0.0167    1.3782    0.0096 C   0  0  0  0  0  0  0  0  0  0  0  0
    1.1738    2.0873    0.0021 C   0  0  0  0  0  0  0  0  0  0  0  0
    1.1571    3.4471    0.0100 O   0  0  0  0  0  0  0  0  0  0  0  0
   -0.1240    4.0801    0.0261 C   0  0  0  0  0  0  0  0  0  0  0  0
   -1.2936   -0.7736    0.0098 C   0  0  0  0  0  0  0  0  0  0  0  0
   -1.7453   -1.0263   -1.4300 C   0  0  0  0  0  0  0  0  0  0  0  0
   -3.0410   -1.7958   -1.4223 C   0  0  0  0  0  0  0  0  0  0  0  0
   -3.0258   -3.1661   -1.4355 C   0  0  0  0  0  0  0  0  0  0  0  0
   -4.2536   -3.8377   -1.4221 C   0  0  0  0  0  0  0  0  0  0  0  0
   -4.3388   -5.2520   -1.4279 C   0  0  0  0  0  0  0  0  0  0  0  0
   -5.5419   -5.8082   -1.4194 N   0  0  0  0  0  0  0  0  0  0  0  0
   -6.6457   -5.0665   -1.4058 C   0  0  0  0  0  0  0  0  0  0  0  0
   -6.6218   -3.7469   -1.3994 N   0  0  0  0  0  0  0  0  0  0  0  0
   -5.4549   -3.0868   -1.4071 C   0  0  0  0  0  0  0  0  0  0  0  0
   -5.4031   -1.7546   -1.4004 N   0  0  0  0  0  0  0  0  0  0  0  0
   -4.2534   -1.1174   -1.4075 C   0  0  0  0  0  0  0  0  0  0  0  0
   -7.8709   -5.7052   -1.3976 N   0  0  0  0  0  0  0  0  0  0  0  0
   -3.2012   -6.0287   -1.4424 N   0  0  0  0  0  0  0  0  0  0  0  0
    4.8028    0.6965    0.8504 H   0  0  0  0  0  0  0  0  0  0  0  0
    4.7858    0.7060   -0.9294 H   0  0  0  0  0  0  0  0  0  0  0  0
    5.6212    2.0022   -0.0404 H   0  0  0  0  0  0  0  0  0  0  0  0
    3.3379   -0.5127   -0.0321 H   0  0  0  0  0  0  0  0  0  0  0  0
    1.2174   -1.7620   -0.0190 H   0  0  0  0  0  0  0  0  0  0  0  0
   -0.9592    1.9054    0.0170 H   0  0  0  0  0  0  0  0  0  0  0  0
   -0.6860    3.7854   -0.8602 H   0  0  0  0  0  0  0  0  0  0  0  0
   -0.6686    3.7753    0.9197 H   0  0  0  0  0  0  0  0  0  0  0  0
    0.0056    5.1624    0.0310 H   0  0  0  0  0  0  0  0  0  0  0  0
   -1.1469   -1.7271    0.5171 H   0  0  0  0  0  0  0  0  0  0  0  0
   -2.0557   -0.1967    0.5337 H   0  0  0  0  0  0  0  0  0  0  0  0
   -1.8921   -0.0728   -1.9374 H   0  0  0  0  0  0  0  0  0  0  0  0
   -0.9832   -1.6032   -1.9540 H   0  0  0  0  0  0  0  0  0  0  0  0
   -2.0938   -3.7116   -1.4515 H   0  0  0  0  0  0  0  0  0  0  0  0
   -4.2511   -0.0374   -1.4014 H   0  0  0  0  0  0  0  0  0  0  0  0
   -8.6893   -5.1845   -1.3873 H   0  0  0  0  0  0  0  0  0  0  0  0
   -7.9127   -6.6743   -1.4020 H   0  0  0  0  0  0  0  0  0  0  0  0
   -3.2743   -6.9959   -1.4466 H   0  0  0  0  0  0  0  0  0  0  0  0
   -2.3270   -5.6083   -1.4485 H   0  0  0  0  0  0  0  0  0  0  0  0
  1  2  1  0  0  0  0
  1 25  1  0  0  0  0
  1 26  1  0  0  0  0
  1 27  1  0  0  0  0
  2  3  1  0  0  0  0
  3  8  2  0  0  0  0
  3  4  1  0  0  0  0
  4  5  2  0  0  0  0
  4 28  1  0  0  0  0
  5  6  1  0  0  0  0
  5 29  1  0  0  0  0
  6  7  2  0  0  0  0
  6 11  1  0  0  0  0
  7  8  1  0  0  0  0
  7 30  1  0  0  0  0
  8  9  1  0  0  0  0
  9 10  1  0  0  0  0
 10 31  1  0  0  0  0
 10 32  1  0  0  0  0
 10 33  1  0  0  0  0
 11 12  1  0  0  0  0
 11 34  1  0  0  0  0
 11 35  1  0  0  0  0
 12 13  1  0  0  0  0
 12 36  1  0  0  0  0
 12 37  1  0  0  0  0
 13 22  2  0  0  0  0
 13 14  1  0  0  0  0
 14 15  2  0  0  0  0
 14 38  1  0  0  0  0
 15 20  1  0  0  0  0
 15 16  1  0  0  0  0
 16 17  2  0  0  0  0
 16 24  1  0  0  0  0
 17 18  1  0  0  0  0
 18 19  2  0  0  0  0
 18 23  1  0  0  0  0
 19 20  1  0  0  0  0
 20 21  2  0  0  0  0
 21 22  1  0  0  0  0
 22 39  1  0  0  0  0
 23 40  1  0  0  0  0
 23 41  1  0  0  0  0
 24 42  1  0  0  0  0
 24 43  1  0  0  0  0
M  END
$$$$
ZINC03814981
  -OEChem-08230709403D

 44 46  0     0  0  0  0  0  0999 V2000
    4.7634    1.3298   -0.0358 C   0  0  0  0  0  0  0  0  0  0  0  0
    3.5574    2.0963   -0.0202 O   0  0  0  0  0  0  0  0  0  0  0  0
    2.3864    1.4049   -0.0127 C   0  0  0  0  0  0  0  0  0  0  0  0
    2.3981    0.0193   -0.0203 C   0  0  0  0  0  0  0  0  0  0  0  0
    1.2069   -0.6820   -0.0131 C   0  0  0  0  0  0  0  0  0  0  0  0
    0.0021   -0.0041    0.0020 C   0  0  0  0  0  0  0  0  0  0  0  0
   -0.0167    1.3782    0.0096 C   0  0  0  0  0  0  0  0  0  0  0  0
    1.1738    2.0873    0.0021 C   0  0  0  0  0  0  0  0  0  0  0  0
    1.1571    3.4471    0.0100 O   0  0  0  0  0  0  0  0  0  0  0  0
   -0.1240    4.0801    0.0261 C   0  0  0  0  0  0  0  0  0  0  0  0
   -1.2936   -0.7736    0.0098 C   0  0  0  0  0  0  0  0  0  0  0  0
   -1.7453   -1.0263   -1.4300 C   0  0  0  0  0  0  0  0  0  0  0  0
   -3.0410   -1.7958   -1.4223 C   0  0  0  0  0  0  0  0  0  0  0  0
   -3.0258   -3.1661   -1.4355 C   0  0  0  0  0  0  0  0  0  0  0  0
   -4.2536   -3.8377   -1.4221 C   0  0  0  0  0  0  0  0  0  0  0  0
   -4.3388   -5.2520   -1.4279 C   0  0  0  0  0  0  0  0  0  0  0  0
   -5.5419   -5.8082   -1.4194 N   0  0  0  0  0  0  0  0  0  0  0  0
   -6.6457   -5.0665   -1.4058 C   0  0  0  0  0  0  0  0  0  0  0  0
   -5.4549   -3.0868   -1.4071 C   0  0  0  0  0  0  0  0  0  0  0  0
   -5.4031   -1.7546   -1.4004 N   0  0  0  0  0  0  0  0  0  0  0  0
   -4.2534   -1.1174   -1.4075 C   0  0  0  0  0  0  0  0  0  0  0  0
   -7.8709   -5.7052   -1.3976 N   0  0  0  0  0  0  0  0  0  0  0  0
   -3.2012   -6.0287   -1.4424 N   0  0  0  0  0  0  0  0  0  0  0  0
    4.8028    0.6965    0.8504 H   0  0  0  0  0  0  0  0  0  0  0  0
    4.7858    0.7060   -0.9294 H   0  0  0  0  0  0  0  0  0  0  0  0
    5.6212    2.0022   -0.0404 H   0  0  0  0  0  0  0  0  0  0  0  0
    3.3379   -0.5127   -0.0321 H   0  0  0  0  0  0  0  0  0  0  0  0
    1.2174   -1.7620   -0.0190 H   0  0  0  0  0  0  0  0  0  0  0  0
   -0.9592    1.9054    0.0170 H   0  0  0  0  0  0  0  0  0  0  0  0
   -0.6860    3.7854   -0.8602 H   0  0  0  0  0  0  0  0  0  0  0  0
   -0.6686    3.7753    0.9197 H   0  0  0  0  0  0  0  0  0  0  0  0
    0.0056    5.1624    0.0310 H   0  0  0  0  0  0  0  0  0  0  0  0
   -1.1469   -1.7271    0.5171 H   0  0  0  0  0  0  0  0  0  0  0  0
   -2.0557   -0.1967    0.5337 H   0  0  0  0  0  0  0  0  0  0  0  0
   -1.8921   -0.0728   -1.9374 H   0  0  0  0  0  0  0  0  0  0  0  0
   -0.9832   -1.6032   -1.9540 H   0  0  0  0  0  0  0  0  0  0  0  0
   -2.0938   -3.7116   -1.4515 H   0  0  0  0  0  0  0  0  0  0  0  0
   -4.2511   -0.0374   -1.4014 H   0  0  0  0  0  0  0  0  0  0  0  0
   -8.6893   -5.1845   -1.3873 H   0  0  0  0  0  0  0  0  0  0  0  0
   -7.9127   -6.6743   -1.4020 H   0  0  0  0  0  0  0  0  0  0  0  0
   -3.2743   -6.9959   -1.4466 H   0  0  0  0  0  0  0  0  0  0  0  0
   -2.3270   -5.6083   -1.4485 H   0  0  0  0  0  0  0  0  0  0  0  0
   -6.6839   -3.7102   -1.3986 N   0  3  0  0  0  0  0  0  0  0  0  0
   -7.5637   -3.2349   -1.3879 H   0  0  0  0  0  0  0  0  0  0  0  0
  1  2  1  0  0  0  0
  1 24  1  0  0  0  0
  1 25  1  0  0  0  0
  1 26  1  0  0  0  0
  2  3  1  0  0  0  0
  3  8  2  0  0  0  0
  3  4  1  0  0  0  0
  4  5  2  0  0  0  0
  4 27  1  0  0  0  0
  5  6  1  0  0  0  0
  5 28  1  0  0  0  0
  6  7  2  0  0  0  0
  6 11  1  0  0  0  0
  7  8  1  0  0  0  0
  7 29  1  0  0  0  0
  8  9  1  0  0  0  0
  9 10  1  0  0  0  0
 10 30  1  0  0  0  0
 10 31  1  0  0  0  0
 10 32  1  0  0  0  0
 11 12  1  0  0  0  0
 11 33  1  0  0  0  0
 11 34  1  0  0  0  0
 12 13  1  0  0  0  0
 12 35  1  0  0  0  0
 12 36  1  0  0  0  0
 13 21  2  0  0  0  0
 13 14  1  0  0  0  0
 14 15  2  0  0  0  0
 14 37  1  0  0  0  0
 15 19  1  0  0  0  0
 15 16  1  0  0  0  0
 16 17  2  0  0  0  0
 16 23  1  0  0  0  0
 17 18  1  0  0  0  0
 18 22  1  0  0  0  0
 18 43  2  0  0  0  0
 19 20  2  0  0  0  0
 19 43  1  0  0  0  0
 20 21  1  0  0  0  0
 21 38  1  0  0  0  0
 22 39  1  0  0  0  0
 22 40  1  0  0  0  0
 23 41  1  0  0  0  0
 23 42  1  0  0  0  0
 43 44  1  0  0  0  0
M  CHG  1  43   1
M  END
$$$$
ZINC03814982
  -OEChem-08230709403D

 39 41  0     0  0  0  0  0  0999 V2000
    4.7725    0.1638   -0.0424 C   0  0  0  0  0  0  0  0  0  0  0  0
    3.5855   -0.6319   -0.0353 O   0  0  0  0  0  0  0  0  0  0  0  0
    2.3989    0.0304   -0.0208 C   0  0  0  0  0  0  0  0  0  0  0  0
    1.2070   -0.6796   -0.0132 C   0  0  0  0  0  0  0  0  0  0  0  0
    0.0021   -0.0041    0.0020 C   0  0  0  0  0  0  0  0  0  0  0  0
   -0.0167    1.3784    0.0096 C   0  0  0  0  0  0  0  0  0  0  0  0
    1.1698    2.0883    0.0021 C   0  0  0  0  0  0  0  0  0  0  0  0
    2.3774    1.4175   -0.0131 C   0  0  0  0  0  0  0  0  0  0  0  0
   -1.3326    2.1128    0.0199 C   0  0  0  0  0  0  0  0  0  0  0  0
   -1.7711    2.3535    1.4658 C   0  0  0  0  0  0  0  0  0  0  0  0
   -3.0870    3.0879    1.4760 C   0  0  0  0  0  0  0  0  0  0  0  0
   -3.1085    4.4581    1.4893 C   0  0  0  0  0  0  0  0  0  0  0  0
   -4.3539    5.0965    1.4939 C   0  0  0  0  0  0  0  0  0  0  0  0
   -4.4771    6.5080    1.5021 C   0  0  0  0  0  0  0  0  0  0  0  0
   -5.6947    7.0316    1.5103 N   0  0  0  0  0  0  0  0  0  0  0  0
   -6.7782    6.2604    1.5109 C   0  0  0  0  0  0  0  0  0  0  0  0
   -6.7189    4.9420    1.5034 N   0  0  0  0  0  0  0  0  0  0  0  0
   -5.5347    4.3135    1.4948 C   0  0  0  0  0  0  0  0  0  0  0  0
   -5.4472    2.9832    1.4866 N   0  0  0  0  0  0  0  0  0  0  0  0
   -4.2808    2.3772    1.4778 C   0  0  0  0  0  0  0  0  0  0  0  0
   -8.0202    6.8660    1.5192 N   0  0  0  0  0  0  0  0  0  0  0  0
   -3.3606    7.3150    1.5021 N   0  0  0  0  0  0  0  0  0  0  0  0
    4.7965    0.7884    0.8506 H   0  0  0  0  0  0  0  0  0  0  0  0
    5.6464   -0.4875   -0.0539 H   0  0  0  0  0  0  0  0  0  0  0  0
    4.7798    0.7974   -0.9293 H   0  0  0  0  0  0  0  0  0  0  0  0
    1.2211   -1.7595   -0.0195 H   0  0  0  0  0  0  0  0  0  0  0  0
   -0.9260   -0.5563    0.0083 H   0  0  0  0  0  0  0  0  0  0  0  0
    1.1525    3.1682    0.0077 H   0  0  0  0  0  0  0  0  0  0  0  0
    3.3039    1.9724   -0.0187 H   0  0  0  0  0  0  0  0  0  0  0  0
   -1.2185    3.0698   -0.4893 H   0  0  0  0  0  0  0  0  0  0  0  0
   -2.0860    1.5155   -0.4937 H   0  0  0  0  0  0  0  0  0  0  0  0
   -1.8851    1.3965    1.9750 H   0  0  0  0  0  0  0  0  0  0  0  0
   -1.0176    2.9508    1.9793 H   0  0  0  0  0  0  0  0  0  0  0  0
   -2.1914    5.0285    1.4923 H   0  0  0  0  0  0  0  0  0  0  0  0
   -4.2495    1.2976    1.4714 H   0  0  0  0  0  0  0  0  0  0  0  0
   -8.8243    6.3234    1.5194 H   0  0  0  0  0  0  0  0  0  0  0  0
   -8.0880    7.8336    1.5247 H   0  0  0  0  0  0  0  0  0  0  0  0
   -3.4596    8.2799    1.5081 H   0  0  0  0  0  0  0  0  0  0  0  0
   -2.4755    6.9183    1.4960 H   0  0  0  0  0  0  0  0  0  0  0  0
  1  2  1  0  0  0  0
  1 23  1  0  0  0  0
  1 24  1  0  0  0  0
  1 25  1  0  0  0  0
  2  3  1  0  0  0  0
  3  8  2  0  0  0  0
  3  4  1  0  0  0  0
  4  5  2  0  0  0  0
  4 26  1  0  0  0  0
  5  6  1  0  0  0  0
  5 27  1  0  0  0  0
  6  7  2  0  0  0  0
  6  9  1  0  0  0  0
  7  8  1  0  0  0  0
  7 28  1  0  0  0  0
  8 29  1  0  0  0  0
  9 10  1  0  0  0  0
  9 30  1  0  0  0  0
  9 31  1  0  0  0  0
 10 11  1  0  0  0  0
 10 32  1  0  0  0  0
 10 33  1  0  0  0  0
 11 20  2  0  0  0  0
 11 12  1  0  0  0  0
 12 13  2  0  0  0  0
 12 34  1  0  0  0  0
 13 18  1  0  0  0  0
 13 14  1  0  0  0  0
 14 15  2  0  0  0  0
 14 22  1  0  0  0  0
 15 16  1  0  0  0  0
 16 17  2  0  0  0  0
 16 21  1  0  0  0  0
 17 18  1  0  0  0  0
 18 19  2  0  0  0  0
 19 20  1  0  0  0  0
 20 35  1  0  0  0  0
 21 36  1  0  0  0  0
 21 37  1  0  0  0  0
 22 38  1  0  0  0  0
 22 39  1  0  0  0  0
M  END
$$$$
ZINC03814982
  -OEChem-08230709403D

 40 42  0     0  0  0  0  0  0999 V2000
    4.7725    0.1638   -0.0424 C   0  0  0  0  0  0  0  0  0  0  0  0
    3.5855   -0.6319   -0.0353 O   0  0  0  0  0  0  0  0  0  0  0  0
    2.3989    0.0304   -0.0208 C   0  0  0  0  0  0  0  0  0  0  0  0
    1.2070   -0.6796   -0.0132 C   0  0  0  0  0  0  0  0  0  0  0  0
    0.0021   -0.0041    0.0020 C   0  0  0  0  0  0  0  0  0  0  0  0
   -0.0167    1.3784    0.0096 C   0  0  0  0  0  0  0  0  0  0  0  0
    1.1698    2.0883    0.0021 C   0  0  0  0  0  0  0  0  0  0  0  0
    2.3774    1.4175   -0.0131 C   0  0  0  0  0  0  0  0  0  0  0  0
   -1.3326    2.1128    0.0199 C   0  0  0  0  0  0  0  0  0  0  0  0
   -1.7711    2.3535    1.4658 C   0  0  0  0  0  0  0  0  0  0  0  0
   -3.0870    3.0879    1.4760 C   0  0  0  0  0  0  0  0  0  0  0  0
   -3.1085    4.4581    1.4893 C   0  0  0  0  0  0  0  0  0  0  0  0
   -4.3539    5.0965    1.4939 C   0  0  0  0  0  0  0  0  0  0  0  0
   -4.4771    6.5080    1.5021 C   0  0  0  0  0  0  0  0  0  0  0  0
   -5.6947    7.0316    1.5103 N   0  0  0  0  0  0  0  0  0  0  0  0
   -6.7782    6.2604    1.5109 C   0  0  0  0  0  0  0  0  0  0  0  0
   -5.5347    4.3135    1.4948 C   0  0  0  0  0  0  0  0  0  0  0  0
   -5.4472    2.9832    1.4866 N   0  0  0  0  0  0  0  0  0  0  0  0
   -4.2808    2.3772    1.4778 C   0  0  0  0  0  0  0  0  0  0  0  0
   -8.0202    6.8660    1.5192 N   0  0  0  0  0  0  0  0  0  0  0  0
   -3.3606    7.3150    1.5021 N   0  0  0  0  0  0  0  0  0  0  0  0
    4.7965    0.7884    0.8506 H   0  0  0  0  0  0  0  0  0  0  0  0
    5.6464   -0.4875   -0.0539 H   0  0  0  0  0  0  0  0  0  0  0  0
    4.7798    0.7974   -0.9293 H   0  0  0  0  0  0  0  0  0  0  0  0
    1.2211   -1.7595   -0.0195 H   0  0  0  0  0  0  0  0  0  0  0  0
   -0.9260   -0.5563    0.0083 H   0  0  0  0  0  0  0  0  0  0  0  0
    1.1525    3.1682    0.0077 H   0  0  0  0  0  0  0  0  0  0  0  0
    3.3039    1.9724   -0.0187 H   0  0  0  0  0  0  0  0  0  0  0  0
   -1.2185    3.0698   -0.4893 H   0  0  0  0  0  0  0  0  0  0  0  0
   -2.0860    1.5155   -0.4937 H   0  0  0  0  0  0  0  0  0  0  0  0
   -1.8851    1.3965    1.9750 H   0  0  0  0  0  0  0  0  0  0  0  0
   -1.0176    2.9508    1.9793 H   0  0  0  0  0  0  0  0  0  0  0  0
   -2.1914    5.0285    1.4923 H   0  0  0  0  0  0  0  0  0  0  0  0
   -4.2495    1.2976    1.4714 H   0  0  0  0  0  0  0  0  0  0  0  0
   -8.8243    6.3234    1.5194 H   0  0  0  0  0  0  0  0  0  0  0  0
   -8.0880    7.8336    1.5247 H   0  0  0  0  0  0  0  0  0  0  0  0
   -3.4596    8.2799    1.5081 H   0  0  0  0  0  0  0  0  0  0  0  0
   -2.4755    6.9183    1.4960 H   0  0  0  0  0  0  0  0  0  0  0  0
   -6.7800    4.9037    1.5035 N   0  3  0  0  0  0  0  0  0  0  0  0
   -7.6467    4.4048    1.5045 H   0  0  0  0  0  0  0  0  0  0  0  0
  1  2  1  0  0  0  0
  1 22  1  0  0  0  0
  1 23  1  0  0  0  0
  1 24  1  0  0  0  0
  2  3  1  0  0  0  0
  3  8  2  0  0  0  0
  3  4  1  0  0  0  0
  4  5  2  0  0  0  0
  4 25  1  0  0  0  0
  5  6  1  0  0  0  0
  5 26  1  0  0  0  0
  6  7  2  0  0  0  0
  6  9  1  0  0  0  0
  7  8  1  0  0  0  0
  7 27  1  0  0  0  0
  8 28  1  0  0  0  0
  9 10  1  0  0  0  0
  9 29  1  0  0  0  0
  9 30  1  0  0  0  0
 10 11  1  0  0  0  0
 10 31  1  0  0  0  0
 10 32  1  0  0  0  0
 11 19  2  0  0  0  0
 11 12  1  0  0  0  0
 12 13  2  0  0  0  0
 12 33  1  0  0  0  0
 13 17  1  0  0  0  0
 13 14  1  0  0  0  0
 14 15  2  0  0  0  0
 14 21  1  0  0  0  0
 15 16  1  0  0  0  0
 16 20  1  0  0  0  0
 16 39  2  0  0  0  0
 17 18  2  0  0  0  0
 17 39  1  0  0  0  0
 18 19  1  0  0  0  0
 19 34  1  0  0  0  0
 20 35  1  0  0  0  0
 20 36  1  0  0  0  0
 21 37  1  0  0  0  0
 21 38  1  0  0  0  0
 39 40  1  0  0  0  0
M  CHG  1  39   1
M  END
$$$$
ZINC03814983
  -OEChem-08230709403D

 49 51  0     1  0  0  0  0  0999 V2000
    0.8399    5.4433   -1.5842 C   0  0  0  0  0  0  0  0  0  0  0  0
    0.1669    5.9883   -0.4025 N   0  0  3  0  0  0  0  0  0  0  0  0
    0.0528    7.4384   -0.2282 C   0  0  0  0  0  0  0  0  0  0  0  0
    1.2508    7.9490    0.5301 C   0  0  0  0  0  0  0  0  0  0  0  0
    1.2187    8.0186    1.8984 C   0  0  0  0  0  0  0  0  0  0  0  0
    2.3564    8.4951    2.5597 C   0  0  0  0  0  0  0  0  0  0  0  0
    2.4195    8.5982    3.9714 C   0  0  0  0  0  0  0  0  0  0  0  0
    3.5339    9.0638    4.5174 N   0  0  0  0  0  0  0  0  0  0  0  0
    4.5707    9.4272    3.7680 C   0  0  0  0  0  0  0  0  0  0  0  0
    4.5637    9.3513    2.4504 N   0  0  0  0  0  0  0  0  0  0  0  0
    3.4842    8.8935    1.8003 C   0  0  0  0  0  0  0  0  0  0  0  0
    3.4515    8.8063    0.4704 N   0  0  0  0  0  0  0  0  0  0  0  0
    2.3879    8.3555   -0.1569 C   0  0  0  0  0  0  0  0  0  0  0  0
    5.7050    9.9047    4.3962 N   0  0  0  0  0  0  0  0  0  0  0  0
    1.3506    8.2247    4.7559 N   0  0  0  0  0  0  0  0  0  0  0  0
   -0.3668    5.1239    0.5594 C   0  0  0  0  0  0  0  0  0  0  0  0
   -1.0042    5.6407    1.6793 C   0  0  0  0  0  0  0  0  0  0  0  0
   -1.5332    4.7848    2.6328 C   0  0  0  0  0  0  0  0  0  0  0  0
   -1.4310    3.4092    2.4644 C   0  0  0  0  0  0  0  0  0  0  0  0
   -0.7875    2.8927    1.3463 C   0  0  0  0  0  0  0  0  0  0  0  0
   -0.2585    3.7497    0.3938 C   0  0  0  0  0  0  0  0  0  0  0  0
   -0.6816    1.5467    1.1837 O   0  0  0  0  0  0  0  0  0  0  0  0
   -0.0127    1.0858    0.0080 C   0  0  0  0  0  0  0  0  0  0  0  0
   -1.9563    2.5677    3.3975 O   0  0  0  0  0  0  0  0  0  0  0  0
   -1.1009    2.1770    4.4736 C   0  0  0  0  0  0  0  0  0  0  0  0
   -2.1575    5.2912    3.7297 O   0  0  0  0  0  0  0  0  0  0  0  0
   -2.2316    6.7144    3.8348 C   0  0  0  0  0  0  0  0  0  0  0  0
    0.1120    5.2985   -2.3824 H   0  0  0  0  0  0  0  0  0  0  0  0
    1.6103    6.1391   -1.9167 H   0  0  0  0  0  0  0  0  0  0  0  0
    1.2983    4.4869   -1.3325 H   0  0  0  0  0  0  0  0  0  0  0  0
    0.0091    7.9195   -1.2053 H   0  0  0  0  0  0  0  0  0  0  0  0
   -0.8551    7.6668    0.3302 H   0  0  0  0  0  0  0  0  0  0  0  0
    0.3428    7.7112    2.4504 H   0  0  0  0  0  0  0  0  0  0  0  0
    2.3984    8.2993   -1.2354 H   0  0  0  0  0  0  0  0  0  0  0  0
    6.4735   10.1754    3.8698 H   0  0  0  0  0  0  0  0  0  0  0  0
    5.7328    9.9693    5.3637 H   0  0  0  0  0  0  0  0  0  0  0  0
    1.4074    8.3008    5.7213 H   0  0  0  0  0  0  0  0  0  0  0  0
    0.5410    7.8855    4.3430 H   0  0  0  0  0  0  0  0  0  0  0  0
   -1.0875    6.7097    1.8078 H   0  0  0  0  0  0  0  0  0  0  0  0
    0.2378    3.3484   -0.4774 H   0  0  0  0  0  0  0  0  0  0  0  0
    0.0021   -0.0041    0.0020 H   0  0  0  0  0  0  0  0  0  0  0  0
    1.0099    1.4631    0.0003 H   0  0  0  0  0  0  0  0  0  0  0  0
   -0.5399    1.4469   -0.8751 H   0  0  0  0  0  0  0  0  0  0  0  0
   -0.2267    1.6627    4.0745 H   0  0  0  0  0  0  0  0  0  0  0  0
   -0.7820    3.0622    5.0239 H   0  0  0  0  0  0  0  0  0  0  0  0
   -1.6417    1.5082    5.1431 H   0  0  0  0  0  0  0  0  0  0  0  0
   -2.7527    6.9843    4.7533 H   0  0  0  0  0  0  0  0  0  0  0  0
   -1.2243    7.1304    3.8529 H   0  0  0  0  0  0  0  0  0  0  0  0
   -2.7744    7.1142    2.9782 H   0  0  0  0  0  0  0  0  0  0  0  0
  1  2  1  0  0  0  0
  1 28  1  0  0  0  0
  1 29  1  0  0  0  0
  1 30  1  0  0  0  0
  2  3  1  0  0  0  0
  2 16  1  0  0  0  0
  3  4  1  0  0  0  0
  3 31  1  0  0  0  0
  3 32  1  0  0  0  0
  4 13  2  0  0  0  0
  4  5  1  0  0  0  0
  5  6  2  0  0  0  0
  5 33  1  0  0  0  0
  6 11  1  0  0  0  0
  6  7  1  0  0  0  0
  7  8  2  0  0  0  0
  7 15  1  0  0  0  0
  8  9  1  0  0  0  0
  9 10  2  0  0  0  0
  9 14  1  0  0  0  0
 10 11  1  0  0  0  0
 11 12  2  0  0  0  0
 12 13  1  0  0  0  0
 13 34  1  0  0  0  0
 14 35  1  0  0  0  0
 14 36  1  0  0  0  0
 15 37  1  0  0  0  0
 15 38  1  0  0  0  0
 16 21  2  0  0  0  0
 16 17  1  0  0  0  0
 17 18  2  0  0  0  0
 17 39  1  0  0  0  0
 18 19  1  0  0  0  0
 18 26  1  0  0  0  0
 19 20  2  0  0  0  0
 19 24  1  0  0  0  0
 20 21  1  0  0  0  0
 20 22  1  0  0  0  0
 21 40  1  0  0  0  0
 22 23  1  0  0  0  0
 23 41  1  0  0  0  0
 23 42  1  0  0  0  0
 23 43  1  0  0  0  0
 24 25  1  0  0  0  0
 25 44  1  0  0  0  0
 25 45  1  0  0  0  0
 25 46  1  0  0  0  0
 26 27  1  0  0  0  0
 27 47  1  0  0  0  0
 27 48  1  0  0  0  0
 27 49  1  0  0  0  0
M  END
$$$$
ZINC03814983
  -OEChem-08230709403D

 50 52  0     1  0  0  0  0  0999 V2000
    0.8399    5.4433   -1.5842 C   0  0  0  0  0  0  0  0  0  0  0  0
    0.1669    5.9883   -0.4025 N   0  0  3  0  0  0  0  0  0  0  0  0
    0.0528    7.4384   -0.2282 C   0  0  0  0  0  0  0  0  0  0  0  0
    1.2508    7.9490    0.5301 C   0  0  0  0  0  0  0  0  0  0  0  0
    1.2187    8.0186    1.8984 C   0  0  0  0  0  0  0  0  0  0  0  0
    2.3564    8.4951    2.5597 C   0  0  0  0  0  0  0  0  0  0  0  0
    2.4195    8.5982    3.9714 C   0  0  0  0  0  0  0  0  0  0  0  0
    3.5339    9.0638    4.5174 N   0  0  0  0  0  0  0  0  0  0  0  0
    4.5707    9.4272    3.7680 C   0  0  0  0  0  0  0  0  0  0  0  0
    3.4842    8.8935    1.8003 C   0  0  0  0  0  0  0  0  0  0  0  0
    3.4515    8.8063    0.4704 N   0  0  0  0  0  0  0  0  0  0  0  0
    2.3879    8.3555   -0.1569 C   0  0  0  0  0  0  0  0  0  0  0  0
    5.7050    9.9047    4.3962 N   0  0  0  0  0  0  0  0  0  0  0  0
    1.3506    8.2247    4.7559 N   0  0  0  0  0  0  0  0  0  0  0  0
   -0.3668    5.1239    0.5594 C   0  0  0  0  0  0  0  0  0  0  0  0
   -1.0042    5.6407    1.6793 C   0  0  0  0  0  0  0  0  0  0  0  0
   -1.5332    4.7848    2.6328 C   0  0  0  0  0  0  0  0  0  0  0  0
   -1.4310    3.4092    2.4644 C   0  0  0  0  0  0  0  0  0  0  0  0
   -0.7875    2.8927    1.3463 C   0  0  0  0  0  0  0  0  0  0  0  0
   -0.2585    3.7497    0.3938 C   0  0  0  0  0  0  0  0  0  0  0  0
   -0.6816    1.5467    1.1837 O   0  0  0  0  0  0  0  0  0  0  0  0
   -0.0127    1.0858    0.0080 C   0  0  0  0  0  0  0  0  0  0  0  0
   -1.9563    2.5677    3.3975 O   0  0  0  0  0  0  0  0  0  0  0  0
   -1.1009    2.1770    4.4736 C   0  0  0  0  0  0  0  0  0  0  0  0
   -2.1575    5.2912    3.7297 O   0  0  0  0  0  0  0  0  0  0  0  0
   -2.2316    6.7144    3.8348 C   0  0  0  0  0  0  0  0  0  0  0  0
    0.1120    5.2985   -2.3824 H   0  0  0  0  0  0  0  0  0  0  0  0
    1.6103    6.1391   -1.9167 H   0  0  0  0  0  0  0  0  0  0  0  0
    1.2983    4.4869   -1.3325 H   0  0  0  0  0  0  0  0  0  0  0  0
    0.0091    7.9195   -1.2053 H   0  0  0  0  0  0  0  0  0  0  0  0
   -0.8551    7.6668    0.3302 H   0  0  0  0  0  0  0  0  0  0  0  0
    0.3428    7.7112    2.4504 H   0  0  0  0  0  0  0  0  0  0  0  0
    2.3984    8.2993   -1.2354 H   0  0  0  0  0  0  0  0  0  0  0  0
    6.4735   10.1754    3.8698 H   0  0  0  0  0  0  0  0  0  0  0  0
    5.7328    9.9693    5.3637 H   0  0  0  0  0  0  0  0  0  0  0  0
    1.4074    8.3008    5.7213 H   0  0  0  0  0  0  0  0  0  0  0  0
    0.5410    7.8855    4.3430 H   0  0  0  0  0  0  0  0  0  0  0  0
   -1.0875    6.7097    1.8078 H   0  0  0  0  0  0  0  0  0  0  0  0
    0.2378    3.3484   -0.4774 H   0  0  0  0  0  0  0  0  0  0  0  0
    0.0021   -0.0041    0.0020 H   0  0  0  0  0  0  0  0  0  0  0  0
    1.0099    1.4631    0.0003 H   0  0  0  0  0  0  0  0  0  0  0  0
   -0.5399    1.4469   -0.8751 H   0  0  0  0  0  0  0  0  0  0  0  0
   -0.2267    1.6627    4.0745 H   0  0  0  0  0  0  0  0  0  0  0  0
   -0.7820    3.0622    5.0239 H   0  0  0  0  0  0  0  0  0  0  0  0
   -1.6417    1.5082    5.1431 H   0  0  0  0  0  0  0  0  0  0  0  0
   -2.7527    6.9843    4.7533 H   0  0  0  0  0  0  0  0  0  0  0  0
   -1.2243    7.1304    3.8529 H   0  0  0  0  0  0  0  0  0  0  0  0
   -2.7744    7.1142    2.9782 H   0  0  0  0  0  0  0  0  0  0  0  0
    4.6220    9.3720    2.4133 N   0  3  0  0  0  0  0  0  0  0  0  0
    5.4471    9.6676    1.9317 H   0  0  0  0  0  0  0  0  0  0  0  0
  1  2  1  0  0  0  0
  1 27  1  0  0  0  0
  1 28  1  0  0  0  0
  1 29  1  0  0  0  0
  2  3  1  0  0  0  0
  2 15  1  0  0  0  0
  3  4  1  0  0  0  0
  3 30  1  0  0  0  0
  3 31  1  0  0  0  0
  4 12  2  0  0  0  0
  4  5  1  0  0  0  0
  5  6  2  0  0  0  0
  5 32  1  0  0  0  0
  6 10  1  0  0  0  0
  6  7  1  0  0  0  0
  7  8  2  0  0  0  0
  7 14  1  0  0  0  0
  8  9  1  0  0  0  0
  9 13  1  0  0  0  0
  9 49  2  0  0  0  0
 10 11  2  0  0  0  0
 10 49  1  0  0  0  0
 11 12  1  0  0  0  0
 12 33  1  0  0  0  0
 13 34  1  0  0  0  0
 13 35  1  0  0  0  0
 14 36  1  0  0  0  0
 14 37  1  0  0  0  0
 15 20  2  0  0  0  0
 15 16  1  0  0  0  0
 16 17  2  0  0  0  0
 16 38  1  0  0  0  0
 17 18  1  0  0  0  0
 17 25  1  0  0  0  0
 18 19  2  0  0  0  0
 18 23  1  0  0  0  0
 19 20  1  0  0  0  0
 19 21  1  0  0  0  0
 20 39  1  0  0  0  0
 21 22  1  0  0  0  0
 22 40  1  0  0  0  0
 22 41  1  0  0  0  0
 22 42  1  0  0  0  0
 23 24  1  0  0  0  0
 24 43  1  0  0  0  0
 24 44  1  0  0  0  0
 24 45  1  0  0  0  0
 25 26  1  0  0  0  0
 26 46  1  0  0  0  0
 26 47  1  0  0  0  0
 26 48  1  0  0  0  0
 49 50  1  0  0  0  0
M  CHG  1  49   1
M  END
$$$$
ZINC03814984
  -OEChem-08230709403D

 52 54  0     1  0  0  0  0  0999 V2000
   -0.0187    1.5258    0.0104 C   0  0  0  0  0  0  0  0  0  0  0  0
    0.0021   -0.0041    0.0020 C   0  0  0  0  0  0  0  0  0  0  0  0
    0.6878   -0.4765   -1.2033 N   0  0  3  0  0  0  0  0  0  0  0  0
    2.1353   -0.7012   -1.1821 C   0  0  0  0  0  0  0  0  0  0  0  0
    2.4170   -2.1231   -0.7698 C   0  0  0  0  0  0  0  0  0  0  0  0
    2.5865   -2.4333    0.5543 C   0  0  0  0  0  0  0  0  0  0  0  0
    2.8417   -3.7677    0.8899 C   0  0  0  0  0  0  0  0  0  0  0  0
    3.0255   -4.1855    2.2313 C   0  0  0  0  0  0  0  0  0  0  0  0
    3.2674   -5.4681    2.4615 N   0  0  0  0  0  0  0  0  0  0  0  0
    3.3376   -6.3473    1.4661 C   0  0  0  0  0  0  0  0  0  0  0  0
    3.1741   -6.0108    0.2005 N   0  0  0  0  0  0  0  0  0  0  0  0
    2.9249   -4.7381   -0.1392 C   0  0  0  0  0  0  0  0  0  0  0  0
    2.7554   -4.3719   -1.4099 N   0  0  0  0  0  0  0  0  0  0  0  0
    2.5110   -3.1211   -1.7317 C   0  0  0  0  0  0  0  0  0  0  0  0
    3.5923   -7.6709    1.7703 N   0  0  0  0  0  0  0  0  0  0  0  0
    2.9551   -3.2821    3.2689 N   0  0  0  0  0  0  0  0  0  0  0  0
   -0.0397   -0.7132   -2.3747 C   0  0  0  0  0  0  0  0  0  0  0  0
    0.6113   -1.1554   -3.5183 C   0  0  0  0  0  0  0  0  0  0  0  0
   -0.1096   -1.3947   -4.6779 C   0  0  0  0  0  0  0  0  0  0  0  0
   -1.4827   -1.1821   -4.6983 C   0  0  0  0  0  0  0  0  0  0  0  0
   -2.1329   -0.7344   -3.5547 C   0  0  0  0  0  0  0  0  0  0  0  0
   -1.4114   -0.5001   -2.3944 C   0  0  0  0  0  0  0  0  0  0  0  0
   -3.4766   -0.5256   -3.5739 O   0  0  0  0  0  0  0  0  0  0  0  0
   -4.0789   -0.0647   -2.3627 C   0  0  0  0  0  0  0  0  0  0  0  0
   -2.1910   -1.4129   -5.8385 O   0  0  0  0  0  0  0  0  0  0  0  0
   -2.3368   -0.3175   -6.7445 C   0  0  0  0  0  0  0  0  0  0  0  0
    0.5275   -1.8328   -5.7966 O   0  0  0  0  0  0  0  0  0  0  0  0
    1.9398   -2.0298   -5.7038 C   0  0  0  0  0  0  0  0  0  0  0  0
    1.0039    1.9031    0.0027 H   0  0  0  0  0  0  0  0  0  0  0  0
   -0.5459    1.8868   -0.8726 H   0  0  0  0  0  0  0  0  0  0  0  0
   -0.5289    1.8773    0.9072 H   0  0  0  0  0  0  0  0  0  0  0  0
    0.5293   -0.3651    0.8851 H   0  0  0  0  0  0  0  0  0  0  0  0
   -1.0205   -0.3814    0.0098 H   0  0  0  0  0  0  0  0  0  0  0  0
    2.5453   -0.5232   -2.1762 H   0  0  0  0  0  0  0  0  0  0  0  0
    2.5986   -0.0180   -0.4703 H   0  0  0  0  0  0  0  0  0  0  0  0
    2.5212   -1.6710    1.3167 H   0  0  0  0  0  0  0  0  0  0  0  0
    2.3794   -2.8623   -2.7720 H   0  0  0  0  0  0  0  0  0  0  0  0
    3.6475   -8.3297    1.0605 H   0  0  0  0  0  0  0  0  0  0  0  0
    3.7158   -7.9413    2.6937 H   0  0  0  0  0  0  0  0  0  0  0  0
    3.0833   -3.5819    4.1824 H   0  0  0  0  0  0  0  0  0  0  0  0
    2.7773   -2.3463    3.0859 H   0  0  0  0  0  0  0  0  0  0  0  0
    1.6791   -1.3166   -3.5035 H   0  0  0  0  0  0  0  0  0  0  0  0
   -1.9166   -0.1522   -1.5056 H   0  0  0  0  0  0  0  0  0  0  0  0
   -5.1509    0.0606   -2.5148 H   0  0  0  0  0  0  0  0  0  0  0  0
   -3.9070   -0.7940   -1.5711 H   0  0  0  0  0  0  0  0  0  0  0  0
   -3.6381    0.8908   -2.0784 H   0  0  0  0  0  0  0  0  0  0  0  0
   -1.3524    0.0154   -7.0736 H   0  0  0  0  0  0  0  0  0  0  0  0
   -2.9203   -0.6358   -7.6085 H   0  0  0  0  0  0  0  0  0  0  0  0
   -2.8490    0.5034   -6.2427 H   0  0  0  0  0  0  0  0  0  0  0  0
    2.4217   -1.0877   -5.4423 H   0  0  0  0  0  0  0  0  0  0  0  0
    2.1533   -2.7727   -4.9352 H   0  0  0  0  0  0  0  0  0  0  0  0
    2.3217   -2.3793   -6.6630 H   0  0  0  0  0  0  0  0  0  0  0  0
  1  2  1  0  0  0  0
  1 29  1  0  0  0  0
  1 30  1  0  0  0  0
  1 31  1  0  0  0  0
  2  3  1  0  0  0  0
  2 32  1  0  0  0  0
  2 33  1  0  0  0  0
  3  4  1  0  0  0  0
  3 17  1  0  0  0  0
  4  5  1  0  0  0  0
  4 34  1  0  0  0  0
  4 35  1  0  0  0  0
  5 14  2  0  0  0  0
  5  6  1  0  0  0  0
  6  7  2  0  0  0  0
  6 36  1  0  0  0  0
  7 12  1  0  0  0  0
  7  8  1  0  0  0  0
  8  9  2  0  0  0  0
  8 16  1  0  0  0  0
  9 10  1  0  0  0  0
 10 11  2  0  0  0  0
 10 15  1  0  0  0  0
 11 12  1  0  0  0  0
 12 13  2  0  0  0  0
 13 14  1  0  0  0  0
 14 37  1  0  0  0  0
 15 38  1  0  0  0  0
 15 39  1  0  0  0  0
 16 40  1  0  0  0  0
 16 41  1  0  0  0  0
 17 22  2  0  0  0  0
 17 18  1  0  0  0  0
 18 19  2  0  0  0  0
 18 42  1  0  0  0  0
 19 20  1  0  0  0  0
 19 27  1  0  0  0  0
 20 21  2  0  0  0  0
 20 25  1  0  0  0  0
 21 22  1  0  0  0  0
 21 23  1  0  0  0  0
 22 43  1  0  0  0  0
 23 24  1  0  0  0  0
 24 44  1  0  0  0  0
 24 45  1  0  0  0  0
 24 46  1  0  0  0  0
 25 26  1  0  0  0  0
 26 47  1  0  0  0  0
 26 48  1  0  0  0  0
 26 49  1  0  0  0  0
 27 28  1  0  0  0  0
 28 50  1  0  0  0  0
 28 51  1  0  0  0  0
 28 52  1  0  0  0  0
M  END
$$$$
ZINC03814984
  -OEChem-08230709403D

 53 55  0     1  0  0  0  0  0999 V2000
   -0.0187    1.5258    0.0104 C   0  0  0  0  0  0  0  0  0  0  0  0
    0.0021   -0.0041    0.0020 C   0  0  0  0  0  0  0  0  0  0  0  0
    0.6878   -0.4765   -1.2033 N   0  0  3  0  0  0  0  0  0  0  0  0
    2.1353   -0.7012   -1.1821 C   0  0  0  0  0  0  0  0  0  0  0  0
    2.4170   -2.1231   -0.7698 C   0  0  0  0  0  0  0  0  0  0  0  0
    2.5865   -2.4333    0.5543 C   0  0  0  0  0  0  0  0  0  0  0  0
    2.8417   -3.7677    0.8899 C   0  0  0  0  0  0  0  0  0  0  0  0
    3.0255   -4.1855    2.2313 C   0  0  0  0  0  0  0  0  0  0  0  0
    3.2674   -5.4681    2.4615 N   0  0  0  0  0  0  0  0  0  0  0  0
    3.3376   -6.3473    1.4661 C   0  0  0  0  0  0  0  0  0  0  0  0
    2.9249   -4.7381   -0.1392 C   0  0  0  0  0  0  0  0  0  0  0  0
    2.7554   -4.3719   -1.4099 N   0  0  0  0  0  0  0  0  0  0  0  0
    2.5110   -3.1211   -1.7317 C   0  0  0  0  0  0  0  0  0  0  0  0
    3.5923   -7.6709    1.7703 N   0  0  0  0  0  0  0  0  0  0  0  0
    2.9551   -3.2821    3.2689 N   0  0  0  0  0  0  0  0  0  0  0  0
   -0.0397   -0.7132   -2.3747 C   0  0  0  0  0  0  0  0  0  0  0  0
    0.6113   -1.1554   -3.5183 C   0  0  0  0  0  0  0  0  0  0  0  0
   -0.1096   -1.3947   -4.6779 C   0  0  0  0  0  0  0  0  0  0  0  0
   -1.4827   -1.1821   -4.6983 C   0  0  0  0  0  0  0  0  0  0  0  0
   -2.1329   -0.7344   -3.5547 C   0  0  0  0  0  0  0  0  0  0  0  0
   -1.4114   -0.5001   -2.3944 C   0  0  0  0  0  0  0  0  0  0  0  0
   -3.4766   -0.5256   -3.5739 O   0  0  0  0  0  0  0  0  0  0  0  0
   -4.0789   -0.0647   -2.3627 C   0  0  0  0  0  0  0  0  0  0  0  0
   -2.1910   -1.4129   -5.8385 O   0  0  0  0  0  0  0  0  0  0  0  0
   -2.3368   -0.3175   -6.7445 C   0  0  0  0  0  0  0  0  0  0  0  0
    0.5275   -1.8328   -5.7966 O   0  0  0  0  0  0  0  0  0  0  0  0
    1.9398   -2.0298   -5.7038 C   0  0  0  0  0  0  0  0  0  0  0  0
    1.0039    1.9031    0.0027 H   0  0  0  0  0  0  0  0  0  0  0  0
   -0.5459    1.8868   -0.8726 H   0  0  0  0  0  0  0  0  0  0  0  0
   -0.5289    1.8773    0.9072 H   0  0  0  0  0  0  0  0  0  0  0  0
    0.5293   -0.3651    0.8851 H   0  0  0  0  0  0  0  0  0  0  0  0
   -1.0205   -0.3814    0.0098 H   0  0  0  0  0  0  0  0  0  0  0  0
    2.5453   -0.5232   -2.1762 H   0  0  0  0  0  0  0  0  0  0  0  0
    2.5986   -0.0180   -0.4703 H   0  0  0  0  0  0  0  0  0  0  0  0
    2.5212   -1.6710    1.3167 H   0  0  0  0  0  0  0  0  0  0  0  0
    2.3794   -2.8623   -2.7720 H   0  0  0  0  0  0  0  0  0  0  0  0
    3.6475   -8.3297    1.0605 H   0  0  0  0  0  0  0  0  0  0  0  0
    3.7158   -7.9413    2.6937 H   0  0  0  0  0  0  0  0  0  0  0  0
    3.0833   -3.5819    4.1824 H   0  0  0  0  0  0  0  0  0  0  0  0
    2.7773   -2.3463    3.0859 H   0  0  0  0  0  0  0  0  0  0  0  0
    1.6791   -1.3166   -3.5035 H   0  0  0  0  0  0  0  0  0  0  0  0
   -1.9166   -0.1522   -1.5056 H   0  0  0  0  0  0  0  0  0  0  0  0
   -5.1509    0.0606   -2.5148 H   0  0  0  0  0  0  0  0  0  0  0  0
   -3.9070   -0.7940   -1.5711 H   0  0  0  0  0  0  0  0  0  0  0  0
   -3.6381    0.8908   -2.0784 H   0  0  0  0  0  0  0  0  0  0  0  0
   -1.3524    0.0154   -7.0736 H   0  0  0  0  0  0  0  0  0  0  0  0
   -2.9203   -0.6358   -7.6085 H   0  0  0  0  0  0  0  0  0  0  0  0
   -2.8490    0.5034   -6.2427 H   0  0  0  0  0  0  0  0  0  0  0  0
    2.4217   -1.0877   -5.4423 H   0  0  0  0  0  0  0  0  0  0  0  0
    2.1533   -2.7727   -4.9352 H   0  0  0  0  0  0  0  0  0  0  0  0
    2.3217   -2.3793   -6.6630 H   0  0  0  0  0  0  0  0  0  0  0  0
    3.1787   -6.0615    0.1493 N   0  3  0  0  0  0  0  0  0  0  0  0
    3.2485   -6.7898   -0.5323 H   0  0  0  0  0  0  0  0  0  0  0  0
  1  2  1  0  0  0  0
  1 28  1  0  0  0  0
  1 29  1  0  0  0  0
  1 30  1  0  0  0  0
  2  3  1  0  0  0  0
  2 31  1  0  0  0  0
  2 32  1  0  0  0  0
  3  4  1  0  0  0  0
  3 16  1  0  0  0  0
  4  5  1  0  0  0  0
  4 33  1  0  0  0  0
  4 34  1  0  0  0  0
  5 13  2  0  0  0  0
  5  6  1  0  0  0  0
  6  7  2  0  0  0  0
  6 35  1  0  0  0  0
  7 11  1  0  0  0  0
  7  8  1  0  0  0  0
  8  9  2  0  0  0  0
  8 15  1  0  0  0  0
  9 10  1  0  0  0  0
 10 14  1  0  0  0  0
 10 52  2  0  0  0  0
 11 12  2  0  0  0  0
 11 52  1  0  0  0  0
 12 13  1  0  0  0  0
 13 36  1  0  0  0  0
 14 37  1  0  0  0  0
 14 38  1  0  0  0  0
 15 39  1  0  0  0  0
 15 40  1  0  0  0  0
 16 21  2  0  0  0  0
 16 17  1  0  0  0  0
 17 18  2  0  0  0  0
 17 41  1  0  0  0  0
 18 19  1  0  0  0  0
 18 26  1  0  0  0  0
 19 20  2  0  0  0  0
 19 24  1  0  0  0  0
 20 21  1  0  0  0  0
 20 22  1  0  0  0  0
 21 42  1  0  0  0  0
 22 23  1  0  0  0  0
 23 43  1  0  0  0  0
 23 44  1  0  0  0  0
 23 45  1  0  0  0  0
 24 25  1  0  0  0  0
 25 46  1  0  0  0  0
 25 47  1  0  0  0  0
 25 48  1  0  0  0  0
 26 27  1  0  0  0  0
 27 49  1  0  0  0  0
 27 50  1  0  0  0  0
 27 51  1  0  0  0  0
 52 53  1  0  0  0  0
M  CHG  1  52   1
M  END
$$$$
ZINC03814986
  -OEChem-08230709403D

 45 48  0     1  0  0  0  0  0999 V2000
    0.6921    8.0342   -3.0702 C   0  0  0  0  0  0  0  0  0  0  0  0
    0.7102    6.5689   -3.4219 C   0  0  0  0  0  0  0  0  0  0  0  0
    1.1804    5.6362   -2.5347 C   0  0  0  0  0  0  0  0  0  0  0  0
    1.1922    4.2919   -2.8854 C   0  0  0  0  0  0  0  0  0  0  0  0
    0.7510    3.8770   -4.0520 N   0  0  0  0  0  0  0  0  0  0  0  0
    0.2813    4.7349   -4.9580 C   0  0  0  0  0  0  0  0  0  0  0  0
    0.2477    6.1205   -4.6643 C   0  0  0  0  0  0  0  0  0  0  0  0
   -0.2570    7.0089   -5.6460 C   0  0  0  0  0  0  0  0  0  0  0  0
   -0.6754    6.5007   -6.7964 N   0  0  0  0  0  0  0  0  0  0  0  0
   -0.6267    5.1928   -7.0323 C   0  0  0  0  0  0  0  0  0  0  0  0
   -0.1662    4.3232   -6.1528 N   0  0  0  0  0  0  0  0  0  0  0  0
   -1.0774    4.7240   -8.2515 N   0  0  0  0  0  0  0  0  0  0  0  0
   -0.3111    8.3652   -5.4110 N   0  0  0  0  0  0  0  0  0  0  0  0
    1.6894    6.0685   -1.1837 C   0  0  0  0  0  0  0  0  0  0  0  0
    0.9198    5.3921   -0.1311 N   0  0  1  0  0  0  0  0  0  0  0  0
   -0.5277    5.4152   -0.4347 C   0  0  0  0  0  0  0  0  0  0  0  0
   -1.0294    4.1041    0.2127 C   0  0  0  0  0  0  0  0  0  0  0  0
    0.2113    3.2335    0.2155 C   0  0  0  0  0  0  0  0  0  0  0  0
    1.3108    4.0532   -0.0051 C   0  0  0  0  0  0  0  0  0  0  0  0
    2.5817    3.4830   -0.0626 C   0  0  0  0  0  0  0  0  0  0  0  0
    2.7428    2.1227    0.1036 C   0  0  0  0  0  0  0  0  0  0  0  0
    1.6463    1.3127    0.3290 C   0  0  0  0  0  0  0  0  0  0  0  0
    0.3753    1.8695    0.3799 C   0  0  0  0  0  0  0  0  0  0  0  0
   -0.7064    1.0758    0.5957 O   0  0  0  0  0  0  0  0  0  0  0  0
   -0.4625   -0.3224    0.7616 C   0  0  0  0  0  0  0  0  0  0  0  0
    1.5784    8.5175   -3.4813 H   0  0  0  0  0  0  0  0  0  0  0  0
   -0.2014    8.4973   -3.4887 H   0  0  0  0  0  0  0  0  0  0  0  0
    0.6863    8.1476   -1.9861 H   0  0  0  0  0  0  0  0  0  0  0  0
    1.5700    3.5678   -2.1787 H   0  0  0  0  0  0  0  0  0  0  0  0
   -1.4198    5.3450   -8.9134 H   0  0  0  0  0  0  0  0  0  0  0  0
   -1.0513    3.7740   -8.4455 H   0  0  0  0  0  0  0  0  0  0  0  0
    0.4262    8.8097   -4.9642 H   0  0  0  0  0  0  0  0  0  0  0  0
   -1.0864    8.8756   -5.6925 H   0  0  0  0  0  0  0  0  0  0  0  0
    1.5753    7.1476   -1.0808 H   0  0  0  0  0  0  0  0  0  0  0  0
    2.7427    5.8040   -1.0906 H   0  0  0  0  0  0  0  0  0  0  0  0
   -0.6972    5.4045   -1.5114 H   0  0  0  0  0  0  0  0  0  0  0  0
   -1.0078    6.2806    0.0221 H   0  0  0  0  0  0  0  0  0  0  0  0
   -1.8166    3.6522   -0.3908 H   0  0  0  0  0  0  0  0  0  0  0  0
   -1.3768    4.2842    1.2301 H   0  0  0  0  0  0  0  0  0  0  0  0
    3.4441    4.1088   -0.2384 H   0  0  0  0  0  0  0  0  0  0  0  0
    3.7308    1.6891    0.0576 H   0  0  0  0  0  0  0  0  0  0  0  0
    1.7770    0.2488    0.4607 H   0  0  0  0  0  0  0  0  0  0  0  0
   -1.4079   -0.8392    0.9262 H   0  0  0  0  0  0  0  0  0  0  0  0
    0.0159   -0.7166   -0.1350 H   0  0  0  0  0  0  0  0  0  0  0  0
    0.1908   -0.4778    1.6202 H   0  0  0  0  0  0  0  0  0  0  0  0
  1  2  1  0  0  0  0
  1 26  1  0  0  0  0
  1 27  1  0  0  0  0
  1 28  1  0  0  0  0
  2  7  2  0  0  0  0
  2  3  1  0  0  0  0
  3  4  2  0  0  0  0
  3 14  1  0  0  0  0
  4  5  1  0  0  0  0
  4 29  1  0  0  0  0
  5  6  2  0  0  0  0
  6 11  1  0  0  0  0
  6  7  1  0  0  0  0
  7  8  1  0  0  0  0
  8  9  2  0  0  0  0
  8 13  1  0  0  0  0
  9 10  1  0  0  0  0
 10 11  2  0  0  0  0
 10 12  1  0  0  0  0
 12 30  1  0  0  0  0
 12 31  1  0  0  0  0
 13 32  1  0  0  0  0
 13 33  1  0  0  0  0
 14 15  1  0  0  0  0
 14 34  1  0  0  0  0
 14 35  1  0  0  0  0
 15 19  1  0  0  0  0
 15 16  1  0  0  0  0
 16 17  1  0  0  0  0
 16 36  1  0  0  0  0
 16 37  1  0  0  0  0
 17 18  1  0  0  0  0
 17 38  1  0  0  0  0
 17 39  1  0  0  0  0
 18 23  2  0  0  0  0
 18 19  1  0  0  0  0
 19 20  2  0  0  0  0
 20 21  1  0  0  0  0
 20 40  1  0  0  0  0
 21 22  2  0  0  0  0
 21 41  1  0  0  0  0
 22 23  1  0  0  0  0
 22 42  1  0  0  0  0
 23 24  1  0  0  0  0
 24 25  1  0  0  0  0
 25 43  1  0  0  0  0
 25 44  1  0  0  0  0
 25 45  1  0  0  0  0
M  END
$$$$
ZINC03814986
  -OEChem-08230709403D

 46 49  0     1  0  0  0  0  0999 V2000
    0.6921    8.0342   -3.0702 C   0  0  0  0  0  0  0  0  0  0  0  0
    0.7102    6.5689   -3.4219 C   0  0  0  0  0  0  0  0  0  0  0  0
    1.1804    5.6362   -2.5347 C   0  0  0  0  0  0  0  0  0  0  0  0
    1.1922    4.2919   -2.8854 C   0  0  0  0  0  0  0  0  0  0  0  0
    0.7510    3.8770   -4.0520 N   0  0  0  0  0  0  0  0  0  0  0  0
    0.2813    4.7349   -4.9580 C   0  0  0  0  0  0  0  0  0  0  0  0
    0.2477    6.1205   -4.6643 C   0  0  0  0  0  0  0  0  0  0  0  0
   -0.2570    7.0089   -5.6460 C   0  0  0  0  0  0  0  0  0  0  0  0
   -0.6754    6.5007   -6.7964 N   0  0  0  0  0  0  0  0  0  0  0  0
   -0.6267    5.1928   -7.0323 C   0  0  0  0  0  0  0  0  0  0  0  0
   -1.0774    4.7240   -8.2515 N   0  0  0  0  0  0  0  0  0  0  0  0
   -0.3111    8.3652   -5.4110 N   0  0  0  0  0  0  0  0  0  0  0  0
    1.6894    6.0685   -1.1837 C   0  0  0  0  0  0  0  0  0  0  0  0
    0.9198    5.3921   -0.1311 N   0  0  1  0  0  0  0  0  0  0  0  0
   -0.5277    5.4152   -0.4347 C   0  0  0  0  0  0  0  0  0  0  0  0
   -1.0294    4.1041    0.2127 C   0  0  0  0  0  0  0  0  0  0  0  0
    0.2113    3.2335    0.2155 C   0  0  0  0  0  0  0  0  0  0  0  0
    1.3108    4.0532   -0.0051 C   0  0  0  0  0  0  0  0  0  0  0  0
    2.5817    3.4830   -0.0626 C   0  0  0  0  0  0  0  0  0  0  0  0
    2.7428    2.1227    0.1036 C   0  0  0  0  0  0  0  0  0  0  0  0
    1.6463    1.3127    0.3290 C   0  0  0  0  0  0  0  0  0  0  0  0
    0.3753    1.8695    0.3799 C   0  0  0  0  0  0  0  0  0  0  0  0
   -0.7064    1.0758    0.5957 O   0  0  0  0  0  0  0  0  0  0  0  0
   -0.4625   -0.3224    0.7616 C   0  0  0  0  0  0  0  0  0  0  0  0
    1.5784    8.5175   -3.4813 H   0  0  0  0  0  0  0  0  0  0  0  0
   -0.2014    8.4973   -3.4887 H   0  0  0  0  0  0  0  0  0  0  0  0
    0.6863    8.1476   -1.9861 H   0  0  0  0  0  0  0  0  0  0  0  0
    1.5700    3.5678   -2.1787 H   0  0  0  0  0  0  0  0  0  0  0  0
   -1.4198    5.3450   -8.9134 H   0  0  0  0  0  0  0  0  0  0  0  0
   -1.0513    3.7740   -8.4455 H   0  0  0  0  0  0  0  0  0  0  0  0
    0.4262    8.8097   -4.9642 H   0  0  0  0  0  0  0  0  0  0  0  0
   -1.0864    8.8756   -5.6925 H   0  0  0  0  0  0  0  0  0  0  0  0
    1.5753    7.1476   -1.0808 H   0  0  0  0  0  0  0  0  0  0  0  0
    2.7427    5.8040   -1.0906 H   0  0  0  0  0  0  0  0  0  0  0  0
   -0.6972    5.4045   -1.5114 H   0  0  0  0  0  0  0  0  0  0  0  0
   -1.0078    6.2806    0.0221 H   0  0  0  0  0  0  0  0  0  0  0  0
   -1.8166    3.6522   -0.3908 H   0  0  0  0  0  0  0  0  0  0  0  0
   -1.3768    4.2842    1.2301 H   0  0  0  0  0  0  0  0  0  0  0  0
    3.4441    4.1088   -0.2384 H   0  0  0  0  0  0  0  0  0  0  0  0
    3.7308    1.6891    0.0576 H   0  0  0  0  0  0  0  0  0  0  0  0
    1.7770    0.2488    0.4607 H   0  0  0  0  0  0  0  0  0  0  0  0
   -1.4079   -0.8392    0.9262 H   0  0  0  0  0  0  0  0  0  0  0  0
    0.0159   -0.7166   -0.1350 H   0  0  0  0  0  0  0  0  0  0  0  0
    0.1908   -0.4778    1.6202 H   0  0  0  0  0  0  0  0  0  0  0  0
   -0.1652    4.2530   -6.1694 N   0  3  0  0  0  0  0  0  0  0  0  0
   -0.1663    3.2884   -6.4332 H   0  0  0  0  0  0  0  0  0  0  0  0
  1  2  1  0  0  0  0
  1 25  1  0  0  0  0
  1 26  1  0  0  0  0
  1 27  1  0  0  0  0
  2  7  2  0  0  0  0
  2  3  1  0  0  0  0
  3  4  2  0  0  0  0
  3 13  1  0  0  0  0
  4  5  1  0  0  0  0
  4 28  1  0  0  0  0
  5  6  2  0  0  0  0
  6  7  1  0  0  0  0
  6 45  1  0  0  0  0
  7  8  1  0  0  0  0
  8  9  2  0  0  0  0
  8 12  1  0  0  0  0
  9 10  1  0  0  0  0
 10 11  1  0  0  0  0
 10 45  2  0  0  0  0
 11 29  1  0  0  0  0
 11 30  1  0  0  0  0
 12 31  1  0  0  0  0
 12 32  1  0  0  0  0
 13 14  1  0  0  0  0
 13 33  1  0  0  0  0
 13 34  1  0  0  0  0
 14 18  1  0  0  0  0
 14 15  1  0  0  0  0
 15 16  1  0  0  0  0
 15 35  1  0  0  0  0
 15 36  1  0  0  0  0
 16 17  1  0  0  0  0
 16 37  1  0  0  0  0
 16 38  1  0  0  0  0
 17 22  2  0  0  0  0
 17 18  1  0  0  0  0
 18 19  2  0  0  0  0
 19 20  1  0  0  0  0
 19 39  1  0  0  0  0
 20 21  2  0  0  0  0
 20 40  1  0  0  0  0
 21 22  1  0  0  0  0
 21 41  1  0  0  0  0
 22 23  1  0  0  0  0
 23 24  1  0  0  0  0
 24 42  1  0  0  0  0
 24 43  1  0  0  0  0
 24 44  1  0  0  0  0
 45 46  1  0  0  0  0
M  CHG  1  45   1
M  END
$$$$
ZINC03814987
  -OEChem-08230709403D

 49 52  0     1  0  0  0  0  0999 V2000
   -3.2724    3.8925    1.0963 C   0  0  0  0  0  0  0  0  0  0  0  0
   -4.1492    3.1058    0.1564 C   0  0  0  0  0  0  0  0  0  0  0  0
   -4.0242    1.7454    0.0472 C   0  0  0  0  0  0  0  0  0  0  0  0
   -4.8467    1.0427   -0.8245 C   0  0  0  0  0  0  0  0  0  0  0  0
   -5.7489    1.6480   -1.5644 N   0  0  0  0  0  0  0  0  0  0  0  0
   -5.9163    2.9694   -1.5068 C   0  0  0  0  0  0  0  0  0  0  0  0
   -5.1113    3.7435   -0.6350 C   0  0  0  0  0  0  0  0  0  0  0  0
   -5.3109    5.1457   -0.5951 C   0  0  0  0  0  0  0  0  0  0  0  0
   -6.2441    5.6692   -1.3774 N   0  0  0  0  0  0  0  0  0  0  0  0
   -6.9787    4.9065   -2.1819 C   0  0  0  0  0  0  0  0  0  0  0  0
   -6.8328    3.5970   -2.2575 N   0  0  0  0  0  0  0  0  0  0  0  0
   -7.9361    5.5115   -2.9735 N   0  0  0  0  0  0  0  0  0  0  0  0
   -4.5547    5.9440    0.2346 N   0  0  0  0  0  0  0  0  0  0  0  0
   -2.9986    1.0129    0.8735 C   0  0  0  0  0  0  0  0  0  0  0  0
   -3.5827    0.6530    2.1725 N   0  0  2  0  0  0  0  0  0  0  0  0
   -3.8484    1.8589    2.9865 C   0  0  0  0  0  0  0  0  0  0  0  0
   -3.6587    1.3407    4.4305 C   0  0  0  0  0  0  0  0  0  0  0  0
   -2.7147    0.1688    4.2472 C   0  0  0  0  0  0  0  0  0  0  0  0
   -2.7162   -0.1759    2.9011 C   0  0  0  0  0  0  0  0  0  0  0  0
   -1.9134   -1.2287    2.4677 C   0  0  0  0  0  0  0  0  0  0  0  0
   -1.1291   -1.9240    3.3706 C   0  0  0  0  0  0  0  0  0  0  0  0
   -1.1388   -1.5746    4.7173 C   0  0  0  0  0  0  0  0  0  0  0  0
   -1.9355   -0.5266    5.1497 C   0  0  0  0  0  0  0  0  0  0  0  0
   -0.3691   -2.2596    5.6064 O   0  0  0  0  0  0  0  0  0  0  0  0
   -0.4304   -1.8445    6.9724 C   0  0  0  0  0  0  0  0  0  0  0  0
   -0.3477   -2.9508    2.9412 O   0  0  0  0  0  0  0  0  0  0  0  0
   -0.3013   -3.1856    1.5324 C   0  0  0  0  0  0  0  0  0  0  0  0
   -3.8101    4.0765    2.0264 H   0  0  0  0  0  0  0  0  0  0  0  0
   -2.3654    3.3260    1.3068 H   0  0  0  0  0  0  0  0  0  0  0  0
   -3.0076    4.8441    0.6353 H   0  0  0  0  0  0  0  0  0  0  0  0
   -4.7402   -0.0295   -0.8980 H   0  0  0  0  0  0  0  0  0  0  0  0
   -8.0607    6.4727   -2.9348 H   0  0  0  0  0  0  0  0  0  0  0  0
   -8.4836    4.9751   -3.5680 H   0  0  0  0  0  0  0  0  0  0  0  0
   -4.2298    6.8016   -0.0814 H   0  0  0  0  0  0  0  0  0  0  0  0
   -4.3470    5.6485    1.1349 H   0  0  0  0  0  0  0  0  0  0  0  0
   -2.6901    0.1076    0.3506 H   0  0  0  0  0  0  0  0  0  0  0  0
   -2.1321    1.6552    1.0302 H   0  0  0  0  0  0  0  0  0  0  0  0
   -3.1279    2.6448    2.7599 H   0  0  0  0  0  0  0  0  0  0  0  0
   -4.8682    2.2119    2.8332 H   0  0  0  0  0  0  0  0  0  0  0  0
   -3.2050    2.1071    5.0591 H   0  0  0  0  0  0  0  0  0  0  0  0
   -4.6088    1.0091    4.8495 H   0  0  0  0  0  0  0  0  0  0  0  0
   -1.9030   -1.5028    1.4231 H   0  0  0  0  0  0  0  0  0  0  0  0
   -1.9453   -0.2522    6.1942 H   0  0  0  0  0  0  0  0  0  0  0  0
    0.2287   -2.4716    7.5727 H   0  0  0  0  0  0  0  0  0  0  0  0
   -0.1132   -0.8046    7.0507 H   0  0  0  0  0  0  0  0  0  0  0  0
   -1.4536   -1.9406    7.3357 H   0  0  0  0  0  0  0  0  0  0  0  0
   -1.3125   -3.3409    1.1565 H   0  0  0  0  0  0  0  0  0  0  0  0
    0.1430   -2.3236    1.0348 H   0  0  0  0  0  0  0  0  0  0  0  0
    0.3011   -4.0715    1.3314 H   0  0  0  0  0  0  0  0  0  0  0  0
  1  2  1  0  0  0  0
  1 28  1  0  0  0  0
  1 29  1  0  0  0  0
  1 30  1  0  0  0  0
  2  7  2  0  0  0  0
  2  3  1  0  0  0  0
  3  4  2  0  0  0  0
  3 14  1  0  0  0  0
  4  5  1  0  0  0  0
  4 31  1  0  0  0  0
  5  6  2  0  0  0  0
  6 11  1  0  0  0  0
  6  7  1  0  0  0  0
  7  8  1  0  0  0  0
  8  9  2  0  0  0  0
  8 13  1  0  0  0  0
  9 10  1  0  0  0  0
 10 11  2  0  0  0  0
 10 12  1  0  0  0  0
 12 32  1  0  0  0  0
 12 33  1  0  0  0  0
 13 34  1  0  0  0  0
 13 35  1  0  0  0  0
 14 15  1  0  0  0  0
 14 36  1  0  0  0  0
 14 37  1  0  0  0  0
 15 19  1  0  0  0  0
 15 16  1  0  0  0  0
 16 17  1  0  0  0  0
 16 38  1  0  0  0  0
 16 39  1  0  0  0  0
 17 18  1  0  0  0  0
 17 40  1  0  0  0  0
 17 41  1  0  0  0  0
 18 23  2  0  0  0  0
 18 19  1  0  0  0  0
 19 20  2  0  0  0  0
 20 21  1  0  0  0  0
 20 42  1  0  0  0  0
 21 22  2  0  0  0  0
 21 26  1  0  0  0  0
 22 23  1  0  0  0  0
 22 24  1  0  0  0  0
 23 43  1  0  0  0  0
 24 25  1  0  0  0  0
 25 44  1  0  0  0  0
 25 45  1  0  0  0  0
 25 46  1  0  0  0  0
 26 27  1  0  0  0  0
 27 47  1  0  0  0  0
 27 48  1  0  0  0  0
 27 49  1  0  0  0  0
M  END
$$$$
ZINC03814987
  -OEChem-08230709403D

 50 53  0     1  0  0  0  0  0999 V2000
   -3.2724    3.8925    1.0963 C   0  0  0  0  0  0  0  0  0  0  0  0
   -4.1492    3.1058    0.1564 C   0  0  0  0  0  0  0  0  0  0  0  0
   -4.0242    1.7454    0.0472 C   0  0  0  0  0  0  0  0  0  0  0  0
   -4.8467    1.0427   -0.8245 C   0  0  0  0  0  0  0  0  0  0  0  0
   -5.7489    1.6480   -1.5644 N   0  0  0  0  0  0  0  0  0  0  0  0
   -5.9163    2.9694   -1.5068 C   0  0  0  0  0  0  0  0  0  0  0  0
   -5.1113    3.7435   -0.6350 C   0  0  0  0  0  0  0  0  0  0  0  0
   -5.3109    5.1457   -0.5951 C   0  0  0  0  0  0  0  0  0  0  0  0
   -6.2441    5.6692   -1.3774 N   0  0  0  0  0  0  0  0  0  0  0  0
   -6.9787    4.9065   -2.1819 C   0  0  0  0  0  0  0  0  0  0  0  0
   -7.9361    5.5115   -2.9735 N   0  0  0  0  0  0  0  0  0  0  0  0
   -4.5547    5.9440    0.2346 N   0  0  0  0  0  0  0  0  0  0  0  0
   -2.9986    1.0129    0.8735 C   0  0  0  0  0  0  0  0  0  0  0  0
   -3.5827    0.6530    2.1725 N   0  0  2  0  0  0  0  0  0  0  0  0
   -3.8484    1.8589    2.9865 C   0  0  0  0  0  0  0  0  0  0  0  0
   -3.6587    1.3407    4.4305 C   0  0  0  0  0  0  0  0  0  0  0  0
   -2.7147    0.1688    4.2472 C   0  0  0  0  0  0  0  0  0  0  0  0
   -2.7162   -0.1759    2.9011 C   0  0  0  0  0  0  0  0  0  0  0  0
   -1.9134   -1.2287    2.4677 C   0  0  0  0  0  0  0  0  0  0  0  0
   -1.1291   -1.9240    3.3706 C   0  0  0  0  0  0  0  0  0  0  0  0
   -1.1388   -1.5746    4.7173 C   0  0  0  0  0  0  0  0  0  0  0  0
   -1.9355   -0.5266    5.1497 C   0  0  0  0  0  0  0  0  0  0  0  0
   -0.3691   -2.2596    5.6064 O   0  0  0  0  0  0  0  0  0  0  0  0
   -0.4304   -1.8445    6.9724 C   0  0  0  0  0  0  0  0  0  0  0  0
   -0.3477   -2.9508    2.9412 O   0  0  0  0  0  0  0  0  0  0  0  0
   -0.3013   -3.1856    1.5324 C   0  0  0  0  0  0  0  0  0  0  0  0
   -3.8101    4.0765    2.0264 H   0  0  0  0  0  0  0  0  0  0  0  0
   -2.3654    3.3260    1.3068 H   0  0  0  0  0  0  0  0  0  0  0  0
   -3.0076    4.8441    0.6353 H   0  0  0  0  0  0  0  0  0  0  0  0
   -4.7402   -0.0295   -0.8980 H   0  0  0  0  0  0  0  0  0  0  0  0
   -8.0607    6.4727   -2.9348 H   0  0  0  0  0  0  0  0  0  0  0  0
   -8.4836    4.9751   -3.5680 H   0  0  0  0  0  0  0  0  0  0  0  0
   -4.2298    6.8016   -0.0814 H   0  0  0  0  0  0  0  0  0  0  0  0
   -4.3470    5.6485    1.1349 H   0  0  0  0  0  0  0  0  0  0  0  0
   -2.6901    0.1076    0.3506 H   0  0  0  0  0  0  0  0  0  0  0  0
   -2.1321    1.6552    1.0302 H   0  0  0  0  0  0  0  0  0  0  0  0
   -3.1279    2.6448    2.7599 H   0  0  0  0  0  0  0  0  0  0  0  0
   -4.8682    2.2119    2.8332 H   0  0  0  0  0  0  0  0  0  0  0  0
   -3.2050    2.1071    5.0591 H   0  0  0  0  0  0  0  0  0  0  0  0
   -4.6088    1.0091    4.8495 H   0  0  0  0  0  0  0  0  0  0  0  0
   -1.9030   -1.5028    1.4231 H   0  0  0  0  0  0  0  0  0  0  0  0
   -1.9453   -0.2522    6.1942 H   0  0  0  0  0  0  0  0  0  0  0  0
    0.2287   -2.4716    7.5727 H   0  0  0  0  0  0  0  0  0  0  0  0
   -0.1132   -0.8046    7.0507 H   0  0  0  0  0  0  0  0  0  0  0  0
   -1.4536   -1.9406    7.3357 H   0  0  0  0  0  0  0  0  0  0  0  0
   -1.3125   -3.3409    1.1565 H   0  0  0  0  0  0  0  0  0  0  0  0
    0.1430   -2.3236    1.0348 H   0  0  0  0  0  0  0  0  0  0  0  0
    0.3011   -4.0715    1.3314 H   0  0  0  0  0  0  0  0  0  0  0  0
   -6.8746    3.5591   -2.3025 N   0  3  0  0  0  0  0  0  0  0  0  0
   -7.4708    3.0663   -2.9362 H   0  0  0  0  0  0  0  0  0  0  0  0
  1  2  1  0  0  0  0
  1 27  1  0  0  0  0
  1 28  1  0  0  0  0
  1 29  1  0  0  0  0
  2  7  2  0  0  0  0
  2  3  1  0  0  0  0
  3  4  2  0  0  0  0
  3 13  1  0  0  0  0
  4  5  1  0  0  0  0
  4 30  1  0  0  0  0
  5  6  2  0  0  0  0
  6  7  1  0  0  0  0
  6 49  1  0  0  0  0
  7  8  1  0  0  0  0
  8  9  2  0  0  0  0
  8 12  1  0  0  0  0
  9 10  1  0  0  0  0
 10 11  1  0  0  0  0
 10 49  2  0  0  0  0
 11 31  1  0  0  0  0
 11 32  1  0  0  0  0
 12 33  1  0  0  0  0
 12 34  1  0  0  0  0
 13 14  1  0  0  0  0
 13 35  1  0  0  0  0
 13 36  1  0  0  0  0
 14 18  1  0  0  0  0
 14 15  1  0  0  0  0
 15 16  1  0  0  0  0
 15 37  1  0  0  0  0
 15 38  1  0  0  0  0
 16 17  1  0  0  0  0
 16 39  1  0  0  0  0
 16 40  1  0  0  0  0
 17 22  2  0  0  0  0
 17 18  1  0  0  0  0
 18 19  2  0  0  0  0
 19 20  1  0  0  0  0
 19 41  1  0  0  0  0
 20 21  2  0  0  0  0
 20 25  1  0  0  0  0
 21 22  1  0  0  0  0
 21 23  1  0  0  0  0
 22 42  1  0  0  0  0
 23 24  1  0  0  0  0
 24 43  1  0  0  0  0
 24 44  1  0  0  0  0
 24 45  1  0  0  0  0
 25 26  1  0  0  0  0
 26 46  1  0  0  0  0
 26 47  1  0  0  0  0
 26 48  1  0  0  0  0
 49 50  1  0  0  0  0
M  CHG  1  49   1
M  END
$$$$
ZINC03814988
  -OEChem-08230709403D

 49 51  0     1  0  0  0  0  0999 V2000
   -3.3899   -3.2499   -0.0931 C   0  0  0  0  0  0  0  0  0  0  0  0
   -3.7717   -3.1736    1.2818 O   0  0  0  0  0  0  0  0  0  0  0  0
   -4.3229   -2.0046    1.7057 C   0  0  0  0  0  0  0  0  0  0  0  0
   -4.4920   -0.9543    0.8163 C   0  0  0  0  0  0  0  0  0  0  0  0
   -5.0516    0.2344    1.2458 C   0  0  0  0  0  0  0  0  0  0  0  0
   -5.4398    0.3832    2.5650 C   0  0  0  0  0  0  0  0  0  0  0  0
   -5.2790   -0.6649    3.4593 C   0  0  0  0  0  0  0  0  0  0  0  0
   -4.7167   -1.8614    3.0307 C   0  0  0  0  0  0  0  0  0  0  0  0
   -4.5518   -2.8900    3.9064 O   0  0  0  0  0  0  0  0  0  0  0  0
   -5.6100   -3.8466    3.9903 C   0  0  0  0  0  0  0  0  0  0  0  0
   -5.6661   -0.5199    4.7551 O   0  0  0  0  0  0  0  0  0  0  0  0
   -4.6761   -0.0679    5.6812 C   0  0  0  0  0  0  0  0  0  0  0  0
   -6.1970    2.0148    3.1484 Br  0  0  0  0  0  0  0  0  0  0  0  0
   -5.2335    1.3732    0.2758 C   0  0  0  0  0  0  0  0  0  0  0  0
   -4.5740    3.6699   -0.1279 C   0  0  0  0  0  0  0  0  0  0  0  0
   -3.7091    4.7872    0.4577 C   0  0  0  0  0  0  0  0  0  0  0  0
   -2.2610    4.3754    0.4411 C   0  0  0  0  0  0  0  0  0  0  0  0
   -1.8855    3.0623    0.2798 C   0  0  0  0  0  0  0  0  0  0  0  0
   -0.5219    2.7504    0.2869 C   0  0  0  0  0  0  0  0  0  0  0  0
    0.3636    3.7298    0.4351 N   0  0  0  0  0  0  0  0  0  0  0  0
   -0.0381    4.9835    0.5795 C   0  0  0  0  0  0  0  0  0  0  0  0
   -1.3226    5.3046    0.5837 N   0  0  0  0  0  0  0  0  0  0  0  0
    0.9079    5.9825    0.7293 N   0  0  0  0  0  0  0  0  0  0  0  0
   -0.1005    1.4394    0.1359 N   0  0  0  0  0  0  0  0  0  0  0  0
   -2.8914    1.9581    0.1088 C   0  0  0  0  0  0  0  0  0  0  0  0
   -4.2659   -3.0939   -0.7226 H   0  0  0  0  0  0  0  0  0  0  0  0
   -2.6472   -2.4813   -0.3071 H   0  0  0  0  0  0  0  0  0  0  0  0
   -2.9653   -4.2326   -0.2983 H   0  0  0  0  0  0  0  0  0  0  0  0
   -4.1864   -1.0652   -0.2136 H   0  0  0  0  0  0  0  0  0  0  0  0
   -5.3175   -4.6541    4.6615 H   0  0  0  0  0  0  0  0  0  0  0  0
   -6.5080   -3.3624    4.3741 H   0  0  0  0  0  0  0  0  0  0  0  0
   -5.8118   -4.2530    2.9992 H   0  0  0  0  0  0  0  0  0  0  0  0
   -4.3691    0.9447    5.4194 H   0  0  0  0  0  0  0  0  0  0  0  0
   -5.0920   -0.0724    6.6887 H   0  0  0  0  0  0  0  0  0  0  0  0
   -3.8120   -0.7312    5.6419 H   0  0  0  0  0  0  0  0  0  0  0  0
   -6.2287    1.8005    0.3996 H   0  0  0  0  0  0  0  0  0  0  0  0
   -5.1210    1.0038   -0.7435 H   0  0  0  0  0  0  0  0  0  0  0  0
   -5.6267    3.8932    0.0452 H   0  0  0  0  0  0  0  0  0  0  0  0
   -4.3889    3.5870   -1.1989 H   0  0  0  0  0  0  0  0  0  0  0  0
   -4.0179    4.9840    1.4843 H   0  0  0  0  0  0  0  0  0  0  0  0
   -3.8351    5.6921   -0.1368 H   0  0  0  0  0  0  0  0  0  0  0  0
    1.8522    5.7605    0.7276 H   0  0  0  0  0  0  0  0  0  0  0  0
    0.6268    6.9047    0.8359 H   0  0  0  0  0  0  0  0  0  0  0  0
    0.8469    1.2313    0.1378 H   0  0  0  0  0  0  0  0  0  0  0  0
   -0.7528    0.7297    0.0282 H   0  0  0  0  0  0  0  0  0  0  0  0
   -2.5908    1.0974    0.7063 H   0  0  0  0  0  0  0  0  0  0  0  0
   -2.9283    1.6721   -0.9424 H   0  0  0  0  0  0  0  0  0  0  0  0
   -4.2185    2.4124    0.5605 N   0  3  2  0  0  0  0  0  0  0  0  0
   -4.1884    2.5815    1.5728 H   0  0  0  0  0  0  0  0  0  0  0  0
  1  2  1  0  0  0  0
  1 26  1  0  0  0  0
  1 27  1  0  0  0  0
  1 28  1  0  0  0  0
  2  3  1  0  0  0  0
  3  8  2  0  0  0  0
  3  4  1  0  0  0  0
  4  5  2  0  0  0  0
  4 29  1  0  0  0  0
  5  6  1  0  0  0  0
  5 14  1  0  0  0  0
  6  7  2  0  0  0  0
  6 13  1  0  0  0  0
  7  8  1  0  0  0  0
  7 11  1  0  0  0  0
  8  9  1  0  0  0  0
  9 10  1  0  0  0  0
 10 30  1  0  0  0  0
 10 31  1  0  0  0  0
 10 32  1  0  0  0  0
 11 12  1  0  0  0  0
 12 33  1  0  0  0  0
 12 34  1  0  0  0  0
 12 35  1  0  0  0  0
 14 36  1  0  0  0  0
 14 37  1  0  0  0  0
 14 48  1  0  0  0  0
 15 16  1  0  0  0  0
 15 38  1  0  0  0  0
 15 39  1  0  0  0  0
 15 48  1  0  0  0  0
 16 17  1  0  0  0  0
 16 40  1  0  0  0  0
 16 41  1  0  0  0  0
 17 22  2  0  0  0  0
 17 18  1  0  0  0  0
 18 19  2  0  0  0  0
 18 25  1  0  0  0  0
 19 20  1  0  0  0  0
 19 24  1  0  0  0  0
 20 21  2  0  0  0  0
 21 22  1  0  0  0  0
 21 23  1  0  0  0  0
 23 42  1  0  0  0  0
 23 43  1  0  0  0  0
 24 44  1  0  0  0  0
 24 45  1  0  0  0  0
 25 46  1  0  0  0  0
 25 47  1  0  0  0  0
 25 48  1  0  0  0  0
 48 49  1  0  0  0  0
M  CHG  1  48   1
M  END
$$$$
ZINC03814988
  -OEChem-08230709403D

 50 52  0     1  0  0  0  0  0999 V2000
   -3.3899   -3.2499   -0.0931 C   0  0  0  0  0  0  0  0  0  0  0  0
   -3.7717   -3.1736    1.2818 O   0  0  0  0  0  0  0  0  0  0  0  0
   -4.3229   -2.0046    1.7057 C   0  0  0  0  0  0  0  0  0  0  0  0
   -4.4920   -0.9543    0.8163 C   0  0  0  0  0  0  0  0  0  0  0  0
   -5.0516    0.2344    1.2458 C   0  0  0  0  0  0  0  0  0  0  0  0
   -5.4398    0.3832    2.5650 C   0  0  0  0  0  0  0  0  0  0  0  0
   -5.2790   -0.6649    3.4593 C   0  0  0  0  0  0  0  0  0  0  0  0
   -4.7167   -1.8614    3.0307 C   0  0  0  0  0  0  0  0  0  0  0  0
   -4.5518   -2.8900    3.9064 O   0  0  0  0  0  0  0  0  0  0  0  0
   -5.6100   -3.8466    3.9903 C   0  0  0  0  0  0  0  0  0  0  0  0
   -5.6661   -0.5199    4.7551 O   0  0  0  0  0  0  0  0  0  0  0  0
   -4.6761   -0.0679    5.6812 C   0  0  0  0  0  0  0  0  0  0  0  0
   -6.1970    2.0148    3.1484 Br  0  0  0  0  0  0  0  0  0  0  0  0
   -5.2335    1.3732    0.2758 C   0  0  0  0  0  0  0  0  0  0  0  0
   -4.5740    3.6699   -0.1279 C   0  0  0  0  0  0  0  0  0  0  0  0
   -3.7091    4.7872    0.4577 C   0  0  0  0  0  0  0  0  0  0  0  0
   -2.2610    4.3754    0.4411 C   0  0  0  0  0  0  0  0  0  0  0  0
   -1.8855    3.0623    0.2798 C   0  0  0  0  0  0  0  0  0  0  0  0
   -0.5219    2.7504    0.2869 C   0  0  0  0  0  0  0  0  0  0  0  0
    0.3636    3.7298    0.4351 N   0  0  0  0  0  0  0  0  0  0  0  0
   -0.0381    4.9835    0.5795 C   0  0  0  0  0  0  0  0  0  0  0  0
    0.9079    5.9825    0.7293 N   0  0  0  0  0  0  0  0  0  0  0  0
   -0.1005    1.4394    0.1359 N   0  0  0  0  0  0  0  0  0  0  0  0
   -2.8914    1.9581    0.1088 C   0  0  0  0  0  0  0  0  0  0  0  0
   -4.2659   -3.0939   -0.7226 H   0  0  0  0  0  0  0  0  0  0  0  0
   -2.6472   -2.4813   -0.3071 H   0  0  0  0  0  0  0  0  0  0  0  0
   -2.9653   -4.2326   -0.2983 H   0  0  0  0  0  0  0  0  0  0  0  0
   -4.1864   -1.0652   -0.2136 H   0  0  0  0  0  0  0  0  0  0  0  0
   -5.3175   -4.6541    4.6615 H   0  0  0  0  0  0  0  0  0  0  0  0
   -6.5080   -3.3624    4.3741 H   0  0  0  0  0  0  0  0  0  0  0  0
   -5.8118   -4.2530    2.9992 H   0  0  0  0  0  0  0  0  0  0  0  0
   -4.3691    0.9447    5.4194 H   0  0  0  0  0  0  0  0  0  0  0  0
   -5.0920   -0.0724    6.6887 H   0  0  0  0  0  0  0  0  0  0  0  0
   -3.8120   -0.7312    5.6419 H   0  0  0  0  0  0  0  0  0  0  0  0
   -6.2287    1.8005    0.3996 H   0  0  0  0  0  0  0  0  0  0  0  0
   -5.1210    1.0038   -0.7435 H   0  0  0  0  0  0  0  0  0  0  0  0
   -5.6267    3.8932    0.0452 H   0  0  0  0  0  0  0  0  0  0  0  0
   -4.3889    3.5870   -1.1989 H   0  0  0  0  0  0  0  0  0  0  0  0
   -4.0179    4.9840    1.4843 H   0  0  0  0  0  0  0  0  0  0  0  0
   -3.8351    5.6921   -0.1368 H   0  0  0  0  0  0  0  0  0  0  0  0
    1.8522    5.7605    0.7276 H   0  0  0  0  0  0  0  0  0  0  0  0
    0.6268    6.9047    0.8359 H   0  0  0  0  0  0  0  0  0  0  0  0
    0.8469    1.2313    0.1378 H   0  0  0  0  0  0  0  0  0  0  0  0
   -0.7528    0.7297    0.0282 H   0  0  0  0  0  0  0  0  0  0  0  0
   -2.5908    1.0974    0.7063 H   0  0  0  0  0  0  0  0  0  0  0  0
   -2.9283    1.6721   -0.9424 H   0  0  0  0  0  0  0  0  0  0  0  0
   -4.2185    2.4124    0.5605 N   0  3  2  0  0  0  0  0  0  0  0  0
   -4.1884    2.5815    1.5728 H   0  0  0  0  0  0  0  0  0  0  0  0
   -1.3427    5.3766    0.5922 N   0  3  0  0  0  0  0  0  0  0  0  0
   -1.6478    6.3226    0.7020 H   0  0  0  0  0  0  0  0  0  0  0  0
  1  2  1  0  0  0  0
  1 25  1  0  0  0  0
  1 26  1  0  0  0  0
  1 27  1  0  0  0  0
  2  3  1  0  0  0  0
  3  8  2  0  0  0  0
  3  4  1  0  0  0  0
  4  5  2  0  0  0  0
  4 28  1  0  0  0  0
  5  6  1  0  0  0  0
  5 14  1  0  0  0  0
  6  7  2  0  0  0  0
  6 13  1  0  0  0  0
  7  8  1  0  0  0  0
  7 11  1  0  0  0  0
  8  9  1  0  0  0  0
  9 10  1  0  0  0  0
 10 29  1  0  0  0  0
 10 30  1  0  0  0  0
 10 31  1  0  0  0  0
 11 12  1  0  0  0  0
 12 32  1  0  0  0  0
 12 33  1  0  0  0  0
 12 34  1  0  0  0  0
 14 35  1  0  0  0  0
 14 36  1  0  0  0  0
 14 47  1  0  0  0  0
 15 16  1  0  0  0  0
 15 37  1  0  0  0  0
 15 38  1  0  0  0  0
 15 47  1  0  0  0  0
 16 17  1  0  0  0  0
 16 39  1  0  0  0  0
 16 40  1  0  0  0  0
 17 18  2  0  0  0  0
 17 49  1  0  0  0  0
 18 19  1  0  0  0  0
 18 24  1  0  0  0  0
 19 20  2  0  0  0  0
 19 23  1  0  0  0  0
 20 21  1  0  0  0  0
 21 22  1  0  0  0  0
 21 49  2  0  0  0  0
 22 41  1  0  0  0  0
 22 42  1  0  0  0  0
 23 43  1  0  0  0  0
 23 44  1  0  0  0  0
 24 45  1  0  0  0  0
 24 46  1  0  0  0  0
 24 47  1  0  0  0  0
 47 48  1  0  0  0  0
 49 50  1  0  0  0  0
M  CHG  2  47   1  49   1
M  END
$$$$
ZINC03814989
  -OEChem-08230709403D

 52 54  0     1  0  0  0  0  0999 V2000
    4.9283    5.6874    0.0197 C   0  0  0  0  0  0  0  0  0  0  0  0
    4.8224    4.2266   -0.0141 N   0  0  3  0  0  0  0  0  0  0  0  0
    6.0348    3.4047   -0.0418 C   0  0  0  0  0  0  0  0  0  0  0  0
    6.4954    3.2368   -1.4668 C   0  0  0  0  0  0  0  0  0  0  0  0
    5.9720    3.8159   -2.5564 C   0  0  0  0  0  0  0  0  0  0  0  0
    6.6485    3.4299   -3.6548 O   0  0  0  0  0  0  0  0  0  0  0  0
    7.6362    2.5769   -3.3360 C   0  0  0  0  0  0  0  0  0  0  0  0
    7.6017    2.4025   -1.9424 C   0  0  0  0  0  0  0  0  0  0  0  0
    8.5380    1.5496   -1.3412 C   0  0  0  0  0  0  0  0  0  0  0  0
    9.4263    0.9372   -2.1185 N   0  0  0  0  0  0  0  0  0  0  0  0
    9.4271    1.1274   -3.4315 C   0  0  0  0  0  0  0  0  0  0  0  0
    8.5602    1.9237   -4.0355 N   0  0  0  0  0  0  0  0  0  0  0  0
   10.3720    0.4676   -4.1992 N   0  0  0  0  0  0  0  0  0  0  0  0
    8.5385    1.3508    0.0274 N   0  0  0  0  0  0  0  0  0  0  0  0
    3.5711    3.6202   -0.0198 C   0  0  0  0  0  0  0  0  0  0  0  0
    2.4199    4.4026    0.0066 C   0  0  0  0  0  0  0  0  0  0  0  0
    1.1801    3.8056    0.0000 C   0  0  0  0  0  0  0  0  0  0  0  0
    1.0773    2.4118   -0.0327 C   0  0  0  0  0  0  0  0  0  0  0  0
    2.2352    1.6287   -0.0533 C   0  0  0  0  0  0  0  0  0  0  0  0
    3.4721    2.2319   -0.0524 C   0  0  0  0  0  0  0  0  0  0  0  0
   -0.2502    1.7685   -0.0392 C   0  0  0  0  0  0  0  0  0  0  0  0
   -1.2565    2.4508   -0.0212 O   0  0  0  0  0  0  0  0  0  0  0  0
   -0.3477    0.4246   -0.0708 N   0  0  0  0  0  0  0  0  0  0  0  0
   -1.6660   -0.2143   -0.0773 C   0  0  1  0  0  0  0  0  0  0  0  0
   -2.3640    0.3987   -0.6476 H   0  0  0  0  0  0  0  0  0  0  0  0
   -1.5589   -1.5981   -0.7210 C   0  0  0  0  0  0  0  0  0  0  0  0
   -1.1751   -1.4470   -2.1943 C   0  0  0  0  0  0  0  0  0  0  0  0
   -1.0696   -2.8101   -2.8283 C   0  0  0  0  0  0  0  0  0  0  0  0
   -1.2799   -3.8008   -2.1694 O   0  0  0  0  0  0  0  0  0  0  0  0
   -2.1626   -0.3558    1.3385 C   0  0  0  0  0  0  0  0  0  0  0  0
   -1.4849    0.0367    2.2585 O   0  0  0  0  0  0  0  0  0  0  0  0
    4.8620    6.0327    1.0515 H   0  0  0  0  0  0  0  0  0  0  0  0
    5.8849    5.9922   -0.4046 H   0  0  0  0  0  0  0  0  0  0  0  0
    4.1169    6.1241   -0.5625 H   0  0  0  0  0  0  0  0  0  0  0  0
    6.8181    3.8929    0.5381 H   0  0  0  0  0  0  0  0  0  0  0  0
    5.8205    2.4264    0.3884 H   0  0  0  0  0  0  0  0  0  0  0  0
    5.1322    4.4950   -2.5534 H   0  0  0  0  0  0  0  0  0  0  0  0
   10.3894    0.5936   -5.1608 H   0  0  0  0  0  0  0  0  0  0  0  0
   11.0164   -0.1206   -3.7753 H   0  0  0  0  0  0  0  0  0  0  0  0
    7.9347    1.8589    0.5915 H   0  0  0  0  0  0  0  0  0  0  0  0
    9.1426    0.7033    0.4233 H   0  0  0  0  0  0  0  0  0  0  0  0
    2.4999    5.4794    0.0318 H   0  0  0  0  0  0  0  0  0  0  0  0
    0.2874    4.4131    0.0198 H   0  0  0  0  0  0  0  0  0  0  0  0
    2.1591    0.5516   -0.0744 H   0  0  0  0  0  0  0  0  0  0  0  0
    4.3670    1.6277   -0.0732 H   0  0  0  0  0  0  0  0  0  0  0  0
    0.4551   -0.1196   -0.0891 H   0  0  0  0  0  0  0  0  0  0  0  0
   -0.7961   -2.1809   -0.2047 H   0  0  0  0  0  0  0  0  0  0  0  0
   -2.5189   -2.1089   -0.6462 H   0  0  0  0  0  0  0  0  0  0  0  0
   -1.9379   -0.8642   -2.7106 H   0  0  0  0  0  0  0  0  0  0  0  0
   -0.2151   -0.9362   -2.2691 H   0  0  0  0  0  0  0  0  0  0  0  0
   -0.7421   -2.9236   -4.1251 O   0  5  0  0  0  0  0  0  0  0  0  0
   -3.3579   -0.9179    1.5774 O   0  5  0  0  0  0  0  0  0  0  0  0
  1  2  1  0  0  0  0
  1 32  1  0  0  0  0
  1 33  1  0  0  0  0
  1 34  1  0  0  0  0
  2  3  1  0  0  0  0
  2 15  1  0  0  0  0
  3  4  1  0  0  0  0
  3 35  1  0  0  0  0
  3 36  1  0  0  0  0
  4  8  1  0  0  0  0
  4  5  2  0  0  0  0
  5  6  1  0  0  0  0
  5 37  1  0  0  0  0
  6  7  1  0  0  0  0
  7 12  2  0  0  0  0
  7  8  1  0  0  0  0
  8  9  2  0  0  0  0
  9 10  1  0  0  0  0
  9 14  1  0  0  0  0
 10 11  2  0  0  0  0
 11 12  1  0  0  0  0
 11 13  1  0  0  0  0
 13 38  1  0  0  0  0
 13 39  1  0  0  0  0
 14 40  1  0  0  0  0
 14 41  1  0  0  0  0
 15 20  2  0  0  0  0
 15 16  1  0  0  0  0
 16 17  2  0  0  0  0
 16 42  1  0  0  0  0
 17 18  1  0  0  0  0
 17 43  1  0  0  0  0
 18 19  2  0  0  0  0
 18 21  1  0  0  0  0
 19 20  1  0  0  0  0
 19 44  1  0  0  0  0
 20 45  1  0  0  0  0
 21 22  2  0  0  0  0
 21 23  1  0  0  0  0
 23 24  1  0  0  0  0
 23 46  1  0  0  0  0
 24 25  1  0  0  0  0
 24 26  1  0  0  0  0
 24 30  1  0  0  0  0
 26 27  1  0  0  0  0
 26 47  1  0  0  0  0
 26 48  1  0  0  0  0
 27 28  1  0  0  0  0
 27 49  1  0  0  0  0
 27 50  1  0  0  0  0
 28 29  2  0  0  0  0
 28 51  1  0  0  0  0
 30 31  2  0  0  0  0
 30 52  1  0  0  0  0
M  CHG  2  51  -1  52  -1
M  END
$$$$
ZINC03814989
  -OEChem-08230709403D

 53 55  0     1  0  0  0  0  0999 V2000
    4.9283    5.6874    0.0197 C   0  0  0  0  0  0  0  0  0  0  0  0
    4.8224    4.2266   -0.0141 N   0  0  3  0  0  0  0  0  0  0  0  0
    6.0348    3.4047   -0.0418 C   0  0  0  0  0  0  0  0  0  0  0  0
    6.4954    3.2368   -1.4668 C   0  0  0  0  0  0  0  0  0  0  0  0
    5.9720    3.8159   -2.5564 C   0  0  0  0  0  0  0  0  0  0  0  0
    6.6485    3.4299   -3.6548 O   0  0  0  0  0  0  0  0  0  0  0  0
    7.6362    2.5769   -3.3360 C   0  0  0  0  0  0  0  0  0  0  0  0
    7.6017    2.4025   -1.9424 C   0  0  0  0  0  0  0  0  0  0  0  0
    8.5380    1.5496   -1.3412 C   0  0  0  0  0  0  0  0  0  0  0  0
    9.4263    0.9372   -2.1185 N   0  0  0  0  0  0  0  0  0  0  0  0
    9.4271    1.1274   -3.4315 C   0  0  0  0  0  0  0  0  0  0  0  0
   10.3720    0.4676   -4.1992 N   0  0  0  0  0  0  0  0  0  0  0  0
    8.5385    1.3508    0.0274 N   0  0  0  0  0  0  0  0  0  0  0  0
    3.5711    3.6202   -0.0198 C   0  0  0  0  0  0  0  0  0  0  0  0
    2.4199    4.4026    0.0066 C   0  0  0  0  0  0  0  0  0  0  0  0
    1.1801    3.8056    0.0000 C   0  0  0  0  0  0  0  0  0  0  0  0
    1.0773    2.4118   -0.0327 C   0  0  0  0  0  0  0  0  0  0  0  0
    2.2352    1.6287   -0.0533 C   0  0  0  0  0  0  0  0  0  0  0  0
    3.4721    2.2319   -0.0524 C   0  0  0  0  0  0  0  0  0  0  0  0
   -0.2502    1.7685   -0.0392 C   0  0  0  0  0  0  0  0  0  0  0  0
   -1.2565    2.4508   -0.0212 O   0  0  0  0  0  0  0  0  0  0  0  0
   -0.3477    0.4246   -0.0708 N   0  0  0  0  0  0  0  0  0  0  0  0
   -1.6660   -0.2143   -0.0773 C   0  0  1  0  0  0  0  0  0  0  0  0
   -2.3640    0.3987   -0.6476 H   0  0  0  0  0  0  0  0  0  0  0  0
   -1.5589   -1.5981   -0.7210 C   0  0  0  0  0  0  0  0  0  0  0  0
   -1.1751   -1.4470   -2.1943 C   0  0  0  0  0  0  0  0  0  0  0  0
   -1.0696   -2.8101   -2.8283 C   0  0  0  0  0  0  0  0  0  0  0  0
   -1.2799   -3.8008   -2.1694 O   0  0  0  0  0  0  0  0  0  0  0  0
   -2.1626   -0.3558    1.3385 C   0  0  0  0  0  0  0  0  0  0  0  0
   -1.4849    0.0367    2.2585 O   0  0  0  0  0  0  0  0  0  0  0  0
    4.8620    6.0327    1.0515 H   0  0  0  0  0  0  0  0  0  0  0  0
    5.8849    5.9922   -0.4046 H   0  0  0  0  0  0  0  0  0  0  0  0
    4.1169    6.1241   -0.5625 H   0  0  0  0  0  0  0  0  0  0  0  0
    6.8181    3.8929    0.5381 H   0  0  0  0  0  0  0  0  0  0  0  0
    5.8205    2.4264    0.3884 H   0  0  0  0  0  0  0  0  0  0  0  0
    5.1322    4.4950   -2.5534 H   0  0  0  0  0  0  0  0  0  0  0  0
   10.3894    0.5936   -5.1608 H   0  0  0  0  0  0  0  0  0  0  0  0
   11.0164   -0.1206   -3.7753 H   0  0  0  0  0  0  0  0  0  0  0  0
    7.9347    1.8589    0.5915 H   0  0  0  0  0  0  0  0  0  0  0  0
    9.1426    0.7033    0.4233 H   0  0  0  0  0  0  0  0  0  0  0  0
    2.4999    5.4794    0.0318 H   0  0  0  0  0  0  0  0  0  0  0  0
    0.2874    4.4131    0.0198 H   0  0  0  0  0  0  0  0  0  0  0  0
    2.1591    0.5516   -0.0744 H   0  0  0  0  0  0  0  0  0  0  0  0
    4.3670    1.6277   -0.0732 H   0  0  0  0  0  0  0  0  0  0  0  0
    0.4551   -0.1196   -0.0891 H   0  0  0  0  0  0  0  0  0  0  0  0
   -0.7961   -2.1809   -0.2047 H   0  0  0  0  0  0  0  0  0  0  0  0
   -2.5189   -2.1089   -0.6462 H   0  0  0  0  0  0  0  0  0  0  0  0
   -1.9379   -0.8642   -2.7106 H   0  0  0  0  0  0  0  0  0  0  0  0
   -0.2151   -0.9362   -2.2691 H   0  0  0  0  0  0  0  0  0  0  0  0
   -0.7421   -2.9236   -4.1251 O   0  5  0  0  0  0  0  0  0  0  0  0
   -3.3579   -0.9179    1.5774 O   0  5  0  0  0  0  0  0  0  0  0  0
    8.5632    1.9318   -4.1081 N   0  3  0  0  0  0  0  0  0  0  0  0
    8.5716    2.0691   -5.0986 H   0  0  0  0  0  0  0  0  0  0  0  0
  1  2  1  0  0  0  0
  1 31  1  0  0  0  0
  1 32  1  0  0  0  0
  1 33  1  0  0  0  0
  2  3  1  0  0  0  0
  2 14  1  0  0  0  0
  3  4  1  0  0  0  0
  3 34  1  0  0  0  0
  3 35  1  0  0  0  0
  4  8  1  0  0  0  0
  4  5  2  0  0  0  0
  5  6  1  0  0  0  0
  5 36  1  0  0  0  0
  6  7  1  0  0  0  0
  7  8  2  0  0  0  0
  7 52  1  0  0  0  0
  8  9  1  0  0  0  0
  9 10  2  0  0  0  0
  9 13  1  0  0  0  0
 10 11  1  0  0  0  0
 11 12  1  0  0  0  0
 11 52  2  0  0  0  0
 12 37  1  0  0  0  0
 12 38  1  0  0  0  0
 13 39  1  0  0  0  0
 13 40  1  0  0  0  0
 14 19  2  0  0  0  0
 14 15  1  0  0  0  0
 15 16  2  0  0  0  0
 15 41  1  0  0  0  0
 16 17  1  0  0  0  0
 16 42  1  0  0  0  0
 17 18  2  0  0  0  0
 17 20  1  0  0  0  0
 18 19  1  0  0  0  0
 18 43  1  0  0  0  0
 19 44  1  0  0  0  0
 20 21  2  0  0  0  0
 20 22  1  0  0  0  0
 22 23  1  0  0  0  0
 22 45  1  0  0  0  0
 23 24  1  0  0  0  0
 23 25  1  0  0  0  0
 23 29  1  0  0  0  0
 25 26  1  0  0  0  0
 25 46  1  0  0  0  0
 25 47  1  0  0  0  0
 26 27  1  0  0  0  0
 26 48  1  0  0  0  0
 26 49  1  0  0  0  0
 27 28  2  0  0  0  0
 27 50  1  0  0  0  0
 29 30  2  0  0  0  0
 29 51  1  0  0  0  0
 52 53  1  0  0  0  0
M  CHG  3  50  -1  51  -1  52   1
M  END
$$$$
ZINC03814990
  -OEChem-08230709403D

 50 52  0     1  0  0  0  0  0999 V2000
    2.4720    1.4175   -0.0081 C   0  0  0  0  0  0  0  0  0  0  0  0
    3.6525    2.1246   -0.0209 C   0  0  0  0  0  0  0  0  0  0  0  0
    3.6320    3.5166   -0.0132 C   0  0  0  0  0  0  0  0  0  0  0  0
    2.4178    4.1976    0.0020 C   0  0  0  0  0  0  0  0  0  0  0  0
    1.2339    3.4963    0.0091 C   0  0  0  0  0  0  0  0  0  0  0  0
    1.2512    2.0985    0.0014 C   0  0  0  0  0  0  0  0  0  0  0  0
   -0.0162    1.3436    0.0094 C   0  0  0  0  0  0  0  0  0  0  0  0
   -1.0774    1.9372    0.0177 O   0  0  0  0  0  0  0  0  0  0  0  0
    0.0021   -0.0041    0.0020 N   0  0  0  0  0  0  0  0  0  0  0  0
   -1.2565   -0.7538    0.0100 C   0  0  1  0  0  0  0  0  0  0  0  0
   -2.0051   -0.2133   -0.5694 H   0  0  0  0  0  0  0  0  0  0  0  0
   -1.0316   -2.1346   -0.6092 C   0  0  0  0  0  0  0  0  0  0  0  0
   -0.6634   -1.9775   -2.0859 C   0  0  0  0  0  0  0  0  0  0  0  0
   -0.4418   -3.3377   -2.6958 C   0  0  0  0  0  0  0  0  0  0  0  0
   -0.5657   -4.3308   -2.0189 O   0  0  0  0  0  0  0  0  0  0  0  0
   -1.7380   -0.9120    1.4292 C   0  0  0  0  0  0  0  0  0  0  0  0
   -1.0956   -0.4464    2.3405 O   0  0  0  0  0  0  0  0  0  0  0  0
    4.8266    4.2281   -0.0213 N   0  0  0  0  0  0  0  0  0  0  0  0
    6.1050    3.5130   -0.0373 C   0  0  0  0  0  0  0  0  0  0  0  0
    7.2370    4.5078   -0.0433 C   0  0  0  0  0  0  0  0  0  0  0  0
    7.9552    4.8964   -1.1088 C   0  0  0  0  0  0  0  0  0  0  0  0
    8.8967    5.8179   -0.7235 N   0  0  0  0  0  0  0  0  0  0  0  0
    9.5323    6.2459   -1.3183 H   0  0  0  0  0  0  0  0  0  0  0  0
    8.8106    6.0397    0.6234 C   0  0  0  0  0  0  0  0  0  0  0  0
    7.7686    5.2306    1.1118 C   0  0  0  0  0  0  0  0  0  0  0  0
    7.4684    5.2692    2.4823 C   0  0  0  0  0  0  0  0  0  0  0  0
    8.1831    6.0715    3.2646 N   0  0  0  0  0  0  0  0  0  0  0  0
    9.1592    6.8197    2.7658 C   0  0  0  0  0  0  0  0  0  0  0  0
    9.4742    6.8132    1.4816 N   0  0  0  0  0  0  0  0  0  0  0  0
    9.8750    7.6389    3.6230 N   0  0  0  0  0  0  0  0  0  0  0  0
    6.4521    4.4912    3.0063 N   0  0  0  0  0  0  0  0  0  0  0  0
    2.4886    0.3376   -0.0099 H   0  0  0  0  0  0  0  0  0  0  0  0
    4.5960    1.5991   -0.0331 H   0  0  0  0  0  0  0  0  0  0  0  0
    2.4051    5.2775    0.0079 H   0  0  0  0  0  0  0  0  0  0  0  0
    0.2923    4.0252    0.0202 H   0  0  0  0  0  0  0  0  0  0  0  0
    0.8486   -0.4776   -0.0086 H   0  0  0  0  0  0  0  0  0  0  0  0
   -0.2211   -2.6405   -0.0845 H   0  0  0  0  0  0  0  0  0  0  0  0
   -1.9441   -2.7245   -0.5230 H   0  0  0  0  0  0  0  0  0  0  0  0
   -1.4739   -1.4717   -2.6106 H   0  0  0  0  0  0  0  0  0  0  0  0
    0.2491   -1.3877   -2.1721 H   0  0  0  0  0  0  0  0  0  0  0  0
    4.8134    5.1980   -0.0162 H   0  0  0  0  0  0  0  0  0  0  0  0
    6.1799    2.8827    0.8488 H   0  0  0  0  0  0  0  0  0  0  0  0
    6.1626    2.8917   -0.9310 H   0  0  0  0  0  0  0  0  0  0  0  0
    7.8120    4.5395   -2.1180 H   0  0  0  0  0  0  0  0  0  0  0  0
   10.5920    8.1936    3.2778 H   0  0  0  0  0  0  0  0  0  0  0  0
    9.6593    7.6580    4.5685 H   0  0  0  0  0  0  0  0  0  0  0  0
    5.9372    3.9101    2.4248 H   0  0  0  0  0  0  0  0  0  0  0  0
    6.2542    4.5267    3.9552 H   0  0  0  0  0  0  0  0  0  0  0  0
   -0.1069   -3.4459   -3.9912 O   0  5  0  0  0  0  0  0  0  0  0  0
   -2.8803   -1.5703    1.6810 O   0  5  0  0  0  0  0  0  0  0  0  0
  1  6  2  0  0  0  0
  1  2  1  0  0  0  0
  1 32  1  0  0  0  0
  2  3  2  0  0  0  0
  2 33  1  0  0  0  0
  3  4  1  0  0  0  0
  3 18  1  0  0  0  0
  4  5  2  0  0  0  0
  4 34  1  0  0  0  0
  5  6  1  0  0  0  0
  5 35  1  0  0  0  0
  6  7  1  0  0  0  0
  7  8  2  0  0  0  0
  7  9  1  0  0  0  0
  9 10  1  0  0  0  0
  9 36  1  0  0  0  0
 10 11  1  0  0  0  0
 10 12  1  0  0  0  0
 10 16  1  0  0  0  0
 12 13  1  0  0  0  0
 12 37  1  0  0  0  0
 12 38  1  0  0  0  0
 13 14  1  0  0  0  0
 13 39  1  0  0  0  0
 13 40  1  0  0  0  0
 14 15  2  0  0  0  0
 14 49  1  0  0  0  0
 16 17  2  0  0  0  0
 16 50  1  0  0  0  0
 18 19  1  0  0  0  0
 18 41  1  0  0  0  0
 19 20  1  0  0  0  0
 19 42  1  0  0  0  0
 19 43  1  0  0  0  0
 20 25  1  0  0  0  0
 20 21  2  0  0  0  0
 21 22  1  0  0  0  0
 21 44  1  0  0  0  0
 22 23  1  0  0  0  0
 22 24  1  0  0  0  0
 24 29  2  0  0  0  0
 24 25  1  0  0  0  0
 25 26  2  0  0  0  0
 26 27  1  0  0  0  0
 26 31  1  0  0  0  0
 27 28  2  0  0  0  0
 28 29  1  0  0  0  0
 28 30  1  0  0  0  0
 30 45  1  0  0  0  0
 30 46  1  0  0  0  0
 31 47  1  0  0  0  0
 31 48  1  0  0  0  0
M  CHG  2  49  -1  50  -1
M  END
$$$$
ZINC03814990
  -OEChem-08230709403D

 51 53  0     1  0  0  0  0  0999 V2000
    2.4720    1.4175   -0.0081 C   0  0  0  0  0  0  0  0  0  0  0  0
    3.6525    2.1246   -0.0209 C   0  0  0  0  0  0  0  0  0  0  0  0
    3.6320    3.5166   -0.0132 C   0  0  0  0  0  0  0  0  0  0  0  0
    2.4178    4.1976    0.0020 C   0  0  0  0  0  0  0  0  0  0  0  0
    1.2339    3.4963    0.0091 C   0  0  0  0  0  0  0  0  0  0  0  0
    1.2512    2.0985    0.0014 C   0  0  0  0  0  0  0  0  0  0  0  0
   -0.0162    1.3436    0.0094 C   0  0  0  0  0  0  0  0  0  0  0  0
   -1.0774    1.9372    0.0177 O   0  0  0  0  0  0  0  0  0  0  0  0
    0.0021   -0.0041    0.0020 N   0  0  0  0  0  0  0  0  0  0  0  0
   -1.2565   -0.7538    0.0100 C   0  0  1  0  0  0  0  0  0  0  0  0
   -2.0051   -0.2133   -0.5694 H   0  0  0  0  0  0  0  0  0  0  0  0
   -1.0316   -2.1346   -0.6092 C   0  0  0  0  0  0  0  0  0  0  0  0
   -0.6634   -1.9775   -2.0859 C   0  0  0  0  0  0  0  0  0  0  0  0
   -0.4418   -3.3377   -2.6958 C   0  0  0  0  0  0  0  0  0  0  0  0
   -0.5657   -4.3308   -2.0189 O   0  0  0  0  0  0  0  0  0  0  0  0
   -1.7380   -0.9120    1.4292 C   0  0  0  0  0  0  0  0  0  0  0  0
   -1.0956   -0.4464    2.3405 O   0  0  0  0  0  0  0  0  0  0  0  0
    4.8266    4.2281   -0.0213 N   0  0  0  0  0  0  0  0  0  0  0  0
    6.1050    3.5130   -0.0373 C   0  0  0  0  0  0  0  0  0  0  0  0
    7.2370    4.5078   -0.0433 C   0  0  0  0  0  0  0  0  0  0  0  0
    7.9552    4.8964   -1.1088 C   0  0  0  0  0  0  0  0  0  0  0  0
    8.8967    5.8179   -0.7235 N   0  0  0  0  0  0  0  0  0  0  0  0
    9.5323    6.2459   -1.3183 H   0  0  0  0  0  0  0  0  0  0  0  0
    8.8106    6.0397    0.6234 C   0  0  0  0  0  0  0  0  0  0  0  0
    7.7686    5.2306    1.1118 C   0  0  0  0  0  0  0  0  0  0  0  0
    7.4684    5.2692    2.4823 C   0  0  0  0  0  0  0  0  0  0  0  0
    8.1831    6.0715    3.2646 N   0  0  0  0  0  0  0  0  0  0  0  0
    9.1592    6.8197    2.7658 C   0  0  0  0  0  0  0  0  0  0  0  0
    9.8750    7.6389    3.6230 N   0  0  0  0  0  0  0  0  0  0  0  0
    6.4521    4.4912    3.0063 N   0  0  0  0  0  0  0  0  0  0  0  0
    2.4886    0.3376   -0.0099 H   0  0  0  0  0  0  0  0  0  0  0  0
    4.5960    1.5991   -0.0331 H   0  0  0  0  0  0  0  0  0  0  0  0
    2.4051    5.2775    0.0079 H   0  0  0  0  0  0  0  0  0  0  0  0
    0.2923    4.0252    0.0202 H   0  0  0  0  0  0  0  0  0  0  0  0
    0.8486   -0.4776   -0.0086 H   0  0  0  0  0  0  0  0  0  0  0  0
   -0.2211   -2.6405   -0.0845 H   0  0  0  0  0  0  0  0  0  0  0  0
   -1.9441   -2.7245   -0.5230 H   0  0  0  0  0  0  0  0  0  0  0  0
   -1.4739   -1.4717   -2.6106 H   0  0  0  0  0  0  0  0  0  0  0  0
    0.2491   -1.3877   -2.1721 H   0  0  0  0  0  0  0  0  0  0  0  0
    4.8134    5.1980   -0.0162 H   0  0  0  0  0  0  0  0  0  0  0  0
    6.1799    2.8827    0.8488 H   0  0  0  0  0  0  0  0  0  0  0  0
    6.1626    2.8917   -0.9310 H   0  0  0  0  0  0  0  0  0  0  0  0
    7.8120    4.5395   -2.1180 H   0  0  0  0  0  0  0  0  0  0  0  0
   10.5920    8.1936    3.2778 H   0  0  0  0  0  0  0  0  0  0  0  0
    9.6593    7.6580    4.5685 H   0  0  0  0  0  0  0  0  0  0  0  0
    5.9372    3.9101    2.4248 H   0  0  0  0  0  0  0  0  0  0  0  0
    6.2542    4.5267    3.9552 H   0  0  0  0  0  0  0  0  0  0  0  0
   -0.1069   -3.4459   -3.9912 O   0  5  0  0  0  0  0  0  0  0  0  0
   -2.8803   -1.5703    1.6810 O   0  5  0  0  0  0  0  0  0  0  0  0
    9.5283    6.8556    1.4577 N   0  3  0  0  0  0  0  0  0  0  0  0
   10.2653    7.4228    1.0900 H   0  0  0  0  0  0  0  0  0  0  0  0
  1  6  2  0  0  0  0
  1  2  1  0  0  0  0
  1 31  1  0  0  0  0
  2  3  2  0  0  0  0
  2 32  1  0  0  0  0
  3  4  1  0  0  0  0
  3 18  1  0  0  0  0
  4  5  2  0  0  0  0
  4 33  1  0  0  0  0
  5  6  1  0  0  0  0
  5 34  1  0  0  0  0
  6  7  1  0  0  0  0
  7  8  2  0  0  0  0
  7  9  1  0  0  0  0
  9 10  1  0  0  0  0
  9 35  1  0  0  0  0
 10 11  1  0  0  0  0
 10 12  1  0  0  0  0
 10 16  1  0  0  0  0
 12 13  1  0  0  0  0
 12 36  1  0  0  0  0
 12 37  1  0  0  0  0
 13 14  1  0  0  0  0
 13 38  1  0  0  0  0
 13 39  1  0  0  0  0
 14 15  2  0  0  0  0
 14 48  1  0  0  0  0
 16 17  2  0  0  0  0
 16 49  1  0  0  0  0
 18 19  1  0  0  0  0
 18 40  1  0  0  0  0
 19 20  1  0  0  0  0
 19 41  1  0  0  0  0
 19 42  1  0  0  0  0
 20 25  1  0  0  0  0
 20 21  2  0  0  0  0
 21 22  1  0  0  0  0
 21 43  1  0  0  0  0
 22 23  1  0  0  0  0
 22 24  1  0  0  0  0
 24 25  2  0  0  0  0
 24 50  1  0  0  0  0
 25 26  1  0  0  0  0
 26 27  2  0  0  0  0
 26 30  1  0  0  0  0
 27 28  1  0  0  0  0
 28 29  1  0  0  0  0
 28 50  2  0  0  0  0
 29 44  1  0  0  0  0
 29 45  1  0  0  0  0
 30 46  1  0  0  0  0
 30 47  1  0  0  0  0
 50 51  1  0  0  0  0
M  CHG  3  48  -1  49  -1  50   1
M  END
$$$$
ZINC03814991
  -OEChem-08230709403D

 53 55  0     1  0  0  0  0  0999 V2000
    4.7644    5.6284    0.1416 C   0  0  0  0  0  0  0  0  0  0  0  0
    4.8117    4.1674    0.0441 N   0  0  3  0  0  0  0  0  0  0  0  0
    6.0820    3.4926   -0.2339 C   0  0  0  0  0  0  0  0  0  0  0  0
    6.1854    3.2047   -1.7095 C   0  0  0  0  0  0  0  0  0  0  0  0
    5.3291    3.6014   -2.6642 C   0  0  0  0  0  0  0  0  0  0  0  0
    5.7567    3.1511   -3.8883 N   0  0  0  0  0  0  0  0  0  0  0  0
    5.3037    3.3141   -4.7304 H   0  0  0  0  0  0  0  0  0  0  0  0
    6.9125    2.4339   -3.7453 C   0  0  0  0  0  0  0  0  0  0  0  0
    7.2346    2.4339   -2.3760 C   0  0  0  0  0  0  0  0  0  0  0  0
    8.3901    1.7585   -1.9534 C   0  0  0  0  0  0  0  0  0  0  0  0
    9.1347    1.1447   -2.8675 N   0  0  0  0  0  0  0  0  0  0  0  0
    8.7971    1.1676   -4.1508 C   0  0  0  0  0  0  0  0  0  0  0  0
    7.7174    1.7915   -4.5906 N   0  0  0  0  0  0  0  0  0  0  0  0
    9.6065    0.5125   -5.0642 N   0  0  0  0  0  0  0  0  0  0  0  0
    8.7453    1.7317   -0.6171 N   0  0  0  0  0  0  0  0  0  0  0  0
    3.6510    3.4212    0.2154 C   0  0  0  0  0  0  0  0  0  0  0  0
    2.4446    4.0640    0.4796 C   0  0  0  0  0  0  0  0  0  0  0  0
    1.2940    3.3284    0.6487 C   0  0  0  0  0  0  0  0  0  0  0  0
    1.3374    1.9342    0.5555 C   0  0  0  0  0  0  0  0  0  0  0  0
    2.5513    1.2914    0.2958 C   0  0  0  0  0  0  0  0  0  0  0  0
    3.6975    2.0330    0.1220 C   0  0  0  0  0  0  0  0  0  0  0  0
    0.1058    1.1426    0.7368 C   0  0  0  0  0  0  0  0  0  0  0  0
   -0.9494    1.7031    0.9626 O   0  0  0  0  0  0  0  0  0  0  0  0
    0.1493   -0.2014    0.6466 N   0  0  0  0  0  0  0  0  0  0  0  0
   -1.0738   -0.9875    0.8266 C   0  0  1  0  0  0  0  0  0  0  0  0
   -1.9220   -0.4386    0.4176 H   0  0  0  0  0  0  0  0  0  0  0  0
   -0.9323   -2.3251    0.0973 C   0  0  0  0  0  0  0  0  0  0  0  0
   -0.8290   -2.0763   -1.4088 C   0  0  0  0  0  0  0  0  0  0  0  0
   -0.6897   -3.3938   -2.1271 C   0  0  0  0  0  0  0  0  0  0  0  0
   -0.6745   -4.4257   -1.4989 O   0  0  0  0  0  0  0  0  0  0  0  0
   -1.2985   -1.2377    2.2956 C   0  0  0  0  0  0  0  0  0  0  0  0
   -0.5171   -0.8038    3.1088 O   0  0  0  0  0  0  0  0  0  0  0  0
    4.8460    5.9256    1.1872 H   0  0  0  0  0  0  0  0  0  0  0  0
    5.5919    6.0572   -0.4236 H   0  0  0  0  0  0  0  0  0  0  0  0
    3.8202    5.9894   -0.2661 H   0  0  0  0  0  0  0  0  0  0  0  0
    6.9086    4.1348    0.0698 H   0  0  0  0  0  0  0  0  0  0  0  0
    6.1256    2.5565    0.3228 H   0  0  0  0  0  0  0  0  0  0  0  0
    4.4389    4.1891   -2.4949 H   0  0  0  0  0  0  0  0  0  0  0  0
   10.4028    0.0487   -4.7615 H   0  0  0  0  0  0  0  0  0  0  0  0
    9.3769    0.5176   -6.0067 H   0  0  0  0  0  0  0  0  0  0  0  0
    8.2403    2.2492    0.0294 H   0  0  0  0  0  0  0  0  0  0  0  0
    9.4995    1.1955   -0.3264 H   0  0  0  0  0  0  0  0  0  0  0  0
    2.4117    5.1411    0.5515 H   0  0  0  0  0  0  0  0  0  0  0  0
    0.3583    3.8277    0.8529 H   0  0  0  0  0  0  0  0  0  0  0  0
    2.5888    0.2143    0.2273 H   0  0  0  0  0  0  0  0  0  0  0  0
    4.6347    1.5372   -0.0834 H   0  0  0  0  0  0  0  0  0  0  0  0
    0.9903   -0.6482    0.4625 H   0  0  0  0  0  0  0  0  0  0  0  0
   -0.0332   -2.8346    0.4439 H   0  0  0  0  0  0  0  0  0  0  0  0
   -1.8042   -2.9457    0.3042 H   0  0  0  0  0  0  0  0  0  0  0  0
   -1.7281   -1.5668   -1.7554 H   0  0  0  0  0  0  0  0  0  0  0  0
    0.0428   -1.4557   -1.6156 H   0  0  0  0  0  0  0  0  0  0  0  0
   -0.5824   -3.4207   -3.4648 O   0  5  0  0  0  0  0  0  0  0  0  0
   -2.3666   -1.9425    2.7007 O   0  5  0  0  0  0  0  0  0  0  0  0
  1  2  1  0  0  0  0
  1 33  1  0  0  0  0
  1 34  1  0  0  0  0
  1 35  1  0  0  0  0
  2  3  1  0  0  0  0
  2 16  1  0  0  0  0
  3  4  1  0  0  0  0
  3 36  1  0  0  0  0
  3 37  1  0  0  0  0
  4  9  1  0  0  0  0
  4  5  2  0  0  0  0
  5  6  1  0  0  0  0
  5 38  1  0  0  0  0
  6  7  1  0  0  0  0
  6  8  1  0  0  0  0
  8 13  2  0  0  0  0
  8  9  1  0  0  0  0
  9 10  2  0  0  0  0
 10 11  1  0  0  0  0
 10 15  1  0  0  0  0
 11 12  2  0  0  0  0
 12 13  1  0  0  0  0
 12 14  1  0  0  0  0
 14 39  1  0  0  0  0
 14 40  1  0  0  0  0
 15 41  1  0  0  0  0
 15 42  1  0  0  0  0
 16 21  2  0  0  0  0
 16 17  1  0  0  0  0
 17 18  2  0  0  0  0
 17 43  1  0  0  0  0
 18 19  1  0  0  0  0
 18 44  1  0  0  0  0
 19 20  2  0  0  0  0
 19 22  1  0  0  0  0
 20 21  1  0  0  0  0
 20 45  1  0  0  0  0
 21 46  1  0  0  0  0
 22 23  2  0  0  0  0
 22 24  1  0  0  0  0
 24 25  1  0  0  0  0
 24 47  1  0  0  0  0
 25 26  1  0  0  0  0
 25 27  1  0  0  0  0
 25 31  1  0  0  0  0
 27 28  1  0  0  0  0
 27 48  1  0  0  0  0
 27 49  1  0  0  0  0
 28 29  1  0  0  0  0
 28 50  1  0  0  0  0
 28 51  1  0  0  0  0
 29 30  2  0  0  0  0
 29 52  1  0  0  0  0
 31 32  2  0  0  0  0
 31 53  1  0  0  0  0
M  CHG  2  52  -1  53  -1
M  END
$$$$
ZINC03814991
  -OEChem-08230709403D

 54 56  0     1  0  0  0  0  0999 V2000
    4.7644    5.6284    0.1416 C   0  0  0  0  0  0  0  0  0  0  0  0
    4.8117    4.1674    0.0441 N   0  0  3  0  0  0  0  0  0  0  0  0
    6.0820    3.4926   -0.2339 C   0  0  0  0  0  0  0  0  0  0  0  0
    6.1854    3.2047   -1.7095 C   0  0  0  0  0  0  0  0  0  0  0  0
    5.3291    3.6014   -2.6642 C   0  0  0  0  0  0  0  0  0  0  0  0
    5.7567    3.1511   -3.8883 N   0  0  0  0  0  0  0  0  0  0  0  0
    5.3037    3.3141   -4.7304 H   0  0  0  0  0  0  0  0  0  0  0  0
    6.9125    2.4339   -3.7453 C   0  0  0  0  0  0  0  0  0  0  0  0
    7.2346    2.4339   -2.3760 C   0  0  0  0  0  0  0  0  0  0  0  0
    8.3901    1.7585   -1.9534 C   0  0  0  0  0  0  0  0  0  0  0  0
    9.1347    1.1447   -2.8675 N   0  0  0  0  0  0  0  0  0  0  0  0
    8.7971    1.1676   -4.1508 C   0  0  0  0  0  0  0  0  0  0  0  0
    9.6065    0.5125   -5.0642 N   0  0  0  0  0  0  0  0  0  0  0  0
    8.7453    1.7317   -0.6171 N   0  0  0  0  0  0  0  0  0  0  0  0
    3.6510    3.4212    0.2154 C   0  0  0  0  0  0  0  0  0  0  0  0
    2.4446    4.0640    0.4796 C   0  0  0  0  0  0  0  0  0  0  0  0
    1.2940    3.3284    0.6487 C   0  0  0  0  0  0  0  0  0  0  0  0
    1.3374    1.9342    0.5555 C   0  0  0  0  0  0  0  0  0  0  0  0
    2.5513    1.2914    0.2958 C   0  0  0  0  0  0  0  0  0  0  0  0
    3.6975    2.0330    0.1220 C   0  0  0  0  0  0  0  0  0  0  0  0
    0.1058    1.1426    0.7368 C   0  0  0  0  0  0  0  0  0  0  0  0
   -0.9494    1.7031    0.9626 O   0  0  0  0  0  0  0  0  0  0  0  0
    0.1493   -0.2014    0.6466 N   0  0  0  0  0  0  0  0  0  0  0  0
   -1.0738   -0.9875    0.8266 C   0  0  1  0  0  0  0  0  0  0  0  0
   -1.9220   -0.4386    0.4176 H   0  0  0  0  0  0  0  0  0  0  0  0
   -0.9323   -2.3251    0.0973 C   0  0  0  0  0  0  0  0  0  0  0  0
   -0.8290   -2.0763   -1.4088 C   0  0  0  0  0  0  0  0  0  0  0  0
   -0.6897   -3.3938   -2.1271 C   0  0  0  0  0  0  0  0  0  0  0  0
   -0.6745   -4.4257   -1.4989 O   0  0  0  0  0  0  0  0  0  0  0  0
   -1.2985   -1.2377    2.2956 C   0  0  0  0  0  0  0  0  0  0  0  0
   -0.5171   -0.8038    3.1088 O   0  0  0  0  0  0  0  0  0  0  0  0
    4.8460    5.9256    1.1872 H   0  0  0  0  0  0  0  0  0  0  0  0
    5.5919    6.0572   -0.4236 H   0  0  0  0  0  0  0  0  0  0  0  0
    3.8202    5.9894   -0.2661 H   0  0  0  0  0  0  0  0  0  0  0  0
    6.9086    4.1348    0.0698 H   0  0  0  0  0  0  0  0  0  0  0  0
    6.1256    2.5565    0.3228 H   0  0  0  0  0  0  0  0  0  0  0  0
    4.4389    4.1891   -2.4949 H   0  0  0  0  0  0  0  0  0  0  0  0
   10.4028    0.0487   -4.7615 H   0  0  0  0  0  0  0  0  0  0  0  0
    9.3769    0.5176   -6.0067 H   0  0  0  0  0  0  0  0  0  0  0  0
    8.2403    2.2492    0.0294 H   0  0  0  0  0  0  0  0  0  0  0  0
    9.4995    1.1955   -0.3264 H   0  0  0  0  0  0  0  0  0  0  0  0
    2.4117    5.1411    0.5515 H   0  0  0  0  0  0  0  0  0  0  0  0
    0.3583    3.8277    0.8529 H   0  0  0  0  0  0  0  0  0  0  0  0
    2.5888    0.2143    0.2273 H   0  0  0  0  0  0  0  0  0  0  0  0
    4.6347    1.5372   -0.0834 H   0  0  0  0  0  0  0  0  0  0  0  0
    0.9903   -0.6482    0.4625 H   0  0  0  0  0  0  0  0  0  0  0  0
   -0.0332   -2.8346    0.4439 H   0  0  0  0  0  0  0  0  0  0  0  0
   -1.8042   -2.9457    0.3042 H   0  0  0  0  0  0  0  0  0  0  0  0
   -1.7281   -1.5668   -1.7554 H   0  0  0  0  0  0  0  0  0  0  0  0
    0.0428   -1.4557   -1.6156 H   0  0  0  0  0  0  0  0  0  0  0  0
   -0.5824   -3.4207   -3.4648 O   0  5  0  0  0  0  0  0  0  0  0  0
   -2.3666   -1.9425    2.7007 O   0  5  0  0  0  0  0  0  0  0  0  0
    7.7019    1.7907   -4.6617 N   0  3  0  0  0  0  0  0  0  0  0  0
    7.4545    1.8025   -5.6306 H   0  0  0  0  0  0  0  0  0  0  0  0
  1  2  1  0  0  0  0
  1 32  1  0  0  0  0
  1 33  1  0  0  0  0
  1 34  1  0  0  0  0
  2  3  1  0  0  0  0
  2 15  1  0  0  0  0
  3  4  1  0  0  0  0
  3 35  1  0  0  0  0
  3 36  1  0  0  0  0
  4  9  1  0  0  0  0
  4  5  2  0  0  0  0
  5  6  1  0  0  0  0
  5 37  1  0  0  0  0
  6  7  1  0  0  0  0
  6  8  1  0  0  0  0
  8  9  2  0  0  0  0
  8 53  1  0  0  0  0
  9 10  1  0  0  0  0
 10 11  2  0  0  0  0
 10 14  1  0  0  0  0
 11 12  1  0  0  0  0
 12 13  1  0  0  0  0
 12 53  2  0  0  0  0
 13 38  1  0  0  0  0
 13 39  1  0  0  0  0
 14 40  1  0  0  0  0
 14 41  1  0  0  0  0
 15 20  2  0  0  0  0
 15 16  1  0  0  0  0
 16 17  2  0  0  0  0
 16 42  1  0  0  0  0
 17 18  1  0  0  0  0
 17 43  1  0  0  0  0
 18 19  2  0  0  0  0
 18 21  1  0  0  0  0
 19 20  1  0  0  0  0
 19 44  1  0  0  0  0
 20 45  1  0  0  0  0
 21 22  2  0  0  0  0
 21 23  1  0  0  0  0
 23 24  1  0  0  0  0
 23 46  1  0  0  0  0
 24 25  1  0  0  0  0
 24 26  1  0  0  0  0
 24 30  1  0  0  0  0
 26 27  1  0  0  0  0
 26 47  1  0  0  0  0
 26 48  1  0  0  0  0
 27 28  1  0  0  0  0
 27 49  1  0  0  0  0
 27 50  1  0  0  0  0
 28 29  2  0  0  0  0
 28 51  1  0  0  0  0
 30 31  2  0  0  0  0
 30 52  1  0  0  0  0
 53 54  1  0  0  0  0
M  CHG  3  51  -1  52  -1  53   1
M  END
$$$$
ZINC03814992
  -OEChem-08230709403D

 38 40  0     0  0  0  0  0  0999 V2000
    0.2606    3.6029    0.9088 C   0  0  0  0  0  0  0  0  0  0  0  0
   -0.6264    2.8444    1.8622 C   0  0  0  0  0  0  0  0  0  0  0  0
   -2.0583    2.7794    1.6425 C   0  0  0  0  0  0  0  0  0  0  0  0
   -2.8413    3.3422    0.5943 C   0  0  0  0  0  0  0  0  0  0  0  0
   -4.1493    3.1494    0.5887 N   0  0  0  0  0  0  0  0  0  0  0  0
   -4.7620    2.4406    1.5291 C   0  0  0  0  0  0  0  0  0  0  0  0
   -4.0846    1.8890    2.5265 N   0  0  0  0  0  0  0  0  0  0  0  0
   -2.7763    2.0345    2.6046 C   0  0  0  0  0  0  0  0  0  0  0  0
   -1.5209    1.4861    3.7307 S   0  0  0  0  0  0  0  0  0  0  0  0
   -0.0993    2.2171    2.9412 C   0  0  0  0  0  0  0  0  0  0  0  0
    1.3156    2.1540    3.3630 C   0  0  0  0  0  0  0  0  0  0  0  0
    2.3098    1.8407    2.4357 C   0  0  0  0  0  0  0  0  0  0  0  0
    3.6336    1.7883    2.8361 C   0  0  0  0  0  0  0  0  0  0  0  0
    3.9719    2.0355    4.1598 C   0  0  0  0  0  0  0  0  0  0  0  0
    2.9912    2.3413    5.0846 C   0  0  0  0  0  0  0  0  0  0  0  0
    1.6636    2.4026    4.6959 C   0  0  0  0  0  0  0  0  0  0  0  0
    0.7004    2.7039    5.6065 O   0  0  0  0  0  0  0  0  0  0  0  0
    1.1288    2.9456    6.9482 C   0  0  0  0  0  0  0  0  0  0  0  0
    4.6045    1.4886    1.9324 O   0  0  0  0  0  0  0  0  0  0  0  0
    5.9489    1.4456    2.4147 C   0  0  0  0  0  0  0  0  0  0  0  0
   -6.1355    2.2746    1.4675 N   0  0  0  0  0  0  0  0  0  0  0  0
   -2.2406    4.0874   -0.4036 N   0  0  0  0  0  0  0  0  0  0  0  0
    0.5288    2.9587    0.0714 H   0  0  0  0  0  0  0  0  0  0  0  0
    1.1653    3.9194    1.4280 H   0  0  0  0  0  0  0  0  0  0  0  0
   -0.2706    4.4792    0.5375 H   0  0  0  0  0  0  0  0  0  0  0  0
    2.0474    1.6435    1.4067 H   0  0  0  0  0  0  0  0  0  0  0  0
    5.0059    1.9890    4.4681 H   0  0  0  0  0  0  0  0  0  0  0  0
    3.2610    2.5326    6.1127 H   0  0  0  0  0  0  0  0  0  0  0  0
    1.8196    3.7886    6.9627 H   0  0  0  0  0  0  0  0  0  0  0  0
    0.2635    3.1741    7.5703 H   0  0  0  0  0  0  0  0  0  0  0  0
    1.6302    2.0583    7.3349 H   0  0  0  0  0  0  0  0  0  0  0  0
    6.6216    1.1962    1.5941 H   0  0  0  0  0  0  0  0  0  0  0  0
    6.2196    2.4192    2.8233 H   0  0  0  0  0  0  0  0  0  0  0  0
    6.0311    0.6887    3.1947 H   0  0  0  0  0  0  0  0  0  0  0  0
   -6.5928    1.7587    2.1500 H   0  0  0  0  0  0  0  0  0  0  0  0
   -6.6403    2.6741    0.7419 H   0  0  0  0  0  0  0  0  0  0  0  0
   -2.7758    4.6772   -0.9573 H   0  0  0  0  0  0  0  0  0  0  0  0
   -1.2841    4.0203   -0.5499 H   0  0  0  0  0  0  0  0  0  0  0  0
  1  2  1  0  0  0  0
  1 23  1  0  0  0  0
  1 24  1  0  0  0  0
  1 25  1  0  0  0  0
  2 10  2  0  0  0  0
  2  3  1  0  0  0  0
  3  8  2  0  0  0  0
  3  4  1  0  0  0  0
  4  5  2  0  0  0  0
  4 22  1  0  0  0  0
  5  6  1  0  0  0  0
  6  7  2  0  0  0  0
  6 21  1  0  0  0  0
  7  8  1  0  0  0  0
  8  9  1  0  0  0  0
  9 10  1  0  0  0  0
 10 11  1  0  0  0  0
 11 16  2  0  0  0  0
 11 12  1  0  0  0  0
 12 13  2  0  0  0  0
 12 26  1  0  0  0  0
 13 14  1  0  0  0  0
 13 19  1  0  0  0  0
 14 15  2  0  0  0  0
 14 27  1  0  0  0  0
 15 16  1  0  0  0  0
 15 28  1  0  0  0  0
 16 17  1  0  0  0  0
 17 18  1  0  0  0  0
 18 29  1  0  0  0  0
 18 30  1  0  0  0  0
 18 31  1  0  0  0  0
 19 20  1  0  0  0  0
 20 32  1  0  0  0  0
 20 33  1  0  0  0  0
 20 34  1  0  0  0  0
 21 35  1  0  0  0  0
 21 36  1  0  0  0  0
 22 37  1  0  0  0  0
 22 38  1  0  0  0  0
M  END
$$$$
ZINC03814992
  -OEChem-08230709403D

 39 41  0     0  0  0  0  0  0999 V2000
    0.2606    3.6029    0.9088 C   0  0  0  0  0  0  0  0  0  0  0  0
   -0.6264    2.8444    1.8622 C   0  0  0  0  0  0  0  0  0  0  0  0
   -2.0583    2.7794    1.6425 C   0  0  0  0  0  0  0  0  0  0  0  0
   -2.8413    3.3422    0.5943 C   0  0  0  0  0  0  0  0  0  0  0  0
   -4.1493    3.1494    0.5887 N   0  0  0  0  0  0  0  0  0  0  0  0
   -4.7620    2.4406    1.5291 C   0  0  0  0  0  0  0  0  0  0  0  0
   -2.7763    2.0345    2.6046 C   0  0  0  0  0  0  0  0  0  0  0  0
   -1.5209    1.4861    3.7307 S   0  0  0  0  0  0  0  0  0  0  0  0
   -0.0993    2.2171    2.9412 C   0  0  0  0  0  0  0  0  0  0  0  0
    1.3156    2.1540    3.3630 C   0  0  0  0  0  0  0  0  0  0  0  0
    2.3098    1.8407    2.4357 C   0  0  0  0  0  0  0  0  0  0  0  0
    3.6336    1.7883    2.8361 C   0  0  0  0  0  0  0  0  0  0  0  0
    3.9719    2.0355    4.1598 C   0  0  0  0  0  0  0  0  0  0  0  0
    2.9912    2.3413    5.0846 C   0  0  0  0  0  0  0  0  0  0  0  0
    1.6636    2.4026    4.6959 C   0  0  0  0  0  0  0  0  0  0  0  0
    0.7004    2.7039    5.6065 O   0  0  0  0  0  0  0  0  0  0  0  0
    1.1288    2.9456    6.9482 C   0  0  0  0  0  0  0  0  0  0  0  0
    4.6045    1.4886    1.9324 O   0  0  0  0  0  0  0  0  0  0  0  0
    5.9489    1.4456    2.4147 C   0  0  0  0  0  0  0  0  0  0  0  0
   -6.1355    2.2746    1.4675 N   0  0  0  0  0  0  0  0  0  0  0  0
   -2.2406    4.0874   -0.4036 N   0  0  0  0  0  0  0  0  0  0  0  0
    0.5288    2.9587    0.0714 H   0  0  0  0  0  0  0  0  0  0  0  0
    1.1653    3.9194    1.4280 H   0  0  0  0  0  0  0  0  0  0  0  0
   -0.2706    4.4792    0.5375 H   0  0  0  0  0  0  0  0  0  0  0  0
    2.0474    1.6435    1.4067 H   0  0  0  0  0  0  0  0  0  0  0  0
    5.0059    1.9890    4.4681 H   0  0  0  0  0  0  0  0  0  0  0  0
    3.2610    2.5326    6.1127 H   0  0  0  0  0  0  0  0  0  0  0  0
    1.8196    3.7886    6.9627 H   0  0  0  0  0  0  0  0  0  0  0  0
    0.2635    3.1741    7.5703 H   0  0  0  0  0  0  0  0  0  0  0  0
    1.6302    2.0583    7.3349 H   0  0  0  0  0  0  0  0  0  0  0  0
    6.6216    1.1962    1.5941 H   0  0  0  0  0  0  0  0  0  0  0  0
    6.2196    2.4192    2.8233 H   0  0  0  0  0  0  0  0  0  0  0  0
    6.0311    0.6887    3.1947 H   0  0  0  0  0  0  0  0  0  0  0  0
   -6.5928    1.7587    2.1500 H   0  0  0  0  0  0  0  0  0  0  0  0
   -6.6403    2.6741    0.7419 H   0  0  0  0  0  0  0  0  0  0  0  0
   -2.7758    4.6772   -0.9573 H   0  0  0  0  0  0  0  0  0  0  0  0
   -1.2841    4.0203   -0.5499 H   0  0  0  0  0  0  0  0  0  0  0  0
   -4.1187    1.8516    2.5758 N   0  3  0  0  0  0  0  0  0  0  0  0
   -4.6383    1.3301    3.2525 H   0  0  0  0  0  0  0  0  0  0  0  0
  1  2  1  0  0  0  0
  1 22  1  0  0  0  0
  1 23  1  0  0  0  0
  1 24  1  0  0  0  0
  2  9  2  0  0  0  0
  2  3  1  0  0  0  0
  3  7  2  0  0  0  0
  3  4  1  0  0  0  0
  4  5  2  0  0  0  0
  4 21  1  0  0  0  0
  5  6  1  0  0  0  0
  6 20  1  0  0  0  0
  6 38  2  0  0  0  0
  7  8  1  0  0  0  0
  7 38  1  0  0  0  0
  8  9  1  0  0  0  0
  9 10  1  0  0  0  0
 10 15  2  0  0  0  0
 10 11  1  0  0  0  0
 11 12  2  0  0  0  0
 11 25  1  0  0  0  0
 12 13  1  0  0  0  0
 12 18  1  0  0  0  0
 13 14  2  0  0  0  0
 13 26  1  0  0  0  0
 14 15  1  0  0  0  0
 14 27  1  0  0  0  0
 15 16  1  0  0  0  0
 16 17  1  0  0  0  0
 17 28  1  0  0  0  0
 17 29  1  0  0  0  0
 17 30  1  0  0  0  0
 18 19  1  0  0  0  0
 19 31  1  0  0  0  0
 19 32  1  0  0  0  0
 19 33  1  0  0  0  0
 20 34  1  0  0  0  0
 20 35  1  0  0  0  0
 21 36  1  0  0  0  0
 21 37  1  0  0  0  0
 38 39  1  0  0  0  0
M  CHG  1  38   1
M  END
$$$$
ZINC03814993
  -OEChem-08230709403D

 41 43  0     0  0  0  0  0  0999 V2000
    0.1775    5.1477   -2.6160 C   0  0  0  0  0  0  0  0  0  0  0  0
    1.6279    5.3887   -2.9465 C   0  0  0  0  0  0  0  0  0  0  0  0
    2.5868    4.6533   -2.3664 C   0  0  0  0  0  0  0  0  0  0  0  0
    4.0914    5.2985   -3.0725 S   0  0  0  0  0  0  0  0  0  0  0  0
    3.3916    6.5445   -4.1224 C   0  0  0  0  0  0  0  0  0  0  0  0
    2.0035    6.4244   -3.8945 C   0  0  0  0  0  0  0  0  0  0  0  0
    1.1825    7.3254   -4.6275 C   0  0  0  0  0  0  0  0  0  0  0  0
    1.7475    8.1929   -5.4504 N   0  0  0  0  0  0  0  0  0  0  0  0
    3.0627    8.2529   -5.6177 C   0  0  0  0  0  0  0  0  0  0  0  0
    3.8773    7.4381   -4.9618 N   0  0  0  0  0  0  0  0  0  0  0  0
    3.5944    9.1840   -6.4946 N   0  0  0  0  0  0  0  0  0  0  0  0
   -0.1923    7.2949   -4.4807 N   0  0  0  0  0  0  0  0  0  0  0  0
    2.4299    3.5413   -1.3614 C   0  0  0  0  0  0  0  0  0  0  0  0
    2.2861    2.2271   -2.0847 C   0  0  0  0  0  0  0  0  0  0  0  0
    1.0292    1.7216   -2.3557 C   0  0  0  0  0  0  0  0  0  0  0  0
    0.8970    0.5099   -3.0170 C   0  0  0  0  0  0  0  0  0  0  0  0
    2.0266   -0.1893   -3.4163 C   0  0  0  0  0  0  0  0  0  0  0  0
    3.2830    0.3186   -3.1501 C   0  0  0  0  0  0  0  0  0  0  0  0
    3.4154    1.5279   -2.4835 C   0  0  0  0  0  0  0  0  0  0  0  0
    4.6525    2.0279   -2.2214 O   0  0  0  0  0  0  0  0  0  0  0  0
    5.7712    1.2552   -2.6612 C   0  0  0  0  0  0  0  0  0  0  0  0
   -0.3401    0.0098   -3.2791 O   0  0  0  0  0  0  0  0  0  0  0  0
   -0.4018   -1.2401   -3.9689 C   0  0  0  0  0  0  0  0  0  0  0  0
   -0.1426    5.8535   -1.8495 H   0  0  0  0  0  0  0  0  0  0  0  0
   -0.4272    5.2856   -3.5123 H   0  0  0  0  0  0  0  0  0  0  0  0
    0.0533    4.1296   -2.2470 H   0  0  0  0  0  0  0  0  0  0  0  0
    4.5543    9.2355   -6.6241 H   0  0  0  0  0  0  0  0  0  0  0  0
    3.0067    9.7846   -6.9793 H   0  0  0  0  0  0  0  0  0  0  0  0
   -0.7626    7.6540   -5.1784 H   0  0  0  0  0  0  0  0  0  0  0  0
   -0.5863    6.9145   -3.6801 H   0  0  0  0  0  0  0  0  0  0  0  0
    1.5419    3.7216   -0.7556 H   0  0  0  0  0  0  0  0  0  0  0  0
    3.3085    3.5072   -0.7171 H   0  0  0  0  0  0  0  0  0  0  0  0
    0.1497    2.2681   -2.0487 H   0  0  0  0  0  0  0  0  0  0  0  0
    1.9235   -1.1309   -3.9350 H   0  0  0  0  0  0  0  0  0  0  0  0
    4.1625   -0.2256   -3.4613 H   0  0  0  0  0  0  0  0  0  0  0  0
    5.7449    0.2746   -2.1858 H   0  0  0  0  0  0  0  0  0  0  0  0
    5.7270    1.1354   -3.7437 H   0  0  0  0  0  0  0  0  0  0  0  0
    6.6950    1.7660   -2.3896 H   0  0  0  0  0  0  0  0  0  0  0  0
    0.0868   -1.1445   -4.9385 H   0  0  0  0  0  0  0  0  0  0  0  0
    0.1048   -2.0052   -3.3806 H   0  0  0  0  0  0  0  0  0  0  0  0
   -1.4442   -1.5241   -4.1138 H   0  0  0  0  0  0  0  0  0  0  0  0
  1  2  1  0  0  0  0
  1 24  1  0  0  0  0
  1 25  1  0  0  0  0
  1 26  1  0  0  0  0
  2  6  1  0  0  0  0
  2  3  2  0  0  0  0
  3  4  1  0  0  0  0
  3 13  1  0  0  0  0
  4  5  1  0  0  0  0
  5 10  2  0  0  0  0
  5  6  1  0  0  0  0
  6  7  2  0  0  0  0
  7  8  1  0  0  0  0
  7 12  1  0  0  0  0
  8  9  2  0  0  0  0
  9 10  1  0  0  0  0
  9 11  1  0  0  0  0
 11 27  1  0  0  0  0
 11 28  1  0  0  0  0
 12 29  1  0  0  0  0
 12 30  1  0  0  0  0
 13 14  1  0  0  0  0
 13 31  1  0  0  0  0
 13 32  1  0  0  0  0
 14 19  2  0  0  0  0
 14 15  1  0  0  0  0
 15 16  2  0  0  0  0
 15 33  1  0  0  0  0
 16 17  1  0  0  0  0
 16 22  1  0  0  0  0
 17 18  2  0  0  0  0
 17 34  1  0  0  0  0
 18 19  1  0  0  0  0
 18 35  1  0  0  0  0
 19 20  1  0  0  0  0
 20 21  1  0  0  0  0
 21 36  1  0  0  0  0
 21 37  1  0  0  0  0
 21 38  1  0  0  0  0
 22 23  1  0  0  0  0
 23 39  1  0  0  0  0
 23 40  1  0  0  0  0
 23 41  1  0  0  0  0
M  END
$$$$
ZINC03814993
  -OEChem-08230709403D

 42 44  0     0  0  0  0  0  0999 V2000
    0.1775    5.1477   -2.6160 C   0  0  0  0  0  0  0  0  0  0  0  0
    1.6279    5.3887   -2.9465 C   0  0  0  0  0  0  0  0  0  0  0  0
    2.5868    4.6533   -2.3664 C   0  0  0  0  0  0  0  0  0  0  0  0
    4.0914    5.2985   -3.0725 S   0  0  0  0  0  0  0  0  0  0  0  0
    3.3916    6.5445   -4.1224 C   0  0  0  0  0  0  0  0  0  0  0  0
    2.0035    6.4244   -3.8945 C   0  0  0  0  0  0  0  0  0  0  0  0
    1.1825    7.3254   -4.6275 C   0  0  0  0  0  0  0  0  0  0  0  0
    1.7475    8.1929   -5.4504 N   0  0  0  0  0  0  0  0  0  0  0  0
    3.0627    8.2529   -5.6177 C   0  0  0  0  0  0  0  0  0  0  0  0
    3.5944    9.1840   -6.4946 N   0  0  0  0  0  0  0  0  0  0  0  0
   -0.1923    7.2949   -4.4807 N   0  0  0  0  0  0  0  0  0  0  0  0
    2.4299    3.5413   -1.3614 C   0  0  0  0  0  0  0  0  0  0  0  0
    2.2861    2.2271   -2.0847 C   0  0  0  0  0  0  0  0  0  0  0  0
    1.0292    1.7216   -2.3557 C   0  0  0  0  0  0  0  0  0  0  0  0
    0.8970    0.5099   -3.0170 C   0  0  0  0  0  0  0  0  0  0  0  0
    2.0266   -0.1893   -3.4163 C   0  0  0  0  0  0  0  0  0  0  0  0
    3.2830    0.3186   -3.1501 C   0  0  0  0  0  0  0  0  0  0  0  0
    3.4154    1.5279   -2.4835 C   0  0  0  0  0  0  0  0  0  0  0  0
    4.6525    2.0279   -2.2214 O   0  0  0  0  0  0  0  0  0  0  0  0
    5.7712    1.2552   -2.6612 C   0  0  0  0  0  0  0  0  0  0  0  0
   -0.3401    0.0098   -3.2791 O   0  0  0  0  0  0  0  0  0  0  0  0
   -0.4018   -1.2401   -3.9689 C   0  0  0  0  0  0  0  0  0  0  0  0
   -0.1426    5.8535   -1.8495 H   0  0  0  0  0  0  0  0  0  0  0  0
   -0.4272    5.2856   -3.5123 H   0  0  0  0  0  0  0  0  0  0  0  0
    0.0533    4.1296   -2.2470 H   0  0  0  0  0  0  0  0  0  0  0  0
    4.5543    9.2355   -6.6241 H   0  0  0  0  0  0  0  0  0  0  0  0
    3.0067    9.7846   -6.9793 H   0  0  0  0  0  0  0  0  0  0  0  0
   -0.7626    7.6540   -5.1784 H   0  0  0  0  0  0  0  0  0  0  0  0
   -0.5863    6.9145   -3.6801 H   0  0  0  0  0  0  0  0  0  0  0  0
    1.5419    3.7216   -0.7556 H   0  0  0  0  0  0  0  0  0  0  0  0
    3.3085    3.5072   -0.7171 H   0  0  0  0  0  0  0  0  0  0  0  0
    0.1497    2.2681   -2.0487 H   0  0  0  0  0  0  0  0  0  0  0  0
    1.9235   -1.1309   -3.9350 H   0  0  0  0  0  0  0  0  0  0  0  0
    4.1625   -0.2256   -3.4613 H   0  0  0  0  0  0  0  0  0  0  0  0
    5.7449    0.2746   -2.1858 H   0  0  0  0  0  0  0  0  0  0  0  0
    5.7270    1.1354   -3.7437 H   0  0  0  0  0  0  0  0  0  0  0  0
    6.6950    1.7660   -2.3896 H   0  0  0  0  0  0  0  0  0  0  0  0
    0.0868   -1.1445   -4.9385 H   0  0  0  0  0  0  0  0  0  0  0  0
    0.1048   -2.0052   -3.3806 H   0  0  0  0  0  0  0  0  0  0  0  0
   -1.4442   -1.5241   -4.1138 H   0  0  0  0  0  0  0  0  0  0  0  0
    3.9469    7.4425   -4.9718 N   0  3  0  0  0  0  0  0  0  0  0  0
    4.9397    7.4744   -5.0867 H   0  0  0  0  0  0  0  0  0  0  0  0
  1  2  1  0  0  0  0
  1 23  1  0  0  0  0
  1 24  1  0  0  0  0
  1 25  1  0  0  0  0
  2  6  1  0  0  0  0
  2  3  2  0  0  0  0
  3  4  1  0  0  0  0
  3 12  1  0  0  0  0
  4  5  1  0  0  0  0
  5  6  2  0  0  0  0
  5 41  1  0  0  0  0
  6  7  1  0  0  0  0
  7  8  2  0  0  0  0
  7 11  1  0  0  0  0
  8  9  1  0  0  0  0
  9 10  1  0  0  0  0
  9 41  2  0  0  0  0
 10 26  1  0  0  0  0
 10 27  1  0  0  0  0
 11 28  1  0  0  0  0
 11 29  1  0  0  0  0
 12 13  1  0  0  0  0
 12 30  1  0  0  0  0
 12 31  1  0  0  0  0
 13 18  2  0  0  0  0
 13 14  1  0  0  0  0
 14 15  2  0  0  0  0
 14 32  1  0  0  0  0
 15 16  1  0  0  0  0
 15 21  1  0  0  0  0
 16 17  2  0  0  0  0
 16 33  1  0  0  0  0
 17 18  1  0  0  0  0
 17 34  1  0  0  0  0
 18 19  1  0  0  0  0
 19 20  1  0  0  0  0
 20 35  1  0  0  0  0
 20 36  1  0  0  0  0
 20 37  1  0  0  0  0
 21 22  1  0  0  0  0
 22 38  1  0  0  0  0
 22 39  1  0  0  0  0
 22 40  1  0  0  0  0
 41 42  1  0  0  0  0
M  CHG  1  41   1
M  END
$$$$
ZINC03814994
  -OEChem-08230709403D

 35 37  0     0  0  0  0  0  0999 V2000
   -2.3717    5.5084    0.0545 C   0  0  0  0  0  0  0  0  0  0  0  0
   -2.4259    4.0805    0.0473 O   0  0  0  0  0  0  0  0  0  0  0  0
   -1.2401    3.4184    0.0324 C   0  0  0  0  0  0  0  0  0  0  0  0
   -0.0479    4.1333    0.0248 C   0  0  0  0  0  0  0  0  0  0  0  0
    1.1587    3.4689    0.0097 C   0  0  0  0  0  0  0  0  0  0  0  0
    1.1861    2.0728    0.0019 C   0  0  0  0  0  0  0  0  0  0  0  0
   -0.0163    1.3536    0.0095 C   0  0  0  0  0  0  0  0  0  0  0  0
   -1.2231    2.0316    0.0189 C   0  0  0  0  0  0  0  0  0  0  0  0
    0.0021   -0.0041    0.0020 O   0  0  0  0  0  0  0  0  0  0  0  0
   -1.2622   -0.6701    0.0105 C   0  0  0  0  0  0  0  0  0  0  0  0
    2.4775    1.3571   -0.0148 C   0  0  0  0  0  0  0  0  0  0  0  0
    3.7135    1.9552   -0.0235 N   0  0  0  0  0  0  0  0  0  0  0  0
    3.8959    2.9384   -0.0197 H   0  0  0  0  0  0  0  0  0  0  0  0
    4.6527    0.9535   -0.0384 C   0  0  0  0  0  0  0  0  0  0  0  0
    3.9368   -0.2562   -0.0384 C   0  0  0  0  0  0  0  0  0  0  0  0
    2.6190    0.0535   -0.0180 N   0  0  0  0  0  0  0  0  0  0  0  0
    4.6637   -1.4603   -0.0515 C   0  0  0  0  0  0  0  0  0  0  0  0
    5.9907   -1.4014   -0.0638 N   0  0  0  0  0  0  0  0  0  0  0  0
    6.6255   -0.2364   -0.0638 C   0  0  0  0  0  0  0  0  0  0  0  0
    5.9811    0.9195   -0.0512 N   0  0  0  0  0  0  0  0  0  0  0  0
    8.0107   -0.2297   -0.0769 N   0  0  0  0  0  0  0  0  0  0  0  0
    4.0103   -2.6804   -0.0512 N   0  0  0  0  0  0  0  0  0  0  0  0
   -1.8359    5.8472    0.9412 H   0  0  0  0  0  0  0  0  0  0  0  0
   -1.8530    5.8568   -0.8386 H   0  0  0  0  0  0  0  0  0  0  0  0
   -3.3848    5.9105    0.0663 H   0  0  0  0  0  0  0  0  0  0  0  0
   -0.0678    5.2131    0.0312 H   0  0  0  0  0  0  0  0  0  0  0  0
    2.0830    4.0275    0.0042 H   0  0  0  0  0  0  0  0  0  0  0  0
   -2.1519    1.4804    0.0199 H   0  0  0  0  0  0  0  0  0  0  0  0
   -1.1047   -1.7486    0.0032 H   0  0  0  0  0  0  0  0  0  0  0  0
   -1.8146   -0.3896    0.9073 H   0  0  0  0  0  0  0  0  0  0  0  0
   -1.8316   -0.3800   -0.8725 H   0  0  0  0  0  0  0  0  0  0  0  0
    8.4917    0.6126   -0.0767 H   0  0  0  0  0  0  0  0  0  0  0  0
    8.4997   -1.0674   -0.0862 H   0  0  0  0  0  0  0  0  0  0  0  0
    4.2608   -3.1928   -0.8726 H   0  0  0  0  0  0  0  0  0  0  0  0
    3.0408   -2.7114   -0.0422 H   0  0  0  0  0  0  0  0  0  0  0  0
  1  2  1  0  0  0  0
  1 23  1  0  0  0  0
  1 24  1  0  0  0  0
  1 25  1  0  0  0  0
  2  3  1  0  0  0  0
  3  8  2  0  0  0  0
  3  4  1  0  0  0  0
  4  5  2  0  0  0  0
  4 26  1  0  0  0  0
  5  6  1  0  0  0  0
  5 27  1  0  0  0  0
  6  7  2  0  0  0  0
  6 11  1  0  0  0  0
  7  8  1  0  0  0  0
  7  9  1  0  0  0  0
  8 28  1  0  0  0  0
  9 10  1  0  0  0  0
 10 29  1  0  0  0  0
 10 30  1  0  0  0  0
 10 31  1  0  0  0  0
 11 16  2  0  0  0  0
 11 12  1  0  0  0  0
 12 13  1  0  0  0  0
 12 14  1  0  0  0  0
 14 20  2  0  0  0  0
 14 15  1  0  0  0  0
 15 16  1  0  0  0  0
 15 17  2  0  0  0  0
 17 18  1  0  0  0  0
 17 22  1  0  0  0  0
 18 19  2  0  0  0  0
 19 20  1  0  0  0  0
 19 21  1  0  0  0  0
 21 32  1  0  0  0  0
 21 33  1  0  0  0  0
 22 34  1  0  0  0  0
 22 35  1  0  0  0  0
M  END
$$$$
ZINC03814994
  -OEChem-08230709403D

 36 38  0     0  0  0  0  0  0999 V2000
   -2.3717    5.5084    0.0545 C   0  0  0  0  0  0  0  0  0  0  0  0
   -2.4259    4.0805    0.0473 O   0  0  0  0  0  0  0  0  0  0  0  0
   -1.2401    3.4184    0.0324 C   0  0  0  0  0  0  0  0  0  0  0  0
   -0.0479    4.1333    0.0248 C   0  0  0  0  0  0  0  0  0  0  0  0
    1.1587    3.4689    0.0097 C   0  0  0  0  0  0  0  0  0  0  0  0
    1.1861    2.0728    0.0019 C   0  0  0  0  0  0  0  0  0  0  0  0
   -0.0163    1.3536    0.0095 C   0  0  0  0  0  0  0  0  0  0  0  0
   -1.2231    2.0316    0.0189 C   0  0  0  0  0  0  0  0  0  0  0  0
    0.0021   -0.0041    0.0020 O   0  0  0  0  0  0  0  0  0  0  0  0
   -1.2622   -0.6701    0.0105 C   0  0  0  0  0  0  0  0  0  0  0  0
    2.4775    1.3571   -0.0148 C   0  0  0  0  0  0  0  0  0  0  0  0
    3.7135    1.9552   -0.0235 N   0  0  0  0  0  0  0  0  0  0  0  0
    3.8959    2.9384   -0.0197 H   0  0  0  0  0  0  0  0  0  0  0  0
    4.6527    0.9535   -0.0384 C   0  0  0  0  0  0  0  0  0  0  0  0
    3.9368   -0.2562   -0.0384 C   0  0  0  0  0  0  0  0  0  0  0  0
    2.6190    0.0535   -0.0180 N   0  0  0  0  0  0  0  0  0  0  0  0
    4.6637   -1.4603   -0.0515 C   0  0  0  0  0  0  0  0  0  0  0  0
    5.9907   -1.4014   -0.0638 N   0  0  0  0  0  0  0  0  0  0  0  0
    6.6255   -0.2364   -0.0638 C   0  0  0  0  0  0  0  0  0  0  0  0
    8.0107   -0.2297   -0.0769 N   0  0  0  0  0  0  0  0  0  0  0  0
    4.0103   -2.6804   -0.0512 N   0  0  0  0  0  0  0  0  0  0  0  0
   -1.8359    5.8472    0.9412 H   0  0  0  0  0  0  0  0  0  0  0  0
   -1.8530    5.8568   -0.8386 H   0  0  0  0  0  0  0  0  0  0  0  0
   -3.3848    5.9105    0.0663 H   0  0  0  0  0  0  0  0  0  0  0  0
   -0.0678    5.2131    0.0312 H   0  0  0  0  0  0  0  0  0  0  0  0
    2.0830    4.0275    0.0042 H   0  0  0  0  0  0  0  0  0  0  0  0
   -2.1519    1.4804    0.0199 H   0  0  0  0  0  0  0  0  0  0  0  0
   -1.1047   -1.7486    0.0032 H   0  0  0  0  0  0  0  0  0  0  0  0
   -1.8146   -0.3896    0.9073 H   0  0  0  0  0  0  0  0  0  0  0  0
   -1.8316   -0.3800   -0.8725 H   0  0  0  0  0  0  0  0  0  0  0  0
    8.4917    0.6126   -0.0767 H   0  0  0  0  0  0  0  0  0  0  0  0
    8.4997   -1.0674   -0.0862 H   0  0  0  0  0  0  0  0  0  0  0  0
    4.2608   -3.1928   -0.8726 H   0  0  0  0  0  0  0  0  0  0  0  0
    3.0408   -2.7114   -0.0422 H   0  0  0  0  0  0  0  0  0  0  0  0
    6.0187    0.9815   -0.0512 N   0  3  0  0  0  0  0  0  0  0  0  0
    6.5009    1.8575   -0.0509 H   0  0  0  0  0  0  0  0  0  0  0  0
  1  2  1  0  0  0  0
  1 22  1  0  0  0  0
  1 23  1  0  0  0  0
  1 24  1  0  0  0  0
  2  3  1  0  0  0  0
  3  8  2  0  0  0  0
  3  4  1  0  0  0  0
  4  5  2  0  0  0  0
  4 25  1  0  0  0  0
  5  6  1  0  0  0  0
  5 26  1  0  0  0  0
  6  7  2  0  0  0  0
  6 11  1  0  0  0  0
  7  8  1  0  0  0  0
  7  9  1  0  0  0  0
  8 27  1  0  0  0  0
  9 10  1  0  0  0  0
 10 28  1  0  0  0  0
 10 29  1  0  0  0  0
 10 30  1  0  0  0  0
 11 16  2  0  0  0  0
 11 12  1  0  0  0  0
 12 13  1  0  0  0  0
 12 14  1  0  0  0  0
 14 15  2  0  0  0  0
 14 35  1  0  0  0  0
 15 16  1  0  0  0  0
 15 17  1  0  0  0  0
 17 18  2  0  0  0  0
 17 21  1  0  0  0  0
 18 19  1  0  0  0  0
 19 20  1  0  0  0  0
 19 35  2  0  0  0  0
 20 31  1  0  0  0  0
 20 32  1  0  0  0  0
 21 33  1  0  0  0  0
 21 34  1  0  0  0  0
 35 36  1  0  0  0  0
M  CHG  1  35   1
M  END
$$$$
ZINC03814995
  -OEChem-08230709403D

 24 25  0     0  0  0  0  0  0999 V2000
   -0.5495    4.2665    0.8445 C   0  0  0  0  0  0  0  0  0  0  0  0
    1.1834    3.8623    0.4919 S   0  0  0  0  0  0  0  0  0  0  0  0
    1.2131    2.1007    0.4641 C   0  0  0  0  0  0  0  0  0  0  0  0
    0.0541    1.3771    0.6877 C   0  0  0  0  0  0  0  0  0  0  0  0
    0.0717   -0.0105    0.6665 C   0  0  0  0  0  0  0  0  0  0  0  0
    1.2263   -0.6984    0.4255 C   0  0  0  0  0  0  0  0  0  0  0  0
    2.4190   -0.0026    0.1948 C   0  0  0  0  0  0  0  0  0  0  0  0
    2.4141    1.4134    0.2142 C   0  0  0  0  0  0  0  0  0  0  0  0
    3.6310    2.0931   -0.0220 C   0  0  0  0  0  0  0  0  0  0  0  0
    4.7204    1.3728   -0.2508 N   0  0  0  0  0  0  0  0  0  0  0  0
    4.6829    0.0434   -0.2606 C   0  0  0  0  0  0  0  0  0  0  0  0
    3.5751   -0.6406   -0.0463 N   0  0  0  0  0  0  0  0  0  0  0  0
    5.8537   -0.6510   -0.5054 N   0  0  0  0  0  0  0  0  0  0  0  0
    3.6837    3.4710   -0.0143 N   0  0  0  0  0  0  0  0  0  0  0  0
   -1.1850    3.8573    0.0592 H   0  0  0  0  0  0  0  0  0  0  0  0
   -0.8350    3.8357    1.8042 H   0  0  0  0  0  0  0  0  0  0  0  0
   -0.6697    5.3492    0.8821 H   0  0  0  0  0  0  0  0  0  0  0  0
   -0.8734    1.8974    0.8758 H   0  0  0  0  0  0  0  0  0  0  0  0
   -0.8437   -0.5556    0.8434 H   0  0  0  0  0  0  0  0  0  0  0  0
    1.2195   -1.7783    0.4132 H   0  0  0  0  0  0  0  0  0  0  0  0
    6.6795   -0.1680   -0.6655 H   0  0  0  0  0  0  0  0  0  0  0  0
    5.8490   -1.6209   -0.5171 H   0  0  0  0  0  0  0  0  0  0  0  0
    3.2280    3.9699    0.6816 H   0  0  0  0  0  0  0  0  0  0  0  0
    4.1766    3.9414   -0.7047 H   0  0  0  0  0  0  0  0  0  0  0  0
  1  2  1  0  0  0  0
  1 15  1  0  0  0  0
  1 16  1  0  0  0  0
  1 17  1  0  0  0  0
  2  3  1  0  0  0  0
  3  8  2  0  0  0  0
  3  4  1  0  0  0  0
  4  5  2  0  0  0  0
  4 18  1  0  0  0  0
  5  6  1  0  0  0  0
  5 19  1  0  0  0  0
  6  7  2  0  0  0  0
  6 20  1  0  0  0  0
  7 12  1  0  0  0  0
  7  8  1  0  0  0  0
  8  9  1  0  0  0  0
  9 10  2  0  0  0  0
  9 14  1  0  0  0  0
 10 11  1  0  0  0  0
 11 12  2  0  0  0  0
 11 13  1  0  0  0  0
 13 21  1  0  0  0  0
 13 22  1  0  0  0  0
 14 23  1  0  0  0  0
 14 24  1  0  0  0  0
M  END
$$$$
ZINC03814995
  -OEChem-08230709403D

 25 26  0     0  0  0  0  0  0999 V2000
   -0.5495    4.2665    0.8445 C   0  0  0  0  0  0  0  0  0  0  0  0
    1.1834    3.8623    0.4919 S   0  0  0  0  0  0  0  0  0  0  0  0
    1.2131    2.1007    0.4641 C   0  0  0  0  0  0  0  0  0  0  0  0
    0.0541    1.3771    0.6877 C   0  0  0  0  0  0  0  0  0  0  0  0
    0.0717   -0.0105    0.6665 C   0  0  0  0  0  0  0  0  0  0  0  0
    1.2263   -0.6984    0.4255 C   0  0  0  0  0  0  0  0  0  0  0  0
    2.4190   -0.0026    0.1948 C   0  0  0  0  0  0  0  0  0  0  0  0
    2.4141    1.4134    0.2142 C   0  0  0  0  0  0  0  0  0  0  0  0
    3.6310    2.0931   -0.0220 C   0  0  0  0  0  0  0  0  0  0  0  0
    4.7204    1.3728   -0.2508 N   0  0  0  0  0  0  0  0  0  0  0  0
    4.6829    0.0434   -0.2606 C   0  0  0  0  0  0  0  0  0  0  0  0
    5.8537   -0.6510   -0.5054 N   0  0  0  0  0  0  0  0  0  0  0  0
    3.6837    3.4710   -0.0143 N   0  0  0  0  0  0  0  0  0  0  0  0
   -1.1850    3.8573    0.0592 H   0  0  0  0  0  0  0  0  0  0  0  0
   -0.8350    3.8357    1.8042 H   0  0  0  0  0  0  0  0  0  0  0  0
   -0.6697    5.3492    0.8821 H   0  0  0  0  0  0  0  0  0  0  0  0
   -0.8734    1.8974    0.8758 H   0  0  0  0  0  0  0  0  0  0  0  0
   -0.8437   -0.5556    0.8434 H   0  0  0  0  0  0  0  0  0  0  0  0
    1.2195   -1.7783    0.4132 H   0  0  0  0  0  0  0  0  0  0  0  0
    6.6795   -0.1680   -0.6655 H   0  0  0  0  0  0  0  0  0  0  0  0
    5.8490   -1.6209   -0.5171 H   0  0  0  0  0  0  0  0  0  0  0  0
    3.2280    3.9699    0.6816 H   0  0  0  0  0  0  0  0  0  0  0  0
    4.1766    3.9414   -0.7047 H   0  0  0  0  0  0  0  0  0  0  0  0
    3.5770   -0.7118   -0.0476 N   0  3  0  0  0  0  0  0  0  0  0  0
    3.6402   -1.7095   -0.0732 H   0  0  0  0  0  0  0  0  0  0  0  0
  1  2  1  0  0  0  0
  1 14  1  0  0  0  0
  1 15  1  0  0  0  0
  1 16  1  0  0  0  0
  2  3  1  0  0  0  0
  3  8  2  0  0  0  0
  3  4  1  0  0  0  0
  4  5  2  0  0  0  0
  4 17  1  0  0  0  0
  5  6  1  0  0  0  0
  5 18  1  0  0  0  0
  6  7  2  0  0  0  0
  6 19  1  0  0  0  0
  7  8  1  0  0  0  0
  7 24  1  0  0  0  0
  8  9  1  0  0  0  0
  9 10  2  0  0  0  0
  9 13  1  0  0  0  0
 10 11  1  0  0  0  0
 11 12  1  0  0  0  0
 11 24  2  0  0  0  0
 12 20  1  0  0  0  0
 12 21  1  0  0  0  0
 13 22  1  0  0  0  0
 13 23  1  0  0  0  0
 24 25  1  0  0  0  0
M  CHG  1  24   1
M  END
$$$$
ZINC03814996
  -OEChem-08230709403D

 33 35  0     0  0  0  0  0  0999 V2000
    0.0021   -0.0041    0.0020 C   0  0  0  0  0  0  0  0  0  0  0  0
   -0.0167    1.3769    0.0096 C   0  0  0  0  0  0  0  0  0  0  0  0
    1.1715    2.0863    0.0021 C   0  0  0  0  0  0  0  0  0  0  0  0
    2.3813    1.4147   -0.0130 C   0  0  0  0  0  0  0  0  0  0  0  0
    2.4059    0.0338   -0.0207 C   0  0  0  0  0  0  0  0  0  0  0  0
    1.2149   -0.6808   -0.0132 C   0  0  0  0  0  0  0  0  0  0  0  0
    1.2369   -2.0780   -0.0214 N   0  0  0  0  0  0  0  0  0  0  0  0
    2.5169   -2.7904   -0.0374 C   0  0  0  0  0  0  0  0  0  0  0  0
    2.2649   -4.2762   -0.0435 C   0  0  0  0  0  0  0  0  0  0  0  0
    2.2422   -4.9676   -1.2543 C   0  0  0  0  0  0  0  0  0  0  0  0
    2.0245   -6.2653   -1.2850 N   0  0  0  0  0  0  0  0  0  0  0  0
    1.8231   -6.9266   -0.1427 C   0  0  0  0  0  0  0  0  0  0  0  0
    1.8471   -6.2190    1.0850 C   0  0  0  0  0  0  0  0  0  0  0  0
    2.0737   -4.9093    1.0943 N   0  0  0  0  0  0  0  0  0  0  0  0
    1.6220   -6.9784    2.3162 C   0  0  0  0  0  0  0  0  0  0  0  0
    1.4090   -8.2824    2.2057 N   0  0  0  0  0  0  0  0  0  0  0  0
    1.3997   -8.8819    1.0193 C   0  0  0  0  0  0  0  0  0  0  0  0
    1.5970   -8.2460   -0.1184 N   0  0  0  0  0  0  0  0  0  0  0  0
    1.1716  -10.2441    0.9764 N   0  0  0  0  0  0  0  0  0  0  0  0
    1.6307   -6.3595    3.5469 N   0  0  0  0  0  0  0  0  0  0  0  0
    1.1442    3.8220    0.0116 Cl  0  0  0  0  0  0  0  0  0  0  0  0
   -0.9255   -0.5572    0.0082 H   0  0  0  0  0  0  0  0  0  0  0  0
   -0.9595    1.9036    0.0169 H   0  0  0  0  0  0  0  0  0  0  0  0
    3.3070    1.9708   -0.0189 H   0  0  0  0  0  0  0  0  0  0  0  0
    3.3504   -0.4898   -0.0321 H   0  0  0  0  0  0  0  0  0  0  0  0
    0.4046   -2.5762   -0.0164 H   0  0  0  0  0  0  0  0  0  0  0  0
    3.0759   -2.5130   -0.9311 H   0  0  0  0  0  0  0  0  0  0  0  0
    3.0926   -2.5232    0.8488 H   0  0  0  0  0  0  0  0  0  0  0  0
    2.4049   -4.4319   -2.1778 H   0  0  0  0  0  0  0  0  0  0  0  0
    1.1597  -10.7073    0.1242 H   0  0  0  0  0  0  0  0  0  0  0  0
    1.0234  -10.7372    1.7985 H   0  0  0  0  0  0  0  0  0  0  0  0
    1.4793   -6.8789    4.3521 H   0  0  0  0  0  0  0  0  0  0  0  0
    1.7882   -5.4044    3.6084 H   0  0  0  0  0  0  0  0  0  0  0  0
  1  6  2  0  0  0  0
  1  2  1  0  0  0  0
  1 22  1  0  0  0  0
  2  3  2  0  0  0  0
  2 23  1  0  0  0  0
  3  4  1  0  0  0  0
  3 21  1  0  0  0  0
  4  5  2  0  0  0  0
  4 24  1  0  0  0  0
  5  6  1  0  0  0  0
  5 25  1  0  0  0  0
  6  7  1  0  0  0  0
  7  8  1  0  0  0  0
  7 26  1  0  0  0  0
  8  9  1  0  0  0  0
  8 27  1  0  0  0  0
  8 28  1  0  0  0  0
  9 14  2  0  0  0  0
  9 10  1  0  0  0  0
 10 11  2  0  0  0  0
 10 29  1  0  0  0  0
 11 12  1  0  0  0  0
 12 18  2  0  0  0  0
 12 13  1  0  0  0  0
 13 14  1  0  0  0  0
 13 15  2  0  0  0  0
 15 16  1  0  0  0  0
 15 20  1  0  0  0  0
 16 17  2  0  0  0  0
 17 18  1  0  0  0  0
 17 19  1  0  0  0  0
 19 30  1  0  0  0  0
 19 31  1  0  0  0  0
 20 32  1  0  0  0  0
 20 33  1  0  0  0  0
M  END
$$$$
ZINC03814996
  -OEChem-08230709403D

 34 36  0     0  0  0  0  0  0999 V2000
    0.0021   -0.0041    0.0020 C   0  0  0  0  0  0  0  0  0  0  0  0
   -0.0167    1.3769    0.0096 C   0  0  0  0  0  0  0  0  0  0  0  0
    1.1715    2.0863    0.0021 C   0  0  0  0  0  0  0  0  0  0  0  0
    2.3813    1.4147   -0.0130 C   0  0  0  0  0  0  0  0  0  0  0  0
    2.4059    0.0338   -0.0207 C   0  0  0  0  0  0  0  0  0  0  0  0
    1.2149   -0.6808   -0.0132 C   0  0  0  0  0  0  0  0  0  0  0  0
    1.2369   -2.0780   -0.0214 N   0  0  0  0  0  0  0  0  0  0  0  0
    2.5169   -2.7904   -0.0374 C   0  0  0  0  0  0  0  0  0  0  0  0
    2.2649   -4.2762   -0.0435 C   0  0  0  0  0  0  0  0  0  0  0  0
    2.2422   -4.9676   -1.2543 C   0  0  0  0  0  0  0  0  0  0  0  0
    2.0245   -6.2653   -1.2850 N   0  0  0  0  0  0  0  0  0  0  0  0
    1.8231   -6.9266   -0.1427 C   0  0  0  0  0  0  0  0  0  0  0  0
    1.8471   -6.2190    1.0850 C   0  0  0  0  0  0  0  0  0  0  0  0
    2.0737   -4.9093    1.0943 N   0  0  0  0  0  0  0  0  0  0  0  0
    1.6220   -6.9784    2.3162 C   0  0  0  0  0  0  0  0  0  0  0  0
    1.4090   -8.2824    2.2057 N   0  0  0  0  0  0  0  0  0  0  0  0
    1.3997   -8.8819    1.0193 C   0  0  0  0  0  0  0  0  0  0  0  0
    1.1716  -10.2441    0.9764 N   0  0  0  0  0  0  0  0  0  0  0  0
    1.6307   -6.3595    3.5469 N   0  0  0  0  0  0  0  0  0  0  0  0
    1.1442    3.8220    0.0116 Cl  0  0  0  0  0  0  0  0  0  0  0  0
   -0.9255   -0.5572    0.0082 H   0  0  0  0  0  0  0  0  0  0  0  0
   -0.9595    1.9036    0.0169 H   0  0  0  0  0  0  0  0  0  0  0  0
    3.3070    1.9708   -0.0189 H   0  0  0  0  0  0  0  0  0  0  0  0
    3.3504   -0.4898   -0.0321 H   0  0  0  0  0  0  0  0  0  0  0  0
    0.4046   -2.5762   -0.0164 H   0  0  0  0  0  0  0  0  0  0  0  0
    3.0759   -2.5130   -0.9311 H   0  0  0  0  0  0  0  0  0  0  0  0
    3.0926   -2.5232    0.8488 H   0  0  0  0  0  0  0  0  0  0  0  0
    2.4049   -4.4319   -2.1778 H   0  0  0  0  0  0  0  0  0  0  0  0
    1.1597  -10.7073    0.1242 H   0  0  0  0  0  0  0  0  0  0  0  0
    1.0234  -10.7372    1.7985 H   0  0  0  0  0  0  0  0  0  0  0  0
    1.4793   -6.8789    4.3521 H   0  0  0  0  0  0  0  0  0  0  0  0
    1.7882   -5.4044    3.6084 H   0  0  0  0  0  0  0  0  0  0  0  0
    1.5955   -8.2850   -0.1834 N   0  3  0  0  0  0  0  0  0  0  0  0
    1.5830   -8.7638   -1.0612 H   0  0  0  0  0  0  0  0  0  0  0  0
  1  6  2  0  0  0  0
  1  2  1  0  0  0  0
  1 21  1  0  0  0  0
  2  3  2  0  0  0  0
  2 22  1  0  0  0  0
  3  4  1  0  0  0  0
  3 20  1  0  0  0  0
  4  5  2  0  0  0  0
  4 23  1  0  0  0  0
  5  6  1  0  0  0  0
  5 24  1  0  0  0  0
  6  7  1  0  0  0  0
  7  8  1  0  0  0  0
  7 25  1  0  0  0  0
  8  9  1  0  0  0  0
  8 26  1  0  0  0  0
  8 27  1  0  0  0  0
  9 14  2  0  0  0  0
  9 10  1  0  0  0  0
 10 11  2  0  0  0  0
 10 28  1  0  0  0  0
 11 12  1  0  0  0  0
 12 13  2  0  0  0  0
 12 33  1  0  0  0  0
 13 14  1  0  0  0  0
 13 15  1  0  0  0  0
 15 16  2  0  0  0  0
 15 19  1  0  0  0  0
 16 17  1  0  0  0  0
 17 18  1  0  0  0  0
 17 33  2  0  0  0  0
 18 29  1  0  0  0  0
 18 30  1  0  0  0  0
 19 31  1  0  0  0  0
 19 32  1  0  0  0  0
 33 34  1  0  0  0  0
M  CHG  1  33   1
M  END
$$$$
ZINC03814997
  -OEChem-08230709403D

 44 46  0     1  0  0  0  0  0999 V2000
   -3.1516   -0.3128    1.2783 C   0  0  0  0  0  0  0  0  0  0  0  0
   -2.4166   -0.0361    0.0369 N   0  0  2  0  0  0  0  0  0  0  0  0
   -3.2274   -0.3721   -1.1410 C   0  0  0  0  0  0  0  0  0  0  0  0
   -4.4149    0.5528   -1.2138 C   0  0  0  0  0  0  0  0  0  0  0  0
   -4.3472    1.7028   -1.9996 C   0  0  0  0  0  0  0  0  0  0  0  0
   -5.3714    2.5255   -2.0794 N   0  0  0  0  0  0  0  0  0  0  0  0
   -6.4883    2.2548   -1.3994 C   0  0  0  0  0  0  0  0  0  0  0  0
   -6.5517    1.0847   -0.6023 C   0  0  0  0  0  0  0  0  0  0  0  0
   -5.5077    0.2645   -0.5395 N   0  0  0  0  0  0  0  0  0  0  0  0
   -7.7927    0.8219    0.1285 C   0  0  0  0  0  0  0  0  0  0  0  0
   -8.7810    1.6963   -0.0009 N   0  0  0  0  0  0  0  0  0  0  0  0
   -8.6520    2.7750   -0.7669 C   0  0  0  0  0  0  0  0  0  0  0  0
   -7.5581    3.0584   -1.4456 N   0  0  0  0  0  0  0  0  0  0  0  0
   -9.7217    3.6452   -0.8570 N   0  0  0  0  0  0  0  0  0  0  0  0
   -7.9289   -0.2949    0.9234 N   0  0  0  0  0  0  0  0  0  0  0  0
   -1.1943   -0.7175    0.0154 C   0  0  0  0  0  0  0  0  0  0  0  0
   -1.1720   -2.1042    0.0019 C   0  0  0  0  0  0  0  0  0  0  0  0
    0.0405   -2.7764   -0.0129 C   0  0  0  0  0  0  0  0  0  0  0  0
    1.2301   -2.0631   -0.0204 C   0  0  0  0  0  0  0  0  0  0  0  0
    1.2102   -0.6806   -0.0132 C   0  0  0  0  0  0  0  0  0  0  0  0
    0.0021   -0.0041    0.0020 C   0  0  0  0  0  0  0  0  0  0  0  0
   -0.0164    1.3567    0.0095 O   0  0  0  0  0  0  0  0  0  0  0  0
    1.2479    2.0227    0.0010 C   0  0  0  0  0  0  0  0  0  0  0  0
    0.0636   -4.1360   -0.0204 O   0  0  0  0  0  0  0  0  0  0  0  0
    1.3476   -4.7630   -0.0361 C   0  0  0  0  0  0  0  0  0  0  0  0
   -2.5565    0.0099    2.1326 H   0  0  0  0  0  0  0  0  0  0  0  0
   -4.0974    0.2289    1.2690 H   0  0  0  0  0  0  0  0  0  0  0  0
   -3.3464   -1.3825    1.3546 H   0  0  0  0  0  0  0  0  0  0  0  0
   -2.6237   -0.2600   -2.0416 H   0  0  0  0  0  0  0  0  0  0  0  0
   -3.5738   -1.4026   -1.0618 H   0  0  0  0  0  0  0  0  0  0  0  0
   -3.4434    1.9212   -2.5490 H   0  0  0  0  0  0  0  0  0  0  0  0
   -9.6552    4.4400   -1.4090 H   0  0  0  0  0  0  0  0  0  0  0  0
  -10.5391    3.4613   -0.3681 H   0  0  0  0  0  0  0  0  0  0  0  0
   -8.7586   -0.4525    1.4005 H   0  0  0  0  0  0  0  0  0  0  0  0
   -7.1950   -0.9238    1.0060 H   0  0  0  0  0  0  0  0  0  0  0  0
   -2.0981   -2.6599    0.0077 H   0  0  0  0  0  0  0  0  0  0  0  0
    2.1736   -2.5886   -0.0315 H   0  0  0  0  0  0  0  0  0  0  0  0
    2.1380   -0.1277   -0.0190 H   0  0  0  0  0  0  0  0  0  0  0  0
    1.8003    1.7422   -0.8958 H   0  0  0  0  0  0  0  0  0  0  0  0
    1.0904    3.1013    0.0083 H   0  0  0  0  0  0  0  0  0  0  0  0
    1.8173    1.7327    0.8840 H   0  0  0  0  0  0  0  0  0  0  0  0
    1.2231   -5.8458   -0.0407 H   0  0  0  0  0  0  0  0  0  0  0  0
    1.8910   -4.4559   -0.9296 H   0  0  0  0  0  0  0  0  0  0  0  0
    1.9080   -4.4655    0.8502 H   0  0  0  0  0  0  0  0  0  0  0  0
  1  2  1  0  0  0  0
  1 26  1  0  0  0  0
  1 27  1  0  0  0  0
  1 28  1  0  0  0  0
  2  3  1  0  0  0  0
  2 16  1  0  0  0  0
  3  4  1  0  0  0  0
  3 29  1  0  0  0  0
  3 30  1  0  0  0  0
  4  9  2  0  0  0  0
  4  5  1  0  0  0  0
  5  6  2  0  0  0  0
  5 31  1  0  0  0  0
  6  7  1  0  0  0  0
  7 13  2  0  0  0  0
  7  8  1  0  0  0  0
  8  9  1  0  0  0  0
  8 10  2  0  0  0  0
 10 11  1  0  0  0  0
 10 15  1  0  0  0  0
 11 12  2  0  0  0  0
 12 13  1  0  0  0  0
 12 14  1  0  0  0  0
 14 32  1  0  0  0  0
 14 33  1  0  0  0  0
 15 34  1  0  0  0  0
 15 35  1  0  0  0  0
 16 21  2  0  0  0  0
 16 17  1  0  0  0  0
 17 18  2  0  0  0  0
 17 36  1  0  0  0  0
 18 19  1  0  0  0  0
 18 24  1  0  0  0  0
 19 20  2  0  0  0  0
 19 37  1  0  0  0  0
 20 21  1  0  0  0  0
 20 38  1  0  0  0  0
 21 22  1  0  0  0  0
 22 23  1  0  0  0  0
 23 39  1  0  0  0  0
 23 40  1  0  0  0  0
 23 41  1  0  0  0  0
 24 25  1  0  0  0  0
 25 42  1  0  0  0  0
 25 43  1  0  0  0  0
 25 44  1  0  0  0  0
M  END
$$$$
ZINC03814997
  -OEChem-08230709403D

 45 47  0     1  0  0  0  0  0999 V2000
   -3.1516   -0.3128    1.2783 C   0  0  0  0  0  0  0  0  0  0  0  0
   -2.4166   -0.0361    0.0369 N   0  0  2  0  0  0  0  0  0  0  0  0
   -3.2274   -0.3721   -1.1410 C   0  0  0  0  0  0  0  0  0  0  0  0
   -4.4149    0.5528   -1.2138 C   0  0  0  0  0  0  0  0  0  0  0  0
   -4.3472    1.7028   -1.9996 C   0  0  0  0  0  0  0  0  0  0  0  0
   -5.3714    2.5255   -2.0794 N   0  0  0  0  0  0  0  0  0  0  0  0
   -6.4883    2.2548   -1.3994 C   0  0  0  0  0  0  0  0  0  0  0  0
   -6.5517    1.0847   -0.6023 C   0  0  0  0  0  0  0  0  0  0  0  0
   -5.5077    0.2645   -0.5395 N   0  0  0  0  0  0  0  0  0  0  0  0
   -7.7927    0.8219    0.1285 C   0  0  0  0  0  0  0  0  0  0  0  0
   -8.7810    1.6963   -0.0009 N   0  0  0  0  0  0  0  0  0  0  0  0
   -8.6520    2.7750   -0.7669 C   0  0  0  0  0  0  0  0  0  0  0  0
   -9.7217    3.6452   -0.8570 N   0  0  0  0  0  0  0  0  0  0  0  0
   -7.9289   -0.2949    0.9234 N   0  0  0  0  0  0  0  0  0  0  0  0
   -1.1943   -0.7175    0.0154 C   0  0  0  0  0  0  0  0  0  0  0  0
   -1.1720   -2.1042    0.0019 C   0  0  0  0  0  0  0  0  0  0  0  0
    0.0405   -2.7764   -0.0129 C   0  0  0  0  0  0  0  0  0  0  0  0
    1.2301   -2.0631   -0.0204 C   0  0  0  0  0  0  0  0  0  0  0  0
    1.2102   -0.6806   -0.0132 C   0  0  0  0  0  0  0  0  0  0  0  0
    0.0021   -0.0041    0.0020 C   0  0  0  0  0  0  0  0  0  0  0  0
   -0.0164    1.3567    0.0095 O   0  0  0  0  0  0  0  0  0  0  0  0
    1.2479    2.0227    0.0010 C   0  0  0  0  0  0  0  0  0  0  0  0
    0.0636   -4.1360   -0.0204 O   0  0  0  0  0  0  0  0  0  0  0  0
    1.3476   -4.7630   -0.0361 C   0  0  0  0  0  0  0  0  0  0  0  0
   -2.5565    0.0099    2.1326 H   0  0  0  0  0  0  0  0  0  0  0  0
   -4.0974    0.2289    1.2690 H   0  0  0  0  0  0  0  0  0  0  0  0
   -3.3464   -1.3825    1.3546 H   0  0  0  0  0  0  0  0  0  0  0  0
   -2.6237   -0.2600   -2.0416 H   0  0  0  0  0  0  0  0  0  0  0  0
   -3.5738   -1.4026   -1.0618 H   0  0  0  0  0  0  0  0  0  0  0  0
   -3.4434    1.9212   -2.5490 H   0  0  0  0  0  0  0  0  0  0  0  0
   -9.6552    4.4400   -1.4090 H   0  0  0  0  0  0  0  0  0  0  0  0
  -10.5391    3.4613   -0.3681 H   0  0  0  0  0  0  0  0  0  0  0  0
   -8.7586   -0.4525    1.4005 H   0  0  0  0  0  0  0  0  0  0  0  0
   -7.1950   -0.9238    1.0060 H   0  0  0  0  0  0  0  0  0  0  0  0
   -2.0981   -2.6599    0.0077 H   0  0  0  0  0  0  0  0  0  0  0  0
    2.1736   -2.5886   -0.0315 H   0  0  0  0  0  0  0  0  0  0  0  0
    2.1380   -0.1277   -0.0190 H   0  0  0  0  0  0  0  0  0  0  0  0
    1.8003    1.7422   -0.8958 H   0  0  0  0  0  0  0  0  0  0  0  0
    1.0904    3.1013    0.0083 H   0  0  0  0  0  0  0  0  0  0  0  0
    1.8173    1.7327    0.8840 H   0  0  0  0  0  0  0  0  0  0  0  0
    1.2231   -5.8458   -0.0407 H   0  0  0  0  0  0  0  0  0  0  0  0
    1.8910   -4.4559   -0.9296 H   0  0  0  0  0  0  0  0  0  0  0  0
    1.9080   -4.4655    0.8502 H   0  0  0  0  0  0  0  0  0  0  0  0
   -7.5560    3.1213   -1.4878 N   0  3  0  0  0  0  0  0  0  0  0  0
   -7.4889    3.9411   -2.0566 H   0  0  0  0  0  0  0  0  0  0  0  0
  1  2  1  0  0  0  0
  1 25  1  0  0  0  0
  1 26  1  0  0  0  0
  1 27  1  0  0  0  0
  2  3  1  0  0  0  0
  2 15  1  0  0  0  0
  3  4  1  0  0  0  0
  3 28  1  0  0  0  0
  3 29  1  0  0  0  0
  4  9  2  0  0  0  0
  4  5  1  0  0  0  0
  5  6  2  0  0  0  0
  5 30  1  0  0  0  0
  6  7  1  0  0  0  0
  7  8  2  0  0  0  0
  7 44  1  0  0  0  0
  8  9  1  0  0  0  0
  8 10  1  0  0  0  0
 10 11  2  0  0  0  0
 10 14  1  0  0  0  0
 11 12  1  0  0  0  0
 12 13  1  0  0  0  0
 12 44  2  0  0  0  0
 13 31  1  0  0  0  0
 13 32  1  0  0  0  0
 14 33  1  0  0  0  0
 14 34  1  0  0  0  0
 15 20  2  0  0  0  0
 15 16  1  0  0  0  0
 16 17  2  0  0  0  0
 16 35  1  0  0  0  0
 17 18  1  0  0  0  0
 17 23  1  0  0  0  0
 18 19  2  0  0  0  0
 18 36  1  0  0  0  0
 19 20  1  0  0  0  0
 19 37  1  0  0  0  0
 20 21  1  0  0  0  0
 21 22  1  0  0  0  0
 22 38  1  0  0  0  0
 22 39  1  0  0  0  0
 22 40  1  0  0  0  0
 23 24  1  0  0  0  0
 24 41  1  0  0  0  0
 24 42  1  0  0  0  0
 24 43  1  0  0  0  0
 44 45  1  0  0  0  0
M  CHG  1  44   1
M  END
$$$$
ZINC03814998
  -OEChem-08230709403D

 41 43  0     0  0  0  0  0  0999 V2000
   -0.1276    4.0824    0.0252 C   0  0  0  0  0  0  0  0  0  0  0  0
    1.1548    3.4521    0.0095 O   0  0  0  0  0  0  0  0  0  0  0  0
    1.1744    2.0933    0.0021 C   0  0  0  0  0  0  0  0  0  0  0  0
    2.3849    1.4177   -0.0131 C   0  0  0  0  0  0  0  0  0  0  0  0
    2.4046    0.0293   -0.0202 C   0  0  0  0  0  0  0  0  0  0  0  0
    1.2117   -0.6812   -0.0127 C   0  0  0  0  0  0  0  0  0  0  0  0
    0.0021   -0.0041    0.0020 C   0  0  0  0  0  0  0  0  0  0  0  0
   -0.0167    1.3827    0.0096 C   0  0  0  0  0  0  0  0  0  0  0  0
   -1.1655   -0.6993    0.0094 O   0  0  0  0  0  0  0  0  0  0  0  0
   -2.3743    0.0628    0.0250 C   0  0  0  0  0  0  0  0  0  0  0  0
    3.6237   -0.6520   -0.0346 N   0  0  0  0  0  0  0  0  0  0  0  0
    4.8821    0.0981   -0.0426 C   0  0  0  0  0  0  0  0  0  0  0  0
    6.0409   -0.8651   -0.0577 C   0  0  0  0  0  0  0  0  0  0  0  0
    6.6283   -1.2195   -1.2718 C   0  0  0  0  0  0  0  0  0  0  0  0
    7.6417   -2.0584   -1.3103 N   0  0  0  0  0  0  0  0  0  0  0  0
    8.1123   -2.5758   -0.1728 C   0  0  0  0  0  0  0  0  0  0  0  0
    7.5116   -2.2122    1.0582 C   0  0  0  0  0  0  0  0  0  0  0  0
    6.4922   -1.3594    1.0755 N   0  0  0  0  0  0  0  0  0  0  0  0
    8.0550   -2.8001    2.2839 C   0  0  0  0  0  0  0  0  0  0  0  0
    9.0763   -3.6373    2.1655 N   0  0  0  0  0  0  0  0  0  0  0  0
    9.5909   -3.9343    0.9764 C   0  0  0  0  0  0  0  0  0  0  0  0
    9.1402   -3.4334   -0.1566 N   0  0  0  0  0  0  0  0  0  0  0  0
   10.6549   -4.8144    0.9253 N   0  0  0  0  0  0  0  0  0  0  0  0
    7.5234   -2.4944    3.5175 N   0  0  0  0  0  0  0  0  0  0  0  0
   -0.6888    3.7862   -0.8611 H   0  0  0  0  0  0  0  0  0  0  0  0
   -0.6718    3.7767    0.9187 H   0  0  0  0  0  0  0  0  0  0  0  0
   -0.0003    5.1649    0.0297 H   0  0  0  0  0  0  0  0  0  0  0  0
    3.3123    1.9712   -0.0189 H   0  0  0  0  0  0  0  0  0  0  0  0
    1.2262   -1.7611   -0.0179 H   0  0  0  0  0  0  0  0  0  0  0  0
   -0.9594    1.9097    0.0170 H   0  0  0  0  0  0  0  0  0  0  0  0
   -2.3991    0.6864    0.9186 H   0  0  0  0  0  0  0  0  0  0  0  0
   -2.4160    0.6960   -0.8612 H   0  0  0  0  0  0  0  0  0  0  0  0
   -3.2297   -0.6127    0.0295 H   0  0  0  0  0  0  0  0  0  0  0  0
    3.6372   -1.6219   -0.0393 H   0  0  0  0  0  0  0  0  0  0  0  0
    4.9229    0.7297   -0.9300 H   0  0  0  0  0  0  0  0  0  0  0  0
    4.9392    0.7213    0.8499 H   0  0  0  0  0  0  0  0  0  0  0  0
    6.2469   -0.8009   -2.1914 H   0  0  0  0  0  0  0  0  0  0  0  0
   11.0500   -5.0486    0.0709 H   0  0  0  0  0  0  0  0  0  0  0  0
   11.0067   -5.1982    1.7437 H   0  0  0  0  0  0  0  0  0  0  0  0
    7.8964   -2.8939    4.3189 H   0  0  0  0  0  0  0  0  0  0  0  0
    6.7761   -1.8796    3.5847 H   0  0  0  0  0  0  0  0  0  0  0  0
  1  2  1  0  0  0  0
  1 25  1  0  0  0  0
  1 26  1  0  0  0  0
  1 27  1  0  0  0  0
  2  3  1  0  0  0  0
  3  8  2  0  0  0  0
  3  4  1  0  0  0  0
  4  5  2  0  0  0  0
  4 28  1  0  0  0  0
  5  6  1  0  0  0  0
  5 11  1  0  0  0  0
  6  7  2  0  0  0  0
  6 29  1  0  0  0  0
  7  8  1  0  0  0  0
  7  9  1  0  0  0  0
  8 30  1  0  0  0  0
  9 10  1  0  0  0  0
 10 31  1  0  0  0  0
 10 32  1  0  0  0  0
 10 33  1  0  0  0  0
 11 12  1  0  0  0  0
 11 34  1  0  0  0  0
 12 13  1  0  0  0  0
 12 35  1  0  0  0  0
 12 36  1  0  0  0  0
 13 18  2  0  0  0  0
 13 14  1  0  0  0  0
 14 15  2  0  0  0  0
 14 37  1  0  0  0  0
 15 16  1  0  0  0  0
 16 22  2  0  0  0  0
 16 17  1  0  0  0  0
 17 18  1  0  0  0  0
 17 19  2  0  0  0  0
 19 20  1  0  0  0  0
 19 24  1  0  0  0  0
 20 21  2  0  0  0  0
 21 22  1  0  0  0  0
 21 23  1  0  0  0  0
 23 38  1  0  0  0  0
 23 39  1  0  0  0  0
 24 40  1  0  0  0  0
 24 41  1  0  0  0  0
M  END
$$$$
ZINC03814998
  -OEChem-08230709403D

 42 44  0     0  0  0  0  0  0999 V2000
   -0.1276    4.0824    0.0252 C   0  0  0  0  0  0  0  0  0  0  0  0
    1.1548    3.4521    0.0095 O   0  0  0  0  0  0  0  0  0  0  0  0
    1.1744    2.0933    0.0021 C   0  0  0  0  0  0  0  0  0  0  0  0
    2.3849    1.4177   -0.0131 C   0  0  0  0  0  0  0  0  0  0  0  0
    2.4046    0.0293   -0.0202 C   0  0  0  0  0  0  0  0  0  0  0  0
    1.2117   -0.6812   -0.0127 C   0  0  0  0  0  0  0  0  0  0  0  0
    0.0021   -0.0041    0.0020 C   0  0  0  0  0  0  0  0  0  0  0  0
   -0.0167    1.3827    0.0096 C   0  0  0  0  0  0  0  0  0  0  0  0
   -1.1655   -0.6993    0.0094 O   0  0  0  0  0  0  0  0  0  0  0  0
   -2.3743    0.0628    0.0250 C   0  0  0  0  0  0  0  0  0  0  0  0
    3.6237   -0.6520   -0.0346 N   0  0  0  0  0  0  0  0  0  0  0  0
    4.8821    0.0981   -0.0426 C   0  0  0  0  0  0  0  0  0  0  0  0
    6.0409   -0.8651   -0.0577 C   0  0  0  0  0  0  0  0  0  0  0  0
    6.6283   -1.2195   -1.2718 C   0  0  0  0  0  0  0  0  0  0  0  0
    7.6417   -2.0584   -1.3103 N   0  0  0  0  0  0  0  0  0  0  0  0
    8.1123   -2.5758   -0.1728 C   0  0  0  0  0  0  0  0  0  0  0  0
    7.5116   -2.2122    1.0582 C   0  0  0  0  0  0  0  0  0  0  0  0
    6.4922   -1.3594    1.0755 N   0  0  0  0  0  0  0  0  0  0  0  0
    8.0550   -2.8001    2.2839 C   0  0  0  0  0  0  0  0  0  0  0  0
    9.0763   -3.6373    2.1655 N   0  0  0  0  0  0  0  0  0  0  0  0
    9.5909   -3.9343    0.9764 C   0  0  0  0  0  0  0  0  0  0  0  0
   10.6549   -4.8144    0.9253 N   0  0  0  0  0  0  0  0  0  0  0  0
    7.5234   -2.4944    3.5175 N   0  0  0  0  0  0  0  0  0  0  0  0
   -0.6888    3.7862   -0.8611 H   0  0  0  0  0  0  0  0  0  0  0  0
   -0.6718    3.7767    0.9187 H   0  0  0  0  0  0  0  0  0  0  0  0
   -0.0003    5.1649    0.0297 H   0  0  0  0  0  0  0  0  0  0  0  0
    3.3123    1.9712   -0.0189 H   0  0  0  0  0  0  0  0  0  0  0  0
    1.2262   -1.7611   -0.0179 H   0  0  0  0  0  0  0  0  0  0  0  0
   -0.9594    1.9097    0.0170 H   0  0  0  0  0  0  0  0  0  0  0  0
   -2.3991    0.6864    0.9186 H   0  0  0  0  0  0  0  0  0  0  0  0
   -2.4160    0.6960   -0.8612 H   0  0  0  0  0  0  0  0  0  0  0  0
   -3.2297   -0.6127    0.0295 H   0  0  0  0  0  0  0  0  0  0  0  0
    3.6372   -1.6219   -0.0393 H   0  0  0  0  0  0  0  0  0  0  0  0
    4.9229    0.7297   -0.9300 H   0  0  0  0  0  0  0  0  0  0  0  0
    4.9392    0.7213    0.8499 H   0  0  0  0  0  0  0  0  0  0  0  0
    6.2469   -0.8009   -2.1914 H   0  0  0  0  0  0  0  0  0  0  0  0
   11.0500   -5.0486    0.0709 H   0  0  0  0  0  0  0  0  0  0  0  0
   11.0067   -5.1982    1.7437 H   0  0  0  0  0  0  0  0  0  0  0  0
    7.8964   -2.8939    4.3189 H   0  0  0  0  0  0  0  0  0  0  0  0
    6.7761   -1.8796    3.5847 H   0  0  0  0  0  0  0  0  0  0  0  0
    9.1732   -3.4537   -0.2217 N   0  3  0  0  0  0  0  0  0  0  0  0
    9.5815   -3.6960   -1.1019 H   0  0  0  0  0  0  0  0  0  0  0  0
  1  2  1  0  0  0  0
  1 24  1  0  0  0  0
  1 25  1  0  0  0  0
  1 26  1  0  0  0  0
  2  3  1  0  0  0  0
  3  8  2  0  0  0  0
  3  4  1  0  0  0  0
  4  5  2  0  0  0  0
  4 27  1  0  0  0  0
  5  6  1  0  0  0  0
  5 11  1  0  0  0  0
  6  7  2  0  0  0  0
  6 28  1  0  0  0  0
  7  8  1  0  0  0  0
  7  9  1  0  0  0  0
  8 29  1  0  0  0  0
  9 10  1  0  0  0  0
 10 30  1  0  0  0  0
 10 31  1  0  0  0  0
 10 32  1  0  0  0  0
 11 12  1  0  0  0  0
 11 33  1  0  0  0  0
 12 13  1  0  0  0  0
 12 34  1  0  0  0  0
 12 35  1  0  0  0  0
 13 18  2  0  0  0  0
 13 14  1  0  0  0  0
 14 15  2  0  0  0  0
 14 36  1  0  0  0  0
 15 16  1  0  0  0  0
 16 17  2  0  0  0  0
 16 41  1  0  0  0  0
 17 18  1  0  0  0  0
 17 19  1  0  0  0  0
 19 20  2  0  0  0  0
 19 23  1  0  0  0  0
 20 21  1  0  0  0  0
 21 22  1  0  0  0  0
 21 41  2  0  0  0  0
 22 37  1  0  0  0  0
 22 38  1  0  0  0  0
 23 39  1  0  0  0  0
 23 40  1  0  0  0  0
 41 42  1  0  0  0  0
M  CHG  1  41   1
M  END
$$$$
ZINC03814999
  -OEChem-08230709403D

 36 38  0     0  0  0  0  0  0999 V2000
    7.1139    0.8185   -2.6635 C   0  0  0  0  0  0  0  0  0  0  0  0
    7.7695    0.4811   -1.3492 C   0  0  0  0  0  0  0  0  0  0  0  0
    7.2540    0.9402   -0.1653 C   0  0  0  0  0  0  0  0  0  0  0  0
    7.8807    0.6202    1.0327 C   0  0  0  0  0  0  0  0  0  0  0  0
    8.9607   -0.1281    1.0705 N   0  0  0  0  0  0  0  0  0  0  0  0
    9.5104   -0.6050   -0.0465 C   0  0  0  0  0  0  0  0  0  0  0  0
    8.9230   -0.3099   -1.3016 C   0  0  0  0  0  0  0  0  0  0  0  0
    9.5286   -0.8306   -2.4720 C   0  0  0  0  0  0  0  0  0  0  0  0
   10.6195   -1.5714   -2.3377 N   0  0  0  0  0  0  0  0  0  0  0  0
   11.1393   -1.8248   -1.1401 C   0  0  0  0  0  0  0  0  0  0  0  0
   10.6148   -1.3646   -0.0199 N   0  0  0  0  0  0  0  0  0  0  0  0
   12.2783   -2.6036   -1.0654 N   0  0  0  0  0  0  0  0  0  0  0  0
    8.9979   -0.5731   -3.7169 N   0  0  0  0  0  0  0  0  0  0  0  0
    6.0133    1.7956   -0.1633 C   0  0  0  0  0  0  0  0  0  0  0  0
    4.5474    0.7344   -0.0394 S   0  0  0  0  0  0  0  0  0  0  0  0
    3.1984    1.8679   -0.0492 C   0  0  0  0  0  0  0  0  0  0  0  0
    1.8931    1.3981    0.0333 C   0  0  0  0  0  0  0  0  0  0  0  0
    0.8385    2.2893    0.0249 C   0  0  0  0  0  0  0  0  0  0  0  0
    1.0799    3.6481   -0.0655 C   0  0  0  0  0  0  0  0  0  0  0  0
    2.3776    4.1194   -0.1476 C   0  0  0  0  0  0  0  0  0  0  0  0
    3.4372    3.2340   -0.1398 C   0  0  0  0  0  0  0  0  0  0  0  0
    7.6237    1.6690   -3.1161 H   0  0  0  0  0  0  0  0  0  0  0  0
    7.1766   -0.0403   -3.3318 H   0  0  0  0  0  0  0  0  0  0  0  0
    6.0672    1.0708   -2.4932 H   0  0  0  0  0  0  0  0  0  0  0  0
    7.4667    0.9926    1.9581 H   0  0  0  0  0  0  0  0  0  0  0  0
   12.6813   -2.9524   -1.8759 H   0  0  0  0  0  0  0  0  0  0  0  0
   12.6749   -2.8014   -0.2026 H   0  0  0  0  0  0  0  0  0  0  0  0
    8.6638    0.3127   -3.9279 H   0  0  0  0  0  0  0  0  0  0  0  0
    8.9583   -1.2777   -4.3824 H   0  0  0  0  0  0  0  0  0  0  0  0
    5.9677    2.3717   -1.0875 H   0  0  0  0  0  0  0  0  0  0  0  0
    6.0424    2.4759    0.6879 H   0  0  0  0  0  0  0  0  0  0  0  0
    1.7038    0.3371    0.1035 H   0  0  0  0  0  0  0  0  0  0  0  0
   -0.1762    1.9249    0.0886 H   0  0  0  0  0  0  0  0  0  0  0  0
    0.2529    4.3426   -0.0763 H   0  0  0  0  0  0  0  0  0  0  0  0
    2.5624    5.1811   -0.2180 H   0  0  0  0  0  0  0  0  0  0  0  0
    4.4503    3.6027   -0.2041 H   0  0  0  0  0  0  0  0  0  0  0  0
  1  2  1  0  0  0  0
  1 22  1  0  0  0  0
  1 23  1  0  0  0  0
  1 24  1  0  0  0  0
  2  7  2  0  0  0  0
  2  3  1  0  0  0  0
  3  4  2  0  0  0  0
  3 14  1  0  0  0  0
  4  5  1  0  0  0  0
  4 25  1  0  0  0  0
  5  6  2  0  0  0  0
  6 11  1  0  0  0  0
  6  7  1  0  0  0  0
  7  8  1  0  0  0  0
  8  9  2  0  0  0  0
  8 13  1  0  0  0  0
  9 10  1  0  0  0  0
 10 11  2  0  0  0  0
 10 12  1  0  0  0  0
 12 26  1  0  0  0  0
 12 27  1  0  0  0  0
 13 28  1  0  0  0  0
 13 29  1  0  0  0  0
 14 15  1  0  0  0  0
 14 30  1  0  0  0  0
 14 31  1  0  0  0  0
 15 16  1  0  0  0  0
 16 21  2  0  0  0  0
 16 17  1  0  0  0  0
 17 18  2  0  0  0  0
 17 32  1  0  0  0  0
 18 19  1  0  0  0  0
 18 33  1  0  0  0  0
 19 20  2  0  0  0  0
 19 34  1  0  0  0  0
 20 21  1  0  0  0  0
 20 35  1  0  0  0  0
 21 36  1  0  0  0  0
M  END
$$$$
ZINC03814999
  -OEChem-08230709403D

 37 39  0     0  0  0  0  0  0999 V2000
    7.1139    0.8185   -2.6635 C   0  0  0  0  0  0  0  0  0  0  0  0
    7.7695    0.4811   -1.3492 C   0  0  0  0  0  0  0  0  0  0  0  0
    7.2540    0.9402   -0.1653 C   0  0  0  0  0  0  0  0  0  0  0  0
    7.8807    0.6202    1.0327 C   0  0  0  0  0  0  0  0  0  0  0  0
    8.9607   -0.1281    1.0705 N   0  0  0  0  0  0  0  0  0  0  0  0
    9.5104   -0.6050   -0.0465 C   0  0  0  0  0  0  0  0  0  0  0  0
    8.9230   -0.3099   -1.3016 C   0  0  0  0  0  0  0  0  0  0  0  0
    9.5286   -0.8306   -2.4720 C   0  0  0  0  0  0  0  0  0  0  0  0
   10.6195   -1.5714   -2.3377 N   0  0  0  0  0  0  0  0  0  0  0  0
   11.1393   -1.8248   -1.1401 C   0  0  0  0  0  0  0  0  0  0  0  0
   12.2783   -2.6036   -1.0654 N   0  0  0  0  0  0  0  0  0  0  0  0
    8.9979   -0.5731   -3.7169 N   0  0  0  0  0  0  0  0  0  0  0  0
    6.0133    1.7956   -0.1633 C   0  0  0  0  0  0  0  0  0  0  0  0
    4.5474    0.7344   -0.0394 S   0  0  0  0  0  0  0  0  0  0  0  0
    3.1984    1.8679   -0.0492 C   0  0  0  0  0  0  0  0  0  0  0  0
    1.8931    1.3981    0.0333 C   0  0  0  0  0  0  0  0  0  0  0  0
    0.8385    2.2893    0.0249 C   0  0  0  0  0  0  0  0  0  0  0  0
    1.0799    3.6481   -0.0655 C   0  0  0  0  0  0  0  0  0  0  0  0
    2.3776    4.1194   -0.1476 C   0  0  0  0  0  0  0  0  0  0  0  0
    3.4372    3.2340   -0.1398 C   0  0  0  0  0  0  0  0  0  0  0  0
    7.6237    1.6690   -3.1161 H   0  0  0  0  0  0  0  0  0  0  0  0
    7.1766   -0.0403   -3.3318 H   0  0  0  0  0  0  0  0  0  0  0  0
    6.0672    1.0708   -2.4932 H   0  0  0  0  0  0  0  0  0  0  0  0
    7.4667    0.9926    1.9581 H   0  0  0  0  0  0  0  0  0  0  0  0
   12.6813   -2.9524   -1.8759 H   0  0  0  0  0  0  0  0  0  0  0  0
   12.6749   -2.8014   -0.2026 H   0  0  0  0  0  0  0  0  0  0  0  0
    8.6638    0.3127   -3.9279 H   0  0  0  0  0  0  0  0  0  0  0  0
    8.9583   -1.2777   -4.3824 H   0  0  0  0  0  0  0  0  0  0  0  0
    5.9677    2.3717   -1.0875 H   0  0  0  0  0  0  0  0  0  0  0  0
    6.0424    2.4759    0.6879 H   0  0  0  0  0  0  0  0  0  0  0  0
    1.7038    0.3371    0.1035 H   0  0  0  0  0  0  0  0  0  0  0  0
   -0.1762    1.9249    0.0886 H   0  0  0  0  0  0  0  0  0  0  0  0
    0.2529    4.3426   -0.0763 H   0  0  0  0  0  0  0  0  0  0  0  0
    2.5624    5.1811   -0.2180 H   0  0  0  0  0  0  0  0  0  0  0  0
    4.4503    3.6027   -0.2041 H   0  0  0  0  0  0  0  0  0  0  0  0
   10.6460   -1.3806    0.0432 N   0  3  0  0  0  0  0  0  0  0  0  0
   11.1048   -1.6220    0.8983 H   0  0  0  0  0  0  0  0  0  0  0  0
  1  2  1  0  0  0  0
  1 21  1  0  0  0  0
  1 22  1  0  0  0  0
  1 23  1  0  0  0  0
  2  7  2  0  0  0  0
  2  3  1  0  0  0  0
  3  4  2  0  0  0  0
  3 13  1  0  0  0  0
  4  5  1  0  0  0  0
  4 24  1  0  0  0  0
  5  6  2  0  0  0  0
  6  7  1  0  0  0  0
  6 36  1  0  0  0  0
  7  8  1  0  0  0  0
  8  9  2  0  0  0  0
  8 12  1  0  0  0  0
  9 10  1  0  0  0  0
 10 11  1  0  0  0  0
 10 36  2  0  0  0  0
 11 25  1  0  0  0  0
 11 26  1  0  0  0  0
 12 27  1  0  0  0  0
 12 28  1  0  0  0  0
 13 14  1  0  0  0  0
 13 29  1  0  0  0  0
 13 30  1  0  0  0  0
 14 15  1  0  0  0  0
 15 20  2  0  0  0  0
 15 16  1  0  0  0  0
 16 17  2  0  0  0  0
 16 31  1  0  0  0  0
 17 18  1  0  0  0  0
 17 32  1  0  0  0  0
 18 19  2  0  0  0  0
 18 33  1  0  0  0  0
 19 20  1  0  0  0  0
 19 34  1  0  0  0  0
 20 35  1  0  0  0  0
 36 37  1  0  0  0  0
M  CHG  1  36   1
M  END
$$$$
ZINC03815000
  -OEChem-08230709403D

 39 41  0     0  0  0  0  0  0999 V2000
    5.3335    2.6713   -6.6099 C   0  0  0  0  0  0  0  0  0  0  0  0
    4.0121    2.2466   -6.0228 C   0  0  0  0  0  0  0  0  0  0  0  0
    2.8355    2.5311   -6.6921 C   0  0  0  0  0  0  0  0  0  0  0  0
    1.6206    2.1441   -6.1567 C   0  0  0  0  0  0  0  0  0  0  0  0
    1.5782    1.4715   -4.9513 C   0  0  0  0  0  0  0  0  0  0  0  0
    2.7582    1.1836   -4.2764 C   0  0  0  0  0  0  0  0  0  0  0  0
    3.9771    1.5791   -4.8148 C   0  0  0  0  0  0  0  0  0  0  0  0
    2.7090    0.3255   -2.7382 S   0  0  0  0  0  0  0  0  0  0  0  0
    0.9410    0.0367   -2.4532 C   0  0  0  0  0  0  0  0  0  0  0  0
    0.7558   -0.7000   -1.1516 C   0  0  0  0  0  0  0  0  0  0  0  0
    0.7523   -2.0896   -1.1325 C   0  0  0  0  0  0  0  0  0  0  0  0
    0.5879   -2.7660   -0.0178 N   0  0  0  0  0  0  0  0  0  0  0  0
    0.4216   -2.1441    1.1500 C   0  0  0  0  0  0  0  0  0  0  0  0
    0.4206   -0.7281    1.1993 C   0  0  0  0  0  0  0  0  0  0  0  0
    0.5951   -0.0010    0.0158 C   0  0  0  0  0  0  0  0  0  0  0  0
    0.5999    1.5059    0.0247 C   0  0  0  0  0  0  0  0  0  0  0  0
    0.2422   -0.0944    2.4535 C   0  0  0  0  0  0  0  0  0  0  0  0
    0.0841   -0.8578    3.5257 N   0  0  0  0  0  0  0  0  0  0  0  0
    0.0913   -2.1844    3.4361 C   0  0  0  0  0  0  0  0  0  0  0  0
    0.2532   -2.8240    2.2927 N   0  0  0  0  0  0  0  0  0  0  0  0
   -0.0784   -2.9256    4.5898 N   0  0  0  0  0  0  0  0  0  0  0  0
    0.2328    1.2794    2.5563 N   0  0  0  0  0  0  0  0  0  0  0  0
    5.5854    3.6700   -6.2532 H   0  0  0  0  0  0  0  0  0  0  0  0
    6.1094    1.9697   -6.3037 H   0  0  0  0  0  0  0  0  0  0  0  0
    5.2614    2.6813   -7.6975 H   0  0  0  0  0  0  0  0  0  0  0  0
    2.8656    3.0570   -7.6349 H   0  0  0  0  0  0  0  0  0  0  0  0
    0.7039    2.3686   -6.6817 H   0  0  0  0  0  0  0  0  0  0  0  0
    0.6290    1.1699   -4.5336 H   0  0  0  0  0  0  0  0  0  0  0  0
    4.8959    1.3609   -4.2908 H   0  0  0  0  0  0  0  0  0  0  0  0
    0.5340   -0.5600   -3.2695 H   0  0  0  0  0  0  0  0  0  0  0  0
    0.4195    0.9928   -2.4069 H   0  0  0  0  0  0  0  0  0  0  0  0
    0.8845   -2.6282   -2.0593 H   0  0  0  0  0  0  0  0  0  0  0  0
    1.5918    1.8645    0.2996 H   0  0  0  0  0  0  0  0  0  0  0  0
    0.3419    1.8759   -0.9676 H   0  0  0  0  0  0  0  0  0  0  0  0
   -0.1306    1.8673    0.7485 H   0  0  0  0  0  0  0  0  0  0  0  0
   -0.1994   -2.4769    5.4412 H   0  0  0  0  0  0  0  0  0  0  0  0
   -0.0766   -3.8947    4.5483 H   0  0  0  0  0  0  0  0  0  0  0  0
   -0.4080    1.7178    3.1376 H   0  0  0  0  0  0  0  0  0  0  0  0
    0.8670    1.8081    2.0473 H   0  0  0  0  0  0  0  0  0  0  0  0
  1  2  1  0  0  0  0
  1 23  1  0  0  0  0
  1 24  1  0  0  0  0
  1 25  1  0  0  0  0
  2  7  2  0  0  0  0
  2  3  1  0  0  0  0
  3  4  2  0  0  0  0
  3 26  1  0  0  0  0
  4  5  1  0  0  0  0
  4 27  1  0  0  0  0
  5  6  2  0  0  0  0
  5 28  1  0  0  0  0
  6  7  1  0  0  0  0
  6  8  1  0  0  0  0
  7 29  1  0  0  0  0
  8  9  1  0  0  0  0
  9 10  1  0  0  0  0
  9 30  1  0  0  0  0
  9 31  1  0  0  0  0
 10 15  2  0  0  0  0
 10 11  1  0  0  0  0
 11 12  2  0  0  0  0
 11 32  1  0  0  0  0
 12 13  1  0  0  0  0
 13 20  2  0  0  0  0
 13 14  1  0  0  0  0
 14 15  1  0  0  0  0
 14 17  2  0  0  0  0
 15 16  1  0  0  0  0
 16 33  1  0  0  0  0
 16 34  1  0  0  0  0
 16 35  1  0  0  0  0
 17 18  1  0  0  0  0
 17 22  1  0  0  0  0
 18 19  2  0  0  0  0
 19 20  1  0  0  0  0
 19 21  1  0  0  0  0
 21 36  1  0  0  0  0
 21 37  1  0  0  0  0
 22 38  1  0  0  0  0
 22 39  1  0  0  0  0
M  END
$$$$
ZINC03815000
  -OEChem-08230709403D

 40 42  0     0  0  0  0  0  0999 V2000
    5.3335    2.6713   -6.6099 C   0  0  0  0  0  0  0  0  0  0  0  0
    4.0121    2.2466   -6.0228 C   0  0  0  0  0  0  0  0  0  0  0  0
    2.8355    2.5311   -6.6921 C   0  0  0  0  0  0  0  0  0  0  0  0
    1.6206    2.1441   -6.1567 C   0  0  0  0  0  0  0  0  0  0  0  0
    1.5782    1.4715   -4.9513 C   0  0  0  0  0  0  0  0  0  0  0  0
    2.7582    1.1836   -4.2764 C   0  0  0  0  0  0  0  0  0  0  0  0
    3.9771    1.5791   -4.8148 C   0  0  0  0  0  0  0  0  0  0  0  0
    2.7090    0.3255   -2.7382 S   0  0  0  0  0  0  0  0  0  0  0  0
    0.9410    0.0367   -2.4532 C   0  0  0  0  0  0  0  0  0  0  0  0
    0.7558   -0.7000   -1.1516 C   0  0  0  0  0  0  0  0  0  0  0  0
    0.7523   -2.0896   -1.1325 C   0  0  0  0  0  0  0  0  0  0  0  0
    0.5879   -2.7660   -0.0178 N   0  0  0  0  0  0  0  0  0  0  0  0
    0.4216   -2.1441    1.1500 C   0  0  0  0  0  0  0  0  0  0  0  0
    0.4206   -0.7281    1.1993 C   0  0  0  0  0  0  0  0  0  0  0  0
    0.5951   -0.0010    0.0158 C   0  0  0  0  0  0  0  0  0  0  0  0
    0.5999    1.5059    0.0247 C   0  0  0  0  0  0  0  0  0  0  0  0
    0.2422   -0.0944    2.4535 C   0  0  0  0  0  0  0  0  0  0  0  0
    0.0841   -0.8578    3.5257 N   0  0  0  0  0  0  0  0  0  0  0  0
    0.0913   -2.1844    3.4361 C   0  0  0  0  0  0  0  0  0  0  0  0
   -0.0784   -2.9256    4.5898 N   0  0  0  0  0  0  0  0  0  0  0  0
    0.2328    1.2794    2.5563 N   0  0  0  0  0  0  0  0  0  0  0  0
    5.5854    3.6700   -6.2532 H   0  0  0  0  0  0  0  0  0  0  0  0
    6.1094    1.9697   -6.3037 H   0  0  0  0  0  0  0  0  0  0  0  0
    5.2614    2.6813   -7.6975 H   0  0  0  0  0  0  0  0  0  0  0  0
    2.8656    3.0570   -7.6349 H   0  0  0  0  0  0  0  0  0  0  0  0
    0.7039    2.3686   -6.6817 H   0  0  0  0  0  0  0  0  0  0  0  0
    0.6290    1.1699   -4.5336 H   0  0  0  0  0  0  0  0  0  0  0  0
    4.8959    1.3609   -4.2908 H   0  0  0  0  0  0  0  0  0  0  0  0
    0.5340   -0.5600   -3.2695 H   0  0  0  0  0  0  0  0  0  0  0  0
    0.4195    0.9928   -2.4069 H   0  0  0  0  0  0  0  0  0  0  0  0
    0.8845   -2.6282   -2.0593 H   0  0  0  0  0  0  0  0  0  0  0  0
    1.5918    1.8645    0.2996 H   0  0  0  0  0  0  0  0  0  0  0  0
    0.3419    1.8759   -0.9676 H   0  0  0  0  0  0  0  0  0  0  0  0
   -0.1306    1.8673    0.7485 H   0  0  0  0  0  0  0  0  0  0  0  0
   -0.1994   -2.4769    5.4412 H   0  0  0  0  0  0  0  0  0  0  0  0
   -0.0766   -3.8947    4.5483 H   0  0  0  0  0  0  0  0  0  0  0  0
   -0.4080    1.7178    3.1376 H   0  0  0  0  0  0  0  0  0  0  0  0
    0.8670    1.8081    2.0473 H   0  0  0  0  0  0  0  0  0  0  0  0
    0.2529   -2.8962    2.2920 N   0  3  0  0  0  0  0  0  0  0  0  0
    0.2557   -3.8947    2.2380 H   0  0  0  0  0  0  0  0  0  0  0  0
  1  2  1  0  0  0  0
  1 22  1  0  0  0  0
  1 23  1  0  0  0  0
  1 24  1  0  0  0  0
  2  7  2  0  0  0  0
  2  3  1  0  0  0  0
  3  4  2  0  0  0  0
  3 25  1  0  0  0  0
  4  5  1  0  0  0  0
  4 26  1  0  0  0  0
  5  6  2  0  0  0  0
  5 27  1  0  0  0  0
  6  7  1  0  0  0  0
  6  8  1  0  0  0  0
  7 28  1  0  0  0  0
  8  9  1  0  0  0  0
  9 10  1  0  0  0  0
  9 29  1  0  0  0  0
  9 30  1  0  0  0  0
 10 15  2  0  0  0  0
 10 11  1  0  0  0  0
 11 12  2  0  0  0  0
 11 31  1  0  0  0  0
 12 13  1  0  0  0  0
 13 14  2  0  0  0  0
 13 39  1  0  0  0  0
 14 15  1  0  0  0  0
 14 17  1  0  0  0  0
 15 16  1  0  0  0  0
 16 32  1  0  0  0  0
 16 33  1  0  0  0  0
 16 34  1  0  0  0  0
 17 18  2  0  0  0  0
 17 21  1  0  0  0  0
 18 19  1  0  0  0  0
 19 20  1  0  0  0  0
 19 39  2  0  0  0  0
 20 35  1  0  0  0  0
 20 36  1  0  0  0  0
 21 37  1  0  0  0  0
 21 38  1  0  0  0  0
 39 40  1  0  0  0  0
M  CHG  1  39   1
M  END
$$$$
ZINC03815001
  -OEChem-08230709403D

 39 41  0     0  0  0  0  0  0999 V2000
    4.0551    3.2024    7.4691 C   0  0  0  0  0  0  0  0  0  0  0  0
    3.2800    2.4838    6.3949 C   0  0  0  0  0  0  0  0  0  0  0  0
    1.9329    2.2254    6.5720 C   0  0  0  0  0  0  0  0  0  0  0  0
    1.2196    1.5668    5.5902 C   0  0  0  0  0  0  0  0  0  0  0  0
    1.8568    1.1638    4.4227 C   0  0  0  0  0  0  0  0  0  0  0  0
    3.2118    1.4205    4.2505 C   0  0  0  0  0  0  0  0  0  0  0  0
    3.9174    2.0846    5.2342 C   0  0  0  0  0  0  0  0  0  0  0  0
    0.9507    0.3231    3.1670 S   0  0  0  0  0  0  0  0  0  0  0  0
    2.1819    0.0103    1.8721 C   0  0  0  0  0  0  0  0  0  0  0  0
    1.5294   -0.7139    0.7229 C   0  0  0  0  0  0  0  0  0  0  0  0
    1.4974   -2.1032    0.7035 C   0  0  0  0  0  0  0  0  0  0  0  0
    0.9366   -2.7689   -0.2811 N   0  0  0  0  0  0  0  0  0  0  0  0
    0.3715   -2.1360   -1.3098 C   0  0  0  0  0  0  0  0  0  0  0  0
    0.3659   -0.7197   -1.3474 C   0  0  0  0  0  0  0  0  0  0  0  0
    0.9661   -0.0040   -0.3047 C   0  0  0  0  0  0  0  0  0  0  0  0
    0.9866    1.5029   -0.3092 C   0  0  0  0  0  0  0  0  0  0  0  0
   -0.2469   -0.0738   -2.4491 C   0  0  0  0  0  0  0  0  0  0  0  0
   -0.7925   -0.8268   -3.3941 N   0  0  0  0  0  0  0  0  0  0  0  0
   -0.7699   -2.1541   -3.3183 C   0  0  0  0  0  0  0  0  0  0  0  0
   -0.2032   -2.8048   -2.3192 N   0  0  0  0  0  0  0  0  0  0  0  0
   -1.3551   -2.8841   -4.3351 N   0  0  0  0  0  0  0  0  0  0  0  0
   -0.2749    1.3007   -2.5366 N   0  0  0  0  0  0  0  0  0  0  0  0
    4.4723    2.4744    8.1648 H   0  0  0  0  0  0  0  0  0  0  0  0
    4.8636    3.7739    7.0131 H   0  0  0  0  0  0  0  0  0  0  0  0
    3.3901    3.8787    8.0062 H   0  0  0  0  0  0  0  0  0  0  0  0
    1.4384    2.5389    7.4795 H   0  0  0  0  0  0  0  0  0  0  0  0
    0.1677    1.3654    5.7291 H   0  0  0  0  0  0  0  0  0  0  0  0
    3.7112    1.1048    3.3465 H   0  0  0  0  0  0  0  0  0  0  0  0
    4.9693    2.2884    5.0992 H   0  0  0  0  0  0  0  0  0  0  0  0
    2.9875   -0.6021    2.2771 H   0  0  0  0  0  0  0  0  0  0  0  0
    2.5881    0.9586    1.5203 H   0  0  0  0  0  0  0  0  0  0  0  0
    1.9451   -2.6505    1.5199 H   0  0  0  0  0  0  0  0  0  0  0  0
    1.8181    1.8531   -0.9209 H   0  0  0  0  0  0  0  0  0  0  0  0
    0.0496    1.8777   -0.7209 H   0  0  0  0  0  0  0  0  0  0  0  0
    1.1070    1.8677    0.7108 H   0  0  0  0  0  0  0  0  0  0  0  0
   -1.7705   -2.4272   -5.0831 H   0  0  0  0  0  0  0  0  0  0  0  0
   -1.3505   -3.8535   -4.3008 H   0  0  0  0  0  0  0  0  0  0  0  0
    0.5083    1.8182   -2.2924 H   0  0  0  0  0  0  0  0  0  0  0  0
   -1.0777    1.7510   -2.8425 H   0  0  0  0  0  0  0  0  0  0  0  0
  1  2  1  0  0  0  0
  1 23  1  0  0  0  0
  1 24  1  0  0  0  0
  1 25  1  0  0  0  0
  2  7  2  0  0  0  0
  2  3  1  0  0  0  0
  3  4  2  0  0  0  0
  3 26  1  0  0  0  0
  4  5  1  0  0  0  0
  4 27  1  0  0  0  0
  5  6  2  0  0  0  0
  5  8  1  0  0  0  0
  6  7  1  0  0  0  0
  6 28  1  0  0  0  0
  7 29  1  0  0  0  0
  8  9  1  0  0  0  0
  9 10  1  0  0  0  0
  9 30  1  0  0  0  0
  9 31  1  0  0  0  0
 10 15  2  0  0  0  0
 10 11  1  0  0  0  0
 11 12  2  0  0  0  0
 11 32  1  0  0  0  0
 12 13  1  0  0  0  0
 13 20  2  0  0  0  0
 13 14  1  0  0  0  0
 14 15  1  0  0  0  0
 14 17  2  0  0  0  0
 15 16  1  0  0  0  0
 16 33  1  0  0  0  0
 16 34  1  0  0  0  0
 16 35  1  0  0  0  0
 17 18  1  0  0  0  0
 17 22  1  0  0  0  0
 18 19  2  0  0  0  0
 19 20  1  0  0  0  0
 19 21  1  0  0  0  0
 21 36  1  0  0  0  0
 21 37  1  0  0  0  0
 22 38  1  0  0  0  0
 22 39  1  0  0  0  0
M  END
$$$$
ZINC03815001
  -OEChem-08230709403D

 40 42  0     0  0  0  0  0  0999 V2000
    4.0551    3.2024    7.4691 C   0  0  0  0  0  0  0  0  0  0  0  0
    3.2800    2.4838    6.3949 C   0  0  0  0  0  0  0  0  0  0  0  0
    1.9329    2.2254    6.5720 C   0  0  0  0  0  0  0  0  0  0  0  0
    1.2196    1.5668    5.5902 C   0  0  0  0  0  0  0  0  0  0  0  0
    1.8568    1.1638    4.4227 C   0  0  0  0  0  0  0  0  0  0  0  0
    3.2118    1.4205    4.2505 C   0  0  0  0  0  0  0  0  0  0  0  0
    3.9174    2.0846    5.2342 C   0  0  0  0  0  0  0  0  0  0  0  0
    0.9507    0.3231    3.1670 S   0  0  0  0  0  0  0  0  0  0  0  0
    2.1819    0.0103    1.8721 C   0  0  0  0  0  0  0  0  0  0  0  0
    1.5294   -0.7139    0.7229 C   0  0  0  0  0  0  0  0  0  0  0  0
    1.4974   -2.1032    0.7035 C   0  0  0  0  0  0  0  0  0  0  0  0
    0.9366   -2.7689   -0.2811 N   0  0  0  0  0  0  0  0  0  0  0  0
    0.3715   -2.1360   -1.3098 C   0  0  0  0  0  0  0  0  0  0  0  0
    0.3659   -0.7197   -1.3474 C   0  0  0  0  0  0  0  0  0  0  0  0
    0.9661   -0.0040   -0.3047 C   0  0  0  0  0  0  0  0  0  0  0  0
    0.9866    1.5029   -0.3092 C   0  0  0  0  0  0  0  0  0  0  0  0
   -0.2469   -0.0738   -2.4491 C   0  0  0  0  0  0  0  0  0  0  0  0
   -0.7925   -0.8268   -3.3941 N   0  0  0  0  0  0  0  0  0  0  0  0
   -0.7699   -2.1541   -3.3183 C   0  0  0  0  0  0  0  0  0  0  0  0
   -1.3551   -2.8841   -4.3351 N   0  0  0  0  0  0  0  0  0  0  0  0
   -0.2749    1.3007   -2.5366 N   0  0  0  0  0  0  0  0  0  0  0  0
    4.4723    2.4744    8.1648 H   0  0  0  0  0  0  0  0  0  0  0  0
    4.8636    3.7739    7.0131 H   0  0  0  0  0  0  0  0  0  0  0  0
    3.3901    3.8787    8.0062 H   0  0  0  0  0  0  0  0  0  0  0  0
    1.4384    2.5389    7.4795 H   0  0  0  0  0  0  0  0  0  0  0  0
    0.1677    1.3654    5.7291 H   0  0  0  0  0  0  0  0  0  0  0  0
    3.7112    1.1048    3.3465 H   0  0  0  0  0  0  0  0  0  0  0  0
    4.9693    2.2884    5.0992 H   0  0  0  0  0  0  0  0  0  0  0  0
    2.9875   -0.6021    2.2771 H   0  0  0  0  0  0  0  0  0  0  0  0
    2.5881    0.9586    1.5203 H   0  0  0  0  0  0  0  0  0  0  0  0
    1.9451   -2.6505    1.5199 H   0  0  0  0  0  0  0  0  0  0  0  0
    1.8181    1.8531   -0.9209 H   0  0  0  0  0  0  0  0  0  0  0  0
    0.0496    1.8777   -0.7209 H   0  0  0  0  0  0  0  0  0  0  0  0
    1.1070    1.8677    0.7108 H   0  0  0  0  0  0  0  0  0  0  0  0
   -1.7705   -2.4272   -5.0831 H   0  0  0  0  0  0  0  0  0  0  0  0
   -1.3505   -3.8535   -4.3008 H   0  0  0  0  0  0  0  0  0  0  0  0
    0.5083    1.8182   -2.2924 H   0  0  0  0  0  0  0  0  0  0  0  0
   -1.0777    1.7510   -2.8425 H   0  0  0  0  0  0  0  0  0  0  0  0
   -0.2033   -2.8770   -2.3192 N   0  3  0  0  0  0  0  0  0  0  0  0
   -0.1827   -3.8760   -2.2800 H   0  0  0  0  0  0  0  0  0  0  0  0
  1  2  1  0  0  0  0
  1 22  1  0  0  0  0
  1 23  1  0  0  0  0
  1 24  1  0  0  0  0
  2  7  2  0  0  0  0
  2  3  1  0  0  0  0
  3  4  2  0  0  0  0
  3 25  1  0  0  0  0
  4  5  1  0  0  0  0
  4 26  1  0  0  0  0
  5  6  2  0  0  0  0
  5  8  1  0  0  0  0
  6  7  1  0  0  0  0
  6 27  1  0  0  0  0
  7 28  1  0  0  0  0
  8  9  1  0  0  0  0
  9 10  1  0  0  0  0
  9 29  1  0  0  0  0
  9 30  1  0  0  0  0
 10 15  2  0  0  0  0
 10 11  1  0  0  0  0
 11 12  2  0  0  0  0
 11 31  1  0  0  0  0
 12 13  1  0  0  0  0
 13 14  2  0  0  0  0
 13 39  1  0  0  0  0
 14 15  1  0  0  0  0
 14 17  1  0  0  0  0
 15 16  1  0  0  0  0
 16 32  1  0  0  0  0
 16 33  1  0  0  0  0
 16 34  1  0  0  0  0
 17 18  2  0  0  0  0
 17 21  1  0  0  0  0
 18 19  1  0  0  0  0
 19 20  1  0  0  0  0
 19 39  2  0  0  0  0
 20 35  1  0  0  0  0
 20 36  1  0  0  0  0
 21 37  1  0  0  0  0
 21 38  1  0  0  0  0
 39 40  1  0  0  0  0
M  CHG  1  39   1
M  END
$$$$
ZINC03815002
  -OEChem-08230709403D

 40 42  0     0  0  0  0  0  0999 V2000
   -0.4707    8.9825    5.9513 C   0  0  0  0  0  0  0  0  0  0  0  0
   -1.9492    9.2634    5.8730 C   0  0  0  0  0  0  0  0  0  0  0  0
   -2.6303    9.1337    4.6908 C   0  0  0  0  0  0  0  0  0  0  0  0
   -3.9921    9.4046    4.6435 C   0  0  0  0  0  0  0  0  0  0  0  0
   -4.6615    9.7758    5.7121 N   0  0  0  0  0  0  0  0  0  0  0  0
   -4.0562    9.9200    6.8912 C   0  0  0  0  0  0  0  0  0  0  0  0
   -2.6672    9.6648    7.0052 C   0  0  0  0  0  0  0  0  0  0  0  0
   -2.0506    9.8259    8.2707 C   0  0  0  0  0  0  0  0  0  0  0  0
   -2.8041   10.2089    9.2916 N   0  0  0  0  0  0  0  0  0  0  0  0
   -4.1055   10.4383    9.1420 C   0  0  0  0  0  0  0  0  0  0  0  0
   -4.7282   10.3032    7.9862 N   0  0  0  0  0  0  0  0  0  0  0  0
   -4.8375   10.8358   10.2445 N   0  0  0  0  0  0  0  0  0  0  0  0
   -0.7032    9.5911    8.4355 N   0  0  0  0  0  0  0  0  0  0  0  0
   -1.9022    8.7041    3.4432 C   0  0  0  0  0  0  0  0  0  0  0  0
   -1.9413    6.8952    3.3129 S   0  0  0  0  0  0  0  0  0  0  0  0
   -1.0614    6.5560    1.8246 C   0  0  0  0  0  0  0  0  0  0  0  0
   -0.5372    7.6009    1.0720 C   0  0  0  0  0  0  0  0  0  0  0  0
    0.1516    7.3346   -0.0949 C   0  0  0  0  0  0  0  0  0  0  0  0
    0.3216    6.0296   -0.5179 C   0  0  0  0  0  0  0  0  0  0  0  0
   -0.1989    4.9822    0.2293 C   0  0  0  0  0  0  0  0  0  0  0  0
   -0.8954    5.2449    1.3983 C   0  0  0  0  0  0  0  0  0  0  0  0
   -0.0306    3.6999   -0.1882 O   0  0  0  0  0  0  0  0  0  0  0  0
    0.6924    3.5034   -1.4051 C   0  0  0  0  0  0  0  0  0  0  0  0
    0.0816    9.9192    5.8755 H   0  0  0  0  0  0  0  0  0  0  0  0
   -0.2421    8.5018    6.9025 H   0  0  0  0  0  0  0  0  0  0  0  0
   -0.1822    8.3234    5.1325 H   0  0  0  0  0  0  0  0  0  0  0  0
   -4.5158    9.3032    3.7044 H   0  0  0  0  0  0  0  0  0  0  0  0
   -4.4008   10.9419   11.1041 H   0  0  0  0  0  0  0  0  0  0  0  0
   -5.7881   11.0087   10.1588 H   0  0  0  0  0  0  0  0  0  0  0  0
   -0.0729    9.8895    7.7612 H   0  0  0  0  0  0  0  0  0  0  0  0
   -0.3848    9.1275    9.2257 H   0  0  0  0  0  0  0  0  0  0  0  0
   -0.8673    9.0426    3.4917 H   0  0  0  0  0  0  0  0  0  0  0  0
   -2.3871    9.1418    2.5706 H   0  0  0  0  0  0  0  0  0  0  0  0
   -0.6689    8.6214    1.4001 H   0  0  0  0  0  0  0  0  0  0  0  0
    0.5578    8.1475   -0.6784 H   0  0  0  0  0  0  0  0  0  0  0  0
    0.8602    5.8247   -1.4313 H   0  0  0  0  0  0  0  0  0  0  0  0
   -1.3053    4.4313    1.9784 H   0  0  0  0  0  0  0  0  0  0  0  0
    0.7542    2.4372   -1.6229 H   0  0  0  0  0  0  0  0  0  0  0  0
    1.6976    3.9117   -1.3004 H   0  0  0  0  0  0  0  0  0  0  0  0
    0.1769    4.0115   -2.2201 H   0  0  0  0  0  0  0  0  0  0  0  0
  1  2  1  0  0  0  0
  1 24  1  0  0  0  0
  1 25  1  0  0  0  0
  1 26  1  0  0  0  0
  2  7  2  0  0  0  0
  2  3  1  0  0  0  0
  3  4  2  0  0  0  0
  3 14  1  0  0  0  0
  4  5  1  0  0  0  0
  4 27  1  0  0  0  0
  5  6  2  0  0  0  0
  6 11  1  0  0  0  0
  6  7  1  0  0  0  0
  7  8  1  0  0  0  0
  8  9  2  0  0  0  0
  8 13  1  0  0  0  0
  9 10  1  0  0  0  0
 10 11  2  0  0  0  0
 10 12  1  0  0  0  0
 12 28  1  0  0  0  0
 12 29  1  0  0  0  0
 13 30  1  0  0  0  0
 13 31  1  0  0  0  0
 14 15  1  0  0  0  0
 14 32  1  0  0  0  0
 14 33  1  0  0  0  0
 15 16  1  0  0  0  0
 16 21  2  0  0  0  0
 16 17  1  0  0  0  0
 17 18  2  0  0  0  0
 17 34  1  0  0  0  0
 18 19  1  0  0  0  0
 18 35  1  0  0  0  0
 19 20  2  0  0  0  0
 19 36  1  0  0  0  0
 20 21  1  0  0  0  0
 20 22  1  0  0  0  0
 21 37  1  0  0  0  0
 22 23  1  0  0  0  0
 23 38  1  0  0  0  0
 23 39  1  0  0  0  0
 23 40  1  0  0  0  0
M  END
$$$$
ZINC03815002
  -OEChem-08230709403D

 41 43  0     0  0  0  0  0  0999 V2000
   -0.4707    8.9825    5.9513 C   0  0  0  0  0  0  0  0  0  0  0  0
   -1.9492    9.2634    5.8730 C   0  0  0  0  0  0  0  0  0  0  0  0
   -2.6303    9.1337    4.6908 C   0  0  0  0  0  0  0  0  0  0  0  0
   -3.9921    9.4046    4.6435 C   0  0  0  0  0  0  0  0  0  0  0  0
   -4.6615    9.7758    5.7121 N   0  0  0  0  0  0  0  0  0  0  0  0
   -4.0562    9.9200    6.8912 C   0  0  0  0  0  0  0  0  0  0  0  0
   -2.6672    9.6648    7.0052 C   0  0  0  0  0  0  0  0  0  0  0  0
   -2.0506    9.8259    8.2707 C   0  0  0  0  0  0  0  0  0  0  0  0
   -2.8041   10.2089    9.2916 N   0  0  0  0  0  0  0  0  0  0  0  0
   -4.1055   10.4383    9.1420 C   0  0  0  0  0  0  0  0  0  0  0  0
   -4.8375   10.8358   10.2445 N   0  0  0  0  0  0  0  0  0  0  0  0
   -0.7032    9.5911    8.4355 N   0  0  0  0  0  0  0  0  0  0  0  0
   -1.9022    8.7041    3.4432 C   0  0  0  0  0  0  0  0  0  0  0  0
   -1.9413    6.8952    3.3129 S   0  0  0  0  0  0  0  0  0  0  0  0
   -1.0614    6.5560    1.8246 C   0  0  0  0  0  0  0  0  0  0  0  0
   -0.5372    7.6009    1.0720 C   0  0  0  0  0  0  0  0  0  0  0  0
    0.1516    7.3346   -0.0949 C   0  0  0  0  0  0  0  0  0  0  0  0
    0.3216    6.0296   -0.5179 C   0  0  0  0  0  0  0  0  0  0  0  0
   -0.1989    4.9822    0.2293 C   0  0  0  0  0  0  0  0  0  0  0  0
   -0.8954    5.2449    1.3983 C   0  0  0  0  0  0  0  0  0  0  0  0
   -0.0306    3.6999   -0.1882 O   0  0  0  0  0  0  0  0  0  0  0  0
    0.6924    3.5034   -1.4051 C   0  0  0  0  0  0  0  0  0  0  0  0
    0.0816    9.9192    5.8755 H   0  0  0  0  0  0  0  0  0  0  0  0
   -0.2421    8.5018    6.9025 H   0  0  0  0  0  0  0  0  0  0  0  0
   -0.1822    8.3234    5.1325 H   0  0  0  0  0  0  0  0  0  0  0  0
   -4.5158    9.3032    3.7044 H   0  0  0  0  0  0  0  0  0  0  0  0
   -4.4008   10.9419   11.1041 H   0  0  0  0  0  0  0  0  0  0  0  0
   -5.7881   11.0087   10.1588 H   0  0  0  0  0  0  0  0  0  0  0  0
   -0.0729    9.8895    7.7612 H   0  0  0  0  0  0  0  0  0  0  0  0
   -0.3848    9.1275    9.2257 H   0  0  0  0  0  0  0  0  0  0  0  0
   -0.8673    9.0426    3.4917 H   0  0  0  0  0  0  0  0  0  0  0  0
   -2.3871    9.1418    2.5706 H   0  0  0  0  0  0  0  0  0  0  0  0
   -0.6689    8.6214    1.4001 H   0  0  0  0  0  0  0  0  0  0  0  0
    0.5578    8.1475   -0.6784 H   0  0  0  0  0  0  0  0  0  0  0  0
    0.8602    5.8247   -1.4313 H   0  0  0  0  0  0  0  0  0  0  0  0
   -1.3053    4.4313    1.9784 H   0  0  0  0  0  0  0  0  0  0  0  0
    0.7542    2.4372   -1.6229 H   0  0  0  0  0  0  0  0  0  0  0  0
    1.6976    3.9117   -1.3004 H   0  0  0  0  0  0  0  0  0  0  0  0
    0.1769    4.0115   -2.2201 H   0  0  0  0  0  0  0  0  0  0  0  0
   -4.7990   10.3166    7.9822 N   0  3  0  0  0  0  0  0  0  0  0  0
   -5.7798   10.5107    7.9633 H   0  0  0  0  0  0  0  0  0  0  0  0
  1  2  1  0  0  0  0
  1 23  1  0  0  0  0
  1 24  1  0  0  0  0
  1 25  1  0  0  0  0
  2  7  2  0  0  0  0
  2  3  1  0  0  0  0
  3  4  2  0  0  0  0
  3 13  1  0  0  0  0
  4  5  1  0  0  0  0
  4 26  1  0  0  0  0
  5  6  2  0  0  0  0
  6  7  1  0  0  0  0
  6 40  1  0  0  0  0
  7  8  1  0  0  0  0
  8  9  2  0  0  0  0
  8 12  1  0  0  0  0
  9 10  1  0  0  0  0
 10 11  1  0  0  0  0
 10 40  2  0  0  0  0
 11 27  1  0  0  0  0
 11 28  1  0  0  0  0
 12 29  1  0  0  0  0
 12 30  1  0  0  0  0
 13 14  1  0  0  0  0
 13 31  1  0  0  0  0
 13 32  1  0  0  0  0
 14 15  1  0  0  0  0
 15 20  2  0  0  0  0
 15 16  1  0  0  0  0
 16 17  2  0  0  0  0
 16 33  1  0  0  0  0
 17 18  1  0  0  0  0
 17 34  1  0  0  0  0
 18 19  2  0  0  0  0
 18 35  1  0  0  0  0
 19 20  1  0  0  0  0
 19 21  1  0  0  0  0
 20 36  1  0  0  0  0
 21 22  1  0  0  0  0
 22 37  1  0  0  0  0
 22 38  1  0  0  0  0
 22 39  1  0  0  0  0
 40 41  1  0  0  0  0
M  CHG  1  40   1
M  END
$$$$
ZINC03815003
  -OEChem-08230709403D

 40 42  0     0  0  0  0  0  0999 V2000
    0.9878    1.5025   -0.3097 C   0  0  0  0  0  0  0  0  0  0  0  0
    0.9672   -0.0044   -0.3053 C   0  0  0  0  0  0  0  0  0  0  0  0
    1.5310   -0.7147    0.7222 C   0  0  0  0  0  0  0  0  0  0  0  0
    1.4984   -2.1035    0.7029 C   0  0  0  0  0  0  0  0  0  0  0  0
    0.9365   -2.7691   -0.2816 N   0  0  0  0  0  0  0  0  0  0  0  0
    0.3711   -2.1360   -1.3096 C   0  0  0  0  0  0  0  0  0  0  0  0
    0.3665   -0.7196   -1.3474 C   0  0  0  0  0  0  0  0  0  0  0  0
   -0.2470   -0.0735   -2.4491 C   0  0  0  0  0  0  0  0  0  0  0  0
   -0.7934   -0.8262   -3.3934 N   0  0  0  0  0  0  0  0  0  0  0  0
   -0.7713   -2.1537   -3.3176 C   0  0  0  0  0  0  0  0  0  0  0  0
   -0.2051   -2.8047   -2.3187 N   0  0  0  0  0  0  0  0  0  0  0  0
   -1.3580   -2.8835   -4.3337 N   0  0  0  0  0  0  0  0  0  0  0  0
   -0.2745    1.3010   -2.5368 N   0  0  0  0  0  0  0  0  0  0  0  0
    2.1847    0.0093    1.8709 C   0  0  0  0  0  0  0  0  0  0  0  0
    0.9545    0.3226    3.1667 S   0  0  0  0  0  0  0  0  0  0  0  0
    1.8619    1.1630    4.4217 C   0  0  0  0  0  0  0  0  0  0  0  0
    3.2163    1.4183    4.2474 C   0  0  0  0  0  0  0  0  0  0  0  0
    3.9254    2.0812    5.2296 C   0  0  0  0  0  0  0  0  0  0  0  0
    3.2882    2.4828    6.3945 C   0  0  0  0  0  0  0  0  0  0  0  0
    1.9371    2.2237    6.5718 C   0  0  0  0  0  0  0  0  0  0  0  0
    1.2248    1.5656    5.5887 C   0  0  0  0  0  0  0  0  0  0  0  0
    3.9886    3.1314    7.3632 O   0  0  0  0  0  0  0  0  0  0  0  0
    5.3762    3.3651    7.1142 C   0  0  0  0  0  0  0  0  0  0  0  0
    1.8190    1.8527   -0.9217 H   0  0  0  0  0  0  0  0  0  0  0  0
    0.0506    1.8775   -0.7209 H   0  0  0  0  0  0  0  0  0  0  0  0
    1.1087    1.8671    0.7104 H   0  0  0  0  0  0  0  0  0  0  0  0
    1.9465   -2.6510    1.5189 H   0  0  0  0  0  0  0  0  0  0  0  0
   -1.7740   -2.4264   -5.0813 H   0  0  0  0  0  0  0  0  0  0  0  0
   -1.3538   -3.8529   -4.2994 H   0  0  0  0  0  0  0  0  0  0  0  0
    0.5090    1.8183   -2.2927 H   0  0  0  0  0  0  0  0  0  0  0  0
   -1.0772    1.7516   -2.8425 H   0  0  0  0  0  0  0  0  0  0  0  0
    2.9903   -0.6035    2.2753 H   0  0  0  0  0  0  0  0  0  0  0  0
    2.5911    0.9574    1.5188 H   0  0  0  0  0  0  0  0  0  0  0  0
    3.7135    1.1021    3.3423 H   0  0  0  0  0  0  0  0  0  0  0  0
    4.9773    2.2837    5.0924 H   0  0  0  0  0  0  0  0  0  0  0  0
    1.4420    2.5365    7.4793 H   0  0  0  0  0  0  0  0  0  0  0  0
    0.1728    1.3643    5.7269 H   0  0  0  0  0  0  0  0  0  0  0  0
    5.8146    3.8889    7.9637 H   0  0  0  0  0  0  0  0  0  0  0  0
    5.8856    2.4118    6.9730 H   0  0  0  0  0  0  0  0  0  0  0  0
    5.4869    3.9727    6.2161 H   0  0  0  0  0  0  0  0  0  0  0  0
  1  2  1  0  0  0  0
  1 24  1  0  0  0  0
  1 25  1  0  0  0  0
  1 26  1  0  0  0  0
  2  7  2  0  0  0  0
  2  3  1  0  0  0  0
  3  4  2  0  0  0  0
  3 14  1  0  0  0  0
  4  5  1  0  0  0  0
  4 27  1  0  0  0  0
  5  6  2  0  0  0  0
  6 11  1  0  0  0  0
  6  7  1  0  0  0  0
  7  8  1  0  0  0  0
  8  9  2  0  0  0  0
  8 13  1  0  0  0  0
  9 10  1  0  0  0  0
 10 11  2  0  0  0  0
 10 12  1  0  0  0  0
 12 28  1  0  0  0  0
 12 29  1  0  0  0  0
 13 30  1  0  0  0  0
 13 31  1  0  0  0  0
 14 15  1  0  0  0  0
 14 32  1  0  0  0  0
 14 33  1  0  0  0  0
 15 16  1  0  0  0  0
 16 21  2  0  0  0  0
 16 17  1  0  0  0  0
 17 18  2  0  0  0  0
 17 34  1  0  0  0  0
 18 19  1  0  0  0  0
 18 35  1  0  0  0  0
 19 20  2  0  0  0  0
 19 22  1  0  0  0  0
 20 21  1  0  0  0  0
 20 36  1  0  0  0  0
 21 37  1  0  0  0  0
 22 23  1  0  0  0  0
 23 38  1  0  0  0  0
 23 39  1  0  0  0  0
 23 40  1  0  0  0  0
M  END
$$$$
ZINC03815003
  -OEChem-08230709403D

 41 43  0     0  0  0  0  0  0999 V2000
    0.9878    1.5025   -0.3097 C   0  0  0  0  0  0  0  0  0  0  0  0
    0.9672   -0.0044   -0.3053 C   0  0  0  0  0  0  0  0  0  0  0  0
    1.5310   -0.7147    0.7222 C   0  0  0  0  0  0  0  0  0  0  0  0
    1.4984   -2.1035    0.7029 C   0  0  0  0  0  0  0  0  0  0  0  0
    0.9365   -2.7691   -0.2816 N   0  0  0  0  0  0  0  0  0  0  0  0
    0.3711   -2.1360   -1.3096 C   0  0  0  0  0  0  0  0  0  0  0  0
    0.3665   -0.7196   -1.3474 C   0  0  0  0  0  0  0  0  0  0  0  0
   -0.2470   -0.0735   -2.4491 C   0  0  0  0  0  0  0  0  0  0  0  0
   -0.7934   -0.8262   -3.3934 N   0  0  0  0  0  0  0  0  0  0  0  0
   -0.7713   -2.1537   -3.3176 C   0  0  0  0  0  0  0  0  0  0  0  0
   -1.3580   -2.8835   -4.3337 N   0  0  0  0  0  0  0  0  0  0  0  0
   -0.2745    1.3010   -2.5368 N   0  0  0  0  0  0  0  0  0  0  0  0
    2.1847    0.0093    1.8709 C   0  0  0  0  0  0  0  0  0  0  0  0
    0.9545    0.3226    3.1667 S   0  0  0  0  0  0  0  0  0  0  0  0
    1.8619    1.1630    4.4217 C   0  0  0  0  0  0  0  0  0  0  0  0
    3.2163    1.4183    4.2474 C   0  0  0  0  0  0  0  0  0  0  0  0
    3.9254    2.0812    5.2296 C   0  0  0  0  0  0  0  0  0  0  0  0
    3.2882    2.4828    6.3945 C   0  0  0  0  0  0  0  0  0  0  0  0
    1.9371    2.2237    6.5718 C   0  0  0  0  0  0  0  0  0  0  0  0
    1.2248    1.5656    5.5887 C   0  0  0  0  0  0  0  0  0  0  0  0
    3.9886    3.1314    7.3632 O   0  0  0  0  0  0  0  0  0  0  0  0
    5.3762    3.3651    7.1142 C   0  0  0  0  0  0  0  0  0  0  0  0
    1.8190    1.8527   -0.9217 H   0  0  0  0  0  0  0  0  0  0  0  0
    0.0506    1.8775   -0.7209 H   0  0  0  0  0  0  0  0  0  0  0  0
    1.1087    1.8671    0.7104 H   0  0  0  0  0  0  0  0  0  0  0  0
    1.9465   -2.6510    1.5189 H   0  0  0  0  0  0  0  0  0  0  0  0
   -1.7740   -2.4264   -5.0813 H   0  0  0  0  0  0  0  0  0  0  0  0
   -1.3538   -3.8529   -4.2994 H   0  0  0  0  0  0  0  0  0  0  0  0
    0.5090    1.8183   -2.2927 H   0  0  0  0  0  0  0  0  0  0  0  0
   -1.0772    1.7516   -2.8425 H   0  0  0  0  0  0  0  0  0  0  0  0
    2.9903   -0.6035    2.2753 H   0  0  0  0  0  0  0  0  0  0  0  0
    2.5911    0.9574    1.5188 H   0  0  0  0  0  0  0  0  0  0  0  0
    3.7135    1.1021    3.3423 H   0  0  0  0  0  0  0  0  0  0  0  0
    4.9773    2.2837    5.0924 H   0  0  0  0  0  0  0  0  0  0  0  0
    1.4420    2.5365    7.4793 H   0  0  0  0  0  0  0  0  0  0  0  0
    0.1728    1.3643    5.7269 H   0  0  0  0  0  0  0  0  0  0  0  0
    5.8146    3.8889    7.9637 H   0  0  0  0  0  0  0  0  0  0  0  0
    5.8856    2.4118    6.9730 H   0  0  0  0  0  0  0  0  0  0  0  0
    5.4869    3.9727    6.2161 H   0  0  0  0  0  0  0  0  0  0  0  0
   -0.2053   -2.8768   -2.3186 N   0  3  0  0  0  0  0  0  0  0  0  0
   -0.2267   -3.8761   -2.3507 H   0  0  0  0  0  0  0  0  0  0  0  0
  1  2  1  0  0  0  0
  1 23  1  0  0  0  0
  1 24  1  0  0  0  0
  1 25  1  0  0  0  0
  2  7  2  0  0  0  0
  2  3  1  0  0  0  0
  3  4  2  0  0  0  0
  3 13  1  0  0  0  0
  4  5  1  0  0  0  0
  4 26  1  0  0  0  0
  5  6  2  0  0  0  0
  6  7  1  0  0  0  0
  6 40  1  0  0  0  0
  7  8  1  0  0  0  0
  8  9  2  0  0  0  0
  8 12  1  0  0  0  0
  9 10  1  0  0  0  0
 10 11  1  0  0  0  0
 10 40  2  0  0  0  0
 11 27  1  0  0  0  0
 11 28  1  0  0  0  0
 12 29  1  0  0  0  0
 12 30  1  0  0  0  0
 13 14  1  0  0  0  0
 13 31  1  0  0  0  0
 13 32  1  0  0  0  0
 14 15  1  0  0  0  0
 15 20  2  0  0  0  0
 15 16  1  0  0  0  0
 16 17  2  0  0  0  0
 16 33  1  0  0  0  0
 17 18  1  0  0  0  0
 17 34  1  0  0  0  0
 18 19  2  0  0  0  0
 18 21  1  0  0  0  0
 19 20  1  0  0  0  0
 19 35  1  0  0  0  0
 20 36  1  0  0  0  0
 21 22  1  0  0  0  0
 22 37  1  0  0  0  0
 22 38  1  0  0  0  0
 22 39  1  0  0  0  0
 40 41  1  0  0  0  0
M  CHG  1  40   1
M  END
$$$$
ZINC03815004
  -OEChem-08230709403D

 44 46  0     0  0  0  0  0  0999 V2000
    0.6002    1.5059    0.0247 C   0  0  0  0  0  0  0  0  0  0  0  0
    0.5954   -0.0010    0.0159 C   0  0  0  0  0  0  0  0  0  0  0  0
    0.7562   -0.7002   -1.1519 C   0  0  0  0  0  0  0  0  0  0  0  0
    0.7510   -2.0894   -1.1330 C   0  0  0  0  0  0  0  0  0  0  0  0
    0.5873   -2.7658   -0.0179 N   0  0  0  0  0  0  0  0  0  0  0  0
    0.4217   -2.1439    1.1497 C   0  0  0  0  0  0  0  0  0  0  0  0
    0.4208   -0.7279    1.1990 C   0  0  0  0  0  0  0  0  0  0  0  0
    0.2422   -0.0940    2.4535 C   0  0  0  0  0  0  0  0  0  0  0  0
    0.0840   -0.8573    3.5254 N   0  0  0  0  0  0  0  0  0  0  0  0
    0.0912   -2.1842    3.4358 C   0  0  0  0  0  0  0  0  0  0  0  0
    0.2532   -2.8238    2.2928 N   0  0  0  0  0  0  0  0  0  0  0  0
   -0.0787   -2.9254    4.5895 N   0  0  0  0  0  0  0  0  0  0  0  0
    0.2328    1.2797    2.5563 N   0  0  0  0  0  0  0  0  0  0  0  0
    0.9415    0.0365   -2.4534 C   0  0  0  0  0  0  0  0  0  0  0  0
    2.7095    0.3253   -2.7384 S   0  0  0  0  0  0  0  0  0  0  0  0
    2.7588    1.1833   -4.2766 C   0  0  0  0  0  0  0  0  0  0  0  0
    1.5786    1.4653   -4.9529 C   0  0  0  0  0  0  0  0  0  0  0  0
    1.6155    2.1428   -6.1567 C   0  0  0  0  0  0  0  0  0  0  0  0
    2.8302    2.5331   -6.6969 C   0  0  0  0  0  0  0  0  0  0  0  0
    4.0147    2.2473   -6.0250 C   0  0  0  0  0  0  0  0  0  0  0  0
    3.9780    1.5729   -4.8158 C   0  0  0  0  0  0  0  0  0  0  0  0
    5.2072    2.6301   -6.5549 O   0  0  0  0  0  0  0  0  0  0  0  0
    6.3825    2.3039   -5.8104 C   0  0  0  0  0  0  0  0  0  0  0  0
    2.8649    3.1957   -7.8852 O   0  0  0  0  0  0  0  0  0  0  0  0
    1.6112    3.4557   -8.5198 C   0  0  0  0  0  0  0  0  0  0  0  0
    1.5921    1.8645    0.2998 H   0  0  0  0  0  0  0  0  0  0  0  0
    0.3423    1.8759   -0.9676 H   0  0  0  0  0  0  0  0  0  0  0  0
   -0.1304    1.8673    0.7485 H   0  0  0  0  0  0  0  0  0  0  0  0
    0.8826   -2.6280   -2.0598 H   0  0  0  0  0  0  0  0  0  0  0  0
   -0.1998   -2.4766    5.4409 H   0  0  0  0  0  0  0  0  0  0  0  0
   -0.0769   -3.8945    4.5480 H   0  0  0  0  0  0  0  0  0  0  0  0
   -0.4080    1.7182    3.1377 H   0  0  0  0  0  0  0  0  0  0  0  0
    0.8670    1.8085    2.0474 H   0  0  0  0  0  0  0  0  0  0  0  0
    0.5346   -0.5603   -3.2698 H   0  0  0  0  0  0  0  0  0  0  0  0
    0.4200    0.9925   -2.4073 H   0  0  0  0  0  0  0  0  0  0  0  0
    0.6310    1.1580   -4.5356 H   0  0  0  0  0  0  0  0  0  0  0  0
    0.6966    2.3648   -6.6791 H   0  0  0  0  0  0  0  0  0  0  0  0
    4.8963    1.3499   -4.2931 H   0  0  0  0  0  0  0  0  0  0  0  0
    6.4486    1.2224   -5.6914 H   0  0  0  0  0  0  0  0  0  0  0  0
    7.2620    2.6652   -6.3433 H   0  0  0  0  0  0  0  0  0  0  0  0
    6.3334    2.7752   -4.8288 H   0  0  0  0  0  0  0  0  0  0  0  0
    1.1054    2.5123   -8.7252 H   0  0  0  0  0  0  0  0  0  0  0  0
    0.9908    4.0651   -7.8627 H   0  0  0  0  0  0  0  0  0  0  0  0
    1.7812    3.9881   -9.4556 H   0  0  0  0  0  0  0  0  0  0  0  0
  1  2  1  0  0  0  0
  1 26  1  0  0  0  0
  1 27  1  0  0  0  0
  1 28  1  0  0  0  0
  2  7  2  0  0  0  0
  2  3  1  0  0  0  0
  3  4  2  0  0  0  0
  3 14  1  0  0  0  0
  4  5  1  0  0  0  0
  4 29  1  0  0  0  0
  5  6  2  0  0  0  0
  6 11  1  0  0  0  0
  6  7  1  0  0  0  0
  7  8  1  0  0  0  0
  8  9  2  0  0  0  0
  8 13  1  0  0  0  0
  9 10  1  0  0  0  0
 10 11  2  0  0  0  0
 10 12  1  0  0  0  0
 12 30  1  0  0  0  0
 12 31  1  0  0  0  0
 13 32  1  0  0  0  0
 13 33  1  0  0  0  0
 14 15  1  0  0  0  0
 14 34  1  0  0  0  0
 14 35  1  0  0  0  0
 15 16  1  0  0  0  0
 16 21  2  0  0  0  0
 16 17  1  0  0  0  0
 17 18  2  0  0  0  0
 17 36  1  0  0  0  0
 18 19  1  0  0  0  0
 18 37  1  0  0  0  0
 19 20  2  0  0  0  0
 19 24  1  0  0  0  0
 20 21  1  0  0  0  0
 20 22  1  0  0  0  0
 21 38  1  0  0  0  0
 22 23  1  0  0  0  0
 23 39  1  0  0  0  0
 23 40  1  0  0  0  0
 23 41  1  0  0  0  0
 24 25  1  0  0  0  0
 25 42  1  0  0  0  0
 25 43  1  0  0  0  0
 25 44  1  0  0  0  0
M  END
$$$$
ZINC03815004
  -OEChem-08230709403D

 45 47  0     0  0  0  0  0  0999 V2000
    0.6002    1.5059    0.0247 C   0  0  0  0  0  0  0  0  0  0  0  0
    0.5954   -0.0010    0.0159 C   0  0  0  0  0  0  0  0  0  0  0  0
    0.7562   -0.7002   -1.1519 C   0  0  0  0  0  0  0  0  0  0  0  0
    0.7510   -2.0894   -1.1330 C   0  0  0  0  0  0  0  0  0  0  0  0
    0.5873   -2.7658   -0.0179 N   0  0  0  0  0  0  0  0  0  0  0  0
    0.4217   -2.1439    1.1497 C   0  0  0  0  0  0  0  0  0  0  0  0
    0.4208   -0.7279    1.1990 C   0  0  0  0  0  0  0  0  0  0  0  0
    0.2422   -0.0940    2.4535 C   0  0  0  0  0  0  0  0  0  0  0  0
    0.0840   -0.8573    3.5254 N   0  0  0  0  0  0  0  0  0  0  0  0
    0.0912   -2.1842    3.4358 C   0  0  0  0  0  0  0  0  0  0  0  0
   -0.0787   -2.9254    4.5895 N   0  0  0  0  0  0  0  0  0  0  0  0
    0.2328    1.2797    2.5563 N   0  0  0  0  0  0  0  0  0  0  0  0
    0.9415    0.0365   -2.4534 C   0  0  0  0  0  0  0  0  0  0  0  0
    2.7095    0.3253   -2.7384 S   0  0  0  0  0  0  0  0  0  0  0  0
    2.7588    1.1833   -4.2766 C   0  0  0  0  0  0  0  0  0  0  0  0
    1.5786    1.4653   -4.9529 C   0  0  0  0  0  0  0  0  0  0  0  0
    1.6155    2.1428   -6.1567 C   0  0  0  0  0  0  0  0  0  0  0  0
    2.8302    2.5331   -6.6969 C   0  0  0  0  0  0  0  0  0  0  0  0
    4.0147    2.2473   -6.0250 C   0  0  0  0  0  0  0  0  0  0  0  0
    3.9780    1.5729   -4.8158 C   0  0  0  0  0  0  0  0  0  0  0  0
    5.2072    2.6301   -6.5549 O   0  0  0  0  0  0  0  0  0  0  0  0
    6.3825    2.3039   -5.8104 C   0  0  0  0  0  0  0  0  0  0  0  0
    2.8649    3.1957   -7.8852 O   0  0  0  0  0  0  0  0  0  0  0  0
    1.6112    3.4557   -8.5198 C   0  0  0  0  0  0  0  0  0  0  0  0
    1.5921    1.8645    0.2998 H   0  0  0  0  0  0  0  0  0  0  0  0
    0.3423    1.8759   -0.9676 H   0  0  0  0  0  0  0  0  0  0  0  0
   -0.1304    1.8673    0.7485 H   0  0  0  0  0  0  0  0  0  0  0  0
    0.8826   -2.6280   -2.0598 H   0  0  0  0  0  0  0  0  0  0  0  0
   -0.1998   -2.4766    5.4409 H   0  0  0  0  0  0  0  0  0  0  0  0
   -0.0769   -3.8945    4.5480 H   0  0  0  0  0  0  0  0  0  0  0  0
   -0.4080    1.7182    3.1377 H   0  0  0  0  0  0  0  0  0  0  0  0
    0.8670    1.8085    2.0474 H   0  0  0  0  0  0  0  0  0  0  0  0
    0.5346   -0.5603   -3.2698 H   0  0  0  0  0  0  0  0  0  0  0  0
    0.4200    0.9925   -2.4073 H   0  0  0  0  0  0  0  0  0  0  0  0
    0.6310    1.1580   -4.5356 H   0  0  0  0  0  0  0  0  0  0  0  0
    0.6966    2.3648   -6.6791 H   0  0  0  0  0  0  0  0  0  0  0  0
    4.8963    1.3499   -4.2931 H   0  0  0  0  0  0  0  0  0  0  0  0
    6.4486    1.2224   -5.6914 H   0  0  0  0  0  0  0  0  0  0  0  0
    7.2620    2.6652   -6.3433 H   0  0  0  0  0  0  0  0  0  0  0  0
    6.3334    2.7752   -4.8288 H   0  0  0  0  0  0  0  0  0  0  0  0
    1.1054    2.5123   -8.7252 H   0  0  0  0  0  0  0  0  0  0  0  0
    0.9908    4.0651   -7.8627 H   0  0  0  0  0  0  0  0  0  0  0  0
    1.7812    3.9881   -9.4556 H   0  0  0  0  0  0  0  0  0  0  0  0
    0.2529   -2.8960    2.2921 N   0  3  0  0  0  0  0  0  0  0  0  0
    0.2440   -3.8956    2.3198 H   0  0  0  0  0  0  0  0  0  0  0  0
  1  2  1  0  0  0  0
  1 25  1  0  0  0  0
  1 26  1  0  0  0  0
  1 27  1  0  0  0  0
  2  7  2  0  0  0  0
  2  3  1  0  0  0  0
  3  4  2  0  0  0  0
  3 13  1  0  0  0  0
  4  5  1  0  0  0  0
  4 28  1  0  0  0  0
  5  6  2  0  0  0  0
  6  7  1  0  0  0  0
  6 44  1  0  0  0  0
  7  8  1  0  0  0  0
  8  9  2  0  0  0  0
  8 12  1  0  0  0  0
  9 10  1  0  0  0  0
 10 11  1  0  0  0  0
 10 44  2  0  0  0  0
 11 29  1  0  0  0  0
 11 30  1  0  0  0  0
 12 31  1  0  0  0  0
 12 32  1  0  0  0  0
 13 14  1  0  0  0  0
 13 33  1  0  0  0  0
 13 34  1  0  0  0  0
 14 15  1  0  0  0  0
 15 20  2  0  0  0  0
 15 16  1  0  0  0  0
 16 17  2  0  0  0  0
 16 35  1  0  0  0  0
 17 18  1  0  0  0  0
 17 36  1  0  0  0  0
 18 19  2  0  0  0  0
 18 23  1  0  0  0  0
 19 20  1  0  0  0  0
 19 21  1  0  0  0  0
 20 37  1  0  0  0  0
 21 22  1  0  0  0  0
 22 38  1  0  0  0  0
 22 39  1  0  0  0  0
 22 40  1  0  0  0  0
 23 24  1  0  0  0  0
 24 41  1  0  0  0  0
 24 42  1  0  0  0  0
 24 43  1  0  0  0  0
 44 45  1  0  0  0  0
M  CHG  1  44   1
M  END
$$$$
ZINC03815005
  -OEChem-08230709403D

 36 38  0     0  0  0  0  0  0999 V2000
    0.6002    1.5059    0.0247 C   0  0  0  0  0  0  0  0  0  0  0  0
    0.5954   -0.0010    0.0159 C   0  0  0  0  0  0  0  0  0  0  0  0
    0.7562   -0.7002   -1.1519 C   0  0  0  0  0  0  0  0  0  0  0  0
    0.7510   -2.0894   -1.1330 C   0  0  0  0  0  0  0  0  0  0  0  0
    0.5873   -2.7658   -0.0179 N   0  0  0  0  0  0  0  0  0  0  0  0
    0.4217   -2.1439    1.1497 C   0  0  0  0  0  0  0  0  0  0  0  0
    0.4208   -0.7279    1.1990 C   0  0  0  0  0  0  0  0  0  0  0  0
    0.2422   -0.0940    2.4535 C   0  0  0  0  0  0  0  0  0  0  0  0
    0.0840   -0.8573    3.5254 N   0  0  0  0  0  0  0  0  0  0  0  0
    0.0912   -2.1842    3.4358 C   0  0  0  0  0  0  0  0  0  0  0  0
    0.2532   -2.8238    2.2928 N   0  0  0  0  0  0  0  0  0  0  0  0
   -0.0787   -2.9254    4.5895 N   0  0  0  0  0  0  0  0  0  0  0  0
    0.2328    1.2797    2.5563 N   0  0  0  0  0  0  0  0  0  0  0  0
    0.9415    0.0365   -2.4534 C   0  0  0  0  0  0  0  0  0  0  0  0
    2.7095    0.3253   -2.7384 S   0  0  0  0  0  0  0  0  0  0  0  0
    2.7588    1.1833   -4.2766 C   0  0  0  0  0  0  0  0  0  0  0  0
    3.9782    1.5739   -4.8176 C   0  0  0  0  0  0  0  0  0  0  0  0
    4.0138    2.2456   -6.0233 C   0  0  0  0  0  0  0  0  0  0  0  0
    2.8380    2.5305   -6.6933 C   0  0  0  0  0  0  0  0  0  0  0  0
    1.6217    2.1430   -6.1584 C   0  0  0  0  0  0  0  0  0  0  0  0
    1.5793    1.4660   -4.9542 C   0  0  0  0  0  0  0  0  0  0  0  0
    0.1486    2.5024   -7.0037 Cl  0  0  0  0  0  0  0  0  0  0  0  0
    1.5921    1.8645    0.2998 H   0  0  0  0  0  0  0  0  0  0  0  0
    0.3423    1.8759   -0.9676 H   0  0  0  0  0  0  0  0  0  0  0  0
   -0.1304    1.8673    0.7485 H   0  0  0  0  0  0  0  0  0  0  0  0
    0.8826   -2.6280   -2.0598 H   0  0  0  0  0  0  0  0  0  0  0  0
   -0.1998   -2.4766    5.4409 H   0  0  0  0  0  0  0  0  0  0  0  0
   -0.0769   -3.8945    4.5480 H   0  0  0  0  0  0  0  0  0  0  0  0
   -0.4080    1.7182    3.1377 H   0  0  0  0  0  0  0  0  0  0  0  0
    0.8670    1.8085    2.0474 H   0  0  0  0  0  0  0  0  0  0  0  0
    0.5346   -0.5603   -3.2698 H   0  0  0  0  0  0  0  0  0  0  0  0
    0.4200    0.9925   -2.4073 H   0  0  0  0  0  0  0  0  0  0  0  0
    4.8971    1.3517   -4.2954 H   0  0  0  0  0  0  0  0  0  0  0  0
    4.9612    2.5488   -6.4439 H   0  0  0  0  0  0  0  0  0  0  0  0
    2.8689    3.0561   -7.6363 H   0  0  0  0  0  0  0  0  0  0  0  0
    0.6304    1.1604   -4.5387 H   0  0  0  0  0  0  0  0  0  0  0  0
  1  2  1  0  0  0  0
  1 23  1  0  0  0  0
  1 24  1  0  0  0  0
  1 25  1  0  0  0  0
  2  7  2  0  0  0  0
  2  3  1  0  0  0  0
  3  4  2  0  0  0  0
  3 14  1  0  0  0  0
  4  5  1  0  0  0  0
  4 26  1  0  0  0  0
  5  6  2  0  0  0  0
  6 11  1  0  0  0  0
  6  7  1  0  0  0  0
  7  8  1  0  0  0  0
  8  9  2  0  0  0  0
  8 13  1  0  0  0  0
  9 10  1  0  0  0  0
 10 11  2  0  0  0  0
 10 12  1  0  0  0  0
 12 27  1  0  0  0  0
 12 28  1  0  0  0  0
 13 29  1  0  0  0  0
 13 30  1  0  0  0  0
 14 15  1  0  0  0  0
 14 31  1  0  0  0  0
 14 32  1  0  0  0  0
 15 16  1  0  0  0  0
 16 21  2  0  0  0  0
 16 17  1  0  0  0  0
 17 18  2  0  0  0  0
 17 33  1  0  0  0  0
 18 19  1  0  0  0  0
 18 34  1  0  0  0  0
 19 20  2  0  0  0  0
 19 35  1  0  0  0  0
 20 21  1  0  0  0  0
 20 22  1  0  0  0  0
 21 36  1  0  0  0  0
M  END
$$$$
ZINC03815005
  -OEChem-08230709403D

 37 39  0     0  0  0  0  0  0999 V2000
    0.6002    1.5059    0.0247 C   0  0  0  0  0  0  0  0  0  0  0  0
    0.5954   -0.0010    0.0159 C   0  0  0  0  0  0  0  0  0  0  0  0
    0.7562   -0.7002   -1.1519 C   0  0  0  0  0  0  0  0  0  0  0  0
    0.7510   -2.0894   -1.1330 C   0  0  0  0  0  0  0  0  0  0  0  0
    0.5873   -2.7658   -0.0179 N   0  0  0  0  0  0  0  0  0  0  0  0
    0.4217   -2.1439    1.1497 C   0  0  0  0  0  0  0  0  0  0  0  0
    0.4208   -0.7279    1.1990 C   0  0  0  0  0  0  0  0  0  0  0  0
    0.2422   -0.0940    2.4535 C   0  0  0  0  0  0  0  0  0  0  0  0
    0.0840   -0.8573    3.5254 N   0  0  0  0  0  0  0  0  0  0  0  0
    0.0912   -2.1842    3.4358 C   0  0  0  0  0  0  0  0  0  0  0  0
   -0.0787   -2.9254    4.5895 N   0  0  0  0  0  0  0  0  0  0  0  0
    0.2328    1.2797    2.5563 N   0  0  0  0  0  0  0  0  0  0  0  0
    0.9415    0.0365   -2.4534 C   0  0  0  0  0  0  0  0  0  0  0  0
    2.7095    0.3253   -2.7384 S   0  0  0  0  0  0  0  0  0  0  0  0
    2.7588    1.1833   -4.2766 C   0  0  0  0  0  0  0  0  0  0  0  0
    3.9782    1.5739   -4.8176 C   0  0  0  0  0  0  0  0  0  0  0  0
    4.0138    2.2456   -6.0233 C   0  0  0  0  0  0  0  0  0  0  0  0
    2.8380    2.5305   -6.6933 C   0  0  0  0  0  0  0  0  0  0  0  0
    1.6217    2.1430   -6.1584 C   0  0  0  0  0  0  0  0  0  0  0  0
    1.5793    1.4660   -4.9542 C   0  0  0  0  0  0  0  0  0  0  0  0
    0.1486    2.5024   -7.0037 Cl  0  0  0  0  0  0  0  0  0  0  0  0
    1.5921    1.8645    0.2998 H   0  0  0  0  0  0  0  0  0  0  0  0
    0.3423    1.8759   -0.9676 H   0  0  0  0  0  0  0  0  0  0  0  0
   -0.1304    1.8673    0.7485 H   0  0  0  0  0  0  0  0  0  0  0  0
    0.8826   -2.6280   -2.0598 H   0  0  0  0  0  0  0  0  0  0  0  0
   -0.1998   -2.4766    5.4409 H   0  0  0  0  0  0  0  0  0  0  0  0
   -0.0769   -3.8945    4.5480 H   0  0  0  0  0  0  0  0  0  0  0  0
   -0.4080    1.7182    3.1377 H   0  0  0  0  0  0  0  0  0  0  0  0
    0.8670    1.8085    2.0474 H   0  0  0  0  0  0  0  0  0  0  0  0
    0.5346   -0.5603   -3.2698 H   0  0  0  0  0  0  0  0  0  0  0  0
    0.4200    0.9925   -2.4073 H   0  0  0  0  0  0  0  0  0  0  0  0
    4.8971    1.3517   -4.2954 H   0  0  0  0  0  0  0  0  0  0  0  0
    4.9612    2.5488   -6.4439 H   0  0  0  0  0  0  0  0  0  0  0  0
    2.8689    3.0561   -7.6363 H   0  0  0  0  0  0  0  0  0  0  0  0
    0.6304    1.1604   -4.5387 H   0  0  0  0  0  0  0  0  0  0  0  0
    0.2529   -2.8960    2.2921 N   0  3  0  0  0  0  0  0  0  0  0  0
    0.2440   -3.8956    2.3198 H   0  0  0  0  0  0  0  0  0  0  0  0
  1  2  1  0  0  0  0
  1 22  1  0  0  0  0
  1 23  1  0  0  0  0
  1 24  1  0  0  0  0
  2  7  2  0  0  0  0
  2  3  1  0  0  0  0
  3  4  2  0  0  0  0
  3 13  1  0  0  0  0
  4  5  1  0  0  0  0
  4 25  1  0  0  0  0
  5  6  2  0  0  0  0
  6  7  1  0  0  0  0
  6 36  1  0  0  0  0
  7  8  1  0  0  0  0
  8  9  2  0  0  0  0
  8 12  1  0  0  0  0
  9 10  1  0  0  0  0
 10 11  1  0  0  0  0
 10 36  2  0  0  0  0
 11 26  1  0  0  0  0
 11 27  1  0  0  0  0
 12 28  1  0  0  0  0
 12 29  1  0  0  0  0
 13 14  1  0  0  0  0
 13 30  1  0  0  0  0
 13 31  1  0  0  0  0
 14 15  1  0  0  0  0
 15 20  2  0  0  0  0
 15 16  1  0  0  0  0
 16 17  2  0  0  0  0
 16 32  1  0  0  0  0
 17 18  1  0  0  0  0
 17 33  1  0  0  0  0
 18 19  2  0  0  0  0
 18 34  1  0  0  0  0
 19 20  1  0  0  0  0
 19 21  1  0  0  0  0
 20 35  1  0  0  0  0
 36 37  1  0  0  0  0
M  CHG  1  36   1
M  END
$$$$
ZINC03815006
  -OEChem-08230709403D

 36 38  0     0  0  0  0  0  0999 V2000
    4.2328   -4.3815   -2.6638 C   0  0  0  0  0  0  0  0  0  0  0  0
    4.2815   -5.1106   -1.3458 C   0  0  0  0  0  0  0  0  0  0  0  0
    4.4319   -4.4278   -0.1670 C   0  0  0  0  0  0  0  0  0  0  0  0
    4.4801   -5.1238    1.0344 C   0  0  0  0  0  0  0  0  0  0  0  0
    4.3737   -6.4331    1.0806 N   0  0  0  0  0  0  0  0  0  0  0  0
    4.2258   -7.1540   -0.0310 C   0  0  0  0  0  0  0  0  0  0  0  0
    4.1751   -6.5049   -1.2894 C   0  0  0  0  0  0  0  0  0  0  0  0
    4.0168   -7.2964   -2.4539 C   0  0  0  0  0  0  0  0  0  0  0  0
    3.9233   -8.6108   -2.3113 N   0  0  0  0  0  0  0  0  0  0  0  0
    3.9756   -9.1809   -1.1109 C   0  0  0  0  0  0  0  0  0  0  0  0
    4.1218   -8.4902    0.0041 N   0  0  0  0  0  0  0  0  0  0  0  0
    3.8728  -10.5564   -1.0276 N   0  0  0  0  0  0  0  0  0  0  0  0
    3.9620   -6.7151   -3.7016 N   0  0  0  0  0  0  0  0  0  0  0  0
    4.5508   -2.9255   -0.1746 C   0  0  0  0  0  0  0  0  0  0  0  0
    2.8993   -2.1875   -0.0393 S   0  0  0  0  0  0  0  0  0  0  0  0
    3.2046   -0.4523   -0.0617 C   0  0  0  0  0  0  0  0  0  0  0  0
    2.1449    0.4423    0.0257 C   0  0  0  0  0  0  0  0  0  0  0  0
    2.3873    1.8015    0.0075 C   0  0  0  0  0  0  0  0  0  0  0  0
    3.6842    2.2732   -0.0978 C   0  0  0  0  0  0  0  0  0  0  0  0
    4.7417    1.3847   -0.1851 C   0  0  0  0  0  0  0  0  0  0  0  0
    4.5056    0.0243   -0.1673 C   0  0  0  0  0  0  0  0  0  0  0  0
    3.9850    3.9828   -0.1204 Cl  0  0  0  0  0  0  0  0  0  0  0  0
    5.2199   -4.3993   -3.1256 H   0  0  0  0  0  0  0  0  0  0  0  0
    3.5146   -4.8696   -3.3226 H   0  0  0  0  0  0  0  0  0  0  0  0
    3.9285   -3.3483   -2.4965 H   0  0  0  0  0  0  0  0  0  0  0  0
    4.6038   -4.5738    1.9557 H   0  0  0  0  0  0  0  0  0  0  0  0
    3.7651  -11.0844   -1.8341 H   0  0  0  0  0  0  0  0  0  0  0  0
    3.9083  -10.9938   -0.1626 H   0  0  0  0  0  0  0  0  0  0  0  0
    4.5594   -5.9834   -3.9224 H   0  0  0  0  0  0  0  0  0  0  0  0
    3.3261   -7.0374   -4.3593 H   0  0  0  0  0  0  0  0  0  0  0  0
    5.0179   -2.6027   -1.1051 H   0  0  0  0  0  0  0  0  0  0  0  0
    5.1622   -2.6052    0.6690 H   0  0  0  0  0  0  0  0  0  0  0  0
    1.1327    0.0748    0.1083 H   0  0  0  0  0  0  0  0  0  0  0  0
    1.5637    2.4973    0.0709 H   0  0  0  0  0  0  0  0  0  0  0  0
    5.7527    1.7558   -0.2668 H   0  0  0  0  0  0  0  0  0  0  0  0
    5.3313   -0.6685   -0.2351 H   0  0  0  0  0  0  0  0  0  0  0  0
  1  2  1  0  0  0  0
  1 23  1  0  0  0  0
  1 24  1  0  0  0  0
  1 25  1  0  0  0  0
  2  7  2  0  0  0  0
  2  3  1  0  0  0  0
  3  4  2  0  0  0  0
  3 14  1  0  0  0  0
  4  5  1  0  0  0  0
  4 26  1  0  0  0  0
  5  6  2  0  0  0  0
  6 11  1  0  0  0  0
  6  7  1  0  0  0  0
  7  8  1  0  0  0  0
  8  9  2  0  0  0  0
  8 13  1  0  0  0  0
  9 10  1  0  0  0  0
 10 11  2  0  0  0  0
 10 12  1  0  0  0  0
 12 27  1  0  0  0  0
 12 28  1  0  0  0  0
 13 29  1  0  0  0  0
 13 30  1  0  0  0  0
 14 15  1  0  0  0  0
 14 31  1  0  0  0  0
 14 32  1  0  0  0  0
 15 16  1  0  0  0  0
 16 21  2  0  0  0  0
 16 17  1  0  0  0  0
 17 18  2  0  0  0  0
 17 33  1  0  0  0  0
 18 19  1  0  0  0  0
 18 34  1  0  0  0  0
 19 20  2  0  0  0  0
 19 22  1  0  0  0  0
 20 21  1  0  0  0  0
 20 35  1  0  0  0  0
 21 36  1  0  0  0  0
M  END
$$$$
ZINC03815006
  -OEChem-08230709403D

 37 39  0     0  0  0  0  0  0999 V2000
    4.2328   -4.3815   -2.6638 C   0  0  0  0  0  0  0  0  0  0  0  0
    4.2815   -5.1106   -1.3458 C   0  0  0  0  0  0  0  0  0  0  0  0
    4.4319   -4.4278   -0.1670 C   0  0  0  0  0  0  0  0  0  0  0  0
    4.4801   -5.1238    1.0344 C   0  0  0  0  0  0  0  0  0  0  0  0
    4.3737   -6.4331    1.0806 N   0  0  0  0  0  0  0  0  0  0  0  0
    4.2258   -7.1540   -0.0310 C   0  0  0  0  0  0  0  0  0  0  0  0
    4.1751   -6.5049   -1.2894 C   0  0  0  0  0  0  0  0  0  0  0  0
    4.0168   -7.2964   -2.4539 C   0  0  0  0  0  0  0  0  0  0  0  0
    3.9233   -8.6108   -2.3113 N   0  0  0  0  0  0  0  0  0  0  0  0
    3.9756   -9.1809   -1.1109 C   0  0  0  0  0  0  0  0  0  0  0  0
    3.8728  -10.5564   -1.0276 N   0  0  0  0  0  0  0  0  0  0  0  0
    3.9620   -6.7151   -3.7016 N   0  0  0  0  0  0  0  0  0  0  0  0
    4.5508   -2.9255   -0.1746 C   0  0  0  0  0  0  0  0  0  0  0  0
    2.8993   -2.1875   -0.0393 S   0  0  0  0  0  0  0  0  0  0  0  0
    3.2046   -0.4523   -0.0617 C   0  0  0  0  0  0  0  0  0  0  0  0
    2.1449    0.4423    0.0257 C   0  0  0  0  0  0  0  0  0  0  0  0
    2.3873    1.8015    0.0075 C   0  0  0  0  0  0  0  0  0  0  0  0
    3.6842    2.2732   -0.0978 C   0  0  0  0  0  0  0  0  0  0  0  0
    4.7417    1.3847   -0.1851 C   0  0  0  0  0  0  0  0  0  0  0  0
    4.5056    0.0243   -0.1673 C   0  0  0  0  0  0  0  0  0  0  0  0
    3.9850    3.9828   -0.1204 Cl  0  0  0  0  0  0  0  0  0  0  0  0
    5.2199   -4.3993   -3.1256 H   0  0  0  0  0  0  0  0  0  0  0  0
    3.5146   -4.8696   -3.3226 H   0  0  0  0  0  0  0  0  0  0  0  0
    3.9285   -3.3483   -2.4965 H   0  0  0  0  0  0  0  0  0  0  0  0
    4.6038   -4.5738    1.9557 H   0  0  0  0  0  0  0  0  0  0  0  0
    3.7651  -11.0844   -1.8341 H   0  0  0  0  0  0  0  0  0  0  0  0
    3.9083  -10.9938   -0.1626 H   0  0  0  0  0  0  0  0  0  0  0  0
    4.5594   -5.9834   -3.9224 H   0  0  0  0  0  0  0  0  0  0  0  0
    3.3261   -7.0374   -4.3593 H   0  0  0  0  0  0  0  0  0  0  0  0
    5.0179   -2.6027   -1.1051 H   0  0  0  0  0  0  0  0  0  0  0  0
    5.1622   -2.6052    0.6690 H   0  0  0  0  0  0  0  0  0  0  0  0
    1.1327    0.0748    0.1083 H   0  0  0  0  0  0  0  0  0  0  0  0
    1.5637    2.4973    0.0709 H   0  0  0  0  0  0  0  0  0  0  0  0
    5.7527    1.7558   -0.2668 H   0  0  0  0  0  0  0  0  0  0  0  0
    5.3313   -0.6685   -0.2351 H   0  0  0  0  0  0  0  0  0  0  0  0
    4.1242   -8.5249    0.0674 N   0  3  0  0  0  0  0  0  0  0  0  0
    4.1531   -9.0381    0.9252 H   0  0  0  0  0  0  0  0  0  0  0  0
  1  2  1  0  0  0  0
  1 22  1  0  0  0  0
  1 23  1  0  0  0  0
  1 24  1  0  0  0  0
  2  7  2  0  0  0  0
  2  3  1  0  0  0  0
  3  4  2  0  0  0  0
  3 13  1  0  0  0  0
  4  5  1  0  0  0  0
  4 25  1  0  0  0  0
  5  6  2  0  0  0  0
  6  7  1  0  0  0  0
  6 36  1  0  0  0  0
  7  8  1  0  0  0  0
  8  9  2  0  0  0  0
  8 12  1  0  0  0  0
  9 10  1  0  0  0  0
 10 11  1  0  0  0  0
 10 36  2  0  0  0  0
 11 26  1  0  0  0  0
 11 27  1  0  0  0  0
 12 28  1  0  0  0  0
 12 29  1  0  0  0  0
 13 14  1  0  0  0  0
 13 30  1  0  0  0  0
 13 31  1  0  0  0  0
 14 15  1  0  0  0  0
 15 20  2  0  0  0  0
 15 16  1  0  0  0  0
 16 17  2  0  0  0  0
 16 32  1  0  0  0  0
 17 18  1  0  0  0  0
 17 33  1  0  0  0  0
 18 19  2  0  0  0  0
 18 21  1  0  0  0  0
 19 20  1  0  0  0  0
 19 34  1  0  0  0  0
 20 35  1  0  0  0  0
 36 37  1  0  0  0  0
M  CHG  1  36   1
M  END
$$$$
ZINC03815008
  -OEChem-08230709403D

 44 46  0     0  0  0  0  0  0999 V2000
    3.2315    3.1773   -2.4315 C   0  0  0  0  0  0  0  0  0  0  0  0
    2.9838    2.4865   -3.7477 C   0  0  0  0  0  0  0  0  0  0  0  0
    3.1898    3.1653   -4.9346 C   0  0  0  0  0  0  0  0  0  0  0  0
    2.9632    2.5348   -6.1435 C   0  0  0  0  0  0  0  0  0  0  0  0
    2.5291    1.2217   -6.1724 C   0  0  0  0  0  0  0  0  0  0  0  0
    2.3255    0.5333   -4.9884 C   0  0  0  0  0  0  0  0  0  0  0  0
    2.5487    1.1698   -3.7690 C   0  0  0  0  0  0  0  0  0  0  0  0
    2.3399    0.4804   -2.5690 N   0  0  0  0  0  0  0  0  0  0  0  0
    0.9443    0.0367   -2.4527 C   0  0  0  0  0  0  0  0  0  0  0  0
    0.7582   -0.7000   -1.1512 C   0  0  0  0  0  0  0  0  0  0  0  0
    0.7546   -2.0896   -1.1322 C   0  0  0  0  0  0  0  0  0  0  0  0
    0.5895   -2.7660   -0.0176 N   0  0  0  0  0  0  0  0  0  0  0  0
    0.4224   -2.1441    1.1501 C   0  0  0  0  0  0  0  0  0  0  0  0
    0.4214   -0.7281    1.1994 C   0  0  0  0  0  0  0  0  0  0  0  0
    0.5968   -0.0010    0.0161 C   0  0  0  0  0  0  0  0  0  0  0  0
    0.6016    1.5059    0.0250 C   0  0  0  0  0  0  0  0  0  0  0  0
    0.2422   -0.0944    2.4535 C   0  0  0  0  0  0  0  0  0  0  0  0
    0.0833   -0.8578    3.5256 N   0  0  0  0  0  0  0  0  0  0  0  0
    0.0905   -2.1844    3.4359 C   0  0  0  0  0  0  0  0  0  0  0  0
    0.2532   -2.8240    2.2927 N   0  0  0  0  0  0  0  0  0  0  0  0
   -0.0800   -2.9256    4.5895 N   0  0  0  0  0  0  0  0  0  0  0  0
    0.2328    1.2794    2.5563 N   0  0  0  0  0  0  0  0  0  0  0  0
    1.9041   -0.7596   -5.0154 O   0  0  0  0  0  0  0  0  0  0  0  0
    1.6959   -1.3474   -6.3012 C   0  0  0  0  0  0  0  0  0  0  0  0
    4.2670    3.0217   -2.1287 H   0  0  0  0  0  0  0  0  0  0  0  0
    3.0413    4.2451   -2.5402 H   0  0  0  0  0  0  0  0  0  0  0  0
    2.5654    2.7649   -1.6737 H   0  0  0  0  0  0  0  0  0  0  0  0
    3.5283    4.1907   -4.9169 H   0  0  0  0  0  0  0  0  0  0  0  0
    3.1250    3.0690   -7.0681 H   0  0  0  0  0  0  0  0  0  0  0  0
    2.3526    0.7322   -7.1187 H   0  0  0  0  0  0  0  0  0  0  0  0
    2.6071    1.0448   -1.7764 H   0  0  0  0  0  0  0  0  0  0  0  0
    0.7036   -0.6267   -3.2834 H   0  0  0  0  0  0  0  0  0  0  0  0
    0.2842    0.9038   -2.4770 H   0  0  0  0  0  0  0  0  0  0  0  0
    0.8874   -2.6282   -2.0588 H   0  0  0  0  0  0  0  0  0  0  0  0
    1.5930    1.8644    0.3019 H   0  0  0  0  0  0  0  0  0  0  0  0
    0.3457    1.8759   -0.9679 H   0  0  0  0  0  0  0  0  0  0  0  0
   -0.1303    1.8673    0.7473 H   0  0  0  0  0  0  0  0  0  0  0  0
   -0.2016   -2.4769    5.4409 H   0  0  0  0  0  0  0  0  0  0  0  0
   -0.0782   -3.8947    4.5480 H   0  0  0  0  0  0  0  0  0  0  0  0
   -0.4080    1.7178    3.1376 H   0  0  0  0  0  0  0  0  0  0  0  0
    0.8670    1.8081    2.0473 H   0  0  0  0  0  0  0  0  0  0  0  0
    1.3620   -2.3778   -6.1799 H   0  0  0  0  0  0  0  0  0  0  0  0
    0.9374   -0.7807   -6.8412 H   0  0  0  0  0  0  0  0  0  0  0  0
    2.6297   -1.3319   -6.8633 H   0  0  0  0  0  0  0  0  0  0  0  0
  1  2  1  0  0  0  0
  1 25  1  0  0  0  0
  1 26  1  0  0  0  0
  1 27  1  0  0  0  0
  2  7  2  0  0  0  0
  2  3  1  0  0  0  0
  3  4  2  0  0  0  0
  3 28  1  0  0  0  0
  4  5  1  0  0  0  0
  4 29  1  0  0  0  0
  5  6  2  0  0  0  0
  5 30  1  0  0  0  0
  6  7  1  0  0  0  0
  6 23  1  0  0  0  0
  7  8  1  0  0  0  0
  8  9  1  0  0  0  0
  8 31  1  0  0  0  0
  9 10  1  0  0  0  0
  9 32  1  0  0  0  0
  9 33  1  0  0  0  0
 10 15  2  0  0  0  0
 10 11  1  0  0  0  0
 11 12  2  0  0  0  0
 11 34  1  0  0  0  0
 12 13  1  0  0  0  0
 13 20  2  0  0  0  0
 13 14  1  0  0  0  0
 14 15  1  0  0  0  0
 14 17  2  0  0  0  0
 15 16  1  0  0  0  0
 16 35  1  0  0  0  0
 16 36  1  0  0  0  0
 16 37  1  0  0  0  0
 17 18  1  0  0  0  0
 17 22  1  0  0  0  0
 18 19  2  0  0  0  0
 19 20  1  0  0  0  0
 19 21  1  0  0  0  0
 21 38  1  0  0  0  0
 21 39  1  0  0  0  0
 22 40  1  0  0  0  0
 22 41  1  0  0  0  0
 23 24  1  0  0  0  0
 24 42  1  0  0  0  0
 24 43  1  0  0  0  0
 24 44  1  0  0  0  0
M  END
$$$$
ZINC03815008
  -OEChem-08230709403D

 45 47  0     0  0  0  0  0  0999 V2000
    3.2315    3.1773   -2.4315 C   0  0  0  0  0  0  0  0  0  0  0  0
    2.9838    2.4865   -3.7477 C   0  0  0  0  0  0  0  0  0  0  0  0
    3.1898    3.1653   -4.9346 C   0  0  0  0  0  0  0  0  0  0  0  0
    2.9632    2.5348   -6.1435 C   0  0  0  0  0  0  0  0  0  0  0  0
    2.5291    1.2217   -6.1724 C   0  0  0  0  0  0  0  0  0  0  0  0
    2.3255    0.5333   -4.9884 C   0  0  0  0  0  0  0  0  0  0  0  0
    2.5487    1.1698   -3.7690 C   0  0  0  0  0  0  0  0  0  0  0  0
    2.3399    0.4804   -2.5690 N   0  0  0  0  0  0  0  0  0  0  0  0
    0.9443    0.0367   -2.4527 C   0  0  0  0  0  0  0  0  0  0  0  0
    0.7582   -0.7000   -1.1512 C   0  0  0  0  0  0  0  0  0  0  0  0
    0.7546   -2.0896   -1.1322 C   0  0  0  0  0  0  0  0  0  0  0  0
    0.5895   -2.7660   -0.0176 N   0  0  0  0  0  0  0  0  0  0  0  0
    0.4224   -2.1441    1.1501 C   0  0  0  0  0  0  0  0  0  0  0  0
    0.4214   -0.7281    1.1994 C   0  0  0  0  0  0  0  0  0  0  0  0
    0.5968   -0.0010    0.0161 C   0  0  0  0  0  0  0  0  0  0  0  0
    0.6016    1.5059    0.0250 C   0  0  0  0  0  0  0  0  0  0  0  0
    0.2422   -0.0944    2.4535 C   0  0  0  0  0  0  0  0  0  0  0  0
    0.0833   -0.8578    3.5256 N   0  0  0  0  0  0  0  0  0  0  0  0
    0.0905   -2.1844    3.4359 C   0  0  0  0  0  0  0  0  0  0  0  0
   -0.0800   -2.9256    4.5895 N   0  0  0  0  0  0  0  0  0  0  0  0
    0.2328    1.2794    2.5563 N   0  0  0  0  0  0  0  0  0  0  0  0
    1.9041   -0.7596   -5.0154 O   0  0  0  0  0  0  0  0  0  0  0  0
    1.6959   -1.3474   -6.3012 C   0  0  0  0  0  0  0  0  0  0  0  0
    4.2670    3.0217   -2.1287 H   0  0  0  0  0  0  0  0  0  0  0  0
    3.0413    4.2451   -2.5402 H   0  0  0  0  0  0  0  0  0  0  0  0
    2.5654    2.7649   -1.6737 H   0  0  0  0  0  0  0  0  0  0  0  0
    3.5283    4.1907   -4.9169 H   0  0  0  0  0  0  0  0  0  0  0  0
    3.1250    3.0690   -7.0681 H   0  0  0  0  0  0  0  0  0  0  0  0
    2.3526    0.7322   -7.1187 H   0  0  0  0  0  0  0  0  0  0  0  0
    2.6071    1.0448   -1.7764 H   0  0  0  0  0  0  0  0  0  0  0  0
    0.7036   -0.6267   -3.2834 H   0  0  0  0  0  0  0  0  0  0  0  0
    0.2842    0.9038   -2.4770 H   0  0  0  0  0  0  0  0  0  0  0  0
    0.8874   -2.6282   -2.0588 H   0  0  0  0  0  0  0  0  0  0  0  0
    1.5930    1.8644    0.3019 H   0  0  0  0  0  0  0  0  0  0  0  0
    0.3457    1.8759   -0.9679 H   0  0  0  0  0  0  0  0  0  0  0  0
   -0.1303    1.8673    0.7473 H   0  0  0  0  0  0  0  0  0  0  0  0
   -0.2016   -2.4769    5.4409 H   0  0  0  0  0  0  0  0  0  0  0  0
   -0.0782   -3.8947    4.5480 H   0  0  0  0  0  0  0  0  0  0  0  0
   -0.4080    1.7178    3.1376 H   0  0  0  0  0  0  0  0  0  0  0  0
    0.8670    1.8081    2.0473 H   0  0  0  0  0  0  0  0  0  0  0  0
    1.3620   -2.3778   -6.1799 H   0  0  0  0  0  0  0  0  0  0  0  0
    0.9374   -0.7807   -6.8412 H   0  0  0  0  0  0  0  0  0  0  0  0
    2.6297   -1.3319   -6.8633 H   0  0  0  0  0  0  0  0  0  0  0  0
    0.2529   -2.8962    2.2920 N   0  3  0  0  0  0  0  0  0  0  0  0
    0.2558   -3.8947    2.2380 H   0  0  0  0  0  0  0  0  0  0  0  0
  1  2  1  0  0  0  0
  1 24  1  0  0  0  0
  1 25  1  0  0  0  0
  1 26  1  0  0  0  0
  2  7  2  0  0  0  0
  2  3  1  0  0  0  0
  3  4  2  0  0  0  0
  3 27  1  0  0  0  0
  4  5  1  0  0  0  0
  4 28  1  0  0  0  0
  5  6  2  0  0  0  0
  5 29  1  0  0  0  0
  6  7  1  0  0  0  0
  6 22  1  0  0  0  0
  7  8  1  0  0  0  0
  8  9  1  0  0  0  0
  8 30  1  0  0  0  0
  9 10  1  0  0  0  0
  9 31  1  0  0  0  0
  9 32  1  0  0  0  0
 10 15  2  0  0  0  0
 10 11  1  0  0  0  0
 11 12  2  0  0  0  0
 11 33  1  0  0  0  0
 12 13  1  0  0  0  0
 13 14  2  0  0  0  0
 13 44  1  0  0  0  0
 14 15  1  0  0  0  0
 14 17  1  0  0  0  0
 15 16  1  0  0  0  0
 16 34  1  0  0  0  0
 16 35  1  0  0  0  0
 16 36  1  0  0  0  0
 17 18  2  0  0  0  0
 17 21  1  0  0  0  0
 18 19  1  0  0  0  0
 19 20  1  0  0  0  0
 19 44  2  0  0  0  0
 20 37  1  0  0  0  0
 20 38  1  0  0  0  0
 21 39  1  0  0  0  0
 21 40  1  0  0  0  0
 22 23  1  0  0  0  0
 23 41  1  0  0  0  0
 23 42  1  0  0  0  0
 23 43  1  0  0  0  0
 44 45  1  0  0  0  0
M  CHG  1  44   1
M  END
$$$$
ZINC03815010
  -OEChem-08230709403D

 44 46  0     0  0  0  0  0  0999 V2000
    0.6018    1.5059    0.0250 C   0  0  0  0  0  0  0  0  0  0  0  0
    0.5970   -0.0011    0.0161 C   0  0  0  0  0  0  0  0  0  0  0  0
    0.7585   -0.7002   -1.1515 C   0  0  0  0  0  0  0  0  0  0  0  0
    0.7532   -2.0894   -1.1326 C   0  0  0  0  0  0  0  0  0  0  0  0
    0.5888   -2.7658   -0.0176 N   0  0  0  0  0  0  0  0  0  0  0  0
    0.4225   -2.1439    1.1498 C   0  0  0  0  0  0  0  0  0  0  0  0
    0.4215   -0.7279    1.1991 C   0  0  0  0  0  0  0  0  0  0  0  0
    0.2422   -0.0940    2.4535 C   0  0  0  0  0  0  0  0  0  0  0  0
    0.0832   -0.8573    3.5253 N   0  0  0  0  0  0  0  0  0  0  0  0
    0.0905   -2.1842    3.4357 C   0  0  0  0  0  0  0  0  0  0  0  0
    0.2532   -2.8238    2.2928 N   0  0  0  0  0  0  0  0  0  0  0  0
   -0.0802   -2.9254    4.5893 N   0  0  0  0  0  0  0  0  0  0  0  0
    0.2328    1.2797    2.5563 N   0  0  0  0  0  0  0  0  0  0  0  0
    0.9447    0.0365   -2.4530 C   0  0  0  0  0  0  0  0  0  0  0  0
    2.3364    0.4790   -2.5689 N   0  0  0  0  0  0  0  0  0  0  0  0
    2.7521    1.1878   -3.6982 C   0  0  0  0  0  0  0  0  0  0  0  0
    4.0721    1.6081   -3.8092 C   0  0  0  0  0  0  0  0  0  0  0  0
    4.4828    2.3095   -4.9259 C   0  0  0  0  0  0  0  0  0  0  0  0
    3.5829    2.5953   -5.9353 C   0  0  0  0  0  0  0  0  0  0  0  0
    2.2637    2.1778   -5.8303 C   0  0  0  0  0  0  0  0  0  0  0  0
    1.8488    1.4687   -4.7139 C   0  0  0  0  0  0  0  0  0  0  0  0
    1.3802    2.4597   -6.8237 O   0  0  0  0  0  0  0  0  0  0  0  0
    1.8782    3.1892   -7.9470 C   0  0  0  0  0  0  0  0  0  0  0  0
    5.9146    2.7645   -5.0436 C   0  0  0  0  0  0  0  0  0  0  0  0
    6.6688    1.7715   -5.6778 F   0  0  0  0  0  0  0  0  0  0  0  0
    5.9690    3.9430   -5.7955 F   0  0  0  0  0  0  0  0  0  0  0  0
    6.4351    3.0014   -3.7669 F   0  0  0  0  0  0  0  0  0  0  0  0
    1.5932    1.8644    0.3020 H   0  0  0  0  0  0  0  0  0  0  0  0
    0.3459    1.8759   -0.9678 H   0  0  0  0  0  0  0  0  0  0  0  0
   -0.1301    1.8674    0.7473 H   0  0  0  0  0  0  0  0  0  0  0  0
    0.8854   -2.6280   -2.0594 H   0  0  0  0  0  0  0  0  0  0  0  0
   -0.2018   -2.4766    5.4406 H   0  0  0  0  0  0  0  0  0  0  0  0
   -0.0784   -3.8945    4.5478 H   0  0  0  0  0  0  0  0  0  0  0  0
   -0.4080    1.7182    3.1377 H   0  0  0  0  0  0  0  0  0  0  0  0
    0.8670    1.8085    2.0474 H   0  0  0  0  0  0  0  0  0  0  0  0
    0.7040   -0.6270   -3.2836 H   0  0  0  0  0  0  0  0  0  0  0  0
    0.2845    0.9035   -2.4774 H   0  0  0  0  0  0  0  0  0  0  0  0
    2.9693    0.2796   -1.8613 H   0  0  0  0  0  0  0  0  0  0  0  0
    4.7771    1.3863   -3.0217 H   0  0  0  0  0  0  0  0  0  0  0  0
    3.9070    3.1445   -6.8070 H   0  0  0  0  0  0  0  0  0  0  0  0
    0.8235    1.1391   -4.6325 H   0  0  0  0  0  0  0  0  0  0  0  0
    1.0726    3.3466   -8.6642 H   0  0  0  0  0  0  0  0  0  0  0  0
    2.2611    4.1536   -7.6132 H   0  0  0  0  0  0  0  0  0  0  0  0
    2.6808    2.6238   -8.4206 H   0  0  0  0  0  0  0  0  0  0  0  0
  1  2  1  0  0  0  0
  1 28  1  0  0  0  0
  1 29  1  0  0  0  0
  1 30  1  0  0  0  0
  2  7  2  0  0  0  0
  2  3  1  0  0  0  0
  3  4  2  0  0  0  0
  3 14  1  0  0  0  0
  4  5  1  0  0  0  0
  4 31  1  0  0  0  0
  5  6  2  0  0  0  0
  6 11  1  0  0  0  0
  6  7  1  0  0  0  0
  7  8  1  0  0  0  0
  8  9  2  0  0  0  0
  8 13  1  0  0  0  0
  9 10  1  0  0  0  0
 10 11  2  0  0  0  0
 10 12  1  0  0  0  0
 12 32  1  0  0  0  0
 12 33  1  0  0  0  0
 13 34  1  0  0  0  0
 13 35  1  0  0  0  0
 14 15  1  0  0  0  0
 14 36  1  0  0  0  0
 14 37  1  0  0  0  0
 15 16  1  0  0  0  0
 15 38  1  0  0  0  0
 16 21  2  0  0  0  0
 16 17  1  0  0  0  0
 17 18  2  0  0  0  0
 17 39  1  0  0  0  0
 18 19  1  0  0  0  0
 18 24  1  0  0  0  0
 19 20  2  0  0  0  0
 19 40  1  0  0  0  0
 20 21  1  0  0  0  0
 20 22  1  0  0  0  0
 21 41  1  0  0  0  0
 22 23  1  0  0  0  0
 23 42  1  0  0  0  0
 23 43  1  0  0  0  0
 23 44  1  0  0  0  0
 24 25  1  0  0  0  0
 24 26  1  0  0  0  0
 24 27  1  0  0  0  0
M  END
$$$$
ZINC03815010
  -OEChem-08230709403D

 45 47  0     0  0  0  0  0  0999 V2000
    0.6018    1.5059    0.0250 C   0  0  0  0  0  0  0  0  0  0  0  0
    0.5970   -0.0011    0.0161 C   0  0  0  0  0  0  0  0  0  0  0  0
    0.7585   -0.7002   -1.1515 C   0  0  0  0  0  0  0  0  0  0  0  0
    0.7532   -2.0894   -1.1326 C   0  0  0  0  0  0  0  0  0  0  0  0
    0.5888   -2.7658   -0.0176 N   0  0  0  0  0  0  0  0  0  0  0  0
    0.4225   -2.1439    1.1498 C   0  0  0  0  0  0  0  0  0  0  0  0
    0.4215   -0.7279    1.1991 C   0  0  0  0  0  0  0  0  0  0  0  0
    0.2422   -0.0940    2.4535 C   0  0  0  0  0  0  0  0  0  0  0  0
    0.0832   -0.8573    3.5253 N   0  0  0  0  0  0  0  0  0  0  0  0
    0.0905   -2.1842    3.4357 C   0  0  0  0  0  0  0  0  0  0  0  0
   -0.0802   -2.9254    4.5893 N   0  0  0  0  0  0  0  0  0  0  0  0
    0.2328    1.2797    2.5563 N   0  0  0  0  0  0  0  0  0  0  0  0
    0.9447    0.0365   -2.4530 C   0  0  0  0  0  0  0  0  0  0  0  0
    2.3364    0.4790   -2.5689 N   0  0  0  0  0  0  0  0  0  0  0  0
    2.7521    1.1878   -3.6982 C   0  0  0  0  0  0  0  0  0  0  0  0
    4.0721    1.6081   -3.8092 C   0  0  0  0  0  0  0  0  0  0  0  0
    4.4828    2.3095   -4.9259 C   0  0  0  0  0  0  0  0  0  0  0  0
    3.5829    2.5953   -5.9353 C   0  0  0  0  0  0  0  0  0  0  0  0
    2.2637    2.1778   -5.8303 C   0  0  0  0  0  0  0  0  0  0  0  0
    1.8488    1.4687   -4.7139 C   0  0  0  0  0  0  0  0  0  0  0  0
    1.3802    2.4597   -6.8237 O   0  0  0  0  0  0  0  0  0  0  0  0
    1.8782    3.1892   -7.9470 C   0  0  0  0  0  0  0  0  0  0  0  0
    5.9146    2.7645   -5.0436 C   0  0  0  0  0  0  0  0  0  0  0  0
    6.6688    1.7715   -5.6778 F   0  0  0  0  0  0  0  0  0  0  0  0
    5.9690    3.9430   -5.7955 F   0  0  0  0  0  0  0  0  0  0  0  0
    6.4351    3.0014   -3.7669 F   0  0  0  0  0  0  0  0  0  0  0  0
    1.5932    1.8644    0.3020 H   0  0  0  0  0  0  0  0  0  0  0  0
    0.3459    1.8759   -0.9678 H   0  0  0  0  0  0  0  0  0  0  0  0
   -0.1301    1.8674    0.7473 H   0  0  0  0  0  0  0  0  0  0  0  0
    0.8854   -2.6280   -2.0594 H   0  0  0  0  0  0  0  0  0  0  0  0
   -0.2018   -2.4766    5.4406 H   0  0  0  0  0  0  0  0  0  0  0  0
   -0.0784   -3.8945    4.5478 H   0  0  0  0  0  0  0  0  0  0  0  0
   -0.4080    1.7182    3.1377 H   0  0  0  0  0  0  0  0  0  0  0  0
    0.8670    1.8085    2.0474 H   0  0  0  0  0  0  0  0  0  0  0  0
    0.7040   -0.6270   -3.2836 H   0  0  0  0  0  0  0  0  0  0  0  0
    0.2845    0.9035   -2.4774 H   0  0  0  0  0  0  0  0  0  0  0  0
    2.9693    0.2796   -1.8613 H   0  0  0  0  0  0  0  0  0  0  0  0
    4.7771    1.3863   -3.0217 H   0  0  0  0  0  0  0  0  0  0  0  0
    3.9070    3.1445   -6.8070 H   0  0  0  0  0  0  0  0  0  0  0  0
    0.8235    1.1391   -4.6325 H   0  0  0  0  0  0  0  0  0  0  0  0
    1.0726    3.3466   -8.6642 H   0  0  0  0  0  0  0  0  0  0  0  0
    2.2611    4.1536   -7.6132 H   0  0  0  0  0  0  0  0  0  0  0  0
    2.6808    2.6238   -8.4206 H   0  0  0  0  0  0  0  0  0  0  0  0
    0.2529   -2.8960    2.2921 N   0  3  0  0  0  0  0  0  0  0  0  0
    0.2439   -3.8956    2.3198 H   0  0  0  0  0  0  0  0  0  0  0  0
  1  2  1  0  0  0  0
  1 27  1  0  0  0  0
  1 28  1  0  0  0  0
  1 29  1  0  0  0  0
  2  7  2  0  0  0  0
  2  3  1  0  0  0  0
  3  4  2  0  0  0  0
  3 13  1  0  0  0  0
  4  5  1  0  0  0  0
  4 30  1  0  0  0  0
  5  6  2  0  0  0  0
  6  7  1  0  0  0  0
  6 44  1  0  0  0  0
  7  8  1  0  0  0  0
  8  9  2  0  0  0  0
  8 12  1  0  0  0  0
  9 10  1  0  0  0  0
 10 11  1  0  0  0  0
 10 44  2  0  0  0  0
 11 31  1  0  0  0  0
 11 32  1  0  0  0  0
 12 33  1  0  0  0  0
 12 34  1  0  0  0  0
 13 14  1  0  0  0  0
 13 35  1  0  0  0  0
 13 36  1  0  0  0  0
 14 15  1  0  0  0  0
 14 37  1  0  0  0  0
 15 20  2  0  0  0  0
 15 16  1  0  0  0  0
 16 17  2  0  0  0  0
 16 38  1  0  0  0  0
 17 18  1  0  0  0  0
 17 23  1  0  0  0  0
 18 19  2  0  0  0  0
 18 39  1  0  0  0  0
 19 20  1  0  0  0  0
 19 21  1  0  0  0  0
 20 40  1  0  0  0  0
 21 22  1  0  0  0  0
 22 41  1  0  0  0  0
 22 42  1  0  0  0  0
 22 43  1  0  0  0  0
 23 24  1  0  0  0  0
 23 25  1  0  0  0  0
 23 26  1  0  0  0  0
 44 45  1  0  0  0  0
M  CHG  1  44   1
M  END
$$$$
ZINC03815011
  -OEChem-08230709403D

 44 47  0     0  0  0  0  0  0999 V2000
    0.4684    7.2345   -1.9820 C   0  0  0  0  0  0  0  0  0  0  0  0
   -0.7915    8.0520   -2.1066 C   0  0  0  0  0  0  0  0  0  0  0  0
   -1.9772    7.4695   -2.4713 C   0  0  0  0  0  0  0  0  0  0  0  0
   -3.1235    8.2462   -2.5851 C   0  0  0  0  0  0  0  0  0  0  0  0
   -3.1117    9.5376   -2.3405 N   0  0  0  0  0  0  0  0  0  0  0  0
   -1.9900   10.1628   -1.9819 C   0  0  0  0  0  0  0  0  0  0  0  0
   -0.7852    9.4284   -1.8537 C   0  0  0  0  0  0  0  0  0  0  0  0
    0.3914   10.1189   -1.4708 C   0  0  0  0  0  0  0  0  0  0  0  0
    0.3096   11.4232   -1.2498 N   0  0  0  0  0  0  0  0  0  0  0  0
   -0.8419   12.0754   -1.3814 C   0  0  0  0  0  0  0  0  0  0  0  0
   -1.9655   11.4803   -1.7353 N   0  0  0  0  0  0  0  0  0  0  0  0
   -0.8628   13.4353   -1.1374 N   0  0  0  0  0  0  0  0  0  0  0  0
    1.5889    9.4522   -1.3323 N   0  0  0  0  0  0  0  0  0  0  0  0
   -2.0362    5.9905   -2.7543 C   0  0  0  0  0  0  0  0  0  0  0  0
   -2.3177    5.2334   -1.4549 C   0  0  0  0  0  0  0  0  0  0  0  0
   -2.5262    3.7724   -1.7598 C   0  0  0  0  0  0  0  0  0  0  0  0
   -3.7793    3.2938   -1.9916 C   0  0  0  0  0  0  0  0  0  0  0  0
   -3.9917    1.9461   -2.2742 C   0  0  0  0  0  0  0  0  0  0  0  0
   -2.9521    1.0689   -2.3276 C   0  0  0  0  0  0  0  0  0  0  0  0
   -1.6435    1.5270   -2.0995 C   0  0  0  0  0  0  0  0  0  0  0  0
   -1.4282    2.8969   -1.8060 C   0  0  0  0  0  0  0  0  0  0  0  0
   -0.1199    3.3540   -1.5718 C   0  0  0  0  0  0  0  0  0  0  0  0
    0.9192    2.4768   -1.6243 C   0  0  0  0  0  0  0  0  0  0  0  0
    0.7069    1.1287   -1.9078 C   0  0  0  0  0  0  0  0  0  0  0  0
   -0.5457    0.6503   -2.1403 C   0  0  0  0  0  0  0  0  0  0  0  0
    1.0421    7.3082   -2.9059 H   0  0  0  0  0  0  0  0  0  0  0  0
    1.0659    7.6120   -1.1522 H   0  0  0  0  0  0  0  0  0  0  0  0
    0.2084    6.1921   -1.7979 H   0  0  0  0  0  0  0  0  0  0  0  0
   -4.0503    7.7754   -2.8780 H   0  0  0  0  0  0  0  0  0  0  0  0
   -0.0488   13.8938   -0.8763 H   0  0  0  0  0  0  0  0  0  0  0  0
   -1.6914   13.9315   -1.2272 H   0  0  0  0  0  0  0  0  0  0  0  0
    1.8569    8.7943   -1.9928 H   0  0  0  0  0  0  0  0  0  0  0  0
    2.1640    9.6406   -0.5743 H   0  0  0  0  0  0  0  0  0  0  0  0
   -1.0828    5.6613   -3.1674 H   0  0  0  0  0  0  0  0  0  0  0  0
   -2.8318    5.7893   -3.4717 H   0  0  0  0  0  0  0  0  0  0  0  0
   -3.2144    5.6381   -0.9855 H   0  0  0  0  0  0  0  0  0  0  0  0
   -1.4709    5.3461   -0.7780 H   0  0  0  0  0  0  0  0  0  0  0  0
   -4.6216    3.9688   -1.9555 H   0  0  0  0  0  0  0  0  0  0  0  0
   -4.9961    1.5921   -2.4539 H   0  0  0  0  0  0  0  0  0  0  0  0
   -3.1317    0.0271   -2.5485 H   0  0  0  0  0  0  0  0  0  0  0  0
    0.0598    4.3958   -1.3510 H   0  0  0  0  0  0  0  0  0  0  0  0
    1.9236    2.8306   -1.4440 H   0  0  0  0  0  0  0  0  0  0  0  0
    1.5492    0.4537   -1.9437 H   0  0  0  0  0  0  0  0  0  0  0  0
   -0.6950   -0.3966   -2.3594 H   0  0  0  0  0  0  0  0  0  0  0  0
  1  2  1  0  0  0  0
  1 26  1  0  0  0  0
  1 27  1  0  0  0  0
  1 28  1  0  0  0  0
  2  7  2  0  0  0  0
  2  3  1  0  0  0  0
  3  4  2  0  0  0  0
  3 14  1  0  0  0  0
  4  5  1  0  0  0  0
  4 29  1  0  0  0  0
  5  6  2  0  0  0  0
  6 11  1  0  0  0  0
  6  7  1  0  0  0  0
  7  8  1  0  0  0  0
  8  9  2  0  0  0  0
  8 13  1  0  0  0  0
  9 10  1  0  0  0  0
 10 11  2  0  0  0  0
 10 12  1  0  0  0  0
 12 30  1  0  0  0  0
 12 31  1  0  0  0  0
 13 32  1  0  0  0  0
 13 33  1  0  0  0  0
 14 15  1  0  0  0  0
 14 34  1  0  0  0  0
 14 35  1  0  0  0  0
 15 16  1  0  0  0  0
 15 36  1  0  0  0  0
 15 37  1  0  0  0  0
 16 21  2  0  0  0  0
 16 17  1  0  0  0  0
 17 18  2  0  0  0  0
 17 38  1  0  0  0  0
 18 19  1  0  0  0  0
 18 39  1  0  0  0  0
 19 20  2  0  0  0  0
 19 40  1  0  0  0  0
 20 25  1  0  0  0  0
 20 21  1  0  0  0  0
 21 22  1  0  0  0  0
 22 23  2  0  0  0  0
 22 41  1  0  0  0  0
 23 24  1  0  0  0  0
 23 42  1  0  0  0  0
 24 25  2  0  0  0  0
 24 43  1  0  0  0  0
 25 44  1  0  0  0  0
M  END
$$$$
ZINC03815011
  -OEChem-08230709403D

 45 48  0     0  0  0  0  0  0999 V2000
    0.4684    7.2345   -1.9820 C   0  0  0  0  0  0  0  0  0  0  0  0
   -0.7915    8.0520   -2.1066 C   0  0  0  0  0  0  0  0  0  0  0  0
   -1.9772    7.4695   -2.4713 C   0  0  0  0  0  0  0  0  0  0  0  0
   -3.1235    8.2462   -2.5851 C   0  0  0  0  0  0  0  0  0  0  0  0
   -3.1117    9.5376   -2.3405 N   0  0  0  0  0  0  0  0  0  0  0  0
   -1.9900   10.1628   -1.9819 C   0  0  0  0  0  0  0  0  0  0  0  0
   -0.7852    9.4284   -1.8537 C   0  0  0  0  0  0  0  0  0  0  0  0
    0.3914   10.1189   -1.4708 C   0  0  0  0  0  0  0  0  0  0  0  0
    0.3096   11.4232   -1.2498 N   0  0  0  0  0  0  0  0  0  0  0  0
   -0.8419   12.0754   -1.3814 C   0  0  0  0  0  0  0  0  0  0  0  0
   -0.8628   13.4353   -1.1374 N   0  0  0  0  0  0  0  0  0  0  0  0
    1.5889    9.4522   -1.3323 N   0  0  0  0  0  0  0  0  0  0  0  0
   -2.0362    5.9905   -2.7543 C   0  0  0  0  0  0  0  0  0  0  0  0
   -2.3177    5.2334   -1.4549 C   0  0  0  0  0  0  0  0  0  0  0  0
   -2.5262    3.7724   -1.7598 C   0  0  0  0  0  0  0  0  0  0  0  0
   -3.7793    3.2938   -1.9916 C   0  0  0  0  0  0  0  0  0  0  0  0
   -3.9917    1.9461   -2.2742 C   0  0  0  0  0  0  0  0  0  0  0  0
   -2.9521    1.0689   -2.3276 C   0  0  0  0  0  0  0  0  0  0  0  0
   -1.6435    1.5270   -2.0995 C   0  0  0  0  0  0  0  0  0  0  0  0
   -1.4282    2.8969   -1.8060 C   0  0  0  0  0  0  0  0  0  0  0  0
   -0.1199    3.3540   -1.5718 C   0  0  0  0  0  0  0  0  0  0  0  0
    0.9192    2.4768   -1.6243 C   0  0  0  0  0  0  0  0  0  0  0  0
    0.7069    1.1287   -1.9078 C   0  0  0  0  0  0  0  0  0  0  0  0
   -0.5457    0.6503   -2.1403 C   0  0  0  0  0  0  0  0  0  0  0  0
    1.0421    7.3082   -2.9059 H   0  0  0  0  0  0  0  0  0  0  0  0
    1.0659    7.6120   -1.1522 H   0  0  0  0  0  0  0  0  0  0  0  0
    0.2084    6.1921   -1.7979 H   0  0  0  0  0  0  0  0  0  0  0  0
   -4.0503    7.7754   -2.8780 H   0  0  0  0  0  0  0  0  0  0  0  0
   -0.0488   13.8938   -0.8763 H   0  0  0  0  0  0  0  0  0  0  0  0
   -1.6914   13.9315   -1.2272 H   0  0  0  0  0  0  0  0  0  0  0  0
    1.8569    8.7943   -1.9928 H   0  0  0  0  0  0  0  0  0  0  0  0
    2.1640    9.6406   -0.5743 H   0  0  0  0  0  0  0  0  0  0  0  0
   -1.0828    5.6613   -3.1674 H   0  0  0  0  0  0  0  0  0  0  0  0
   -2.8318    5.7893   -3.4717 H   0  0  0  0  0  0  0  0  0  0  0  0
   -3.2144    5.6381   -0.9855 H   0  0  0  0  0  0  0  0  0  0  0  0
   -1.4709    5.3461   -0.7780 H   0  0  0  0  0  0  0  0  0  0  0  0
   -4.6216    3.9688   -1.9555 H   0  0  0  0  0  0  0  0  0  0  0  0
   -4.9961    1.5921   -2.4539 H   0  0  0  0  0  0  0  0  0  0  0  0
   -3.1317    0.0271   -2.5485 H   0  0  0  0  0  0  0  0  0  0  0  0
    0.0598    4.3958   -1.3510 H   0  0  0  0  0  0  0  0  0  0  0  0
    1.9236    2.8306   -1.4440 H   0  0  0  0  0  0  0  0  0  0  0  0
    1.5492    0.4537   -1.9437 H   0  0  0  0  0  0  0  0  0  0  0  0
   -0.6950   -0.3966   -2.3594 H   0  0  0  0  0  0  0  0  0  0  0  0
   -2.0260   11.5192   -1.7414 N   0  3  0  0  0  0  0  0  0  0  0  0
   -2.8442   12.0893   -1.8153 H   0  0  0  0  0  0  0  0  0  0  0  0
  1  2  1  0  0  0  0
  1 25  1  0  0  0  0
  1 26  1  0  0  0  0
  1 27  1  0  0  0  0
  2  7  2  0  0  0  0
  2  3  1  0  0  0  0
  3  4  2  0  0  0  0
  3 13  1  0  0  0  0
  4  5  1  0  0  0  0
  4 28  1  0  0  0  0
  5  6  2  0  0  0  0
  6  7  1  0  0  0  0
  6 44  1  0  0  0  0
  7  8  1  0  0  0  0
  8  9  2  0  0  0  0
  8 12  1  0  0  0  0
  9 10  1  0  0  0  0
 10 11  1  0  0  0  0
 10 44  2  0  0  0  0
 11 29  1  0  0  0  0
 11 30  1  0  0  0  0
 12 31  1  0  0  0  0
 12 32  1  0  0  0  0
 13 14  1  0  0  0  0
 13 33  1  0  0  0  0
 13 34  1  0  0  0  0
 14 15  1  0  0  0  0
 14 35  1  0  0  0  0
 14 36  1  0  0  0  0
 15 20  2  0  0  0  0
 15 16  1  0  0  0  0
 16 17  2  0  0  0  0
 16 37  1  0  0  0  0
 17 18  1  0  0  0  0
 17 38  1  0  0  0  0
 18 19  2  0  0  0  0
 18 39  1  0  0  0  0
 19 24  1  0  0  0  0
 19 20  1  0  0  0  0
 20 21  1  0  0  0  0
 21 22  2  0  0  0  0
 21 40  1  0  0  0  0
 22 23  1  0  0  0  0
 22 41  1  0  0  0  0
 23 24  2  0  0  0  0
 23 42  1  0  0  0  0
 24 43  1  0  0  0  0
 44 45  1  0  0  0  0
M  CHG  1  44   1
M  END
$$$$
ZINC03815012
  -OEChem-08230709403D

 46 48  0     0  0  0  0  0  0999 V2000
    0.6011    1.5059    0.0249 C   0  0  0  0  0  0  0  0  0  0  0  0
    0.5963   -0.0010    0.0160 C   0  0  0  0  0  0  0  0  0  0  0  0
    0.7575   -0.7002   -1.1517 C   0  0  0  0  0  0  0  0  0  0  0  0
    0.7522   -2.0894   -1.1328 C   0  0  0  0  0  0  0  0  0  0  0  0
    0.5881   -2.7658   -0.0177 N   0  0  0  0  0  0  0  0  0  0  0  0
    0.4222   -2.1439    1.1498 C   0  0  0  0  0  0  0  0  0  0  0  0
    0.4212   -0.7279    1.1990 C   0  0  0  0  0  0  0  0  0  0  0  0
    0.2422   -0.0940    2.4535 C   0  0  0  0  0  0  0  0  0  0  0  0
    0.0836   -0.8573    3.5254 N   0  0  0  0  0  0  0  0  0  0  0  0
    0.0908   -2.1842    3.4357 C   0  0  0  0  0  0  0  0  0  0  0  0
    0.2532   -2.8238    2.2928 N   0  0  0  0  0  0  0  0  0  0  0  0
   -0.0796   -2.9254    4.5894 N   0  0  0  0  0  0  0  0  0  0  0  0
    0.2328    1.2797    2.5563 N   0  0  0  0  0  0  0  0  0  0  0  0
    0.9433    0.0365   -2.4532 C   0  0  0  0  0  0  0  0  0  0  0  0
    2.4211    0.3897   -2.6328 C   0  0  0  0  0  0  0  0  0  0  0  0
    2.6069    1.1264   -3.9343 C   0  0  0  0  0  0  0  0  0  0  0  0
    2.9794    0.4362   -5.0716 C   0  0  0  0  0  0  0  0  0  0  0  0
    3.1462    1.1134   -6.2702 C   0  0  0  0  0  0  0  0  0  0  0  0
    2.9487    2.4854   -6.3250 C   0  0  0  0  0  0  0  0  0  0  0  0
    2.5810    3.1761   -5.1870 C   0  0  0  0  0  0  0  0  0  0  0  0
    2.4095    2.4979   -3.9891 C   0  0  0  0  0  0  0  0  0  0  0  0
    2.0483    3.1781   -2.8684 O   0  0  0  0  0  0  0  0  0  0  0  0
    1.8619    4.5890   -2.9976 C   0  0  0  0  0  0  0  0  0  0  0  0
    3.5078    0.4332   -7.3908 O   0  0  0  0  0  0  0  0  0  0  0  0
    3.6666    1.1952   -8.5893 C   0  0  0  0  0  0  0  0  0  0  0  0
    1.5927    1.8645    0.3010 H   0  0  0  0  0  0  0  0  0  0  0  0
    0.3443    1.8759   -0.9677 H   0  0  0  0  0  0  0  0  0  0  0  0
   -0.1302    1.8673    0.7478 H   0  0  0  0  0  0  0  0  0  0  0  0
    0.8842   -2.6280   -2.0595 H   0  0  0  0  0  0  0  0  0  0  0  0
   -0.2010   -2.4766    5.4407 H   0  0  0  0  0  0  0  0  0  0  0  0
   -0.0778   -3.8945    4.5479 H   0  0  0  0  0  0  0  0  0  0  0  0
   -0.4080    1.7182    3.1377 H   0  0  0  0  0  0  0  0  0  0  0  0
    0.8670    1.8085    2.0474 H   0  0  0  0  0  0  0  0  0  0  0  0
    0.6181   -0.5967   -3.2787 H   0  0  0  0  0  0  0  0  0  0  0  0
    0.3500    0.9508   -2.4411 H   0  0  0  0  0  0  0  0  0  0  0  0
    2.7462    1.0229   -1.8073 H   0  0  0  0  0  0  0  0  0  0  0  0
    3.0143   -0.5246   -2.6449 H   0  0  0  0  0  0  0  0  0  0  0  0
    3.1371   -0.6314   -5.0280 H   0  0  0  0  0  0  0  0  0  0  0  0
    3.0829    3.0134   -7.2575 H   0  0  0  0  0  0  0  0  0  0  0  0
    2.4272    4.2442   -5.2296 H   0  0  0  0  0  0  0  0  0  0  0  0
    1.5765    5.0077   -2.0325 H   0  0  0  0  0  0  0  0  0  0  0  0
    2.7916    5.0491   -3.3326 H   0  0  0  0  0  0  0  0  0  0  0  0
    1.0757    4.7865   -3.7262 H   0  0  0  0  0  0  0  0  0  0  0  0
    2.7248    1.6856   -8.8355 H   0  0  0  0  0  0  0  0  0  0  0  0
    4.4405    1.9483   -8.4412 H   0  0  0  0  0  0  0  0  0  0  0  0
    3.9555    0.5328   -9.4053 H   0  0  0  0  0  0  0  0  0  0  0  0
  1  2  1  0  0  0  0
  1 26  1  0  0  0  0
  1 27  1  0  0  0  0
  1 28  1  0  0  0  0
  2  7  2  0  0  0  0
  2  3  1  0  0  0  0
  3  4  2  0  0  0  0
  3 14  1  0  0  0  0
  4  5  1  0  0  0  0
  4 29  1  0  0  0  0
  5  6  2  0  0  0  0
  6 11  1  0  0  0  0
  6  7  1  0  0  0  0
  7  8  1  0  0  0  0
  8  9  2  0  0  0  0
  8 13  1  0  0  0  0
  9 10  1  0  0  0  0
 10 11  2  0  0  0  0
 10 12  1  0  0  0  0
 12 30  1  0  0  0  0
 12 31  1  0  0  0  0
 13 32  1  0  0  0  0
 13 33  1  0  0  0  0
 14 15  1  0  0  0  0
 14 34  1  0  0  0  0
 14 35  1  0  0  0  0
 15 16  1  0  0  0  0
 15 36  1  0  0  0  0
 15 37  1  0  0  0  0
 16 21  2  0  0  0  0
 16 17  1  0  0  0  0
 17 18  2  0  0  0  0
 17 38  1  0  0  0  0
 18 19  1  0  0  0  0
 18 24  1  0  0  0  0
 19 20  2  0  0  0  0
 19 39  1  0  0  0  0
 20 21  1  0  0  0  0
 20 40  1  0  0  0  0
 21 22  1  0  0  0  0
 22 23  1  0  0  0  0
 23 41  1  0  0  0  0
 23 42  1  0  0  0  0
 23 43  1  0  0  0  0
 24 25  1  0  0  0  0
 25 44  1  0  0  0  0
 25 45  1  0  0  0  0
 25 46  1  0  0  0  0
M  END
$$$$
ZINC03815012
  -OEChem-08230709403D

 47 49  0     0  0  0  0  0  0999 V2000
    0.6011    1.5059    0.0249 C   0  0  0  0  0  0  0  0  0  0  0  0
    0.5963   -0.0010    0.0160 C   0  0  0  0  0  0  0  0  0  0  0  0
    0.7575   -0.7002   -1.1517 C   0  0  0  0  0  0  0  0  0  0  0  0
    0.7522   -2.0894   -1.1328 C   0  0  0  0  0  0  0  0  0  0  0  0
    0.5881   -2.7658   -0.0177 N   0  0  0  0  0  0  0  0  0  0  0  0
    0.4222   -2.1439    1.1498 C   0  0  0  0  0  0  0  0  0  0  0  0
    0.4212   -0.7279    1.1990 C   0  0  0  0  0  0  0  0  0  0  0  0
    0.2422   -0.0940    2.4535 C   0  0  0  0  0  0  0  0  0  0  0  0
    0.0836   -0.8573    3.5254 N   0  0  0  0  0  0  0  0  0  0  0  0
    0.0908   -2.1842    3.4357 C   0  0  0  0  0  0  0  0  0  0  0  0
   -0.0796   -2.9254    4.5894 N   0  0  0  0  0  0  0  0  0  0  0  0
    0.2328    1.2797    2.5563 N   0  0  0  0  0  0  0  0  0  0  0  0
    0.9433    0.0365   -2.4532 C   0  0  0  0  0  0  0  0  0  0  0  0
    2.4211    0.3897   -2.6328 C   0  0  0  0  0  0  0  0  0  0  0  0
    2.6069    1.1264   -3.9343 C   0  0  0  0  0  0  0  0  0  0  0  0
    2.9794    0.4362   -5.0716 C   0  0  0  0  0  0  0  0  0  0  0  0
    3.1462    1.1134   -6.2702 C   0  0  0  0  0  0  0  0  0  0  0  0
    2.9487    2.4854   -6.3250 C   0  0  0  0  0  0  0  0  0  0  0  0
    2.5810    3.1761   -5.1870 C   0  0  0  0  0  0  0  0  0  0  0  0
    2.4095    2.4979   -3.9891 C   0  0  0  0  0  0  0  0  0  0  0  0
    2.0483    3.1781   -2.8684 O   0  0  0  0  0  0  0  0  0  0  0  0
    1.8619    4.5890   -2.9976 C   0  0  0  0  0  0  0  0  0  0  0  0
    3.5078    0.4332   -7.3908 O   0  0  0  0  0  0  0  0  0  0  0  0
    3.6666    1.1952   -8.5893 C   0  0  0  0  0  0  0  0  0  0  0  0
    1.5927    1.8645    0.3010 H   0  0  0  0  0  0  0  0  0  0  0  0
    0.3443    1.8759   -0.9677 H   0  0  0  0  0  0  0  0  0  0  0  0
   -0.1302    1.8673    0.7478 H   0  0  0  0  0  0  0  0  0  0  0  0
    0.8842   -2.6280   -2.0595 H   0  0  0  0  0  0  0  0  0  0  0  0
   -0.2010   -2.4766    5.4407 H   0  0  0  0  0  0  0  0  0  0  0  0
   -0.0778   -3.8945    4.5479 H   0  0  0  0  0  0  0  0  0  0  0  0
   -0.4080    1.7182    3.1377 H   0  0  0  0  0  0  0  0  0  0  0  0
    0.8670    1.8085    2.0474 H   0  0  0  0  0  0  0  0  0  0  0  0
    0.6181   -0.5967   -3.2787 H   0  0  0  0  0  0  0  0  0  0  0  0
    0.3500    0.9508   -2.4411 H   0  0  0  0  0  0  0  0  0  0  0  0
    2.7462    1.0229   -1.8073 H   0  0  0  0  0  0  0  0  0  0  0  0
    3.0143   -0.5246   -2.6449 H   0  0  0  0  0  0  0  0  0  0  0  0
    3.1371   -0.6314   -5.0280 H   0  0  0  0  0  0  0  0  0  0  0  0
    3.0829    3.0134   -7.2575 H   0  0  0  0  0  0  0  0  0  0  0  0
    2.4272    4.2442   -5.2296 H   0  0  0  0  0  0  0  0  0  0  0  0
    1.5765    5.0077   -2.0325 H   0  0  0  0  0  0  0  0  0  0  0  0
    2.7916    5.0491   -3.3326 H   0  0  0  0  0  0  0  0  0  0  0  0
    1.0757    4.7865   -3.7262 H   0  0  0  0  0  0  0  0  0  0  0  0
    2.7248    1.6856   -8.8355 H   0  0  0  0  0  0  0  0  0  0  0  0
    4.4405    1.9483   -8.4412 H   0  0  0  0  0  0  0  0  0  0  0  0
    3.9555    0.5328   -9.4053 H   0  0  0  0  0  0  0  0  0  0  0  0
    0.2529   -2.8960    2.2921 N   0  3  0  0  0  0  0  0  0  0  0  0
    0.2439   -3.8956    2.3198 H   0  0  0  0  0  0  0  0  0  0  0  0
  1  2  1  0  0  0  0
  1 25  1  0  0  0  0
  1 26  1  0  0  0  0
  1 27  1  0  0  0  0
  2  7  2  0  0  0  0
  2  3  1  0  0  0  0
  3  4  2  0  0  0  0
  3 13  1  0  0  0  0
  4  5  1  0  0  0  0
  4 28  1  0  0  0  0
  5  6  2  0  0  0  0
  6  7  1  0  0  0  0
  6 46  1  0  0  0  0
  7  8  1  0  0  0  0
  8  9  2  0  0  0  0
  8 12  1  0  0  0  0
  9 10  1  0  0  0  0
 10 11  1  0  0  0  0
 10 46  2  0  0  0  0
 11 29  1  0  0  0  0
 11 30  1  0  0  0  0
 12 31  1  0  0  0  0
 12 32  1  0  0  0  0
 13 14  1  0  0  0  0
 13 33  1  0  0  0  0
 13 34  1  0  0  0  0
 14 15  1  0  0  0  0
 14 35  1  0  0  0  0
 14 36  1  0  0  0  0
 15 20  2  0  0  0  0
 15 16  1  0  0  0  0
 16 17  2  0  0  0  0
 16 37  1  0  0  0  0
 17 18  1  0  0  0  0
 17 23  1  0  0  0  0
 18 19  2  0  0  0  0
 18 38  1  0  0  0  0
 19 20  1  0  0  0  0
 19 39  1  0  0  0  0
 20 21  1  0  0  0  0
 21 22  1  0  0  0  0
 22 40  1  0  0  0  0
 22 41  1  0  0  0  0
 22 42  1  0  0  0  0
 23 24  1  0  0  0  0
 24 43  1  0  0  0  0
 24 44  1  0  0  0  0
 24 45  1  0  0  0  0
 46 47  1  0  0  0  0
M  CHG  1  46   1
M  END
$$$$
ZINC03815013
  -OEChem-08230709403D

 43 45  0     0  0  0  0  0  0999 V2000
    1.2800    2.4850   -6.9293 C   0  0  0  0  0  0  0  0  0  0  0  0
    2.2609    2.1743   -5.8283 C   0  0  0  0  0  0  0  0  0  0  0  0
    3.5753    2.5913   -5.9362 C   0  0  0  0  0  0  0  0  0  0  0  0
    4.4784    2.3087   -4.9282 C   0  0  0  0  0  0  0  0  0  0  0  0
    4.0707    1.6083   -3.8097 C   0  0  0  0  0  0  0  0  0  0  0  0
    2.7516    1.1881   -3.6981 C   0  0  0  0  0  0  0  0  0  0  0  0
    1.8478    1.4695   -4.7151 C   0  0  0  0  0  0  0  0  0  0  0  0
    2.3360    0.4792   -2.5687 N   0  0  0  0  0  0  0  0  0  0  0  0
    0.9442    0.0367   -2.4527 C   0  0  0  0  0  0  0  0  0  0  0  0
    0.7581   -0.7000   -1.1513 C   0  0  0  0  0  0  0  0  0  0  0  0
    0.7545   -2.0896   -1.1322 C   0  0  0  0  0  0  0  0  0  0  0  0
    0.5894   -2.7660   -0.0176 N   0  0  0  0  0  0  0  0  0  0  0  0
    0.4223   -2.1441    1.1501 C   0  0  0  0  0  0  0  0  0  0  0  0
    0.4214   -0.7281    1.1994 C   0  0  0  0  0  0  0  0  0  0  0  0
    0.5967   -0.0010    0.0160 C   0  0  0  0  0  0  0  0  0  0  0  0
    0.6016    1.5059    0.0249 C   0  0  0  0  0  0  0  0  0  0  0  0
    0.2422   -0.0944    2.4535 C   0  0  0  0  0  0  0  0  0  0  0  0
    0.0833   -0.8578    3.5256 N   0  0  0  0  0  0  0  0  0  0  0  0
    0.0906   -2.1844    3.4359 C   0  0  0  0  0  0  0  0  0  0  0  0
    0.2532   -2.8240    2.2927 N   0  0  0  0  0  0  0  0  0  0  0  0
   -0.0800   -2.9256    4.5895 N   0  0  0  0  0  0  0  0  0  0  0  0
    0.2328    1.2794    2.5563 N   0  0  0  0  0  0  0  0  0  0  0  0
    5.0560    1.2999   -2.7120 C   0  0  0  0  0  0  0  0  0  0  0  0
    1.2856    1.6762   -7.6599 H   0  0  0  0  0  0  0  0  0  0  0  0
    0.2801    2.5863   -6.5071 H   0  0  0  0  0  0  0  0  0  0  0  0
    1.5646    3.4173   -7.4171 H   0  0  0  0  0  0  0  0  0  0  0  0
    3.8969    3.1385   -6.8100 H   0  0  0  0  0  0  0  0  0  0  0  0
    5.5040    2.6358   -5.0156 H   0  0  0  0  0  0  0  0  0  0  0  0
    0.8224    1.1404   -4.6334 H   0  0  0  0  0  0  0  0  0  0  0  0
    2.9688    0.2798   -1.8612 H   0  0  0  0  0  0  0  0  0  0  0  0
    0.7034   -0.6267   -3.2834 H   0  0  0  0  0  0  0  0  0  0  0  0
    0.2841    0.9038   -2.4770 H   0  0  0  0  0  0  0  0  0  0  0  0
    0.8873   -2.6282   -2.0588 H   0  0  0  0  0  0  0  0  0  0  0  0
    1.5930    1.8644    0.3018 H   0  0  0  0  0  0  0  0  0  0  0  0
    0.3455    1.8759   -0.9678 H   0  0  0  0  0  0  0  0  0  0  0  0
   -0.1303    1.8673    0.7473 H   0  0  0  0  0  0  0  0  0  0  0  0
   -0.2015   -2.4769    5.4409 H   0  0  0  0  0  0  0  0  0  0  0  0
   -0.0781   -3.8947    4.5480 H   0  0  0  0  0  0  0  0  0  0  0  0
   -0.4080    1.7178    3.1376 H   0  0  0  0  0  0  0  0  0  0  0  0
    0.8670    1.8081    2.0473 H   0  0  0  0  0  0  0  0  0  0  0  0
    5.5357    0.3420   -2.9128 H   0  0  0  0  0  0  0  0  0  0  0  0
    5.8124    2.0837   -2.6720 H   0  0  0  0  0  0  0  0  0  0  0  0
    4.5326    1.2511   -1.7571 H   0  0  0  0  0  0  0  0  0  0  0  0
  1  2  1  0  0  0  0
  1 24  1  0  0  0  0
  1 25  1  0  0  0  0
  1 26  1  0  0  0  0
  2  7  2  0  0  0  0
  2  3  1  0  0  0  0
  3  4  2  0  0  0  0
  3 27  1  0  0  0  0
  4  5  1  0  0  0  0
  4 28  1  0  0  0  0
  5  6  2  0  0  0  0
  5 23  1  0  0  0  0
  6  7  1  0  0  0  0
  6  8  1  0  0  0  0
  7 29  1  0  0  0  0
  8  9  1  0  0  0  0
  8 30  1  0  0  0  0
  9 10  1  0  0  0  0
  9 31  1  0  0  0  0
  9 32  1  0  0  0  0
 10 15  2  0  0  0  0
 10 11  1  0  0  0  0
 11 12  2  0  0  0  0
 11 33  1  0  0  0  0
 12 13  1  0  0  0  0
 13 20  2  0  0  0  0
 13 14  1  0  0  0  0
 14 15  1  0  0  0  0
 14 17  2  0  0  0  0
 15 16  1  0  0  0  0
 16 34  1  0  0  0  0
 16 35  1  0  0  0  0
 16 36  1  0  0  0  0
 17 18  1  0  0  0  0
 17 22  1  0  0  0  0
 18 19  2  0  0  0  0
 19 20  1  0  0  0  0
 19 21  1  0  0  0  0
 21 37  1  0  0  0  0
 21 38  1  0  0  0  0
 22 39  1  0  0  0  0
 22 40  1  0  0  0  0
 23 41  1  0  0  0  0
 23 42  1  0  0  0  0
 23 43  1  0  0  0  0
M  END
$$$$
ZINC03815013
  -OEChem-08230709403D

 44 46  0     0  0  0  0  0  0999 V2000
    1.2800    2.4850   -6.9293 C   0  0  0  0  0  0  0  0  0  0  0  0
    2.2609    2.1743   -5.8283 C   0  0  0  0  0  0  0  0  0  0  0  0
    3.5753    2.5913   -5.9362 C   0  0  0  0  0  0  0  0  0  0  0  0
    4.4784    2.3087   -4.9282 C   0  0  0  0  0  0  0  0  0  0  0  0
    4.0707    1.6083   -3.8097 C   0  0  0  0  0  0  0  0  0  0  0  0
    2.7516    1.1881   -3.6981 C   0  0  0  0  0  0  0  0  0  0  0  0
    1.8478    1.4695   -4.7151 C   0  0  0  0  0  0  0  0  0  0  0  0
    2.3360    0.4792   -2.5687 N   0  0  0  0  0  0  0  0  0  0  0  0
    0.9442    0.0367   -2.4527 C   0  0  0  0  0  0  0  0  0  0  0  0
    0.7581   -0.7000   -1.1513 C   0  0  0  0  0  0  0  0  0  0  0  0
    0.7545   -2.0896   -1.1322 C   0  0  0  0  0  0  0  0  0  0  0  0
    0.5894   -2.7660   -0.0176 N   0  0  0  0  0  0  0  0  0  0  0  0
    0.4223   -2.1441    1.1501 C   0  0  0  0  0  0  0  0  0  0  0  0
    0.4214   -0.7281    1.1994 C   0  0  0  0  0  0  0  0  0  0  0  0
    0.5967   -0.0010    0.0160 C   0  0  0  0  0  0  0  0  0  0  0  0
    0.6016    1.5059    0.0249 C   0  0  0  0  0  0  0  0  0  0  0  0
    0.2422   -0.0944    2.4535 C   0  0  0  0  0  0  0  0  0  0  0  0
    0.0833   -0.8578    3.5256 N   0  0  0  0  0  0  0  0  0  0  0  0
    0.0906   -2.1844    3.4359 C   0  0  0  0  0  0  0  0  0  0  0  0
   -0.0800   -2.9256    4.5895 N   0  0  0  0  0  0  0  0  0  0  0  0
    0.2328    1.2794    2.5563 N   0  0  0  0  0  0  0  0  0  0  0  0
    5.0560    1.2999   -2.7120 C   0  0  0  0  0  0  0  0  0  0  0  0
    1.2856    1.6762   -7.6599 H   0  0  0  0  0  0  0  0  0  0  0  0
    0.2801    2.5863   -6.5071 H   0  0  0  0  0  0  0  0  0  0  0  0
    1.5646    3.4173   -7.4171 H   0  0  0  0  0  0  0  0  0  0  0  0
    3.8969    3.1385   -6.8100 H   0  0  0  0  0  0  0  0  0  0  0  0
    5.5040    2.6358   -5.0156 H   0  0  0  0  0  0  0  0  0  0  0  0
    0.8224    1.1404   -4.6334 H   0  0  0  0  0  0  0  0  0  0  0  0
    2.9688    0.2798   -1.8612 H   0  0  0  0  0  0  0  0  0  0  0  0
    0.7034   -0.6267   -3.2834 H   0  0  0  0  0  0  0  0  0  0  0  0
    0.2841    0.9038   -2.4770 H   0  0  0  0  0  0  0  0  0  0  0  0
    0.8873   -2.6282   -2.0588 H   0  0  0  0  0  0  0  0  0  0  0  0
    1.5930    1.8644    0.3018 H   0  0  0  0  0  0  0  0  0  0  0  0
    0.3455    1.8759   -0.9678 H   0  0  0  0  0  0  0  0  0  0  0  0
   -0.1303    1.8673    0.7473 H   0  0  0  0  0  0  0  0  0  0  0  0
   -0.2015   -2.4769    5.4409 H   0  0  0  0  0  0  0  0  0  0  0  0
   -0.0781   -3.8947    4.5480 H   0  0  0  0  0  0  0  0  0  0  0  0
   -0.4080    1.7178    3.1376 H   0  0  0  0  0  0  0  0  0  0  0  0
    0.8670    1.8081    2.0473 H   0  0  0  0  0  0  0  0  0  0  0  0
    5.5357    0.3420   -2.9128 H   0  0  0  0  0  0  0  0  0  0  0  0
    5.8124    2.0837   -2.6720 H   0  0  0  0  0  0  0  0  0  0  0  0
    4.5326    1.2511   -1.7571 H   0  0  0  0  0  0  0  0  0  0  0  0
    0.2529   -2.8962    2.2920 N   0  3  0  0  0  0  0  0  0  0  0  0
    0.2558   -3.8947    2.2380 H   0  0  0  0  0  0  0  0  0  0  0  0
  1  2  1  0  0  0  0
  1 23  1  0  0  0  0
  1 24  1  0  0  0  0
  1 25  1  0  0  0  0
  2  7  2  0  0  0  0
  2  3  1  0  0  0  0
  3  4  2  0  0  0  0
  3 26  1  0  0  0  0
  4  5  1  0  0  0  0
  4 27  1  0  0  0  0
  5  6  2  0  0  0  0
  5 22  1  0  0  0  0
  6  7  1  0  0  0  0
  6  8  1  0  0  0  0
  7 28  1  0  0  0  0
  8  9  1  0  0  0  0
  8 29  1  0  0  0  0
  9 10  1  0  0  0  0
  9 30  1  0  0  0  0
  9 31  1  0  0  0  0
 10 15  2  0  0  0  0
 10 11  1  0  0  0  0
 11 12  2  0  0  0  0
 11 32  1  0  0  0  0
 12 13  1  0  0  0  0
 13 14  2  0  0  0  0
 13 43  1  0  0  0  0
 14 15  1  0  0  0  0
 14 17  1  0  0  0  0
 15 16  1  0  0  0  0
 16 33  1  0  0  0  0
 16 34  1  0  0  0  0
 16 35  1  0  0  0  0
 17 18  2  0  0  0  0
 17 21  1  0  0  0  0
 18 19  1  0  0  0  0
 19 20  1  0  0  0  0
 19 43  2  0  0  0  0
 20 36  1  0  0  0  0
 20 37  1  0  0  0  0
 21 38  1  0  0  0  0
 21 39  1  0  0  0  0
 22 40  1  0  0  0  0
 22 41  1  0  0  0  0
 22 42  1  0  0  0  0
 43 44  1  0  0  0  0
M  CHG  1  43   1
M  END
$$$$
ZINC03815014
  -OEChem-08230709403D

 44 46  0     0  0  0  0  0  0999 V2000
    5.0522    1.3099   -2.7063 C   0  0  0  0  0  0  0  0  0  0  0  0
    4.0699    1.6139   -3.8080 C   0  0  0  0  0  0  0  0  0  0  0  0
    4.4814    2.3099   -4.9279 C   0  0  0  0  0  0  0  0  0  0  0  0
    3.5763    2.5947   -5.9393 C   0  0  0  0  0  0  0  0  0  0  0  0
    2.2583    2.1760   -5.8298 C   0  0  0  0  0  0  0  0  0  0  0  0
    1.8466    1.4751   -4.7135 C   0  0  0  0  0  0  0  0  0  0  0  0
    2.7524    1.1894   -3.7003 C   0  0  0  0  0  0  0  0  0  0  0  0
    2.3360    0.4792   -2.5687 N   0  0  0  0  0  0  0  0  0  0  0  0
    0.9442    0.0367   -2.4527 C   0  0  0  0  0  0  0  0  0  0  0  0
    0.7581   -0.7000   -1.1513 C   0  0  0  0  0  0  0  0  0  0  0  0
    0.7545   -2.0896   -1.1322 C   0  0  0  0  0  0  0  0  0  0  0  0
    0.5894   -2.7660   -0.0176 N   0  0  0  0  0  0  0  0  0  0  0  0
    0.4223   -2.1441    1.1501 C   0  0  0  0  0  0  0  0  0  0  0  0
    0.4214   -0.7281    1.1994 C   0  0  0  0  0  0  0  0  0  0  0  0
    0.5967   -0.0010    0.0160 C   0  0  0  0  0  0  0  0  0  0  0  0
    0.6016    1.5059    0.0249 C   0  0  0  0  0  0  0  0  0  0  0  0
    0.2422   -0.0944    2.4535 C   0  0  0  0  0  0  0  0  0  0  0  0
    0.0833   -0.8578    3.5256 N   0  0  0  0  0  0  0  0  0  0  0  0
    0.0906   -2.1844    3.4359 C   0  0  0  0  0  0  0  0  0  0  0  0
    0.2532   -2.8240    2.2927 N   0  0  0  0  0  0  0  0  0  0  0  0
   -0.0800   -2.9256    4.5895 N   0  0  0  0  0  0  0  0  0  0  0  0
    0.2328    1.2794    2.5563 N   0  0  0  0  0  0  0  0  0  0  0  0
    3.9809    3.2854   -7.0388 O   0  0  0  0  0  0  0  0  0  0  0  0
    2.9958    3.5441   -8.0412 C   0  0  0  0  0  0  0  0  0  0  0  0
    5.5356    0.3532   -2.9044 H   0  0  0  0  0  0  0  0  0  0  0  0
    5.8059    2.0961   -2.6644 H   0  0  0  0  0  0  0  0  0  0  0  0
    4.5254    1.2604   -1.7533 H   0  0  0  0  0  0  0  0  0  0  0  0
    5.5073    2.6366   -5.0138 H   0  0  0  0  0  0  0  0  0  0  0  0
    1.5540    2.3986   -6.6177 H   0  0  0  0  0  0  0  0  0  0  0  0
    0.8203    1.1495   -4.6283 H   0  0  0  0  0  0  0  0  0  0  0  0
    2.9688    0.2798   -1.8612 H   0  0  0  0  0  0  0  0  0  0  0  0
    0.7034   -0.6267   -3.2834 H   0  0  0  0  0  0  0  0  0  0  0  0
    0.2841    0.9038   -2.4770 H   0  0  0  0  0  0  0  0  0  0  0  0
    0.8866   -2.6282   -2.0590 H   0  0  0  0  0  0  0  0  0  0  0  0
    1.5930    1.8644    0.3018 H   0  0  0  0  0  0  0  0  0  0  0  0
    0.3455    1.8759   -0.9678 H   0  0  0  0  0  0  0  0  0  0  0  0
   -0.1303    1.8673    0.7473 H   0  0  0  0  0  0  0  0  0  0  0  0
   -0.2015   -2.4769    5.4409 H   0  0  0  0  0  0  0  0  0  0  0  0
   -0.0781   -3.8947    4.5480 H   0  0  0  0  0  0  0  0  0  0  0  0
   -0.4080    1.7178    3.1376 H   0  0  0  0  0  0  0  0  0  0  0  0
    0.8670    1.8081    2.0473 H   0  0  0  0  0  0  0  0  0  0  0  0
    2.1837    4.1296   -7.6100 H   0  0  0  0  0  0  0  0  0  0  0  0
    3.4494    4.1008   -8.8612 H   0  0  0  0  0  0  0  0  0  0  0  0
    2.6029    2.5994   -8.4169 H   0  0  0  0  0  0  0  0  0  0  0  0
  1  2  1  0  0  0  0
  1 25  1  0  0  0  0
  1 26  1  0  0  0  0
  1 27  1  0  0  0  0
  2  7  2  0  0  0  0
  2  3  1  0  0  0  0
  3  4  2  0  0  0  0
  3 28  1  0  0  0  0
  4  5  1  0  0  0  0
  4 23  1  0  0  0  0
  5  6  2  0  0  0  0
  5 29  1  0  0  0  0
  6  7  1  0  0  0  0
  6 30  1  0  0  0  0
  7  8  1  0  0  0  0
  8  9  1  0  0  0  0
  8 31  1  0  0  0  0
  9 10  1  0  0  0  0
  9 32  1  0  0  0  0
  9 33  1  0  0  0  0
 10 15  2  0  0  0  0
 10 11  1  0  0  0  0
 11 12  2  0  0  0  0
 11 34  1  0  0  0  0
 12 13  1  0  0  0  0
 13 20  2  0  0  0  0
 13 14  1  0  0  0  0
 14 15  1  0  0  0  0
 14 17  2  0  0  0  0
 15 16  1  0  0  0  0
 16 35  1  0  0  0  0
 16 36  1  0  0  0  0
 16 37  1  0  0  0  0
 17 18  1  0  0  0  0
 17 22  1  0  0  0  0
 18 19  2  0  0  0  0
 19 20  1  0  0  0  0
 19 21  1  0  0  0  0
 21 38  1  0  0  0  0
 21 39  1  0  0  0  0
 22 40  1  0  0  0  0
 22 41  1  0  0  0  0
 23 24  1  0  0  0  0
 24 42  1  0  0  0  0
 24 43  1  0  0  0  0
 24 44  1  0  0  0  0
M  END
$$$$
ZINC03815014
  -OEChem-08230709403D

 45 47  0     0  0  0  0  0  0999 V2000
    5.0522    1.3099   -2.7063 C   0  0  0  0  0  0  0  0  0  0  0  0
    4.0699    1.6139   -3.8080 C   0  0  0  0  0  0  0  0  0  0  0  0
    4.4814    2.3099   -4.9279 C   0  0  0  0  0  0  0  0  0  0  0  0
    3.5763    2.5947   -5.9393 C   0  0  0  0  0  0  0  0  0  0  0  0
    2.2583    2.1760   -5.8298 C   0  0  0  0  0  0  0  0  0  0  0  0
    1.8466    1.4751   -4.7135 C   0  0  0  0  0  0  0  0  0  0  0  0
    2.7524    1.1894   -3.7003 C   0  0  0  0  0  0  0  0  0  0  0  0
    2.3360    0.4792   -2.5687 N   0  0  0  0  0  0  0  0  0  0  0  0
    0.9442    0.0367   -2.4527 C   0  0  0  0  0  0  0  0  0  0  0  0
    0.7581   -0.7000   -1.1513 C   0  0  0  0  0  0  0  0  0  0  0  0
    0.7545   -2.0896   -1.1322 C   0  0  0  0  0  0  0  0  0  0  0  0
    0.5894   -2.7660   -0.0176 N   0  0  0  0  0  0  0  0  0  0  0  0
    0.4223   -2.1441    1.1501 C   0  0  0  0  0  0  0  0  0  0  0  0
    0.4214   -0.7281    1.1994 C   0  0  0  0  0  0  0  0  0  0  0  0
    0.5967   -0.0010    0.0160 C   0  0  0  0  0  0  0  0  0  0  0  0
    0.6016    1.5059    0.0249 C   0  0  0  0  0  0  0  0  0  0  0  0
    0.2422   -0.0944    2.4535 C   0  0  0  0  0  0  0  0  0  0  0  0
    0.0833   -0.8578    3.5256 N   0  0  0  0  0  0  0  0  0  0  0  0
    0.0906   -2.1844    3.4359 C   0  0  0  0  0  0  0  0  0  0  0  0
   -0.0800   -2.9256    4.5895 N   0  0  0  0  0  0  0  0  0  0  0  0
    0.2328    1.2794    2.5563 N   0  0  0  0  0  0  0  0  0  0  0  0
    3.9809    3.2854   -7.0388 O   0  0  0  0  0  0  0  0  0  0  0  0
    2.9958    3.5441   -8.0412 C   0  0  0  0  0  0  0  0  0  0  0  0
    5.5356    0.3532   -2.9044 H   0  0  0  0  0  0  0  0  0  0  0  0
    5.8059    2.0961   -2.6644 H   0  0  0  0  0  0  0  0  0  0  0  0
    4.5254    1.2604   -1.7533 H   0  0  0  0  0  0  0  0  0  0  0  0
    5.5073    2.6366   -5.0138 H   0  0  0  0  0  0  0  0  0  0  0  0
    1.5540    2.3986   -6.6177 H   0  0  0  0  0  0  0  0  0  0  0  0
    0.8203    1.1495   -4.6283 H   0  0  0  0  0  0  0  0  0  0  0  0
    2.9688    0.2798   -1.8612 H   0  0  0  0  0  0  0  0  0  0  0  0
    0.7034   -0.6267   -3.2834 H   0  0  0  0  0  0  0  0  0  0  0  0
    0.2841    0.9038   -2.4770 H   0  0  0  0  0  0  0  0  0  0  0  0
    0.8866   -2.6282   -2.0590 H   0  0  0  0  0  0  0  0  0  0  0  0
    1.5930    1.8644    0.3018 H   0  0  0  0  0  0  0  0  0  0  0  0
    0.3455    1.8759   -0.9678 H   0  0  0  0  0  0  0  0  0  0  0  0
   -0.1303    1.8673    0.7473 H   0  0  0  0  0  0  0  0  0  0  0  0
   -0.2015   -2.4769    5.4409 H   0  0  0  0  0  0  0  0  0  0  0  0
   -0.0781   -3.8947    4.5480 H   0  0  0  0  0  0  0  0  0  0  0  0
   -0.4080    1.7178    3.1376 H   0  0  0  0  0  0  0  0  0  0  0  0
    0.8670    1.8081    2.0473 H   0  0  0  0  0  0  0  0  0  0  0  0
    2.1837    4.1296   -7.6100 H   0  0  0  0  0  0  0  0  0  0  0  0
    3.4494    4.1008   -8.8612 H   0  0  0  0  0  0  0  0  0  0  0  0
    2.6029    2.5994   -8.4169 H   0  0  0  0  0  0  0  0  0  0  0  0
    0.2529   -2.8962    2.2920 N   0  3  0  0  0  0  0  0  0  0  0  0
    0.2558   -3.8947    2.2380 H   0  0  0  0  0  0  0  0  0  0  0  0
  1  2  1  0  0  0  0
  1 24  1  0  0  0  0
  1 25  1  0  0  0  0
  1 26  1  0  0  0  0
  2  7  2  0  0  0  0
  2  3  1  0  0  0  0
  3  4  2  0  0  0  0
  3 27  1  0  0  0  0
  4  5  1  0  0  0  0
  4 22  1  0  0  0  0
  5  6  2  0  0  0  0
  5 28  1  0  0  0  0
  6  7  1  0  0  0  0
  6 29  1  0  0  0  0
  7  8  1  0  0  0  0
  8  9  1  0  0  0  0
  8 30  1  0  0  0  0
  9 10  1  0  0  0  0
  9 31  1  0  0  0  0
  9 32  1  0  0  0  0
 10 15  2  0  0  0  0
 10 11  1  0  0  0  0
 11 12  2  0  0  0  0
 11 33  1  0  0  0  0
 12 13  1  0  0  0  0
 13 14  2  0  0  0  0
 13 44  1  0  0  0  0
 14 15  1  0  0  0  0
 14 17  1  0  0  0  0
 15 16  1  0  0  0  0
 16 34  1  0  0  0  0
 16 35  1  0  0  0  0
 16 36  1  0  0  0  0
 17 18  2  0  0  0  0
 17 21  1  0  0  0  0
 18 19  1  0  0  0  0
 19 20  1  0  0  0  0
 19 44  2  0  0  0  0
 20 37  1  0  0  0  0
 20 38  1  0  0  0  0
 21 39  1  0  0  0  0
 21 40  1  0  0  0  0
 22 23  1  0  0  0  0
 23 41  1  0  0  0  0
 23 42  1  0  0  0  0
 23 43  1  0  0  0  0
 44 45  1  0  0  0  0
M  CHG  1  44   1
M  END
$$$$
ZINC03815015
  -OEChem-08230709403D

 44 46  0     0  0  0  0  0  0999 V2000
    1.2803    2.4860   -6.9306 C   0  0  0  0  0  0  0  0  0  0  0  0
    2.2628    2.1767   -5.8305 C   0  0  0  0  0  0  0  0  0  0  0  0
    3.5759    2.5952   -5.9409 C   0  0  0  0  0  0  0  0  0  0  0  0
    4.4820    2.3139   -4.9349 C   0  0  0  0  0  0  0  0  0  0  0  0
    4.0755    1.6112   -3.8127 C   0  0  0  0  0  0  0  0  0  0  0  0
    2.7524    1.1896   -3.7005 C   0  0  0  0  0  0  0  0  0  0  0  0
    1.8502    1.4708   -4.7161 C   0  0  0  0  0  0  0  0  0  0  0  0
    2.3360    0.4792   -2.5687 N   0  0  0  0  0  0  0  0  0  0  0  0
    0.9442    0.0367   -2.4527 C   0  0  0  0  0  0  0  0  0  0  0  0
    0.7581   -0.7000   -1.1513 C   0  0  0  0  0  0  0  0  0  0  0  0
    0.7545   -2.0896   -1.1322 C   0  0  0  0  0  0  0  0  0  0  0  0
    0.5894   -2.7660   -0.0176 N   0  0  0  0  0  0  0  0  0  0  0  0
    0.4223   -2.1441    1.1501 C   0  0  0  0  0  0  0  0  0  0  0  0
    0.4214   -0.7281    1.1994 C   0  0  0  0  0  0  0  0  0  0  0  0
    0.5967   -0.0010    0.0160 C   0  0  0  0  0  0  0  0  0  0  0  0
    0.6016    1.5059    0.0249 C   0  0  0  0  0  0  0  0  0  0  0  0
    0.2422   -0.0944    2.4535 C   0  0  0  0  0  0  0  0  0  0  0  0
    0.0833   -0.8578    3.5256 N   0  0  0  0  0  0  0  0  0  0  0  0
    0.0906   -2.1844    3.4359 C   0  0  0  0  0  0  0  0  0  0  0  0
    0.2532   -2.8240    2.2927 N   0  0  0  0  0  0  0  0  0  0  0  0
   -0.0800   -2.9256    4.5895 N   0  0  0  0  0  0  0  0  0  0  0  0
    0.2328    1.2794    2.5563 N   0  0  0  0  0  0  0  0  0  0  0  0
    4.9659    1.3331   -2.8229 O   0  0  0  0  0  0  0  0  0  0  0  0
    6.3052    1.7966   -3.0060 C   0  0  0  0  0  0  0  0  0  0  0  0
    1.2860    1.6769   -7.6609 H   0  0  0  0  0  0  0  0  0  0  0  0
    0.2809    2.5865   -6.5074 H   0  0  0  0  0  0  0  0  0  0  0  0
    1.5635    3.4184   -7.4191 H   0  0  0  0  0  0  0  0  0  0  0  0
    3.8949    3.1429   -6.8153 H   0  0  0  0  0  0  0  0  0  0  0  0
    5.5071    2.6419   -5.0244 H   0  0  0  0  0  0  0  0  0  0  0  0
    0.8249    1.1415   -4.6343 H   0  0  0  0  0  0  0  0  0  0  0  0
    2.9688    0.2798   -1.8612 H   0  0  0  0  0  0  0  0  0  0  0  0
    0.7034   -0.6267   -3.2834 H   0  0  0  0  0  0  0  0  0  0  0  0
    0.2841    0.9038   -2.4770 H   0  0  0  0  0  0  0  0  0  0  0  0
    0.8873   -2.6282   -2.0588 H   0  0  0  0  0  0  0  0  0  0  0  0
    1.5930    1.8644    0.3018 H   0  0  0  0  0  0  0  0  0  0  0  0
    0.3455    1.8759   -0.9678 H   0  0  0  0  0  0  0  0  0  0  0  0
   -0.1303    1.8673    0.7473 H   0  0  0  0  0  0  0  0  0  0  0  0
   -0.2015   -2.4769    5.4409 H   0  0  0  0  0  0  0  0  0  0  0  0
   -0.0781   -3.8947    4.5480 H   0  0  0  0  0  0  0  0  0  0  0  0
   -0.4080    1.7178    3.1376 H   0  0  0  0  0  0  0  0  0  0  0  0
    0.8670    1.8081    2.0473 H   0  0  0  0  0  0  0  0  0  0  0  0
    6.7232    1.3522   -3.9093 H   0  0  0  0  0  0  0  0  0  0  0  0
    6.3040    2.8823   -3.1023 H   0  0  0  0  0  0  0  0  0  0  0  0
    6.9101    1.5087   -2.1461 H   0  0  0  0  0  0  0  0  0  0  0  0
  1  2  1  0  0  0  0
  1 25  1  0  0  0  0
  1 26  1  0  0  0  0
  1 27  1  0  0  0  0
  2  7  2  0  0  0  0
  2  3  1  0  0  0  0
  3  4  2  0  0  0  0
  3 28  1  0  0  0  0
  4  5  1  0  0  0  0
  4 29  1  0  0  0  0
  5  6  2  0  0  0  0
  5 23  1  0  0  0  0
  6  7  1  0  0  0  0
  6  8  1  0  0  0  0
  7 30  1  0  0  0  0
  8  9  1  0  0  0  0
  8 31  1  0  0  0  0
  9 10  1  0  0  0  0
  9 32  1  0  0  0  0
  9 33  1  0  0  0  0
 10 15  2  0  0  0  0
 10 11  1  0  0  0  0
 11 12  2  0  0  0  0
 11 34  1  0  0  0  0
 12 13  1  0  0  0  0
 13 20  2  0  0  0  0
 13 14  1  0  0  0  0
 14 15  1  0  0  0  0
 14 17  2  0  0  0  0
 15 16  1  0  0  0  0
 16 35  1  0  0  0  0
 16 36  1  0  0  0  0
 16 37  1  0  0  0  0
 17 18  1  0  0  0  0
 17 22  1  0  0  0  0
 18 19  2  0  0  0  0
 19 20  1  0  0  0  0
 19 21  1  0  0  0  0
 21 38  1  0  0  0  0
 21 39  1  0  0  0  0
 22 40  1  0  0  0  0
 22 41  1  0  0  0  0
 23 24  1  0  0  0  0
 24 42  1  0  0  0  0
 24 43  1  0  0  0  0
 24 44  1  0  0  0  0
M  END
$$$$
ZINC03815015
  -OEChem-08230709403D

 45 47  0     0  0  0  0  0  0999 V2000
    1.2803    2.4860   -6.9306 C   0  0  0  0  0  0  0  0  0  0  0  0
    2.2628    2.1767   -5.8305 C   0  0  0  0  0  0  0  0  0  0  0  0
    3.5759    2.5952   -5.9409 C   0  0  0  0  0  0  0  0  0  0  0  0
    4.4820    2.3139   -4.9349 C   0  0  0  0  0  0  0  0  0  0  0  0
    4.0755    1.6112   -3.8127 C   0  0  0  0  0  0  0  0  0  0  0  0
    2.7524    1.1896   -3.7005 C   0  0  0  0  0  0  0  0  0  0  0  0
    1.8502    1.4708   -4.7161 C   0  0  0  0  0  0  0  0  0  0  0  0
    2.3360    0.4792   -2.5687 N   0  0  0  0  0  0  0  0  0  0  0  0
    0.9442    0.0367   -2.4527 C   0  0  0  0  0  0  0  0  0  0  0  0
    0.7581   -0.7000   -1.1513 C   0  0  0  0  0  0  0  0  0  0  0  0
    0.7545   -2.0896   -1.1322 C   0  0  0  0  0  0  0  0  0  0  0  0
    0.5894   -2.7660   -0.0176 N   0  0  0  0  0  0  0  0  0  0  0  0
    0.4223   -2.1441    1.1501 C   0  0  0  0  0  0  0  0  0  0  0  0
    0.4214   -0.7281    1.1994 C   0  0  0  0  0  0  0  0  0  0  0  0
    0.5967   -0.0010    0.0160 C   0  0  0  0  0  0  0  0  0  0  0  0
    0.6016    1.5059    0.0249 C   0  0  0  0  0  0  0  0  0  0  0  0
    0.2422   -0.0944    2.4535 C   0  0  0  0  0  0  0  0  0  0  0  0
    0.0833   -0.8578    3.5256 N   0  0  0  0  0  0  0  0  0  0  0  0
    0.0906   -2.1844    3.4359 C   0  0  0  0  0  0  0  0  0  0  0  0
   -0.0800   -2.9256    4.5895 N   0  0  0  0  0  0  0  0  0  0  0  0
    0.2328    1.2794    2.5563 N   0  0  0  0  0  0  0  0  0  0  0  0
    4.9659    1.3331   -2.8229 O   0  0  0  0  0  0  0  0  0  0  0  0
    6.3052    1.7966   -3.0060 C   0  0  0  0  0  0  0  0  0  0  0  0
    1.2860    1.6769   -7.6609 H   0  0  0  0  0  0  0  0  0  0  0  0
    0.2809    2.5865   -6.5074 H   0  0  0  0  0  0  0  0  0  0  0  0
    1.5635    3.4184   -7.4191 H   0  0  0  0  0  0  0  0  0  0  0  0
    3.8949    3.1429   -6.8153 H   0  0  0  0  0  0  0  0  0  0  0  0
    5.5071    2.6419   -5.0244 H   0  0  0  0  0  0  0  0  0  0  0  0
    0.8249    1.1415   -4.6343 H   0  0  0  0  0  0  0  0  0  0  0  0
    2.9688    0.2798   -1.8612 H   0  0  0  0  0  0  0  0  0  0  0  0
    0.7034   -0.6267   -3.2834 H   0  0  0  0  0  0  0  0  0  0  0  0
    0.2841    0.9038   -2.4770 H   0  0  0  0  0  0  0  0  0  0  0  0
    0.8873   -2.6282   -2.0588 H   0  0  0  0  0  0  0  0  0  0  0  0
    1.5930    1.8644    0.3018 H   0  0  0  0  0  0  0  0  0  0  0  0
    0.3455    1.8759   -0.9678 H   0  0  0  0  0  0  0  0  0  0  0  0
   -0.1303    1.8673    0.7473 H   0  0  0  0  0  0  0  0  0  0  0  0
   -0.2015   -2.4769    5.4409 H   0  0  0  0  0  0  0  0  0  0  0  0
   -0.0781   -3.8947    4.5480 H   0  0  0  0  0  0  0  0  0  0  0  0
   -0.4080    1.7178    3.1376 H   0  0  0  0  0  0  0  0  0  0  0  0
    0.8670    1.8081    2.0473 H   0  0  0  0  0  0  0  0  0  0  0  0
    6.7232    1.3522   -3.9093 H   0  0  0  0  0  0  0  0  0  0  0  0
    6.3040    2.8823   -3.1023 H   0  0  0  0  0  0  0  0  0  0  0  0
    6.9101    1.5087   -2.1461 H   0  0  0  0  0  0  0  0  0  0  0  0
    0.2529   -2.8962    2.2920 N   0  3  0  0  0  0  0  0  0  0  0  0
    0.2558   -3.8947    2.2380 H   0  0  0  0  0  0  0  0  0  0  0  0
  1  2  1  0  0  0  0
  1 24  1  0  0  0  0
  1 25  1  0  0  0  0
  1 26  1  0  0  0  0
  2  7  2  0  0  0  0
  2  3  1  0  0  0  0
  3  4  2  0  0  0  0
  3 27  1  0  0  0  0
  4  5  1  0  0  0  0
  4 28  1  0  0  0  0
  5  6  2  0  0  0  0
  5 22  1  0  0  0  0
  6  7  1  0  0  0  0
  6  8  1  0  0  0  0
  7 29  1  0  0  0  0
  8  9  1  0  0  0  0
  8 30  1  0  0  0  0
  9 10  1  0  0  0  0
  9 31  1  0  0  0  0
  9 32  1  0  0  0  0
 10 15  2  0  0  0  0
 10 11  1  0  0  0  0
 11 12  2  0  0  0  0
 11 33  1  0  0  0  0
 12 13  1  0  0  0  0
 13 14  2  0  0  0  0
 13 44  1  0  0  0  0
 14 15  1  0  0  0  0
 14 17  1  0  0  0  0
 15 16  1  0  0  0  0
 16 34  1  0  0  0  0
 16 35  1  0  0  0  0
 16 36  1  0  0  0  0
 17 18  2  0  0  0  0
 17 21  1  0  0  0  0
 18 19  1  0  0  0  0
 19 20  1  0  0  0  0
 19 44  2  0  0  0  0
 20 37  1  0  0  0  0
 20 38  1  0  0  0  0
 21 39  1  0  0  0  0
 21 40  1  0  0  0  0
 22 23  1  0  0  0  0
 23 41  1  0  0  0  0
 23 42  1  0  0  0  0
 23 43  1  0  0  0  0
 44 45  1  0  0  0  0
M  CHG  1  44   1
M  END
$$$$
ZINC03815016
  -OEChem-08230709403D

 48 50  0     1  0  0  0  0  0999 V2000
   -0.0832   -0.0034    0.6168 C   0  0  0  0  0  0  0  0  0  0  0  0
   -0.1002    1.5034    0.6000 C   0  0  0  0  0  0  0  0  0  0  0  0
   -1.2579    2.1985    0.8340 C   0  0  0  0  0  0  0  0  0  0  0  0
   -1.2465    3.5877    0.8159 C   0  0  0  0  0  0  0  0  0  0  0  0
   -0.1486    4.2678    0.5711 N   0  0  0  0  0  0  0  0  0  0  0  0
    1.0082    3.6498    0.3318 C   0  0  0  0  0  0  0  0  0  0  0  0
    1.0646    2.2341    0.3393 C   0  0  0  0  0  0  0  0  0  0  0  0
    2.3073    1.6044    0.0812 C   0  0  0  0  0  0  0  0  0  0  0  0
    3.3621    2.3712   -0.1559 N   0  0  0  0  0  0  0  0  0  0  0  0
    3.2663    3.6977   -0.1537 C   0  0  0  0  0  0  0  0  0  0  0  0
    2.1337    4.3335    0.0802 N   0  0  0  0  0  0  0  0  0  0  0  0
    4.4020    4.4427   -0.4078 N   0  0  0  0  0  0  0  0  0  0  0  0
    2.4164    0.2312    0.0763 N   0  0  0  0  0  0  0  0  0  0  0  0
   -2.5400    1.4576    1.1135 C   0  0  0  0  0  0  0  0  0  0  0  0
   -2.5597    1.0266    2.5135 N   0  0  3  0  0  0  0  0  0  0  0  0
   -2.0107   -0.2797    2.8856 C   0  0  0  0  0  0  0  0  0  0  0  0
   -3.1030    1.8626    3.4953 C   0  0  0  0  0  0  0  0  0  0  0  0
   -3.6182    3.1032    3.1434 C   0  0  0  0  0  0  0  0  0  0  0  0
   -4.1599    3.9278    4.1112 C   0  0  0  0  0  0  0  0  0  0  0  0
   -4.1805    3.5230    5.4359 C   0  0  0  0  0  0  0  0  0  0  0  0
   -3.6598    2.2830    5.7927 C   0  0  0  0  0  0  0  0  0  0  0  0
   -3.1217    1.4542    4.8220 C   0  0  0  0  0  0  0  0  0  0  0  0
   -3.6797    1.8850    7.0928 O   0  0  0  0  0  0  0  0  0  0  0  0
   -3.1285    0.5997    7.3863 C   0  0  0  0  0  0  0  0  0  0  0  0
   -4.7096    4.3384    6.3885 O   0  0  0  0  0  0  0  0  0  0  0  0
   -5.2262    5.5969    5.9511 C   0  0  0  0  0  0  0  0  0  0  0  0
    0.2620   -0.3521    1.5902 H   0  0  0  0  0  0  0  0  0  0  0  0
   -1.0891   -0.3802    0.4317 H   0  0  0  0  0  0  0  0  0  0  0  0
    0.5898   -0.3679   -0.1593 H   0  0  0  0  0  0  0  0  0  0  0  0
   -2.1652    4.1232    1.0049 H   0  0  0  0  0  0  0  0  0  0  0  0
    5.2454    3.9968   -0.5827 H   0  0  0  0  0  0  0  0  0  0  0  0
    4.3557    5.4116   -0.4113 H   0  0  0  0  0  0  0  0  0  0  0  0
    2.9557   -0.2101   -0.5984 H   0  0  0  0  0  0  0  0  0  0  0  0
    1.9539   -0.2945    0.7476 H   0  0  0  0  0  0  0  0  0  0  0  0
   -3.3884    2.1151    0.9237 H   0  0  0  0  0  0  0  0  0  0  0  0
   -2.6043    0.5848    0.4637 H   0  0  0  0  0  0  0  0  0  0  0  0
   -0.9521   -0.1746    3.1230 H   0  0  0  0  0  0  0  0  0  0  0  0
   -2.5422   -0.6623    3.7570 H   0  0  0  0  0  0  0  0  0  0  0  0
   -2.1294   -0.9740    2.0538 H   0  0  0  0  0  0  0  0  0  0  0  0
   -3.5990    3.4223    2.1118 H   0  0  0  0  0  0  0  0  0  0  0  0
   -4.5639    4.8906    3.8350 H   0  0  0  0  0  0  0  0  0  0  0  0
   -2.7167    0.4915    5.0970 H   0  0  0  0  0  0  0  0  0  0  0  0
   -3.6779   -0.1652    6.8374 H   0  0  0  0  0  0  0  0  0  0  0  0
   -2.0800    0.5775    7.0892 H   0  0  0  0  0  0  0  0  0  0  0  0
   -3.2071    0.4062    8.4561 H   0  0  0  0  0  0  0  0  0  0  0  0
   -4.4291    6.1736    5.4818 H   0  0  0  0  0  0  0  0  0  0  0  0
   -6.0269    5.4304    5.2305 H   0  0  0  0  0  0  0  0  0  0  0  0
   -5.6167    6.1468    6.8074 H   0  0  0  0  0  0  0  0  0  0  0  0
  1  2  1  0  0  0  0
  1 27  1  0  0  0  0
  1 28  1  0  0  0  0
  1 29  1  0  0  0  0
  2  7  2  0  0  0  0
  2  3  1  0  0  0  0
  3  4  2  0  0  0  0
  3 14  1  0  0  0  0
  4  5  1  0  0  0  0
  4 30  1  0  0  0  0
  5  6  2  0  0  0  0
  6 11  1  0  0  0  0
  6  7  1  0  0  0  0
  7  8  1  0  0  0  0
  8  9  2  0  0  0  0
  8 13  1  0  0  0  0
  9 10  1  0  0  0  0
 10 11  2  0  0  0  0
 10 12  1  0  0  0  0
 12 31  1  0  0  0  0
 12 32  1  0  0  0  0
 13 33  1  0  0  0  0
 13 34  1  0  0  0  0
 14 15  1  0  0  0  0
 14 35  1  0  0  0  0
 14 36  1  0  0  0  0
 15 16  1  0  0  0  0
 15 17  1  0  0  0  0
 16 37  1  0  0  0  0
 16 38  1  0  0  0  0
 16 39  1  0  0  0  0
 17 22  2  0  0  0  0
 17 18  1  0  0  0  0
 18 19  2  0  0  0  0
 18 40  1  0  0  0  0
 19 20  1  0  0  0  0
 19 41  1  0  0  0  0
 20 21  2  0  0  0  0
 20 25  1  0  0  0  0
 21 22  1  0  0  0  0
 21 23  1  0  0  0  0
 22 42  1  0  0  0  0
 23 24  1  0  0  0  0
 24 43  1  0  0  0  0
 24 44  1  0  0  0  0
 24 45  1  0  0  0  0
 25 26  1  0  0  0  0
 26 46  1  0  0  0  0
 26 47  1  0  0  0  0
 26 48  1  0  0  0  0
M  END
$$$$
ZINC03815016
  -OEChem-08230709403D

 49 51  0     1  0  0  0  0  0999 V2000
   -0.0832   -0.0034    0.6168 C   0  0  0  0  0  0  0  0  0  0  0  0
   -0.1002    1.5034    0.6000 C   0  0  0  0  0  0  0  0  0  0  0  0
   -1.2579    2.1985    0.8340 C   0  0  0  0  0  0  0  0  0  0  0  0
   -1.2465    3.5877    0.8159 C   0  0  0  0  0  0  0  0  0  0  0  0
   -0.1486    4.2678    0.5711 N   0  0  0  0  0  0  0  0  0  0  0  0
    1.0082    3.6498    0.3318 C   0  0  0  0  0  0  0  0  0  0  0  0
    1.0646    2.2341    0.3393 C   0  0  0  0  0  0  0  0  0  0  0  0
    2.3073    1.6044    0.0812 C   0  0  0  0  0  0  0  0  0  0  0  0
    3.3621    2.3712   -0.1559 N   0  0  0  0  0  0  0  0  0  0  0  0
    3.2663    3.6977   -0.1537 C   0  0  0  0  0  0  0  0  0  0  0  0
    4.4020    4.4427   -0.4078 N   0  0  0  0  0  0  0  0  0  0  0  0
    2.4164    0.2312    0.0763 N   0  0  0  0  0  0  0  0  0  0  0  0
   -2.5400    1.4576    1.1135 C   0  0  0  0  0  0  0  0  0  0  0  0
   -2.5597    1.0266    2.5135 N   0  0  3  0  0  0  0  0  0  0  0  0
   -2.0107   -0.2797    2.8856 C   0  0  0  0  0  0  0  0  0  0  0  0
   -3.1030    1.8626    3.4953 C   0  0  0  0  0  0  0  0  0  0  0  0
   -3.6182    3.1032    3.1434 C   0  0  0  0  0  0  0  0  0  0  0  0
   -4.1599    3.9278    4.1112 C   0  0  0  0  0  0  0  0  0  0  0  0
   -4.1805    3.5230    5.4359 C   0  0  0  0  0  0  0  0  0  0  0  0
   -3.6598    2.2830    5.7927 C   0  0  0  0  0  0  0  0  0  0  0  0
   -3.1217    1.4542    4.8220 C   0  0  0  0  0  0  0  0  0  0  0  0
   -3.6797    1.8850    7.0928 O   0  0  0  0  0  0  0  0  0  0  0  0
   -3.1285    0.5997    7.3863 C   0  0  0  0  0  0  0  0  0  0  0  0
   -4.7096    4.3384    6.3885 O   0  0  0  0  0  0  0  0  0  0  0  0
   -5.2262    5.5969    5.9511 C   0  0  0  0  0  0  0  0  0  0  0  0
    0.2620   -0.3521    1.5902 H   0  0  0  0  0  0  0  0  0  0  0  0
   -1.0891   -0.3802    0.4317 H   0  0  0  0  0  0  0  0  0  0  0  0
    0.5898   -0.3679   -0.1593 H   0  0  0  0  0  0  0  0  0  0  0  0
   -2.1652    4.1232    1.0049 H   0  0  0  0  0  0  0  0  0  0  0  0
    5.2454    3.9968   -0.5827 H   0  0  0  0  0  0  0  0  0  0  0  0
    4.3557    5.4116   -0.4113 H   0  0  0  0  0  0  0  0  0  0  0  0
    2.9557   -0.2101   -0.5984 H   0  0  0  0  0  0  0  0  0  0  0  0
    1.9539   -0.2945    0.7476 H   0  0  0  0  0  0  0  0  0  0  0  0
   -3.3884    2.1151    0.9237 H   0  0  0  0  0  0  0  0  0  0  0  0
   -2.6043    0.5848    0.4637 H   0  0  0  0  0  0  0  0  0  0  0  0
   -0.9521   -0.1746    3.1230 H   0  0  0  0  0  0  0  0  0  0  0  0
   -2.5422   -0.6623    3.7570 H   0  0  0  0  0  0  0  0  0  0  0  0
   -2.1294   -0.9740    2.0538 H   0  0  0  0  0  0  0  0  0  0  0  0
   -3.5990    3.4223    2.1118 H   0  0  0  0  0  0  0  0  0  0  0  0
   -4.5639    4.8906    3.8350 H   0  0  0  0  0  0  0  0  0  0  0  0
   -2.7167    0.4915    5.0970 H   0  0  0  0  0  0  0  0  0  0  0  0
   -3.6779   -0.1652    6.8374 H   0  0  0  0  0  0  0  0  0  0  0  0
   -2.0800    0.5775    7.0892 H   0  0  0  0  0  0  0  0  0  0  0  0
   -3.2071    0.4062    8.4561 H   0  0  0  0  0  0  0  0  0  0  0  0
   -4.4291    6.1736    5.4818 H   0  0  0  0  0  0  0  0  0  0  0  0
   -6.0269    5.4304    5.2305 H   0  0  0  0  0  0  0  0  0  0  0  0
   -5.6167    6.1468    6.8074 H   0  0  0  0  0  0  0  0  0  0  0  0
    2.1326    4.4056    0.0794 N   0  3  0  0  0  0  0  0  0  0  0  0
    2.1545    5.4052    0.0601 H   0  0  0  0  0  0  0  0  0  0  0  0
  1  2  1  0  0  0  0
  1 26  1  0  0  0  0
  1 27  1  0  0  0  0
  1 28  1  0  0  0  0
  2  7  2  0  0  0  0
  2  3  1  0  0  0  0
  3  4  2  0  0  0  0
  3 13  1  0  0  0  0
  4  5  1  0  0  0  0
  4 29  1  0  0  0  0
  5  6  2  0  0  0  0
  6  7  1  0  0  0  0
  6 48  1  0  0  0  0
  7  8  1  0  0  0  0
  8  9  2  0  0  0  0
  8 12  1  0  0  0  0
  9 10  1  0  0  0  0
 10 11  1  0  0  0  0
 10 48  2  0  0  0  0
 11 30  1  0  0  0  0
 11 31  1  0  0  0  0
 12 32  1  0  0  0  0
 12 33  1  0  0  0  0
 13 14  1  0  0  0  0
 13 34  1  0  0  0  0
 13 35  1  0  0  0  0
 14 15  1  0  0  0  0
 14 16  1  0  0  0  0
 15 36  1  0  0  0  0
 15 37  1  0  0  0  0
 15 38  1  0  0  0  0
 16 21  2  0  0  0  0
 16 17  1  0  0  0  0
 17 18  2  0  0  0  0
 17 39  1  0  0  0  0
 18 19  1  0  0  0  0
 18 40  1  0  0  0  0
 19 20  2  0  0  0  0
 19 24  1  0  0  0  0
 20 21  1  0  0  0  0
 20 22  1  0  0  0  0
 21 41  1  0  0  0  0
 22 23  1  0  0  0  0
 23 42  1  0  0  0  0
 23 43  1  0  0  0  0
 23 44  1  0  0  0  0
 24 25  1  0  0  0  0
 25 45  1  0  0  0  0
 25 46  1  0  0  0  0
 25 47  1  0  0  0  0
 48 49  1  0  0  0  0
M  CHG  1  48   1
M  END
$$$$
ZINC03815017
  -OEChem-08230709403D

 47 49  0     1  0  0  0  0  0999 V2000
    0.2529   -3.0342   -2.4217 C   0  0  0  0  0  0  0  0  0  0  0  0
   -0.1227   -2.3154   -1.1516 C   0  0  0  0  0  0  0  0  0  0  0  0
   -0.6691   -1.0590   -1.1872 C   0  0  0  0  0  0  0  0  0  0  0  0
   -1.0095   -0.4187   -0.0021 C   0  0  0  0  0  0  0  0  0  0  0  0
   -0.8158   -0.9822    1.1695 N   0  0  0  0  0  0  0  0  0  0  0  0
   -0.2843   -2.2007    1.2708 C   0  0  0  0  0  0  0  0  0  0  0  0
    0.0815   -2.9086    0.0993 C   0  0  0  0  0  0  0  0  0  0  0  0
    0.6446   -4.2015    0.2373 C   0  0  0  0  0  0  0  0  0  0  0  0
    0.8033   -4.6897    1.4593 N   0  0  0  0  0  0  0  0  0  0  0  0
    0.4464   -3.9918    2.5337 C   0  0  0  0  0  0  0  0  0  0  0  0
   -0.0815   -2.7845    2.4606 N   0  0  0  0  0  0  0  0  0  0  0  0
    0.6370   -4.5552    3.7810 N   0  0  0  0  0  0  0  0  0  0  0  0
    1.0177   -4.9318   -0.8695 N   0  0  0  0  0  0  0  0  0  0  0  0
   -0.9031   -0.3747   -2.5093 C   0  0  0  0  0  0  0  0  0  0  0  0
    0.3769    0.1090   -3.0436 N   0  0  2  0  0  0  0  0  0  0  0  0
    0.8640    1.2643   -2.2782 C   0  0  0  0  0  0  0  0  0  0  0  0
    0.2676    0.4188   -4.4042 C   0  0  0  0  0  0  0  0  0  0  0  0
   -0.6357    1.3828   -4.8276 C   0  0  0  0  0  0  0  0  0  0  0  0
   -0.7384    1.6904   -6.1712 C   0  0  0  0  0  0  0  0  0  0  0  0
    0.0502    1.0323   -7.0967 C   0  0  0  0  0  0  0  0  0  0  0  0
    0.9491    0.0665   -6.6825 C   0  0  0  0  0  0  0  0  0  0  0  0
    1.0615   -0.2441   -5.3375 C   0  0  0  0  0  0  0  0  0  0  0  0
    1.9446   -1.1945   -4.9288 O   0  0  0  0  0  0  0  0  0  0  0  0
    2.7255   -1.8327   -5.9412 C   0  0  0  0  0  0  0  0  0  0  0  0
   -1.7164    2.7415   -6.6292 C   0  0  0  0  0  0  0  0  0  0  0  0
   -1.6436    2.8718   -8.0202 F   0  0  0  0  0  0  0  0  0  0  0  0
   -3.0127    2.3633   -6.2634 F   0  0  0  0  0  0  0  0  0  0  0  0
   -1.4008    3.9652   -6.0290 F   0  0  0  0  0  0  0  0  0  0  0  0
   -0.5504   -3.7141   -2.7056 H   0  0  0  0  0  0  0  0  0  0  0  0
    0.4114   -2.3066   -3.2177 H   0  0  0  0  0  0  0  0  0  0  0  0
    1.1693   -3.6019   -2.2605 H   0  0  0  0  0  0  0  0  0  0  0  0
   -1.4429    0.5696   -0.0446 H   0  0  0  0  0  0  0  0  0  0  0  0
    1.0237   -5.4414    3.8589 H   0  0  0  0  0  0  0  0  0  0  0  0
    0.3841   -4.0646    4.5786 H   0  0  0  0  0  0  0  0  0  0  0  0
    1.8484   -5.4326   -0.8626 H   0  0  0  0  0  0  0  0  0  0  0  0
    0.4498   -4.9452   -1.6558 H   0  0  0  0  0  0  0  0  0  0  0  0
   -1.3458   -1.0816   -3.2110 H   0  0  0  0  0  0  0  0  0  0  0  0
   -1.5794    0.4683   -2.3674 H   0  0  0  0  0  0  0  0  0  0  0  0
    1.0974    0.9533   -1.2599 H   0  0  0  0  0  0  0  0  0  0  0  0
    1.7620    1.6614   -2.7516 H   0  0  0  0  0  0  0  0  0  0  0  0
    0.0942    2.0356   -2.2551 H   0  0  0  0  0  0  0  0  0  0  0  0
   -1.2559    1.8954   -4.1072 H   0  0  0  0  0  0  0  0  0  0  0  0
   -0.0362    1.2729   -8.1460 H   0  0  0  0  0  0  0  0  0  0  0  0
    1.5634   -0.4459   -7.4081 H   0  0  0  0  0  0  0  0  0  0  0  0
    3.3212   -1.0855   -6.4655 H   0  0  0  0  0  0  0  0  0  0  0  0
    3.3868   -2.5669   -5.4810 H   0  0  0  0  0  0  0  0  0  0  0  0
    2.0643   -2.3324   -6.6491 H   0  0  0  0  0  0  0  0  0  0  0  0
  1  2  1  0  0  0  0
  1 29  1  0  0  0  0
  1 30  1  0  0  0  0
  1 31  1  0  0  0  0
  2  7  2  0  0  0  0
  2  3  1  0  0  0  0
  3  4  2  0  0  0  0
  3 14  1  0  0  0  0
  4  5  1  0  0  0  0
  4 32  1  0  0  0  0
  5  6  2  0  0  0  0
  6 11  1  0  0  0  0
  6  7  1  0  0  0  0
  7  8  1  0  0  0  0
  8  9  2  0  0  0  0
  8 13  1  0  0  0  0
  9 10  1  0  0  0  0
 10 11  2  0  0  0  0
 10 12  1  0  0  0  0
 12 33  1  0  0  0  0
 12 34  1  0  0  0  0
 13 35  1  0  0  0  0
 13 36  1  0  0  0  0
 14 15  1  0  0  0  0
 14 37  1  0  0  0  0
 14 38  1  0  0  0  0
 15 16  1  0  0  0  0
 15 17  1  0  0  0  0
 16 39  1  0  0  0  0
 16 40  1  0  0  0  0
 16 41  1  0  0  0  0
 17 22  2  0  0  0  0
 17 18  1  0  0  0  0
 18 19  2  0  0  0  0
 18 42  1  0  0  0  0
 19 20  1  0  0  0  0
 19 25  1  0  0  0  0
 20 21  2  0  0  0  0
 20 43  1  0  0  0  0
 21 22  1  0  0  0  0
 21 44  1  0  0  0  0
 22 23  1  0  0  0  0
 23 24  1  0  0  0  0
 24 45  1  0  0  0  0
 24 46  1  0  0  0  0
 24 47  1  0  0  0  0
 25 26  1  0  0  0  0
 25 27  1  0  0  0  0
 25 28  1  0  0  0  0
M  END
$$$$
ZINC03815017
  -OEChem-08230709403D

 48 50  0     1  0  0  0  0  0999 V2000
    0.2529   -3.0342   -2.4217 C   0  0  0  0  0  0  0  0  0  0  0  0
   -0.1227   -2.3154   -1.1516 C   0  0  0  0  0  0  0  0  0  0  0  0
   -0.6691   -1.0590   -1.1872 C   0  0  0  0  0  0  0  0  0  0  0  0
   -1.0095   -0.4187   -0.0021 C   0  0  0  0  0  0  0  0  0  0  0  0
   -0.8158   -0.9822    1.1695 N   0  0  0  0  0  0  0  0  0  0  0  0
   -0.2843   -2.2007    1.2708 C   0  0  0  0  0  0  0  0  0  0  0  0
    0.0815   -2.9086    0.0993 C   0  0  0  0  0  0  0  0  0  0  0  0
    0.6446   -4.2015    0.2373 C   0  0  0  0  0  0  0  0  0  0  0  0
    0.8033   -4.6897    1.4593 N   0  0  0  0  0  0  0  0  0  0  0  0
    0.4464   -3.9918    2.5337 C   0  0  0  0  0  0  0  0  0  0  0  0
    0.6370   -4.5552    3.7810 N   0  0  0  0  0  0  0  0  0  0  0  0
    1.0177   -4.9318   -0.8695 N   0  0  0  0  0  0  0  0  0  0  0  0
   -0.9031   -0.3747   -2.5093 C   0  0  0  0  0  0  0  0  0  0  0  0
    0.3769    0.1090   -3.0436 N   0  0  2  0  0  0  0  0  0  0  0  0
    0.8640    1.2643   -2.2782 C   0  0  0  0  0  0  0  0  0  0  0  0
    0.2676    0.4188   -4.4042 C   0  0  0  0  0  0  0  0  0  0  0  0
   -0.6357    1.3828   -4.8276 C   0  0  0  0  0  0  0  0  0  0  0  0
   -0.7384    1.6904   -6.1712 C   0  0  0  0  0  0  0  0  0  0  0  0
    0.0502    1.0323   -7.0967 C   0  0  0  0  0  0  0  0  0  0  0  0
    0.9491    0.0665   -6.6825 C   0  0  0  0  0  0  0  0  0  0  0  0
    1.0615   -0.2441   -5.3375 C   0  0  0  0  0  0  0  0  0  0  0  0
    1.9446   -1.1945   -4.9288 O   0  0  0  0  0  0  0  0  0  0  0  0
    2.7255   -1.8327   -5.9412 C   0  0  0  0  0  0  0  0  0  0  0  0
   -1.7164    2.7415   -6.6292 C   0  0  0  0  0  0  0  0  0  0  0  0
   -1.6436    2.8718   -8.0202 F   0  0  0  0  0  0  0  0  0  0  0  0
   -3.0127    2.3633   -6.2634 F   0  0  0  0  0  0  0  0  0  0  0  0
   -1.4008    3.9652   -6.0290 F   0  0  0  0  0  0  0  0  0  0  0  0
   -0.5504   -3.7141   -2.7056 H   0  0  0  0  0  0  0  0  0  0  0  0
    0.4114   -2.3066   -3.2177 H   0  0  0  0  0  0  0  0  0  0  0  0
    1.1693   -3.6019   -2.2605 H   0  0  0  0  0  0  0  0  0  0  0  0
   -1.4429    0.5696   -0.0446 H   0  0  0  0  0  0  0  0  0  0  0  0
    1.0237   -5.4414    3.8589 H   0  0  0  0  0  0  0  0  0  0  0  0
    0.3841   -4.0646    4.5786 H   0  0  0  0  0  0  0  0  0  0  0  0
    1.8484   -5.4326   -0.8626 H   0  0  0  0  0  0  0  0  0  0  0  0
    0.4498   -4.9452   -1.6558 H   0  0  0  0  0  0  0  0  0  0  0  0
   -1.3458   -1.0816   -3.2110 H   0  0  0  0  0  0  0  0  0  0  0  0
   -1.5794    0.4683   -2.3674 H   0  0  0  0  0  0  0  0  0  0  0  0
    1.0974    0.9533   -1.2599 H   0  0  0  0  0  0  0  0  0  0  0  0
    1.7620    1.6614   -2.7516 H   0  0  0  0  0  0  0  0  0  0  0  0
    0.0942    2.0356   -2.2551 H   0  0  0  0  0  0  0  0  0  0  0  0
   -1.2559    1.8954   -4.1072 H   0  0  0  0  0  0  0  0  0  0  0  0
   -0.0362    1.2729   -8.1460 H   0  0  0  0  0  0  0  0  0  0  0  0
    1.5634   -0.4459   -7.4081 H   0  0  0  0  0  0  0  0  0  0  0  0
    3.3212   -1.0855   -6.4655 H   0  0  0  0  0  0  0  0  0  0  0  0
    3.3868   -2.5669   -5.4810 H   0  0  0  0  0  0  0  0  0  0  0  0
    2.0643   -2.3324   -6.6491 H   0  0  0  0  0  0  0  0  0  0  0  0
   -0.0995   -2.7498    2.5213 N   0  3  0  0  0  0  0  0  0  0  0  0
   -0.3368   -2.2994    3.3819 H   0  0  0  0  0  0  0  0  0  0  0  0
  1  2  1  0  0  0  0
  1 28  1  0  0  0  0
  1 29  1  0  0  0  0
  1 30  1  0  0  0  0
  2  7  2  0  0  0  0
  2  3  1  0  0  0  0
  3  4  2  0  0  0  0
  3 13  1  0  0  0  0
  4  5  1  0  0  0  0
  4 31  1  0  0  0  0
  5  6  2  0  0  0  0
  6  7  1  0  0  0  0
  6 47  1  0  0  0  0
  7  8  1  0  0  0  0
  8  9  2  0  0  0  0
  8 12  1  0  0  0  0
  9 10  1  0  0  0  0
 10 11  1  0  0  0  0
 10 47  2  0  0  0  0
 11 32  1  0  0  0  0
 11 33  1  0  0  0  0
 12 34  1  0  0  0  0
 12 35  1  0  0  0  0
 13 14  1  0  0  0  0
 13 36  1  0  0  0  0
 13 37  1  0  0  0  0
 14 15  1  0  0  0  0
 14 16  1  0  0  0  0
 15 38  1  0  0  0  0
 15 39  1  0  0  0  0
 15 40  1  0  0  0  0
 16 21  2  0  0  0  0
 16 17  1  0  0  0  0
 17 18  2  0  0  0  0
 17 41  1  0  0  0  0
 18 19  1  0  0  0  0
 18 24  1  0  0  0  0
 19 20  2  0  0  0  0
 19 42  1  0  0  0  0
 20 21  1  0  0  0  0
 20 43  1  0  0  0  0
 21 22  1  0  0  0  0
 22 23  1  0  0  0  0
 23 44  1  0  0  0  0
 23 45  1  0  0  0  0
 23 46  1  0  0  0  0
 24 25  1  0  0  0  0
 24 26  1  0  0  0  0
 24 27  1  0  0  0  0
 47 48  1  0  0  0  0
M  CHG  1  47   1
M  END
$$$$
ZINC03815018
  -OEChem-08230709403D

 46 49  0     1  0  0  0  0  0999 V2000
   -0.5865    7.4494    1.0377 C   0  0  0  0  0  0  0  0  0  0  0  0
   -1.8409    8.2290    0.7378 C   0  0  0  0  0  0  0  0  0  0  0  0
   -2.9372    7.6174    0.1881 C   0  0  0  0  0  0  0  0  0  0  0  0
   -4.0795    8.3596   -0.0846 C   0  0  0  0  0  0  0  0  0  0  0  0
   -4.1495    9.6451    0.1809 N   0  0  0  0  0  0  0  0  0  0  0  0
   -3.1170   10.2974    0.7156 C   0  0  0  0  0  0  0  0  0  0  0  0
   -1.9205    9.5990    1.0121 C   0  0  0  0  0  0  0  0  0  0  0  0
   -0.8397   10.3180    1.5803 C   0  0  0  0  0  0  0  0  0  0  0  0
   -0.9990   11.6139    1.8085 N   0  0  0  0  0  0  0  0  0  0  0  0
   -2.1395   12.2319    1.5153 C   0  0  0  0  0  0  0  0  0  0  0  0
   -3.1756   11.6094    0.9854 N   0  0  0  0  0  0  0  0  0  0  0  0
   -2.2441   13.5847    1.7764 N   0  0  0  0  0  0  0  0  0  0  0  0
    0.3457    9.6867    1.8870 N   0  0  0  0  0  0  0  0  0  0  0  0
   -2.9015    6.1438   -0.1257 C   0  0  0  0  0  0  0  0  0  0  0  0
   -2.0751    5.9171   -1.3189 N   0  0  2  0  0  0  0  0  0  0  0  0
   -2.7559    6.3957   -2.5294 C   0  0  0  0  0  0  0  0  0  0  0  0
   -1.7295    4.5728   -1.4388 C   0  0  0  0  0  0  0  0  0  0  0  0
   -2.7098    3.6104   -1.5572 C   0  0  0  0  0  0  0  0  0  0  0  0
   -2.3752    2.2651   -1.6766 C   0  0  0  0  0  0  0  0  0  0  0  0
   -1.0746    1.8617   -1.6804 C   0  0  0  0  0  0  0  0  0  0  0  0
   -0.0450    2.8113   -1.5683 C   0  0  0  0  0  0  0  0  0  0  0  0
   -0.3728    4.1836   -1.4397 C   0  0  0  0  0  0  0  0  0  0  0  0
    0.6567    5.1302   -1.3212 C   0  0  0  0  0  0  0  0  0  0  0  0
    1.9546    4.7185   -1.3254 C   0  0  0  0  0  0  0  0  0  0  0  0
    2.2781    3.3685   -1.4463 C   0  0  0  0  0  0  0  0  0  0  0  0
    1.3061    2.4230   -1.5632 C   0  0  0  0  0  0  0  0  0  0  0  0
    0.1210    7.5698    0.2172 H   0  0  0  0  0  0  0  0  0  0  0  0
   -0.1398    7.8206    1.9601 H   0  0  0  0  0  0  0  0  0  0  0  0
   -0.8334    6.3940    1.1526 H   0  0  0  0  0  0  0  0  0  0  0  0
   -4.9347    7.8662   -0.5223 H   0  0  0  0  0  0  0  0  0  0  0  0
   -1.4952   14.0629    2.1653 H   0  0  0  0  0  0  0  0  0  0  0  0
   -3.0665   14.0562    1.5707 H   0  0  0  0  0  0  0  0  0  0  0  0
    0.7268    9.0436    1.2689 H   0  0  0  0  0  0  0  0  0  0  0  0
    0.7992    9.8853    2.7211 H   0  0  0  0  0  0  0  0  0  0  0  0
   -3.9145    5.7875   -0.3123 H   0  0  0  0  0  0  0  0  0  0  0  0
   -2.4758    5.6026    0.7193 H   0  0  0  0  0  0  0  0  0  0  0  0
   -3.6588    5.8080   -2.6949 H   0  0  0  0  0  0  0  0  0  0  0  0
   -3.0231    7.4451   -2.4052 H   0  0  0  0  0  0  0  0  0  0  0  0
   -2.0909    6.2891   -3.3864 H   0  0  0  0  0  0  0  0  0  0  0  0
   -3.7491    3.9041   -1.5569 H   0  0  0  0  0  0  0  0  0  0  0  0
   -3.1600    1.5287   -1.7682 H   0  0  0  0  0  0  0  0  0  0  0  0
   -0.8345    0.8129   -1.7744 H   0  0  0  0  0  0  0  0  0  0  0  0
    0.4206    6.1798   -1.2267 H   0  0  0  0  0  0  0  0  0  0  0  0
    2.7448    5.4489   -1.2340 H   0  0  0  0  0  0  0  0  0  0  0  0
    3.3154    3.0680   -1.4476 H   0  0  0  0  0  0  0  0  0  0  0  0
    1.5715    1.3803   -1.6562 H   0  0  0  0  0  0  0  0  0  0  0  0
  1  2  1  0  0  0  0
  1 27  1  0  0  0  0
  1 28  1  0  0  0  0
  1 29  1  0  0  0  0
  2  7  2  0  0  0  0
  2  3  1  0  0  0  0
  3  4  2  0  0  0  0
  3 14  1  0  0  0  0
  4  5  1  0  0  0  0
  4 30  1  0  0  0  0
  5  6  2  0  0  0  0
  6 11  1  0  0  0  0
  6  7  1  0  0  0  0
  7  8  1  0  0  0  0
  8  9  2  0  0  0  0
  8 13  1  0  0  0  0
  9 10  1  0  0  0  0
 10 11  2  0  0  0  0
 10 12  1  0  0  0  0
 12 31  1  0  0  0  0
 12 32  1  0  0  0  0
 13 33  1  0  0  0  0
 13 34  1  0  0  0  0
 14 15  1  0  0  0  0
 14 35  1  0  0  0  0
 14 36  1  0  0  0  0
 15 16  1  0  0  0  0
 15 17  1  0  0  0  0
 16 37  1  0  0  0  0
 16 38  1  0  0  0  0
 16 39  1  0  0  0  0
 17 22  2  0  0  0  0
 17 18  1  0  0  0  0
 18 19  2  0  0  0  0
 18 40  1  0  0  0  0
 19 20  1  0  0  0  0
 19 41  1  0  0  0  0
 20 21  2  0  0  0  0
 20 42  1  0  0  0  0
 21 26  1  0  0  0  0
 21 22  1  0  0  0  0
 22 23  1  0  0  0  0
 23 24  2  0  0  0  0
 23 43  1  0  0  0  0
 24 25  1  0  0  0  0
 24 44  1  0  0  0  0
 25 26  2  0  0  0  0
 25 45  1  0  0  0  0
 26 46  1  0  0  0  0
M  END
$$$$
ZINC03815018
  -OEChem-08230709403D

 47 50  0     1  0  0  0  0  0999 V2000
   -0.5865    7.4494    1.0377 C   0  0  0  0  0  0  0  0  0  0  0  0
   -1.8409    8.2290    0.7378 C   0  0  0  0  0  0  0  0  0  0  0  0
   -2.9372    7.6174    0.1881 C   0  0  0  0  0  0  0  0  0  0  0  0
   -4.0795    8.3596   -0.0846 C   0  0  0  0  0  0  0  0  0  0  0  0
   -4.1495    9.6451    0.1809 N   0  0  0  0  0  0  0  0  0  0  0  0
   -3.1170   10.2974    0.7156 C   0  0  0  0  0  0  0  0  0  0  0  0
   -1.9205    9.5990    1.0121 C   0  0  0  0  0  0  0  0  0  0  0  0
   -0.8397   10.3180    1.5803 C   0  0  0  0  0  0  0  0  0  0  0  0
   -0.9990   11.6139    1.8085 N   0  0  0  0  0  0  0  0  0  0  0  0
   -2.1395   12.2319    1.5153 C   0  0  0  0  0  0  0  0  0  0  0  0
   -2.2441   13.5847    1.7764 N   0  0  0  0  0  0  0  0  0  0  0  0
    0.3457    9.6867    1.8870 N   0  0  0  0  0  0  0  0  0  0  0  0
   -2.9015    6.1438   -0.1257 C   0  0  0  0  0  0  0  0  0  0  0  0
   -2.0751    5.9171   -1.3189 N   0  0  2  0  0  0  0  0  0  0  0  0
   -2.7559    6.3957   -2.5294 C   0  0  0  0  0  0  0  0  0  0  0  0
   -1.7295    4.5728   -1.4388 C   0  0  0  0  0  0  0  0  0  0  0  0
   -2.7098    3.6104   -1.5572 C   0  0  0  0  0  0  0  0  0  0  0  0
   -2.3752    2.2651   -1.6766 C   0  0  0  0  0  0  0  0  0  0  0  0
   -1.0746    1.8617   -1.6804 C   0  0  0  0  0  0  0  0  0  0  0  0
   -0.0450    2.8113   -1.5683 C   0  0  0  0  0  0  0  0  0  0  0  0
   -0.3728    4.1836   -1.4397 C   0  0  0  0  0  0  0  0  0  0  0  0
    0.6567    5.1302   -1.3212 C   0  0  0  0  0  0  0  0  0  0  0  0
    1.9546    4.7185   -1.3254 C   0  0  0  0  0  0  0  0  0  0  0  0
    2.2781    3.3685   -1.4463 C   0  0  0  0  0  0  0  0  0  0  0  0
    1.3061    2.4230   -1.5632 C   0  0  0  0  0  0  0  0  0  0  0  0
    0.1210    7.5698    0.2172 H   0  0  0  0  0  0  0  0  0  0  0  0
   -0.1398    7.8206    1.9601 H   0  0  0  0  0  0  0  0  0  0  0  0
   -0.8334    6.3940    1.1526 H   0  0  0  0  0  0  0  0  0  0  0  0
   -4.9347    7.8662   -0.5223 H   0  0  0  0  0  0  0  0  0  0  0  0
   -1.4952   14.0629    2.1653 H   0  0  0  0  0  0  0  0  0  0  0  0
   -3.0665   14.0562    1.5707 H   0  0  0  0  0  0  0  0  0  0  0  0
    0.7268    9.0436    1.2689 H   0  0  0  0  0  0  0  0  0  0  0  0
    0.7992    9.8853    2.7211 H   0  0  0  0  0  0  0  0  0  0  0  0
   -3.9145    5.7875   -0.3123 H   0  0  0  0  0  0  0  0  0  0  0  0
   -2.4758    5.6026    0.7193 H   0  0  0  0  0  0  0  0  0  0  0  0
   -3.6588    5.8080   -2.6949 H   0  0  0  0  0  0  0  0  0  0  0  0
   -3.0231    7.4451   -2.4052 H   0  0  0  0  0  0  0  0  0  0  0  0
   -2.0909    6.2891   -3.3864 H   0  0  0  0  0  0  0  0  0  0  0  0
   -3.7491    3.9041   -1.5569 H   0  0  0  0  0  0  0  0  0  0  0  0
   -3.1600    1.5287   -1.7682 H   0  0  0  0  0  0  0  0  0  0  0  0
   -0.8345    0.8129   -1.7744 H   0  0  0  0  0  0  0  0  0  0  0  0
    0.4206    6.1798   -1.2267 H   0  0  0  0  0  0  0  0  0  0  0  0
    2.7448    5.4489   -1.2340 H   0  0  0  0  0  0  0  0  0  0  0  0
    3.3154    3.0680   -1.4476 H   0  0  0  0  0  0  0  0  0  0  0  0
    1.5715    1.3803   -1.6562 H   0  0  0  0  0  0  0  0  0  0  0  0
   -3.2358   11.6465    0.9709 N   0  3  0  0  0  0  0  0  0  0  0  0
   -4.0528   12.1919    0.7836 H   0  0  0  0  0  0  0  0  0  0  0  0
  1  2  1  0  0  0  0
  1 26  1  0  0  0  0
  1 27  1  0  0  0  0
  1 28  1  0  0  0  0
  2  7  2  0  0  0  0
  2  3  1  0  0  0  0
  3  4  2  0  0  0  0
  3 13  1  0  0  0  0
  4  5  1  0  0  0  0
  4 29  1  0  0  0  0
  5  6  2  0  0  0  0
  6  7  1  0  0  0  0
  6 46  1  0  0  0  0
  7  8  1  0  0  0  0
  8  9  2  0  0  0  0
  8 12  1  0  0  0  0
  9 10  1  0  0  0  0
 10 11  1  0  0  0  0
 10 46  2  0  0  0  0
 11 30  1  0  0  0  0
 11 31  1  0  0  0  0
 12 32  1  0  0  0  0
 12 33  1  0  0  0  0
 13 14  1  0  0  0  0
 13 34  1  0  0  0  0
 13 35  1  0  0  0  0
 14 15  1  0  0  0  0
 14 16  1  0  0  0  0
 15 36  1  0  0  0  0
 15 37  1  0  0  0  0
 15 38  1  0  0  0  0
 16 21  2  0  0  0  0
 16 17  1  0  0  0  0
 17 18  2  0  0  0  0
 17 39  1  0  0  0  0
 18 19  1  0  0  0  0
 18 40  1  0  0  0  0
 19 20  2  0  0  0  0
 19 41  1  0  0  0  0
 20 25  1  0  0  0  0
 20 21  1  0  0  0  0
 21 22  1  0  0  0  0
 22 23  2  0  0  0  0
 22 42  1  0  0  0  0
 23 24  1  0  0  0  0
 23 43  1  0  0  0  0
 24 25  2  0  0  0  0
 24 44  1  0  0  0  0
 25 45  1  0  0  0  0
 46 47  1  0  0  0  0
M  CHG  1  46   1
M  END
$$$$
ZINC03815019
  -OEChem-08230709403D

 40 43  0     0  0  0  0  0  0999 V2000
   -4.1952   -2.4512   -5.5286 C   0  0  0  0  0  0  0  0  0  0  0  0
   -3.0136   -1.7477   -5.3033 C   0  0  0  0  0  0  0  0  0  0  0  0
   -2.5763   -1.4999   -4.0379 C   0  0  0  0  0  0  0  0  0  0  0  0
   -3.3241   -1.9582   -2.9421 C   0  0  0  0  0  0  0  0  0  0  0  0
   -4.5255   -2.6736   -3.1699 C   0  0  0  0  0  0  0  0  0  0  0  0
   -4.9457   -2.9106   -4.4903 C   0  0  0  0  0  0  0  0  0  0  0  0
   -5.2748   -3.1341   -2.0739 C   0  0  0  0  0  0  0  0  0  0  0  0
   -4.8438   -2.8912   -0.8052 C   0  0  0  0  0  0  0  0  0  0  0  0
   -3.6634   -2.1934   -0.5687 C   0  0  0  0  0  0  0  0  0  0  0  0
   -2.9020   -1.7206   -1.6164 C   0  0  0  0  0  0  0  0  0  0  0  0
   -1.7237   -1.0197   -1.3689 N   0  0  0  0  0  0  0  0  0  0  0  0
   -1.2918   -0.7767    0.0097 C   0  0  0  0  0  0  0  0  0  0  0  0
    0.0021   -0.0041    0.0020 C   0  0  0  0  0  0  0  0  0  0  0  0
   -0.0165    1.3662    0.0096 C   0  0  0  0  0  0  0  0  0  0  0  0
    1.2097    2.0408    0.0015 C   0  0  0  0  0  0  0  0  0  0  0  0
    1.2916    3.4553    0.0092 C   0  0  0  0  0  0  0  0  0  0  0  0
    2.4933    4.0143    0.0016 N   0  0  0  0  0  0  0  0  0  0  0  0
    3.5989    3.2752   -0.0129 C   0  0  0  0  0  0  0  0  0  0  0  0
    3.5781    1.9556   -0.0201 N   0  0  0  0  0  0  0  0  0  0  0  0
    2.4128    1.2927   -0.0135 C   0  0  0  0  0  0  0  0  0  0  0  0
    2.3642   -0.0396   -0.0203 N   0  0  0  0  0  0  0  0  0  0  0  0
    1.2161   -0.6795   -0.0132 C   0  0  0  0  0  0  0  0  0  0  0  0
    4.8226    3.9169   -0.0201 N   0  0  0  0  0  0  0  0  0  0  0  0
    0.1521    4.2292    0.0237 N   0  0  0  0  0  0  0  0  0  0  0  0
   -4.5204   -2.6343   -6.5420 H   0  0  0  0  0  0  0  0  0  0  0  0
   -2.4360   -1.3942   -6.1447 H   0  0  0  0  0  0  0  0  0  0  0  0
   -1.6584   -0.9537   -3.8781 H   0  0  0  0  0  0  0  0  0  0  0  0
   -5.8595   -3.4540   -4.6799 H   0  0  0  0  0  0  0  0  0  0  0  0
   -6.1921   -3.6801   -2.2377 H   0  0  0  0  0  0  0  0  0  0  0  0
   -5.4260   -3.2489    0.0311 H   0  0  0  0  0  0  0  0  0  0  0  0
   -3.3416   -2.0175    0.4472 H   0  0  0  0  0  0  0  0  0  0  0  0
   -1.1893   -0.6925   -2.1094 H   0  0  0  0  0  0  0  0  0  0  0  0
   -1.1427   -1.7299    0.5171 H   0  0  0  0  0  0  0  0  0  0  0  0
   -2.0552   -0.2017    0.5337 H   0  0  0  0  0  0  0  0  0  0  0  0
   -0.9499    1.9096    0.0170 H   0  0  0  0  0  0  0  0  0  0  0  0
    1.2164   -1.7595   -0.0191 H   0  0  0  0  0  0  0  0  0  0  0  0
    5.6422    3.3981   -0.0303 H   0  0  0  0  0  0  0  0  0  0  0  0
    4.8621    4.8861   -0.0149 H   0  0  0  0  0  0  0  0  0  0  0  0
    0.2229    5.1966    0.0285 H   0  0  0  0  0  0  0  0  0  0  0  0
   -0.7211    3.8068    0.0291 H   0  0  0  0  0  0  0  0  0  0  0  0
  1  6  2  0  0  0  0
  1  2  1  0  0  0  0
  1 25  1  0  0  0  0
  2  3  2  0  0  0  0
  2 26  1  0  0  0  0
  3  4  1  0  0  0  0
  3 27  1  0  0  0  0
  4 10  2  0  0  0  0
  4  5  1  0  0  0  0
  5  6  1  0  0  0  0
  5  7  2  0  0  0  0
  6 28  1  0  0  0  0
  7  8  1  0  0  0  0
  7 29  1  0  0  0  0
  8  9  2  0  0  0  0
  8 30  1  0  0  0  0
  9 10  1  0  0  0  0
  9 31  1  0  0  0  0
 10 11  1  0  0  0  0
 11 12  1  0  0  0  0
 11 32  1  0  0  0  0
 12 13  1  0  0  0  0
 12 33  1  0  0  0  0
 12 34  1  0  0  0  0
 13 22  2  0  0  0  0
 13 14  1  0  0  0  0
 14 15  2  0  0  0  0
 14 35  1  0  0  0  0
 15 20  1  0  0  0  0
 15 16  1  0  0  0  0
 16 17  2  0  0  0  0
 16 24  1  0  0  0  0
 17 18  1  0  0  0  0
 18 19  2  0  0  0  0
 18 23  1  0  0  0  0
 19 20  1  0  0  0  0
 20 21  2  0  0  0  0
 21 22  1  0  0  0  0
 22 36  1  0  0  0  0
 23 37  1  0  0  0  0
 23 38  1  0  0  0  0
 24 39  1  0  0  0  0
 24 40  1  0  0  0  0
M  END
$$$$
ZINC03815019
  -OEChem-08230709403D

 41 44  0     0  0  0  0  0  0999 V2000
   -4.1952   -2.4512   -5.5286 C   0  0  0  0  0  0  0  0  0  0  0  0
   -3.0136   -1.7477   -5.3033 C   0  0  0  0  0  0  0  0  0  0  0  0
   -2.5763   -1.4999   -4.0379 C   0  0  0  0  0  0  0  0  0  0  0  0
   -3.3241   -1.9582   -2.9421 C   0  0  0  0  0  0  0  0  0  0  0  0
   -4.5255   -2.6736   -3.1699 C   0  0  0  0  0  0  0  0  0  0  0  0
   -4.9457   -2.9106   -4.4903 C   0  0  0  0  0  0  0  0  0  0  0  0
   -5.2748   -3.1341   -2.0739 C   0  0  0  0  0  0  0  0  0  0  0  0
   -4.8438   -2.8912   -0.8052 C   0  0  0  0  0  0  0  0  0  0  0  0
   -3.6634   -2.1934   -0.5687 C   0  0  0  0  0  0  0  0  0  0  0  0
   -2.9020   -1.7206   -1.6164 C   0  0  0  0  0  0  0  0  0  0  0  0
   -1.7237   -1.0197   -1.3689 N   0  0  0  0  0  0  0  0  0  0  0  0
   -1.2918   -0.7767    0.0097 C   0  0  0  0  0  0  0  0  0  0  0  0
    0.0021   -0.0041    0.0020 C   0  0  0  0  0  0  0  0  0  0  0  0
   -0.0165    1.3662    0.0096 C   0  0  0  0  0  0  0  0  0  0  0  0
    1.2097    2.0408    0.0015 C   0  0  0  0  0  0  0  0  0  0  0  0
    1.2916    3.4553    0.0092 C   0  0  0  0  0  0  0  0  0  0  0  0
    2.4933    4.0143    0.0016 N   0  0  0  0  0  0  0  0  0  0  0  0
    3.5989    3.2752   -0.0129 C   0  0  0  0  0  0  0  0  0  0  0  0
    2.4128    1.2927   -0.0135 C   0  0  0  0  0  0  0  0  0  0  0  0
    2.3642   -0.0396   -0.0203 N   0  0  0  0  0  0  0  0  0  0  0  0
    1.2161   -0.6795   -0.0132 C   0  0  0  0  0  0  0  0  0  0  0  0
    4.8226    3.9169   -0.0201 N   0  0  0  0  0  0  0  0  0  0  0  0
    0.1521    4.2292    0.0237 N   0  0  0  0  0  0  0  0  0  0  0  0
   -4.5204   -2.6343   -6.5420 H   0  0  0  0  0  0  0  0  0  0  0  0
   -2.4360   -1.3942   -6.1447 H   0  0  0  0  0  0  0  0  0  0  0  0
   -1.6584   -0.9537   -3.8781 H   0  0  0  0  0  0  0  0  0  0  0  0
   -5.8595   -3.4540   -4.6799 H   0  0  0  0  0  0  0  0  0  0  0  0
   -6.1921   -3.6801   -2.2377 H   0  0  0  0  0  0  0  0  0  0  0  0
   -5.4260   -3.2489    0.0311 H   0  0  0  0  0  0  0  0  0  0  0  0
   -3.3416   -2.0175    0.4472 H   0  0  0  0  0  0  0  0  0  0  0  0
   -1.1893   -0.6925   -2.1094 H   0  0  0  0  0  0  0  0  0  0  0  0
   -1.1427   -1.7299    0.5171 H   0  0  0  0  0  0  0  0  0  0  0  0
   -2.0552   -0.2017    0.5337 H   0  0  0  0  0  0  0  0  0  0  0  0
   -0.9499    1.9096    0.0170 H   0  0  0  0  0  0  0  0  0  0  0  0
    1.2164   -1.7595   -0.0191 H   0  0  0  0  0  0  0  0  0  0  0  0
    5.6422    3.3981   -0.0303 H   0  0  0  0  0  0  0  0  0  0  0  0
    4.8621    4.8861   -0.0149 H   0  0  0  0  0  0  0  0  0  0  0  0
    0.2229    5.1966    0.0285 H   0  0  0  0  0  0  0  0  0  0  0  0
   -0.7211    3.8068    0.0291 H   0  0  0  0  0  0  0  0  0  0  0  0
    3.6403    1.9191   -0.0209 N   0  3  0  0  0  0  0  0  0  0  0  0
    4.5212    1.4458   -0.0313 H   0  0  0  0  0  0  0  0  0  0  0  0
  1  6  2  0  0  0  0
  1  2  1  0  0  0  0
  1 24  1  0  0  0  0
  2  3  2  0  0  0  0
  2 25  1  0  0  0  0
  3  4  1  0  0  0  0
  3 26  1  0  0  0  0
  4 10  2  0  0  0  0
  4  5  1  0  0  0  0
  5  6  1  0  0  0  0
  5  7  2  0  0  0  0
  6 27  1  0  0  0  0
  7  8  1  0  0  0  0
  7 28  1  0  0  0  0
  8  9  2  0  0  0  0
  8 29  1  0  0  0  0
  9 10  1  0  0  0  0
  9 30  1  0  0  0  0
 10 11  1  0  0  0  0
 11 12  1  0  0  0  0
 11 31  1  0  0  0  0
 12 13  1  0  0  0  0
 12 32  1  0  0  0  0
 12 33  1  0  0  0  0
 13 21  2  0  0  0  0
 13 14  1  0  0  0  0
 14 15  2  0  0  0  0
 14 34  1  0  0  0  0
 15 19  1  0  0  0  0
 15 16  1  0  0  0  0
 16 17  2  0  0  0  0
 16 23  1  0  0  0  0
 17 18  1  0  0  0  0
 18 22  1  0  0  0  0
 18 40  2  0  0  0  0
 19 20  2  0  0  0  0
 19 40  1  0  0  0  0
 20 21  1  0  0  0  0
 21 35  1  0  0  0  0
 22 36  1  0  0  0  0
 22 37  1  0  0  0  0
 23 38  1  0  0  0  0
 23 39  1  0  0  0  0
 40 41  1  0  0  0  0
M  CHG  1  40   1
M  END
$$$$
ZINC03815020
  -OEChem-08230709403D

 34 36  0     0  0  0  0  0  0999 V2000
   -3.6693   -2.1966   -0.5551 C   0  0  0  0  0  0  0  0  0  0  0  0
   -4.8403   -2.8857   -0.8025 C   0  0  0  0  0  0  0  0  0  0  0  0
   -5.2479   -3.1149   -2.1049 C   0  0  0  0  0  0  0  0  0  0  0  0
   -4.4873   -2.6488   -3.1628 C   0  0  0  0  0  0  0  0  0  0  0  0
   -3.3185   -1.9538   -2.9212 C   0  0  0  0  0  0  0  0  0  0  0  0
   -2.9068   -1.7227   -1.6150 C   0  0  0  0  0  0  0  0  0  0  0  0
   -1.7247   -1.0197   -1.3676 N   0  0  0  0  0  0  0  0  0  0  0  0
   -1.2918   -0.7767    0.0107 C   0  0  0  0  0  0  0  0  0  0  0  0
    0.0021   -0.0041    0.0020 C   0  0  0  0  0  0  0  0  0  0  0  0
    1.1996   -0.6704   -0.0130 C   0  0  0  0  0  0  0  0  0  0  0  0
    2.3749    0.0892   -0.0201 C   0  0  0  0  0  0  0  0  0  0  0  0
    3.6591   -0.5094   -0.0352 C   0  0  0  0  0  0  0  0  0  0  0  0
    4.7211    0.2836   -0.0406 N   0  0  0  0  0  0  0  0  0  0  0  0
    4.5948    1.6074   -0.0322 C   0  0  0  0  0  0  0  0  0  0  0  0
    3.4232    2.2149   -0.0177 N   0  0  0  0  0  0  0  0  0  0  0  0
    2.2870    1.5033   -0.0117 C   0  0  0  0  0  0  0  0  0  0  0  0
    1.0911    2.0924    0.0029 N   0  0  0  0  0  0  0  0  0  0  0  0
   -0.0168    1.3851    0.0097 C   0  0  0  0  0  0  0  0  0  0  0  0
    5.7400    2.3806   -0.0385 N   0  0  0  0  0  0  0  0  0  0  0  0
    3.8001   -1.8797   -0.0435 N   0  0  0  0  0  0  0  0  0  0  0  0
   -6.7164   -3.9882   -2.4123 Cl  0  0  0  0  0  0  0  0  0  0  0  0
   -3.3490   -2.0226    0.4615 H   0  0  0  0  0  0  0  0  0  0  0  0
   -5.4363   -3.2500    0.0213 H   0  0  0  0  0  0  0  0  0  0  0  0
   -4.8080   -2.8285   -4.1783 H   0  0  0  0  0  0  0  0  0  0  0  0
   -2.7255   -1.5899   -3.7473 H   0  0  0  0  0  0  0  0  0  0  0  0
   -1.1909   -0.6925   -2.1085 H   0  0  0  0  0  0  0  0  0  0  0  0
   -1.1423   -1.7298    0.5180 H   0  0  0  0  0  0  0  0  0  0  0  0
   -2.0548   -0.2017    0.5353 H   0  0  0  0  0  0  0  0  0  0  0  0
    1.2351   -1.7498   -0.0195 H   0  0  0  0  0  0  0  0  0  0  0  0
   -0.9674    1.8977    0.0169 H   0  0  0  0  0  0  0  0  0  0  0  0
    6.6119    1.9557   -0.0487 H   0  0  0  0  0  0  0  0  0  0  0  0
    5.6720    3.3482   -0.0326 H   0  0  0  0  0  0  0  0  0  0  0  0
    3.0141   -2.4482   -0.0391 H   0  0  0  0  0  0  0  0  0  0  0  0
    4.6853   -2.2762   -0.0538 H   0  0  0  0  0  0  0  0  0  0  0  0
  1  6  2  0  0  0  0
  1  2  1  0  0  0  0
  1 22  1  0  0  0  0
  2  3  2  0  0  0  0
  2 23  1  0  0  0  0
  3  4  1  0  0  0  0
  3 21  1  0  0  0  0
  4  5  2  0  0  0  0
  4 24  1  0  0  0  0
  5  6  1  0  0  0  0
  5 25  1  0  0  0  0
  6  7  1  0  0  0  0
  7  8  1  0  0  0  0
  7 26  1  0  0  0  0
  8  9  1  0  0  0  0
  8 27  1  0  0  0  0
  8 28  1  0  0  0  0
  9 18  2  0  0  0  0
  9 10  1  0  0  0  0
 10 11  2  0  0  0  0
 10 29  1  0  0  0  0
 11 16  1  0  0  0  0
 11 12  1  0  0  0  0
 12 13  2  0  0  0  0
 12 20  1  0  0  0  0
 13 14  1  0  0  0  0
 14 15  2  0  0  0  0
 14 19  1  0  0  0  0
 15 16  1  0  0  0  0
 16 17  2  0  0  0  0
 17 18  1  0  0  0  0
 18 30  1  0  0  0  0
 19 31  1  0  0  0  0
 19 32  1  0  0  0  0
 20 33  1  0  0  0  0
 20 34  1  0  0  0  0
M  END
$$$$
ZINC03815020
  -OEChem-08230709403D

 35 37  0     0  0  0  0  0  0999 V2000
   -3.6693   -2.1966   -0.5551 C   0  0  0  0  0  0  0  0  0  0  0  0
   -4.8403   -2.8857   -0.8025 C   0  0  0  0  0  0  0  0  0  0  0  0
   -5.2479   -3.1149   -2.1049 C   0  0  0  0  0  0  0  0  0  0  0  0
   -4.4873   -2.6488   -3.1628 C   0  0  0  0  0  0  0  0  0  0  0  0
   -3.3185   -1.9538   -2.9212 C   0  0  0  0  0  0  0  0  0  0  0  0
   -2.9068   -1.7227   -1.6150 C   0  0  0  0  0  0  0  0  0  0  0  0
   -1.7247   -1.0197   -1.3676 N   0  0  0  0  0  0  0  0  0  0  0  0
   -1.2918   -0.7767    0.0107 C   0  0  0  0  0  0  0  0  0  0  0  0
    0.0021   -0.0041    0.0020 C   0  0  0  0  0  0  0  0  0  0  0  0
    1.1996   -0.6704   -0.0130 C   0  0  0  0  0  0  0  0  0  0  0  0
    2.3749    0.0892   -0.0201 C   0  0  0  0  0  0  0  0  0  0  0  0
    3.6591   -0.5094   -0.0352 C   0  0  0  0  0  0  0  0  0  0  0  0
    4.7211    0.2836   -0.0406 N   0  0  0  0  0  0  0  0  0  0  0  0
    4.5948    1.6074   -0.0322 C   0  0  0  0  0  0  0  0  0  0  0  0
    2.2870    1.5033   -0.0117 C   0  0  0  0  0  0  0  0  0  0  0  0
    1.0911    2.0924    0.0029 N   0  0  0  0  0  0  0  0  0  0  0  0
   -0.0168    1.3851    0.0097 C   0  0  0  0  0  0  0  0  0  0  0  0
    5.7400    2.3806   -0.0385 N   0  0  0  0  0  0  0  0  0  0  0  0
    3.8001   -1.8797   -0.0435 N   0  0  0  0  0  0  0  0  0  0  0  0
   -6.7164   -3.9882   -2.4123 Cl  0  0  0  0  0  0  0  0  0  0  0  0
   -3.3490   -2.0226    0.4615 H   0  0  0  0  0  0  0  0  0  0  0  0
   -5.4363   -3.2500    0.0213 H   0  0  0  0  0  0  0  0  0  0  0  0
   -4.8080   -2.8285   -4.1783 H   0  0  0  0  0  0  0  0  0  0  0  0
   -2.7255   -1.5899   -3.7473 H   0  0  0  0  0  0  0  0  0  0  0  0
   -1.1909   -0.6925   -2.1085 H   0  0  0  0  0  0  0  0  0  0  0  0
   -1.1423   -1.7298    0.5180 H   0  0  0  0  0  0  0  0  0  0  0  0
   -2.0548   -0.2017    0.5353 H   0  0  0  0  0  0  0  0  0  0  0  0
    1.2351   -1.7498   -0.0195 H   0  0  0  0  0  0  0  0  0  0  0  0
   -0.9674    1.8977    0.0169 H   0  0  0  0  0  0  0  0  0  0  0  0
    6.6119    1.9557   -0.0487 H   0  0  0  0  0  0  0  0  0  0  0  0
    5.6720    3.3482   -0.0326 H   0  0  0  0  0  0  0  0  0  0  0  0
    3.0141   -2.4482   -0.0391 H   0  0  0  0  0  0  0  0  0  0  0  0
    4.6853   -2.2762   -0.0538 H   0  0  0  0  0  0  0  0  0  0  0  0
    3.4206    2.2870   -0.0172 N   0  3  0  0  0  0  0  0  0  0  0  0
    3.4217    3.2870   -0.0110 H   0  0  0  0  0  0  0  0  0  0  0  0
  1  6  2  0  0  0  0
  1  2  1  0  0  0  0
  1 21  1  0  0  0  0
  2  3  2  0  0  0  0
  2 22  1  0  0  0  0
  3  4  1  0  0  0  0
  3 20  1  0  0  0  0
  4  5  2  0  0  0  0
  4 23  1  0  0  0  0
  5  6  1  0  0  0  0
  5 24  1  0  0  0  0
  6  7  1  0  0  0  0
  7  8  1  0  0  0  0
  7 25  1  0  0  0  0
  8  9  1  0  0  0  0
  8 26  1  0  0  0  0
  8 27  1  0  0  0  0
  9 17  2  0  0  0  0
  9 10  1  0  0  0  0
 10 11  2  0  0  0  0
 10 28  1  0  0  0  0
 11 15  1  0  0  0  0
 11 12  1  0  0  0  0
 12 13  2  0  0  0  0
 12 19  1  0  0  0  0
 13 14  1  0  0  0  0
 14 18  1  0  0  0  0
 14 34  2  0  0  0  0
 15 16  2  0  0  0  0
 15 34  1  0  0  0  0
 16 17  1  0  0  0  0
 17 29  1  0  0  0  0
 18 30  1  0  0  0  0
 18 31  1  0  0  0  0
 19 32  1  0  0  0  0
 19 33  1  0  0  0  0
 34 35  1  0  0  0  0
M  CHG  1  34   1
M  END
$$$$
ZINC03815021
  -OEChem-08230709403D

 46 48  0     0  0  0  0  0  0999 V2000
   -0.0127    1.0858    0.0080 C   0  0  0  0  0  0  0  0  0  0  0  0
   -0.6816    1.5467    1.1837 O   0  0  0  0  0  0  0  0  0  0  0  0
   -0.7875    2.8927    1.3463 C   0  0  0  0  0  0  0  0  0  0  0  0
   -0.2585    3.7497    0.3938 C   0  0  0  0  0  0  0  0  0  0  0  0
   -0.3668    5.1239    0.5594 C   0  0  0  0  0  0  0  0  0  0  0  0
   -1.0042    5.6407    1.6793 C   0  0  0  0  0  0  0  0  0  0  0  0
   -1.5332    4.7848    2.6328 C   0  0  0  0  0  0  0  0  0  0  0  0
   -1.4310    3.4092    2.4644 C   0  0  0  0  0  0  0  0  0  0  0  0
   -1.9563    2.5677    3.3975 O   0  0  0  0  0  0  0  0  0  0  0  0
   -1.1009    2.1770    4.4736 C   0  0  0  0  0  0  0  0  0  0  0  0
   -2.1575    5.2912    3.7297 O   0  0  0  0  0  0  0  0  0  0  0  0
   -2.2316    6.7144    3.8348 C   0  0  0  0  0  0  0  0  0  0  0  0
    0.1669    5.9883   -0.4025 N   0  0  0  0  0  0  0  0  0  0  0  0
    0.0528    7.4384   -0.2282 C   0  0  0  0  0  0  0  0  0  0  0  0
    0.7034    8.1373   -1.3940 C   0  0  0  0  0  0  0  0  0  0  0  0
    2.0313    8.4719   -1.3398 C   0  0  0  0  0  0  0  0  0  0  0  0
    2.5931    9.1159   -2.4481 C   0  0  0  0  0  0  0  0  0  0  0  0
    3.9576    9.4959   -2.4871 C   0  0  0  0  0  0  0  0  0  0  0  0
    4.4083   10.1056   -3.5741 N   0  0  0  0  0  0  0  0  0  0  0  0
    3.6085   10.3584   -4.6061 C   0  0  0  0  0  0  0  0  0  0  0  0
    2.3314   10.0258   -4.6208 N   0  0  0  0  0  0  0  0  0  0  0  0
    1.7772    9.4048   -3.5698 C   0  0  0  0  0  0  0  0  0  0  0  0
    0.4900    9.0577   -3.5594 N   0  0  0  0  0  0  0  0  0  0  0  0
   -0.0431    8.4487   -2.5236 C   0  0  0  0  0  0  0  0  0  0  0  0
    4.1378   10.9968   -5.7114 N   0  0  0  0  0  0  0  0  0  0  0  0
    4.7936    9.2387   -1.4228 N   0  0  0  0  0  0  0  0  0  0  0  0
    0.0021   -0.0041    0.0020 H   0  0  0  0  0  0  0  0  0  0  0  0
    1.0099    1.4631    0.0003 H   0  0  0  0  0  0  0  0  0  0  0  0
   -0.5399    1.4469   -0.8751 H   0  0  0  0  0  0  0  0  0  0  0  0
    0.2378    3.3484   -0.4774 H   0  0  0  0  0  0  0  0  0  0  0  0
   -1.0875    6.7097    1.8078 H   0  0  0  0  0  0  0  0  0  0  0  0
   -0.2267    1.6627    4.0745 H   0  0  0  0  0  0  0  0  0  0  0  0
   -0.7820    3.0622    5.0239 H   0  0  0  0  0  0  0  0  0  0  0  0
   -1.6417    1.5082    5.1431 H   0  0  0  0  0  0  0  0  0  0  0  0
   -2.7527    6.9843    4.7533 H   0  0  0  0  0  0  0  0  0  0  0  0
   -1.2243    7.1304    3.8529 H   0  0  0  0  0  0  0  0  0  0  0  0
   -2.7744    7.1142    2.9782 H   0  0  0  0  0  0  0  0  0  0  0  0
    0.6125    5.6274   -1.1849 H   0  0  0  0  0  0  0  0  0  0  0  0
   -1.0000    7.7167   -0.1792 H   0  0  0  0  0  0  0  0  0  0  0  0
    0.5499    7.7335    0.6959 H   0  0  0  0  0  0  0  0  0  0  0  0
    2.6274    8.2421   -0.4691 H   0  0  0  0  0  0  0  0  0  0  0  0
   -1.0895    8.1830   -2.5516 H   0  0  0  0  0  0  0  0  0  0  0  0
    3.5732   11.1911   -6.4759 H   0  0  0  0  0  0  0  0  0  0  0  0
    5.0739   11.2506   -5.7229 H   0  0  0  0  0  0  0  0  0  0  0  0
    5.7256    9.5046   -1.4629 H   0  0  0  0  0  0  0  0  0  0  0  0
    4.4503    8.7916   -0.6334 H   0  0  0  0  0  0  0  0  0  0  0  0
  1  2  1  0  0  0  0
  1 27  1  0  0  0  0
  1 28  1  0  0  0  0
  1 29  1  0  0  0  0
  2  3  1  0  0  0  0
  3  8  2  0  0  0  0
  3  4  1  0  0  0  0
  4  5  2  0  0  0  0
  4 30  1  0  0  0  0
  5  6  1  0  0  0  0
  5 13  1  0  0  0  0
  6  7  2  0  0  0  0
  6 31  1  0  0  0  0
  7  8  1  0  0  0  0
  7 11  1  0  0  0  0
  8  9  1  0  0  0  0
  9 10  1  0  0  0  0
 10 32  1  0  0  0  0
 10 33  1  0  0  0  0
 10 34  1  0  0  0  0
 11 12  1  0  0  0  0
 12 35  1  0  0  0  0
 12 36  1  0  0  0  0
 12 37  1  0  0  0  0
 13 14  1  0  0  0  0
 13 38  1  0  0  0  0
 14 15  1  0  0  0  0
 14 39  1  0  0  0  0
 14 40  1  0  0  0  0
 15 24  2  0  0  0  0
 15 16  1  0  0  0  0
 16 17  2  0  0  0  0
 16 41  1  0  0  0  0
 17 22  1  0  0  0  0
 17 18  1  0  0  0  0
 18 19  2  0  0  0  0
 18 26  1  0  0  0  0
 19 20  1  0  0  0  0
 20 21  2  0  0  0  0
 20 25  1  0  0  0  0
 21 22  1  0  0  0  0
 22 23  2  0  0  0  0
 23 24  1  0  0  0  0
 24 42  1  0  0  0  0
 25 43  1  0  0  0  0
 25 44  1  0  0  0  0
 26 45  1  0  0  0  0
 26 46  1  0  0  0  0
M  END
$$$$
ZINC03815021
  -OEChem-08230709403D

 47 49  0     0  0  0  0  0  0999 V2000
   -0.0127    1.0858    0.0080 C   0  0  0  0  0  0  0  0  0  0  0  0
   -0.6816    1.5467    1.1837 O   0  0  0  0  0  0  0  0  0  0  0  0
   -0.7875    2.8927    1.3463 C   0  0  0  0  0  0  0  0  0  0  0  0
   -0.2585    3.7497    0.3938 C   0  0  0  0  0  0  0  0  0  0  0  0
   -0.3668    5.1239    0.5594 C   0  0  0  0  0  0  0  0  0  0  0  0
   -1.0042    5.6407    1.6793 C   0  0  0  0  0  0  0  0  0  0  0  0
   -1.5332    4.7848    2.6328 C   0  0  0  0  0  0  0  0  0  0  0  0
   -1.4310    3.4092    2.4644 C   0  0  0  0  0  0  0  0  0  0  0  0
   -1.9563    2.5677    3.3975 O   0  0  0  0  0  0  0  0  0  0  0  0
   -1.1009    2.1770    4.4736 C   0  0  0  0  0  0  0  0  0  0  0  0
   -2.1575    5.2912    3.7297 O   0  0  0  0  0  0  0  0  0  0  0  0
   -2.2316    6.7144    3.8348 C   0  0  0  0  0  0  0  0  0  0  0  0
    0.1669    5.9883   -0.4025 N   0  0  0  0  0  0  0  0  0  0  0  0
    0.0528    7.4384   -0.2282 C   0  0  0  0  0  0  0  0  0  0  0  0
    0.7034    8.1373   -1.3940 C   0  0  0  0  0  0  0  0  0  0  0  0
    2.0313    8.4719   -1.3398 C   0  0  0  0  0  0  0  0  0  0  0  0
    2.5931    9.1159   -2.4481 C   0  0  0  0  0  0  0  0  0  0  0  0
    3.9576    9.4959   -2.4871 C   0  0  0  0  0  0  0  0  0  0  0  0
    4.4083   10.1056   -3.5741 N   0  0  0  0  0  0  0  0  0  0  0  0
    3.6085   10.3584   -4.6061 C   0  0  0  0  0  0  0  0  0  0  0  0
    1.7772    9.4048   -3.5698 C   0  0  0  0  0  0  0  0  0  0  0  0
    0.4900    9.0577   -3.5594 N   0  0  0  0  0  0  0  0  0  0  0  0
   -0.0431    8.4487   -2.5236 C   0  0  0  0  0  0  0  0  0  0  0  0
    4.1378   10.9968   -5.7114 N   0  0  0  0  0  0  0  0  0  0  0  0
    4.7936    9.2387   -1.4228 N   0  0  0  0  0  0  0  0  0  0  0  0
    0.0021   -0.0041    0.0020 H   0  0  0  0  0  0  0  0  0  0  0  0
    1.0099    1.4631    0.0003 H   0  0  0  0  0  0  0  0  0  0  0  0
   -0.5399    1.4469   -0.8751 H   0  0  0  0  0  0  0  0  0  0  0  0
    0.2378    3.3484   -0.4774 H   0  0  0  0  0  0  0  0  0  0  0  0
   -1.0875    6.7097    1.8078 H   0  0  0  0  0  0  0  0  0  0  0  0
   -0.2267    1.6627    4.0745 H   0  0  0  0  0  0  0  0  0  0  0  0
   -0.7820    3.0622    5.0239 H   0  0  0  0  0  0  0  0  0  0  0  0
   -1.6417    1.5082    5.1431 H   0  0  0  0  0  0  0  0  0  0  0  0
   -2.7527    6.9843    4.7533 H   0  0  0  0  0  0  0  0  0  0  0  0
   -1.2243    7.1304    3.8529 H   0  0  0  0  0  0  0  0  0  0  0  0
   -2.7744    7.1142    2.9782 H   0  0  0  0  0  0  0  0  0  0  0  0
    0.6125    5.6274   -1.1849 H   0  0  0  0  0  0  0  0  0  0  0  0
   -1.0000    7.7167   -0.1792 H   0  0  0  0  0  0  0  0  0  0  0  0
    0.5499    7.7335    0.6959 H   0  0  0  0  0  0  0  0  0  0  0  0
    2.6274    8.2421   -0.4691 H   0  0  0  0  0  0  0  0  0  0  0  0
   -1.0895    8.1830   -2.5516 H   0  0  0  0  0  0  0  0  0  0  0  0
    3.5732   11.1911   -6.4759 H   0  0  0  0  0  0  0  0  0  0  0  0
    5.0739   11.2506   -5.7229 H   0  0  0  0  0  0  0  0  0  0  0  0
    5.7256    9.5046   -1.4629 H   0  0  0  0  0  0  0  0  0  0  0  0
    4.4503    8.7916   -0.6334 H   0  0  0  0  0  0  0  0  0  0  0  0
    2.2913   10.0413   -4.6788 N   0  3  0  0  0  0  0  0  0  0  0  0
    1.7661   10.2711   -5.4981 H   0  0  0  0  0  0  0  0  0  0  0  0
  1  2  1  0  0  0  0
  1 26  1  0  0  0  0
  1 27  1  0  0  0  0
  1 28  1  0  0  0  0
  2  3  1  0  0  0  0
  3  8  2  0  0  0  0
  3  4  1  0  0  0  0
  4  5  2  0  0  0  0
  4 29  1  0  0  0  0
  5  6  1  0  0  0  0
  5 13  1  0  0  0  0
  6  7  2  0  0  0  0
  6 30  1  0  0  0  0
  7  8  1  0  0  0  0
  7 11  1  0  0  0  0
  8  9  1  0  0  0  0
  9 10  1  0  0  0  0
 10 31  1  0  0  0  0
 10 32  1  0  0  0  0
 10 33  1  0  0  0  0
 11 12  1  0  0  0  0
 12 34  1  0  0  0  0
 12 35  1  0  0  0  0
 12 36  1  0  0  0  0
 13 14  1  0  0  0  0
 13 37  1  0  0  0  0
 14 15  1  0  0  0  0
 14 38  1  0  0  0  0
 14 39  1  0  0  0  0
 15 23  2  0  0  0  0
 15 16  1  0  0  0  0
 16 17  2  0  0  0  0
 16 40  1  0  0  0  0
 17 21  1  0  0  0  0
 17 18  1  0  0  0  0
 18 19  2  0  0  0  0
 18 25  1  0  0  0  0
 19 20  1  0  0  0  0
 20 24  1  0  0  0  0
 20 46  2  0  0  0  0
 21 22  2  0  0  0  0
 21 46  1  0  0  0  0
 22 23  1  0  0  0  0
 23 41  1  0  0  0  0
 24 42  1  0  0  0  0
 24 43  1  0  0  0  0
 25 44  1  0  0  0  0
 25 45  1  0  0  0  0
 46 47  1  0  0  0  0
M  CHG  1  46   1
M  END
$$$$
ZINC03815022
  -OEChem-08230709403D

 35 37  0     0  0  0  0  0  0999 V2000
    0.0021   -0.0041    0.0020 C   0  0  0  0  0  0  0  0  0  0  0  0
   -0.0167    1.3769    0.0096 C   0  0  0  0  0  0  0  0  0  0  0  0
    1.1715    2.0863    0.0021 C   0  0  0  0  0  0  0  0  0  0  0  0
    2.3813    1.4147   -0.0130 C   0  0  0  0  0  0  0  0  0  0  0  0
    2.4059    0.0338   -0.0207 C   0  0  0  0  0  0  0  0  0  0  0  0
    1.2149   -0.6808   -0.0132 C   0  0  0  0  0  0  0  0  0  0  0  0
    1.2369   -2.0780   -0.0214 N   0  0  0  0  0  0  0  0  0  0  0  0
    2.5169   -2.7904   -0.0374 C   0  0  0  0  0  0  0  0  0  0  0  0
    2.2649   -4.2762   -0.0435 C   0  0  0  0  0  0  0  0  0  0  0  0
    2.1671   -4.9608    1.1644 C   0  0  0  0  0  0  0  0  0  0  0  0
    1.9347   -6.3039    1.1936 C   0  0  0  0  0  0  0  0  0  0  0  0
    1.8025   -7.0098   -0.0101 C   0  0  0  0  0  0  0  0  0  0  0  0
    1.9077   -6.3121   -1.2379 C   0  0  0  0  0  0  0  0  0  0  0  0
    2.1413   -4.9327   -1.2329 C   0  0  0  0  0  0  0  0  0  0  0  0
    1.7703   -7.0466   -2.4421 C   0  0  0  0  0  0  0  0  0  0  0  0
    1.5500   -8.3506   -2.3611 N   0  0  0  0  0  0  0  0  0  0  0  0
    1.4580   -8.9667   -1.1860 C   0  0  0  0  0  0  0  0  0  0  0  0
    1.5775   -8.3317   -0.0356 N   0  0  0  0  0  0  0  0  0  0  0  0
    1.2268  -10.3303   -1.1692 N   0  0  0  0  0  0  0  0  0  0  0  0
    1.8631   -6.4203   -3.6665 N   0  0  0  0  0  0  0  0  0  0  0  0
    1.1442    3.8220    0.0116 Cl  0  0  0  0  0  0  0  0  0  0  0  0
   -0.9255   -0.5572    0.0082 H   0  0  0  0  0  0  0  0  0  0  0  0
   -0.9595    1.9036    0.0169 H   0  0  0  0  0  0  0  0  0  0  0  0
    3.3070    1.9708   -0.0189 H   0  0  0  0  0  0  0  0  0  0  0  0
    3.3504   -0.4898   -0.0321 H   0  0  0  0  0  0  0  0  0  0  0  0
    0.4046   -2.5762   -0.0164 H   0  0  0  0  0  0  0  0  0  0  0  0
    3.0759   -2.5130   -0.9311 H   0  0  0  0  0  0  0  0  0  0  0  0
    3.0926   -2.5232    0.8488 H   0  0  0  0  0  0  0  0  0  0  0  0
    2.2727   -4.4192    2.0927 H   0  0  0  0  0  0  0  0  0  0  0  0
    1.8573   -6.8215    2.1383 H   0  0  0  0  0  0  0  0  0  0  0  0
    2.2234   -4.3916   -2.1639 H   0  0  0  0  0  0  0  0  0  0  0  0
    1.1354  -10.8170   -2.0032 H   0  0  0  0  0  0  0  0  0  0  0  0
    1.1562  -10.7998   -0.3233 H   0  0  0  0  0  0  0  0  0  0  0  0
    2.0244   -5.4649   -3.7115 H   0  0  0  0  0  0  0  0  0  0  0  0
    1.7671   -6.9350   -4.4830 H   0  0  0  0  0  0  0  0  0  0  0  0
  1  6  2  0  0  0  0
  1  2  1  0  0  0  0
  1 22  1  0  0  0  0
  2  3  2  0  0  0  0
  2 23  1  0  0  0  0
  3  4  1  0  0  0  0
  3 21  1  0  0  0  0
  4  5  2  0  0  0  0
  4 24  1  0  0  0  0
  5  6  1  0  0  0  0
  5 25  1  0  0  0  0
  6  7  1  0  0  0  0
  7  8  1  0  0  0  0
  7 26  1  0  0  0  0
  8  9  1  0  0  0  0
  8 27  1  0  0  0  0
  8 28  1  0  0  0  0
  9 14  2  0  0  0  0
  9 10  1  0  0  0  0
 10 11  2  0  0  0  0
 10 29  1  0  0  0  0
 11 12  1  0  0  0  0
 11 30  1  0  0  0  0
 12 18  2  0  0  0  0
 12 13  1  0  0  0  0
 13 14  1  0  0  0  0
 13 15  2  0  0  0  0
 14 31  1  0  0  0  0
 15 16  1  0  0  0  0
 15 20  1  0  0  0  0
 16 17  2  0  0  0  0
 17 18  1  0  0  0  0
 17 19  1  0  0  0  0
 19 32  1  0  0  0  0
 19 33  1  0  0  0  0
 20 34  1  0  0  0  0
 20 35  1  0  0  0  0
M  END
$$$$
ZINC03815022
  -OEChem-08230709403D

 36 38  0     0  0  0  0  0  0999 V2000
    0.0021   -0.0041    0.0020 C   0  0  0  0  0  0  0  0  0  0  0  0
   -0.0167    1.3769    0.0096 C   0  0  0  0  0  0  0  0  0  0  0  0
    1.1715    2.0863    0.0021 C   0  0  0  0  0  0  0  0  0  0  0  0
    2.3813    1.4147   -0.0130 C   0  0  0  0  0  0  0  0  0  0  0  0
    2.4059    0.0338   -0.0207 C   0  0  0  0  0  0  0  0  0  0  0  0
    1.2149   -0.6808   -0.0132 C   0  0  0  0  0  0  0  0  0  0  0  0
    1.2369   -2.0780   -0.0214 N   0  0  0  0  0  0  0  0  0  0  0  0
    2.5169   -2.7904   -0.0374 C   0  0  0  0  0  0  0  0  0  0  0  0
    2.2649   -4.2762   -0.0435 C   0  0  0  0  0  0  0  0  0  0  0  0
    2.1671   -4.9608    1.1644 C   0  0  0  0  0  0  0  0  0  0  0  0
    1.9347   -6.3039    1.1936 C   0  0  0  0  0  0  0  0  0  0  0  0
    1.8025   -7.0098   -0.0101 C   0  0  0  0  0  0  0  0  0  0  0  0
    1.9077   -6.3121   -1.2379 C   0  0  0  0  0  0  0  0  0  0  0  0
    2.1413   -4.9327   -1.2329 C   0  0  0  0  0  0  0  0  0  0  0  0
    1.7703   -7.0466   -2.4421 C   0  0  0  0  0  0  0  0  0  0  0  0
    1.5500   -8.3506   -2.3611 N   0  0  0  0  0  0  0  0  0  0  0  0
    1.4580   -8.9667   -1.1860 C   0  0  0  0  0  0  0  0  0  0  0  0
    1.2268  -10.3303   -1.1692 N   0  0  0  0  0  0  0  0  0  0  0  0
    1.8631   -6.4203   -3.6665 N   0  0  0  0  0  0  0  0  0  0  0  0
    1.1442    3.8220    0.0116 Cl  0  0  0  0  0  0  0  0  0  0  0  0
   -0.9255   -0.5572    0.0082 H   0  0  0  0  0  0  0  0  0  0  0  0
   -0.9595    1.9036    0.0169 H   0  0  0  0  0  0  0  0  0  0  0  0
    3.3070    1.9708   -0.0189 H   0  0  0  0  0  0  0  0  0  0  0  0
    3.3504   -0.4898   -0.0321 H   0  0  0  0  0  0  0  0  0  0  0  0
    0.4046   -2.5762   -0.0164 H   0  0  0  0  0  0  0  0  0  0  0  0
    3.0759   -2.5130   -0.9311 H   0  0  0  0  0  0  0  0  0  0  0  0
    3.0926   -2.5232    0.8488 H   0  0  0  0  0  0  0  0  0  0  0  0
    2.2727   -4.4192    2.0927 H   0  0  0  0  0  0  0  0  0  0  0  0
    1.8573   -6.8215    2.1383 H   0  0  0  0  0  0  0  0  0  0  0  0
    2.2234   -4.3916   -2.1639 H   0  0  0  0  0  0  0  0  0  0  0  0
    1.1354  -10.8170   -2.0032 H   0  0  0  0  0  0  0  0  0  0  0  0
    1.1562  -10.7998   -0.3233 H   0  0  0  0  0  0  0  0  0  0  0  0
    2.0244   -5.4649   -3.7115 H   0  0  0  0  0  0  0  0  0  0  0  0
    1.7671   -6.9350   -4.4830 H   0  0  0  0  0  0  0  0  0  0  0  0
    1.5719   -8.3681    0.0255 N   0  3  0  0  0  0  0  0  0  0  0  0
    1.5005   -8.8403    0.9040 H   0  0  0  0  0  0  0  0  0  0  0  0
  1  6  2  0  0  0  0
  1  2  1  0  0  0  0
  1 21  1  0  0  0  0
  2  3  2  0  0  0  0
  2 22  1  0  0  0  0
  3  4  1  0  0  0  0
  3 20  1  0  0  0  0
  4  5  2  0  0  0  0
  4 23  1  0  0  0  0
  5  6  1  0  0  0  0
  5 24  1  0  0  0  0
  6  7  1  0  0  0  0
  7  8  1  0  0  0  0
  7 25  1  0  0  0  0
  8  9  1  0  0  0  0
  8 26  1  0  0  0  0
  8 27  1  0  0  0  0
  9 14  2  0  0  0  0
  9 10  1  0  0  0  0
 10 11  2  0  0  0  0
 10 28  1  0  0  0  0
 11 12  1  0  0  0  0
 11 29  1  0  0  0  0
 12 13  2  0  0  0  0
 12 35  1  0  0  0  0
 13 14  1  0  0  0  0
 13 15  1  0  0  0  0
 14 30  1  0  0  0  0
 15 16  2  0  0  0  0
 15 19  1  0  0  0  0
 16 17  1  0  0  0  0
 17 18  1  0  0  0  0
 17 35  2  0  0  0  0
 18 31  1  0  0  0  0
 18 32  1  0  0  0  0
 19 33  1  0  0  0  0
 19 34  1  0  0  0  0
 35 36  1  0  0  0  0
M  CHG  1  35   1
M  END
$$$$
ZINC03815023
  -OEChem-08230709403D

 38 40  0     0  0  0  0  0  0999 V2000
   -2.5524    3.8832    0.0458 C   0  0  0  0  0  0  0  0  0  0  0  0
   -1.2396    3.1433    0.0298 C   0  0  0  0  0  0  0  0  0  0  0  0
   -0.0503    3.8456    0.0222 C   0  0  0  0  0  0  0  0  0  0  0  0
    1.1554    3.1670    0.0071 C   0  0  0  0  0  0  0  0  0  0  0  0
    1.1734    1.7831    0.0004 C   0  0  0  0  0  0  0  0  0  0  0  0
   -0.0126    1.0758    0.0080 C   0  0  0  0  0  0  0  0  0  0  0  0
   -1.2246    1.7546    0.0174 C   0  0  0  0  0  0  0  0  0  0  0  0
   -2.4263    1.0415    0.0192 N   0  0  0  0  0  0  0  0  0  0  0  0
   -2.4088   -0.4234    0.0111 C   0  0  0  0  0  0  0  0  0  0  0  0
   -3.8235   -0.9427    0.0150 C   0  0  0  0  0  0  0  0  0  0  0  0
   -4.4602   -1.1913    1.2275 C   0  0  0  0  0  0  0  0  0  0  0  0
   -5.7411   -1.6565    1.2657 C   0  0  0  0  0  0  0  0  0  0  0  0
   -6.4254   -1.8991    0.0668 C   0  0  0  0  0  0  0  0  0  0  0  0
   -5.7738   -1.6506   -1.1657 C   0  0  0  0  0  0  0  0  0  0  0  0
   -4.4607   -1.1681   -1.1699 C   0  0  0  0  0  0  0  0  0  0  0  0
   -6.4856   -1.9029   -2.3650 C   0  0  0  0  0  0  0  0  0  0  0  0
   -7.7264   -2.3590   -2.2752 N   0  0  0  0  0  0  0  0  0  0  0  0
   -8.3009   -2.5787   -1.0960 C   0  0  0  0  0  0  0  0  0  0  0  0
   -7.6846   -2.3607    0.0501 N   0  0  0  0  0  0  0  0  0  0  0  0
   -9.5990   -3.0553   -1.0700 N   0  0  0  0  0  0  0  0  0  0  0  0
   -5.9022   -1.6791   -3.5935 N   0  0  0  0  0  0  0  0  0  0  0  0
    2.6482    4.0529   -0.0030 Cl  0  0  0  0  0  0  0  0  0  0  0  0
   -2.8785    4.0667   -0.9779 H   0  0  0  0  0  0  0  0  0  0  0  0
   -3.3011    3.2836    0.5637 H   0  0  0  0  0  0  0  0  0  0  0  0
   -2.4271    4.8343    0.5633 H   0  0  0  0  0  0  0  0  0  0  0  0
   -0.0614    4.9256    0.0278 H   0  0  0  0  0  0  0  0  0  0  0  0
    2.1159    1.2559   -0.0110 H   0  0  0  0  0  0  0  0  0  0  0  0
    0.0021   -0.0041    0.0020 H   0  0  0  0  0  0  0  0  0  0  0  0
   -3.2721    1.5164    0.0257 H   0  0  0  0  0  0  0  0  0  0  0  0
   -1.8949   -0.7757   -0.8832 H   0  0  0  0  0  0  0  0  0  0  0  0
   -1.8865   -0.7854    0.8967 H   0  0  0  0  0  0  0  0  0  0  0  0
   -3.9330   -1.0087    2.1522 H   0  0  0  0  0  0  0  0  0  0  0  0
   -6.2240   -1.8414    2.2139 H   0  0  0  0  0  0  0  0  0  0  0  0
   -3.9550   -0.9758   -2.1046 H   0  0  0  0  0  0  0  0  0  0  0  0
  -10.0711   -3.2223   -1.9007 H   0  0  0  0  0  0  0  0  0  0  0  0
  -10.0373   -3.2225   -0.2210 H   0  0  0  0  0  0  0  0  0  0  0  0
   -4.9931   -1.3447   -3.6450 H   0  0  0  0  0  0  0  0  0  0  0  0
   -6.4006   -1.8559   -4.4066 H   0  0  0  0  0  0  0  0  0  0  0  0
  1  2  1  0  0  0  0
  1 23  1  0  0  0  0
  1 24  1  0  0  0  0
  1 25  1  0  0  0  0
  2  7  2  0  0  0  0
  2  3  1  0  0  0  0
  3  4  2  0  0  0  0
  3 26  1  0  0  0  0
  4  5  1  0  0  0  0
  4 22  1  0  0  0  0
  5  6  2  0  0  0  0
  5 27  1  0  0  0  0
  6  7  1  0  0  0  0
  6 28  1  0  0  0  0
  7  8  1  0  0  0  0
  8  9  1  0  0  0  0
  8 29  1  0  0  0  0
  9 10  1  0  0  0  0
  9 30  1  0  0  0  0
  9 31  1  0  0  0  0
 10 15  2  0  0  0  0
 10 11  1  0  0  0  0
 11 12  2  0  0  0  0
 11 32  1  0  0  0  0
 12 13  1  0  0  0  0
 12 33  1  0  0  0  0
 13 19  2  0  0  0  0
 13 14  1  0  0  0  0
 14 15  1  0  0  0  0
 14 16  2  0  0  0  0
 15 34  1  0  0  0  0
 16 17  1  0  0  0  0
 16 21  1  0  0  0  0
 17 18  2  0  0  0  0
 18 19  1  0  0  0  0
 18 20  1  0  0  0  0
 20 35  1  0  0  0  0
 20 36  1  0  0  0  0
 21 37  1  0  0  0  0
 21 38  1  0  0  0  0
M  END
$$$$
ZINC03815023
  -OEChem-08230709403D

 39 41  0     0  0  0  0  0  0999 V2000
   -2.5524    3.8832    0.0458 C   0  0  0  0  0  0  0  0  0  0  0  0
   -1.2396    3.1433    0.0298 C   0  0  0  0  0  0  0  0  0  0  0  0
   -0.0503    3.8456    0.0222 C   0  0  0  0  0  0  0  0  0  0  0  0
    1.1554    3.1670    0.0071 C   0  0  0  0  0  0  0  0  0  0  0  0
    1.1734    1.7831    0.0004 C   0  0  0  0  0  0  0  0  0  0  0  0
   -0.0126    1.0758    0.0080 C   0  0  0  0  0  0  0  0  0  0  0  0
   -1.2246    1.7546    0.0174 C   0  0  0  0  0  0  0  0  0  0  0  0
   -2.4263    1.0415    0.0192 N   0  0  0  0  0  0  0  0  0  0  0  0
   -2.4088   -0.4234    0.0111 C   0  0  0  0  0  0  0  0  0  0  0  0
   -3.8235   -0.9427    0.0150 C   0  0  0  0  0  0  0  0  0  0  0  0
   -4.4602   -1.1913    1.2275 C   0  0  0  0  0  0  0  0  0  0  0  0
   -5.7411   -1.6565    1.2657 C   0  0  0  0  0  0  0  0  0  0  0  0
   -6.4254   -1.8991    0.0668 C   0  0  0  0  0  0  0  0  0  0  0  0
   -5.7738   -1.6506   -1.1657 C   0  0  0  0  0  0  0  0  0  0  0  0
   -4.4607   -1.1681   -1.1699 C   0  0  0  0  0  0  0  0  0  0  0  0
   -6.4856   -1.9029   -2.3650 C   0  0  0  0  0  0  0  0  0  0  0  0
   -7.7264   -2.3590   -2.2752 N   0  0  0  0  0  0  0  0  0  0  0  0
   -8.3009   -2.5787   -1.0960 C   0  0  0  0  0  0  0  0  0  0  0  0
   -9.5990   -3.0553   -1.0700 N   0  0  0  0  0  0  0  0  0  0  0  0
   -5.9022   -1.6791   -3.5935 N   0  0  0  0  0  0  0  0  0  0  0  0
    2.6482    4.0529   -0.0030 Cl  0  0  0  0  0  0  0  0  0  0  0  0
   -2.8785    4.0667   -0.9779 H   0  0  0  0  0  0  0  0  0  0  0  0
   -3.3011    3.2836    0.5637 H   0  0  0  0  0  0  0  0  0  0  0  0
   -2.4271    4.8343    0.5633 H   0  0  0  0  0  0  0  0  0  0  0  0
   -0.0614    4.9256    0.0278 H   0  0  0  0  0  0  0  0  0  0  0  0
    2.1159    1.2559   -0.0110 H   0  0  0  0  0  0  0  0  0  0  0  0
    0.0021   -0.0041    0.0020 H   0  0  0  0  0  0  0  0  0  0  0  0
   -3.2721    1.5164    0.0257 H   0  0  0  0  0  0  0  0  0  0  0  0
   -1.8949   -0.7757   -0.8832 H   0  0  0  0  0  0  0  0  0  0  0  0
   -1.8865   -0.7854    0.8967 H   0  0  0  0  0  0  0  0  0  0  0  0
   -3.9330   -1.0087    2.1522 H   0  0  0  0  0  0  0  0  0  0  0  0
   -6.2240   -1.8414    2.2139 H   0  0  0  0  0  0  0  0  0  0  0  0
   -3.9550   -0.9758   -2.1046 H   0  0  0  0  0  0  0  0  0  0  0  0
  -10.0711   -3.2223   -1.9007 H   0  0  0  0  0  0  0  0  0  0  0  0
  -10.0373   -3.2225   -0.2210 H   0  0  0  0  0  0  0  0  0  0  0  0
   -4.9931   -1.3447   -3.6450 H   0  0  0  0  0  0  0  0  0  0  0  0
   -6.4006   -1.8559   -4.4066 H   0  0  0  0  0  0  0  0  0  0  0  0
   -7.7187   -2.3736    0.1114 N   0  3  0  0  0  0  0  0  0  0  0  0
   -8.1596   -2.5414    0.9932 H   0  0  0  0  0  0  0  0  0  0  0  0
  1  2  1  0  0  0  0
  1 22  1  0  0  0  0
  1 23  1  0  0  0  0
  1 24  1  0  0  0  0
  2  7  2  0  0  0  0
  2  3  1  0  0  0  0
  3  4  2  0  0  0  0
  3 25  1  0  0  0  0
  4  5  1  0  0  0  0
  4 21  1  0  0  0  0
  5  6  2  0  0  0  0
  5 26  1  0  0  0  0
  6  7  1  0  0  0  0
  6 27  1  0  0  0  0
  7  8  1  0  0  0  0
  8  9  1  0  0  0  0
  8 28  1  0  0  0  0
  9 10  1  0  0  0  0
  9 29  1  0  0  0  0
  9 30  1  0  0  0  0
 10 15  2  0  0  0  0
 10 11  1  0  0  0  0
 11 12  2  0  0  0  0
 11 31  1  0  0  0  0
 12 13  1  0  0  0  0
 12 32  1  0  0  0  0
 13 14  2  0  0  0  0
 13 38  1  0  0  0  0
 14 15  1  0  0  0  0
 14 16  1  0  0  0  0
 15 33  1  0  0  0  0
 16 17  2  0  0  0  0
 16 20  1  0  0  0  0
 17 18  1  0  0  0  0
 18 19  1  0  0  0  0
 18 38  2  0  0  0  0
 19 34  1  0  0  0  0
 19 35  1  0  0  0  0
 20 36  1  0  0  0  0
 20 37  1  0  0  0  0
 38 39  1  0  0  0  0
M  CHG  1  38   1
M  END
$$$$
ZINC03815024
  -OEChem-08230709403D

 42 44  0     0  0  0  0  0  0999 V2000
    2.4228    4.1154    0.0010 C   0  0  0  0  0  0  0  0  0  0  0  0
    1.1579    3.4504    0.0095 O   0  0  0  0  0  0  0  0  0  0  0  0
    1.1753    2.0908    0.0021 C   0  0  0  0  0  0  0  0  0  0  0  0
    2.3855    1.4132   -0.0136 C   0  0  0  0  0  0  0  0  0  0  0  0
    2.4067    0.0307   -0.0208 C   0  0  0  0  0  0  0  0  0  0  0  0
    1.2191   -0.6815   -0.0132 C   0  0  0  0  0  0  0  0  0  0  0  0
    0.0021   -0.0041    0.0020 C   0  0  0  0  0  0  0  0  0  0  0  0
   -0.0167    1.3828    0.0096 C   0  0  0  0  0  0  0  0  0  0  0  0
   -1.1995   -0.7215    0.0101 N   0  0  0  0  0  0  0  0  0  0  0  0
   -2.4787   -0.0077    0.0266 C   0  0  0  0  0  0  0  0  0  0  0  0
   -3.6097   -1.0037    0.0325 C   0  0  0  0  0  0  0  0  0  0  0  0
   -4.1132   -1.4639    1.2212 C   0  0  0  0  0  0  0  0  0  0  0  0
   -5.1632   -2.3879    1.1770 C   0  0  0  0  0  0  0  0  0  0  0  0
   -5.7488   -2.9196    2.3527 C   0  0  0  0  0  0  0  0  0  0  0  0
   -6.7401   -3.7895    2.2218 N   0  0  0  0  0  0  0  0  0  0  0  0
   -7.1798   -4.1604    1.0227 C   0  0  0  0  0  0  0  0  0  0  0  0
   -6.6697   -3.6959   -0.1024 N   0  0  0  0  0  0  0  0  0  0  0  0
   -5.6632   -2.8105   -0.0795 C   0  0  0  0  0  0  0  0  0  0  0  0
   -5.1303   -2.3255   -1.2012 N   0  0  0  0  0  0  0  0  0  0  0  0
   -4.1478   -1.4530   -1.1670 C   0  0  0  0  0  0  0  0  0  0  0  0
   -8.2162   -5.0715    0.9517 N   0  0  0  0  0  0  0  0  0  0  0  0
   -5.2999   -2.5418    3.5990 N   0  0  0  0  0  0  0  0  0  0  0  0
    1.2411   -2.0422   -0.0212 O   0  0  0  0  0  0  0  0  0  0  0  0
    2.5246   -2.6702   -0.0368 C   0  0  0  0  0  0  0  0  0  0  0  0
    2.2662    5.1941    0.0083 H   0  0  0  0  0  0  0  0  0  0  0  0
    2.9919    3.8249    0.8841 H   0  0  0  0  0  0  0  0  0  0  0  0
    2.9749    3.8345   -0.8958 H   0  0  0  0  0  0  0  0  0  0  0  0
    3.3129    1.9666   -0.0198 H   0  0  0  0  0  0  0  0  0  0  0  0
    3.3504   -0.4942   -0.0326 H   0  0  0  0  0  0  0  0  0  0  0  0
   -0.9589    1.9106    0.0170 H   0  0  0  0  0  0  0  0  0  0  0  0
   -1.1853   -1.6914    0.0048 H   0  0  0  0  0  0  0  0  0  0  0  0
   -2.5368    0.6132    0.9206 H   0  0  0  0  0  0  0  0  0  0  0  0
   -2.5545    0.6228   -0.8593 H   0  0  0  0  0  0  0  0  0  0  0  0
   -3.7117   -1.1231    2.1641 H   0  0  0  0  0  0  0  0  0  0  0  0
   -3.7447   -1.0789   -2.0965 H   0  0  0  0  0  0  0  0  0  0  0  0
   -8.5534   -5.3562    0.0878 H   0  0  0  0  0  0  0  0  0  0  0  0
   -8.6067   -5.4263    1.7656 H   0  0  0  0  0  0  0  0  0  0  0  0
   -4.5737   -1.9039    3.6802 H   0  0  0  0  0  0  0  0  0  0  0  0
   -5.7100   -2.9137    4.3955 H   0  0  0  0  0  0  0  0  0  0  0  0
    3.0684   -2.3633   -0.9302 H   0  0  0  0  0  0  0  0  0  0  0  0
    3.0851   -2.3735    0.8497 H   0  0  0  0  0  0  0  0  0  0  0  0
    2.3992   -3.7530   -0.0418 H   0  0  0  0  0  0  0  0  0  0  0  0
  1  2  1  0  0  0  0
  1 25  1  0  0  0  0
  1 26  1  0  0  0  0
  1 27  1  0  0  0  0
  2  3  1  0  0  0  0
  3  8  2  0  0  0  0
  3  4  1  0  0  0  0
  4  5  2  0  0  0  0
  4 28  1  0  0  0  0
  5  6  1  0  0  0  0
  5 29  1  0  0  0  0
  6  7  2  0  0  0  0
  6 23  1  0  0  0  0
  7  8  1  0  0  0  0
  7  9  1  0  0  0  0
  8 30  1  0  0  0  0
  9 10  1  0  0  0  0
  9 31  1  0  0  0  0
 10 11  1  0  0  0  0
 10 32  1  0  0  0  0
 10 33  1  0  0  0  0
 11 20  2  0  0  0  0
 11 12  1  0  0  0  0
 12 13  2  0  0  0  0
 12 34  1  0  0  0  0
 13 18  1  0  0  0  0
 13 14  1  0  0  0  0
 14 15  2  0  0  0  0
 14 22  1  0  0  0  0
 15 16  1  0  0  0  0
 16 17  2  0  0  0  0
 16 21  1  0  0  0  0
 17 18  1  0  0  0  0
 18 19  2  0  0  0  0
 19 20  1  0  0  0  0
 20 35  1  0  0  0  0
 21 36  1  0  0  0  0
 21 37  1  0  0  0  0
 22 38  1  0  0  0  0
 22 39  1  0  0  0  0
 23 24  1  0  0  0  0
 24 40  1  0  0  0  0
 24 41  1  0  0  0  0
 24 42  1  0  0  0  0
M  END
$$$$
ZINC03815024
  -OEChem-08230709403D

 43 45  0     0  0  0  0  0  0999 V2000
    2.4228    4.1154    0.0010 C   0  0  0  0  0  0  0  0  0  0  0  0
    1.1579    3.4504    0.0095 O   0  0  0  0  0  0  0  0  0  0  0  0
    1.1753    2.0908    0.0021 C   0  0  0  0  0  0  0  0  0  0  0  0
    2.3855    1.4132   -0.0136 C   0  0  0  0  0  0  0  0  0  0  0  0
    2.4067    0.0307   -0.0208 C   0  0  0  0  0  0  0  0  0  0  0  0
    1.2191   -0.6815   -0.0132 C   0  0  0  0  0  0  0  0  0  0  0  0
    0.0021   -0.0041    0.0020 C   0  0  0  0  0  0  0  0  0  0  0  0
   -0.0167    1.3828    0.0096 C   0  0  0  0  0  0  0  0  0  0  0  0
   -1.1995   -0.7215    0.0101 N   0  0  0  0  0  0  0  0  0  0  0  0
   -2.4787   -0.0077    0.0266 C   0  0  0  0  0  0  0  0  0  0  0  0
   -3.6097   -1.0037    0.0325 C   0  0  0  0  0  0  0  0  0  0  0  0
   -4.1132   -1.4639    1.2212 C   0  0  0  0  0  0  0  0  0  0  0  0
   -5.1632   -2.3879    1.1770 C   0  0  0  0  0  0  0  0  0  0  0  0
   -5.7488   -2.9196    2.3527 C   0  0  0  0  0  0  0  0  0  0  0  0
   -6.7401   -3.7895    2.2218 N   0  0  0  0  0  0  0  0  0  0  0  0
   -7.1798   -4.1604    1.0227 C   0  0  0  0  0  0  0  0  0  0  0  0
   -5.6632   -2.8105   -0.0795 C   0  0  0  0  0  0  0  0  0  0  0  0
   -5.1303   -2.3255   -1.2012 N   0  0  0  0  0  0  0  0  0  0  0  0
   -4.1478   -1.4530   -1.1670 C   0  0  0  0  0  0  0  0  0  0  0  0
   -8.2162   -5.0715    0.9517 N   0  0  0  0  0  0  0  0  0  0  0  0
   -5.2999   -2.5418    3.5990 N   0  0  0  0  0  0  0  0  0  0  0  0
    1.2411   -2.0422   -0.0212 O   0  0  0  0  0  0  0  0  0  0  0  0
    2.5246   -2.6702   -0.0368 C   0  0  0  0  0  0  0  0  0  0  0  0
    2.2662    5.1941    0.0083 H   0  0  0  0  0  0  0  0  0  0  0  0
    2.9919    3.8249    0.8841 H   0  0  0  0  0  0  0  0  0  0  0  0
    2.9749    3.8345   -0.8958 H   0  0  0  0  0  0  0  0  0  0  0  0
    3.3129    1.9666   -0.0198 H   0  0  0  0  0  0  0  0  0  0  0  0
    3.3504   -0.4942   -0.0326 H   0  0  0  0  0  0  0  0  0  0  0  0
   -0.9589    1.9106    0.0170 H   0  0  0  0  0  0  0  0  0  0  0  0
   -1.1853   -1.6914    0.0048 H   0  0  0  0  0  0  0  0  0  0  0  0
   -2.5368    0.6132    0.9206 H   0  0  0  0  0  0  0  0  0  0  0  0
   -2.5545    0.6228   -0.8593 H   0  0  0  0  0  0  0  0  0  0  0  0
   -3.7117   -1.1231    2.1641 H   0  0  0  0  0  0  0  0  0  0  0  0
   -3.7447   -1.0789   -2.0965 H   0  0  0  0  0  0  0  0  0  0  0  0
   -8.5534   -5.3562    0.0878 H   0  0  0  0  0  0  0  0  0  0  0  0
   -8.6067   -5.4263    1.7656 H   0  0  0  0  0  0  0  0  0  0  0  0
   -4.5737   -1.9039    3.6802 H   0  0  0  0  0  0  0  0  0  0  0  0
   -5.7100   -2.9137    4.3955 H   0  0  0  0  0  0  0  0  0  0  0  0
    3.0684   -2.3633   -0.9302 H   0  0  0  0  0  0  0  0  0  0  0  0
    3.0851   -2.3735    0.8497 H   0  0  0  0  0  0  0  0  0  0  0  0
    2.3992   -3.7530   -0.0418 H   0  0  0  0  0  0  0  0  0  0  0  0
   -6.6964   -3.7185   -0.1655 N   0  3  0  0  0  0  0  0  0  0  0  0
   -7.0905   -4.0535   -1.0214 H   0  0  0  0  0  0  0  0  0  0  0  0
  1  2  1  0  0  0  0
  1 24  1  0  0  0  0
  1 25  1  0  0  0  0
  1 26  1  0  0  0  0
  2  3  1  0  0  0  0
  3  8  2  0  0  0  0
  3  4  1  0  0  0  0
  4  5  2  0  0  0  0
  4 27  1  0  0  0  0
  5  6  1  0  0  0  0
  5 28  1  0  0  0  0
  6  7  2  0  0  0  0
  6 22  1  0  0  0  0
  7  8  1  0  0  0  0
  7  9  1  0  0  0  0
  8 29  1  0  0  0  0
  9 10  1  0  0  0  0
  9 30  1  0  0  0  0
 10 11  1  0  0  0  0
 10 31  1  0  0  0  0
 10 32  1  0  0  0  0
 11 19  2  0  0  0  0
 11 12  1  0  0  0  0
 12 13  2  0  0  0  0
 12 33  1  0  0  0  0
 13 17  1  0  0  0  0
 13 14  1  0  0  0  0
 14 15  2  0  0  0  0
 14 21  1  0  0  0  0
 15 16  1  0  0  0  0
 16 20  1  0  0  0  0
 16 42  2  0  0  0  0
 17 18  2  0  0  0  0
 17 42  1  0  0  0  0
 18 19  1  0  0  0  0
 19 34  1  0  0  0  0
 20 35  1  0  0  0  0
 20 36  1  0  0  0  0
 21 37  1  0  0  0  0
 21 38  1  0  0  0  0
 22 23  1  0  0  0  0
 23 39  1  0  0  0  0
 23 40  1  0  0  0  0
 23 41  1  0  0  0  0
 42 43  1  0  0  0  0
M  CHG  1  42   1
M  END
$$$$
