ZINC00006094
  -OEChem-08230709403D

 40 43  0     0  0  0  0  0  0999 V2000
    4.2203    1.3088   -0.6642 C   0  0  0  0  0  0  0  0  0  0  0  0
    3.7972    0.8446    0.5679 C   0  0  0  0  0  0  0  0  0  0  0  0
    2.4621    0.5622    0.7798 C   0  0  0  0  0  0  0  0  0  0  0  0
    1.5437    0.7449   -0.2466 C   0  0  0  0  0  0  0  0  0  0  0  0
    1.9731    1.2064   -1.4848 C   0  0  0  0  0  0  0  0  0  0  0  0
    3.3089    1.4914   -1.6882 C   0  0  0  0  0  0  0  0  0  0  0  0
    0.1926    0.4597   -0.0360 N   0  0  0  0  0  0  0  0  0  0  0  0
   -0.7870    1.3143   -0.5399 C   0  0  0  0  0  0  0  0  0  0  0  0
   -0.4202    2.5277   -1.1121 C   0  0  0  0  0  0  0  0  0  0  0  0
   -1.3961    3.3752   -1.6127 C   0  0  0  0  0  0  0  0  0  0  0  0
   -2.7574    3.0053   -1.5405 C   0  0  0  0  0  0  0  0  0  0  0  0
   -3.1171    1.7947   -0.9692 C   0  0  0  0  0  0  0  0  0  0  0  0
   -2.1332    0.9460   -0.4733 C   0  0  0  0  0  0  0  0  0  0  0  0
   -2.4918   -0.2749    0.0967 N   0  0  0  0  0  0  0  0  0  0  0  0
   -2.4519   -0.4366    1.4835 C   0  0  0  0  0  0  0  0  0  0  0  0
   -2.1786    0.6510    2.3038 C   0  0  0  0  0  0  0  0  0  0  0  0
   -2.1442    0.4883    3.6747 C   0  0  0  0  0  0  0  0  0  0  0  0
   -2.3718   -0.7573    4.2308 C   0  0  0  0  0  0  0  0  0  0  0  0
   -2.6389   -1.8431    3.4170 C   0  0  0  0  0  0  0  0  0  0  0  0
   -2.6796   -1.6867    2.0456 C   0  0  0  0  0  0  0  0  0  0  0  0
   -3.5101    4.1164   -2.1537 C   0  0  0  0  0  0  0  0  0  0  0  0
   -4.7173    4.1710   -2.2792 O   0  0  0  0  0  0  0  0  0  0  0  0
   -2.6363    5.0591   -2.5500 N   0  0  0  0  0  0  0  0  0  0  0  0
   -1.3720    4.6976   -2.2670 C   0  0  0  0  0  0  0  0  0  0  0  0
   -0.3766    5.3503   -2.5102 O   0  0  0  0  0  0  0  0  0  0  0  0
    5.2650    1.5289   -0.8272 H   0  0  0  0  0  0  0  0  0  0  0  0
    4.5116    0.7032    1.3654 H   0  0  0  0  0  0  0  0  0  0  0  0
    2.1324    0.1993    1.7421 H   0  0  0  0  0  0  0  0  0  0  0  0
    1.2625    1.3453   -2.2861 H   0  0  0  0  0  0  0  0  0  0  0  0
    3.6429    1.8537   -2.6492 H   0  0  0  0  0  0  0  0  0  0  0  0
   -0.0641   -0.3350    0.4574 H   0  0  0  0  0  0  0  0  0  0  0  0
    0.6212    2.8087   -1.1659 H   0  0  0  0  0  0  0  0  0  0  0  0
   -4.1573    1.5097   -0.9129 H   0  0  0  0  0  0  0  0  0  0  0  0
   -2.7690   -1.0118   -0.4697 H   0  0  0  0  0  0  0  0  0  0  0  0
   -1.9968    1.6232    1.8700 H   0  0  0  0  0  0  0  0  0  0  0  0
   -1.9356    1.3341    4.3132 H   0  0  0  0  0  0  0  0  0  0  0  0
   -2.3405   -0.8824    5.3031 H   0  0  0  0  0  0  0  0  0  0  0  0
   -2.8161   -2.8144    3.8546 H   0  0  0  0  0  0  0  0  0  0  0  0
   -2.8879   -2.5351    1.4106 H   0  0  0  0  0  0  0  0  0  0  0  0
   -2.8852    5.8904   -2.9835 H   0  0  0  0  0  0  0  0  0  0  0  0
  1  6  2  0  0  0  0
  1  2  1  0  0  0  0
  1 26  1  0  0  0  0
  2  3  2  0  0  0  0
  2 27  1  0  0  0  0
  3  4  1  0  0  0  0
  3 28  1  0  0  0  0
  4  5  2  0  0  0  0
  4  7  1  0  0  0  0
  5  6  1  0  0  0  0
  5 29  1  0  0  0  0
  6 30  1  0  0  0  0
  7  8  1  0  0  0  0
  7 31  1  0  0  0  0
  8 13  2  0  0  0  0
  8  9  1  0  0  0  0
  9 10  2  0  0  0  0
  9 32  1  0  0  0  0
 10 24  1  0  0  0  0
 10 11  1  0  0  0  0
 11 12  2  0  0  0  0
 11 21  1  0  0  0  0
 12 13  1  0  0  0  0
 12 33  1  0  0  0  0
 13 14  1  0  0  0  0
 14 15  1  0  0  0  0
 14 34  1  0  0  0  0
 15 20  2  0  0  0  0
 15 16  1  0  0  0  0
 16 17  2  0  0  0  0
 16 35  1  0  0  0  0
 17 18  1  0  0  0  0
 17 36  1  0  0  0  0
 18 19  2  0  0  0  0
 18 37  1  0  0  0  0
 19 20  1  0  0  0  0
 19 38  1  0  0  0  0
 20 39  1  0  0  0  0
 21 22  2  0  0  0  0
 21 23  1  0  0  0  0
 23 24  1  0  0  0  0
 23 40  1  0  0  0  0
 24 25  2  0  0  0  0
M  END
$$$$
ZINC00006271
  -OEChem-08230709403D

 32 35  0     0  0  0  0  0  0999 V2000
    4.8797    1.0221   -0.4205 C   0  0  0  0  0  0  0  0  0  0  0  0
    3.7004    1.7356   -0.5108 C   0  0  0  0  0  0  0  0  0  0  0  0
    3.5980    2.9845    0.0883 C   0  0  0  0  0  0  0  0  0  0  0  0
    4.6847    3.5147    0.7721 C   0  0  0  0  0  0  0  0  0  0  0  0
    5.8597    2.7936    0.8638 C   0  0  0  0  0  0  0  0  0  0  0  0
    5.9580    1.5495    0.2655 C   0  0  0  0  0  0  0  0  0  0  0  0
    7.3375    3.5105    1.8009 Br  0  0  0  0  0  0  0  0  0  0  0  0
    2.4059    3.7087   -0.0015 N   0  0  0  0  0  0  0  0  0  0  0  0
    1.1950    3.0484    0.0136 C   0  0  0  0  0  0  0  0  0  0  0  0
   -0.0194    3.7498   -0.1977 C   0  0  0  0  0  0  0  0  0  0  0  0
   -0.0418    5.1246   -0.4277 C   0  0  0  0  0  0  0  0  0  0  0  0
   -1.2583    5.7611   -0.6288 C   0  0  0  0  0  0  0  0  0  0  0  0
   -1.6375    7.1544   -0.8906 C   0  0  0  0  0  0  0  0  0  0  0  0
   -2.9732    7.1842   -1.0009 C   0  0  0  0  0  0  0  0  0  0  0  0
   -3.4887    5.9256   -0.8319 N   0  0  0  0  0  0  0  0  0  0  0  0
   -4.4314    5.7002   -0.8684 H   0  0  0  0  0  0  0  0  0  0  0  0
   -2.4680    5.0273   -0.6020 C   0  0  0  0  0  0  0  0  0  0  0  0
   -2.4498    3.6641   -0.3736 C   0  0  0  0  0  0  0  0  0  0  0  0
   -1.2323    3.0117   -0.1704 C   0  0  0  0  0  0  0  0  0  0  0  0
   -1.1734    1.6864    0.0482 N   0  0  0  0  0  0  0  0  0  0  0  0
   -0.0203    1.0943    0.2421 C   0  0  0  0  0  0  0  0  0  0  0  0
    1.1353    1.7410    0.2254 N   0  0  0  0  0  0  0  0  0  0  0  0
    4.9597    0.0511   -0.8866 H   0  0  0  0  0  0  0  0  0  0  0  0
    2.8586    1.3226   -1.0466 H   0  0  0  0  0  0  0  0  0  0  0  0
    4.6099    4.4876    1.2351 H   0  0  0  0  0  0  0  0  0  0  0  0
    6.8789    0.9896    0.3343 H   0  0  0  0  0  0  0  0  0  0  0  0
    2.4301    4.6757   -0.0743 H   0  0  0  0  0  0  0  0  0  0  0  0
    0.8789    5.6888   -0.4494 H   0  0  0  0  0  0  0  0  0  0  0  0
   -0.9671    7.9966   -0.9780 H   0  0  0  0  0  0  0  0  0  0  0  0
   -3.5582    8.0713   -1.1941 H   0  0  0  0  0  0  0  0  0  0  0  0
   -3.3739    3.1055   -0.3538 H   0  0  0  0  0  0  0  0  0  0  0  0
   -0.0118    0.0289    0.4192 H   0  0  0  0  0  0  0  0  0  0  0  0
  1  6  2  0  0  0  0
  1  2  1  0  0  0  0
  1 23  1  0  0  0  0
  2  3  2  0  0  0  0
  2 24  1  0  0  0  0
  3  4  1  0  0  0  0
  3  8  1  0  0  0  0
  4  5  2  0  0  0  0
  4 25  1  0  0  0  0
  5  6  1  0  0  0  0
  5  7  1  0  0  0  0
  6 26  1  0  0  0  0
  8  9  1  0  0  0  0
  8 27  1  0  0  0  0
  9 22  2  0  0  0  0
  9 10  1  0  0  0  0
 10 19  2  0  0  0  0
 10 11  1  0  0  0  0
 11 12  2  0  0  0  0
 11 28  1  0  0  0  0
 12 17  1  0  0  0  0
 12 13  1  0  0  0  0
 13 14  2  0  0  0  0
 13 29  1  0  0  0  0
 14 15  1  0  0  0  0
 14 30  1  0  0  0  0
 15 16  1  0  0  0  0
 15 17  1  0  0  0  0
 17 18  2  0  0  0  0
 18 19  1  0  0  0  0
 18 31  1  0  0  0  0
 19 20  1  0  0  0  0
 20 21  2  0  0  0  0
 21 22  1  0  0  0  0
 21 32  1  0  0  0  0
M  END
$$$$
ZINC00006798
  -OEChem-08230709403D

 35 38  0     0  0  0  0  0  0999 V2000
    2.3192    5.8592   -1.5030 C   0  0  0  0  0  0  0  0  0  0  0  0
    3.1604    4.8447   -1.9236 C   0  0  0  0  0  0  0  0  0  0  0  0
    2.7984    3.5253   -1.7434 C   0  0  0  0  0  0  0  0  0  0  0  0
    1.5824    3.2157   -1.1357 C   0  0  0  0  0  0  0  0  0  0  0  0
    0.7363    4.2424   -0.7187 C   0  0  0  0  0  0  0  0  0  0  0  0
    1.1114    5.5581   -0.8994 C   0  0  0  0  0  0  0  0  0  0  0  0
    1.1879    1.8005   -0.9393 C   0  0  0  0  0  0  0  0  0  0  0  0
    2.0443    0.7239   -0.4419 C   0  0  0  0  0  0  0  0  0  0  0  0
    3.3809    0.6328   -0.0193 C   0  0  0  0  0  0  0  0  0  0  0  0
    3.8368   -0.5501    0.3811 N   0  0  0  0  0  0  0  0  0  0  0  0
    3.0568   -1.6167    0.3834 C   0  0  0  0  0  0  0  0  0  0  0  0
    1.8008   -1.5789   -0.0038 N   0  0  0  0  0  0  0  0  0  0  0  0
    1.2520   -0.4389   -0.4219 C   0  0  0  0  0  0  0  0  0  0  0  0
    0.0133   -0.0822   -0.8742 N   0  0  0  0  0  0  0  0  0  0  0  0
    0.0060    1.2829   -1.1800 N   0  0  0  0  0  0  0  0  0  0  0  0
   -1.0786   -0.9477   -1.0100 C   0  0  0  0  0  0  0  0  0  0  0  0
   -0.8776   -2.2664   -1.3969 C   0  0  0  0  0  0  0  0  0  0  0  0
   -1.9564   -3.1190   -1.5249 C   0  0  0  0  0  0  0  0  0  0  0  0
   -3.2369   -2.6581   -1.2793 C   0  0  0  0  0  0  0  0  0  0  0  0
   -3.4410   -1.3443   -0.8990 C   0  0  0  0  0  0  0  0  0  0  0  0
   -2.3659   -0.4880   -0.7637 C   0  0  0  0  0  0  0  0  0  0  0  0
    4.2011    1.7444   -0.0200 N   0  0  0  0  0  0  0  0  0  0  0  0
    2.6067    6.8904   -1.6461 H   0  0  0  0  0  0  0  0  0  0  0  0
    4.1021    5.0858   -2.3942 H   0  0  0  0  0  0  0  0  0  0  0  0
    3.4559    2.7341   -2.0722 H   0  0  0  0  0  0  0  0  0  0  0  0
   -0.2088    4.0085   -0.2514 H   0  0  0  0  0  0  0  0  0  0  0  0
    0.4587    6.3543   -0.5730 H   0  0  0  0  0  0  0  0  0  0  0  0
    3.4680   -2.5581    0.7166 H   0  0  0  0  0  0  0  0  0  0  0  0
    0.1218   -2.6257   -1.5934 H   0  0  0  0  0  0  0  0  0  0  0  0
   -1.8003   -4.1458   -1.8210 H   0  0  0  0  0  0  0  0  0  0  0  0
   -4.0793   -3.3257   -1.3844 H   0  0  0  0  0  0  0  0  0  0  0  0
   -4.4422   -0.9873   -0.7080 H   0  0  0  0  0  0  0  0  0  0  0  0
   -2.5259    0.5378   -0.4663 H   0  0  0  0  0  0  0  0  0  0  0  0
    3.8148    2.6322   -0.0792 H   0  0  0  0  0  0  0  0  0  0  0  0
    5.1634    1.6372    0.0386 H   0  0  0  0  0  0  0  0  0  0  0  0
  1  6  2  0  0  0  0
  1  2  1  0  0  0  0
  1 23  1  0  0  0  0
  2  3  2  0  0  0  0
  2 24  1  0  0  0  0
  3  4  1  0  0  0  0
  3 25  1  0  0  0  0
  4  5  2  0  0  0  0
  4  7  1  0  0  0  0
  5  6  1  0  0  0  0
  5 26  1  0  0  0  0
  6 27  1  0  0  0  0
  7 15  2  0  0  0  0
  7  8  1  0  0  0  0
  8 13  2  0  0  0  0
  8  9  1  0  0  0  0
  9 10  2  0  0  0  0
  9 22  1  0  0  0  0
 10 11  1  0  0  0  0
 11 12  2  0  0  0  0
 11 28  1  0  0  0  0
 12 13  1  0  0  0  0
 13 14  1  0  0  0  0
 14 15  1  0  0  0  0
 14 16  1  0  0  0  0
 16 21  2  0  0  0  0
 16 17  1  0  0  0  0
 17 18  2  0  0  0  0
 17 29  1  0  0  0  0
 18 19  1  0  0  0  0
 18 30  1  0  0  0  0
 19 20  2  0  0  0  0
 19 31  1  0  0  0  0
 20 21  1  0  0  0  0
 20 32  1  0  0  0  0
 21 33  1  0  0  0  0
 22 34  1  0  0  0  0
 22 35  1  0  0  0  0
M  END
$$$$
ZINC00007282
  -OEChem-08230709403D

 32 34  0     0  0  0  0  0  0999 V2000
    4.3514   -1.6233    0.1561 C   0  0  0  0  0  0  0  0  0  0  0  0
    3.7504   -0.2548   -0.0363 C   0  0  0  0  0  0  0  0  0  0  0  0
    4.4170    0.9085   -0.1165 C   0  0  0  0  0  0  0  0  0  0  0  0
    3.5315    1.9404   -0.2913 N   0  0  0  0  0  0  0  0  0  0  0  0
    3.7765    2.8751   -0.3765 H   0  0  0  0  0  0  0  0  0  0  0  0
    2.2520    1.4584   -0.3286 C   0  0  0  0  0  0  0  0  0  0  0  0
    2.3299    0.0620   -0.1706 C   0  0  0  0  0  0  0  0  0  0  0  0
    1.1408   -0.6828   -0.1721 C   0  0  0  0  0  0  0  0  0  0  0  0
   -0.0102   -0.0335   -0.3232 N   0  0  0  0  0  0  0  0  0  0  0  0
   -0.0377    1.2788   -0.4685 C   0  0  0  0  0  0  0  0  0  0  0  0
    1.0515    2.0167   -0.4732 N   0  0  0  0  0  0  0  0  0  0  0  0
    1.1649   -2.0584   -0.0197 N   0  0  0  0  0  0  0  0  0  0  0  0
   -0.0328   -2.7700    0.0939 C   0  0  0  0  0  0  0  0  0  0  0  0
   -0.1266   -4.0603   -0.4129 C   0  0  0  0  0  0  0  0  0  0  0  0
   -1.3108   -4.7613   -0.2990 C   0  0  0  0  0  0  0  0  0  0  0  0
   -2.4032   -4.1810    0.3193 C   0  0  0  0  0  0  0  0  0  0  0  0
   -2.3136   -2.8963    0.8257 C   0  0  0  0  0  0  0  0  0  0  0  0
   -1.1295   -2.1910    0.7186 C   0  0  0  0  0  0  0  0  0  0  0  0
   -3.6873   -2.1723    1.6021 Cl  0  0  0  0  0  0  0  0  0  0  0  0
    5.9140    1.0570   -0.0276 C   0  0  0  0  0  0  0  0  0  0  0  0
    4.5678   -2.0651   -0.8165 H   0  0  0  0  0  0  0  0  0  0  0  0
    5.2744   -1.5374    0.7296 H   0  0  0  0  0  0  0  0  0  0  0  0
    3.6468   -2.2571    0.6945 H   0  0  0  0  0  0  0  0  0  0  0  0
   -0.9935    1.7659   -0.5929 H   0  0  0  0  0  0  0  0  0  0  0  0
    2.0129   -2.5285    0.0083 H   0  0  0  0  0  0  0  0  0  0  0  0
    0.7260   -4.5145   -0.8959 H   0  0  0  0  0  0  0  0  0  0  0  0
   -1.3838   -5.7643   -0.6929 H   0  0  0  0  0  0  0  0  0  0  0  0
   -3.3281   -4.7318    0.4073 H   0  0  0  0  0  0  0  0  0  0  0  0
   -1.0584   -1.1899    1.1176 H   0  0  0  0  0  0  0  0  0  0  0  0
    6.3465    0.9816   -1.0252 H   0  0  0  0  0  0  0  0  0  0  0  0
    6.1578    2.0289    0.4016 H   0  0  0  0  0  0  0  0  0  0  0  0
    6.3205    0.2681    0.6053 H   0  0  0  0  0  0  0  0  0  0  0  0
  1  2  1  0  0  0  0
  1 21  1  0  0  0  0
  1 22  1  0  0  0  0
  1 23  1  0  0  0  0
  2  7  1  0  0  0  0
  2  3  2  0  0  0  0
  3  4  1  0  0  0  0
  3 20  1  0  0  0  0
  4  5  1  0  0  0  0
  4  6  1  0  0  0  0
  6 11  2  0  0  0  0
  6  7  1  0  0  0  0
  7  8  2  0  0  0  0
  8  9  1  0  0  0  0
  8 12  1  0  0  0  0
  9 10  2  0  0  0  0
 10 11  1  0  0  0  0
 10 24  1  0  0  0  0
 12 13  1  0  0  0  0
 12 25  1  0  0  0  0
 13 18  2  0  0  0  0
 13 14  1  0  0  0  0
 14 15  2  0  0  0  0
 14 26  1  0  0  0  0
 15 16  1  0  0  0  0
 15 27  1  0  0  0  0
 16 17  2  0  0  0  0
 16 28  1  0  0  0  0
 17 18  1  0  0  0  0
 17 19  1  0  0  0  0
 18 29  1  0  0  0  0
 20 30  1  0  0  0  0
 20 31  1  0  0  0  0
 20 32  1  0  0  0  0
M  END
$$$$
ZINC00007342
  -OEChem-08230709403D

 30 32  0     0  0  0  0  0  0999 V2000
   -4.6496    0.5077    0.9468 C   0  0  0  0  0  0  0  0  0  0  0  0
   -3.4722    1.2281    0.9529 C   0  0  0  0  0  0  0  0  0  0  0  0
   -2.4777    0.9417    0.0192 C   0  0  0  0  0  0  0  0  0  0  0  0
   -2.6736   -0.0796   -0.9091 C   0  0  0  0  0  0  0  0  0  0  0  0
   -3.8531   -0.7978   -0.9025 C   0  0  0  0  0  0  0  0  0  0  0  0
   -4.8395   -0.5046    0.0240 C   0  0  0  0  0  0  0  0  0  0  0  0
   -4.0993   -2.0706   -2.0571 Cl  0  0  0  0  0  0  0  0  0  0  0  0
   -1.2135    1.7166    0.0173 C   0  0  0  0  0  0  0  0  0  0  0  0
   -0.0126    1.0758    0.0080 C   0  0  0  0  0  0  0  0  0  0  0  0
    1.1628    1.7446    0.0003 N   0  0  0  0  0  0  0  0  0  0  0  0
    2.0144    1.2205   -0.0104 H   0  0  0  0  0  0  0  0  0  0  0  0
    1.2316    3.1202    0.0066 C   0  0  0  0  0  0  0  0  0  0  0  0
    2.4617    3.7670   -0.0027 C   0  0  0  0  0  0  0  0  0  0  0  0
    2.5178    5.1503    0.0038 C   0  0  0  0  0  0  0  0  0  0  0  0
    1.3508    5.9086    0.0191 C   0  0  0  0  0  0  0  0  0  0  0  0
    0.1176    5.2860    0.0280 C   0  0  0  0  0  0  0  0  0  0  0  0
    0.0505    3.8855    0.0220 C   0  0  0  0  0  0  0  0  0  0  0  0
   -1.2415    3.1855    0.0315 C   0  0  0  0  0  0  0  0  0  0  0  0
   -2.2955    3.7997    0.0450 O   0  0  0  0  0  0  0  0  0  0  0  0
   -1.0207    6.0247    0.0425 O   0  0  0  0  0  0  0  0  0  0  0  0
    3.7237    5.7736   -0.0045 O   0  0  0  0  0  0  0  0  0  0  0  0
   -5.4223    0.7322    1.6671 H   0  0  0  0  0  0  0  0  0  0  0  0
   -3.3236    2.0154    1.6770 H   0  0  0  0  0  0  0  0  0  0  0  0
   -1.9047   -0.3084   -1.6321 H   0  0  0  0  0  0  0  0  0  0  0  0
   -5.7604   -1.0688    0.0262 H   0  0  0  0  0  0  0  0  0  0  0  0
    0.0021   -0.0041    0.0020 H   0  0  0  0  0  0  0  0  0  0  0  0
    3.3746    3.1900   -0.0146 H   0  0  0  0  0  0  0  0  0  0  0  0
    1.4095    6.9870    0.0236 H   0  0  0  0  0  0  0  0  0  0  0  0
   -1.3591    6.2430   -0.8366 H   0  0  0  0  0  0  0  0  0  0  0  0
    4.0648    5.9587   -0.8902 H   0  0  0  0  0  0  0  0  0  0  0  0
  1  6  2  0  0  0  0
  1  2  1  0  0  0  0
  1 22  1  0  0  0  0
  2  3  2  0  0  0  0
  2 23  1  0  0  0  0
  3  4  1  0  0  0  0
  3  8  1  0  0  0  0
  4  5  2  0  0  0  0
  4 24  1  0  0  0  0
  5  6  1  0  0  0  0
  5  7  1  0  0  0  0
  6 25  1  0  0  0  0
  8 18  1  0  0  0  0
  8  9  2  0  0  0  0
  9 10  1  0  0  0  0
  9 26  1  0  0  0  0
 10 11  1  0  0  0  0
 10 12  1  0  0  0  0
 12 17  2  0  0  0  0
 12 13  1  0  0  0  0
 13 14  2  0  0  0  0
 13 27  1  0  0  0  0
 14 15  1  0  0  0  0
 14 21  1  0  0  0  0
 15 16  2  0  0  0  0
 15 28  1  0  0  0  0
 16 17  1  0  0  0  0
 16 20  1  0  0  0  0
 17 18  1  0  0  0  0
 18 19  2  0  0  0  0
 20 29  1  0  0  0  0
 21 30  1  0  0  0  0
M  END
$$$$
ZINC00007342
  -OEChem-08230709403D

 30 32  0     0  0  0  0  0  0999 V2000
   -4.6534    0.5078    0.9232 C   0  0  0  0  0  0  0  0  0  0  0  0
   -3.4761    1.2282    0.9340 C   0  0  0  0  0  0  0  0  0  0  0  0
   -2.4777    0.9416    0.0044 C   0  0  0  0  0  0  0  0  0  0  0  0
   -2.6698   -0.0798   -0.9245 C   0  0  0  0  0  0  0  0  0  0  0  0
   -3.8493   -0.7981   -0.9226 C   0  0  0  0  0  0  0  0  0  0  0  0
   -4.8395   -0.5047   -0.0002 C   0  0  0  0  0  0  0  0  0  0  0  0
   -4.0907   -2.0711   -2.0779 Cl  0  0  0  0  0  0  0  0  0  0  0  0
   -1.2135    1.7166    0.0075 C   0  0  0  0  0  0  0  0  0  0  0  0
   -0.0126    1.0758    0.0081 C   0  0  0  0  0  0  0  0  0  0  0  0
    1.1628    1.7446    0.0004 N   0  0  0  0  0  0  0  0  0  0  0  0
   -2.1089    4.7821    0.0325 H   0  0  0  0  0  0  0  0  0  0  0  0
    1.2315    3.1202   -0.0047 C   0  0  0  0  0  0  0  0  0  0  0  0
    2.4616    3.7670   -0.0194 C   0  0  0  0  0  0  0  0  0  0  0  0
    2.5177    5.1503   -0.0140 C   0  0  0  0  0  0  0  0  0  0  0  0
    1.3506    5.9086   -0.0042 C   0  0  0  0  0  0  0  0  0  0  0  0
    0.1174    5.2860    0.0051 C   0  0  0  0  0  0  0  0  0  0  0  0
    0.0504    3.8855    0.0051 C   0  0  0  0  0  0  0  0  0  0  0  0
   -1.2416    3.1855    0.0153 C   0  0  0  0  0  0  0  0  0  0  0  0
   -2.2956    3.7997    0.0295 O   0  0  0  0  0  0  0  0  0  0  0  0
   -1.0209    6.0247    0.0142 O   0  0  0  0  0  0  0  0  0  0  0  0
    3.7235    5.7736   -0.0227 O   0  0  0  0  0  0  0  0  0  0  0  0
   -5.4291    0.7324    1.6402 H   0  0  0  0  0  0  0  0  0  0  0  0
   -3.3305    2.0157    1.6585 H   0  0  0  0  0  0  0  0  0  0  0  0
   -1.8979   -0.3088   -1.6443 H   0  0  0  0  0  0  0  0  0  0  0  0
   -5.7604   -1.0689   -0.0017 H   0  0  0  0  0  0  0  0  0  0  0  0
    0.0021   -0.0041    0.0068 H   0  0  0  0  0  0  0  0  0  0  0  0
    3.3745    3.1900   -0.0309 H   0  0  0  0  0  0  0  0  0  0  0  0
    1.4093    6.9871   -0.0043 H   0  0  0  0  0  0  0  0  0  0  0  0
   -1.3577    6.2392   -0.8664 H   0  0  0  0  0  0  0  0  0  0  0  0
    4.0663    5.9549   -0.9086 H   0  0  0  0  0  0  0  0  0  0  0  0
  1  6  2  0  0  0  0
  1  2  1  0  0  0  0
  1 22  1  0  0  0  0
  2  3  2  0  0  0  0
  2 23  1  0  0  0  0
  3  4  1  0  0  0  0
  3  8  1  0  0  0  0
  4  5  2  0  0  0  0
  4 24  1  0  0  0  0
  5  6  1  0  0  0  0
  5  7  1  0  0  0  0
  6 25  1  0  0  0  0
  8  9  2  0  0  0  0
  8 18  1  0  0  0  0
  9 26  1  0  0  0  0
  9 10  1  0  0  0  0
 10 12  2  0  0  0  0
 11 19  1  0  0  0  0
 12 13  1  0  0  0  0
 12 17  1  0  0  0  0
 13 14  2  0  0  0  0
 13 27  1  0  0  0  0
 14 15  1  0  0  0  0
 14 21  1  0  0  0  0
 15 16  2  0  0  0  0
 15 28  1  0  0  0  0
 16 17  1  0  0  0  0
 16 20  1  0  0  0  0
 17 18  2  0  0  0  0
 18 19  1  0  0  0  0
 20 29  1  0  0  0  0
 21 30  1  0  0  0  0
M  END
$$$$
ZINC00007342
  -OEChem-08230709403D

 30 32  0     0  0  0  0  0  0999 V2000
   -4.6534    0.5078    0.9232 C   0  0  0  0  0  0  0  0  0  0  0  0
   -3.4761    1.2282    0.9340 C   0  0  0  0  0  0  0  0  0  0  0  0
   -2.4777    0.9416    0.0044 C   0  0  0  0  0  0  0  0  0  0  0  0
   -2.6698   -0.0798   -0.9245 C   0  0  0  0  0  0  0  0  0  0  0  0
   -3.8493   -0.7981   -0.9226 C   0  0  0  0  0  0  0  0  0  0  0  0
   -4.8395   -0.5047   -0.0002 C   0  0  0  0  0  0  0  0  0  0  0  0
   -4.0907   -2.0711   -2.0779 Cl  0  0  0  0  0  0  0  0  0  0  0  0
   -1.2135    1.7166    0.0075 C   0  0  0  0  0  0  0  0  0  0  0  0
   -0.0126    1.0758    0.0081 C   0  0  0  0  0  0  0  0  0  0  0  0
    1.1628    1.7446    0.0004 N   0  0  0  0  0  0  0  0  0  0  0  0
   -2.1089    4.7821    0.0325 H   0  0  0  0  0  0  0  0  0  0  0  0
    1.2315    3.1202   -0.0047 C   0  0  0  0  0  0  0  0  0  0  0  0
    2.4616    3.7670   -0.0194 C   0  0  0  0  0  0  0  0  0  0  0  0
    2.5177    5.1503   -0.0140 C   0  0  0  0  0  0  0  0  0  0  0  0
    1.3506    5.9086   -0.0042 C   0  0  0  0  0  0  0  0  0  0  0  0
    0.1174    5.2860    0.0051 C   0  0  0  0  0  0  0  0  0  0  0  0
    0.0504    3.8855    0.0051 C   0  0  0  0  0  0  0  0  0  0  0  0
   -1.2416    3.1855    0.0153 C   0  0  0  0  0  0  0  0  0  0  0  0
   -2.2956    3.7997    0.0295 O   0  0  0  0  0  0  0  0  0  0  0  0
   -1.0209    6.0247    0.0142 O   0  0  0  0  0  0  0  0  0  0  0  0
    3.7235    5.7736   -0.0227 O   0  0  0  0  0  0  0  0  0  0  0  0
   -5.4291    0.7324    1.6402 H   0  0  0  0  0  0  0  0  0  0  0  0
   -3.3305    2.0157    1.6585 H   0  0  0  0  0  0  0  0  0  0  0  0
   -1.8979   -0.3088   -1.6443 H   0  0  0  0  0  0  0  0  0  0  0  0
   -5.7604   -1.0689   -0.0017 H   0  0  0  0  0  0  0  0  0  0  0  0
    0.0021   -0.0041    0.0068 H   0  0  0  0  0  0  0  0  0  0  0  0
    3.3745    3.1900   -0.0309 H   0  0  0  0  0  0  0  0  0  0  0  0
    1.4093    6.9871   -0.0043 H   0  0  0  0  0  0  0  0  0  0  0  0
   -1.3577    6.2392   -0.8664 H   0  0  0  0  0  0  0  0  0  0  0  0
    4.0663    5.9549   -0.9086 H   0  0  0  0  0  0  0  0  0  0  0  0
  1  6  2  0  0  0  0
  1  2  1  0  0  0  0
  1 22  1  0  0  0  0
  2  3  2  0  0  0  0
  2 23  1  0  0  0  0
  3  4  1  0  0  0  0
  3  8  1  0  0  0  0
  4  5  2  0  0  0  0
  4 24  1  0  0  0  0
  5  6  1  0  0  0  0
  5  7  1  0  0  0  0
  6 25  1  0  0  0  0
  8  9  2  0  0  0  0
  8 18  1  0  0  0  0
  9 26  1  0  0  0  0
  9 10  1  0  0  0  0
 10 12  2  0  0  0  0
 11 19  1  0  0  0  0
 12 13  1  0  0  0  0
 12 17  1  0  0  0  0
 13 14  2  0  0  0  0
 13 27  1  0  0  0  0
 14 15  1  0  0  0  0
 14 21  1  0  0  0  0
 15 16  2  0  0  0  0
 15 28  1  0  0  0  0
 16 17  1  0  0  0  0
 16 20  1  0  0  0  0
 17 18  2  0  0  0  0
 18 19  1  0  0  0  0
 20 29  1  0  0  0  0
 21 30  1  0  0  0  0
M  END
$$$$
ZINC00009851
  -OEChem-08230709403D

 37 39  0     0  0  0  0  0  0999 V2000
    5.8721    3.2860    0.3141 C   0  0  0  0  0  0  0  0  0  0  0  0
    4.6756    4.0528    0.1639 O   0  0  0  0  0  0  0  0  0  0  0  0
    3.5152    3.3616    0.0059 C   0  0  0  0  0  0  0  0  0  0  0  0
    3.5383    1.9957   -0.0028 C   0  0  0  0  0  0  0  0  0  0  0  0
    2.3443    1.2832   -0.1653 C   0  0  0  0  0  0  0  0  0  0  0  0
    1.1206    1.9808   -0.3196 C   0  0  0  0  0  0  0  0  0  0  0  0
    1.1203    3.3808   -0.3082 C   0  0  0  0  0  0  0  0  0  0  0  0
    2.3086    4.0585   -0.1467 C   0  0  0  0  0  0  0  0  0  0  0  0
    2.3111    5.4169   -0.1348 O   0  0  0  0  0  0  0  0  0  0  0  0
    1.0499    6.0695   -0.2949 C   0  0  0  0  0  0  0  0  0  0  0  0
   -0.0098    1.2734   -0.4732 N   0  0  0  0  0  0  0  0  0  0  0  0
    0.0220   -0.0380   -0.4799 C   0  0  0  0  0  0  0  0  0  0  0  0
    1.1404   -0.7317   -0.3394 N   0  0  0  0  0  0  0  0  0  0  0  0
    2.3131   -0.1316   -0.1811 C   0  0  0  0  0  0  0  0  0  0  0  0
    3.4716   -0.8676   -0.0362 N   0  0  0  0  0  0  0  0  0  0  0  0
    3.4070   -2.2626    0.0621 C   0  0  0  0  0  0  0  0  0  0  0  0
    2.3197   -2.8659    0.6805 C   0  0  0  0  0  0  0  0  0  0  0  0
    2.2541   -4.2422    0.7719 C   0  0  0  0  0  0  0  0  0  0  0  0
    3.2793   -5.0216    0.2565 C   0  0  0  0  0  0  0  0  0  0  0  0
    4.3685   -4.4195   -0.3563 C   0  0  0  0  0  0  0  0  0  0  0  0
    4.4330   -3.0436   -0.4537 C   0  0  0  0  0  0  0  0  0  0  0  0
    3.2168   -6.3766    0.3523 O   0  0  0  0  0  0  0  0  0  0  0  0
    6.7221    3.9583    0.4312 H   0  0  0  0  0  0  0  0  0  0  0  0
    5.7878    2.6500    1.1952 H   0  0  0  0  0  0  0  0  0  0  0  0
    6.0191    2.6651   -0.5696 H   0  0  0  0  0  0  0  0  0  0  0  0
    4.4732    1.4681    0.1156 H   0  0  0  0  0  0  0  0  0  0  0  0
    0.1951    3.9255   -0.4251 H   0  0  0  0  0  0  0  0  0  0  0  0
    1.1935    7.1496   -0.2668 H   0  0  0  0  0  0  0  0  0  0  0  0
    0.6131    5.7858   -1.2524 H   0  0  0  0  0  0  0  0  0  0  0  0
    0.3812    5.7707    0.5123 H   0  0  0  0  0  0  0  0  0  0  0  0
   -0.9060   -0.5758   -0.6060 H   0  0  0  0  0  0  0  0  0  0  0  0
    4.3306   -0.4182   -0.0024 H   0  0  0  0  0  0  0  0  0  0  0  0
    1.5238   -2.2590    1.0862 H   0  0  0  0  0  0  0  0  0  0  0  0
    1.4065   -4.7117    1.2488 H   0  0  0  0  0  0  0  0  0  0  0  0
    5.1664   -5.0271   -0.7570 H   0  0  0  0  0  0  0  0  0  0  0  0
    5.2809   -2.5750   -0.9311 H   0  0  0  0  0  0  0  0  0  0  0  0
    3.6164   -6.7328    1.1576 H   0  0  0  0  0  0  0  0  0  0  0  0
  1  2  1  0  0  0  0
  1 23  1  0  0  0  0
  1 24  1  0  0  0  0
  1 25  1  0  0  0  0
  2  3  1  0  0  0  0
  3  8  2  0  0  0  0
  3  4  1  0  0  0  0
  4  5  2  0  0  0  0
  4 26  1  0  0  0  0
  5 14  1  0  0  0  0
  5  6  1  0  0  0  0
  6  7  2  0  0  0  0
  6 11  1  0  0  0  0
  7  8  1  0  0  0  0
  7 27  1  0  0  0  0
  8  9  1  0  0  0  0
  9 10  1  0  0  0  0
 10 28  1  0  0  0  0
 10 29  1  0  0  0  0
 10 30  1  0  0  0  0
 11 12  2  0  0  0  0
 12 13  1  0  0  0  0
 12 31  1  0  0  0  0
 13 14  2  0  0  0  0
 14 15  1  0  0  0  0
 15 16  1  0  0  0  0
 15 32  1  0  0  0  0
 16 21  2  0  0  0  0
 16 17  1  0  0  0  0
 17 18  2  0  0  0  0
 17 33  1  0  0  0  0
 18 19  1  0  0  0  0
 18 34  1  0  0  0  0
 19 20  2  0  0  0  0
 19 22  1  0  0  0  0
 20 21  1  0  0  0  0
 20 35  1  0  0  0  0
 21 36  1  0  0  0  0
 22 37  1  0  0  0  0
M  END
$$$$
ZINC00016978
  -OEChem-08230709403D

 36 38  0     0  0  0  0  0  0999 V2000
   -0.1077    7.8043   -0.3043 C   0  0  0  0  0  0  0  0  0  0  0  0
    1.1553    7.1532   -0.1529 O   0  0  0  0  0  0  0  0  0  0  0  0
    1.1387    5.8027    0.0050 C   0  0  0  0  0  0  0  0  0  0  0  0
   -0.0547    5.1381    0.0126 C   0  0  0  0  0  0  0  0  0  0  0  0
   -0.0730    3.7479    0.1756 C   0  0  0  0  0  0  0  0  0  0  0  0
    1.1438    3.0387    0.3316 C   0  0  0  0  0  0  0  0  0  0  0  0
    2.3555    3.7401    0.3208 C   0  0  0  0  0  0  0  0  0  0  0  0
    2.3465    5.1079    0.1588 C   0  0  0  0  0  0  0  0  0  0  0  0
    3.5207    5.7910    0.1475 O   0  0  0  0  0  0  0  0  0  0  0  0
    4.7173    5.0267    0.3088 C   0  0  0  0  0  0  0  0  0  0  0  0
    1.0981    1.7061    0.4867 N   0  0  0  0  0  0  0  0  0  0  0  0
   -0.0526    1.0764    0.4931 C   0  0  0  0  0  0  0  0  0  0  0  0
   -1.2130    1.6959    0.3460 N   0  0  0  0  0  0  0  0  0  0  0  0
   -1.2816    3.0117    0.1912 C   0  0  0  0  0  0  0  0  0  0  0  0
   -2.4991    3.6452    0.0437 N   0  0  0  0  0  0  0  0  0  0  0  0
   -3.6729    2.8905   -0.0548 C   0  0  0  0  0  0  0  0  0  0  0  0
   -3.6501    1.6464   -0.6722 C   0  0  0  0  0  0  0  0  0  0  0  0
   -4.8088    0.9005   -0.7643 C   0  0  0  0  0  0  0  0  0  0  0  0
   -5.9954    1.3962   -0.2511 C   0  0  0  0  0  0  0  0  0  0  0  0
   -6.0222    2.6392    0.3606 C   0  0  0  0  0  0  0  0  0  0  0  0
   -4.8635    3.3866    0.4595 C   0  0  0  0  0  0  0  0  0  0  0  0
   -7.5113    3.2580    1.0036 Cl  0  0  0  0  0  0  0  0  0  0  0  0
   -7.1286    0.6668   -0.3466 F   0  0  0  0  0  0  0  0  0  0  0  0
    0.0480    8.8767   -0.4213 H   0  0  0  0  0  0  0  0  0  0  0  0
   -0.6150    7.4125   -1.1859 H   0  0  0  0  0  0  0  0  0  0  0  0
   -0.7195    7.6202    0.5788 H   0  0  0  0  0  0  0  0  0  0  0  0
   -0.9797    5.6826   -0.1070 H   0  0  0  0  0  0  0  0  0  0  0  0
    3.2905    3.2125    0.4383 H   0  0  0  0  0  0  0  0  0  0  0  0
    4.6901    4.5069    1.2665 H   0  0  0  0  0  0  0  0  0  0  0  0
    4.7946    4.2980   -0.4981 H   0  0  0  0  0  0  0  0  0  0  0  0
    5.5801    5.6924    0.2811 H   0  0  0  0  0  0  0  0  0  0  0  0
   -0.0529    0.0039    0.6197 H   0  0  0  0  0  0  0  0  0  0  0  0
   -2.5408    4.6137    0.0082 H   0  0  0  0  0  0  0  0  0  0  0  0
   -2.7259    1.2610   -1.0767 H   0  0  0  0  0  0  0  0  0  0  0  0
   -4.7901   -0.0685   -1.2408 H   0  0  0  0  0  0  0  0  0  0  0  0
   -4.8843    4.3556    0.9360 H   0  0  0  0  0  0  0  0  0  0  0  0
  1  2  1  0  0  0  0
  1 24  1  0  0  0  0
  1 25  1  0  0  0  0
  1 26  1  0  0  0  0
  2  3  1  0  0  0  0
  3  8  2  0  0  0  0
  3  4  1  0  0  0  0
  4  5  2  0  0  0  0
  4 27  1  0  0  0  0
  5 14  1  0  0  0  0
  5  6  1  0  0  0  0
  6  7  2  0  0  0  0
  6 11  1  0  0  0  0
  7  8  1  0  0  0  0
  7 28  1  0  0  0  0
  8  9  1  0  0  0  0
  9 10  1  0  0  0  0
 10 29  1  0  0  0  0
 10 30  1  0  0  0  0
 10 31  1  0  0  0  0
 11 12  2  0  0  0  0
 12 13  1  0  0  0  0
 12 32  1  0  0  0  0
 13 14  2  0  0  0  0
 14 15  1  0  0  0  0
 15 16  1  0  0  0  0
 15 33  1  0  0  0  0
 16 21  2  0  0  0  0
 16 17  1  0  0  0  0
 17 18  2  0  0  0  0
 17 34  1  0  0  0  0
 18 19  1  0  0  0  0
 18 35  1  0  0  0  0
 19 20  2  0  0  0  0
 19 23  1  0  0  0  0
 20 21  1  0  0  0  0
 20 22  1  0  0  0  0
 21 36  1  0  0  0  0
M  END
$$$$
ZINC00018522
  -OEChem-08230709403D

 40 43  0     0  0  0  0  0  0999 V2000
    5.8710    3.2866    0.3147 C   0  0  0  0  0  0  0  0  0  0  0  0
    4.6746    4.0530    0.1628 O   0  0  0  0  0  0  0  0  0  0  0  0
    3.5145    3.3616    0.0036 C   0  0  0  0  0  0  0  0  0  0  0  0
    3.5379    1.9958   -0.0045 C   0  0  0  0  0  0  0  0  0  0  0  0
    2.3443    1.2830   -0.1688 C   0  0  0  0  0  0  0  0  0  0  0  0
    1.1208    1.9803   -0.3257 C   0  0  0  0  0  0  0  0  0  0  0  0
    1.1200    3.3803   -0.3134 C   0  0  0  0  0  0  0  0  0  0  0  0
    2.3080    4.0582   -0.1507 C   0  0  0  0  0  0  0  0  0  0  0  0
    2.3102    5.4167   -0.1392 O   0  0  0  0  0  0  0  0  0  0  0  0
    1.0491    6.0689   -0.3012 C   0  0  0  0  0  0  0  0  0  0  0  0
   -0.0093    1.2726   -0.4809 N   0  0  0  0  0  0  0  0  0  0  0  0
    0.0227   -0.0388   -0.4867 C   0  0  0  0  0  0  0  0  0  0  0  0
    1.1410   -0.7322   -0.3441 N   0  0  0  0  0  0  0  0  0  0  0  0
    2.3133   -0.1319   -0.1841 C   0  0  0  0  0  0  0  0  0  0  0  0
    3.4716   -0.8676   -0.0362 N   0  0  0  0  0  0  0  0  0  0  0  0
    3.4070   -2.2628    0.0626 C   0  0  0  0  0  0  0  0  0  0  0  0
    2.3140   -2.8655    0.6841 C   0  0  0  0  0  0  0  0  0  0  0  0
    2.2324   -4.2358    0.7839 C   0  0  0  0  0  0  0  0  0  0  0  0
    3.2520   -5.0328    0.2732 C   0  0  0  0  0  0  0  0  0  0  0  0
    4.3589   -4.4287   -0.3493 C   0  0  0  0  0  0  0  0  0  0  0  0
    4.4298   -3.0378   -0.4512 C   0  0  0  0  0  0  0  0  0  0  0  0
    5.2356   -5.5245   -0.7699 C   0  0  0  0  0  0  0  0  0  0  0  0
    4.6406   -6.6688   -0.3977 C   0  0  0  0  0  0  0  0  0  0  0  0
    3.4545   -6.3961    0.2270 N   0  0  0  0  0  0  0  0  0  0  0  0
    2.8464   -7.0623    0.5838 H   0  0  0  0  0  0  0  0  0  0  0  0
    5.7858    2.6508    1.1960 H   0  0  0  0  0  0  0  0  0  0  0  0
    6.0192    2.6653   -0.5685 H   0  0  0  0  0  0  0  0  0  0  0  0
    6.7208    3.9590    0.4327 H   0  0  0  0  0  0  0  0  0  0  0  0
    4.4727    1.4684    0.1155 H   0  0  0  0  0  0  0  0  0  0  0  0
    0.1947    3.9248   -0.4309 H   0  0  0  0  0  0  0  0  0  0  0  0
    0.3794    5.7704    0.5054 H   0  0  0  0  0  0  0  0  0  0  0  0
    1.1925    7.1491   -0.2733 H   0  0  0  0  0  0  0  0  0  0  0  0
    0.6135    5.7849   -1.2591 H   0  0  0  0  0  0  0  0  0  0  0  0
   -0.9051   -0.5768   -0.6138 H   0  0  0  0  0  0  0  0  0  0  0  0
    4.3304   -0.4181   -0.0007 H   0  0  0  0  0  0  0  0  0  0  0  0
    1.5218   -2.2516    1.0865 H   0  0  0  0  0  0  0  0  0  0  0  0
    1.3793   -4.6923    1.2636 H   0  0  0  0  0  0  0  0  0  0  0  0
    5.2782   -2.5705   -0.9289 H   0  0  0  0  0  0  0  0  0  0  0  0
    6.1814   -5.4296   -1.2828 H   0  0  0  0  0  0  0  0  0  0  0  0
    5.0391   -7.6582   -0.5667 H   0  0  0  0  0  0  0  0  0  0  0  0
  1  2  1  0  0  0  0
  1 26  1  0  0  0  0
  1 27  1  0  0  0  0
  1 28  1  0  0  0  0
  2  3  1  0  0  0  0
  3  8  2  0  0  0  0
  3  4  1  0  0  0  0
  4  5  2  0  0  0  0
  4 29  1  0  0  0  0
  5 14  1  0  0  0  0
  5  6  1  0  0  0  0
  6  7  2  0  0  0  0
  6 11  1  0  0  0  0
  7  8  1  0  0  0  0
  7 30  1  0  0  0  0
  8  9  1  0  0  0  0
  9 10  1  0  0  0  0
 10 31  1  0  0  0  0
 10 32  1  0  0  0  0
 10 33  1  0  0  0  0
 11 12  2  0  0  0  0
 12 13  1  0  0  0  0
 12 34  1  0  0  0  0
 13 14  2  0  0  0  0
 14 15  1  0  0  0  0
 15 16  1  0  0  0  0
 15 35  1  0  0  0  0
 16 21  2  0  0  0  0
 16 17  1  0  0  0  0
 17 18  2  0  0  0  0
 17 36  1  0  0  0  0
 18 19  1  0  0  0  0
 18 37  1  0  0  0  0
 19 24  1  0  0  0  0
 19 20  2  0  0  0  0
 20 21  1  0  0  0  0
 20 22  1  0  0  0  0
 21 38  1  0  0  0  0
 22 23  2  0  0  0  0
 22 39  1  0  0  0  0
 23 24  1  0  0  0  0
 23 40  1  0  0  0  0
 24 25  1  0  0  0  0
M  END
$$$$
ZINC00020362
  -OEChem-08230709403D

 32 34  0     0  0  0  0  0  0999 V2000
    7.0221    1.2902    1.0683 C   0  0  0  0  0  0  0  0  0  0  0  0
    5.7658    2.0111    0.8483 N   0  0  0  0  0  0  0  0  0  0  0  0
    4.5909    1.3061    0.6252 C   0  0  0  0  0  0  0  0  0  0  0  0
    4.6242   -0.0958    0.6130 C   0  0  0  0  0  0  0  0  0  0  0  0
    3.4781   -0.8011    0.3946 C   0  0  0  0  0  0  0  0  0  0  0  0
    2.2850   -0.0837    0.1862 C   0  0  0  0  0  0  0  0  0  0  0  0
    2.3203    1.3294    0.2110 C   0  0  0  0  0  0  0  0  0  0  0  0
    3.4690    1.9692    0.4290 N   0  0  0  0  0  0  0  0  0  0  0  0
    1.1044    2.0276   -0.0014 C   0  0  0  0  0  0  0  0  0  0  0  0
    0.0030    1.3210   -0.2112 N   0  0  0  0  0  0  0  0  0  0  0  0
    0.0216   -0.0020   -0.2250 C   0  0  0  0  0  0  0  0  0  0  0  0
    1.1164   -0.6999   -0.0347 N   0  0  0  0  0  0  0  0  0  0  0  0
    1.0690    3.4082    0.0097 N   0  0  0  0  0  0  0  0  0  0  0  0
   -0.1550    4.0765   -0.0810 C   0  0  0  0  0  0  0  0  0  0  0  0
   -1.2876    3.5395    0.5185 C   0  0  0  0  0  0  0  0  0  0  0  0
   -2.4956    4.2023    0.4277 C   0  0  0  0  0  0  0  0  0  0  0  0
   -2.5793    5.3999   -0.2587 C   0  0  0  0  0  0  0  0  0  0  0  0
   -1.4537    5.9379   -0.8570 C   0  0  0  0  0  0  0  0  0  0  0  0
   -0.2407    5.2818   -0.7656 C   0  0  0  0  0  0  0  0  0  0  0  0
   -1.5735    7.5761   -1.7939 Br  0  0  0  0  0  0  0  0  0  0  0  0
    6.9262    0.6530    1.9474 H   0  0  0  0  0  0  0  0  0  0  0  0
    7.2455    0.6752    0.1965 H   0  0  0  0  0  0  0  0  0  0  0  0
    7.8291    2.0059    1.2245 H   0  0  0  0  0  0  0  0  0  0  0  0
    5.7550    2.9809    0.8587 H   0  0  0  0  0  0  0  0  0  0  0  0
    5.5565   -0.6160    0.7764 H   0  0  0  0  0  0  0  0  0  0  0  0
    3.4853   -1.8810    0.3819 H   0  0  0  0  0  0  0  0  0  0  0  0
   -0.9040   -0.5301   -0.4009 H   0  0  0  0  0  0  0  0  0  0  0  0
    1.8937    3.9139    0.0804 H   0  0  0  0  0  0  0  0  0  0  0  0
   -1.2233    2.6042    1.0548 H   0  0  0  0  0  0  0  0  0  0  0  0
   -3.3760    3.7850    0.8936 H   0  0  0  0  0  0  0  0  0  0  0  0
   -3.5252    5.9166   -0.3276 H   0  0  0  0  0  0  0  0  0  0  0  0
    0.6387    5.7040   -1.2292 H   0  0  0  0  0  0  0  0  0  0  0  0
  1  2  1  0  0  0  0
  1 21  1  0  0  0  0
  1 22  1  0  0  0  0
  1 23  1  0  0  0  0
  2  3  1  0  0  0  0
  2 24  1  0  0  0  0
  3  8  2  0  0  0  0
  3  4  1  0  0  0  0
  4  5  2  0  0  0  0
  4 25  1  0  0  0  0
  5  6  1  0  0  0  0
  5 26  1  0  0  0  0
  6 12  2  0  0  0  0
  6  7  1  0  0  0  0
  7  8  1  0  0  0  0
  7  9  2  0  0  0  0
  9 10  1  0  0  0  0
  9 13  1  0  0  0  0
 10 11  2  0  0  0  0
 11 12  1  0  0  0  0
 11 27  1  0  0  0  0
 13 14  1  0  0  0  0
 13 28  1  0  0  0  0
 14 19  2  0  0  0  0
 14 15  1  0  0  0  0
 15 16  2  0  0  0  0
 15 29  1  0  0  0  0
 16 17  1  0  0  0  0
 16 30  1  0  0  0  0
 17 18  2  0  0  0  0
 17 31  1  0  0  0  0
 18 19  1  0  0  0  0
 18 20  1  0  0  0  0
 19 32  1  0  0  0  0
M  END
$$$$
ZINC00020363
  -OEChem-08230709403D

 35 37  0     0  0  0  0  0  0999 V2000
    8.3109    6.2038   -0.2549 C   0  0  0  0  0  0  0  0  0  0  0  0
    7.0632    5.4430   -0.3573 N   0  0  0  0  0  0  0  0  0  0  0  0
    7.0937    3.9786   -0.3292 C   0  0  0  0  0  0  0  0  0  0  0  0
    5.8519    6.1098   -0.4812 C   0  0  0  0  0  0  0  0  0  0  0  0
    5.8508    7.4961   -0.6924 C   0  0  0  0  0  0  0  0  0  0  0  0
    4.6686    8.1641   -0.8153 C   0  0  0  0  0  0  0  0  0  0  0  0
    3.4741    7.4247   -0.7241 C   0  0  0  0  0  0  0  0  0  0  0  0
    3.5452    6.0298   -0.5049 C   0  0  0  0  0  0  0  0  0  0  0  0
    4.7284    5.4259   -0.3972 N   0  0  0  0  0  0  0  0  0  0  0  0
    2.3273    5.3080   -0.4225 C   0  0  0  0  0  0  0  0  0  0  0  0
    1.1906    5.9782   -0.5453 N   0  0  0  0  0  0  0  0  0  0  0  0
    1.1765    7.2863   -0.7451 C   0  0  0  0  0  0  0  0  0  0  0  0
    2.2715    8.0039   -0.8343 N   0  0  0  0  0  0  0  0  0  0  0  0
    2.3257    3.9428   -0.2138 N   0  0  0  0  0  0  0  0  0  0  0  0
    1.1219    3.2333   -0.2402 C   0  0  0  0  0  0  0  0  0  0  0  0
    0.0989    3.6294   -1.0929 C   0  0  0  0  0  0  0  0  0  0  0  0
   -1.0896    2.9268   -1.1166 C   0  0  0  0  0  0  0  0  0  0  0  0
   -1.2647    1.8327   -0.2890 C   0  0  0  0  0  0  0  0  0  0  0  0
   -0.2464    1.4321    0.5577 C   0  0  0  0  0  0  0  0  0  0  0  0
    0.9455    2.1311    0.5861 C   0  0  0  0  0  0  0  0  0  0  0  0
   -0.4886   -0.0686    1.6826 Br  0  0  0  0  0  0  0  0  0  0  0  0
    8.0877    7.2706   -0.2631 H   0  0  0  0  0  0  0  0  0  0  0  0
    8.8184    5.9459    0.6747 H   0  0  0  0  0  0  0  0  0  0  0  0
    8.9551    5.9608   -1.0999 H   0  0  0  0  0  0  0  0  0  0  0  0
    7.1961    3.5977   -1.3453 H   0  0  0  0  0  0  0  0  0  0  0  0
    7.9398    3.6443    0.2712 H   0  0  0  0  0  0  0  0  0  0  0  0
    6.1678    3.6042    0.1076 H   0  0  0  0  0  0  0  0  0  0  0  0
    6.7851    8.0339   -0.7579 H   0  0  0  0  0  0  0  0  0  0  0  0
    4.6490    9.2316   -0.9779 H   0  0  0  0  0  0  0  0  0  0  0  0
    0.2229    7.7846   -0.8384 H   0  0  0  0  0  0  0  0  0  0  0  0
    3.1601    3.4764   -0.0489 H   0  0  0  0  0  0  0  0  0  0  0  0
    0.2333    4.4859   -1.7369 H   0  0  0  0  0  0  0  0  0  0  0  0
   -1.8850    3.2347   -1.7791 H   0  0  0  0  0  0  0  0  0  0  0  0
   -2.1968    1.2875   -0.3066 H   0  0  0  0  0  0  0  0  0  0  0  0
    1.7386    1.8209    1.2503 H   0  0  0  0  0  0  0  0  0  0  0  0
  1  2  1  0  0  0  0
  1 22  1  0  0  0  0
  1 23  1  0  0  0  0
  1 24  1  0  0  0  0
  2  3  1  0  0  0  0
  2  4  1  0  0  0  0
  3 25  1  0  0  0  0
  3 26  1  0  0  0  0
  3 27  1  0  0  0  0
  4  9  2  0  0  0  0
  4  5  1  0  0  0  0
  5  6  2  0  0  0  0
  5 28  1  0  0  0  0
  6  7  1  0  0  0  0
  6 29  1  0  0  0  0
  7 13  2  0  0  0  0
  7  8  1  0  0  0  0
  8  9  1  0  0  0  0
  8 10  2  0  0  0  0
 10 11  1  0  0  0  0
 10 14  1  0  0  0  0
 11 12  2  0  0  0  0
 12 13  1  0  0  0  0
 12 30  1  0  0  0  0
 14 15  1  0  0  0  0
 14 31  1  0  0  0  0
 15 20  2  0  0  0  0
 15 16  1  0  0  0  0
 16 17  2  0  0  0  0
 16 32  1  0  0  0  0
 17 18  1  0  0  0  0
 17 33  1  0  0  0  0
 18 19  2  0  0  0  0
 18 34  1  0  0  0  0
 19 20  1  0  0  0  0
 19 21  1  0  0  0  0
 20 35  1  0  0  0  0
M  END
$$$$
ZINC00020368
  -OEChem-08230709403D

 37 39  0     0  0  0  0  0  0999 V2000
   -4.9561    3.5634   -0.1463 C   0  0  0  0  0  0  0  0  0  0  0  0
   -3.6060    2.9008   -0.0492 C   0  0  0  0  0  0  0  0  0  0  0  0
   -3.5224    1.6910   -0.0563 O   0  0  0  0  0  0  0  0  0  0  0  0
   -2.4916    3.6528    0.0455 N   0  0  0  0  0  0  0  0  0  0  0  0
   -1.2379    3.0454    0.0284 C   0  0  0  0  0  0  0  0  0  0  0  0
   -0.1050    3.8369    0.0198 C   0  0  0  0  0  0  0  0  0  0  0  0
    1.1470    3.2105    0.0026 C   0  0  0  0  0  0  0  0  0  0  0  0
    1.1877    1.7909   -0.0050 C   0  0  0  0  0  0  0  0  0  0  0  0
   -0.0123    1.0761    0.0043 C   0  0  0  0  0  0  0  0  0  0  0  0
   -1.1599    1.7177    0.0148 N   0  0  0  0  0  0  0  0  0  0  0  0
    2.4539    1.1606   -0.0224 C   0  0  0  0  0  0  0  0  0  0  0  0
    3.5353    1.9310   -0.0309 N   0  0  0  0  0  0  0  0  0  0  0  0
    3.4465    3.2512   -0.0237 C   0  0  0  0  0  0  0  0  0  0  0  0
    2.2997    3.8910   -0.0072 N   0  0  0  0  0  0  0  0  0  0  0  0
    2.5620   -0.2125   -0.0307 N   0  0  0  0  0  0  0  0  0  0  0  0
    3.8842   -0.8431   -0.0486 C   0  0  0  0  0  0  0  0  0  0  0  0
    3.7260   -2.3417   -0.0546 C   0  0  0  0  0  0  0  0  0  0  0  0
    3.6724   -3.0359    1.1396 C   0  0  0  0  0  0  0  0  0  0  0  0
    3.5219   -4.4100    1.1342 C   0  0  0  0  0  0  0  0  0  0  0  0
    3.4361   -5.0912   -0.0656 C   0  0  0  0  0  0  0  0  0  0  0  0
    3.4954   -4.3976   -1.2600 C   0  0  0  0  0  0  0  0  0  0  0  0
    3.6401   -3.0229   -1.2545 C   0  0  0  0  0  0  0  0  0  0  0  0
   -5.2023    3.7346   -1.1942 H   0  0  0  0  0  0  0  0  0  0  0  0
   -5.7107    2.9181    0.3035 H   0  0  0  0  0  0  0  0  0  0  0  0
   -4.9318    4.5167    0.3817 H   0  0  0  0  0  0  0  0  0  0  0  0
   -2.5624    4.6169    0.1255 H   0  0  0  0  0  0  0  0  0  0  0  0
   -0.1836    4.9140    0.0265 H   0  0  0  0  0  0  0  0  0  0  0  0
    0.0025   -0.0038   -0.0018 H   0  0  0  0  0  0  0  0  0  0  0  0
    4.3589    3.8290   -0.0313 H   0  0  0  0  0  0  0  0  0  0  0  0
    1.7627   -0.7620   -0.0246 H   0  0  0  0  0  0  0  0  0  0  0  0
    4.4234   -0.5311   -0.9431 H   0  0  0  0  0  0  0  0  0  0  0  0
    4.4432   -0.5403    0.8368 H   0  0  0  0  0  0  0  0  0  0  0  0
    3.7440   -2.5042    2.0769 H   0  0  0  0  0  0  0  0  0  0  0  0
    3.4752   -4.9518    2.0673 H   0  0  0  0  0  0  0  0  0  0  0  0
    3.3223   -6.1651   -0.0699 H   0  0  0  0  0  0  0  0  0  0  0  0
    3.4283   -4.9298   -2.1973 H   0  0  0  0  0  0  0  0  0  0  0  0
    3.6865   -2.4810   -2.1875 H   0  0  0  0  0  0  0  0  0  0  0  0
  1  2  1  0  0  0  0
  1 23  1  0  0  0  0
  1 24  1  0  0  0  0
  1 25  1  0  0  0  0
  2  3  2  0  0  0  0
  2  4  1  0  0  0  0
  4  5  1  0  0  0  0
  4 26  1  0  0  0  0
  5 10  2  0  0  0  0
  5  6  1  0  0  0  0
  6  7  2  0  0  0  0
  6 27  1  0  0  0  0
  7 14  1  0  0  0  0
  7  8  1  0  0  0  0
  8  9  2  0  0  0  0
  8 11  1  0  0  0  0
  9 10  1  0  0  0  0
  9 28  1  0  0  0  0
 11 12  2  0  0  0  0
 11 15  1  0  0  0  0
 12 13  1  0  0  0  0
 13 14  2  0  0  0  0
 13 29  1  0  0  0  0
 15 16  1  0  0  0  0
 15 30  1  0  0  0  0
 16 17  1  0  0  0  0
 16 31  1  0  0  0  0
 16 32  1  0  0  0  0
 17 22  2  0  0  0  0
 17 18  1  0  0  0  0
 18 19  2  0  0  0  0
 18 33  1  0  0  0  0
 19 20  1  0  0  0  0
 19 34  1  0  0  0  0
 20 21  2  0  0  0  0
 20 35  1  0  0  0  0
 21 22  1  0  0  0  0
 21 36  1  0  0  0  0
 22 37  1  0  0  0  0
M  END
$$$$
ZINC00020644
  -OEChem-08230709403D

 32 34  0     0  0  0  0  0  0999 V2000
    4.3515   -1.6234    0.1546 C   0  0  0  0  0  0  0  0  0  0  0  0
    3.7504   -0.2549   -0.0373 C   0  0  0  0  0  0  0  0  0  0  0  0
    4.4171    0.9083   -0.1179 C   0  0  0  0  0  0  0  0  0  0  0  0
    3.5316    1.9403   -0.2923 N   0  0  0  0  0  0  0  0  0  0  0  0
    3.7765    2.8750   -0.3777 H   0  0  0  0  0  0  0  0  0  0  0  0
    2.2520    1.4583   -0.3288 C   0  0  0  0  0  0  0  0  0  0  0  0
    2.3299    0.0620   -0.1708 C   0  0  0  0  0  0  0  0  0  0  0  0
    1.1408   -0.6828   -0.1722 C   0  0  0  0  0  0  0  0  0  0  0  0
   -0.0102   -0.0336   -0.3233 N   0  0  0  0  0  0  0  0  0  0  0  0
   -0.0377    1.2788   -0.4686 C   0  0  0  0  0  0  0  0  0  0  0  0
    1.0515    2.0167   -0.4733 N   0  0  0  0  0  0  0  0  0  0  0  0
    1.1649   -2.0584   -0.0197 N   0  0  0  0  0  0  0  0  0  0  0  0
   -0.0327   -2.7700    0.0939 C   0  0  0  0  0  0  0  0  0  0  0  0
   -0.1266   -4.0603   -0.4129 C   0  0  0  0  0  0  0  0  0  0  0  0
   -1.3109   -4.7612   -0.2988 C   0  0  0  0  0  0  0  0  0  0  0  0
   -2.4033   -4.1805    0.3192 C   0  0  0  0  0  0  0  0  0  0  0  0
   -2.3136   -2.8960    0.8255 C   0  0  0  0  0  0  0  0  0  0  0  0
   -1.1295   -2.1910    0.7187 C   0  0  0  0  0  0  0  0  0  0  0  0
   -3.8101   -2.1068    1.6701 Br  0  0  0  0  0  0  0  0  0  0  0  0
    5.9142    1.0568   -0.0304 C   0  0  0  0  0  0  0  0  0  0  0  0
    4.5673   -2.0651   -0.8183 H   0  0  0  0  0  0  0  0  0  0  0  0
    5.2748   -1.5377    0.7275 H   0  0  0  0  0  0  0  0  0  0  0  0
    3.6472   -2.2573    0.6932 H   0  0  0  0  0  0  0  0  0  0  0  0
   -0.9936    1.7659   -0.5931 H   0  0  0  0  0  0  0  0  0  0  0  0
    2.0129   -2.5285    0.0082 H   0  0  0  0  0  0  0  0  0  0  0  0
    0.7258   -4.5145   -0.8960 H   0  0  0  0  0  0  0  0  0  0  0  0
   -1.3840   -5.7643   -0.6924 H   0  0  0  0  0  0  0  0  0  0  0  0
   -3.3284   -4.7309    0.4070 H   0  0  0  0  0  0  0  0  0  0  0  0
   -1.0585   -1.1898    1.1173 H   0  0  0  0  0  0  0  0  0  0  0  0
    6.3458    0.9814   -1.0284 H   0  0  0  0  0  0  0  0  0  0  0  0
    6.1585    2.0286    0.3987 H   0  0  0  0  0  0  0  0  0  0  0  0
    6.3212    0.2678    0.6020 H   0  0  0  0  0  0  0  0  0  0  0  0
  1  2  1  0  0  0  0
  1 21  1  0  0  0  0
  1 22  1  0  0  0  0
  1 23  1  0  0  0  0
  2  7  1  0  0  0  0
  2  3  2  0  0  0  0
  3  4  1  0  0  0  0
  3 20  1  0  0  0  0
  4  5  1  0  0  0  0
  4  6  1  0  0  0  0
  6 11  2  0  0  0  0
  6  7  1  0  0  0  0
  7  8  2  0  0  0  0
  8  9  1  0  0  0  0
  8 12  1  0  0  0  0
  9 10  2  0  0  0  0
 10 11  1  0  0  0  0
 10 24  1  0  0  0  0
 12 13  1  0  0  0  0
 12 25  1  0  0  0  0
 13 18  2  0  0  0  0
 13 14  1  0  0  0  0
 14 15  2  0  0  0  0
 14 26  1  0  0  0  0
 15 16  1  0  0  0  0
 15 27  1  0  0  0  0
 16 17  2  0  0  0  0
 16 28  1  0  0  0  0
 17 18  1  0  0  0  0
 17 19  1  0  0  0  0
 18 29  1  0  0  0  0
 20 30  1  0  0  0  0
 20 31  1  0  0  0  0
 20 32  1  0  0  0  0
M  END
$$$$
ZINC00020645
  -OEChem-08230709403D

 36 39  0     0  0  0  0  0  0999 V2000
    3.5645   -0.8444    0.3436 C   0  0  0  0  0  0  0  0  0  0  0  0
    2.3658   -0.1686    0.4645 C   0  0  0  0  0  0  0  0  0  0  0  0
    1.2163   -0.6859   -0.1187 C   0  0  0  0  0  0  0  0  0  0  0  0
    1.2746   -1.8850   -0.8175 C   0  0  0  0  0  0  0  0  0  0  0  0
    2.4778   -2.5538   -0.9394 C   0  0  0  0  0  0  0  0  0  0  0  0
    3.6213   -2.0350   -0.3567 C   0  0  0  0  0  0  0  0  0  0  0  0
    2.5538   -4.0495   -1.8174 Cl  0  0  0  0  0  0  0  0  0  0  0  0
    0.0021   -0.0041    0.0020 N   0  0  0  0  0  0  0  0  0  0  0  0
   -0.0166    1.3800    0.0110 C   0  0  0  0  0  0  0  0  0  0  0  0
   -1.2084    2.0812    0.2528 C   0  0  0  0  0  0  0  0  0  0  0  0
   -2.5874    1.7146    0.5430 C   0  0  0  0  0  0  0  0  0  0  0  0
   -3.2814    2.8602    0.6876 C   0  0  0  0  0  0  0  0  0  0  0  0
   -2.4425    3.9278    0.5152 N   0  0  0  0  0  0  0  0  0  0  0  0
   -2.7089    4.8588    0.5706 H   0  0  0  0  0  0  0  0  0  0  0  0
   -1.1723    3.4894    0.2538 C   0  0  0  0  0  0  0  0  0  0  0  0
   -0.0109    4.0969    0.0169 N   0  0  0  0  0  0  0  0  0  0  0  0
    1.0803    3.3980   -0.2084 C   0  0  0  0  0  0  0  0  0  0  0  0
    1.0927    2.0772   -0.2145 N   0  0  0  0  0  0  0  0  0  0  0  0
   -4.7606    2.9113    0.9926 C   0  0  0  0  0  0  0  0  0  0  0  0
   -5.3690    1.5382    0.6872 C   0  0  0  0  0  0  0  0  0  0  0  0
   -4.5370    0.4473    1.3675 C   0  0  0  0  0  0  0  0  0  0  0  0
   -3.1783    0.3338    0.6652 C   0  0  0  0  0  0  0  0  0  0  0  0
    4.4584   -0.4423    0.7971 H   0  0  0  0  0  0  0  0  0  0  0  0
    2.3226    0.7614    1.0118 H   0  0  0  0  0  0  0  0  0  0  0  0
    0.3815   -2.2923   -1.2681 H   0  0  0  0  0  0  0  0  0  0  0  0
    4.5597   -2.5616   -0.4490 H   0  0  0  0  0  0  0  0  0  0  0  0
   -0.8275   -0.5008    0.0795 H   0  0  0  0  0  0  0  0  0  0  0  0
    2.0039    3.9256   -0.3957 H   0  0  0  0  0  0  0  0  0  0  0  0
   -4.9092    3.1513    2.0454 H   0  0  0  0  0  0  0  0  0  0  0  0
   -5.2367    3.6694    0.3708 H   0  0  0  0  0  0  0  0  0  0  0  0
   -5.3719    1.3738   -0.3903 H   0  0  0  0  0  0  0  0  0  0  0  0
   -6.3916    1.5024    1.0628 H   0  0  0  0  0  0  0  0  0  0  0  0
   -5.0619   -0.5056    1.3005 H   0  0  0  0  0  0  0  0  0  0  0  0
   -4.3844    0.7058    2.4154 H   0  0  0  0  0  0  0  0  0  0  0  0
   -3.3138   -0.0958   -0.3273 H   0  0  0  0  0  0  0  0  0  0  0  0
   -2.5134   -0.2984    1.2537 H   0  0  0  0  0  0  0  0  0  0  0  0
  1  6  2  0  0  0  0
  1  2  1  0  0  0  0
  1 23  1  0  0  0  0
  2  3  2  0  0  0  0
  2 24  1  0  0  0  0
  3  4  1  0  0  0  0
  3  8  1  0  0  0  0
  4  5  2  0  0  0  0
  4 25  1  0  0  0  0
  5  6  1  0  0  0  0
  5  7  1  0  0  0  0
  6 26  1  0  0  0  0
  8  9  1  0  0  0  0
  8 27  1  0  0  0  0
  9 18  2  0  0  0  0
  9 10  1  0  0  0  0
 10 15  2  0  0  0  0
 10 11  1  0  0  0  0
 11 22  1  0  0  0  0
 11 12  2  0  0  0  0
 12 13  1  0  0  0  0
 12 19  1  0  0  0  0
 13 14  1  0  0  0  0
 13 15  1  0  0  0  0
 15 16  1  0  0  0  0
 16 17  2  0  0  0  0
 17 18  1  0  0  0  0
 17 28  1  0  0  0  0
 19 20  1  0  0  0  0
 19 29  1  0  0  0  0
 19 30  1  0  0  0  0
 20 21  1  0  0  0  0
 20 31  1  0  0  0  0
 20 32  1  0  0  0  0
 21 22  1  0  0  0  0
 21 33  1  0  0  0  0
 21 34  1  0  0  0  0
 22 35  1  0  0  0  0
 22 36  1  0  0  0  0
M  END
$$$$
ZINC00021592
  -OEChem-08230709403D

 37 40  0     0  0  0  0  0  0999 V2000
   -0.0268    1.0823    0.1357 C   0  0  0  0  0  0  0  0  0  0  0  0
    0.9025    1.7936    0.8724 C   0  0  0  0  0  0  0  0  0  0  0  0
    0.8922    3.1745    0.8511 C   0  0  0  0  0  0  0  0  0  0  0  0
   -0.0603    3.8488    0.0978 C   0  0  0  0  0  0  0  0  0  0  0  0
   -0.9959    3.1312   -0.6365 C   0  0  0  0  0  0  0  0  0  0  0  0
   -0.9764    1.7505   -0.6153 C   0  0  0  0  0  0  0  0  0  0  0  0
   -0.0775    5.2465    0.0789 N   0  0  0  0  0  0  0  0  0  0  0  0
   -1.2769    5.9212   -0.0505 C   0  0  0  0  0  0  0  0  0  0  0  0
   -1.3062    7.3200   -0.1785 C   0  0  0  0  0  0  0  0  0  0  0  0
   -2.5554    7.9573   -0.3117 C   0  0  0  0  0  0  0  0  0  0  0  0
   -2.3069    9.2917   -0.4231 N   0  0  0  0  0  0  0  0  0  0  0  0
   -3.0019   10.0017   -0.5363 H   0  0  0  0  0  0  0  0  0  0  0  0
   -0.9274    9.5140   -0.3544 N   0  0  0  0  0  0  0  0  0  0  0  0
   -0.2982    8.3752   -0.2161 C   0  0  0  0  0  0  0  0  0  0  0  0
    1.0844    8.2010   -0.1213 N   0  0  0  0  0  0  0  0  0  0  0  0
    1.9259    9.3143   -0.0574 C   0  0  0  0  0  0  0  0  0  0  0  0
    3.2396    9.2205   -0.4997 C   0  0  0  0  0  0  0  0  0  0  0  0
    4.0671   10.3245   -0.4400 C   0  0  0  0  0  0  0  0  0  0  0  0
    3.5926   11.5195    0.0691 C   0  0  0  0  0  0  0  0  0  0  0  0
    2.2871   11.6149    0.5155 C   0  0  0  0  0  0  0  0  0  0  0  0
    1.4526   10.5164    0.4539 C   0  0  0  0  0  0  0  0  0  0  0  0
   -3.6587    7.2091   -0.3014 N   0  0  0  0  0  0  0  0  0  0  0  0
   -3.5821    5.9027   -0.1745 C   0  0  0  0  0  0  0  0  0  0  0  0
   -2.4323    5.2633   -0.0515 N   0  0  0  0  0  0  0  0  0  0  0  0
   -0.0137    0.0025    0.1506 H   0  0  0  0  0  0  0  0  0  0  0  0
    1.6400    1.2688    1.4615 H   0  0  0  0  0  0  0  0  0  0  0  0
    1.6208    3.7295    1.4234 H   0  0  0  0  0  0  0  0  0  0  0  0
   -1.7380    3.6524   -1.2230 H   0  0  0  0  0  0  0  0  0  0  0  0
   -1.7038    1.1919   -1.1857 H   0  0  0  0  0  0  0  0  0  0  0  0
    0.7522    5.7428    0.1567 H   0  0  0  0  0  0  0  0  0  0  0  0
    1.4603    7.3071   -0.0999 H   0  0  0  0  0  0  0  0  0  0  0  0
    3.6121    8.2863   -0.8933 H   0  0  0  0  0  0  0  0  0  0  0  0
    5.0872   10.2533   -0.7874 H   0  0  0  0  0  0  0  0  0  0  0  0
    4.2431   12.3802    0.1185 H   0  0  0  0  0  0  0  0  0  0  0  0
    1.9200   12.5495    0.9132 H   0  0  0  0  0  0  0  0  0  0  0  0
    0.4334   10.5915    0.8030 H   0  0  0  0  0  0  0  0  0  0  0  0
   -4.4968    5.3285   -0.1703 H   0  0  0  0  0  0  0  0  0  0  0  0
  1  6  2  0  0  0  0
  1  2  1  0  0  0  0
  1 25  1  0  0  0  0
  2  3  2  0  0  0  0
  2 26  1  0  0  0  0
  3  4  1  0  0  0  0
  3 27  1  0  0  0  0
  4  5  2  0  0  0  0
  4  7  1  0  0  0  0
  5  6  1  0  0  0  0
  5 28  1  0  0  0  0
  6 29  1  0  0  0  0
  7  8  1  0  0  0  0
  7 30  1  0  0  0  0
  8 24  2  0  0  0  0
  8  9  1  0  0  0  0
  9 14  1  0  0  0  0
  9 10  2  0  0  0  0
 10 11  1  0  0  0  0
 10 22  1  0  0  0  0
 11 12  1  0  0  0  0
 11 13  1  0  0  0  0
 13 14  2  0  0  0  0
 14 15  1  0  0  0  0
 15 16  1  0  0  0  0
 15 31  1  0  0  0  0
 16 21  2  0  0  0  0
 16 17  1  0  0  0  0
 17 18  2  0  0  0  0
 17 32  1  0  0  0  0
 18 19  1  0  0  0  0
 18 33  1  0  0  0  0
 19 20  2  0  0  0  0
 19 34  1  0  0  0  0
 20 21  1  0  0  0  0
 20 35  1  0  0  0  0
 21 36  1  0  0  0  0
 22 23  2  0  0  0  0
 23 24  1  0  0  0  0
 23 37  1  0  0  0  0
M  END
$$$$
ZINC00023489
  -OEChem-08230709403D

 29 31  0     0  0  0  0  0  0999 V2000
    5.7243   -1.5218   -0.9838 C   0  0  0  0  0  0  0  0  0  0  0  0
    4.5856   -0.7417   -0.9748 C   0  0  0  0  0  0  0  0  0  0  0  0
    3.5826   -0.9875   -0.0388 C   0  0  0  0  0  0  0  0  0  0  0  0
    3.7309   -2.0273    0.8774 C   0  0  0  0  0  0  0  0  0  0  0  0
    4.8722   -2.8047    0.8563 C   0  0  0  0  0  0  0  0  0  0  0  0
    5.8674   -2.5521   -0.0727 C   0  0  0  0  0  0  0  0  0  0  0  0
    5.0591   -4.1008    1.9960 Cl  0  0  0  0  0  0  0  0  0  0  0  0
    2.3592   -0.1494   -0.0217 C   0  0  0  0  0  0  0  0  0  0  0  0
    1.1282   -0.7219   -0.0126 C   0  0  0  0  0  0  0  0  0  0  0  0
    0.0021   -0.0041    0.0020 O   0  0  0  0  0  0  0  0  0  0  0  0
   -0.0162    1.3440    0.0094 C   0  0  0  0  0  0  0  0  0  0  0  0
   -1.2210    2.0320    0.0304 C   0  0  0  0  0  0  0  0  0  0  0  0
   -1.2303    3.4176    0.0313 C   0  0  0  0  0  0  0  0  0  0  0  0
   -0.0392    4.1360    0.0238 C   0  0  0  0  0  0  0  0  0  0  0  0
    1.1719    3.4700    0.0091 C   0  0  0  0  0  0  0  0  0  0  0  0
    1.1887    2.0689    0.0018 C   0  0  0  0  0  0  0  0  0  0  0  0
    2.4559    1.3211   -0.0147 C   0  0  0  0  0  0  0  0  0  0  0  0
    3.5338    1.8906   -0.0219 O   0  0  0  0  0  0  0  0  0  0  0  0
    2.3358    4.1677    0.0012 O   0  0  0  0  0  0  0  0  0  0  0  0
   -2.4145    4.0811    0.0458 O   0  0  0  0  0  0  0  0  0  0  0  0
    6.5034   -1.3296   -1.7067 H   0  0  0  0  0  0  0  0  0  0  0  0
    4.4736    0.0602   -1.6894 H   0  0  0  0  0  0  0  0  0  0  0  0
    2.9552   -2.2245    1.6024 H   0  0  0  0  0  0  0  0  0  0  0  0
    6.7585   -3.1623   -0.0860 H   0  0  0  0  0  0  0  0  0  0  0  0
    1.0569   -1.7995   -0.0177 H   0  0  0  0  0  0  0  0  0  0  0  0
   -2.1531    1.4866    0.0403 H   0  0  0  0  0  0  0  0  0  0  0  0
   -0.0607    5.2157    0.0291 H   0  0  0  0  0  0  0  0  0  0  0  0
    2.6645    4.3744   -0.8844 H   0  0  0  0  0  0  0  0  0  0  0  0
   -2.7659    4.2778   -0.8334 H   0  0  0  0  0  0  0  0  0  0  0  0
  1  6  2  0  0  0  0
  1  2  1  0  0  0  0
  1 21  1  0  0  0  0
  2  3  2  0  0  0  0
  2 22  1  0  0  0  0
  3  4  1  0  0  0  0
  3  8  1  0  0  0  0
  4  5  2  0  0  0  0
  4 23  1  0  0  0  0
  5  6  1  0  0  0  0
  5  7  1  0  0  0  0
  6 24  1  0  0  0  0
  8 17  1  0  0  0  0
  8  9  2  0  0  0  0
  9 10  1  0  0  0  0
  9 25  1  0  0  0  0
 10 11  1  0  0  0  0
 11 16  2  0  0  0  0
 11 12  1  0  0  0  0
 12 13  2  0  0  0  0
 12 26  1  0  0  0  0
 13 14  1  0  0  0  0
 13 20  1  0  0  0  0
 14 15  2  0  0  0  0
 14 27  1  0  0  0  0
 15 16  1  0  0  0  0
 15 19  1  0  0  0  0
 16 17  1  0  0  0  0
 17 18  2  0  0  0  0
 19 28  1  0  0  0  0
 20 29  1  0  0  0  0
M  END
$$$$
ZINC00104621
  -OEChem-08230709403D

 31 33  0     0  0  0  0  0  0999 V2000
   -2.3117    3.4078   -1.4699 C   0  0  0  0  0  0  0  0  0  0  0  0
   -1.1239    2.9155   -0.6839 C   0  0  0  0  0  0  0  0  0  0  0  0
   -1.2189    1.7493    0.0536 C   0  0  0  0  0  0  0  0  0  0  0  0
   -0.1330    1.2967    0.7801 C   0  0  0  0  0  0  0  0  0  0  0  0
    1.0540    2.0028    0.7630 C   0  0  0  0  0  0  0  0  0  0  0  0
    1.1544    3.1715    0.0193 C   0  0  0  0  0  0  0  0  0  0  0  0
    0.0597    3.6263   -0.7052 C   0  0  0  0  0  0  0  0  0  0  0  0
    2.3543    3.8883   -0.0005 N   0  0  0  0  0  0  0  0  0  0  0  0
    3.5581    3.2206    0.0886 C   0  0  0  0  0  0  0  0  0  0  0  0
    4.7790    3.9318    0.1880 C   0  0  0  0  0  0  0  0  0  0  0  0
    4.8267    5.3301    0.1998 C   0  0  0  0  0  0  0  0  0  0  0  0
    6.0324    5.9603    0.2971 C   0  0  0  0  0  0  0  0  0  0  0  0
    7.2150    5.2312    0.3846 C   0  0  0  0  0  0  0  0  0  0  0  0
    7.2024    3.8681    0.3756 C   0  0  0  0  0  0  0  0  0  0  0  0
    5.9809    3.1881    0.2769 C   0  0  0  0  0  0  0  0  0  0  0  0
    5.9124    1.8485    0.2633 N   0  0  0  0  0  0  0  0  0  0  0  0
    4.7526    1.2428    0.1693 C   0  0  0  0  0  0  0  0  0  0  0  0
    3.6037    1.8950    0.0891 N   0  0  0  0  0  0  0  0  0  0  0  0
   -2.2856    2.9816   -2.4728 H   0  0  0  0  0  0  0  0  0  0  0  0
   -3.2306    3.1026   -0.9692 H   0  0  0  0  0  0  0  0  0  0  0  0
   -2.2781    4.4953   -1.5362 H   0  0  0  0  0  0  0  0  0  0  0  0
   -2.1446    1.1931    0.0653 H   0  0  0  0  0  0  0  0  0  0  0  0
   -0.2116    0.3877    1.3579 H   0  0  0  0  0  0  0  0  0  0  0  0
    1.9030    1.6467    1.3277 H   0  0  0  0  0  0  0  0  0  0  0  0
    0.1346    4.5345   -1.2849 H   0  0  0  0  0  0  0  0  0  0  0  0
    2.3404    4.8551   -0.0768 H   0  0  0  0  0  0  0  0  0  0  0  0
    3.9156    5.9061    0.1329 H   0  0  0  0  0  0  0  0  0  0  0  0
    6.0701    7.0396    0.3063 H   0  0  0  0  0  0  0  0  0  0  0  0
    8.1572    5.7536    0.4604 H   0  0  0  0  0  0  0  0  0  0  0  0
    8.1279    3.3156    0.4439 H   0  0  0  0  0  0  0  0  0  0  0  0
    4.7341    0.1630    0.1611 H   0  0  0  0  0  0  0  0  0  0  0  0
  1  2  1  0  0  0  0
  1 19  1  0  0  0  0
  1 20  1  0  0  0  0
  1 21  1  0  0  0  0
  2  7  2  0  0  0  0
  2  3  1  0  0  0  0
  3  4  2  0  0  0  0
  3 22  1  0  0  0  0
  4  5  1  0  0  0  0
  4 23  1  0  0  0  0
  5  6  2  0  0  0  0
  5 24  1  0  0  0  0
  6  7  1  0  0  0  0
  6  8  1  0  0  0  0
  7 25  1  0  0  0  0
  8  9  1  0  0  0  0
  8 26  1  0  0  0  0
  9 18  2  0  0  0  0
  9 10  1  0  0  0  0
 10 15  2  0  0  0  0
 10 11  1  0  0  0  0
 11 12  2  0  0  0  0
 11 27  1  0  0  0  0
 12 13  1  0  0  0  0
 12 28  1  0  0  0  0
 13 14  2  0  0  0  0
 13 29  1  0  0  0  0
 14 15  1  0  0  0  0
 14 30  1  0  0  0  0
 15 16  1  0  0  0  0
 16 17  2  0  0  0  0
 17 18  1  0  0  0  0
 17 31  1  0  0  0  0
M  END
$$$$
ZINC00104782
  -OEChem-08230709403D

 32 34  0     0  0  0  0  0  0999 V2000
   -1.2337   -0.4416   -2.2031 C   0  0  0  0  0  0  0  0  0  0  0  0
    0.0134    0.2333   -2.0262 O   0  0  0  0  0  0  0  0  0  0  0  0
    0.0095    1.3403   -1.2380 C   0  0  0  0  0  0  0  0  0  0  0  0
   -1.1705    1.7649   -0.6428 C   0  0  0  0  0  0  0  0  0  0  0  0
   -1.1773    2.8935    0.1543 C   0  0  0  0  0  0  0  0  0  0  0  0
   -0.0080    3.5967    0.3708 C   0  0  0  0  0  0  0  0  0  0  0  0
    1.1771    3.1735   -0.2180 C   0  0  0  0  0  0  0  0  0  0  0  0
    1.1845    2.0430   -1.0238 C   0  0  0  0  0  0  0  0  0  0  0  0
    2.3603    3.8848    0.0008 N   0  0  0  0  0  0  0  0  0  0  0  0
    3.5622    3.2135    0.0894 C   0  0  0  0  0  0  0  0  0  0  0  0
    4.7852    3.9211    0.1892 C   0  0  0  0  0  0  0  0  0  0  0  0
    4.8368    5.3193    0.2025 C   0  0  0  0  0  0  0  0  0  0  0  0
    6.0444    5.9459    0.2997 C   0  0  0  0  0  0  0  0  0  0  0  0
    7.2249    5.2133    0.3866 C   0  0  0  0  0  0  0  0  0  0  0  0
    7.2084    3.8503    0.3763 C   0  0  0  0  0  0  0  0  0  0  0  0
    5.9849    3.1739    0.2771 C   0  0  0  0  0  0  0  0  0  0  0  0
    5.9125    1.8345    0.2622 N   0  0  0  0  0  0  0  0  0  0  0  0
    4.7510    1.2322    0.1678 C   0  0  0  0  0  0  0  0  0  0  0  0
    3.6039    1.8878    0.0890 N   0  0  0  0  0  0  0  0  0  0  0  0
   -1.6081   -0.7730   -1.2346 H   0  0  0  0  0  0  0  0  0  0  0  0
   -1.9538    0.2389   -2.6575 H   0  0  0  0  0  0  0  0  0  0  0  0
   -1.0905   -1.3054   -2.8522 H   0  0  0  0  0  0  0  0  0  0  0  0
   -2.0854    1.2148   -0.8065 H   0  0  0  0  0  0  0  0  0  0  0  0
   -2.0977    3.2241    0.6126 H   0  0  0  0  0  0  0  0  0  0  0  0
   -0.0151    4.4760    0.9978 H   0  0  0  0  0  0  0  0  0  0  0  0
    2.1044    1.7116   -1.4825 H   0  0  0  0  0  0  0  0  0  0  0  0
    2.3362    4.8503    0.0905 H   0  0  0  0  0  0  0  0  0  0  0  0
    3.9274    5.8980    0.1357 H   0  0  0  0  0  0  0  0  0  0  0  0
    6.0852    7.0251    0.3093 H   0  0  0  0  0  0  0  0  0  0  0  0
    8.1686    5.7330    0.4631 H   0  0  0  0  0  0  0  0  0  0  0  0
    8.1323    3.2951    0.4437 H   0  0  0  0  0  0  0  0  0  0  0  0
    4.7294    0.1525    0.1586 H   0  0  0  0  0  0  0  0  0  0  0  0
  1  2  1  0  0  0  0
  1 20  1  0  0  0  0
  1 21  1  0  0  0  0
  1 22  1  0  0  0  0
  2  3  1  0  0  0  0
  3  8  2  0  0  0  0
  3  4  1  0  0  0  0
  4  5  2  0  0  0  0
  4 23  1  0  0  0  0
  5  6  1  0  0  0  0
  5 24  1  0  0  0  0
  6  7  2  0  0  0  0
  6 25  1  0  0  0  0
  7  8  1  0  0  0  0
  7  9  1  0  0  0  0
  8 26  1  0  0  0  0
  9 10  1  0  0  0  0
  9 27  1  0  0  0  0
 10 19  2  0  0  0  0
 10 11  1  0  0  0  0
 11 16  2  0  0  0  0
 11 12  1  0  0  0  0
 12 13  2  0  0  0  0
 12 28  1  0  0  0  0
 13 14  1  0  0  0  0
 13 29  1  0  0  0  0
 14 15  2  0  0  0  0
 14 30  1  0  0  0  0
 15 16  1  0  0  0  0
 15 31  1  0  0  0  0
 16 17  1  0  0  0  0
 17 18  2  0  0  0  0
 18 19  1  0  0  0  0
 18 32  1  0  0  0  0
M  END
$$$$
ZINC00109589
  -OEChem-08230709403D

 31 33  0     0  0  0  0  0  0999 V2000
    1.9252    8.3882    0.0266 C   0  0  0  0  0  0  0  0  0  0  0  0
    2.0395    7.6988    1.2193 C   0  0  0  0  0  0  0  0  0  0  0  0
    2.2453    6.3319    1.2105 C   0  0  0  0  0  0  0  0  0  0  0  0
    2.3372    5.6544    0.0091 C   0  0  0  0  0  0  0  0  0  0  0  0
    2.2286    6.3447   -1.1837 C   0  0  0  0  0  0  0  0  0  0  0  0
    2.0171    7.7108   -1.1749 C   0  0  0  0  0  0  0  0  0  0  0  0
    2.5620    4.1643   -0.0005 C   0  0  0  0  0  0  0  0  0  0  0  0
    1.2691    3.4754    0.0081 N   0  0  0  0  0  0  0  0  0  0  0  0
    1.2222    2.0977    0.0017 C   0  0  0  0  0  0  0  0  0  0  0  0
   -0.0171    1.4118    0.0098 C   0  0  0  0  0  0  0  0  0  0  0  0
   -1.2418    2.0883    0.0308 C   0  0  0  0  0  0  0  0  0  0  0  0
   -2.4037    1.3741    0.0333 C   0  0  0  0  0  0  0  0  0  0  0  0
   -2.3871   -0.0179    0.0257 C   0  0  0  0  0  0  0  0  0  0  0  0
   -1.2107   -0.7064    0.0103 C   0  0  0  0  0  0  0  0  0  0  0  0
    0.0021   -0.0041    0.0020 C   0  0  0  0  0  0  0  0  0  0  0  0
    1.1872   -0.6324   -0.0127 N   0  0  0  0  0  0  0  0  0  0  0  0
    2.3043    0.0549   -0.0196 C   0  0  0  0  0  0  0  0  0  0  0  0
    2.3361    1.3782   -0.0128 N   0  0  0  0  0  0  0  0  0  0  0  0
    1.7637    9.4560    0.0335 H   0  0  0  0  0  0  0  0  0  0  0  0
    1.9677    8.2280    2.1580 H   0  0  0  0  0  0  0  0  0  0  0  0
    2.3346    5.7932    2.1424 H   0  0  0  0  0  0  0  0  0  0  0  0
    2.3048    5.8161   -2.1224 H   0  0  0  0  0  0  0  0  0  0  0  0
    1.9274    8.2493   -2.1067 H   0  0  0  0  0  0  0  0  0  0  0  0
    3.1325    3.8773    0.8827 H   0  0  0  0  0  0  0  0  0  0  0  0
    3.1159    3.8862   -0.8971 H   0  0  0  0  0  0  0  0  0  0  0  0
    0.4461    3.9886    0.0184 H   0  0  0  0  0  0  0  0  0  0  0  0
   -1.2668    3.1680    0.0369 H   0  0  0  0  0  0  0  0  0  0  0  0
   -3.3494    1.8955    0.0455 H   0  0  0  0  0  0  0  0  0  0  0  0
   -3.3207   -0.5607    0.0324 H   0  0  0  0  0  0  0  0  0  0  0  0
   -1.2132   -1.7864    0.0048 H   0  0  0  0  0  0  0  0  0  0  0  0
    3.2407   -0.4832   -0.0318 H   0  0  0  0  0  0  0  0  0  0  0  0
  1  6  2  0  0  0  0
  1  2  1  0  0  0  0
  1 19  1  0  0  0  0
  2  3  2  0  0  0  0
  2 20  1  0  0  0  0
  3  4  1  0  0  0  0
  3 21  1  0  0  0  0
  4  5  2  0  0  0  0
  4  7  1  0  0  0  0
  5  6  1  0  0  0  0
  5 22  1  0  0  0  0
  6 23  1  0  0  0  0
  7  8  1  0  0  0  0
  7 24  1  0  0  0  0
  7 25  1  0  0  0  0
  8  9  1  0  0  0  0
  8 26  1  0  0  0  0
  9 18  2  0  0  0  0
  9 10  1  0  0  0  0
 10 15  2  0  0  0  0
 10 11  1  0  0  0  0
 11 12  2  0  0  0  0
 11 27  1  0  0  0  0
 12 13  1  0  0  0  0
 12 28  1  0  0  0  0
 13 14  2  0  0  0  0
 13 29  1  0  0  0  0
 14 15  1  0  0  0  0
 14 30  1  0  0  0  0
 15 16  1  0  0  0  0
 16 17  2  0  0  0  0
 17 18  1  0  0  0  0
 17 31  1  0  0  0  0
M  END
$$$$
ZINC00116727
  -OEChem-08230709403D

 36 38  0     0  0  0  0  0  0999 V2000
   -4.6770    0.4787    0.7932 C   0  0  0  0  0  0  0  0  0  0  0  0
   -4.4927   -0.9267    0.6119 O   0  0  0  0  0  0  0  0  0  0  0  0
   -3.2323   -1.3528    0.3304 C   0  0  0  0  0  0  0  0  0  0  0  0
   -2.2176   -0.4433    0.2345 C   0  0  0  0  0  0  0  0  0  0  0  0
   -0.9198   -0.8808   -0.0558 C   0  0  0  0  0  0  0  0  0  0  0  0
   -0.6661   -2.2616   -0.2481 C   0  0  0  0  0  0  0  0  0  0  0  0
   -1.7211   -3.1762   -0.1446 C   0  0  0  0  0  0  0  0  0  0  0  0
   -2.9890   -2.7203    0.1415 C   0  0  0  0  0  0  0  0  0  0  0  0
   -4.0145   -3.6055    0.2420 O   0  0  0  0  0  0  0  0  0  0  0  0
   -3.7029   -4.9852    0.0390 C   0  0  0  0  0  0  0  0  0  0  0  0
    0.5870   -2.6544   -0.5259 N   0  0  0  0  0  0  0  0  0  0  0  0
    1.5552   -1.7740   -0.6165 C   0  0  0  0  0  0  0  0  0  0  0  0
    1.3647   -0.4749   -0.4497 N   0  0  0  0  0  0  0  0  0  0  0  0
    0.1666    0.0194   -0.1666 C   0  0  0  0  0  0  0  0  0  0  0  0
   -0.0166    1.3763    0.0096 N   0  0  0  0  0  0  0  0  0  0  0  0
    1.0855    2.2360    0.0115 C   0  0  0  0  0  0  0  0  0  0  0  0
    2.3067    1.8010    0.5105 C   0  0  0  0  0  0  0  0  0  0  0  0
    3.3952    2.6511    0.5056 C   0  0  0  0  0  0  0  0  0  0  0  0
    3.2675    3.9376    0.0146 C   0  0  0  0  0  0  0  0  0  0  0  0
    2.0516    4.3758   -0.4772 C   0  0  0  0  0  0  0  0  0  0  0  0
    0.9606    3.5290   -0.4805 C   0  0  0  0  0  0  0  0  0  0  0  0
   -4.3869    1.0036   -0.1169 H   0  0  0  0  0  0  0  0  0  0  0  0
   -5.7253    0.6824    1.0117 H   0  0  0  0  0  0  0  0  0  0  0  0
   -4.0596    0.8220    1.6233 H   0  0  0  0  0  0  0  0  0  0  0  0
   -2.4154    0.6081    0.3821 H   0  0  0  0  0  0  0  0  0  0  0  0
   -1.5422   -4.2315   -0.2884 H   0  0  0  0  0  0  0  0  0  0  0  0
   -2.9673   -5.3041    0.7774 H   0  0  0  0  0  0  0  0  0  0  0  0
   -4.6086   -5.5820    0.1471 H   0  0  0  0  0  0  0  0  0  0  0  0
   -3.2951   -5.1220   -0.9626 H   0  0  0  0  0  0  0  0  0  0  0  0
    2.5517   -2.1244   -0.8417 H   0  0  0  0  0  0  0  0  0  0  0  0
   -0.9106    1.7337    0.1281 H   0  0  0  0  0  0  0  0  0  0  0  0
    2.4060    0.7979    0.8982 H   0  0  0  0  0  0  0  0  0  0  0  0
    4.3461    2.3121    0.8893 H   0  0  0  0  0  0  0  0  0  0  0  0
    4.1192    4.6016    0.0157 H   0  0  0  0  0  0  0  0  0  0  0  0
    1.9552    5.3812   -0.8596 H   0  0  0  0  0  0  0  0  0  0  0  0
    0.0113    3.8719   -0.8648 H   0  0  0  0  0  0  0  0  0  0  0  0
  1  2  1  0  0  0  0
  1 22  1  0  0  0  0
  1 23  1  0  0  0  0
  1 24  1  0  0  0  0
  2  3  1  0  0  0  0
  3  8  2  0  0  0  0
  3  4  1  0  0  0  0
  4  5  2  0  0  0  0
  4 25  1  0  0  0  0
  5 14  1  0  0  0  0
  5  6  1  0  0  0  0
  6  7  2  0  0  0  0
  6 11  1  0  0  0  0
  7  8  1  0  0  0  0
  7 26  1  0  0  0  0
  8  9  1  0  0  0  0
  9 10  1  0  0  0  0
 10 27  1  0  0  0  0
 10 28  1  0  0  0  0
 10 29  1  0  0  0  0
 11 12  2  0  0  0  0
 12 13  1  0  0  0  0
 12 30  1  0  0  0  0
 13 14  2  0  0  0  0
 14 15  1  0  0  0  0
 15 16  1  0  0  0  0
 15 31  1  0  0  0  0
 16 21  2  0  0  0  0
 16 17  1  0  0  0  0
 17 18  2  0  0  0  0
 17 32  1  0  0  0  0
 18 19  1  0  0  0  0
 18 33  1  0  0  0  0
 19 20  2  0  0  0  0
 19 34  1  0  0  0  0
 20 21  1  0  0  0  0
 20 35  1  0  0  0  0
 21 36  1  0  0  0  0
M  END
$$$$
ZINC00116937
  -OEChem-08230709403D

 36 38  0     0  0  0  0  0  0999 V2000
   -0.1079    7.8042   -0.3042 C   0  0  0  0  0  0  0  0  0  0  0  0
    1.1552    7.1532   -0.1529 O   0  0  0  0  0  0  0  0  0  0  0  0
    1.1386    5.8027    0.0050 C   0  0  0  0  0  0  0  0  0  0  0  0
   -0.0548    5.1381    0.0126 C   0  0  0  0  0  0  0  0  0  0  0  0
   -0.0731    3.7478    0.1756 C   0  0  0  0  0  0  0  0  0  0  0  0
    1.1438    3.0386    0.3315 C   0  0  0  0  0  0  0  0  0  0  0  0
    2.3555    3.7401    0.3207 C   0  0  0  0  0  0  0  0  0  0  0  0
    2.3464    5.1079    0.1587 C   0  0  0  0  0  0  0  0  0  0  0  0
    3.5206    5.7910    0.1478 O   0  0  0  0  0  0  0  0  0  0  0  0
    4.7172    5.0268    0.3091 C   0  0  0  0  0  0  0  0  0  0  0  0
    1.0982    1.7061    0.4865 N   0  0  0  0  0  0  0  0  0  0  0  0
   -0.0526    1.0764    0.4930 C   0  0  0  0  0  0  0  0  0  0  0  0
   -1.2129    1.6958    0.3459 N   0  0  0  0  0  0  0  0  0  0  0  0
   -1.2816    3.0116    0.1912 C   0  0  0  0  0  0  0  0  0  0  0  0
   -2.4993    3.6452    0.0441 N   0  0  0  0  0  0  0  0  0  0  0  0
   -3.6722    2.8912   -0.0543 C   0  0  0  0  0  0  0  0  0  0  0  0
   -4.8637    3.3869    0.4605 C   0  0  0  0  0  0  0  0  0  0  0  0
   -6.0210    2.6402    0.3616 C   0  0  0  0  0  0  0  0  0  0  0  0
   -5.9957    1.3999   -0.2495 C   0  0  0  0  0  0  0  0  0  0  0  0
   -4.8109    0.9027   -0.7635 C   0  0  0  0  0  0  0  0  0  0  0  0
   -3.6500    1.6476   -0.6718 C   0  0  0  0  0  0  0  0  0  0  0  0
   -4.7840   -0.6546   -1.5303 Cl  0  0  0  0  0  0  0  0  0  0  0  0
    0.0478    8.8767   -0.4212 H   0  0  0  0  0  0  0  0  0  0  0  0
   -0.6153    7.4124   -1.1858 H   0  0  0  0  0  0  0  0  0  0  0  0
   -0.7197    7.6201    0.5789 H   0  0  0  0  0  0  0  0  0  0  0  0
   -0.9799    5.6825   -0.1069 H   0  0  0  0  0  0  0  0  0  0  0  0
    3.2905    3.2125    0.4381 H   0  0  0  0  0  0  0  0  0  0  0  0
    4.6899    4.5066    1.2665 H   0  0  0  0  0  0  0  0  0  0  0  0
    4.7947    4.2984   -0.4981 H   0  0  0  0  0  0  0  0  0  0  0  0
    5.5799    5.6925    0.2817 H   0  0  0  0  0  0  0  0  0  0  0  0
   -0.0529    0.0038    0.6195 H   0  0  0  0  0  0  0  0  0  0  0  0
   -2.5410    4.6137    0.0090 H   0  0  0  0  0  0  0  0  0  0  0  0
   -4.8846    4.3554    0.9380 H   0  0  0  0  0  0  0  0  0  0  0  0
   -6.9472    3.0254    0.7618 H   0  0  0  0  0  0  0  0  0  0  0  0
   -6.9025    0.8183   -0.3261 H   0  0  0  0  0  0  0  0  0  0  0  0
   -2.7264    1.2614   -1.0769 H   0  0  0  0  0  0  0  0  0  0  0  0
  1  2  1  0  0  0  0
  1 23  1  0  0  0  0
  1 24  1  0  0  0  0
  1 25  1  0  0  0  0
  2  3  1  0  0  0  0
  3  8  2  0  0  0  0
  3  4  1  0  0  0  0
  4  5  2  0  0  0  0
  4 26  1  0  0  0  0
  5 14  1  0  0  0  0
  5  6  1  0  0  0  0
  6  7  2  0  0  0  0
  6 11  1  0  0  0  0
  7  8  1  0  0  0  0
  7 27  1  0  0  0  0
  8  9  1  0  0  0  0
  9 10  1  0  0  0  0
 10 28  1  0  0  0  0
 10 29  1  0  0  0  0
 10 30  1  0  0  0  0
 11 12  2  0  0  0  0
 12 13  1  0  0  0  0
 12 31  1  0  0  0  0
 13 14  2  0  0  0  0
 14 15  1  0  0  0  0
 15 16  1  0  0  0  0
 15 32  1  0  0  0  0
 16 21  2  0  0  0  0
 16 17  1  0  0  0  0
 17 18  2  0  0  0  0
 17 33  1  0  0  0  0
 18 19  1  0  0  0  0
 18 34  1  0  0  0  0
 19 20  2  0  0  0  0
 19 35  1  0  0  0  0
 20 21  1  0  0  0  0
 20 22  1  0  0  0  0
 21 36  1  0  0  0  0
M  END
$$$$
ZINC00118570
  -OEChem-08230709403D

 28 30  0     0  0  0  0  0  0999 V2000
    7.0203    5.6369   -0.3506 C   0  0  0  0  0  0  0  0  0  0  0  0
    7.0800    4.3908    0.2462 C   0  0  0  0  0  0  0  0  0  0  0  0
    5.9382    3.6222    0.3593 C   0  0  0  0  0  0  0  0  0  0  0  0
    4.7289    4.1019   -0.1276 C   0  0  0  0  0  0  0  0  0  0  0  0
    4.6736    5.3514   -0.7320 C   0  0  0  0  0  0  0  0  0  0  0  0
    5.8180    6.1174   -0.8364 C   0  0  0  0  0  0  0  0  0  0  0  0
    3.5713    3.3265   -0.0147 N   0  0  0  0  0  0  0  0  0  0  0  0
    2.3467    3.9369    0.1604 C   0  0  0  0  0  0  0  0  0  0  0  0
    1.1496    3.1797    0.1602 C   0  0  0  0  0  0  0  0  0  0  0  0
    1.1473    1.7916   -0.0156 C   0  0  0  0  0  0  0  0  0  0  0  0
   -0.0373    1.1155   -0.0070 C   0  0  0  0  0  0  0  0  0  0  0  0
   -1.2431    1.7884    0.1687 C   0  0  0  0  0  0  0  0  0  0  0  0
   -1.2742    3.1394    0.3484 C   0  0  0  0  0  0  0  0  0  0  0  0
   -0.0755    3.8655    0.3449 C   0  0  0  0  0  0  0  0  0  0  0  0
   -0.0504    5.1964    0.5113 N   0  0  0  0  0  0  0  0  0  0  0  0
    1.0890    5.8464    0.5024 C   0  0  0  0  0  0  0  0  0  0  0  0
    2.2579    5.2489    0.3339 N   0  0  0  0  0  0  0  0  0  0  0  0
    7.9146    6.2360   -0.4378 H   0  0  0  0  0  0  0  0  0  0  0  0
    8.0206    4.0185    0.6245 H   0  0  0  0  0  0  0  0  0  0  0  0
    5.9856    2.6492    0.8254 H   0  0  0  0  0  0  0  0  0  0  0  0
    3.7359    5.7253   -1.1156 H   0  0  0  0  0  0  0  0  0  0  0  0
    5.7748    7.0909   -1.3022 H   0  0  0  0  0  0  0  0  0  0  0  0
    3.6292    2.3593   -0.0595 H   0  0  0  0  0  0  0  0  0  0  0  0
    2.0764    1.2595   -0.1568 H   0  0  0  0  0  0  0  0  0  0  0  0
   -0.0400    0.0441   -0.1427 H   0  0  0  0  0  0  0  0  0  0  0  0
   -2.1682    1.2310    0.1669 H   0  0  0  0  0  0  0  0  0  0  0  0
   -2.2169    3.6475    0.4880 H   0  0  0  0  0  0  0  0  0  0  0  0
    1.0725    6.9176    0.6392 H   0  0  0  0  0  0  0  0  0  0  0  0
  1  6  2  0  0  0  0
  1  2  1  0  0  0  0
  1 18  1  0  0  0  0
  2  3  2  0  0  0  0
  2 19  1  0  0  0  0
  3  4  1  0  0  0  0
  3 20  1  0  0  0  0
  4  5  2  0  0  0  0
  4  7  1  0  0  0  0
  5  6  1  0  0  0  0
  5 21  1  0  0  0  0
  6 22  1  0  0  0  0
  7  8  1  0  0  0  0
  7 23  1  0  0  0  0
  8 17  2  0  0  0  0
  8  9  1  0  0  0  0
  9 14  2  0  0  0  0
  9 10  1  0  0  0  0
 10 11  2  0  0  0  0
 10 24  1  0  0  0  0
 11 12  1  0  0  0  0
 11 25  1  0  0  0  0
 12 13  2  0  0  0  0
 12 26  1  0  0  0  0
 13 14  1  0  0  0  0
 13 27  1  0  0  0  0
 14 15  1  0  0  0  0
 15 16  2  0  0  0  0
 16 17  1  0  0  0  0
 16 28  1  0  0  0  0
M  END
$$$$
ZINC00118581
  -OEChem-08230709403D

 28 30  0     0  0  0  0  0  0999 V2000
   -0.0373    1.1156   -0.0069 C   0  0  0  0  0  0  0  0  0  0  0  0
   -1.2432    1.7885    0.1690 C   0  0  0  0  0  0  0  0  0  0  0  0
   -1.2744    3.1394    0.3489 C   0  0  0  0  0  0  0  0  0  0  0  0
   -0.0757    3.8657    0.3455 C   0  0  0  0  0  0  0  0  0  0  0  0
    1.1497    3.1798    0.1605 C   0  0  0  0  0  0  0  0  0  0  0  0
    1.1472    1.7917   -0.0156 C   0  0  0  0  0  0  0  0  0  0  0  0
    2.3464    3.9368    0.1606 C   0  0  0  0  0  0  0  0  0  0  0  0
    2.2575    5.2491    0.3340 N   0  0  0  0  0  0  0  0  0  0  0  0
    1.0890    5.8463    0.5031 C   0  0  0  0  0  0  0  0  0  0  0  0
   -0.0507    5.1962    0.5120 N   0  0  0  0  0  0  0  0  0  0  0  0
    3.5711    3.3264   -0.0143 N   0  0  0  0  0  0  0  0  0  0  0  0
    4.7286    4.1018   -0.1272 C   0  0  0  0  0  0  0  0  0  0  0  0
    5.9381    3.6221    0.3603 C   0  0  0  0  0  0  0  0  0  0  0  0
    7.0802    4.3898    0.2471 C   0  0  0  0  0  0  0  0  0  0  0  0
    7.0219    5.6352   -0.3512 C   0  0  0  0  0  0  0  0  0  0  0  0
    5.8193    6.1164   -0.8384 C   0  0  0  0  0  0  0  0  0  0  0  0
    4.6733    5.3506   -0.7319 C   0  0  0  0  0  0  0  0  0  0  0  0
    5.7511    7.6799   -1.5897 Cl  0  0  0  0  0  0  0  0  0  0  0  0
   -0.0401    0.0442   -0.1428 H   0  0  0  0  0  0  0  0  0  0  0  0
   -2.1682    1.2310    0.1672 H   0  0  0  0  0  0  0  0  0  0  0  0
   -2.2171    3.6474    0.4887 H   0  0  0  0  0  0  0  0  0  0  0  0
    2.0763    1.2595   -0.1570 H   0  0  0  0  0  0  0  0  0  0  0  0
    1.0725    6.9174    0.6405 H   0  0  0  0  0  0  0  0  0  0  0  0
    3.6289    2.3592   -0.0589 H   0  0  0  0  0  0  0  0  0  0  0  0
    5.9848    2.6496    0.8277 H   0  0  0  0  0  0  0  0  0  0  0  0
    8.0204    4.0170    0.6259 H   0  0  0  0  0  0  0  0  0  0  0  0
    7.9168    6.2334   -0.4388 H   0  0  0  0  0  0  0  0  0  0  0  0
    3.7355    5.7246   -1.1154 H   0  0  0  0  0  0  0  0  0  0  0  0
  1  6  2  0  0  0  0
  1  2  1  0  0  0  0
  1 19  1  0  0  0  0
  2  3  2  0  0  0  0
  2 20  1  0  0  0  0
  3  4  1  0  0  0  0
  3 21  1  0  0  0  0
  4 10  2  0  0  0  0
  4  5  1  0  0  0  0
  5  6  1  0  0  0  0
  5  7  2  0  0  0  0
  6 22  1  0  0  0  0
  7  8  1  0  0  0  0
  7 11  1  0  0  0  0
  8  9  2  0  0  0  0
  9 10  1  0  0  0  0
  9 23  1  0  0  0  0
 11 12  1  0  0  0  0
 11 24  1  0  0  0  0
 12 17  2  0  0  0  0
 12 13  1  0  0  0  0
 13 14  2  0  0  0  0
 13 25  1  0  0  0  0
 14 15  1  0  0  0  0
 14 26  1  0  0  0  0
 15 16  2  0  0  0  0
 15 27  1  0  0  0  0
 16 17  1  0  0  0  0
 16 18  1  0  0  0  0
 17 28  1  0  0  0  0
M  END
$$$$
ZINC00118594
  -OEChem-08230709403D

 31 33  0     0  0  0  0  0  0999 V2000
   -0.0156    9.4578    0.3713 C   0  0  0  0  0  0  0  0  0  0  0  0
    1.2085   10.1140    0.4653 C   0  0  0  0  0  0  0  0  0  0  0  0
    2.3813    9.4194    0.4482 C   0  0  0  0  0  0  0  0  0  0  0  0
    2.3566    8.0227    0.3347 C   0  0  0  0  0  0  0  0  0  0  0  0
    1.1100    7.3570    0.2395 C   0  0  0  0  0  0  0  0  0  0  0  0
   -0.0756    8.0998    0.2601 C   0  0  0  0  0  0  0  0  0  0  0  0
    1.1126    5.9456    0.1252 C   0  0  0  0  0  0  0  0  0  0  0  0
    2.2823    5.3198    0.1182 N   0  0  0  0  0  0  0  0  0  0  0  0
    3.4227    5.9853    0.2047 C   0  0  0  0  0  0  0  0  0  0  0  0
    3.4808    7.2916    0.3125 N   0  0  0  0  0  0  0  0  0  0  0  0
   -0.0691    5.2402    0.0295 N   0  0  0  0  0  0  0  0  0  0  0  0
   -0.0510    3.8425    0.0345 C   0  0  0  0  0  0  0  0  0  0  0  0
    0.9104    3.1613    0.7705 C   0  0  0  0  0  0  0  0  0  0  0  0
    0.9256    1.7805    0.7729 C   0  0  0  0  0  0  0  0  0  0  0  0
   -0.0145    1.0758    0.0432 C   0  0  0  0  0  0  0  0  0  0  0  0
   -0.9692    1.7506   -0.6949 C   0  0  0  0  0  0  0  0  0  0  0  0
   -0.9939    3.1317   -0.6968 C   0  0  0  0  0  0  0  0  0  0  0  0
   -1.9874    0.9786   -1.4938 C   0  0  0  0  0  0  0  0  0  0  0  0
   -1.7650   -0.3931   -1.3313 F   0  0  0  0  0  0  0  0  0  0  0  0
   -3.2730    1.2990   -1.0446 F   0  0  0  0  0  0  0  0  0  0  0  0
   -1.8694    1.3130   -2.8471 F   0  0  0  0  0  0  0  0  0  0  0  0
   -0.9303   10.0319    0.3869 H   0  0  0  0  0  0  0  0  0  0  0  0
    1.2294   11.1903    0.5529 H   0  0  0  0  0  0  0  0  0  0  0  0
    3.3236    9.9421    0.5214 H   0  0  0  0  0  0  0  0  0  0  0  0
   -1.0311    7.6015    0.1878 H   0  0  0  0  0  0  0  0  0  0  0  0
    4.3475    5.4276    0.1904 H   0  0  0  0  0  0  0  0  0  0  0  0
   -0.9124    5.7141   -0.0413 H   0  0  0  0  0  0  0  0  0  0  0  0
    1.6448    3.7110    1.3405 H   0  0  0  0  0  0  0  0  0  0  0  0
    1.6727    1.2503    1.3448 H   0  0  0  0  0  0  0  0  0  0  0  0
   -0.0002   -0.0041    0.0465 H   0  0  0  0  0  0  0  0  0  0  0  0
   -1.7426    3.6582   -1.2700 H   0  0  0  0  0  0  0  0  0  0  0  0
  1  6  2  0  0  0  0
  1  2  1  0  0  0  0
  1 22  1  0  0  0  0
  2  3  2  0  0  0  0
  2 23  1  0  0  0  0
  3  4  1  0  0  0  0
  3 24  1  0  0  0  0
  4 10  2  0  0  0  0
  4  5  1  0  0  0  0
  5  6  1  0  0  0  0
  5  7  2  0  0  0  0
  6 25  1  0  0  0  0
  7  8  1  0  0  0  0
  7 11  1  0  0  0  0
  8  9  2  0  0  0  0
  9 10  1  0  0  0  0
  9 26  1  0  0  0  0
 11 12  1  0  0  0  0
 11 27  1  0  0  0  0
 12 17  2  0  0  0  0
 12 13  1  0  0  0  0
 13 14  2  0  0  0  0
 13 28  1  0  0  0  0
 14 15  1  0  0  0  0
 14 29  1  0  0  0  0
 15 16  2  0  0  0  0
 15 30  1  0  0  0  0
 16 17  1  0  0  0  0
 16 18  1  0  0  0  0
 17 31  1  0  0  0  0
 18 19  1  0  0  0  0
 18 20  1  0  0  0  0
 18 21  1  0  0  0  0
M  END
$$$$
ZINC00151212
  -OEChem-08230709403D

 28 30  0     0  0  0  0  0  0999 V2000
   -0.0373    1.1157   -0.0070 C   0  0  0  0  0  0  0  0  0  0  0  0
   -1.2432    1.7885    0.1691 C   0  0  0  0  0  0  0  0  0  0  0  0
   -1.2744    3.1395    0.3482 C   0  0  0  0  0  0  0  0  0  0  0  0
   -0.0758    3.8658    0.3448 C   0  0  0  0  0  0  0  0  0  0  0  0
    1.1496    3.1799    0.1601 C   0  0  0  0  0  0  0  0  0  0  0  0
    1.1472    1.7917   -0.0156 C   0  0  0  0  0  0  0  0  0  0  0  0
    2.3464    3.9369    0.1602 C   0  0  0  0  0  0  0  0  0  0  0  0
    2.2575    5.2491    0.3332 N   0  0  0  0  0  0  0  0  0  0  0  0
    1.0889    5.8465    0.5021 C   0  0  0  0  0  0  0  0  0  0  0  0
   -0.0507    5.1963    0.5110 N   0  0  0  0  0  0  0  0  0  0  0  0
    3.5711    3.3264   -0.0143 N   0  0  0  0  0  0  0  0  0  0  0  0
    4.7287    4.1017   -0.1272 C   0  0  0  0  0  0  0  0  0  0  0  0
    5.9380    3.6220    0.3607 C   0  0  0  0  0  0  0  0  0  0  0  0
    7.0806    4.3892    0.2477 C   0  0  0  0  0  0  0  0  0  0  0  0
    7.0234    5.6344   -0.3507 C   0  0  0  0  0  0  0  0  0  0  0  0
    5.8203    6.1164   -0.8389 C   0  0  0  0  0  0  0  0  0  0  0  0
    4.6733    5.3502   -0.7323 C   0  0  0  0  0  0  0  0  0  0  0  0
    5.7676    7.3332   -1.4235 F   0  0  0  0  0  0  0  0  0  0  0  0
   -0.0402    0.0443   -0.1429 H   0  0  0  0  0  0  0  0  0  0  0  0
   -2.1682    1.2309    0.1680 H   0  0  0  0  0  0  0  0  0  0  0  0
   -2.2172    3.6476    0.4878 H   0  0  0  0  0  0  0  0  0  0  0  0
    2.0763    1.2595   -0.1568 H   0  0  0  0  0  0  0  0  0  0  0  0
    1.0725    6.9176    0.6392 H   0  0  0  0  0  0  0  0  0  0  0  0
    3.6289    2.3592   -0.0587 H   0  0  0  0  0  0  0  0  0  0  0  0
    5.9842    2.6496    0.8284 H   0  0  0  0  0  0  0  0  0  0  0  0
    8.0203    4.0160    0.6271 H   0  0  0  0  0  0  0  0  0  0  0  0
    7.9187    6.2321   -0.4380 H   0  0  0  0  0  0  0  0  0  0  0  0
    3.7356    5.7240   -1.1162 H   0  0  0  0  0  0  0  0  0  0  0  0
  1  6  2  0  0  0  0
  1  2  1  0  0  0  0
  1 19  1  0  0  0  0
  2  3  2  0  0  0  0
  2 20  1  0  0  0  0
  3  4  1  0  0  0  0
  3 21  1  0  0  0  0
  4 10  2  0  0  0  0
  4  5  1  0  0  0  0
  5  6  1  0  0  0  0
  5  7  2  0  0  0  0
  6 22  1  0  0  0  0
  7  8  1  0  0  0  0
  7 11  1  0  0  0  0
  8  9  2  0  0  0  0
  9 10  1  0  0  0  0
  9 23  1  0  0  0  0
 11 12  1  0  0  0  0
 11 24  1  0  0  0  0
 12 17  2  0  0  0  0
 12 13  1  0  0  0  0
 13 14  2  0  0  0  0
 13 25  1  0  0  0  0
 14 15  1  0  0  0  0
 14 26  1  0  0  0  0
 15 16  2  0  0  0  0
 15 27  1  0  0  0  0
 16 17  1  0  0  0  0
 16 18  1  0  0  0  0
 17 28  1  0  0  0  0
M  END
$$$$
ZINC00151213
  -OEChem-08230709403D

 28 30  0     0  0  0  0  0  0999 V2000
   -0.0373    1.1156   -0.0069 C   0  0  0  0  0  0  0  0  0  0  0  0
   -1.2432    1.7885    0.1689 C   0  0  0  0  0  0  0  0  0  0  0  0
   -1.2744    3.1394    0.3488 C   0  0  0  0  0  0  0  0  0  0  0  0
   -0.0757    3.8657    0.3454 C   0  0  0  0  0  0  0  0  0  0  0  0
    1.1497    3.1798    0.1604 C   0  0  0  0  0  0  0  0  0  0  0  0
    1.1472    1.7917   -0.0156 C   0  0  0  0  0  0  0  0  0  0  0  0
    2.3464    3.9368    0.1606 C   0  0  0  0  0  0  0  0  0  0  0  0
    2.2575    5.2491    0.3339 N   0  0  0  0  0  0  0  0  0  0  0  0
    1.0890    5.8463    0.5030 C   0  0  0  0  0  0  0  0  0  0  0  0
   -0.0507    5.1962    0.5119 N   0  0  0  0  0  0  0  0  0  0  0  0
    3.5711    3.3264   -0.0143 N   0  0  0  0  0  0  0  0  0  0  0  0
    4.7286    4.1017   -0.1272 C   0  0  0  0  0  0  0  0  0  0  0  0
    5.9381    3.6221    0.3603 C   0  0  0  0  0  0  0  0  0  0  0  0
    7.0801    4.3900    0.2470 C   0  0  0  0  0  0  0  0  0  0  0  0
    7.0215    5.6356   -0.3510 C   0  0  0  0  0  0  0  0  0  0  0  0
    5.8190    6.1167   -0.8376 C   0  0  0  0  0  0  0  0  0  0  0  0
    4.6734    5.3506   -0.7319 C   0  0  0  0  0  0  0  0  0  0  0  0
    5.7442    7.8203   -1.6549 Br  0  0  0  0  0  0  0  0  0  0  0  0
   -0.0401    0.0442   -0.1428 H   0  0  0  0  0  0  0  0  0  0  0  0
   -2.1682    1.2310    0.1671 H   0  0  0  0  0  0  0  0  0  0  0  0
   -2.2172    3.6475    0.4882 H   0  0  0  0  0  0  0  0  0  0  0  0
    2.0763    1.2595   -0.1570 H   0  0  0  0  0  0  0  0  0  0  0  0
    1.0725    6.9174    0.6403 H   0  0  0  0  0  0  0  0  0  0  0  0
    3.6289    2.3592   -0.0589 H   0  0  0  0  0  0  0  0  0  0  0  0
    5.9849    2.6496    0.8277 H   0  0  0  0  0  0  0  0  0  0  0  0
    8.0204    4.0172    0.6254 H   0  0  0  0  0  0  0  0  0  0  0  0
    7.9163    6.2339   -0.4386 H   0  0  0  0  0  0  0  0  0  0  0  0
    3.7356    5.7246   -1.1155 H   0  0  0  0  0  0  0  0  0  0  0  0
  1  6  2  0  0  0  0
  1  2  1  0  0  0  0
  1 19  1  0  0  0  0
  2  3  2  0  0  0  0
  2 20  1  0  0  0  0
  3  4  1  0  0  0  0
  3 21  1  0  0  0  0
  4 10  2  0  0  0  0
  4  5  1  0  0  0  0
  5  6  1  0  0  0  0
  5  7  2  0  0  0  0
  6 22  1  0  0  0  0
  7  8  1  0  0  0  0
  7 11  1  0  0  0  0
  8  9  2  0  0  0  0
  9 10  1  0  0  0  0
  9 23  1  0  0  0  0
 11 12  1  0  0  0  0
 11 24  1  0  0  0  0
 12 17  2  0  0  0  0
 12 13  1  0  0  0  0
 13 14  2  0  0  0  0
 13 25  1  0  0  0  0
 14 15  1  0  0  0  0
 14 26  1  0  0  0  0
 15 16  2  0  0  0  0
 15 27  1  0  0  0  0
 16 17  1  0  0  0  0
 16 18  1  0  0  0  0
 17 28  1  0  0  0  0
M  END
$$$$
ZINC00151214
  -OEChem-08230709403D

 28 30  0     0  0  0  0  0  0999 V2000
   -0.0373    1.1156   -0.0070 C   0  0  0  0  0  0  0  0  0  0  0  0
   -1.2432    1.7884    0.1687 C   0  0  0  0  0  0  0  0  0  0  0  0
   -1.2745    3.1395    0.3475 C   0  0  0  0  0  0  0  0  0  0  0  0
   -0.0758    3.8658    0.3440 C   0  0  0  0  0  0  0  0  0  0  0  0
    1.1496    3.1799    0.1598 C   0  0  0  0  0  0  0  0  0  0  0  0
    1.1472    1.7916   -0.0157 C   0  0  0  0  0  0  0  0  0  0  0  0
    2.3464    3.9369    0.1599 C   0  0  0  0  0  0  0  0  0  0  0  0
    2.2574    5.2492    0.3329 N   0  0  0  0  0  0  0  0  0  0  0  0
    1.0888    5.8465    0.5010 C   0  0  0  0  0  0  0  0  0  0  0  0
   -0.0508    5.1964    0.5099 N   0  0  0  0  0  0  0  0  0  0  0  0
    3.5711    3.3264   -0.0143 N   0  0  0  0  0  0  0  0  0  0  0  0
    4.7287    4.1017   -0.1272 C   0  0  0  0  0  0  0  0  0  0  0  0
    5.9380    3.6223    0.3605 C   0  0  0  0  0  0  0  0  0  0  0  0
    7.0800    4.3903    0.2471 C   0  0  0  0  0  0  0  0  0  0  0  0
    7.0212    5.6355   -0.3517 C   0  0  0  0  0  0  0  0  0  0  0  0
    5.8191    6.1159   -0.8389 C   0  0  0  0  0  0  0  0  0  0  0  0
    4.6735    5.3505   -0.7324 C   0  0  0  0  0  0  0  0  0  0  0  0
    5.7364    8.0027   -1.7457 I   0  0  0  0  0  0  0  0  0  0  0  0
   -0.0401    0.0441   -0.1427 H   0  0  0  0  0  0  0  0  0  0  0  0
   -2.1682    1.2309    0.1672 H   0  0  0  0  0  0  0  0  0  0  0  0
   -2.2173    3.6476    0.4867 H   0  0  0  0  0  0  0  0  0  0  0  0
    2.0764    1.2594   -0.1565 H   0  0  0  0  0  0  0  0  0  0  0  0
    1.0723    6.9178    0.6375 H   0  0  0  0  0  0  0  0  0  0  0  0
    3.6290    2.3592   -0.0584 H   0  0  0  0  0  0  0  0  0  0  0  0
    5.9848    2.6500    0.8283 H   0  0  0  0  0  0  0  0  0  0  0  0
    8.0202    4.0179    0.6262 H   0  0  0  0  0  0  0  0  0  0  0  0
    7.9160    6.2340   -0.4395 H   0  0  0  0  0  0  0  0  0  0  0  0
    3.7359    5.7242   -1.1166 H   0  0  0  0  0  0  0  0  0  0  0  0
  1  6  2  0  0  0  0
  1  2  1  0  0  0  0
  1 19  1  0  0  0  0
  2  3  2  0  0  0  0
  2 20  1  0  0  0  0
  3  4  1  0  0  0  0
  3 21  1  0  0  0  0
  4 10  2  0  0  0  0
  4  5  1  0  0  0  0
  5  6  1  0  0  0  0
  5  7  2  0  0  0  0
  6 22  1  0  0  0  0
  7  8  1  0  0  0  0
  7 11  1  0  0  0  0
  8  9  2  0  0  0  0
  9 10  1  0  0  0  0
  9 23  1  0  0  0  0
 11 12  1  0  0  0  0
 11 24  1  0  0  0  0
 12 17  2  0  0  0  0
 12 13  1  0  0  0  0
 13 14  2  0  0  0  0
 13 25  1  0  0  0  0
 14 15  1  0  0  0  0
 14 26  1  0  0  0  0
 15 16  2  0  0  0  0
 15 27  1  0  0  0  0
 16 17  1  0  0  0  0
 16 18  1  0  0  0  0
 17 28  1  0  0  0  0
M  END
$$$$
ZINC00327021
  -OEChem-08230709403D

 35 38  0     0  0  0  0  0  0999 V2000
   -0.0167    1.3781    0.0096 C   0  0  0  0  0  0  0  0  0  0  0  0
    1.1709    2.0855    0.0021 C   0  0  0  0  0  0  0  0  0  0  0  0
    2.3773    1.4107   -0.0141 C   0  0  0  0  0  0  0  0  0  0  0  0
    2.3960    0.0285   -0.0217 C   0  0  0  0  0  0  0  0  0  0  0  0
    1.2084   -0.6789   -0.0136 C   0  0  0  0  0  0  0  0  0  0  0  0
    0.0021   -0.0041    0.0020 C   0  0  0  0  0  0  0  0  0  0  0  0
    3.7112   -0.7071   -0.0392 C   0  0  0  0  0  0  0  0  0  0  0  0
    4.1233   -0.9376   -1.4260 N   0  0  0  0  0  0  0  0  0  0  0  0
    5.3102   -1.6016   -1.6953 C   0  0  0  0  0  0  0  0  0  0  0  0
    5.7176   -1.8295   -3.0168 C   0  0  0  0  0  0  0  0  0  0  0  0
    6.9263   -2.5056   -3.2245 C   0  0  0  0  0  0  0  0  0  0  0  0
    7.1027   -2.6043   -4.6817 C   0  0  0  0  0  0  0  0  0  0  0  0
    8.0924   -3.1571   -5.4936 C   0  0  0  0  0  0  0  0  0  0  0  0
    7.9710   -3.0884   -6.8636 C   0  0  0  0  0  0  0  0  0  0  0  0
    6.8689   -2.4718   -7.4381 C   0  0  0  0  0  0  0  0  0  0  0  0
    5.8831   -1.9217   -6.6491 C   0  0  0  0  0  0  0  0  0  0  0  0
    5.9868   -1.9800   -5.2618 C   0  0  0  0  0  0  0  0  0  0  0  0
    5.1684   -1.5222   -4.2472 N   0  0  0  0  0  0  0  0  0  0  0  0
    4.3297   -1.0530   -4.3794 H   0  0  0  0  0  0  0  0  0  0  0  0
    7.6396   -2.9042   -2.1714 N   0  0  0  0  0  0  0  0  0  0  0  0
    7.2169   -2.6673   -0.9484 C   0  0  0  0  0  0  0  0  0  0  0  0
    6.0864   -2.0294   -0.7057 N   0  0  0  0  0  0  0  0  0  0  0  0
   -0.9592    1.9054    0.0170 H   0  0  0  0  0  0  0  0  0  0  0  0
    1.1563    3.1654    0.0081 H   0  0  0  0  0  0  0  0  0  0  0  0
    3.3051    1.9634   -0.0207 H   0  0  0  0  0  0  0  0  0  0  0  0
    1.2231   -1.7587   -0.0199 H   0  0  0  0  0  0  0  0  0  0  0  0
   -0.9258   -0.5567    0.0079 H   0  0  0  0  0  0  0  0  0  0  0  0
    4.4679   -0.1107    0.4703 H   0  0  0  0  0  0  0  0  0  0  0  0
    3.5990   -1.6641    0.4703 H   0  0  0  0  0  0  0  0  0  0  0  0
    3.5657   -0.6257   -2.1559 H   0  0  0  0  0  0  0  0  0  0  0  0
    8.9513   -3.6380   -5.0494 H   0  0  0  0  0  0  0  0  0  0  0  0
    8.7367   -3.5165   -7.4935 H   0  0  0  0  0  0  0  0  0  0  0  0
    6.7830   -2.4232   -8.5136 H   0  0  0  0  0  0  0  0  0  0  0  0
    5.0290   -1.4447   -7.1067 H   0  0  0  0  0  0  0  0  0  0  0  0
    7.8166   -3.0021   -0.1150 H   0  0  0  0  0  0  0  0  0  0  0  0
  1  6  2  0  0  0  0
  1  2  1  0  0  0  0
  1 23  1  0  0  0  0
  2  3  2  0  0  0  0
  2 24  1  0  0  0  0
  3  4  1  0  0  0  0
  3 25  1  0  0  0  0
  4  5  2  0  0  0  0
  4  7  1  0  0  0  0
  5  6  1  0  0  0  0
  5 26  1  0  0  0  0
  6 27  1  0  0  0  0
  7  8  1  0  0  0  0
  7 28  1  0  0  0  0
  7 29  1  0  0  0  0
  8  9  1  0  0  0  0
  8 30  1  0  0  0  0
  9 22  2  0  0  0  0
  9 10  1  0  0  0  0
 10 18  1  0  0  0  0
 10 11  2  0  0  0  0
 11 12  1  0  0  0  0
 11 20  1  0  0  0  0
 12 17  2  0  0  0  0
 12 13  1  0  0  0  0
 13 14  2  0  0  0  0
 13 31  1  0  0  0  0
 14 15  1  0  0  0  0
 14 32  1  0  0  0  0
 15 16  2  0  0  0  0
 15 33  1  0  0  0  0
 16 17  1  0  0  0  0
 16 34  1  0  0  0  0
 17 18  1  0  0  0  0
 18 19  1  0  0  0  0
 20 21  2  0  0  0  0
 21 22  1  0  0  0  0
 21 35  1  0  0  0  0
M  END
$$$$
ZINC00600292
  -OEChem-08230709403D

 36 38  0     0  0  0  0  0  0999 V2000
   -0.1078    7.8042   -0.3033 C   0  0  0  0  0  0  0  0  0  0  0  0
    1.1552    7.1532   -0.1517 O   0  0  0  0  0  0  0  0  0  0  0  0
    1.1386    5.8027    0.0065 C   0  0  0  0  0  0  0  0  0  0  0  0
   -0.0548    5.1381    0.0140 C   0  0  0  0  0  0  0  0  0  0  0  0
   -0.0731    3.7477    0.1768 C   0  0  0  0  0  0  0  0  0  0  0  0
    1.1438    3.0386    0.3325 C   0  0  0  0  0  0  0  0  0  0  0  0
    2.3555    3.7400    0.3217 C   0  0  0  0  0  0  0  0  0  0  0  0
    2.3464    5.1079    0.1604 C   0  0  0  0  0  0  0  0  0  0  0  0
    3.5205    5.7911    0.1500 O   0  0  0  0  0  0  0  0  0  0  0  0
    4.7172    5.0269    0.3114 C   0  0  0  0  0  0  0  0  0  0  0  0
    1.0981    1.7060    0.4872 N   0  0  0  0  0  0  0  0  0  0  0  0
   -0.0526    1.0763    0.4937 C   0  0  0  0  0  0  0  0  0  0  0  0
   -1.2129    1.6957    0.3464 N   0  0  0  0  0  0  0  0  0  0  0  0
   -1.2816    3.0116    0.1923 C   0  0  0  0  0  0  0  0  0  0  0  0
   -2.4993    3.6452    0.0450 N   0  0  0  0  0  0  0  0  0  0  0  0
   -3.6722    2.8912   -0.0533 C   0  0  0  0  0  0  0  0  0  0  0  0
   -4.8637    3.3868    0.4615 C   0  0  0  0  0  0  0  0  0  0  0  0
   -6.0209    2.6400    0.3625 C   0  0  0  0  0  0  0  0  0  0  0  0
   -5.9953    1.3995   -0.2484 C   0  0  0  0  0  0  0  0  0  0  0  0
   -4.8108    0.9028   -0.7627 C   0  0  0  0  0  0  0  0  0  0  0  0
   -3.6501    1.6476   -0.6710 C   0  0  0  0  0  0  0  0  0  0  0  0
   -4.7812   -0.7937   -1.5975 Br  0  0  0  0  0  0  0  0  0  0  0  0
    0.0479    8.8766   -0.4204 H   0  0  0  0  0  0  0  0  0  0  0  0
   -0.6151    7.4123   -1.1848 H   0  0  0  0  0  0  0  0  0  0  0  0
   -0.7197    7.6202    0.5798 H   0  0  0  0  0  0  0  0  0  0  0  0
   -0.9799    5.6826   -0.1054 H   0  0  0  0  0  0  0  0  0  0  0  0
    3.2905    3.2124    0.4389 H   0  0  0  0  0  0  0  0  0  0  0  0
    4.6896    4.5065    1.2688 H   0  0  0  0  0  0  0  0  0  0  0  0
    4.7949    4.2986   -0.4958 H   0  0  0  0  0  0  0  0  0  0  0  0
    5.5799    5.6926    0.2845 H   0  0  0  0  0  0  0  0  0  0  0  0
   -0.0529    0.0038    0.6204 H   0  0  0  0  0  0  0  0  0  0  0  0
   -2.5410    4.6137    0.0098 H   0  0  0  0  0  0  0  0  0  0  0  0
   -4.8847    4.3553    0.9390 H   0  0  0  0  0  0  0  0  0  0  0  0
   -6.9473    3.0252    0.7623 H   0  0  0  0  0  0  0  0  0  0  0  0
   -6.9018    0.8175   -0.3244 H   0  0  0  0  0  0  0  0  0  0  0  0
   -2.7263    1.2613   -1.0758 H   0  0  0  0  0  0  0  0  0  0  0  0
  1  2  1  0  0  0  0
  1 23  1  0  0  0  0
  1 24  1  0  0  0  0
  1 25  1  0  0  0  0
  2  3  1  0  0  0  0
  3  8  2  0  0  0  0
  3  4  1  0  0  0  0
  4  5  2  0  0  0  0
  4 26  1  0  0  0  0
  5 14  1  0  0  0  0
  5  6  1  0  0  0  0
  6  7  2  0  0  0  0
  6 11  1  0  0  0  0
  7  8  1  0  0  0  0
  7 27  1  0  0  0  0
  8  9  1  0  0  0  0
  9 10  1  0  0  0  0
 10 28  1  0  0  0  0
 10 29  1  0  0  0  0
 10 30  1  0  0  0  0
 11 12  2  0  0  0  0
 12 13  1  0  0  0  0
 12 31  1  0  0  0  0
 13 14  2  0  0  0  0
 14 15  1  0  0  0  0
 15 16  1  0  0  0  0
 15 32  1  0  0  0  0
 16 21  2  0  0  0  0
 16 17  1  0  0  0  0
 17 18  2  0  0  0  0
 17 33  1  0  0  0  0
 18 19  1  0  0  0  0
 18 34  1  0  0  0  0
 19 20  2  0  0  0  0
 19 35  1  0  0  0  0
 20 21  1  0  0  0  0
 20 22  1  0  0  0  0
 21 36  1  0  0  0  0
M  END
$$$$
ZINC00600430
  -OEChem-08230709403D

 40 43  0     0  0  0  0  0  0999 V2000
    3.6562    5.0514   -1.8671 C   0  0  0  0  0  0  0  0  0  0  0  0
    4.0289    5.3863   -3.1540 C   0  0  0  0  0  0  0  0  0  0  0  0
    4.9329    6.4131   -3.3692 C   0  0  0  0  0  0  0  0  0  0  0  0
    5.4608    7.1101   -2.2953 C   0  0  0  0  0  0  0  0  0  0  0  0
    5.0867    6.7824   -1.0069 C   0  0  0  0  0  0  0  0  0  0  0  0
    4.1800    5.7529   -0.7887 C   0  0  0  0  0  0  0  0  0  0  0  0
    3.7998    5.4194    0.5147 N   0  0  0  0  0  0  0  0  0  0  0  0
    2.9987    4.3014    0.7427 C   0  0  0  0  0  0  0  0  0  0  0  0
    1.6566    4.4655    1.0683 C   0  0  0  0  0  0  0  0  0  0  0  0
    0.8625    3.3522    1.2949 C   0  0  0  0  0  0  0  0  0  0  0  0
    1.4171    2.0570    1.1947 C   0  0  0  0  0  0  0  0  0  0  0  0
    2.7554    1.8994    0.8698 C   0  0  0  0  0  0  0  0  0  0  0  0
    3.5473    3.0201    0.6436 C   0  0  0  0  0  0  0  0  0  0  0  0
    4.8937    2.8645    0.3166 N   0  0  0  0  0  0  0  0  0  0  0  0
    5.4839    1.5983    0.3691 C   0  0  0  0  0  0  0  0  0  0  0  0
    5.1996    0.7414    1.4249 C   0  0  0  0  0  0  0  0  0  0  0  0
    5.7795   -0.5111    1.4715 C   0  0  0  0  0  0  0  0  0  0  0  0
    6.6526   -0.9088    0.4730 C   0  0  0  0  0  0  0  0  0  0  0  0
    6.9420   -0.0541   -0.5775 C   0  0  0  0  0  0  0  0  0  0  0  0
    6.3601    1.1972   -0.6314 C   0  0  0  0  0  0  0  0  0  0  0  0
    7.2226   -2.1326    0.5234 F   0  0  0  0  0  0  0  0  0  0  0  0
    0.3148    1.1224    1.4926 C   0  0  0  0  0  0  0  0  0  0  0  0
    0.3970   -0.0896    1.5061 O   0  0  0  0  0  0  0  0  0  0  0  0
   -0.7976    1.8366    1.7411 N   0  0  0  0  0  0  0  0  0  0  0  0
   -0.5563    3.1568    1.6500 C   0  0  0  0  0  0  0  0  0  0  0  0
   -1.3713    4.0404    1.8260 O   0  0  0  0  0  0  0  0  0  0  0  0
    5.3000    6.7356   -4.6287 F   0  0  0  0  0  0  0  0  0  0  0  0
    2.9548    4.2474   -1.6996 H   0  0  0  0  0  0  0  0  0  0  0  0
    3.6185    4.8442   -3.9931 H   0  0  0  0  0  0  0  0  0  0  0  0
    6.1654    7.9107   -2.4655 H   0  0  0  0  0  0  0  0  0  0  0  0
    5.4984    7.3265   -0.1697 H   0  0  0  0  0  0  0  0  0  0  0  0
    4.0933    5.9659    1.2604 H   0  0  0  0  0  0  0  0  0  0  0  0
    1.2347    5.4568    1.1447 H   0  0  0  0  0  0  0  0  0  0  0  0
    3.1816    0.9101    0.7927 H   0  0  0  0  0  0  0  0  0  0  0  0
    5.4208    3.6348    0.0527 H   0  0  0  0  0  0  0  0  0  0  0  0
    4.5224    1.0530    2.2064 H   0  0  0  0  0  0  0  0  0  0  0  0
    5.5553   -1.1794    2.2898 H   0  0  0  0  0  0  0  0  0  0  0  0
    7.6229   -0.3665   -1.3553 H   0  0  0  0  0  0  0  0  0  0  0  0
    6.5858    1.8633   -1.4511 H   0  0  0  0  0  0  0  0  0  0  0  0
   -1.6600    1.4504    1.9598 H   0  0  0  0  0  0  0  0  0  0  0  0
  1  6  2  0  0  0  0
  1  2  1  0  0  0  0
  1 28  1  0  0  0  0
  2  3  2  0  0  0  0
  2 29  1  0  0  0  0
  3  4  1  0  0  0  0
  3 27  1  0  0  0  0
  4  5  2  0  0  0  0
  4 30  1  0  0  0  0
  5  6  1  0  0  0  0
  5 31  1  0  0  0  0
  6  7  1  0  0  0  0
  7  8  1  0  0  0  0
  7 32  1  0  0  0  0
  8 13  2  0  0  0  0
  8  9  1  0  0  0  0
  9 10  2  0  0  0  0
  9 33  1  0  0  0  0
 10 25  1  0  0  0  0
 10 11  1  0  0  0  0
 11 12  2  0  0  0  0
 11 22  1  0  0  0  0
 12 13  1  0  0  0  0
 12 34  1  0  0  0  0
 13 14  1  0  0  0  0
 14 15  1  0  0  0  0
 14 35  1  0  0  0  0
 15 20  2  0  0  0  0
 15 16  1  0  0  0  0
 16 17  2  0  0  0  0
 16 36  1  0  0  0  0
 17 18  1  0  0  0  0
 17 37  1  0  0  0  0
 18 19  2  0  0  0  0
 18 21  1  0  0  0  0
 19 20  1  0  0  0  0
 19 38  1  0  0  0  0
 20 39  1  0  0  0  0
 22 23  2  0  0  0  0
 22 24  1  0  0  0  0
 24 25  1  0  0  0  0
 24 40  1  0  0  0  0
 25 26  2  0  0  0  0
M  END
$$$$
ZINC00601499
  -OEChem-08230709403D

 34 36  0     0  0  0  0  0  0999 V2000
    3.8137   -6.0939   -0.2664 C   0  0  0  0  0  0  0  0  0  0  0  0
    3.7273   -4.5941   -0.1471 C   0  0  0  0  0  0  0  0  0  0  0  0
    4.7383   -3.9368   -0.0179 O   0  0  0  0  0  0  0  0  0  0  0  0
    2.5265   -3.9832   -0.1840 N   0  0  0  0  0  0  0  0  0  0  0  0
    2.4523   -2.5921   -0.1788 C   0  0  0  0  0  0  0  0  0  0  0  0
    1.2215   -1.9816   -0.3294 C   0  0  0  0  0  0  0  0  0  0  0  0
    1.1645   -0.5828   -0.3219 C   0  0  0  0  0  0  0  0  0  0  0  0
    2.3776    0.1379   -0.1595 C   0  0  0  0  0  0  0  0  0  0  0  0
    3.5739   -0.5682   -0.0147 C   0  0  0  0  0  0  0  0  0  0  0  0
    3.5676   -1.8829   -0.0294 N   0  0  0  0  0  0  0  0  0  0  0  0
    2.3173    1.5511   -0.1523 C   0  0  0  0  0  0  0  0  0  0  0  0
    1.1295    2.1266   -0.2986 N   0  0  0  0  0  0  0  0  0  0  0  0
    0.0261    1.4119   -0.4469 C   0  0  0  0  0  0  0  0  0  0  0  0
    0.0207    0.0986   -0.4610 N   0  0  0  0  0  0  0  0  0  0  0  0
    3.4584    2.3089    0.0012 N   0  0  0  0  0  0  0  0  0  0  0  0
    3.3642    3.6988    0.1161 C   0  0  0  0  0  0  0  0  0  0  0  0
    2.2578    4.2732    0.7295 C   0  0  0  0  0  0  0  0  0  0  0  0
    2.1673    5.6465    0.8417 C   0  0  0  0  0  0  0  0  0  0  0  0
    3.1766    6.4507    0.3443 C   0  0  0  0  0  0  0  0  0  0  0  0
    4.2802    5.8823   -0.2667 C   0  0  0  0  0  0  0  0  0  0  0  0
    4.3791    4.5082   -0.3774 C   0  0  0  0  0  0  0  0  0  0  0  0
    5.6580    6.9863   -0.9440 Br  0  0  0  0  0  0  0  0  0  0  0  0
    2.8113   -6.5081   -0.3746 H   0  0  0  0  0  0  0  0  0  0  0  0
    4.4110   -6.3551   -1.1399 H   0  0  0  0  0  0  0  0  0  0  0  0
    4.2812   -6.5032    0.6291 H   0  0  0  0  0  0  0  0  0  0  0  0
    1.7140   -4.5121   -0.2143 H   0  0  0  0  0  0  0  0  0  0  0  0
    0.3241   -2.5702   -0.4505 H   0  0  0  0  0  0  0  0  0  0  0  0
    4.5044   -0.0342    0.1093 H   0  0  0  0  0  0  0  0  0  0  0  0
   -0.9127    1.9323   -0.5662 H   0  0  0  0  0  0  0  0  0  0  0  0
    4.3268    1.8776    0.0294 H   0  0  0  0  0  0  0  0  0  0  0  0
    1.4689    3.6461    1.1179 H   0  0  0  0  0  0  0  0  0  0  0  0
    1.3075    6.0932    1.3187 H   0  0  0  0  0  0  0  0  0  0  0  0
    3.1033    7.5245    0.4334 H   0  0  0  0  0  0  0  0  0  0  0  0
    5.2425    4.0646   -0.8507 H   0  0  0  0  0  0  0  0  0  0  0  0
  1  2  1  0  0  0  0
  1 23  1  0  0  0  0
  1 24  1  0  0  0  0
  1 25  1  0  0  0  0
  2  3  2  0  0  0  0
  2  4  1  0  0  0  0
  4  5  1  0  0  0  0
  4 26  1  0  0  0  0
  5 10  2  0  0  0  0
  5  6  1  0  0  0  0
  6  7  2  0  0  0  0
  6 27  1  0  0  0  0
  7 14  1  0  0  0  0
  7  8  1  0  0  0  0
  8  9  2  0  0  0  0
  8 11  1  0  0  0  0
  9 10  1  0  0  0  0
  9 28  1  0  0  0  0
 11 12  2  0  0  0  0
 11 15  1  0  0  0  0
 12 13  1  0  0  0  0
 13 14  2  0  0  0  0
 13 29  1  0  0  0  0
 15 16  1  0  0  0  0
 15 30  1  0  0  0  0
 16 21  2  0  0  0  0
 16 17  1  0  0  0  0
 17 18  2  0  0  0  0
 17 31  1  0  0  0  0
 18 19  1  0  0  0  0
 18 32  1  0  0  0  0
 19 20  2  0  0  0  0
 19 33  1  0  0  0  0
 20 21  1  0  0  0  0
 20 22  1  0  0  0  0
 21 34  1  0  0  0  0
M  END
$$$$
ZINC00601820
  -OEChem-08230709403D

 40 43  0     0  0  0  0  0  0999 V2000
    0.0591    1.0896    0.1025 C   0  0  0  0  0  0  0  0  0  0  0  0
   -0.4512    1.5807    1.3849 N   0  0  0  0  0  0  0  0  0  0  0  0
   -0.5646    2.9313    1.5982 C   0  0  0  0  0  0  0  0  0  0  0  0
   -1.0598    3.4211    2.8262 C   0  0  0  0  0  0  0  0  0  0  0  0
   -1.4333    2.5225    3.8517 C   0  0  0  0  0  0  0  0  0  0  0  0
   -1.3114    1.1768    3.6318 C   0  0  0  0  0  0  0  0  0  0  0  0
   -0.7992    0.7020    2.3445 C   0  0  0  0  0  0  0  0  0  0  0  0
   -0.6876   -0.4937    2.1405 O   0  0  0  0  0  0  0  0  0  0  0  0
   -1.6939    0.2094    4.6868 C   0  0  0  0  0  0  0  0  0  0  0  0
   -0.7486   -0.2216    5.6184 C   0  0  0  0  0  0  0  0  0  0  0  0
   -1.1129   -1.1199    6.6022 C   0  0  0  0  0  0  0  0  0  0  0  0
   -2.4088   -1.6003    6.6589 C   0  0  0  0  0  0  0  0  0  0  0  0
   -3.3493   -1.1811    5.7353 C   0  0  0  0  0  0  0  0  0  0  0  0
   -2.9995   -0.2791    4.7496 C   0  0  0  0  0  0  0  0  0  0  0  0
   -4.1812    0.2452    3.5911 Cl  0  0  0  0  0  0  0  0  0  0  0  0
    0.8802    0.3746    5.5445 Cl  0  0  0  0  0  0  0  0  0  0  0  0
   -1.1651    4.8089    3.0016 C   0  0  0  0  0  0  0  0  0  0  0  0
   -0.8015    5.6004    2.0099 N   0  0  0  0  0  0  0  0  0  0  0  0
   -0.3442    5.1038    0.8660 C   0  0  0  0  0  0  0  0  0  0  0  0
   -0.2270    3.8022    0.6537 N   0  0  0  0  0  0  0  0  0  0  0  0
    0.0231    5.9781   -0.1398 N   0  0  0  0  0  0  0  0  0  0  0  0
   -0.1964    7.3460    0.0113 C   0  0  0  0  0  0  0  0  0  0  0  0
   -1.3017    7.8194    0.7175 C   0  0  0  0  0  0  0  0  0  0  0  0
   -1.4807    9.1807    0.8480 C   0  0  0  0  0  0  0  0  0  0  0  0
   -0.6279   10.0303    0.3069 N   0  0  0  0  0  0  0  0  0  0  0  0
    0.4274    9.6218   -0.3726 C   0  0  0  0  0  0  0  0  0  0  0  0
    0.6804    8.2770   -0.5446 C   0  0  0  0  0  0  0  0  0  0  0  0
    0.0840   -0.0001    0.1147 H   0  0  0  0  0  0  0  0  0  0  0  0
    1.0660    1.4743   -0.0592 H   0  0  0  0  0  0  0  0  0  0  0  0
   -0.5932    1.4291   -0.7022 H   0  0  0  0  0  0  0  0  0  0  0  0
   -1.8093    2.8921    4.7943 H   0  0  0  0  0  0  0  0  0  0  0  0
   -0.3832   -1.4511    7.3264 H   0  0  0  0  0  0  0  0  0  0  0  0
   -2.6874   -2.3060    7.4275 H   0  0  0  0  0  0  0  0  0  0  0  0
   -4.3594   -1.5602    5.7848 H   0  0  0  0  0  0  0  0  0  0  0  0
   -1.5356    5.2210    3.9287 H   0  0  0  0  0  0  0  0  0  0  0  0
    0.4337    5.6395   -0.9508 H   0  0  0  0  0  0  0  0  0  0  0  0
   -2.0057    7.1297    1.1593 H   0  0  0  0  0  0  0  0  0  0  0  0
   -2.3320    9.5564    1.3964 H   0  0  0  0  0  0  0  0  0  0  0  0
    1.1010   10.3500   -0.7996 H   0  0  0  0  0  0  0  0  0  0  0  0
    1.5454    7.9496   -1.1023 H   0  0  0  0  0  0  0  0  0  0  0  0
  1  2  1  0  0  0  0
  1 28  1  0  0  0  0
  1 29  1  0  0  0  0
  1 30  1  0  0  0  0
  2  7  1  0  0  0  0
  2  3  1  0  0  0  0
  3 20  2  0  0  0  0
  3  4  1  0  0  0  0
  4  5  1  0  0  0  0
  4 17  2  0  0  0  0
  5  6  2  0  0  0  0
  5 31  1  0  0  0  0
  6  7  1  0  0  0  0
  6  9  1  0  0  0  0
  7  8  2  0  0  0  0
  9 14  2  0  0  0  0
  9 10  1  0  0  0  0
 10 11  2  0  0  0  0
 10 16  1  0  0  0  0
 11 12  1  0  0  0  0
 11 32  1  0  0  0  0
 12 13  2  0  0  0  0
 12 33  1  0  0  0  0
 13 14  1  0  0  0  0
 13 34  1  0  0  0  0
 14 15  1  0  0  0  0
 17 18  1  0  0  0  0
 17 35  1  0  0  0  0
 18 19  2  0  0  0  0
 19 20  1  0  0  0  0
 19 21  1  0  0  0  0
 21 22  1  0  0  0  0
 21 36  1  0  0  0  0
 22 27  2  0  0  0  0
 22 23  1  0  0  0  0
 23 24  2  0  0  0  0
 23 37  1  0  0  0  0
 24 25  1  0  0  0  0
 24 38  1  0  0  0  0
 25 26  2  0  0  0  0
 26 27  1  0  0  0  0
 26 39  1  0  0  0  0
 27 40  1  0  0  0  0
M  END
$$$$
ZINC00837641
  -OEChem-08230709403D

 42 45  0     0  0  0  0  0  0999 V2000
    0.0103    0.0262    2.3593 C   0  0  0  0  0  0  0  0  0  0  0  0
   -0.5208   -0.7915    3.3374 C   0  0  0  0  0  0  0  0  0  0  0  0
   -1.6386   -1.5622    3.0652 C   0  0  0  0  0  0  0  0  0  0  0  0
   -2.2305   -1.5099    1.8144 C   0  0  0  0  0  0  0  0  0  0  0  0
   -1.7066   -0.6890    0.8351 C   0  0  0  0  0  0  0  0  0  0  0  0
   -0.5851    0.0846    1.1057 C   0  0  0  0  0  0  0  0  0  0  0  0
   -0.0529    0.9165    0.1159 N   0  0  0  0  0  0  0  0  0  0  0  0
    1.1543    1.5780    0.3362 C   0  0  0  0  0  0  0  0  0  0  0  0
    1.1648    2.9547    0.5185 C   0  0  0  0  0  0  0  0  0  0  0  0
    2.3686    3.6095    0.7380 C   0  0  0  0  0  0  0  0  0  0  0  0
    3.5751    2.8763    0.7753 C   0  0  0  0  0  0  0  0  0  0  0  0
    3.5574    1.5006    0.5924 C   0  0  0  0  0  0  0  0  0  0  0  0
    2.3487    0.8510    0.3784 C   0  0  0  0  0  0  0  0  0  0  0  0
    2.3261   -0.5314    0.1995 N   0  0  0  0  0  0  0  0  0  0  0  0
    3.4902   -1.2807    0.3952 C   0  0  0  0  0  0  0  0  0  0  0  0
    3.8139   -2.3055   -0.4848 C   0  0  0  0  0  0  0  0  0  0  0  0
    4.9675   -3.0402   -0.2930 C   0  0  0  0  0  0  0  0  0  0  0  0
    5.7949   -2.7640    0.7825 C   0  0  0  0  0  0  0  0  0  0  0  0
    5.4713   -1.7465    1.6643 C   0  0  0  0  0  0  0  0  0  0  0  0
    4.3219   -1.0051    1.4731 C   0  0  0  0  0  0  0  0  0  0  0  0
    6.9197   -3.4880    0.9715 F   0  0  0  0  0  0  0  0  0  0  0  0
    4.8368    3.6063    1.0117 C   0  0  0  0  0  0  0  0  0  0  0  0
    5.8936    3.0065    1.0495 O   0  0  0  0  0  0  0  0  0  0  0  0
    4.8079    4.9419    1.1846 N   0  0  0  0  0  0  0  0  0  0  0  0
    5.6666    5.4288    1.3445 H   0  0  0  0  0  0  0  0  0  0  0  0
    3.6159    5.6665    1.1473 N   0  0  0  0  0  0  0  0  0  0  0  0
    3.6462    6.6571    1.2806 H   0  0  0  0  0  0  0  0  0  0  0  0
    2.4256    5.0716    0.9371 C   0  0  0  0  0  0  0  0  0  0  0  0
    1.4062    5.7335    0.9108 O   0  0  0  0  0  0  0  0  0  0  0  0
   -2.1529   -2.3659    4.0216 F   0  0  0  0  0  0  0  0  0  0  0  0
    0.8853    0.6232    2.5704 H   0  0  0  0  0  0  0  0  0  0  0  0
   -0.0613   -0.8334    4.3138 H   0  0  0  0  0  0  0  0  0  0  0  0
   -3.1027   -2.1113    1.6046 H   0  0  0  0  0  0  0  0  0  0  0  0
   -2.1687   -0.6483   -0.1402 H   0  0  0  0  0  0  0  0  0  0  0  0
   -0.5257    1.0366   -0.7225 H   0  0  0  0  0  0  0  0  0  0  0  0
    0.2408    3.5130    0.4891 H   0  0  0  0  0  0  0  0  0  0  0  0
    4.4786    0.9376    0.6201 H   0  0  0  0  0  0  0  0  0  0  0  0
    1.5028   -0.9734   -0.0607 H   0  0  0  0  0  0  0  0  0  0  0  0
    3.1663   -2.5247   -1.3208 H   0  0  0  0  0  0  0  0  0  0  0  0
    5.2223   -3.8338   -0.9799 H   0  0  0  0  0  0  0  0  0  0  0  0
    6.1184   -1.5324    2.5020 H   0  0  0  0  0  0  0  0  0  0  0  0
    4.0701   -0.2114    2.1609 H   0  0  0  0  0  0  0  0  0  0  0  0
  1  6  2  0  0  0  0
  1  2  1  0  0  0  0
  1 31  1  0  0  0  0
  2  3  2  0  0  0  0
  2 32  1  0  0  0  0
  3  4  1  0  0  0  0
  3 30  1  0  0  0  0
  4  5  2  0  0  0  0
  4 33  1  0  0  0  0
  5  6  1  0  0  0  0
  5 34  1  0  0  0  0
  6  7  1  0  0  0  0
  7  8  1  0  0  0  0
  7 35  1  0  0  0  0
  8 13  2  0  0  0  0
  8  9  1  0  0  0  0
  9 10  2  0  0  0  0
  9 36  1  0  0  0  0
 10 28  1  0  0  0  0
 10 11  1  0  0  0  0
 11 12  2  0  0  0  0
 11 22  1  0  0  0  0
 12 13  1  0  0  0  0
 12 37  1  0  0  0  0
 13 14  1  0  0  0  0
 14 15  1  0  0  0  0
 14 38  1  0  0  0  0
 15 20  2  0  0  0  0
 15 16  1  0  0  0  0
 16 17  2  0  0  0  0
 16 39  1  0  0  0  0
 17 18  1  0  0  0  0
 17 40  1  0  0  0  0
 18 19  2  0  0  0  0
 18 21  1  0  0  0  0
 19 20  1  0  0  0  0
 19 41  1  0  0  0  0
 20 42  1  0  0  0  0
 22 23  2  0  0  0  0
 22 24  1  0  0  0  0
 24 25  1  0  0  0  0
 24 26  1  0  0  0  0
 26 27  1  0  0  0  0
 26 28  1  0  0  0  0
 28 29  2  0  0  0  0
M  END
$$$$
ZINC00838734
  -OEChem-08230709403D

 41 44  0     0  0  0  0  0  0999 V2000
    0.0685    1.0902    0.1116 C   0  0  0  0  0  0  0  0  0  0  0  0
   -0.4262    1.5833    1.3993 N   0  0  0  0  0  0  0  0  0  0  0  0
   -0.5385    2.9342    1.6114 C   0  0  0  0  0  0  0  0  0  0  0  0
   -1.0181    3.4258    2.8448 C   0  0  0  0  0  0  0  0  0  0  0  0
   -1.3769    2.5290    3.8769 C   0  0  0  0  0  0  0  0  0  0  0  0
   -1.2565    1.1829    3.6581 C   0  0  0  0  0  0  0  0  0  0  0  0
   -0.7608    0.7061    2.3651 C   0  0  0  0  0  0  0  0  0  0  0  0
   -0.6510   -0.4900    2.1618 O   0  0  0  0  0  0  0  0  0  0  0  0
   -1.6239    0.2172    4.7199 C   0  0  0  0  0  0  0  0  0  0  0  0
   -0.6659   -0.2109    5.6398 C   0  0  0  0  0  0  0  0  0  0  0  0
   -1.0162   -1.1072    6.6305 C   0  0  0  0  0  0  0  0  0  0  0  0
   -2.3108   -1.5889    6.7053 C   0  0  0  0  0  0  0  0  0  0  0  0
   -3.2639   -1.1726    5.7933 C   0  0  0  0  0  0  0  0  0  0  0  0
   -2.9280   -0.2726    4.8010 C   0  0  0  0  0  0  0  0  0  0  0  0
   -4.1254    0.2477    3.6568 Cl  0  0  0  0  0  0  0  0  0  0  0  0
    0.9613    0.3864    5.5428 Cl  0  0  0  0  0  0  0  0  0  0  0  0
   -1.1230    4.8140    3.0188 C   0  0  0  0  0  0  0  0  0  0  0  0
   -0.7738    5.6039    2.0208 N   0  0  0  0  0  0  0  0  0  0  0  0
   -0.3311    5.1056    0.8717 C   0  0  0  0  0  0  0  0  0  0  0  0
   -0.2145    3.8035    0.6608 N   0  0  0  0  0  0  0  0  0  0  0  0
    0.0210    5.9779   -0.1404 N   0  0  0  0  0  0  0  0  0  0  0  0
   -0.1997    7.3500    0.0111 C   0  0  0  0  0  0  0  0  0  0  0  0
   -1.3057    7.8032    0.7189 C   0  0  0  0  0  0  0  0  0  0  0  0
   -1.5178    9.1593    0.8713 C   0  0  0  0  0  0  0  0  0  0  0  0
   -0.6364   10.0658    0.3112 C   0  0  0  0  0  0  0  0  0  0  0  0
    0.4626    9.6181   -0.3989 C   0  0  0  0  0  0  0  0  0  0  0  0
    0.6834    8.2633   -0.5505 C   0  0  0  0  0  0  0  0  0  0  0  0
    0.0950    0.0006    0.1257 H   0  0  0  0  0  0  0  0  0  0  0  0
    1.0729    1.4758   -0.0636 H   0  0  0  0  0  0  0  0  0  0  0  0
   -0.5942    1.4272   -0.6854 H   0  0  0  0  0  0  0  0  0  0  0  0
   -1.7408    2.9001    4.8236 H   0  0  0  0  0  0  0  0  0  0  0  0
   -0.2768   -1.4359    7.3458 H   0  0  0  0  0  0  0  0  0  0  0  0
   -2.5784   -2.2933    7.4789 H   0  0  0  0  0  0  0  0  0  0  0  0
   -4.2729   -1.5525    5.8572 H   0  0  0  0  0  0  0  0  0  0  0  0
   -1.4816    5.2275    3.9499 H   0  0  0  0  0  0  0  0  0  0  0  0
    0.4212    5.6382   -0.9561 H   0  0  0  0  0  0  0  0  0  0  0  0
   -1.9966    7.0958    1.1531 H   0  0  0  0  0  0  0  0  0  0  0  0
   -2.3753    9.5123    1.4249 H   0  0  0  0  0  0  0  0  0  0  0  0
   -0.8068   11.1258    0.4283 H   0  0  0  0  0  0  0  0  0  0  0  0
    1.1490   10.3287   -0.8350 H   0  0  0  0  0  0  0  0  0  0  0  0
    1.5417    7.9142   -1.1055 H   0  0  0  0  0  0  0  0  0  0  0  0
  1  2  1  0  0  0  0
  1 28  1  0  0  0  0
  1 29  1  0  0  0  0
  1 30  1  0  0  0  0
  2  7  1  0  0  0  0
  2  3  1  0  0  0  0
  3 20  2  0  0  0  0
  3  4  1  0  0  0  0
  4  5  1  0  0  0  0
  4 17  2  0  0  0  0
  5  6  2  0  0  0  0
  5 31  1  0  0  0  0
  6  7  1  0  0  0  0
  6  9  1  0  0  0  0
  7  8  2  0  0  0  0
  9 14  2  0  0  0  0
  9 10  1  0  0  0  0
 10 11  2  0  0  0  0
 10 16  1  0  0  0  0
 11 12  1  0  0  0  0
 11 32  1  0  0  0  0
 12 13  2  0  0  0  0
 12 33  1  0  0  0  0
 13 14  1  0  0  0  0
 13 34  1  0  0  0  0
 14 15  1  0  0  0  0
 17 18  1  0  0  0  0
 17 35  1  0  0  0  0
 18 19  2  0  0  0  0
 19 20  1  0  0  0  0
 19 21  1  0  0  0  0
 21 22  1  0  0  0  0
 21 36  1  0  0  0  0
 22 27  2  0  0  0  0
 22 23  1  0  0  0  0
 23 24  2  0  0  0  0
 23 37  1  0  0  0  0
 24 25  1  0  0  0  0
 24 38  1  0  0  0  0
 25 26  2  0  0  0  0
 25 39  1  0  0  0  0
 26 27  1  0  0  0  0
 26 40  1  0  0  0  0
 27 41  1  0  0  0  0
M  END
$$$$
ZINC00839389
  -OEChem-08230709403D

 37 40  0     0  0  0  0  0  0999 V2000
   -0.7948   -8.5643    0.3902 C   0  0  0  0  0  0  0  0  0  0  0  0
    0.0364   -7.4628    0.3290 C   0  0  0  0  0  0  0  0  0  0  0  0
   -0.4480   -6.2546   -0.1556 C   0  0  0  0  0  0  0  0  0  0  0  0
   -1.7693   -6.1565   -0.5727 C   0  0  0  0  0  0  0  0  0  0  0  0
   -2.5945   -7.2635   -0.5140 C   0  0  0  0  0  0  0  0  0  0  0  0
   -2.1080   -8.4658   -0.0303 C   0  0  0  0  0  0  0  0  0  0  0  0
   -4.2443   -7.1444   -1.0410 Cl  0  0  0  0  0  0  0  0  0  0  0  0
    0.3909   -5.1382   -0.2181 N   0  0  0  0  0  0  0  0  0  0  0  0
    1.7416   -5.3014   -0.4626 C   0  0  0  0  0  0  0  0  0  0  0  0
    2.6187   -4.2047   -0.4208 C   0  0  0  0  0  0  0  0  0  0  0  0
    3.9860   -4.4266   -0.6773 C   0  0  0  0  0  0  0  0  0  0  0  0
    4.6068   -3.2188   -0.5762 N   0  0  0  0  0  0  0  0  0  0  0  0
    5.5858   -3.0595   -0.7038 H   0  0  0  0  0  0  0  0  0  0  0  0
    3.6611   -2.2356   -0.2660 N   0  0  0  0  0  0  0  0  0  0  0  0
    2.4741   -2.7757   -0.1601 C   0  0  0  0  0  0  0  0  0  0  0  0
    1.2856   -2.1067    0.1412 N   0  0  0  0  0  0  0  0  0  0  0  0
    1.2772   -0.7144    0.2543 C   0  0  0  0  0  0  0  0  0  0  0  0
    2.1860    0.0485   -0.4690 C   0  0  0  0  0  0  0  0  0  0  0  0
    2.1752    1.4246   -0.3557 C   0  0  0  0  0  0  0  0  0  0  0  0
    1.2611    2.0445    0.4766 C   0  0  0  0  0  0  0  0  0  0  0  0
    0.3544    1.2884    1.1986 C   0  0  0  0  0  0  0  0  0  0  0  0
    0.3601   -0.0896    1.0896 C   0  0  0  0  0  0  0  0  0  0  0  0
   -0.7908    2.0711    2.2425 Cl  0  0  0  0  0  0  0  0  0  0  0  0
    4.3919   -5.6670   -0.9490 N   0  0  0  0  0  0  0  0  0  0  0  0
    3.5336   -6.6627   -0.9770 C   0  0  0  0  0  0  0  0  0  0  0  0
    2.2434   -6.5003   -0.7428 N   0  0  0  0  0  0  0  0  0  0  0  0
   -0.4183   -9.5037    0.7673 H   0  0  0  0  0  0  0  0  0  0  0  0
    1.0623   -7.5410    0.6575 H   0  0  0  0  0  0  0  0  0  0  0  0
   -2.1501   -5.2174   -0.9462 H   0  0  0  0  0  0  0  0  0  0  0  0
   -2.7558   -9.3286    0.0189 H   0  0  0  0  0  0  0  0  0  0  0  0
    0.0253   -4.2490   -0.0899 H   0  0  0  0  0  0  0  0  0  0  0  0
    0.4661   -2.6089    0.2719 H   0  0  0  0  0  0  0  0  0  0  0  0
    2.9005   -0.4346   -1.1190 H   0  0  0  0  0  0  0  0  0  0  0  0
    2.8844    2.0173   -0.9143 H   0  0  0  0  0  0  0  0  0  0  0  0
    1.2549    3.1210    0.5632 H   0  0  0  0  0  0  0  0  0  0  0  0
   -0.3473   -0.6796    1.6533 H   0  0  0  0  0  0  0  0  0  0  0  0
    3.8983   -7.6543   -1.2011 H   0  0  0  0  0  0  0  0  0  0  0  0
  1  6  2  0  0  0  0
  1  2  1  0  0  0  0
  1 27  1  0  0  0  0
  2  3  2  0  0  0  0
  2 28  1  0  0  0  0
  3  4  1  0  0  0  0
  3  8  1  0  0  0  0
  4  5  2  0  0  0  0
  4 29  1  0  0  0  0
  5  6  1  0  0  0  0
  5  7  1  0  0  0  0
  6 30  1  0  0  0  0
  8  9  1  0  0  0  0
  8 31  1  0  0  0  0
  9 26  2  0  0  0  0
  9 10  1  0  0  0  0
 10 15  1  0  0  0  0
 10 11  2  0  0  0  0
 11 12  1  0  0  0  0
 11 24  1  0  0  0  0
 12 13  1  0  0  0  0
 12 14  1  0  0  0  0
 14 15  2  0  0  0  0
 15 16  1  0  0  0  0
 16 17  1  0  0  0  0
 16 32  1  0  0  0  0
 17 22  2  0  0  0  0
 17 18  1  0  0  0  0
 18 19  2  0  0  0  0
 18 33  1  0  0  0  0
 19 20  1  0  0  0  0
 19 34  1  0  0  0  0
 20 21  2  0  0  0  0
 20 35  1  0  0  0  0
 21 22  1  0  0  0  0
 21 23  1  0  0  0  0
 22 36  1  0  0  0  0
 24 25  2  0  0  0  0
 25 26  1  0  0  0  0
 25 37  1  0  0  0  0
M  END
$$$$
ZINC00839395
  -OEChem-08230709403D

 41 44  0     0  0  0  0  0  0999 V2000
   10.4962    1.5307    1.4830 C   0  0  0  0  0  0  0  0  0  0  0  0
    9.9199    2.7178    0.9346 O   0  0  0  0  0  0  0  0  0  0  0  0
    8.5745    2.7163    0.7364 C   0  0  0  0  0  0  0  0  0  0  0  0
    7.9506    3.8364    0.2071 C   0  0  0  0  0  0  0  0  0  0  0  0
    6.5846    3.8357    0.0050 C   0  0  0  0  0  0  0  0  0  0  0  0
    5.8353    2.7128    0.3318 C   0  0  0  0  0  0  0  0  0  0  0  0
    6.4601    1.5938    0.8671 C   0  0  0  0  0  0  0  0  0  0  0  0
    7.8271    1.5944    1.0631 C   0  0  0  0  0  0  0  0  0  0  0  0
    4.4509    2.7111    0.1274 N   0  0  0  0  0  0  0  0  0  0  0  0
    3.7844    1.5108   -0.1286 C   0  0  0  0  0  0  0  0  0  0  0  0
    2.3405    1.3335   -0.2497 C   0  0  0  0  0  0  0  0  0  0  0  0
    2.1274   -0.0353   -0.5072 C   0  0  0  0  0  0  0  0  0  0  0  0
    3.3541   -0.6261   -0.5367 N   0  0  0  0  0  0  0  0  0  0  0  0
    3.5238   -1.5980   -0.6997 H   0  0  0  0  0  0  0  0  0  0  0  0
    4.3397    0.3390   -0.3034 N   0  0  0  0  0  0  0  0  0  0  0  0
    0.8767   -0.4690   -0.6621 N   0  0  0  0  0  0  0  0  0  0  0  0
   -0.1376    0.3637   -0.5763 C   0  0  0  0  0  0  0  0  0  0  0  0
    0.0159    1.6537   -0.3369 N   0  0  0  0  0  0  0  0  0  0  0  0
    1.2244    2.1823   -0.1678 C   0  0  0  0  0  0  0  0  0  0  0  0
    1.3783    3.5330    0.0820 N   0  0  0  0  0  0  0  0  0  0  0  0
    0.2536    4.3419    0.2687 C   0  0  0  0  0  0  0  0  0  0  0  0
   -0.8888    3.8194    0.8620 C   0  0  0  0  0  0  0  0  0  0  0  0
   -1.9983    4.6207    1.0457 C   0  0  0  0  0  0  0  0  0  0  0  0
   -1.9738    5.9425    0.6399 C   0  0  0  0  0  0  0  0  0  0  0  0
   -0.8376    6.4668    0.0490 C   0  0  0  0  0  0  0  0  0  0  0  0
    0.2780    5.6709   -0.1333 C   0  0  0  0  0  0  0  0  0  0  0  0
   -0.8110    8.1268   -0.4584 Cl  0  0  0  0  0  0  0  0  0  0  0  0
   10.2992    0.6903    0.8175 H   0  0  0  0  0  0  0  0  0  0  0  0
   11.5727    1.6652    1.5896 H   0  0  0  0  0  0  0  0  0  0  0  0
   10.0564    1.3312    2.4602 H   0  0  0  0  0  0  0  0  0  0  0  0
    8.5335    4.7093   -0.0473 H   0  0  0  0  0  0  0  0  0  0  0  0
    6.0990    4.7078   -0.4074 H   0  0  0  0  0  0  0  0  0  0  0  0
    5.8776    0.7220    1.1260 H   0  0  0  0  0  0  0  0  0  0  0  0
    8.3137    0.7226    1.4748 H   0  0  0  0  0  0  0  0  0  0  0  0
    3.9543    3.5435    0.1634 H   0  0  0  0  0  0  0  0  0  0  0  0
   -1.1374   -0.0231   -0.7073 H   0  0  0  0  0  0  0  0  0  0  0  0
    2.2668    3.9196    0.1277 H   0  0  0  0  0  0  0  0  0  0  0  0
   -0.9093    2.7872    1.1790 H   0  0  0  0  0  0  0  0  0  0  0  0
   -2.8864    4.2147    1.5073 H   0  0  0  0  0  0  0  0  0  0  0  0
   -2.8429    6.5669    0.7848 H   0  0  0  0  0  0  0  0  0  0  0  0
    1.1661    6.0812   -0.5908 H   0  0  0  0  0  0  0  0  0  0  0  0
  1  2  1  0  0  0  0
  1 28  1  0  0  0  0
  1 29  1  0  0  0  0
  1 30  1  0  0  0  0
  2  3  1  0  0  0  0
  3  8  2  0  0  0  0
  3  4  1  0  0  0  0
  4  5  2  0  0  0  0
  4 31  1  0  0  0  0
  5  6  1  0  0  0  0
  5 32  1  0  0  0  0
  6  7  2  0  0  0  0
  6  9  1  0  0  0  0
  7  8  1  0  0  0  0
  7 33  1  0  0  0  0
  8 34  1  0  0  0  0
  9 10  1  0  0  0  0
  9 35  1  0  0  0  0
 10 15  2  0  0  0  0
 10 11  1  0  0  0  0
 11 19  2  0  0  0  0
 11 12  1  0  0  0  0
 12 13  1  0  0  0  0
 12 16  2  0  0  0  0
 13 14  1  0  0  0  0
 13 15  1  0  0  0  0
 16 17  1  0  0  0  0
 17 18  2  0  0  0  0
 17 36  1  0  0  0  0
 18 19  1  0  0  0  0
 19 20  1  0  0  0  0
 20 21  1  0  0  0  0
 20 37  1  0  0  0  0
 21 26  2  0  0  0  0
 21 22  1  0  0  0  0
 22 23  2  0  0  0  0
 22 38  1  0  0  0  0
 23 24  1  0  0  0  0
 23 39  1  0  0  0  0
 24 25  2  0  0  0  0
 24 40  1  0  0  0  0
 25 26  1  0  0  0  0
 25 27  1  0  0  0  0
 26 41  1  0  0  0  0
M  END
$$$$
ZINC00839396
  -OEChem-08230709403D

 38 41  0     0  0  0  0  0  0999 V2000
   -1.9995    4.6198    1.0453 C   0  0  0  0  0  0  0  0  0  0  0  0
   -0.8894    3.8185    0.8616 C   0  0  0  0  0  0  0  0  0  0  0  0
    0.2526    4.3412    0.2685 C   0  0  0  0  0  0  0  0  0  0  0  0
    0.2766    5.6705   -0.1337 C   0  0  0  0  0  0  0  0  0  0  0  0
   -0.8390    6.4657    0.0480 C   0  0  0  0  0  0  0  0  0  0  0  0
   -1.9753    5.9411    0.6395 C   0  0  0  0  0  0  0  0  0  0  0  0
   -0.8131    8.1256   -0.4599 Cl  0  0  0  0  0  0  0  0  0  0  0  0
    1.3776    3.5326    0.0819 N   0  0  0  0  0  0  0  0  0  0  0  0
    1.2240    2.1818   -0.1679 C   0  0  0  0  0  0  0  0  0  0  0  0
    2.3407    1.3331   -0.2497 C   0  0  0  0  0  0  0  0  0  0  0  0
    2.1280   -0.0355   -0.5068 C   0  0  0  0  0  0  0  0  0  0  0  0
    3.3548   -0.6260   -0.5363 N   0  0  0  0  0  0  0  0  0  0  0  0
    3.5248   -1.5979   -0.6990 H   0  0  0  0  0  0  0  0  0  0  0  0
    4.3401    0.3394   -0.3034 N   0  0  0  0  0  0  0  0  0  0  0  0
    3.7845    1.5111   -0.1289 C   0  0  0  0  0  0  0  0  0  0  0  0
    4.4506    2.7116    0.1267 N   0  0  0  0  0  0  0  0  0  0  0  0
    5.8350    2.7140    0.3310 C   0  0  0  0  0  0  0  0  0  0  0  0
    6.4602    1.5954    0.8665 C   0  0  0  0  0  0  0  0  0  0  0  0
    7.8272    1.5965    1.0624 C   0  0  0  0  0  0  0  0  0  0  0  0
    8.5742    2.7186    0.7352 C   0  0  0  0  0  0  0  0  0  0  0  0
    7.9499    3.8384    0.2057 C   0  0  0  0  0  0  0  0  0  0  0  0
    6.5838    3.8370    0.0037 C   0  0  0  0  0  0  0  0  0  0  0  0
    9.9195    2.7210    0.9342 O   0  0  0  0  0  0  0  0  0  0  0  0
    0.8771   -0.4696   -0.6618 N   0  0  0  0  0  0  0  0  0  0  0  0
   -0.1372    0.3627   -0.5765 C   0  0  0  0  0  0  0  0  0  0  0  0
    0.0160    1.6531   -0.3371 N   0  0  0  0  0  0  0  0  0  0  0  0
   -2.8874    4.2135    1.5068 H   0  0  0  0  0  0  0  0  0  0  0  0
   -0.9095    2.7863    1.1787 H   0  0  0  0  0  0  0  0  0  0  0  0
    1.1645    6.0810   -0.5914 H   0  0  0  0  0  0  0  0  0  0  0  0
   -2.8445    6.5654    0.7847 H   0  0  0  0  0  0  0  0  0  0  0  0
    2.2659    3.9195    0.1276 H   0  0  0  0  0  0  0  0  0  0  0  0
    3.9536    3.5439    0.1625 H   0  0  0  0  0  0  0  0  0  0  0  0
    5.8781    0.7234    1.1257 H   0  0  0  0  0  0  0  0  0  0  0  0
    8.3143    0.7250    1.4743 H   0  0  0  0  0  0  0  0  0  0  0  0
    8.5324    4.7114   -0.0490 H   0  0  0  0  0  0  0  0  0  0  0  0
    6.0979    4.7088   -0.4089 H   0  0  0  0  0  0  0  0  0  0  0  0
   10.1875    3.0397    1.8070 H   0  0  0  0  0  0  0  0  0  0  0  0
   -1.1369   -0.0244   -0.7079 H   0  0  0  0  0  0  0  0  0  0  0  0
  1  6  2  0  0  0  0
  1  2  1  0  0  0  0
  1 27  1  0  0  0  0
  2  3  2  0  0  0  0
  2 28  1  0  0  0  0
  3  4  1  0  0  0  0
  3  8  1  0  0  0  0
  4  5  2  0  0  0  0
  4 29  1  0  0  0  0
  5  6  1  0  0  0  0
  5  7  1  0  0  0  0
  6 30  1  0  0  0  0
  8  9  1  0  0  0  0
  8 31  1  0  0  0  0
  9 26  2  0  0  0  0
  9 10  1  0  0  0  0
 10 15  1  0  0  0  0
 10 11  2  0  0  0  0
 11 12  1  0  0  0  0
 11 24  1  0  0  0  0
 12 13  1  0  0  0  0
 12 14  1  0  0  0  0
 14 15  2  0  0  0  0
 15 16  1  0  0  0  0
 16 17  1  0  0  0  0
 16 32  1  0  0  0  0
 17 22  2  0  0  0  0
 17 18  1  0  0  0  0
 18 19  2  0  0  0  0
 18 33  1  0  0  0  0
 19 20  1  0  0  0  0
 19 34  1  0  0  0  0
 20 21  2  0  0  0  0
 20 23  1  0  0  0  0
 21 22  1  0  0  0  0
 21 35  1  0  0  0  0
 22 36  1  0  0  0  0
 23 37  1  0  0  0  0
 24 25  2  0  0  0  0
 25 26  1  0  0  0  0
 25 38  1  0  0  0  0
M  END
$$$$
ZINC01386782
  -OEChem-08230709403D

 36 38  0     0  0  0  0  0  0999 V2000
    5.8723    3.2858    0.3129 C   0  0  0  0  0  0  0  0  0  0  0  0
    4.6758    4.0525    0.1633 O   0  0  0  0  0  0  0  0  0  0  0  0
    3.5153    3.3614    0.0059 C   0  0  0  0  0  0  0  0  0  0  0  0
    3.5384    1.9956   -0.0028 C   0  0  0  0  0  0  0  0  0  0  0  0
    2.3443    1.2831   -0.1652 C   0  0  0  0  0  0  0  0  0  0  0  0
    1.1206    1.9807   -0.3194 C   0  0  0  0  0  0  0  0  0  0  0  0
    1.1203    3.3808   -0.3075 C   0  0  0  0  0  0  0  0  0  0  0  0
    2.3086    4.0584   -0.1462 C   0  0  0  0  0  0  0  0  0  0  0  0
    2.3111    5.4168   -0.1338 O   0  0  0  0  0  0  0  0  0  0  0  0
    1.0499    6.0694   -0.2934 C   0  0  0  0  0  0  0  0  0  0  0  0
   -0.0098    1.2734   -0.4729 N   0  0  0  0  0  0  0  0  0  0  0  0
    0.0220   -0.0380   -0.4796 C   0  0  0  0  0  0  0  0  0  0  0  0
    1.1404   -0.7316   -0.3392 N   0  0  0  0  0  0  0  0  0  0  0  0
    2.3130   -0.1317   -0.1810 C   0  0  0  0  0  0  0  0  0  0  0  0
    3.4718   -0.8678   -0.0362 N   0  0  0  0  0  0  0  0  0  0  0  0
    3.4073   -2.2611    0.0620 C   0  0  0  0  0  0  0  0  0  0  0  0
    2.3202   -2.8655    0.6804 C   0  0  0  0  0  0  0  0  0  0  0  0
    2.2568   -4.2420    0.7712 C   0  0  0  0  0  0  0  0  0  0  0  0
    3.2801   -5.0186    0.2571 C   0  0  0  0  0  0  0  0  0  0  0  0
    4.3667   -4.4191   -0.3547 C   0  0  0  0  0  0  0  0  0  0  0  0
    4.4329   -3.0432   -0.4536 C   0  0  0  0  0  0  0  0  0  0  0  0
    3.1932   -6.9029    0.3905 Br  0  0  0  0  0  0  0  0  0  0  0  0
    6.7224    3.9580    0.4296 H   0  0  0  0  0  0  0  0  0  0  0  0
    5.7884    2.6497    1.1941 H   0  0  0  0  0  0  0  0  0  0  0  0
    6.0188    2.6648   -0.5708 H   0  0  0  0  0  0  0  0  0  0  0  0
    4.4733    1.4679    0.1155 H   0  0  0  0  0  0  0  0  0  0  0  0
    0.1951    3.9255   -0.4244 H   0  0  0  0  0  0  0  0  0  0  0  0
    0.3814    5.7704    0.5140 H   0  0  0  0  0  0  0  0  0  0  0  0
    1.1935    7.1495   -0.2650 H   0  0  0  0  0  0  0  0  0  0  0  0
    0.6128    5.7860   -1.2508 H   0  0  0  0  0  0  0  0  0  0  0  0
   -0.9061   -0.5758   -0.6057 H   0  0  0  0  0  0  0  0  0  0  0  0
    4.3308   -0.4185   -0.0025 H   0  0  0  0  0  0  0  0  0  0  0  0
    1.5235   -2.2597    1.0860 H   0  0  0  0  0  0  0  0  0  0  0  0
    1.4095   -4.7127    1.2476 H   0  0  0  0  0  0  0  0  0  0  0  0
    5.1637   -5.0277   -0.7557 H   0  0  0  0  0  0  0  0  0  0  0  0
    5.2811   -2.5758   -0.9316 H   0  0  0  0  0  0  0  0  0  0  0  0
  1  2  1  0  0  0  0
  1 23  1  0  0  0  0
  1 24  1  0  0  0  0
  1 25  1  0  0  0  0
  2  3  1  0  0  0  0
  3  8  2  0  0  0  0
  3  4  1  0  0  0  0
  4  5  2  0  0  0  0
  4 26  1  0  0  0  0
  5 14  1  0  0  0  0
  5  6  1  0  0  0  0
  6  7  2  0  0  0  0
  6 11  1  0  0  0  0
  7  8  1  0  0  0  0
  7 27  1  0  0  0  0
  8  9  1  0  0  0  0
  9 10  1  0  0  0  0
 10 28  1  0  0  0  0
 10 29  1  0  0  0  0
 10 30  1  0  0  0  0
 11 12  2  0  0  0  0
 12 13  1  0  0  0  0
 12 31  1  0  0  0  0
 13 14  2  0  0  0  0
 14 15  1  0  0  0  0
 15 16  1  0  0  0  0
 15 32  1  0  0  0  0
 16 21  2  0  0  0  0
 16 17  1  0  0  0  0
 17 18  2  0  0  0  0
 17 33  1  0  0  0  0
 18 19  1  0  0  0  0
 18 34  1  0  0  0  0
 19 20  2  0  0  0  0
 19 22  1  0  0  0  0
 20 21  1  0  0  0  0
 20 35  1  0  0  0  0
 21 36  1  0  0  0  0
M  END
$$$$
ZINC01386812
  -OEChem-08230709403D

 39 41  0     0  0  0  0  0  0999 V2000
    3.4473   -0.5592   -6.1732 C   0  0  0  0  0  0  0  0  0  0  0  0
    4.6695   -1.2435   -6.4563 O   0  0  0  0  0  0  0  0  0  0  0  0
    5.4070   -1.6562   -5.3910 C   0  0  0  0  0  0  0  0  0  0  0  0
    4.9617   -1.4071   -4.1239 C   0  0  0  0  0  0  0  0  0  0  0  0
    5.7205   -1.8311   -3.0264 C   0  0  0  0  0  0  0  0  0  0  0  0
    6.9436   -2.5153   -3.2351 C   0  0  0  0  0  0  0  0  0  0  0  0
    7.3807   -2.7603   -4.5425 C   0  0  0  0  0  0  0  0  0  0  0  0
    6.6158   -2.3329   -5.6052 C   0  0  0  0  0  0  0  0  0  0  0  0
    7.0376   -2.5694   -6.8747 O   0  0  0  0  0  0  0  0  0  0  0  0
    8.2775   -3.2631   -7.0277 C   0  0  0  0  0  0  0  0  0  0  0  0
    7.6513   -2.9112   -2.1655 N   0  0  0  0  0  0  0  0  0  0  0  0
    7.2157   -2.6676   -0.9525 C   0  0  0  0  0  0  0  0  0  0  0  0
    6.0829   -2.0274   -0.7095 N   0  0  0  0  0  0  0  0  0  0  0  0
    5.3044   -1.5983   -1.6939 C   0  0  0  0  0  0  0  0  0  0  0  0
    4.1233   -0.9376   -1.4260 N   0  0  0  0  0  0  0  0  0  0  0  0
    3.7112   -0.7071   -0.0392 C   0  0  0  0  0  0  0  0  0  0  0  0
    2.3960    0.0285   -0.0217 C   0  0  0  0  0  0  0  0  0  0  0  0
    1.2084   -0.6789   -0.0136 C   0  0  0  0  0  0  0  0  0  0  0  0
    0.0021   -0.0041    0.0020 C   0  0  0  0  0  0  0  0  0  0  0  0
   -0.0167    1.3781    0.0096 C   0  0  0  0  0  0  0  0  0  0  0  0
    1.1709    2.0855    0.0021 C   0  0  0  0  0  0  0  0  0  0  0  0
    2.3773    1.4107   -0.0141 C   0  0  0  0  0  0  0  0  0  0  0  0
    2.7907   -1.2115   -5.5974 H   0  0  0  0  0  0  0  0  0  0  0  0
    3.6602    0.3417   -5.5978 H   0  0  0  0  0  0  0  0  0  0  0  0
    2.9588   -0.2860   -7.1085 H   0  0  0  0  0  0  0  0  0  0  0  0
    4.0290   -0.8849   -3.9695 H   0  0  0  0  0  0  0  0  0  0  0  0
    8.3111   -3.2804   -4.7164 H   0  0  0  0  0  0  0  0  0  0  0  0
    8.2064   -4.2428   -6.5554 H   0  0  0  0  0  0  0  0  0  0  0  0
    8.4966   -3.3860   -8.0884 H   0  0  0  0  0  0  0  0  0  0  0  0
    9.0754   -2.6894   -6.5561 H   0  0  0  0  0  0  0  0  0  0  0  0
    7.8104   -2.9998   -0.1144 H   0  0  0  0  0  0  0  0  0  0  0  0
    3.5657   -0.6257   -2.1559 H   0  0  0  0  0  0  0  0  0  0  0  0
    4.4679   -0.1107    0.4703 H   0  0  0  0  0  0  0  0  0  0  0  0
    3.5990   -1.6641    0.4703 H   0  0  0  0  0  0  0  0  0  0  0  0
    1.2231   -1.7587   -0.0199 H   0  0  0  0  0  0  0  0  0  0  0  0
   -0.9258   -0.5567    0.0079 H   0  0  0  0  0  0  0  0  0  0  0  0
   -0.9592    1.9054    0.0170 H   0  0  0  0  0  0  0  0  0  0  0  0
    1.1563    3.1654    0.0077 H   0  0  0  0  0  0  0  0  0  0  0  0
    3.3051    1.9634   -0.0207 H   0  0  0  0  0  0  0  0  0  0  0  0
  1  2  1  0  0  0  0
  1 23  1  0  0  0  0
  1 24  1  0  0  0  0
  1 25  1  0  0  0  0
  2  3  1  0  0  0  0
  3  8  2  0  0  0  0
  3  4  1  0  0  0  0
  4  5  2  0  0  0  0
  4 26  1  0  0  0  0
  5 14  1  0  0  0  0
  5  6  1  0  0  0  0
  6  7  2  0  0  0  0
  6 11  1  0  0  0  0
  7  8  1  0  0  0  0
  7 27  1  0  0  0  0
  8  9  1  0  0  0  0
  9 10  1  0  0  0  0
 10 28  1  0  0  0  0
 10 29  1  0  0  0  0
 10 30  1  0  0  0  0
 11 12  2  0  0  0  0
 12 13  1  0  0  0  0
 12 31  1  0  0  0  0
 13 14  2  0  0  0  0
 14 15  1  0  0  0  0
 15 16  1  0  0  0  0
 15 32  1  0  0  0  0
 16 17  1  0  0  0  0
 16 33  1  0  0  0  0
 16 34  1  0  0  0  0
 17 22  2  0  0  0  0
 17 18  1  0  0  0  0
 18 19  2  0  0  0  0
 18 35  1  0  0  0  0
 19 20  1  0  0  0  0
 19 36  1  0  0  0  0
 20 21  2  0  0  0  0
 20 37  1  0  0  0  0
 21 22  1  0  0  0  0
 21 38  1  0  0  0  0
 22 39  1  0  0  0  0
M  END
$$$$
ZINC01386818
  -OEChem-08230709403D

 36 38  0     0  0  0  0  0  0999 V2000
   -0.1079    7.8042   -0.3024 C   0  0  0  0  0  0  0  0  0  0  0  0
    1.1552    7.1532   -0.1512 O   0  0  0  0  0  0  0  0  0  0  0  0
    1.1386    5.8026    0.0065 C   0  0  0  0  0  0  0  0  0  0  0  0
   -0.0548    5.1380    0.0140 C   0  0  0  0  0  0  0  0  0  0  0  0
   -0.0730    3.7477    0.1768 C   0  0  0  0  0  0  0  0  0  0  0  0
    1.1438    3.0385    0.3325 C   0  0  0  0  0  0  0  0  0  0  0  0
    2.3555    3.7400    0.3216 C   0  0  0  0  0  0  0  0  0  0  0  0
    2.3464    5.1078    0.1599 C   0  0  0  0  0  0  0  0  0  0  0  0
    3.5206    5.7909    0.1486 O   0  0  0  0  0  0  0  0  0  0  0  0
    4.7173    5.0266    0.3096 C   0  0  0  0  0  0  0  0  0  0  0  0
    1.0982    1.7060    0.4872 N   0  0  0  0  0  0  0  0  0  0  0  0
   -0.0525    1.0763    0.4937 C   0  0  0  0  0  0  0  0  0  0  0  0
   -1.2129    1.6957    0.3464 N   0  0  0  0  0  0  0  0  0  0  0  0
   -1.2816    3.0115    0.1923 C   0  0  0  0  0  0  0  0  0  0  0  0
   -2.4993    3.6452    0.0454 N   0  0  0  0  0  0  0  0  0  0  0  0
   -3.6722    2.8912   -0.0529 C   0  0  0  0  0  0  0  0  0  0  0  0
   -4.8635    3.3869    0.4623 C   0  0  0  0  0  0  0  0  0  0  0  0
   -6.0212    2.6405    0.3642 C   0  0  0  0  0  0  0  0  0  0  0  0
   -5.9969    1.4003   -0.2466 C   0  0  0  0  0  0  0  0  0  0  0  0
   -4.8117    0.9024   -0.7620 C   0  0  0  0  0  0  0  0  0  0  0  0
   -3.6500    1.6480   -0.6708 C   0  0  0  0  0  0  0  0  0  0  0  0
   -4.7913   -0.3093   -1.3591 F   0  0  0  0  0  0  0  0  0  0  0  0
    0.0479    8.8767   -0.4192 H   0  0  0  0  0  0  0  0  0  0  0  0
   -0.6153    7.4126   -1.1840 H   0  0  0  0  0  0  0  0  0  0  0  0
   -0.7196    7.6199    0.5808 H   0  0  0  0  0  0  0  0  0  0  0  0
   -0.9798    5.6825   -0.1054 H   0  0  0  0  0  0  0  0  0  0  0  0
    3.2905    3.2124    0.4396 H   0  0  0  0  0  0  0  0  0  0  0  0
    4.6902    4.5066    1.2672 H   0  0  0  0  0  0  0  0  0  0  0  0
    4.7945    4.2981   -0.4974 H   0  0  0  0  0  0  0  0  0  0  0  0
    5.5800    5.6923    0.2819 H   0  0  0  0  0  0  0  0  0  0  0  0
   -0.0529    0.0037    0.6204 H   0  0  0  0  0  0  0  0  0  0  0  0
   -2.5410    4.6137    0.0105 H   0  0  0  0  0  0  0  0  0  0  0  0
   -4.8841    4.3555    0.9397 H   0  0  0  0  0  0  0  0  0  0  0  0
   -6.9470    3.0262    0.7649 H   0  0  0  0  0  0  0  0  0  0  0  0
   -6.9039    0.8188   -0.3223 H   0  0  0  0  0  0  0  0  0  0  0  0
   -2.7264    1.2620   -1.0762 H   0  0  0  0  0  0  0  0  0  0  0  0
  1  2  1  0  0  0  0
  1 23  1  0  0  0  0
  1 24  1  0  0  0  0
  1 25  1  0  0  0  0
  2  3  1  0  0  0  0
  3  8  2  0  0  0  0
  3  4  1  0  0  0  0
  4  5  2  0  0  0  0
  4 26  1  0  0  0  0
  5 14  1  0  0  0  0
  5  6  1  0  0  0  0
  6  7  2  0  0  0  0
  6 11  1  0  0  0  0
  7  8  1  0  0  0  0
  7 27  1  0  0  0  0
  8  9  1  0  0  0  0
  9 10  1  0  0  0  0
 10 28  1  0  0  0  0
 10 29  1  0  0  0  0
 10 30  1  0  0  0  0
 11 12  2  0  0  0  0
 12 13  1  0  0  0  0
 12 31  1  0  0  0  0
 13 14  2  0  0  0  0
 14 15  1  0  0  0  0
 15 16  1  0  0  0  0
 15 32  1  0  0  0  0
 16 21  2  0  0  0  0
 16 17  1  0  0  0  0
 17 18  2  0  0  0  0
 17 33  1  0  0  0  0
 18 19  1  0  0  0  0
 18 34  1  0  0  0  0
 19 20  2  0  0  0  0
 19 35  1  0  0  0  0
 20 21  1  0  0  0  0
 20 22  1  0  0  0  0
 21 36  1  0  0  0  0
M  END
$$$$
ZINC01609260
  -OEChem-08230709403D

 36 39  0     0  0  0  0  0  0999 V2000
   -0.8018   -5.5010   -0.0193 C   0  0  0  0  0  0  0  0  0  0  0  0
    0.2183   -5.3887   -0.9469 C   0  0  0  0  0  0  0  0  0  0  0  0
    1.0287   -4.2719   -0.9536 C   0  0  0  0  0  0  0  0  0  0  0  0
    0.8181   -3.2556   -0.0226 C   0  0  0  0  0  0  0  0  0  0  0  0
   -0.2077   -3.3771    0.9139 C   0  0  0  0  0  0  0  0  0  0  0  0
   -1.0156   -4.4958    0.9069 C   0  0  0  0  0  0  0  0  0  0  0  0
    1.6851   -2.0534   -0.0246 C   0  0  0  0  0  0  0  0  0  0  0  0
    3.0408   -2.0315   -0.0372 C   0  0  0  0  0  0  0  0  0  0  0  0
    3.4801   -0.7343   -0.0347 N   0  0  0  0  0  0  0  0  0  0  0  0
    2.4135    0.1274   -0.0203 C   0  0  0  0  0  0  0  0  0  0  0  0
    1.2440   -0.6524   -0.0133 C   0  0  0  0  0  0  0  0  0  0  0  0
    0.0021   -0.0041    0.0020 C   0  0  0  0  0  0  0  0  0  0  0  0
   -0.0160    1.3262    0.0093 N   0  0  0  0  0  0  0  0  0  0  0  0
    1.1067    2.0214    0.0023 C   0  0  0  0  0  0  0  0  0  0  0  0
    2.2936    1.4540   -0.0124 N   0  0  0  0  0  0  0  0  0  0  0  0
   -1.1762   -0.7291    0.0089 N   0  0  0  0  0  0  0  0  0  0  0  0
    4.8254   -0.3439   -0.0444 C   0  0  0  0  0  0  0  0  0  0  0  0
    5.2714    0.5924   -0.9676 C   0  0  0  0  0  0  0  0  0  0  0  0
    6.5970    0.9802   -0.9703 C   0  0  0  0  0  0  0  0  0  0  0  0
    7.4824    0.4276   -0.0631 C   0  0  0  0  0  0  0  0  0  0  0  0
    7.0425   -0.5097    0.8535 C   0  0  0  0  0  0  0  0  0  0  0  0
    5.7168   -0.8967    0.8656 C   0  0  0  0  0  0  0  0  0  0  0  0
   -1.4340   -6.3766   -0.0183 H   0  0  0  0  0  0  0  0  0  0  0  0
    0.3805   -6.1766   -1.6676 H   0  0  0  0  0  0  0  0  0  0  0  0
    1.8243   -4.1850   -1.6787 H   0  0  0  0  0  0  0  0  0  0  0  0
   -0.3724   -2.5952    1.6404 H   0  0  0  0  0  0  0  0  0  0  0  0
   -1.8133   -4.5891    1.6290 H   0  0  0  0  0  0  0  0  0  0  0  0
    3.6772   -2.9041   -0.0473 H   0  0  0  0  0  0  0  0  0  0  0  0
    1.0482    3.0998    0.0083 H   0  0  0  0  0  0  0  0  0  0  0  0
   -2.0294   -0.2679    0.0192 H   0  0  0  0  0  0  0  0  0  0  0  0
   -1.1490   -1.6987    0.0035 H   0  0  0  0  0  0  0  0  0  0  0  0
    4.5815    1.0209   -1.6795 H   0  0  0  0  0  0  0  0  0  0  0  0
    6.9435    1.7123   -1.6847 H   0  0  0  0  0  0  0  0  0  0  0  0
    8.5195    0.7288   -0.0703 H   0  0  0  0  0  0  0  0  0  0  0  0
    7.7363   -0.9393    1.5610 H   0  0  0  0  0  0  0  0  0  0  0  0
    5.3736   -1.6282    1.5822 H   0  0  0  0  0  0  0  0  0  0  0  0
  1  6  2  0  0  0  0
  1  2  1  0  0  0  0
  1 23  1  0  0  0  0
  2  3  2  0  0  0  0
  2 24  1  0  0  0  0
  3  4  1  0  0  0  0
  3 25  1  0  0  0  0
  4  5  2  0  0  0  0
  4  7  1  0  0  0  0
  5  6  1  0  0  0  0
  5 26  1  0  0  0  0
  6 27  1  0  0  0  0
  7 11  1  0  0  0  0
  7  8  2  0  0  0  0
  8  9  1  0  0  0  0
  8 28  1  0  0  0  0
  9 10  1  0  0  0  0
  9 17  1  0  0  0  0
 10 15  2  0  0  0  0
 10 11  1  0  0  0  0
 11 12  2  0  0  0  0
 12 13  1  0  0  0  0
 12 16  1  0  0  0  0
 13 14  2  0  0  0  0
 14 15  1  0  0  0  0
 14 29  1  0  0  0  0
 16 30  1  0  0  0  0
 16 31  1  0  0  0  0
 17 22  2  0  0  0  0
 17 18  1  0  0  0  0
 18 19  2  0  0  0  0
 18 32  1  0  0  0  0
 19 20  1  0  0  0  0
 19 33  1  0  0  0  0
 20 21  2  0  0  0  0
 20 34  1  0  0  0  0
 21 22  1  0  0  0  0
 21 35  1  0  0  0  0
 22 36  1  0  0  0  0
M  END
$$$$
ZINC01609268
  -OEChem-08230709403D

 40 43  0     0  0  0  0  0  0999 V2000
   -2.6307   -6.6583    0.9712 C   0  0  0  0  0  0  0  0  0  0  0  0
   -1.5977   -6.6056   -0.0148 O   0  0  0  0  0  0  0  0  0  0  0  0
   -0.8031   -5.5028   -0.0177 C   0  0  0  0  0  0  0  0  0  0  0  0
    0.2194   -5.3885   -0.9494 C   0  0  0  0  0  0  0  0  0  0  0  0
    1.0281   -4.2712   -0.9546 C   0  0  0  0  0  0  0  0  0  0  0  0
    0.8172   -3.2556   -0.0228 C   0  0  0  0  0  0  0  0  0  0  0  0
   -0.2077   -3.3758    0.9148 C   0  0  0  0  0  0  0  0  0  0  0  0
   -1.0158   -4.4936    0.9113 C   0  0  0  0  0  0  0  0  0  0  0  0
    1.6848   -2.0534   -0.0251 C   0  0  0  0  0  0  0  0  0  0  0  0
    3.0402   -2.0322   -0.0379 C   0  0  0  0  0  0  0  0  0  0  0  0
    3.4801   -0.7341   -0.0351 N   0  0  0  0  0  0  0  0  0  0  0  0
    2.4136    0.1274   -0.0203 C   0  0  0  0  0  0  0  0  0  0  0  0
    1.2440   -0.6525   -0.0133 C   0  0  0  0  0  0  0  0  0  0  0  0
    0.0021   -0.0041    0.0020 C   0  0  0  0  0  0  0  0  0  0  0  0
   -0.0160    1.3262    0.0093 N   0  0  0  0  0  0  0  0  0  0  0  0
    1.1068    2.0215    0.0023 C   0  0  0  0  0  0  0  0  0  0  0  0
    2.2937    1.4541   -0.0120 N   0  0  0  0  0  0  0  0  0  0  0  0
   -1.1762   -0.7291    0.0089 N   0  0  0  0  0  0  0  0  0  0  0  0
    4.8253   -0.3438   -0.0458 C   0  0  0  0  0  0  0  0  0  0  0  0
    5.2708    0.5925   -0.9694 C   0  0  0  0  0  0  0  0  0  0  0  0
    6.5967    0.9791   -0.9740 C   0  0  0  0  0  0  0  0  0  0  0  0
    7.4827    0.4266   -0.0674 C   0  0  0  0  0  0  0  0  0  0  0  0
    7.0434   -0.5103    0.8499 C   0  0  0  0  0  0  0  0  0  0  0  0
    5.7175   -0.8968    0.8633 C   0  0  0  0  0  0  0  0  0  0  0  0
   -2.1864   -6.6147    1.9656 H   0  0  0  0  0  0  0  0  0  0  0  0
   -3.3046   -5.8121    0.8369 H   0  0  0  0  0  0  0  0  0  0  0  0
   -3.1890   -7.5882    0.8631 H   0  0  0  0  0  0  0  0  0  0  0  0
    0.3822   -6.1755   -1.6709 H   0  0  0  0  0  0  0  0  0  0  0  0
    1.8239   -4.1832   -1.6793 H   0  0  0  0  0  0  0  0  0  0  0  0
   -0.3709   -2.5930    1.6407 H   0  0  0  0  0  0  0  0  0  0  0  0
   -1.8125   -4.5855    1.6347 H   0  0  0  0  0  0  0  0  0  0  0  0
    3.6763   -2.9049   -0.0481 H   0  0  0  0  0  0  0  0  0  0  0  0
    1.0482    3.0998    0.0087 H   0  0  0  0  0  0  0  0  0  0  0  0
   -2.0294   -0.2678    0.0192 H   0  0  0  0  0  0  0  0  0  0  0  0
   -1.1490   -1.6987    0.0035 H   0  0  0  0  0  0  0  0  0  0  0  0
    4.5802    1.0214   -1.6805 H   0  0  0  0  0  0  0  0  0  0  0  0
    6.9428    1.7107   -1.6892 H   0  0  0  0  0  0  0  0  0  0  0  0
    8.5198    0.7278   -0.0755 H   0  0  0  0  0  0  0  0  0  0  0  0
    7.7377   -0.9401    1.5567 H   0  0  0  0  0  0  0  0  0  0  0  0
    5.3748   -1.6281    1.5804 H   0  0  0  0  0  0  0  0  0  0  0  0
  1  2  1  0  0  0  0
  1 25  1  0  0  0  0
  1 26  1  0  0  0  0
  1 27  1  0  0  0  0
  2  3  1  0  0  0  0
  3  8  2  0  0  0  0
  3  4  1  0  0  0  0
  4  5  2  0  0  0  0
  4 28  1  0  0  0  0
  5  6  1  0  0  0  0
  5 29  1  0  0  0  0
  6  7  2  0  0  0  0
  6  9  1  0  0  0  0
  7  8  1  0  0  0  0
  7 30  1  0  0  0  0
  8 31  1  0  0  0  0
  9 13  1  0  0  0  0
  9 10  2  0  0  0  0
 10 11  1  0  0  0  0
 10 32  1  0  0  0  0
 11 12  1  0  0  0  0
 11 19  1  0  0  0  0
 12 17  2  0  0  0  0
 12 13  1  0  0  0  0
 13 14  2  0  0  0  0
 14 15  1  0  0  0  0
 14 18  1  0  0  0  0
 15 16  2  0  0  0  0
 16 17  1  0  0  0  0
 16 33  1  0  0  0  0
 18 34  1  0  0  0  0
 18 35  1  0  0  0  0
 19 24  2  0  0  0  0
 19 20  1  0  0  0  0
 20 21  2  0  0  0  0
 20 36  1  0  0  0  0
 21 22  1  0  0  0  0
 21 37  1  0  0  0  0
 22 23  2  0  0  0  0
 22 38  1  0  0  0  0
 23 24  1  0  0  0  0
 23 39  1  0  0  0  0
 24 40  1  0  0  0  0
M  END
$$$$
ZINC02005174
  -OEChem-08230709403D

 44 46  0     0  0  0  0  0  0999 V2000
   -3.3805   -3.8586    5.9527 C   0  0  0  0  0  0  0  0  0  0  0  0
   -2.1593   -2.9388    5.8946 C   0  0  0  0  0  0  0  0  0  0  0  0
   -1.4114   -3.2144    4.7084 O   0  0  0  0  0  0  0  0  0  0  0  0
   -0.2867   -2.4782    4.5027 C   0  0  0  0  0  0  0  0  0  0  0  0
    0.0792   -1.5323    5.4167 C   0  0  0  0  0  0  0  0  0  0  0  0
    1.2351   -0.7670    5.2039 C   0  0  0  0  0  0  0  0  0  0  0  0
    2.0221   -0.9820    4.0466 C   0  0  0  0  0  0  0  0  0  0  0  0
    1.6287   -1.9645    3.1252 C   0  0  0  0  0  0  0  0  0  0  0  0
    0.4897   -2.7017    3.3573 C   0  0  0  0  0  0  0  0  0  0  0  0
    0.1108   -3.6523    2.4637 O   0  0  0  0  0  0  0  0  0  0  0  0
    0.9402   -3.8286    1.3134 C   0  0  0  0  0  0  0  0  0  0  0  0
    0.3582   -4.9337    0.4297 C   0  0  0  0  0  0  0  0  0  0  0  0
    3.1290   -0.2541    3.8378 N   0  0  0  0  0  0  0  0  0  0  0  0
    3.5214    0.6684    4.6788 C   0  0  0  0  0  0  0  0  0  0  0  0
    2.8020    0.9491    5.8516 C   0  0  0  0  0  0  0  0  0  0  0  0
    1.6339    0.2238    6.1308 C   0  0  0  0  0  0  0  0  0  0  0  0
    0.8981    0.4692    7.2731 N   0  0  0  0  0  0  0  0  0  0  0  0
    1.1827   -0.2271    8.4506 C   0  0  0  0  0  0  0  0  0  0  0  0
    2.1172   -1.2554    8.4428 C   0  0  0  0  0  0  0  0  0  0  0  0
    2.4000   -1.9386    9.6090 C   0  0  0  0  0  0  0  0  0  0  0  0
    1.7467   -1.6076   10.7821 C   0  0  0  0  0  0  0  0  0  0  0  0
    0.8118   -0.5877   10.7928 C   0  0  0  0  0  0  0  0  0  0  0  0
    0.5281    0.1034    9.6300 C   0  0  0  0  0  0  0  0  0  0  0  0
   -0.0790   -0.1395   12.3995 Br  0  0  0  0  0  0  0  0  0  0  0  0
    3.2555    1.9653    6.7528 C   0  0  0  0  0  0  0  0  0  0  0  0
    3.6153    2.7715    7.4678 N   0  0  0  0  0  0  0  0  0  0  0  0
   -4.0083   -3.6847    5.0788 H   0  0  0  0  0  0  0  0  0  0  0  0
   -3.0524   -4.8979    5.9634 H   0  0  0  0  0  0  0  0  0  0  0  0
   -3.9509   -3.6483    6.8575 H   0  0  0  0  0  0  0  0  0  0  0  0
   -1.5315   -3.1127    6.7685 H   0  0  0  0  0  0  0  0  0  0  0  0
   -2.4874   -1.8994    5.8839 H   0  0  0  0  0  0  0  0  0  0  0  0
   -0.5230   -1.3699    6.2984 H   0  0  0  0  0  0  0  0  0  0  0  0
    2.2176   -2.1418    2.2374 H   0  0  0  0  0  0  0  0  0  0  0  0
    1.9453   -4.1078    1.6295 H   0  0  0  0  0  0  0  0  0  0  0  0
    0.9823   -2.8968    0.7495 H   0  0  0  0  0  0  0  0  0  0  0  0
    0.9907   -5.0682   -0.4477 H   0  0  0  0  0  0  0  0  0  0  0  0
    0.3161   -5.8656    0.9936 H   0  0  0  0  0  0  0  0  0  0  0  0
   -0.6470   -4.6546    0.1136 H   0  0  0  0  0  0  0  0  0  0  0  0
    4.4203    1.2277    4.4655 H   0  0  0  0  0  0  0  0  0  0  0  0
    0.1835    1.1250    7.2581 H   0  0  0  0  0  0  0  0  0  0  0  0
    2.6249   -1.5174    7.5262 H   0  0  0  0  0  0  0  0  0  0  0  0
    3.1292   -2.7352    9.6040 H   0  0  0  0  0  0  0  0  0  0  0  0
    1.9671   -2.1461   11.6920 H   0  0  0  0  0  0  0  0  0  0  0  0
   -0.2020    0.8992    9.6385 H   0  0  0  0  0  0  0  0  0  0  0  0
  1  2  1  0  0  0  0
  1 27  1  0  0  0  0
  1 28  1  0  0  0  0
  1 29  1  0  0  0  0
  2  3  1  0  0  0  0
  2 30  1  0  0  0  0
  2 31  1  0  0  0  0
  3  4  1  0  0  0  0
  4  9  2  0  0  0  0
  4  5  1  0  0  0  0
  5  6  2  0  0  0  0
  5 32  1  0  0  0  0
  6 16  1  0  0  0  0
  6  7  1  0  0  0  0
  7  8  2  0  0  0  0
  7 13  1  0  0  0  0
  8  9  1  0  0  0  0
  8 33  1  0  0  0  0
  9 10  1  0  0  0  0
 10 11  1  0  0  0  0
 11 12  1  0  0  0  0
 11 34  1  0  0  0  0
 11 35  1  0  0  0  0
 12 36  1  0  0  0  0
 12 37  1  0  0  0  0
 12 38  1  0  0  0  0
 13 14  2  0  0  0  0
 14 15  1  0  0  0  0
 14 39  1  0  0  0  0
 15 16  2  0  0  0  0
 15 25  1  0  0  0  0
 16 17  1  0  0  0  0
 17 18  1  0  0  0  0
 17 40  1  0  0  0  0
 18 23  2  0  0  0  0
 18 19  1  0  0  0  0
 19 20  2  0  0  0  0
 19 41  1  0  0  0  0
 20 21  1  0  0  0  0
 20 42  1  0  0  0  0
 21 22  2  0  0  0  0
 21 43  1  0  0  0  0
 22 23  1  0  0  0  0
 22 24  1  0  0  0  0
 23 44  1  0  0  0  0
 25 26  3  0  0  0  0
M  END
$$$$
ZINC02047503
  -OEChem-08230709403D

 45 48  0     0  0  0  0  0  0999 V2000
    0.0685    1.0902    0.1116 C   0  0  0  0  0  0  0  0  0  0  0  0
   -0.4262    1.5833    1.3993 N   0  0  0  0  0  0  0  0  0  0  0  0
   -0.5386    2.9342    1.6113 C   0  0  0  0  0  0  0  0  0  0  0  0
   -1.0182    3.4258    2.8448 C   0  0  0  0  0  0  0  0  0  0  0  0
   -1.3770    2.5290    3.8769 C   0  0  0  0  0  0  0  0  0  0  0  0
   -1.2566    1.1828    3.6580 C   0  0  0  0  0  0  0  0  0  0  0  0
   -0.7609    0.7061    2.3650 C   0  0  0  0  0  0  0  0  0  0  0  0
   -0.6511   -0.4900    2.1618 O   0  0  0  0  0  0  0  0  0  0  0  0
   -1.6241    0.2171    4.7198 C   0  0  0  0  0  0  0  0  0  0  0  0
   -0.6661   -0.2109    5.6397 C   0  0  0  0  0  0  0  0  0  0  0  0
   -1.0165   -1.1073    6.6304 C   0  0  0  0  0  0  0  0  0  0  0  0
   -2.3111   -1.5889    6.7051 C   0  0  0  0  0  0  0  0  0  0  0  0
   -3.2642   -1.1726    5.7932 C   0  0  0  0  0  0  0  0  0  0  0  0
   -2.9282   -0.2726    4.8008 C   0  0  0  0  0  0  0  0  0  0  0  0
   -4.1255    0.2477    3.6566 Cl  0  0  0  0  0  0  0  0  0  0  0  0
    0.9610    0.3864    5.5428 Cl  0  0  0  0  0  0  0  0  0  0  0  0
   -1.1231    4.8140    3.0188 C   0  0  0  0  0  0  0  0  0  0  0  0
   -0.7739    5.6039    2.0208 N   0  0  0  0  0  0  0  0  0  0  0  0
   -0.3311    5.1056    0.8717 C   0  0  0  0  0  0  0  0  0  0  0  0
   -0.2145    3.8035    0.6608 N   0  0  0  0  0  0  0  0  0  0  0  0
    0.0210    5.9779   -0.1404 N   0  0  0  0  0  0  0  0  0  0  0  0
   -0.1997    7.3500    0.0111 C   0  0  0  0  0  0  0  0  0  0  0  0
   -1.3058    7.8032    0.7190 C   0  0  0  0  0  0  0  0  0  0  0  0
   -1.5179    9.1592    0.8714 C   0  0  0  0  0  0  0  0  0  0  0  0
   -0.6364   10.0658    0.3112 C   0  0  0  0  0  0  0  0  0  0  0  0
    0.4624    9.6181   -0.3988 C   0  0  0  0  0  0  0  0  0  0  0  0
    0.6833    8.2631   -0.5504 C   0  0  0  0  0  0  0  0  0  0  0  0
    1.4197   10.6097   -1.0082 C   0  0  0  0  0  0  0  0  0  0  0  0
    0.9930   10.9310   -2.3336 O   0  0  0  0  0  0  0  0  0  0  0  0
    0.0950    0.0006    0.1256 H   0  0  0  0  0  0  0  0  0  0  0  0
    1.0728    1.4758   -0.0636 H   0  0  0  0  0  0  0  0  0  0  0  0
   -0.5942    1.4272   -0.6855 H   0  0  0  0  0  0  0  0  0  0  0  0
   -1.7410    2.9000    4.8236 H   0  0  0  0  0  0  0  0  0  0  0  0
   -0.2771   -1.4360    7.3457 H   0  0  0  0  0  0  0  0  0  0  0  0
   -2.5787   -2.2934    7.4788 H   0  0  0  0  0  0  0  0  0  0  0  0
   -4.2732   -1.5525    5.8570 H   0  0  0  0  0  0  0  0  0  0  0  0
   -1.4817    5.2275    3.9498 H   0  0  0  0  0  0  0  0  0  0  0  0
    0.4212    5.6382   -0.9561 H   0  0  0  0  0  0  0  0  0  0  0  0
   -1.9968    7.0958    1.1532 H   0  0  0  0  0  0  0  0  0  0  0  0
   -2.3754    9.5121    1.4250 H   0  0  0  0  0  0  0  0  0  0  0  0
   -0.8068   11.1258    0.4283 H   0  0  0  0  0  0  0  0  0  0  0  0
    1.5416    7.9141   -1.1054 H   0  0  0  0  0  0  0  0  0  0  0  0
    1.4384   11.5159   -0.4028 H   0  0  0  0  0  0  0  0  0  0  0  0
    2.4189   10.1755   -1.0434 H   0  0  0  0  0  0  0  0  0  0  0  0
    1.5640   11.5657   -2.7877 H   0  0  0  0  0  0  0  0  0  0  0  0
  1  2  1  0  0  0  0
  1 30  1  0  0  0  0
  1 31  1  0  0  0  0
  1 32  1  0  0  0  0
  2  7  1  0  0  0  0
  2  3  1  0  0  0  0
  3 20  2  0  0  0  0
  3  4  1  0  0  0  0
  4  5  1  0  0  0  0
  4 17  2  0  0  0  0
  5  6  2  0  0  0  0
  5 33  1  0  0  0  0
  6  7  1  0  0  0  0
  6  9  1  0  0  0  0
  7  8  2  0  0  0  0
  9 14  2  0  0  0  0
  9 10  1  0  0  0  0
 10 11  2  0  0  0  0
 10 16  1  0  0  0  0
 11 12  1  0  0  0  0
 11 34  1  0  0  0  0
 12 13  2  0  0  0  0
 12 35  1  0  0  0  0
 13 14  1  0  0  0  0
 13 36  1  0  0  0  0
 14 15  1  0  0  0  0
 17 18  1  0  0  0  0
 17 37  1  0  0  0  0
 18 19  2  0  0  0  0
 19 20  1  0  0  0  0
 19 21  1  0  0  0  0
 21 22  1  0  0  0  0
 21 38  1  0  0  0  0
 22 27  2  0  0  0  0
 22 23  1  0  0  0  0
 23 24  2  0  0  0  0
 23 39  1  0  0  0  0
 24 25  1  0  0  0  0
 24 40  1  0  0  0  0
 25 26  2  0  0  0  0
 25 41  1  0  0  0  0
 26 27  1  0  0  0  0
 26 28  1  0  0  0  0
 27 42  1  0  0  0  0
 28 29  1  0  0  0  0
 28 43  1  0  0  0  0
 28 44  1  0  0  0  0
 29 45  1  0  0  0  0
M  END
$$$$
ZINC02391775
  -OEChem-08230709403D

 34 37  0     0  0  0  0  0  0999 V2000
   -1.1914   -0.8057    0.9837 C   0  0  0  0  0  0  0  0  0  0  0  0
   -0.0211    0.0718    0.9018 N   0  0  0  0  0  0  0  0  0  0  0  0
    1.2804   -0.3033    1.0457 C   0  0  0  0  0  0  0  0  0  0  0  0
    2.0637    0.7255    0.9133 N   0  0  0  0  0  0  0  0  0  0  0  0
    1.3204    1.8399    0.6739 C   0  0  0  0  0  0  0  0  0  0  0  0
   -0.0336    1.4336    0.6632 C   0  0  0  0  0  0  0  0  0  0  0  0
   -1.0416    2.3479    0.4378 C   0  0  0  0  0  0  0  0  0  0  0  0
   -0.7213    3.6912    0.2268 C   0  0  0  0  0  0  0  0  0  0  0  0
    0.6377    4.1027    0.2368 C   0  0  0  0  0  0  0  0  0  0  0  0
    1.6510    3.1715    0.4609 C   0  0  0  0  0  0  0  0  0  0  0  0
    0.9213    5.4740    0.0136 C   0  0  0  0  0  0  0  0  0  0  0  0
   -0.0957    6.2996   -0.1922 N   0  0  0  0  0  0  0  0  0  0  0  0
   -1.3479    5.8693   -0.1930 C   0  0  0  0  0  0  0  0  0  0  0  0
   -1.6722    4.6149    0.0073 N   0  0  0  0  0  0  0  0  0  0  0  0
    2.2207    5.9371    0.0115 N   0  0  0  0  0  0  0  0  0  0  0  0
    2.4739    7.3080   -0.0900 C   0  0  0  0  0  0  0  0  0  0  0  0
    1.6176    8.2206    0.5135 C   0  0  0  0  0  0  0  0  0  0  0  0
    1.8702    9.5743    0.4116 C   0  0  0  0  0  0  0  0  0  0  0  0
    2.9742   10.0226   -0.2902 C   0  0  0  0  0  0  0  0  0  0  0  0
    3.8293    9.1169   -0.8925 C   0  0  0  0  0  0  0  0  0  0  0  0
    3.5851    7.7604   -0.7894 C   0  0  0  0  0  0  0  0  0  0  0  0
    5.3379    9.7350   -1.8506 Br  0  0  0  0  0  0  0  0  0  0  0  0
   -1.4201   -1.1997   -0.0065 H   0  0  0  0  0  0  0  0  0  0  0  0
   -0.9796   -1.6312    1.6633 H   0  0  0  0  0  0  0  0  0  0  0  0
   -2.0451   -0.2390    1.3553 H   0  0  0  0  0  0  0  0  0  0  0  0
    1.6139   -1.3117    1.2415 H   0  0  0  0  0  0  0  0  0  0  0  0
   -2.0729    2.0274    0.4267 H   0  0  0  0  0  0  0  0  0  0  0  0
    2.6849    3.4836    0.4691 H   0  0  0  0  0  0  0  0  0  0  0  0
   -2.1384    6.5846   -0.3662 H   0  0  0  0  0  0  0  0  0  0  0  0
    2.9586    5.3113    0.0804 H   0  0  0  0  0  0  0  0  0  0  0  0
    0.7549    7.8715    1.0616 H   0  0  0  0  0  0  0  0  0  0  0  0
    1.2048   10.2839    0.8810 H   0  0  0  0  0  0  0  0  0  0  0  0
    3.1696   11.0820   -0.3680 H   0  0  0  0  0  0  0  0  0  0  0  0
    4.2551    7.0534   -1.2558 H   0  0  0  0  0  0  0  0  0  0  0  0
  1  2  1  0  0  0  0
  1 23  1  0  0  0  0
  1 24  1  0  0  0  0
  1 25  1  0  0  0  0
  2  6  1  0  0  0  0
  2  3  1  0  0  0  0
  3  4  2  0  0  0  0
  3 26  1  0  0  0  0
  4  5  1  0  0  0  0
  5 10  2  0  0  0  0
  5  6  1  0  0  0  0
  6  7  2  0  0  0  0
  7  8  1  0  0  0  0
  7 27  1  0  0  0  0
  8 14  2  0  0  0  0
  8  9  1  0  0  0  0
  9 10  1  0  0  0  0
  9 11  2  0  0  0  0
 10 28  1  0  0  0  0
 11 12  1  0  0  0  0
 11 15  1  0  0  0  0
 12 13  2  0  0  0  0
 13 14  1  0  0  0  0
 13 29  1  0  0  0  0
 15 16  1  0  0  0  0
 15 30  1  0  0  0  0
 16 21  2  0  0  0  0
 16 17  1  0  0  0  0
 17 18  2  0  0  0  0
 17 31  1  0  0  0  0
 18 19  1  0  0  0  0
 18 32  1  0  0  0  0
 19 20  2  0  0  0  0
 19 33  1  0  0  0  0
 20 21  1  0  0  0  0
 20 22  1  0  0  0  0
 21 34  1  0  0  0  0
M  END
$$$$
ZINC02391776
  -OEChem-08230709403D

 32 34  0     0  0  0  0  0  0999 V2000
    4.3677   -4.4184   -0.3538 C   0  0  0  0  0  0  0  0  0  0  0  0
    4.4339   -3.0422   -0.4526 C   0  0  0  0  0  0  0  0  0  0  0  0
    3.4082   -2.2600    0.0624 C   0  0  0  0  0  0  0  0  0  0  0  0
    2.3210   -2.8645    0.6808 C   0  0  0  0  0  0  0  0  0  0  0  0
    2.2584   -4.2418    0.7723 C   0  0  0  0  0  0  0  0  0  0  0  0
    3.2822   -5.0179    0.2574 C   0  0  0  0  0  0  0  0  0  0  0  0
    0.7762   -5.0667    1.6079 Br  0  0  0  0  0  0  0  0  0  0  0  0
    3.4724   -0.8672   -0.0362 N   0  0  0  0  0  0  0  0  0  0  0  0
    2.3131   -0.1310   -0.1813 C   0  0  0  0  0  0  0  0  0  0  0  0
    2.3444    1.2832   -0.1658 C   0  0  0  0  0  0  0  0  0  0  0  0
    3.5398    1.9953   -0.0043 C   0  0  0  0  0  0  0  0  0  0  0  0
    3.5180    3.3616    0.0042 C   0  0  0  0  0  0  0  0  0  0  0  0
    2.3079    4.0604   -0.1474 C   0  0  0  0  0  0  0  0  0  0  0  0
    1.1192    3.3810   -0.3073 C   0  0  0  0  0  0  0  0  0  0  0  0
    1.1206    1.9808   -0.3196 C   0  0  0  0  0  0  0  0  0  0  0  0
   -0.0100    1.2733   -0.4721 N   0  0  0  0  0  0  0  0  0  0  0  0
    0.0217   -0.0381   -0.4781 C   0  0  0  0  0  0  0  0  0  0  0  0
    1.1404   -0.7314   -0.3384 N   0  0  0  0  0  0  0  0  0  0  0  0
    2.3098    5.4553   -0.1356 N   0  0  0  0  0  0  0  0  0  0  0  0
    4.7125    4.0723    0.1661 N   0  0  0  0  0  0  0  0  0  0  0  0
    5.1652   -5.0268   -0.7542 H   0  0  0  0  0  0  0  0  0  0  0  0
    5.2823   -2.5748   -0.9303 H   0  0  0  0  0  0  0  0  0  0  0  0
    1.5242   -2.2589    1.0866 H   0  0  0  0  0  0  0  0  0  0  0  0
    3.2332   -6.0941    0.3337 H   0  0  0  0  0  0  0  0  0  0  0  0
    4.3314   -0.4177   -0.0028 H   0  0  0  0  0  0  0  0  0  0  0  0
    4.4744    1.4669    0.1132 H   0  0  0  0  0  0  0  0  0  0  0  0
    0.1932    3.9249   -0.4225 H   0  0  0  0  0  0  0  0  0  0  0  0
   -0.9064   -0.5761   -0.6029 H   0  0  0  0  0  0  0  0  0  0  0  0
    3.1435    5.9382   -0.0231 H   0  0  0  0  0  0  0  0  0  0  0  0
    1.4775    5.9423   -0.2398 H   0  0  0  0  0  0  0  0  0  0  0  0
    5.5503    3.5950    0.2714 H   0  0  0  0  0  0  0  0  0  0  0  0
    4.7026    5.0422    0.1729 H   0  0  0  0  0  0  0  0  0  0  0  0
  1  6  2  0  0  0  0
  1  2  1  0  0  0  0
  1 21  1  0  0  0  0
  2  3  2  0  0  0  0
  2 22  1  0  0  0  0
  3  4  1  0  0  0  0
  3  8  1  0  0  0  0
  4  5  2  0  0  0  0
  4 23  1  0  0  0  0
  5  6  1  0  0  0  0
  5  7  1  0  0  0  0
  6 24  1  0  0  0  0
  8  9  1  0  0  0  0
  8 25  1  0  0  0  0
  9 18  2  0  0  0  0
  9 10  1  0  0  0  0
 10 15  2  0  0  0  0
 10 11  1  0  0  0  0
 11 12  2  0  0  0  0
 11 26  1  0  0  0  0
 12 13  1  0  0  0  0
 12 20  1  0  0  0  0
 13 14  2  0  0  0  0
 13 19  1  0  0  0  0
 14 15  1  0  0  0  0
 14 27  1  0  0  0  0
 15 16  1  0  0  0  0
 16 17  2  0  0  0  0
 17 18  1  0  0  0  0
 17 28  1  0  0  0  0
 19 29  1  0  0  0  0
 19 30  1  0  0  0  0
 20 31  1  0  0  0  0
 20 32  1  0  0  0  0
M  END
$$$$
ZINC02391785
  -OEChem-08230709403D

 35 37  0     0  0  0  0  0  0999 V2000
    4.8202    5.0911    0.3084 C   0  0  0  0  0  0  0  0  0  0  0  0
    3.5536    5.8098    0.1488 N   0  0  0  0  0  0  0  0  0  0  0  0
    2.3477    5.1088    0.1599 C   0  0  0  0  0  0  0  0  0  0  0  0
    2.3556    3.7395    0.3215 C   0  0  0  0  0  0  0  0  0  0  0  0
    1.1437    3.0388    0.3322 C   0  0  0  0  0  0  0  0  0  0  0  0
   -0.0735    3.7479    0.1767 C   0  0  0  0  0  0  0  0  0  0  0  0
   -0.0565    5.1388    0.0139 C   0  0  0  0  0  0  0  0  0  0  0  0
    1.1369    5.8051    0.0062 C   0  0  0  0  0  0  0  0  0  0  0  0
    1.1530    7.1949   -0.1560 N   0  0  0  0  0  0  0  0  0  0  0  0
   -1.2815    3.0118    0.1922 C   0  0  0  0  0  0  0  0  0  0  0  0
   -1.2128    1.6958    0.3462 N   0  0  0  0  0  0  0  0  0  0  0  0
   -0.0525    1.0763    0.4933 C   0  0  0  0  0  0  0  0  0  0  0  0
    1.0982    1.7061    0.4869 N   0  0  0  0  0  0  0  0  0  0  0  0
   -2.4996    3.6455    0.0451 N   0  0  0  0  0  0  0  0  0  0  0  0
   -3.6724    2.8914   -0.0533 C   0  0  0  0  0  0  0  0  0  0  0  0
   -4.8639    3.3870    0.4615 C   0  0  0  0  0  0  0  0  0  0  0  0
   -6.0211    2.6400    0.3625 C   0  0  0  0  0  0  0  0  0  0  0  0
   -5.9954    1.3998   -0.2488 C   0  0  0  0  0  0  0  0  0  0  0  0
   -4.8109    0.9031   -0.7630 C   0  0  0  0  0  0  0  0  0  0  0  0
   -3.6502    1.6478   -0.6710 C   0  0  0  0  0  0  0  0  0  0  0  0
   -4.7813   -0.7931   -1.5985 Br  0  0  0  0  0  0  0  0  0  0  0  0
    4.8256    4.5730    1.2674 H   0  0  0  0  0  0  0  0  0  0  0  0
    4.9301    4.3653   -0.4973 H   0  0  0  0  0  0  0  0  0  0  0  0
    5.6472    5.8003    0.2739 H   0  0  0  0  0  0  0  0  0  0  0  0
    3.5536    6.7732    0.0354 H   0  0  0  0  0  0  0  0  0  0  0  0
    3.2902    3.2113    0.4394 H   0  0  0  0  0  0  0  0  0  0  0  0
   -0.9821    5.6824   -0.1053 H   0  0  0  0  0  0  0  0  0  0  0  0
    0.3201    7.6805   -0.2622 H   0  0  0  0  0  0  0  0  0  0  0  0
    1.9972    7.6727   -0.1622 H   0  0  0  0  0  0  0  0  0  0  0  0
   -0.0529    0.0037    0.6200 H   0  0  0  0  0  0  0  0  0  0  0  0
   -2.5413    4.6140    0.0099 H   0  0  0  0  0  0  0  0  0  0  0  0
   -4.8850    4.3554    0.9391 H   0  0  0  0  0  0  0  0  0  0  0  0
   -6.9474    3.0250    0.7626 H   0  0  0  0  0  0  0  0  0  0  0  0
   -6.9020    0.8178   -0.3252 H   0  0  0  0  0  0  0  0  0  0  0  0
   -2.7265    1.2617   -1.0761 H   0  0  0  0  0  0  0  0  0  0  0  0
  1  2  1  0  0  0  0
  1 22  1  0  0  0  0
  1 23  1  0  0  0  0
  1 24  1  0  0  0  0
  2  3  1  0  0  0  0
  2 25  1  0  0  0  0
  3  8  2  0  0  0  0
  3  4  1  0  0  0  0
  4  5  2  0  0  0  0
  4 26  1  0  0  0  0
  5 13  1  0  0  0  0
  5  6  1  0  0  0  0
  6  7  2  0  0  0  0
  6 10  1  0  0  0  0
  7  8  1  0  0  0  0
  7 27  1  0  0  0  0
  8  9  1  0  0  0  0
  9 28  1  0  0  0  0
  9 29  1  0  0  0  0
 10 11  2  0  0  0  0
 10 14  1  0  0  0  0
 11 12  1  0  0  0  0
 12 13  2  0  0  0  0
 12 30  1  0  0  0  0
 14 15  1  0  0  0  0
 14 31  1  0  0  0  0
 15 20  2  0  0  0  0
 15 16  1  0  0  0  0
 16 17  2  0  0  0  0
 16 32  1  0  0  0  0
 17 18  1  0  0  0  0
 17 33  1  0  0  0  0
 18 19  2  0  0  0  0
 18 34  1  0  0  0  0
 19 20  1  0  0  0  0
 19 21  1  0  0  0  0
 20 35  1  0  0  0  0
M  END
$$$$
ZINC02572485
  -OEChem-08230709403D

 42 44  0     0  0  0  0  0  0999 V2000
    7.0657    4.2294    0.4737 C   0  0  0  0  0  0  0  0  0  0  0  0
    5.8725    3.2858    0.3104 C   0  0  0  0  0  0  0  0  0  0  0  0
    4.6759    4.0526    0.1608 O   0  0  0  0  0  0  0  0  0  0  0  0
    3.5154    3.3614    0.0039 C   0  0  0  0  0  0  0  0  0  0  0  0
    3.5385    1.9956   -0.0045 C   0  0  0  0  0  0  0  0  0  0  0  0
    2.3443    1.2830   -0.1660 C   0  0  0  0  0  0  0  0  0  0  0  0
    1.1206    1.9806   -0.3200 C   0  0  0  0  0  0  0  0  0  0  0  0
    1.1201    3.3807   -0.3075 C   0  0  0  0  0  0  0  0  0  0  0  0
    2.3085    4.0583   -0.1471 C   0  0  0  0  0  0  0  0  0  0  0  0
    2.3110    5.4167   -0.1347 O   0  0  0  0  0  0  0  0  0  0  0  0
    1.0496    6.0693   -0.2931 C   0  0  0  0  0  0  0  0  0  0  0  0
    1.2511    7.5854   -0.2533 C   0  0  0  0  0  0  0  0  0  0  0  0
   -0.0100    1.2732   -0.4726 N   0  0  0  0  0  0  0  0  0  0  0  0
    0.0218   -0.0382   -0.4786 C   0  0  0  0  0  0  0  0  0  0  0  0
    1.1403   -0.7318   -0.3387 N   0  0  0  0  0  0  0  0  0  0  0  0
    2.3130   -0.1318   -0.1814 C   0  0  0  0  0  0  0  0  0  0  0  0
    3.4719   -0.8679   -0.0362 N   0  0  0  0  0  0  0  0  0  0  0  0
    3.4074   -2.2607    0.0624 C   0  0  0  0  0  0  0  0  0  0  0  0
    4.4332   -3.0433   -0.4528 C   0  0  0  0  0  0  0  0  0  0  0  0
    4.3671   -4.4190   -0.3535 C   0  0  0  0  0  0  0  0  0  0  0  0
    3.2815   -5.0185    0.2584 C   0  0  0  0  0  0  0  0  0  0  0  0
    2.2581   -4.2425    0.7730 C   0  0  0  0  0  0  0  0  0  0  0  0
    2.3205   -2.8649    0.6807 C   0  0  0  0  0  0  0  0  0  0  0  0
    0.7761   -5.0671    1.6093 Br  0  0  0  0  0  0  0  0  0  0  0  0
    7.9785    3.6446    0.5877 H   0  0  0  0  0  0  0  0  0  0  0  0
    7.1494    4.8653   -0.4077 H   0  0  0  0  0  0  0  0  0  0  0  0
    6.9194    4.8506    1.3573 H   0  0  0  0  0  0  0  0  0  0  0  0
    5.7888    2.6500    1.1917 H   0  0  0  0  0  0  0  0  0  0  0  0
    6.0188    2.6646   -0.5733 H   0  0  0  0  0  0  0  0  0  0  0  0
    4.4735    1.4680    0.1133 H   0  0  0  0  0  0  0  0  0  0  0  0
    0.1948    3.9253   -0.4232 H   0  0  0  0  0  0  0  0  0  0  0  0
    0.6117    5.7859   -1.2503 H   0  0  0  0  0  0  0  0  0  0  0  0
    0.3818    5.7702    0.5147 H   0  0  0  0  0  0  0  0  0  0  0  0
    1.9190    7.8845   -1.0612 H   0  0  0  0  0  0  0  0  0  0  0  0
    0.2890    8.0831   -0.3742 H   0  0  0  0  0  0  0  0  0  0  0  0
    1.6890    7.8687    0.7038 H   0  0  0  0  0  0  0  0  0  0  0  0
   -0.9064   -0.5760   -0.6035 H   0  0  0  0  0  0  0  0  0  0  0  0
    4.3309   -0.4186   -0.0026 H   0  0  0  0  0  0  0  0  0  0  0  0
    5.2815   -2.5761   -0.9308 H   0  0  0  0  0  0  0  0  0  0  0  0
    5.1645   -5.0276   -0.7539 H   0  0  0  0  0  0  0  0  0  0  0  0
    3.2325   -6.0947    0.3350 H   0  0  0  0  0  0  0  0  0  0  0  0
    1.5236   -2.2591    1.0862 H   0  0  0  0  0  0  0  0  0  0  0  0
  1  2  1  0  0  0  0
  1 25  1  0  0  0  0
  1 26  1  0  0  0  0
  1 27  1  0  0  0  0
  2  3  1  0  0  0  0
  2 28  1  0  0  0  0
  2 29  1  0  0  0  0
  3  4  1  0  0  0  0
  4  9  2  0  0  0  0
  4  5  1  0  0  0  0
  5  6  2  0  0  0  0
  5 30  1  0  0  0  0
  6 16  1  0  0  0  0
  6  7  1  0  0  0  0
  7  8  2  0  0  0  0
  7 13  1  0  0  0  0
  8  9  1  0  0  0  0
  8 31  1  0  0  0  0
  9 10  1  0  0  0  0
 10 11  1  0  0  0  0
 11 12  1  0  0  0  0
 11 32  1  0  0  0  0
 11 33  1  0  0  0  0
 12 34  1  0  0  0  0
 12 35  1  0  0  0  0
 12 36  1  0  0  0  0
 13 14  2  0  0  0  0
 14 15  1  0  0  0  0
 14 37  1  0  0  0  0
 15 16  2  0  0  0  0
 16 17  1  0  0  0  0
 17 18  1  0  0  0  0
 17 38  1  0  0  0  0
 18 23  2  0  0  0  0
 18 19  1  0  0  0  0
 19 20  2  0  0  0  0
 19 39  1  0  0  0  0
 20 21  1  0  0  0  0
 20 40  1  0  0  0  0
 21 22  2  0  0  0  0
 21 41  1  0  0  0  0
 22 23  1  0  0  0  0
 22 24  1  0  0  0  0
 23 42  1  0  0  0  0
M  END
$$$$
ZINC02640583
  -OEChem-08230709403D

 25 27  0     0  0  0  0  0  0999 V2000
   -1.1116    2.9174   -0.7433 C   0  0  0  0  0  0  0  0  0  0  0  0
    0.0726    3.6286   -0.7419 C   0  0  0  0  0  0  0  0  0  0  0  0
    1.1560    3.1698   -0.0036 C   0  0  0  0  0  0  0  0  0  0  0  0
    1.0449    1.9964    0.7315 C   0  0  0  0  0  0  0  0  0  0  0  0
   -0.1423    1.2896    0.7260 C   0  0  0  0  0  0  0  0  0  0  0  0
   -1.2215    1.7529   -0.0063 C   0  0  0  0  0  0  0  0  0  0  0  0
   -0.2955   -0.3077    1.7267 Br  0  0  0  0  0  0  0  0  0  0  0  0
    2.3553    3.8876   -0.0000 N   0  0  0  0  0  0  0  0  0  0  0  0
    2.3359    5.2683   -0.0969 C   0  0  0  0  0  0  0  0  0  0  0  0
    3.5506    5.9991   -0.2126 C   0  0  0  0  0  0  0  0  0  0  0  0
    4.9217    5.5220   -0.2500 C   0  0  0  0  0  0  0  0  0  0  0  0
    5.9210    6.4093   -0.3647 C   0  0  0  0  0  0  0  0  0  0  0  0
    5.0785    7.9791   -0.4321 S   0  0  0  0  0  0  0  0  0  0  0  0
    3.4070    7.4010   -0.3045 C   0  0  0  0  0  0  0  0  0  0  0  0
    2.2194    7.9732   -0.2830 N   0  0  0  0  0  0  0  0  0  0  0  0
    1.1278    7.2412   -0.1741 C   0  0  0  0  0  0  0  0  0  0  0  0
    1.1868    5.9242   -0.0885 N   0  0  0  0  0  0  0  0  0  0  0  0
   -1.9541    3.2739   -1.3173 H   0  0  0  0  0  0  0  0  0  0  0  0
    0.1561    4.5403   -1.3147 H   0  0  0  0  0  0  0  0  0  0  0  0
    1.8853    1.6372    1.3069 H   0  0  0  0  0  0  0  0  0  0  0  0
   -2.1500    1.2014   -0.0053 H   0  0  0  0  0  0  0  0  0  0  0  0
    3.2013    3.4182    0.0704 H   0  0  0  0  0  0  0  0  0  0  0  0
    5.1343    4.4650   -0.1858 H   0  0  0  0  0  0  0  0  0  0  0  0
    6.9832    6.2183   -0.4063 H   0  0  0  0  0  0  0  0  0  0  0  0
    0.1643    7.7288   -0.1584 H   0  0  0  0  0  0  0  0  0  0  0  0
  1  6  2  0  0  0  0
  1  2  1  0  0  0  0
  1 18  1  0  0  0  0
  2  3  2  0  0  0  0
  2 19  1  0  0  0  0
  3  4  1  0  0  0  0
  3  8  1  0  0  0  0
  4  5  2  0  0  0  0
  4 20  1  0  0  0  0
  5  6  1  0  0  0  0
  5  7  1  0  0  0  0
  6 21  1  0  0  0  0
  8  9  1  0  0  0  0
  8 22  1  0  0  0  0
  9 17  2  0  0  0  0
  9 10  1  0  0  0  0
 10 14  2  0  0  0  0
 10 11  1  0  0  0  0
 11 12  2  0  0  0  0
 11 23  1  0  0  0  0
 12 13  1  0  0  0  0
 12 24  1  0  0  0  0
 13 14  1  0  0  0  0
 14 15  1  0  0  0  0
 15 16  2  0  0  0  0
 16 17  1  0  0  0  0
 16 25  1  0  0  0  0
M  END
$$$$
ZINC03813424
  -OEChem-08230709403D

 33 35  0     0  0  0  0  0  0999 V2000
   -3.6357   -2.0147   -0.3098 C   0  0  0  0  0  0  0  0  0  0  0  0
   -3.5888   -0.5619   -0.1270 N   0  0  0  0  0  0  0  0  0  0  0  0
   -2.3630    0.0818    0.0237 C   0  0  0  0  0  0  0  0  0  0  0  0
   -1.1975   -0.6654   -0.0016 C   0  0  0  0  0  0  0  0  0  0  0  0
    0.0199    0.0007    0.1514 C   0  0  0  0  0  0  0  0  0  0  0  0
    0.0114    1.4088    0.3255 C   0  0  0  0  0  0  0  0  0  0  0  0
   -1.2200    2.0755    0.3424 C   0  0  0  0  0  0  0  0  0  0  0  0
    1.1832    2.0418    0.4722 N   0  0  0  0  0  0  0  0  0  0  0  0
    2.3130    1.3791    0.4558 C   0  0  0  0  0  0  0  0  0  0  0  0
    2.3968    0.0675    0.2981 N   0  0  0  0  0  0  0  0  0  0  0  0
    1.3108   -0.6806    0.1421 C   0  0  0  0  0  0  0  0  0  0  0  0
    1.3992   -2.0476   -0.0228 N   0  0  0  0  0  0  0  0  0  0  0  0
    2.6510   -2.6575   -0.1435 C   0  0  0  0  0  0  0  0  0  0  0  0
    2.8501   -3.9416    0.3485 C   0  0  0  0  0  0  0  0  0  0  0  0
    4.0878   -4.5418    0.2275 C   0  0  0  0  0  0  0  0  0  0  0  0
    5.1289   -3.8668   -0.3832 C   0  0  0  0  0  0  0  0  0  0  0  0
    4.9344   -2.5882   -0.8748 C   0  0  0  0  0  0  0  0  0  0  0  0
    3.6967   -1.9836   -0.7606 C   0  0  0  0  0  0  0  0  0  0  0  0
    6.3609   -1.6700   -1.7100 Br  0  0  0  0  0  0  0  0  0  0  0  0
   -4.6728   -2.3350   -0.4095 H   0  0  0  0  0  0  0  0  0  0  0  0
   -3.0837   -2.2856   -1.2098 H   0  0  0  0  0  0  0  0  0  0  0  0
   -3.1856   -2.5043    0.5537 H   0  0  0  0  0  0  0  0  0  0  0  0
   -4.4115   -0.0483   -0.1109 H   0  0  0  0  0  0  0  0  0  0  0  0
   -1.2293   -1.7366   -0.1359 H   0  0  0  0  0  0  0  0  0  0  0  0
   -1.2516    3.1470    0.4735 H   0  0  0  0  0  0  0  0  0  0  0  0
    3.2304    1.9358    0.5779 H   0  0  0  0  0  0  0  0  0  0  0  0
    0.5925   -2.5854   -0.0548 H   0  0  0  0  0  0  0  0  0  0  0  0
    2.0377   -4.4696    0.8256 H   0  0  0  0  0  0  0  0  0  0  0  0
    4.2428   -5.5399    0.6098 H   0  0  0  0  0  0  0  0  0  0  0  0
    6.0958   -4.3388   -0.4768 H   0  0  0  0  0  0  0  0  0  0  0  0
    3.5441   -0.9870   -1.1477 H   0  0  0  0  0  0  0  0  0  0  0  0
   -2.4116    1.4433    0.1898 N   0  3  0  0  0  0  0  0  0  0  0  0
   -3.3012    1.9560    0.1983 H   0  0  0  0  0  0  0  0  0  0  0  0
  1  2  1  0  0  0  0
  1 20  1  0  0  0  0
  1 21  1  0  0  0  0
  1 22  1  0  0  0  0
  2  3  1  0  0  0  0
  2 23  1  0  0  0  0
  3  4  2  0  0  0  0
  3 32  1  0  0  0  0
  4  5  1  0  0  0  0
  4 24  1  0  0  0  0
  5 11  2  0  0  0  0
  5  6  1  0  0  0  0
  6  7  1  0  0  0  0
  6  8  2  0  0  0  0
  7 25  1  0  0  0  0
  7 32  2  0  0  0  0
  8  9  1  0  0  0  0
  9 10  2  0  0  0  0
  9 26  1  0  0  0  0
 10 11  1  0  0  0  0
 11 12  1  0  0  0  0
 12 13  1  0  0  0  0
 12 27  1  0  0  0  0
 13 18  2  0  0  0  0
 13 14  1  0  0  0  0
 14 15  2  0  0  0  0
 14 28  1  0  0  0  0
 15 16  1  0  0  0  0
 15 29  1  0  0  0  0
 16 17  2  0  0  0  0
 16 30  1  0  0  0  0
 17 18  1  0  0  0  0
 17 19  1  0  0  0  0
 18 31  1  0  0  0  0
 32 33  1  0  0  0  0
M  CHG  1  32   1
M  END
$$$$
ZINC03813425
  -OEChem-08230709403D

 30 32  0     0  0  0  0  0  0999 V2000
    7.1303    4.3723    0.2470 C   0  0  0  0  0  0  0  0  0  0  0  0
    5.9589    3.6492    0.3605 C   0  0  0  0  0  0  0  0  0  0  0  0
    4.7694    4.1752   -0.1272 C   0  0  0  0  0  0  0  0  0  0  0  0
    4.7629    5.4253   -0.7329 C   0  0  0  0  0  0  0  0  0  0  0  0
    5.9370    6.1460   -0.8386 C   0  0  0  0  0  0  0  0  0  0  0  0
    7.1203    5.6185   -0.3515 C   0  0  0  0  0  0  0  0  0  0  0  0
    5.9288    7.8507   -1.6570 Br  0  0  0  0  0  0  0  0  0  0  0  0
    3.5826    3.4458   -0.0137 N   0  0  0  0  0  0  0  0  0  0  0  0
    2.3813    4.1044    0.1608 C   0  0  0  0  0  0  0  0  0  0  0  0
    1.1545    3.3923    0.1612 C   0  0  0  0  0  0  0  0  0  0  0  0
   -0.0379    4.1291    0.3456 C   0  0  0  0  0  0  0  0  0  0  0  0
   -1.2690    3.4473    0.3498 C   0  0  0  0  0  0  0  0  0  0  0  0
   -1.2576    2.0956    0.1691 C   0  0  0  0  0  0  0  0  0  0  0  0
   -0.0393    1.4238   -0.0035 C   0  0  0  0  0  0  0  0  0  0  0  0
   -0.0426    0.0470   -0.1814 N   0  0  0  0  0  0  0  0  0  0  0  0
    0.0380    5.4565    0.5109 N   0  0  0  0  0  0  0  0  0  0  0  0
    1.2015    6.0626    0.5015 C   0  0  0  0  0  0  0  0  0  0  0  0
    2.3450    5.4178    0.3322 N   0  0  0  0  0  0  0  0  0  0  0  0
    8.0553    3.9635    0.6261 H   0  0  0  0  0  0  0  0  0  0  0  0
    5.9678    2.6758    0.8282 H   0  0  0  0  0  0  0  0  0  0  0  0
    3.8405    5.8351   -1.1174 H   0  0  0  0  0  0  0  0  0  0  0  0
    8.0377    6.1814   -0.4395 H   0  0  0  0  0  0  0  0  0  0  0  0
    3.6027    2.4770   -0.0576 H   0  0  0  0  0  0  0  0  0  0  0  0
   -2.1979    3.9806    0.4882 H   0  0  0  0  0  0  0  0  0  0  0  0
   -2.1855    1.5430    0.1627 H   0  0  0  0  0  0  0  0  0  0  0  0
    0.7939   -0.4279   -0.3057 H   0  0  0  0  0  0  0  0  0  0  0  0
   -0.8815   -0.4400   -0.1815 H   0  0  0  0  0  0  0  0  0  0  0  0
    1.2274    7.1337    0.6375 H   0  0  0  0  0  0  0  0  0  0  0  0
    1.1732    2.0325   -0.0157 N   0  3  0  0  0  0  0  0  0  0  0  0
    2.0469    1.5097   -0.1486 H   0  0  0  0  0  0  0  0  0  0  0  0
  1  6  2  0  0  0  0
  1  2  1  0  0  0  0
  1 19  1  0  0  0  0
  2  3  2  0  0  0  0
  2 20  1  0  0  0  0
  3  4  1  0  0  0  0
  3  8  1  0  0  0  0
  4  5  2  0  0  0  0
  4 21  1  0  0  0  0
  5  6  1  0  0  0  0
  5  7  1  0  0  0  0
  6 22  1  0  0  0  0
  8  9  1  0  0  0  0
  8 23  1  0  0  0  0
  9 18  2  0  0  0  0
  9 10  1  0  0  0  0
 10 11  2  0  0  0  0
 10 29  1  0  0  0  0
 11 12  1  0  0  0  0
 11 16  1  0  0  0  0
 12 13  2  0  0  0  0
 12 24  1  0  0  0  0
 13 14  1  0  0  0  0
 13 25  1  0  0  0  0
 14 15  1  0  0  0  0
 14 29  2  0  0  0  0
 15 26  1  0  0  0  0
 15 27  1  0  0  0  0
 16 17  2  0  0  0  0
 17 18  1  0  0  0  0
 17 28  1  0  0  0  0
 29 30  1  0  0  0  0
M  CHG  1  29   1
M  END
$$$$
ZINC03813428
  -OEChem-08230709403D

 32 34  0     0  0  0  0  0  0999 V2000
    0.9252    1.7800    0.7725 C   0  0  0  0  0  0  0  0  0  0  0  0
    0.9099    3.1612    0.7706 C   0  0  0  0  0  0  0  0  0  0  0  0
   -0.0510    3.8425    0.0349 C   0  0  0  0  0  0  0  0  0  0  0  0
   -0.9941    3.1317   -0.6970 C   0  0  0  0  0  0  0  0  0  0  0  0
   -0.9696    1.7511   -0.6953 C   0  0  0  0  0  0  0  0  0  0  0  0
   -0.0148    1.0757    0.0430 C   0  0  0  0  0  0  0  0  0  0  0  0
   -1.9702    0.9930   -1.4796 N   0  3  0  0  0  0  0  0  0  0  0  0
   -1.9524   -0.2248   -1.4745 O   0  0  0  0  0  0  0  0  0  0  0  0
   -2.8114    1.5871   -2.1300 O   0  5  0  0  0  0  0  0  0  0  0  0
   -0.0691    5.2402    0.0304 N   0  0  0  0  0  0  0  0  0  0  0  0
    1.1117    5.9451    0.1265 C   0  0  0  0  0  0  0  0  0  0  0  0
    1.1103    7.3546    0.2412 C   0  0  0  0  0  0  0  0  0  0  0  0
   -0.0648    8.1097    0.2637 C   0  0  0  0  0  0  0  0  0  0  0  0
    1.1495   10.0766    0.4630 C   0  0  0  0  0  0  0  0  0  0  0  0
    2.3635    9.4144    0.4494 C   0  0  0  0  0  0  0  0  0  0  0  0
    2.3619    8.0195    0.3363 C   0  0  0  0  0  0  0  0  0  0  0  0
    3.4850    7.2911    0.3138 N   0  0  0  0  0  0  0  0  0  0  0  0
    3.4244    5.9835    0.2054 C   0  0  0  0  0  0  0  0  0  0  0  0
    2.2832    5.3196    0.1196 N   0  0  0  0  0  0  0  0  0  0  0  0
    1.1333   11.4608    0.5751 N   0  0  0  0  0  0  0  0  0  0  0  0
    1.6724    1.2496    1.3441 H   0  0  0  0  0  0  0  0  0  0  0  0
    1.6442    3.7107    1.3409 H   0  0  0  0  0  0  0  0  0  0  0  0
   -1.7427    3.6585   -1.2702 H   0  0  0  0  0  0  0  0  0  0  0  0
   -0.0007   -0.0042    0.0462 H   0  0  0  0  0  0  0  0  0  0  0  0
   -0.9124    5.7142   -0.0403 H   0  0  0  0  0  0  0  0  0  0  0  0
   -1.0238    7.6181    0.1927 H   0  0  0  0  0  0  0  0  0  0  0  0
    3.2918    9.9614    0.5239 H   0  0  0  0  0  0  0  0  0  0  0  0
    4.3482    5.4243    0.1906 H   0  0  0  0  0  0  0  0  0  0  0  0
    0.2881   11.9367    0.5862 H   0  0  0  0  0  0  0  0  0  0  0  0
    1.9672   11.9517    0.6424 H   0  0  0  0  0  0  0  0  0  0  0  0
   -0.0767    9.4628    0.3730 N   0  3  0  0  0  0  0  0  0  0  0  0
   -0.9530    9.9977    0.3876 H   0  0  0  0  0  0  0  0  0  0  0  0
  1  6  2  0  0  0  0
  1  2  1  0  0  0  0
  1 21  1  0  0  0  0
  2  3  2  0  0  0  0
  2 22  1  0  0  0  0
  3  4  1  0  0  0  0
  3 10  1  0  0  0  0
  4  5  2  0  0  0  0
  4 23  1  0  0  0  0
  5  6  1  0  0  0  0
  5  7  1  0  0  0  0
  6 24  1  0  0  0  0
  7  8  2  0  0  0  0
  7  9  1  0  0  0  0
 10 11  1  0  0  0  0
 10 25  1  0  0  0  0
 11 19  2  0  0  0  0
 11 12  1  0  0  0  0
 12 16  2  0  0  0  0
 12 13  1  0  0  0  0
 13 26  1  0  0  0  0
 13 31  2  0  0  0  0
 14 15  2  0  0  0  0
 14 20  1  0  0  0  0
 14 31  1  0  0  0  0
 15 16  1  0  0  0  0
 15 27  1  0  0  0  0
 16 17  1  0  0  0  0
 17 18  2  0  0  0  0
 18 19  1  0  0  0  0
 18 28  1  0  0  0  0
 20 29  1  0  0  0  0
 20 30  1  0  0  0  0
 31 32  1  0  0  0  0
M  CHG  3   7   1   9  -1  31   1
M  END
$$$$
ZINC03813429
  -OEChem-08230709403D

 30 32  0     0  0  0  0  0  0999 V2000
    2.1577    5.6966    0.3942 C   0  0  0  0  0  0  0  0  0  0  0  0
    2.2603    4.3225    0.4909 C   0  0  0  0  0  0  0  0  0  0  0  0
    3.3215    3.6622   -0.1150 C   0  0  0  0  0  0  0  0  0  0  0  0
    4.2797    4.3869   -0.8123 C   0  0  0  0  0  0  0  0  0  0  0  0
    4.1688    5.7608   -0.9094 C   0  0  0  0  0  0  0  0  0  0  0  0
    3.1100    6.4152   -0.3043 C   0  0  0  0  0  0  0  0  0  0  0  0
    5.4687    6.7483   -1.8638 Br  0  0  0  0  0  0  0  0  0  0  0  0
    3.4281    2.2717   -0.0184 N   0  0  0  0  0  0  0  0  0  0  0  0
    2.2914    1.4919   -0.0144 C   0  0  0  0  0  0  0  0  0  0  0  0
    2.3671    0.0967    0.2035 C   0  0  0  0  0  0  0  0  0  0  0  0
    3.5751   -0.5691    0.4250 C   0  0  0  0  0  0  0  0  0  0  0  0
    2.4717   -2.6006    0.6204 C   0  0  0  0  0  0  0  0  0  0  0  0
    1.2299   -2.0296    0.4098 C   0  0  0  0  0  0  0  0  0  0  0  0
    1.1580   -0.6486    0.1945 C   0  0  0  0  0  0  0  0  0  0  0  0
    0.0031   -0.0057   -0.0186 N   0  0  0  0  0  0  0  0  0  0  0  0
   -0.0056    1.2929   -0.2155 C   0  0  0  0  0  0  0  0  0  0  0  0
    1.0937    2.0290   -0.2163 N   0  0  0  0  0  0  0  0  0  0  0  0
    2.5608   -3.9699    0.8351 N   0  0  0  0  0  0  0  0  0  0  0  0
    1.3327    6.2103    0.8653 H   0  0  0  0  0  0  0  0  0  0  0  0
    1.5159    3.7620    1.0368 H   0  0  0  0  0  0  0  0  0  0  0  0
    5.1084    3.8769   -1.2807 H   0  0  0  0  0  0  0  0  0  0  0  0
    3.0277    7.4896   -0.3778 H   0  0  0  0  0  0  0  0  0  0  0  0
    4.3020    1.8556    0.0458 H   0  0  0  0  0  0  0  0  0  0  0  0
    4.5026   -0.0158    0.4344 H   0  0  0  0  0  0  0  0  0  0  0  0
    0.3359   -2.6355    0.4117 H   0  0  0  0  0  0  0  0  0  0  0  0
   -0.9530    1.7814   -0.3892 H   0  0  0  0  0  0  0  0  0  0  0  0
    1.7578   -4.5139    0.8361 H   0  0  0  0  0  0  0  0  0  0  0  0
    3.4261   -4.3821    0.9840 H   0  0  0  0  0  0  0  0  0  0  0  0
    3.6583   -1.9077    0.6351 N   0  3  0  0  0  0  0  0  0  0  0  0
    4.5576   -2.3762    0.7959 H   0  0  0  0  0  0  0  0  0  0  0  0
  1  6  2  0  0  0  0
  1  2  1  0  0  0  0
  1 19  1  0  0  0  0
  2  3  2  0  0  0  0
  2 20  1  0  0  0  0
  3  4  1  0  0  0  0
  3  8  1  0  0  0  0
  4  5  2  0  0  0  0
  4 21  1  0  0  0  0
  5  6  1  0  0  0  0
  5  7  1  0  0  0  0
  6 22  1  0  0  0  0
  8  9  1  0  0  0  0
  8 23  1  0  0  0  0
  9 17  2  0  0  0  0
  9 10  1  0  0  0  0
 10 14  2  0  0  0  0
 10 11  1  0  0  0  0
 11 24  1  0  0  0  0
 11 29  2  0  0  0  0
 12 13  2  0  0  0  0
 12 18  1  0  0  0  0
 12 29  1  0  0  0  0
 13 14  1  0  0  0  0
 13 25  1  0  0  0  0
 14 15  1  0  0  0  0
 15 16  2  0  0  0  0
 16 17  1  0  0  0  0
 16 26  1  0  0  0  0
 18 27  1  0  0  0  0
 18 28  1  0  0  0  0
 29 30  1  0  0  0  0
M  CHG  1  29   1
M  END
$$$$
ZINC03813430
  -OEChem-08230709403D

 30 32  0     0  0  0  0  0  0999 V2000
   -4.7744    3.3951   -0.7292 C   0  0  0  0  0  0  0  0  0  0  0  0
   -5.9293    2.6442   -0.8283 C   0  0  0  0  0  0  0  0  0  0  0  0
   -5.9944    1.3922   -0.2429 C   0  0  0  0  0  0  0  0  0  0  0  0
   -4.9013    0.8862    0.4379 C   0  0  0  0  0  0  0  0  0  0  0  0
   -3.7419    1.6301    0.5354 C   0  0  0  0  0  0  0  0  0  0  0  0
   -3.6738    2.8875   -0.0509 C   0  0  0  0  0  0  0  0  0  0  0  0
   -2.5013    3.6432    0.0466 N   0  0  0  0  0  0  0  0  0  0  0  0
   -1.2741    3.0157    0.0364 C   0  0  0  0  0  0  0  0  0  0  0  0
   -0.0823    3.7450    0.2551 C   0  0  0  0  0  0  0  0  0  0  0  0
   -0.0714    5.1219    0.4905 C   0  0  0  0  0  0  0  0  0  0  0  0
    2.2415    5.1180    0.6729 C   0  0  0  0  0  0  0  0  0  0  0  0
    2.3301    3.7565    0.4474 C   0  0  0  0  0  0  0  0  0  0  0  0
    1.1491    3.0374    0.2315 C   0  0  0  0  0  0  0  0  0  0  0  0
    1.1331    1.7181    0.0041 N   0  0  0  0  0  0  0  0  0  0  0  0
   -0.0055    1.0937   -0.1933 C   0  0  0  0  0  0  0  0  0  0  0  0
   -1.1761    1.7101   -0.1861 N   0  0  0  0  0  0  0  0  0  0  0  0
    3.4040    5.8467    0.8890 N   0  0  0  0  0  0  0  0  0  0  0  0
   -7.5802    0.3705   -0.3741 Br  0  0  0  0  0  0  0  0  0  0  0  0
   -4.7257    4.3741   -1.1826 H   0  0  0  0  0  0  0  0  0  0  0  0
   -6.7838    3.0364   -1.3598 H   0  0  0  0  0  0  0  0  0  0  0  0
   -4.9548   -0.0917    0.8933 H   0  0  0  0  0  0  0  0  0  0  0  0
   -2.8889    1.2345    1.0667 H   0  0  0  0  0  0  0  0  0  0  0  0
   -2.5517    4.6090    0.1213 H   0  0  0  0  0  0  0  0  0  0  0  0
   -0.9997    5.6735    0.5107 H   0  0  0  0  0  0  0  0  0  0  0  0
    3.2888    3.2595    0.4386 H   0  0  0  0  0  0  0  0  0  0  0  0
    0.0152    0.0291   -0.3741 H   0  0  0  0  0  0  0  0  0  0  0  0
    4.2650    5.4000    0.8806 H   0  0  0  0  0  0  0  0  0  0  0  0
    3.3549    6.8023    1.0482 H   0  0  0  0  0  0  0  0  0  0  0  0
    1.0670    5.8308    0.7014 N   0  3  0  0  0  0  0  0  0  0  0  0
    1.0513    6.8430    0.8727 H   0  0  0  0  0  0  0  0  0  0  0  0
  1  6  2  0  0  0  0
  1  2  1  0  0  0  0
  1 19  1  0  0  0  0
  2  3  2  0  0  0  0
  2 20  1  0  0  0  0
  3  4  1  0  0  0  0
  3 18  1  0  0  0  0
  4  5  2  0  0  0  0
  4 21  1  0  0  0  0
  5  6  1  0  0  0  0
  5 22  1  0  0  0  0
  6  7  1  0  0  0  0
  7  8  1  0  0  0  0
  7 23  1  0  0  0  0
  8 16  2  0  0  0  0
  8  9  1  0  0  0  0
  9 13  2  0  0  0  0
  9 10  1  0  0  0  0
 10 24  1  0  0  0  0
 10 29  2  0  0  0  0
 11 12  2  0  0  0  0
 11 17  1  0  0  0  0
 11 29  1  0  0  0  0
 12 13  1  0  0  0  0
 12 25  1  0  0  0  0
 13 14  1  0  0  0  0
 14 15  2  0  0  0  0
 15 16  1  0  0  0  0
 15 26  1  0  0  0  0
 17 27  1  0  0  0  0
 17 28  1  0  0  0  0
 29 30  1  0  0  0  0
M  CHG  1  29   1
M  END
$$$$
ZINC03813431
  -OEChem-08230709403D

 33 35  0     0  0  0  0  0  0999 V2000
    0.9254    1.7805    0.7726 C   0  0  0  0  0  0  0  0  0  0  0  0
   -0.0148    1.0758    0.0430 C   0  0  0  0  0  0  0  0  0  0  0  0
   -0.9695    1.7507   -0.6951 C   0  0  0  0  0  0  0  0  0  0  0  0
   -0.9937    3.1317   -0.6976 C   0  0  0  0  0  0  0  0  0  0  0  0
   -0.0510    3.8425    0.0340 C   0  0  0  0  0  0  0  0  0  0  0  0
    0.9101    3.1612    0.7703 C   0  0  0  0  0  0  0  0  0  0  0  0
   -0.0691    5.2403    0.0290 N   0  0  0  0  0  0  0  0  0  0  0  0
    1.1117    5.9451    0.1251 C   0  0  0  0  0  0  0  0  0  0  0  0
    1.1103    7.3546    0.2393 C   0  0  0  0  0  0  0  0  0  0  0  0
   -0.0648    8.1098    0.2609 C   0  0  0  0  0  0  0  0  0  0  0  0
    1.1495   10.0767    0.4608 C   0  0  0  0  0  0  0  0  0  0  0  0
    2.3634    9.4145    0.4477 C   0  0  0  0  0  0  0  0  0  0  0  0
    2.3618    8.0195    0.3350 C   0  0  0  0  0  0  0  0  0  0  0  0
    3.4849    7.2911    0.3135 N   0  0  0  0  0  0  0  0  0  0  0  0
    3.4243    5.9835    0.2055 C   0  0  0  0  0  0  0  0  0  0  0  0
    2.2832    5.3197    0.1187 N   0  0  0  0  0  0  0  0  0  0  0  0
    1.1332   11.4609    0.5729 N   0  0  0  0  0  0  0  0  0  0  0  0
   -1.9881    0.9786   -1.4935 C   0  0  0  0  0  0  0  0  0  0  0  0
   -1.7660   -0.3930   -1.3307 F   0  0  0  0  0  0  0  0  0  0  0  0
   -3.2735    1.2994   -1.0441 F   0  0  0  0  0  0  0  0  0  0  0  0
   -1.8703    1.3127   -2.8469 F   0  0  0  0  0  0  0  0  0  0  0  0
    1.6725    1.2503    1.3445 H   0  0  0  0  0  0  0  0  0  0  0  0
   -0.0004   -0.0041    0.0463 H   0  0  0  0  0  0  0  0  0  0  0  0
   -1.7420    3.6583   -1.2713 H   0  0  0  0  0  0  0  0  0  0  0  0
    1.6443    3.7110    1.3405 H   0  0  0  0  0  0  0  0  0  0  0  0
   -0.9124    5.7142   -0.0420 H   0  0  0  0  0  0  0  0  0  0  0  0
   -1.0238    7.6183    0.1890 H   0  0  0  0  0  0  0  0  0  0  0  0
    3.2917    9.9614    0.5226 H   0  0  0  0  0  0  0  0  0  0  0  0
    4.3482    5.4242    0.1914 H   0  0  0  0  0  0  0  0  0  0  0  0
    0.2880   11.9368    0.5835 H   0  0  0  0  0  0  0  0  0  0  0  0
    1.9671   11.9518    0.6405 H   0  0  0  0  0  0  0  0  0  0  0  0
   -0.0767    9.4629    0.3702 N   0  3  0  0  0  0  0  0  0  0  0  0
   -0.9530    9.9978    0.3843 H   0  0  0  0  0  0  0  0  0  0  0  0
  1  6  2  0  0  0  0
  1  2  1  0  0  0  0
  1 22  1  0  0  0  0
  2  3  2  0  0  0  0
  2 23  1  0  0  0  0
  3  4  1  0  0  0  0
  3 18  1  0  0  0  0
  4  5  2  0  0  0  0
  4 24  1  0  0  0  0
  5  6  1  0  0  0  0
  5  7  1  0  0  0  0
  6 25  1  0  0  0  0
  7  8  1  0  0  0  0
  7 26  1  0  0  0  0
  8 16  2  0  0  0  0
  8  9  1  0  0  0  0
  9 13  2  0  0  0  0
  9 10  1  0  0  0  0
 10 27  1  0  0  0  0
 10 32  2  0  0  0  0
 11 12  2  0  0  0  0
 11 17  1  0  0  0  0
 11 32  1  0  0  0  0
 12 13  1  0  0  0  0
 12 28  1  0  0  0  0
 13 14  1  0  0  0  0
 14 15  2  0  0  0  0
 15 16  1  0  0  0  0
 15 29  1  0  0  0  0
 17 30  1  0  0  0  0
 17 31  1  0  0  0  0
 18 19  1  0  0  0  0
 18 20  1  0  0  0  0
 18 21  1  0  0  0  0
 32 33  1  0  0  0  0
M  CHG  1  32   1
M  END
$$$$
ZINC03813434
  -OEChem-08230709403D

 36 38  0     0  0  0  0  0  0999 V2000
   -3.6443   -2.0240   -0.1999 C   0  0  0  0  0  0  0  0  0  0  0  0
   -3.5888   -0.5619   -0.1270 N   0  0  0  0  0  0  0  0  0  0  0  0
   -4.8227    0.2232   -0.2126 C   0  0  0  0  0  0  0  0  0  0  0  0
   -2.3630    0.0818    0.0237 C   0  0  0  0  0  0  0  0  0  0  0  0
   -1.1975   -0.6654   -0.0016 C   0  0  0  0  0  0  0  0  0  0  0  0
    0.0199    0.0007    0.1514 C   0  0  0  0  0  0  0  0  0  0  0  0
    0.0114    1.4088    0.3255 C   0  0  0  0  0  0  0  0  0  0  0  0
   -1.2200    2.0755    0.3424 C   0  0  0  0  0  0  0  0  0  0  0  0
    1.1832    2.0418    0.4722 N   0  0  0  0  0  0  0  0  0  0  0  0
    2.3130    1.3791    0.4558 C   0  0  0  0  0  0  0  0  0  0  0  0
    2.3968    0.0675    0.2981 N   0  0  0  0  0  0  0  0  0  0  0  0
    1.3108   -0.6806    0.1421 C   0  0  0  0  0  0  0  0  0  0  0  0
    1.3992   -2.0476   -0.0228 N   0  0  0  0  0  0  0  0  0  0  0  0
    2.6510   -2.6575   -0.1435 C   0  0  0  0  0  0  0  0  0  0  0  0
    2.8501   -3.9416    0.3485 C   0  0  0  0  0  0  0  0  0  0  0  0
    4.0878   -4.5418    0.2275 C   0  0  0  0  0  0  0  0  0  0  0  0
    5.1289   -3.8668   -0.3832 C   0  0  0  0  0  0  0  0  0  0  0  0
    4.9344   -2.5882   -0.8748 C   0  0  0  0  0  0  0  0  0  0  0  0
    3.6967   -1.9836   -0.7606 C   0  0  0  0  0  0  0  0  0  0  0  0
    6.3609   -1.6700   -1.7100 Br  0  0  0  0  0  0  0  0  0  0  0  0
   -3.7590   -2.4337    0.8036 H   0  0  0  0  0  0  0  0  0  0  0  0
   -4.4927   -2.3252   -0.8144 H   0  0  0  0  0  0  0  0  0  0  0  0
   -2.7226   -2.4010   -0.6432 H   0  0  0  0  0  0  0  0  0  0  0  0
   -5.0279    0.4650   -1.2554 H   0  0  0  0  0  0  0  0  0  0  0  0
   -5.6509   -0.3559    0.1958 H   0  0  0  0  0  0  0  0  0  0  0  0
   -4.7074    1.1446    0.3582 H   0  0  0  0  0  0  0  0  0  0  0  0
   -1.2293   -1.7366   -0.1359 H   0  0  0  0  0  0  0  0  0  0  0  0
   -1.2516    3.1470    0.4735 H   0  0  0  0  0  0  0  0  0  0  0  0
    3.2304    1.9358    0.5779 H   0  0  0  0  0  0  0  0  0  0  0  0
    0.5925   -2.5854   -0.0548 H   0  0  0  0  0  0  0  0  0  0  0  0
    2.0377   -4.4696    0.8256 H   0  0  0  0  0  0  0  0  0  0  0  0
    4.2428   -5.5399    0.6098 H   0  0  0  0  0  0  0  0  0  0  0  0
    6.0958   -4.3388   -0.4768 H   0  0  0  0  0  0  0  0  0  0  0  0
    3.5441   -0.9870   -1.1477 H   0  0  0  0  0  0  0  0  0  0  0  0
   -2.4116    1.4433    0.1898 N   0  3  0  0  0  0  0  0  0  0  0  0
   -3.3012    1.9560    0.1983 H   0  0  0  0  0  0  0  0  0  0  0  0
  1  2  1  0  0  0  0
  1 21  1  0  0  0  0
  1 22  1  0  0  0  0
  1 23  1  0  0  0  0
  2  3  1  0  0  0  0
  2  4  1  0  0  0  0
  3 24  1  0  0  0  0
  3 25  1  0  0  0  0
  3 26  1  0  0  0  0
  4  5  2  0  0  0  0
  4 35  1  0  0  0  0
  5  6  1  0  0  0  0
  5 27  1  0  0  0  0
  6 12  2  0  0  0  0
  6  7  1  0  0  0  0
  7  8  1  0  0  0  0
  7  9  2  0  0  0  0
  8 28  1  0  0  0  0
  8 35  2  0  0  0  0
  9 10  1  0  0  0  0
 10 11  2  0  0  0  0
 10 29  1  0  0  0  0
 11 12  1  0  0  0  0
 12 13  1  0  0  0  0
 13 14  1  0  0  0  0
 13 30  1  0  0  0  0
 14 19  2  0  0  0  0
 14 15  1  0  0  0  0
 15 16  2  0  0  0  0
 15 31  1  0  0  0  0
 16 17  1  0  0  0  0
 16 32  1  0  0  0  0
 17 18  2  0  0  0  0
 17 33  1  0  0  0  0
 18 19  1  0  0  0  0
 18 20  1  0  0  0  0
 19 34  1  0  0  0  0
 35 36  1  0  0  0  0
M  CHG  1  35   1
M  END
$$$$
ZINC03815025
  -OEChem-08230709403D

 34 37  0     0  0  0  0  0  0999 V2000
   -0.0663    1.1364   -0.1563 C   0  0  0  0  0  0  0  0  0  0  0  0
   -1.2793    1.8020    0.0186 C   0  0  0  0  0  0  0  0  0  0  0  0
   -1.3365    3.1476    0.1927 C   0  0  0  0  0  0  0  0  0  0  0  0
   -0.1441    3.9014    0.1873 C   0  0  0  0  0  0  0  0  0  0  0  0
   -0.1679    5.2872    0.3587 C   0  0  0  0  0  0  0  0  0  0  0  0
    1.0255    5.9974    0.3485 C   0  0  0  0  0  0  0  0  0  0  0  0
    2.2992    5.2944    0.1588 C   0  0  0  0  0  0  0  0  0  0  0  0
    2.3291    3.9194   -0.0119 C   0  0  0  0  0  0  0  0  0  0  0  0
    1.1300    3.2023   -0.0020 C   0  0  0  0  0  0  0  0  0  0  0  0
    1.1173    1.8023   -0.1718 C   0  0  0  0  0  0  0  0  0  0  0  0
    3.5194    6.1063    0.1594 C   0  0  0  0  0  0  0  0  0  0  0  0
    3.3813    7.4145    0.3311 N   0  0  0  0  0  0  0  0  0  0  0  0
    2.1976    7.9808    0.4966 C   0  0  0  0  0  0  0  0  0  0  0  0
    1.0611    7.3337    0.5094 N   0  0  0  0  0  0  0  0  0  0  0  0
    4.7607    5.5337   -0.0120 N   0  0  0  0  0  0  0  0  0  0  0  0
    5.8946    6.3434   -0.1229 C   0  0  0  0  0  0  0  0  0  0  0  0
    7.1175    5.8992    0.3646 C   0  0  0  0  0  0  0  0  0  0  0  0
    8.2362    6.7011    0.2533 C   0  0  0  0  0  0  0  0  0  0  0  0
    8.1408    7.9454   -0.3427 C   0  0  0  0  0  0  0  0  0  0  0  0
    6.9248    8.3909   -0.8297 C   0  0  0  0  0  0  0  0  0  0  0  0
    5.8024    7.5911   -0.7256 C   0  0  0  0  0  0  0  0  0  0  0  0
    6.7997   10.0929   -1.6443 Br  0  0  0  0  0  0  0  0  0  0  0  0
   -0.0686    0.0644   -0.2873 H   0  0  0  0  0  0  0  0  0  0  0  0
   -2.1966    1.2320    0.0199 H   0  0  0  0  0  0  0  0  0  0  0  0
   -2.2889    3.6379    0.3307 H   0  0  0  0  0  0  0  0  0  0  0  0
   -1.1068    5.8025    0.4977 H   0  0  0  0  0  0  0  0  0  0  0  0
    3.2698    3.4073   -0.1508 H   0  0  0  0  0  0  0  0  0  0  0  0
    2.0425    1.2633   -0.3128 H   0  0  0  0  0  0  0  0  0  0  0  0
    2.1674    9.0521    0.6301 H   0  0  0  0  0  0  0  0  0  0  0  0
    4.8477    4.5686   -0.0558 H   0  0  0  0  0  0  0  0  0  0  0  0
    7.1931    4.9278    0.8305 H   0  0  0  0  0  0  0  0  0  0  0  0
    9.1870    6.3559    0.6318 H   0  0  0  0  0  0  0  0  0  0  0  0
    9.0173    8.5704   -0.4284 H   0  0  0  0  0  0  0  0  0  0  0  0
    4.8541    7.9375   -1.1092 H   0  0  0  0  0  0  0  0  0  0  0  0
  1 10  2  0  0  0  0
  1  2  1  0  0  0  0
  1 23  1  0  0  0  0
  2  3  2  0  0  0  0
  2 24  1  0  0  0  0
  3  4  1  0  0  0  0
  3 25  1  0  0  0  0
  4  9  2  0  0  0  0
  4  5  1  0  0  0  0
  5  6  2  0  0  0  0
  5 26  1  0  0  0  0
  6 14  1  0  0  0  0
  6  7  1  0  0  0  0
  7  8  2  0  0  0  0
  7 11  1  0  0  0  0
  8  9  1  0  0  0  0
  8 27  1  0  0  0  0
  9 10  1  0  0  0  0
 10 28  1  0  0  0  0
 11 12  2  0  0  0  0
 11 15  1  0  0  0  0
 12 13  1  0  0  0  0
 13 14  2  0  0  0  0
 13 29  1  0  0  0  0
 15 16  1  0  0  0  0
 15 30  1  0  0  0  0
 16 21  2  0  0  0  0
 16 17  1  0  0  0  0
 17 18  2  0  0  0  0
 17 31  1  0  0  0  0
 18 19  1  0  0  0  0
 18 32  1  0  0  0  0
 19 20  2  0  0  0  0
 19 33  1  0  0  0  0
 20 21  1  0  0  0  0
 20 22  1  0  0  0  0
 21 34  1  0  0  0  0
M  END
$$$$
ZINC03815026
  -OEChem-08230709403D

 42 44  0     0  0  0  0  0  0999 V2000
   -0.2393    0.8846   -0.0021 C   0  0  0  0  0  0  0  0  0  0  0  0
   -0.9603    1.3438    1.2668 C   0  0  0  0  0  0  0  0  0  0  0  0
   -0.1688    1.0142    2.4101 O   0  0  0  0  0  0  0  0  0  0  0  0
   -0.6693    1.3561    3.6263 C   0  0  0  0  0  0  0  0  0  0  0  0
   -1.8801    1.9859    3.7044 C   0  0  0  0  0  0  0  0  0  0  0  0
   -2.3932    2.3369    4.9589 C   0  0  0  0  0  0  0  0  0  0  0  0
   -3.6320    2.9861    5.1175 C   0  0  0  0  0  0  0  0  0  0  0  0
   -4.0472    3.2831    6.3273 N   0  0  0  0  0  0  0  0  0  0  0  0
   -3.3831    3.0137    7.3888 N   0  0  0  0  0  0  0  0  0  0  0  0
   -2.2089    2.4077    7.3746 C   0  0  0  0  0  0  0  0  0  0  0  0
   -1.6508    2.0347    6.1310 C   0  0  0  0  0  0  0  0  0  0  0  0
   -0.4150    1.3892    6.0216 C   0  0  0  0  0  0  0  0  0  0  0  0
    0.0604    1.0529    4.7847 C   0  0  0  0  0  0  0  0  0  0  0  0
    1.2589    0.4211    4.6761 O   0  0  0  0  0  0  0  0  0  0  0  0
    1.9560    0.1387    5.8912 C   0  0  0  0  0  0  0  0  0  0  0  0
    3.2738   -0.5694    5.5704 C   0  0  0  0  0  0  0  0  0  0  0  0
   -1.5368    2.1422    8.5582 N   0  0  0  0  0  0  0  0  0  0  0  0
   -2.0427    2.6181    9.7708 C   0  0  0  0  0  0  0  0  0  0  0  0
   -1.8598    1.8853   10.9371 C   0  0  0  0  0  0  0  0  0  0  0  0
   -2.3603    2.3582   12.1340 C   0  0  0  0  0  0  0  0  0  0  0  0
   -3.0434    3.5600   12.1732 C   0  0  0  0  0  0  0  0  0  0  0  0
   -3.2272    4.2928   11.0141 C   0  0  0  0  0  0  0  0  0  0  0  0
   -2.7245    3.8273    9.8138 C   0  0  0  0  0  0  0  0  0  0  0  0
   -4.1609    5.9362   11.0735 Br  0  0  0  0  0  0  0  0  0  0  0  0
   -0.0878   -0.1941    0.0362 H   0  0  0  0  0  0  0  0  0  0  0  0
    0.7266    1.3849   -0.0725 H   0  0  0  0  0  0  0  0  0  0  0  0
   -0.8430    1.1360   -0.8742 H   0  0  0  0  0  0  0  0  0  0  0  0
   -1.1118    2.4225    1.2285 H   0  0  0  0  0  0  0  0  0  0  0  0
   -1.9261    0.8435    1.3372 H   0  0  0  0  0  0  0  0  0  0  0  0
   -2.4358    2.2111    2.8062 H   0  0  0  0  0  0  0  0  0  0  0  0
   -4.2328    3.2368    4.2558 H   0  0  0  0  0  0  0  0  0  0  0  0
    0.1574    1.1554    6.9071 H   0  0  0  0  0  0  0  0  0  0  0  0
    2.1630    1.0712    6.4163 H   0  0  0  0  0  0  0  0  0  0  0  0
    1.3418   -0.5045    6.5213 H   0  0  0  0  0  0  0  0  0  0  0  0
    3.8055   -0.7847    6.4973 H   0  0  0  0  0  0  0  0  0  0  0  0
    3.0667   -1.5018    5.0452 H   0  0  0  0  0  0  0  0  0  0  0  0
    3.8879    0.0739    4.9403 H   0  0  0  0  0  0  0  0  0  0  0  0
   -0.7156    1.6261    8.5445 H   0  0  0  0  0  0  0  0  0  0  0  0
   -1.3268    0.9464   10.9075 H   0  0  0  0  0  0  0  0  0  0  0  0
   -2.2179    1.7889   13.0407 H   0  0  0  0  0  0  0  0  0  0  0  0
   -3.4338    3.9275   13.1107 H   0  0  0  0  0  0  0  0  0  0  0  0
   -2.8645    4.4014    8.9098 H   0  0  0  0  0  0  0  0  0  0  0  0
  1  2  1  0  0  0  0
  1 25  1  0  0  0  0
  1 26  1  0  0  0  0
  1 27  1  0  0  0  0
  2  3  1  0  0  0  0
  2 28  1  0  0  0  0
  2 29  1  0  0  0  0
  3  4  1  0  0  0  0
  4 13  2  0  0  0  0
  4  5  1  0  0  0  0
  5  6  2  0  0  0  0
  5 30  1  0  0  0  0
  6 11  1  0  0  0  0
  6  7  1  0  0  0  0
  7  8  2  0  0  0  0
  7 31  1  0  0  0  0
  8  9  1  0  0  0  0
  9 10  2  0  0  0  0
 10 11  1  0  0  0  0
 10 17  1  0  0  0  0
 11 12  2  0  0  0  0
 12 13  1  0  0  0  0
 12 32  1  0  0  0  0
 13 14  1  0  0  0  0
 14 15  1  0  0  0  0
 15 16  1  0  0  0  0
 15 33  1  0  0  0  0
 15 34  1  0  0  0  0
 16 35  1  0  0  0  0
 16 36  1  0  0  0  0
 16 37  1  0  0  0  0
 17 18  1  0  0  0  0
 17 38  1  0  0  0  0
 18 23  2  0  0  0  0
 18 19  1  0  0  0  0
 19 20  2  0  0  0  0
 19 39  1  0  0  0  0
 20 21  1  0  0  0  0
 20 40  1  0  0  0  0
 21 22  2  0  0  0  0
 21 41  1  0  0  0  0
 22 23  1  0  0  0  0
 22 24  1  0  0  0  0
 23 42  1  0  0  0  0
M  END
$$$$
ZINC03815027
  -OEChem-08230709403D

 35 37  0     0  0  0  0  0  0999 V2000
    0.0456    4.1790   -0.3307 C   0  0  0  0  0  0  0  0  0  0  0  0
    1.2807    3.4084   -0.1663 N   0  0  0  0  0  0  0  0  0  0  0  0
    2.5763    4.0922   -0.1673 C   0  0  0  0  0  0  0  0  0  0  0  0
    1.2229    2.0203   -0.0086 C   0  0  0  0  0  0  0  0  0  0  0  0
    0.0002    1.3689   -0.0069 C   0  0  0  0  0  0  0  0  0  0  0  0
   -0.0002   -0.0219    0.1541 C   0  0  0  0  0  0  0  0  0  0  0  0
    1.2315   -0.7047    0.3076 C   0  0  0  0  0  0  0  0  0  0  0  0
    2.3768   -0.0235    0.2978 N   0  0  0  0  0  0  0  0  0  0  0  0
    2.3979    1.2808    0.1481 C   0  0  0  0  0  0  0  0  0  0  0  0
    1.2066   -2.0380    0.4600 N   0  0  0  0  0  0  0  0  0  0  0  0
    0.0676   -2.6883    0.4661 C   0  0  0  0  0  0  0  0  0  0  0  0
   -1.1054   -2.0922    0.3262 N   0  0  0  0  0  0  0  0  0  0  0  0
   -1.1971   -0.7778    0.1689 C   0  0  0  0  0  0  0  0  0  0  0  0
   -2.4244   -0.1651    0.0243 N   0  0  0  0  0  0  0  0  0  0  0  0
   -3.5844   -0.9386   -0.0747 C   0  0  0  0  0  0  0  0  0  0  0  0
   -4.7840   -0.4637    0.4408 C   0  0  0  0  0  0  0  0  0  0  0  0
   -5.9284   -1.2300    0.3416 C   0  0  0  0  0  0  0  0  0  0  0  0
   -5.8819   -2.4694   -0.2702 C   0  0  0  0  0  0  0  0  0  0  0  0
   -4.6892   -2.9458   -0.7848 C   0  0  0  0  0  0  0  0  0  0  0  0
   -3.5415   -2.1810   -0.6937 C   0  0  0  0  0  0  0  0  0  0  0  0
   -4.6309   -4.6411   -1.6204 Br  0  0  0  0  0  0  0  0  0  0  0  0
   -0.3224    4.4885    0.6475 H   0  0  0  0  0  0  0  0  0  0  0  0
    0.2458    5.0608   -0.9393 H   0  0  0  0  0  0  0  0  0  0  0  0
   -0.7055    3.5609   -0.8226 H   0  0  0  0  0  0  0  0  0  0  0  0
    2.9593    4.1434   -1.1865 H   0  0  0  0  0  0  0  0  0  0  0  0
    2.4548    5.1013    0.2263 H   0  0  0  0  0  0  0  0  0  0  0  0
    3.2787    3.5406    0.4576 H   0  0  0  0  0  0  0  0  0  0  0  0
   -0.9228    1.9159   -0.1305 H   0  0  0  0  0  0  0  0  0  0  0  0
    3.3476    1.7950    0.1458 H   0  0  0  0  0  0  0  0  0  0  0  0
    0.0880   -3.7608    0.5915 H   0  0  0  0  0  0  0  0  0  0  0  0
   -2.4825    0.8026   -0.0086 H   0  0  0  0  0  0  0  0  0  0  0  0
   -4.8213    0.5039    0.9191 H   0  0  0  0  0  0  0  0  0  0  0  0
   -6.8610   -0.8609    0.7420 H   0  0  0  0  0  0  0  0  0  0  0  0
   -6.7785   -3.0666   -0.3467 H   0  0  0  0  0  0  0  0  0  0  0  0
   -2.6116   -2.5510   -1.0998 H   0  0  0  0  0  0  0  0  0  0  0  0
  1  2  1  0  0  0  0
  1 22  1  0  0  0  0
  1 23  1  0  0  0  0
  1 24  1  0  0  0  0
  2  3  1  0  0  0  0
  2  4  1  0  0  0  0
  3 25  1  0  0  0  0
  3 26  1  0  0  0  0
  3 27  1  0  0  0  0
  4  9  2  0  0  0  0
  4  5  1  0  0  0  0
  5  6  2  0  0  0  0
  5 28  1  0  0  0  0
  6 13  1  0  0  0  0
  6  7  1  0  0  0  0
  7  8  2  0  0  0  0
  7 10  1  0  0  0  0
  8  9  1  0  0  0  0
  9 29  1  0  0  0  0
 10 11  2  0  0  0  0
 11 12  1  0  0  0  0
 11 30  1  0  0  0  0
 12 13  2  0  0  0  0
 13 14  1  0  0  0  0
 14 15  1  0  0  0  0
 14 31  1  0  0  0  0
 15 20  2  0  0  0  0
 15 16  1  0  0  0  0
 16 17  2  0  0  0  0
 16 32  1  0  0  0  0
 17 18  1  0  0  0  0
 17 33  1  0  0  0  0
 18 19  2  0  0  0  0
 18 34  1  0  0  0  0
 19 20  1  0  0  0  0
 19 21  1  0  0  0  0
 20 35  1  0  0  0  0
M  END
$$$$
ZINC03815028
  -OEChem-08230709403D

 31 34  0     0  0  0  0  0  0999 V2000
   -4.5872   -6.3133    0.3919 C   0  0  0  0  0  0  0  0  0  0  0  0
   -3.6497   -5.3040    0.4938 C   0  0  0  0  0  0  0  0  0  0  0  0
   -3.8964   -4.0673   -0.0884 C   0  0  0  0  0  0  0  0  0  0  0  0
   -5.0884   -3.8477   -0.7671 C   0  0  0  0  0  0  0  0  0  0  0  0
   -6.0202   -4.8628   -0.8693 C   0  0  0  0  0  0  0  0  0  0  0  0
   -5.7706   -6.0939   -0.2883 C   0  0  0  0  0  0  0  0  0  0  0  0
   -7.6411   -4.5674   -1.7974 Br  0  0  0  0  0  0  0  0  0  0  0  0
   -2.9498   -3.0439    0.0136 N   0  0  0  0  0  0  0  0  0  0  0  0
   -1.6035   -3.3447   -0.0095 C   0  0  0  0  0  0  0  0  0  0  0  0
   -0.6296   -2.3393    0.2135 C   0  0  0  0  0  0  0  0  0  0  0  0
   -0.9876   -1.0127    0.4638 C   0  0  0  0  0  0  0  0  0  0  0  0
   -0.0034   -0.0714    0.6749 C   0  0  0  0  0  0  0  0  0  0  0  0
    1.3617   -0.4367    0.6402 C   0  0  0  0  0  0  0  0  0  0  0  0
    1.7276   -1.7543    0.3918 C   0  0  0  0  0  0  0  0  0  0  0  0
    0.7391   -2.7142    0.1770 C   0  0  0  0  0  0  0  0  0  0  0  0
    1.0481   -4.0004   -0.0663 N   0  0  0  0  0  0  0  0  0  0  0  0
    0.1023   -4.8856   -0.2650 C   0  0  0  0  0  0  0  0  0  0  0  0
   -1.1866   -4.5821   -0.2399 N   0  0  0  0  0  0  0  0  0  0  0  0
    2.0768    0.6938    0.8807 N   0  0  0  0  0  0  0  0  0  0  0  0
    1.2676    1.6972    1.0552 C   0  0  0  0  0  0  0  0  0  0  0  0
   -0.0242    1.2878    0.9403 N   0  0  0  0  0  0  0  0  0  0  0  0
   -0.8381    1.8617    1.0307 H   0  0  0  0  0  0  0  0  0  0  0  0
   -4.3955   -7.2750    0.8445 H   0  0  0  0  0  0  0  0  0  0  0  0
   -2.7255   -5.4764    1.0253 H   0  0  0  0  0  0  0  0  0  0  0  0
   -5.2850   -2.8860   -1.2174 H   0  0  0  0  0  0  0  0  0  0  0  0
   -6.5020   -6.8848   -0.3661 H   0  0  0  0  0  0  0  0  0  0  0  0
   -3.2394   -2.1222    0.1005 H   0  0  0  0  0  0  0  0  0  0  0  0
   -2.0286   -0.7264    0.4914 H   0  0  0  0  0  0  0  0  0  0  0  0
    2.7707   -2.0330    0.3657 H   0  0  0  0  0  0  0  0  0  0  0  0
    0.3869   -5.9094   -0.4576 H   0  0  0  0  0  0  0  0  0  0  0  0
    1.5774    2.7110    1.2616 H   0  0  0  0  0  0  0  0  0  0  0  0
  1  6  2  0  0  0  0
  1  2  1  0  0  0  0
  1 23  1  0  0  0  0
  2  3  2  0  0  0  0
  2 24  1  0  0  0  0
  3  4  1  0  0  0  0
  3  8  1  0  0  0  0
  4  5  2  0  0  0  0
  4 25  1  0  0  0  0
  5  6  1  0  0  0  0
  5  7  1  0  0  0  0
  6 26  1  0  0  0  0
  8  9  1  0  0  0  0
  8 27  1  0  0  0  0
  9 18  2  0  0  0  0
  9 10  1  0  0  0  0
 10 15  2  0  0  0  0
 10 11  1  0  0  0  0
 11 12  2  0  0  0  0
 11 28  1  0  0  0  0
 12 21  1  0  0  0  0
 12 13  1  0  0  0  0
 13 14  2  0  0  0  0
 13 19  1  0  0  0  0
 14 15  1  0  0  0  0
 14 29  1  0  0  0  0
 15 16  1  0  0  0  0
 16 17  2  0  0  0  0
 17 18  1  0  0  0  0
 17 30  1  0  0  0  0
 19 20  2  0  0  0  0
 20 21  1  0  0  0  0
 20 31  1  0  0  0  0
 21 22  1  0  0  0  0
M  END
$$$$
ZINC03815028
  -OEChem-08230709403D

 31 34  0     0  0  0  0  0  0999 V2000
   -4.5872   -6.3133    0.3919 C   0  0  0  0  0  0  0  0  0  0  0  0
   -3.6497   -5.3040    0.4938 C   0  0  0  0  0  0  0  0  0  0  0  0
   -3.8964   -4.0673   -0.0884 C   0  0  0  0  0  0  0  0  0  0  0  0
   -5.0884   -3.8477   -0.7671 C   0  0  0  0  0  0  0  0  0  0  0  0
   -6.0202   -4.8628   -0.8693 C   0  0  0  0  0  0  0  0  0  0  0  0
   -5.7706   -6.0939   -0.2883 C   0  0  0  0  0  0  0  0  0  0  0  0
   -7.6411   -4.5674   -1.7974 Br  0  0  0  0  0  0  0  0  0  0  0  0
   -2.9498   -3.0439    0.0136 N   0  0  0  0  0  0  0  0  0  0  0  0
   -1.6035   -3.3447   -0.0095 C   0  0  0  0  0  0  0  0  0  0  0  0
   -0.6296   -2.3393    0.2135 C   0  0  0  0  0  0  0  0  0  0  0  0
   -0.9876   -1.0127    0.4638 C   0  0  0  0  0  0  0  0  0  0  0  0
   -0.0034   -0.0714    0.6749 C   0  0  0  0  0  0  0  0  0  0  0  0
    1.3617   -0.4367    0.6402 C   0  0  0  0  0  0  0  0  0  0  0  0
    1.7276   -1.7543    0.3918 C   0  0  0  0  0  0  0  0  0  0  0  0
    0.7391   -2.7142    0.1770 C   0  0  0  0  0  0  0  0  0  0  0  0
    1.0481   -4.0004   -0.0663 N   0  0  0  0  0  0  0  0  0  0  0  0
    0.1023   -4.8856   -0.2650 C   0  0  0  0  0  0  0  0  0  0  0  0
   -1.1866   -4.5821   -0.2399 N   0  0  0  0  0  0  0  0  0  0  0  0
    2.0768    0.6938    0.8807 N   0  0  0  0  0  0  0  0  0  0  0  0
    1.2676    1.6972    1.0552 C   0  0  0  0  0  0  0  0  0  0  0  0
   -0.0242    1.2878    0.9403 N   0  0  0  0  0  0  0  0  0  0  0  0
   -0.8381    1.8617    1.0307 H   0  0  0  0  0  0  0  0  0  0  0  0
   -4.3955   -7.2750    0.8445 H   0  0  0  0  0  0  0  0  0  0  0  0
   -2.7255   -5.4764    1.0253 H   0  0  0  0  0  0  0  0  0  0  0  0
   -5.2850   -2.8860   -1.2174 H   0  0  0  0  0  0  0  0  0  0  0  0
   -6.5020   -6.8848   -0.3661 H   0  0  0  0  0  0  0  0  0  0  0  0
   -3.2394   -2.1222    0.1005 H   0  0  0  0  0  0  0  0  0  0  0  0
   -2.0286   -0.7264    0.4914 H   0  0  0  0  0  0  0  0  0  0  0  0
    2.7707   -2.0330    0.3657 H   0  0  0  0  0  0  0  0  0  0  0  0
    0.3869   -5.9094   -0.4576 H   0  0  0  0  0  0  0  0  0  0  0  0
    1.5774    2.7110    1.2616 H   0  0  0  0  0  0  0  0  0  0  0  0
  1  6  2  0  0  0  0
  1  2  1  0  0  0  0
  1 23  1  0  0  0  0
  2  3  2  0  0  0  0
  2 24  1  0  0  0  0
  3  4  1  0  0  0  0
  3  8  1  0  0  0  0
  4  5  2  0  0  0  0
  4 25  1  0  0  0  0
  5  6  1  0  0  0  0
  5  7  1  0  0  0  0
  6 26  1  0  0  0  0
  8  9  1  0  0  0  0
  8 27  1  0  0  0  0
  9 18  2  0  0  0  0
  9 10  1  0  0  0  0
 10 15  2  0  0  0  0
 10 11  1  0  0  0  0
 11 12  2  0  0  0  0
 11 28  1  0  0  0  0
 12 21  1  0  0  0  0
 12 13  1  0  0  0  0
 13 14  2  0  0  0  0
 13 19  1  0  0  0  0
 14 15  1  0  0  0  0
 14 29  1  0  0  0  0
 15 16  1  0  0  0  0
 16 17  2  0  0  0  0
 17 18  1  0  0  0  0
 17 30  1  0  0  0  0
 19 20  2  0  0  0  0
 20 21  1  0  0  0  0
 20 31  1  0  0  0  0
 21 22  1  0  0  0  0
M  END
$$$$
ZINC03815029
  -OEChem-08230709403D

 32 34  0     0  0  0  0  0  0999 V2000
    0.1516    1.1588    0.0540 C   0  0  0  0  0  0  0  0  0  0  0  0
   -0.5296    1.6168    1.2674 N   0  0  0  0  0  0  0  0  0  0  0  0
   -0.8261    2.9732    1.4330 C   0  0  0  0  0  0  0  0  0  0  0  0
   -1.4702    3.4114    2.5787 C   0  0  0  0  0  0  0  0  0  0  0  0
   -1.7430    4.7799    2.6932 C   0  0  0  0  0  0  0  0  0  0  0  0
   -1.3568    5.6560    1.6491 C   0  0  0  0  0  0  0  0  0  0  0  0
   -0.7395    5.1756    0.5702 N   0  0  0  0  0  0  0  0  0  0  0  0
   -0.4698    3.8965    0.4469 C   0  0  0  0  0  0  0  0  0  0  0  0
   -1.6283    6.9638    1.7811 N   0  0  0  0  0  0  0  0  0  0  0  0
   -2.2365    7.4149    2.8522 C   0  0  0  0  0  0  0  0  0  0  0  0
   -2.6149    6.6337    3.8508 N   0  0  0  0  0  0  0  0  0  0  0  0
   -2.3963    5.3253    3.8246 C   0  0  0  0  0  0  0  0  0  0  0  0
   -2.7944    4.5188    4.8705 N   0  0  0  0  0  0  0  0  0  0  0  0
   -3.3322    5.0896    6.0276 C   0  0  0  0  0  0  0  0  0  0  0  0
   -4.3080    4.4128    6.7488 C   0  0  0  0  0  0  0  0  0  0  0  0
   -4.8371    4.9789    7.8918 C   0  0  0  0  0  0  0  0  0  0  0  0
   -4.3970    6.2183    8.3193 C   0  0  0  0  0  0  0  0  0  0  0  0
   -3.4252    6.8950    7.6040 C   0  0  0  0  0  0  0  0  0  0  0  0
   -2.8881    6.3317    6.4618 C   0  0  0  0  0  0  0  0  0  0  0  0
   -2.8264    8.5892    8.1931 Br  0  0  0  0  0  0  0  0  0  0  0  0
    0.2963    0.0796    0.1040 H   0  0  0  0  0  0  0  0  0  0  0  0
    1.1203    1.6519   -0.0269 H   0  0  0  0  0  0  0  0  0  0  0  0
   -0.4549    1.4041   -0.8178 H   0  0  0  0  0  0  0  0  0  0  0  0
   -0.7749    0.9792    1.9560 H   0  0  0  0  0  0  0  0  0  0  0  0
   -1.7531    2.7196    3.3582 H   0  0  0  0  0  0  0  0  0  0  0  0
    0.0364    3.5487   -0.4415 H   0  0  0  0  0  0  0  0  0  0  0  0
   -2.4381    8.4736    2.9220 H   0  0  0  0  0  0  0  0  0  0  0  0
   -2.7012    3.5557    4.8031 H   0  0  0  0  0  0  0  0  0  0  0  0
   -4.6526    3.4450    6.4156 H   0  0  0  0  0  0  0  0  0  0  0  0
   -5.5954    4.4528    8.4528 H   0  0  0  0  0  0  0  0  0  0  0  0
   -4.8126    6.6586    9.2136 H   0  0  0  0  0  0  0  0  0  0  0  0
   -2.1268    6.8585    5.9056 H   0  0  0  0  0  0  0  0  0  0  0  0
  1  2  1  0  0  0  0
  1 21  1  0  0  0  0
  1 22  1  0  0  0  0
  1 23  1  0  0  0  0
  2  3  1  0  0  0  0
  2 24  1  0  0  0  0
  3  8  2  0  0  0  0
  3  4  1  0  0  0  0
  4  5  2  0  0  0  0
  4 25  1  0  0  0  0
  5 12  1  0  0  0  0
  5  6  1  0  0  0  0
  6  7  2  0  0  0  0
  6  9  1  0  0  0  0
  7  8  1  0  0  0  0
  8 26  1  0  0  0  0
  9 10  2  0  0  0  0
 10 11  1  0  0  0  0
 10 27  1  0  0  0  0
 11 12  2  0  0  0  0
 12 13  1  0  0  0  0
 13 14  1  0  0  0  0
 13 28  1  0  0  0  0
 14 19  2  0  0  0  0
 14 15  1  0  0  0  0
 15 16  2  0  0  0  0
 15 29  1  0  0  0  0
 16 17  1  0  0  0  0
 16 30  1  0  0  0  0
 17 18  2  0  0  0  0
 17 31  1  0  0  0  0
 18 19  1  0  0  0  0
 18 20  1  0  0  0  0
 19 32  1  0  0  0  0
M  END
$$$$
ZINC03815030
  -OEChem-08230709403D

 34 37  0     0  0  0  0  0  0999 V2000
   -2.8376    6.1251    0.7409 C   0  0  0  0  0  0  0  0  0  0  0  0
   -1.4412    6.4854    0.4828 N   0  0  0  0  0  0  0  0  0  0  0  0
   -0.9298    7.7445    0.4318 C   0  0  0  0  0  0  0  0  0  0  0  0
    0.3461    7.7043    0.1822 N   0  0  0  0  0  0  0  0  0  0  0  0
    0.7488    6.4125    0.0542 C   0  0  0  0  0  0  0  0  0  0  0  0
   -0.3969    5.6069    0.2460 C   0  0  0  0  0  0  0  0  0  0  0  0
   -0.3092    4.2334    0.1761 C   0  0  0  0  0  0  0  0  0  0  0  0
    0.9250    3.6345   -0.0869 C   0  0  0  0  0  0  0  0  0  0  0  0
    2.0814    4.4364   -0.2756 C   0  0  0  0  0  0  0  0  0  0  0  0
    1.9831    5.8254   -0.1977 C   0  0  0  0  0  0  0  0  0  0  0  0
    3.2522    3.8272   -0.5331 N   0  0  0  0  0  0  0  0  0  0  0  0
    3.3208    2.5201   -0.6022 C   0  0  0  0  0  0  0  0  0  0  0  0
    2.2708    1.7325   -0.4282 N   0  0  0  0  0  0  0  0  0  0  0  0
    1.0679    2.2271   -0.1692 C   0  0  0  0  0  0  0  0  0  0  0  0
   -0.0169    1.3935    0.0097 N   0  0  0  0  0  0  0  0  0  0  0  0
    0.1639    0.0078    0.0396 C   0  0  0  0  0  0  0  0  0  0  0  0
    1.3331   -0.5305    0.5627 C   0  0  0  0  0  0  0  0  0  0  0  0
    1.5088   -1.8999    0.5913 C   0  0  0  0  0  0  0  0  0  0  0  0
    0.5225   -2.7358    0.1005 C   0  0  0  0  0  0  0  0  0  0  0  0
   -0.6433   -2.2034   -0.4208 C   0  0  0  0  0  0  0  0  0  0  0  0
   -0.8271   -0.8338   -0.4483 C   0  0  0  0  0  0  0  0  0  0  0  0
   -1.9895   -3.3508   -1.0895 Br  0  0  0  0  0  0  0  0  0  0  0  0
   -2.9877    5.9973    1.8129 H   0  0  0  0  0  0  0  0  0  0  0  0
   -3.4909    6.9170    0.3745 H   0  0  0  0  0  0  0  0  0  0  0  0
   -3.0732    5.1930    0.2274 H   0  0  0  0  0  0  0  0  0  0  0  0
   -1.5015    8.6490    0.5783 H   0  0  0  0  0  0  0  0  0  0  0  0
   -1.1887    3.6242    0.3234 H   0  0  0  0  0  0  0  0  0  0  0  0
    2.8581    6.4412   -0.3444 H   0  0  0  0  0  0  0  0  0  0  0  0
    4.2776    2.0646   -0.8108 H   0  0  0  0  0  0  0  0  0  0  0  0
   -0.9055    1.7690    0.1108 H   0  0  0  0  0  0  0  0  0  0  0  0
    2.1039    0.1214    0.9462 H   0  0  0  0  0  0  0  0  0  0  0  0
    2.4175   -2.3186    0.9979 H   0  0  0  0  0  0  0  0  0  0  0  0
    0.6624   -3.8064    0.1245 H   0  0  0  0  0  0  0  0  0  0  0  0
   -1.7389   -0.4186   -0.8515 H   0  0  0  0  0  0  0  0  0  0  0  0
  1  2  1  0  0  0  0
  1 23  1  0  0  0  0
  1 24  1  0  0  0  0
  1 25  1  0  0  0  0
  2  6  1  0  0  0  0
  2  3  1  0  0  0  0
  3  4  2  0  0  0  0
  3 26  1  0  0  0  0
  4  5  1  0  0  0  0
  5 10  2  0  0  0  0
  5  6  1  0  0  0  0
  6  7  2  0  0  0  0
  7  8  1  0  0  0  0
  7 27  1  0  0  0  0
  8 14  2  0  0  0  0
  8  9  1  0  0  0  0
  9 10  1  0  0  0  0
  9 11  2  0  0  0  0
 10 28  1  0  0  0  0
 11 12  1  0  0  0  0
 12 13  2  0  0  0  0
 12 29  1  0  0  0  0
 13 14  1  0  0  0  0
 14 15  1  0  0  0  0
 15 16  1  0  0  0  0
 15 30  1  0  0  0  0
 16 21  2  0  0  0  0
 16 17  1  0  0  0  0
 17 18  2  0  0  0  0
 17 31  1  0  0  0  0
 18 19  1  0  0  0  0
 18 32  1  0  0  0  0
 19 20  2  0  0  0  0
 19 33  1  0  0  0  0
 20 21  1  0  0  0  0
 20 22  1  0  0  0  0
 21 34  1  0  0  0  0
M  END
$$$$
ZINC03815031
  -OEChem-08230709403D

 36 38  0     0  0  0  0  0  0999 V2000
    6.8051    9.7108   -0.6494 C   0  0  0  0  0  0  0  0  0  0  0  0
    6.9617    8.2934   -0.5570 O   0  0  0  0  0  0  0  0  0  0  0  0
    5.8274    7.5534   -0.4447 C   0  0  0  0  0  0  0  0  0  0  0  0
    4.6127    8.1799   -0.4253 C   0  0  0  0  0  0  0  0  0  0  0  0
    3.4458    7.4149   -0.3091 C   0  0  0  0  0  0  0  0  0  0  0  0
    2.1612    7.9894   -0.2827 C   0  0  0  0  0  0  0  0  0  0  0  0
    1.1133    7.2059   -0.1718 N   0  0  0  0  0  0  0  0  0  0  0  0
    1.1900    5.9304   -0.0849 N   0  0  0  0  0  0  0  0  0  0  0  0
    2.3351    5.2709   -0.0980 C   0  0  0  0  0  0  0  0  0  0  0  0
    3.5398    6.0017   -0.2073 C   0  0  0  0  0  0  0  0  0  0  0  0
    4.7955    5.3867   -0.2352 C   0  0  0  0  0  0  0  0  0  0  0  0
    5.9189    6.1573   -0.3499 C   0  0  0  0  0  0  0  0  0  0  0  0
    7.1408    5.5623   -0.3719 O   0  0  0  0  0  0  0  0  0  0  0  0
    7.1703    4.1371   -0.2717 C   0  0  0  0  0  0  0  0  0  0  0  0
    2.3546    3.8878   -0.0005 N   0  0  0  0  0  0  0  0  0  0  0  0
    1.1558    3.1697   -0.0091 C   0  0  0  0  0  0  0  0  0  0  0  0
    0.0737    3.6303   -0.7492 C   0  0  0  0  0  0  0  0  0  0  0  0
   -1.1098    2.9190   -0.7555 C   0  0  0  0  0  0  0  0  0  0  0  0
   -1.2210    1.7518   -0.0221 C   0  0  0  0  0  0  0  0  0  0  0  0
   -0.1441    1.2871    0.7118 C   0  0  0  0  0  0  0  0  0  0  0  0
    1.0433    1.9945    0.7223 C   0  0  0  0  0  0  0  0  0  0  0  0
   -0.2991   -0.3132    1.7071 Br  0  0  0  0  0  0  0  0  0  0  0  0
    6.2086    9.9538   -1.5288 H   0  0  0  0  0  0  0  0  0  0  0  0
    6.3019   10.0798    0.2443 H   0  0  0  0  0  0  0  0  0  0  0  0
    7.7853   10.1798   -0.7343 H   0  0  0  0  0  0  0  0  0  0  0  0
    4.5535    9.2558   -0.4987 H   0  0  0  0  0  0  0  0  0  0  0  0
    2.0389    9.0602   -0.3529 H   0  0  0  0  0  0  0  0  0  0  0  0
    4.8773    4.3122   -0.1624 H   0  0  0  0  0  0  0  0  0  0  0  0
    6.6180    3.7028   -1.1051 H   0  0  0  0  0  0  0  0  0  0  0  0
    8.2038    3.7921   -0.3016 H   0  0  0  0  0  0  0  0  0  0  0  0
    6.7115    3.8294    0.6679 H   0  0  0  0  0  0  0  0  0  0  0  0
    3.2004    3.4187    0.0738 H   0  0  0  0  0  0  0  0  0  0  0  0
    0.1584    4.5437   -1.3192 H   0  0  0  0  0  0  0  0  0  0  0  0
   -1.9511    3.2770   -1.3303 H   0  0  0  0  0  0  0  0  0  0  0  0
   -2.1493    1.1998   -0.0253 H   0  0  0  0  0  0  0  0  0  0  0  0
    1.8823    1.6340    1.2988 H   0  0  0  0  0  0  0  0  0  0  0  0
  1  2  1  0  0  0  0
  1 23  1  0  0  0  0
  1 24  1  0  0  0  0
  1 25  1  0  0  0  0
  2  3  1  0  0  0  0
  3 12  2  0  0  0  0
  3  4  1  0  0  0  0
  4  5  2  0  0  0  0
  4 26  1  0  0  0  0
  5 10  1  0  0  0  0
  5  6  1  0  0  0  0
  6  7  2  0  0  0  0
  6 27  1  0  0  0  0
  7  8  1  0  0  0  0
  8  9  2  0  0  0  0
  9 10  1  0  0  0  0
  9 15  1  0  0  0  0
 10 11  2  0  0  0  0
 11 12  1  0  0  0  0
 11 28  1  0  0  0  0
 12 13  1  0  0  0  0
 13 14  1  0  0  0  0
 14 29  1  0  0  0  0
 14 30  1  0  0  0  0
 14 31  1  0  0  0  0
 15 16  1  0  0  0  0
 15 32  1  0  0  0  0
 16 21  2  0  0  0  0
 16 17  1  0  0  0  0
 17 18  2  0  0  0  0
 17 33  1  0  0  0  0
 18 19  1  0  0  0  0
 18 34  1  0  0  0  0
 19 20  2  0  0  0  0
 19 35  1  0  0  0  0
 20 21  1  0  0  0  0
 20 22  1  0  0  0  0
 21 36  1  0  0  0  0
M  END
$$$$
ZINC03815032
  -OEChem-08230709403D

 36 38  0     0  0  0  0  0  0999 V2000
   -0.1078    7.8042   -0.3031 C   0  0  0  0  0  0  0  0  0  0  0  0
    1.1553    7.1532   -0.1516 O   0  0  0  0  0  0  0  0  0  0  0  0
    1.1387    5.8027    0.0065 C   0  0  0  0  0  0  0  0  0  0  0  0
   -0.0548    5.1381    0.0140 C   0  0  0  0  0  0  0  0  0  0  0  0
   -0.0730    3.7478    0.1767 C   0  0  0  0  0  0  0  0  0  0  0  0
    1.1438    3.0386    0.3323 C   0  0  0  0  0  0  0  0  0  0  0  0
    2.3555    3.7400    0.3215 C   0  0  0  0  0  0  0  0  0  0  0  0
    2.3464    5.1079    0.1603 C   0  0  0  0  0  0  0  0  0  0  0  0
    3.5206    5.7910    0.1494 O   0  0  0  0  0  0  0  0  0  0  0  0
    4.7173    5.0268    0.3108 C   0  0  0  0  0  0  0  0  0  0  0  0
    1.0982    1.7060    0.4870 N   0  0  0  0  0  0  0  0  0  0  0  0
   -0.0526    1.0763    0.4935 C   0  0  0  0  0  0  0  0  0  0  0  0
   -1.2129    1.6957    0.3463 N   0  0  0  0  0  0  0  0  0  0  0  0
   -1.2816    3.0116    0.1923 C   0  0  0  0  0  0  0  0  0  0  0  0
   -2.4993    3.6452    0.0450 N   0  0  0  0  0  0  0  0  0  0  0  0
   -3.6724    2.8910   -0.0534 C   0  0  0  0  0  0  0  0  0  0  0  0
   -3.6501    1.6468   -0.6712 C   0  0  0  0  0  0  0  0  0  0  0  0
   -4.8087    0.9010   -0.7617 C   0  0  0  0  0  0  0  0  0  0  0  0
   -5.9942    1.3966   -0.2483 C   0  0  0  0  0  0  0  0  0  0  0  0
   -6.0212    2.6387    0.3624 C   0  0  0  0  0  0  0  0  0  0  0  0
   -4.8632    3.3866    0.4612 C   0  0  0  0  0  0  0  0  0  0  0  0
   -7.6436    3.3122    1.0626 Br  0  0  0  0  0  0  0  0  0  0  0  0
   -7.5801    0.3753   -0.3807 Br  0  0  0  0  0  0  0  0  0  0  0  0
    0.0480    8.8767   -0.4202 H   0  0  0  0  0  0  0  0  0  0  0  0
   -0.6151    7.4124   -1.1847 H   0  0  0  0  0  0  0  0  0  0  0  0
   -0.7196    7.6202    0.5800 H   0  0  0  0  0  0  0  0  0  0  0  0
   -0.9798    5.6826   -0.1053 H   0  0  0  0  0  0  0  0  0  0  0  0
    3.2905    3.2124    0.4390 H   0  0  0  0  0  0  0  0  0  0  0  0
    4.6898    4.5067    1.2684 H   0  0  0  0  0  0  0  0  0  0  0  0
    4.7947    4.2983   -0.4962 H   0  0  0  0  0  0  0  0  0  0  0  0
    5.5799    5.6925    0.2835 H   0  0  0  0  0  0  0  0  0  0  0  0
   -0.0529    0.0038    0.6201 H   0  0  0  0  0  0  0  0  0  0  0  0
   -2.5409    4.6137    0.0098 H   0  0  0  0  0  0  0  0  0  0  0  0
   -2.7261    1.2611   -1.0762 H   0  0  0  0  0  0  0  0  0  0  0  0
   -4.7905   -0.0683   -1.2377 H   0  0  0  0  0  0  0  0  0  0  0  0
   -4.8844    4.3555    0.9377 H   0  0  0  0  0  0  0  0  0  0  0  0
  1  2  1  0  0  0  0
  1 24  1  0  0  0  0
  1 25  1  0  0  0  0
  1 26  1  0  0  0  0
  2  3  1  0  0  0  0
  3  8  2  0  0  0  0
  3  4  1  0  0  0  0
  4  5  2  0  0  0  0
  4 27  1  0  0  0  0
  5 14  1  0  0  0  0
  5  6  1  0  0  0  0
  6  7  2  0  0  0  0
  6 11  1  0  0  0  0
  7  8  1  0  0  0  0
  7 28  1  0  0  0  0
  8  9  1  0  0  0  0
  9 10  1  0  0  0  0
 10 29  1  0  0  0  0
 10 30  1  0  0  0  0
 10 31  1  0  0  0  0
 11 12  2  0  0  0  0
 12 13  1  0  0  0  0
 12 32  1  0  0  0  0
 13 14  2  0  0  0  0
 14 15  1  0  0  0  0
 15 16  1  0  0  0  0
 15 33  1  0  0  0  0
 16 21  2  0  0  0  0
 16 17  1  0  0  0  0
 17 18  2  0  0  0  0
 17 34  1  0  0  0  0
 18 19  1  0  0  0  0
 18 35  1  0  0  0  0
 19 20  2  0  0  0  0
 19 23  1  0  0  0  0
 20 21  1  0  0  0  0
 20 22  1  0  0  0  0
 21 36  1  0  0  0  0
M  END
$$$$
ZINC03815033
  -OEChem-08230709403D

 36 38  0     0  0  0  0  0  0999 V2000
   -2.4297    0.0801    0.7917 C   0  0  0  0  0  0  0  0  0  0  0  0
   -1.1520   -0.6301    0.8894 N   0  0  0  0  0  0  0  0  0  0  0  0
   -1.1299   -2.0544    1.2314 C   0  0  0  0  0  0  0  0  0  0  0  0
    0.0383    0.0470    0.6578 C   0  0  0  0  0  0  0  0  0  0  0  0
    0.0070    1.4125    0.4390 C   0  0  0  0  0  0  0  0  0  0  0  0
    1.2151    2.0791    0.2073 C   0  0  0  0  0  0  0  0  0  0  0  0
    2.4142    1.3171    0.2089 C   0  0  0  0  0  0  0  0  0  0  0  0
    2.3457   -0.0585    0.4401 C   0  0  0  0  0  0  0  0  0  0  0  0
    3.6338    1.9938   -0.0250 C   0  0  0  0  0  0  0  0  0  0  0  0
    3.5913    3.3046   -0.2339 N   0  0  0  0  0  0  0  0  0  0  0  0
    2.4488    3.9716   -0.2264 C   0  0  0  0  0  0  0  0  0  0  0  0
    1.2865    3.3975   -0.0149 N   0  0  0  0  0  0  0  0  0  0  0  0
    4.8320    1.3123   -0.0364 N   0  0  0  0  0  0  0  0  0  0  0  0
    6.0349    2.0155   -0.1491 C   0  0  0  0  0  0  0  0  0  0  0  0
    6.1710    3.2624    0.4483 C   0  0  0  0  0  0  0  0  0  0  0  0
    7.3605    3.9546    0.3358 C   0  0  0  0  0  0  0  0  0  0  0  0
    8.4165    3.4080   -0.3704 C   0  0  0  0  0  0  0  0  0  0  0  0
    8.2848    2.1665   -0.9667 C   0  0  0  0  0  0  0  0  0  0  0  0
    7.0984    1.4666   -0.8536 C   0  0  0  0  0  0  0  0  0  0  0  0
    9.7320    1.4231   -1.9306 Br  0  0  0  0  0  0  0  0  0  0  0  0
   -2.8039    0.0158   -0.2300 H   0  0  0  0  0  0  0  0  0  0  0  0
   -3.1505   -0.3737    1.4718 H   0  0  0  0  0  0  0  0  0  0  0  0
   -2.2852    1.1265    1.0606 H   0  0  0  0  0  0  0  0  0  0  0  0
   -0.0985   -2.4060    1.2569 H   0  0  0  0  0  0  0  0  0  0  0  0
   -1.5878   -2.2003    2.2098 H   0  0  0  0  0  0  0  0  0  0  0  0
   -1.6871   -2.6167    0.4820 H   0  0  0  0  0  0  0  0  0  0  0  0
   -0.9291    1.9511    0.4424 H   0  0  0  0  0  0  0  0  0  0  0  0
    3.2488   -0.6509    0.4443 H   0  0  0  0  0  0  0  0  0  0  0  0
    2.4728    5.0369   -0.4025 H   0  0  0  0  0  0  0  0  0  0  0  0
    4.8405    0.3449    0.0339 H   0  0  0  0  0  0  0  0  0  0  0  0
    5.3469    3.6902    1.0000 H   0  0  0  0  0  0  0  0  0  0  0  0
    7.4665    4.9239    0.8001 H   0  0  0  0  0  0  0  0  0  0  0  0
    9.3460    3.9512   -0.4562 H   0  0  0  0  0  0  0  0  0  0  0  0
    6.9972    0.4957   -1.3156 H   0  0  0  0  0  0  0  0  0  0  0  0
    1.1800   -0.7171    0.6661 N   0  3  0  0  0  0  0  0  0  0  0  0
    1.1533   -1.7297    0.8339 H   0  0  0  0  0  0  0  0  0  0  0  0
  1  2  1  0  0  0  0
  1 21  1  0  0  0  0
  1 22  1  0  0  0  0
  1 23  1  0  0  0  0
  2  3  1  0  0  0  0
  2  4  1  0  0  0  0
  3 24  1  0  0  0  0
  3 25  1  0  0  0  0
  3 26  1  0  0  0  0
  4  5  2  0  0  0  0
  4 35  1  0  0  0  0
  5  6  1  0  0  0  0
  5 27  1  0  0  0  0
  6 12  2  0  0  0  0
  6  7  1  0  0  0  0
  7  8  1  0  0  0  0
  7  9  2  0  0  0  0
  8 28  1  0  0  0  0
  8 35  2  0  0  0  0
  9 10  1  0  0  0  0
  9 13  1  0  0  0  0
 10 11  2  0  0  0  0
 11 12  1  0  0  0  0
 11 29  1  0  0  0  0
 13 14  1  0  0  0  0
 13 30  1  0  0  0  0
 14 19  2  0  0  0  0
 14 15  1  0  0  0  0
 15 16  2  0  0  0  0
 15 31  1  0  0  0  0
 16 17  1  0  0  0  0
 16 32  1  0  0  0  0
 17 18  2  0  0  0  0
 17 33  1  0  0  0  0
 18 19  1  0  0  0  0
 18 20  1  0  0  0  0
 19 34  1  0  0  0  0
 35 36  1  0  0  0  0
M  CHG  1  35   1
M  END
$$$$
ZINC03815034
  -OEChem-08230709403D

 30 32  0     0  0  0  0  0  0999 V2000
    5.9509    2.8072   -0.3308 C   0  0  0  0  0  0  0  0  0  0  0  0
    4.7731    3.5232   -0.4213 C   0  0  0  0  0  0  0  0  0  0  0  0
    3.5964    2.9895    0.0885 C   0  0  0  0  0  0  0  0  0  0  0  0
    3.6091    1.7390    0.6933 C   0  0  0  0  0  0  0  0  0  0  0  0
    4.7895    1.0256    0.7761 C   0  0  0  0  0  0  0  0  0  0  0  0
    5.9600    1.5607    0.2669 C   0  0  0  0  0  0  0  0  0  0  0  0
    4.8072   -0.6799    1.5926 Br  0  0  0  0  0  0  0  0  0  0  0  0
    2.4031    3.7117   -0.0018 N   0  0  0  0  0  0  0  0  0  0  0  0
    1.2034    3.0462   -0.1536 C   0  0  0  0  0  0  0  0  0  0  0  0
   -0.0265    3.7488   -0.1302 C   0  0  0  0  0  0  0  0  0  0  0  0
   -0.0854    5.1352    0.0458 C   0  0  0  0  0  0  0  0  0  0  0  0
   -1.3140    5.7636    0.0601 C   0  0  0  0  0  0  0  0  0  0  0  0
   -2.4918    5.0270   -0.1001 C   0  0  0  0  0  0  0  0  0  0  0  0
   -2.4555    3.6768   -0.2732 C   0  0  0  0  0  0  0  0  0  0  0  0
   -1.2232    3.0090   -0.2919 C   0  0  0  0  0  0  0  0  0  0  0  0
   -1.1403    1.6806   -0.4646 N   0  0  0  0  0  0  0  0  0  0  0  0
    0.0266    1.0823   -0.4730 C   0  0  0  0  0  0  0  0  0  0  0  0
    1.1708    1.7319   -0.3258 N   0  0  0  0  0  0  0  0  0  0  0  0
   -1.3817    7.1483    0.2364 N   0  0  0  0  0  0  0  0  0  0  0  0
    6.8660    3.2220   -0.7271 H   0  0  0  0  0  0  0  0  0  0  0  0
    4.7671    4.4969   -0.8885 H   0  0  0  0  0  0  0  0  0  0  0  0
    2.6968    1.3234    1.0950 H   0  0  0  0  0  0  0  0  0  0  0  0
    6.8824    1.0033    0.3370 H   0  0  0  0  0  0  0  0  0  0  0  0
    2.4181    4.6806    0.0422 H   0  0  0  0  0  0  0  0  0  0  0  0
    0.8217    5.7081    0.1705 H   0  0  0  0  0  0  0  0  0  0  0  0
   -3.4441    5.5363   -0.0862 H   0  0  0  0  0  0  0  0  0  0  0  0
   -3.3739    3.1218   -0.3952 H   0  0  0  0  0  0  0  0  0  0  0  0
    0.0558    0.0115   -0.6106 H   0  0  0  0  0  0  0  0  0  0  0  0
   -2.2430    7.5943    0.2471 H   0  0  0  0  0  0  0  0  0  0  0  0
   -0.5674    7.6634    0.3479 H   0  0  0  0  0  0  0  0  0  0  0  0
  1  6  2  0  0  0  0
  1  2  1  0  0  0  0
  1 20  1  0  0  0  0
  2  3  2  0  0  0  0
  2 21  1  0  0  0  0
  3  4  1  0  0  0  0
  3  8  1  0  0  0  0
  4  5  2  0  0  0  0
  4 22  1  0  0  0  0
  5  6  1  0  0  0  0
  5  7  1  0  0  0  0
  6 23  1  0  0  0  0
  8  9  1  0  0  0  0
  8 24  1  0  0  0  0
  9 18  2  0  0  0  0
  9 10  1  0  0  0  0
 10 15  2  0  0  0  0
 10 11  1  0  0  0  0
 11 12  2  0  0  0  0
 11 25  1  0  0  0  0
 12 13  1  0  0  0  0
 12 19  1  0  0  0  0
 13 14  2  0  0  0  0
 13 26  1  0  0  0  0
 14 15  1  0  0  0  0
 14 27  1  0  0  0  0
 15 16  1  0  0  0  0
 16 17  2  0  0  0  0
 17 18  1  0  0  0  0
 17 28  1  0  0  0  0
 19 29  1  0  0  0  0
 19 30  1  0  0  0  0
M  END
$$$$
ZINC03815035
  -OEChem-08230709403D

 30 32  0     0  0  0  0  0  0999 V2000
    4.0877   -4.5419    0.2273 C   0  0  0  0  0  0  0  0  0  0  0  0
    2.8497   -3.9414    0.3484 C   0  0  0  0  0  0  0  0  0  0  0  0
    2.6507   -2.6577   -0.1435 C   0  0  0  0  0  0  0  0  0  0  0  0
    3.6968   -1.9837   -0.7607 C   0  0  0  0  0  0  0  0  0  0  0  0
    4.9342   -2.5880   -0.8745 C   0  0  0  0  0  0  0  0  0  0  0  0
    5.1286   -3.8672   -0.3832 C   0  0  0  0  0  0  0  0  0  0  0  0
    6.3610   -1.6696   -1.7092 Br  0  0  0  0  0  0  0  0  0  0  0  0
    1.3990   -2.0477   -0.0227 N   0  0  0  0  0  0  0  0  0  0  0  0
    1.3107   -0.6807    0.1420 C   0  0  0  0  0  0  0  0  0  0  0  0
    0.0199    0.0007    0.1513 C   0  0  0  0  0  0  0  0  0  0  0  0
   -1.1978   -0.6656   -0.0016 C   0  0  0  0  0  0  0  0  0  0  0  0
   -2.3630    0.0813    0.0236 C   0  0  0  0  0  0  0  0  0  0  0  0
   -1.2204    2.0754    0.3421 C   0  0  0  0  0  0  0  0  0  0  0  0
    0.0114    1.4085    0.3253 C   0  0  0  0  0  0  0  0  0  0  0  0
    1.1830    2.0416    0.4719 N   0  0  0  0  0  0  0  0  0  0  0  0
    2.3130    1.3790    0.4556 C   0  0  0  0  0  0  0  0  0  0  0  0
    2.3967    0.0674    0.2979 N   0  0  0  0  0  0  0  0  0  0  0  0
   -3.5889   -0.5624   -0.1270 N   0  0  0  0  0  0  0  0  0  0  0  0
    4.2427   -5.5400    0.6097 H   0  0  0  0  0  0  0  0  0  0  0  0
    2.0373   -4.4693    0.8254 H   0  0  0  0  0  0  0  0  0  0  0  0
    3.5442   -0.9870   -1.1479 H   0  0  0  0  0  0  0  0  0  0  0  0
    6.0953   -4.3394   -0.4772 H   0  0  0  0  0  0  0  0  0  0  0  0
    0.5923   -2.5855   -0.0548 H   0  0  0  0  0  0  0  0  0  0  0  0
   -1.2297   -1.7368   -0.1359 H   0  0  0  0  0  0  0  0  0  0  0  0
   -1.2521    3.1469    0.4732 H   0  0  0  0  0  0  0  0  0  0  0  0
    3.2303    1.9357    0.5779 H   0  0  0  0  0  0  0  0  0  0  0  0
   -3.6199   -1.5243   -0.2480 H   0  0  0  0  0  0  0  0  0  0  0  0
   -4.4116   -0.0488   -0.1109 H   0  0  0  0  0  0  0  0  0  0  0  0
   -2.4118    1.4432    0.1898 N   0  3  0  0  0  0  0  0  0  0  0  0
   -3.3014    1.9559    0.1983 H   0  0  0  0  0  0  0  0  0  0  0  0
  1  6  2  0  0  0  0
  1  2  1  0  0  0  0
  1 19  1  0  0  0  0
  2  3  2  0  0  0  0
  2 20  1  0  0  0  0
  3  4  1  0  0  0  0
  3  8  1  0  0  0  0
  4  5  2  0  0  0  0
  4 21  1  0  0  0  0
  5  6  1  0  0  0  0
  5  7  1  0  0  0  0
  6 22  1  0  0  0  0
  8  9  1  0  0  0  0
  8 23  1  0  0  0  0
  9 17  2  0  0  0  0
  9 10  1  0  0  0  0
 10 14  2  0  0  0  0
 10 11  1  0  0  0  0
 11 12  2  0  0  0  0
 11 24  1  0  0  0  0
 12 18  1  0  0  0  0
 12 29  1  0  0  0  0
 13 14  1  0  0  0  0
 13 25  1  0  0  0  0
 13 29  2  0  0  0  0
 14 15  1  0  0  0  0
 15 16  2  0  0  0  0
 16 17  1  0  0  0  0
 16 26  1  0  0  0  0
 18 27  1  0  0  0  0
 18 28  1  0  0  0  0
 29 30  1  0  0  0  0
M  CHG  1  29   1
M  END
$$$$
ZINC03815036
  -OEChem-08230709403D

 29 31  0     0  0  0  0  0  0999 V2000
   -5.9286   -1.2296    0.3409 C   0  0  0  0  0  0  0  0  0  0  0  0
   -4.7836   -0.4634    0.4406 C   0  0  0  0  0  0  0  0  0  0  0  0
   -3.5844   -0.9383   -0.0748 C   0  0  0  0  0  0  0  0  0  0  0  0
   -3.5416   -2.1810   -0.6940 C   0  0  0  0  0  0  0  0  0  0  0  0
   -4.6894   -2.9446   -0.7868 C   0  0  0  0  0  0  0  0  0  0  0  0
   -5.8824   -2.4682   -0.2716 C   0  0  0  0  0  0  0  0  0  0  0  0
   -4.6318   -4.6388   -1.6247 Br  0  0  0  0  0  0  0  0  0  0  0  0
   -2.4244   -0.1648    0.0243 N   0  0  0  0  0  0  0  0  0  0  0  0
   -1.1971   -0.7777    0.1688 C   0  0  0  0  0  0  0  0  0  0  0  0
   -0.0002   -0.0218    0.1540 C   0  0  0  0  0  0  0  0  0  0  0  0
    0.0002    1.3693   -0.0070 C   0  0  0  0  0  0  0  0  0  0  0  0
    1.2225    2.0205   -0.0087 C   0  0  0  0  0  0  0  0  0  0  0  0
    2.3979    1.2808    0.1479 C   0  0  0  0  0  0  0  0  0  0  0  0
    2.3768   -0.0232    0.2976 N   0  0  0  0  0  0  0  0  0  0  0  0
    1.2312   -0.7046    0.3074 C   0  0  0  0  0  0  0  0  0  0  0  0
    1.2064   -2.0378    0.4598 N   0  0  0  0  0  0  0  0  0  0  0  0
    0.0674   -2.6883    0.4659 C   0  0  0  0  0  0  0  0  0  0  0  0
   -1.1055   -2.0920    0.3265 N   0  0  0  0  0  0  0  0  0  0  0  0
    1.2803    3.4086   -0.1664 N   0  0  0  0  0  0  0  0  0  0  0  0
   -6.8611   -0.8606    0.7416 H   0  0  0  0  0  0  0  0  0  0  0  0
   -4.8208    0.5041    0.9193 H   0  0  0  0  0  0  0  0  0  0  0  0
   -2.6116   -2.5513   -1.0995 H   0  0  0  0  0  0  0  0  0  0  0  0
   -6.7791   -3.0651   -0.3485 H   0  0  0  0  0  0  0  0  0  0  0  0
   -2.4824    0.8029   -0.0086 H   0  0  0  0  0  0  0  0  0  0  0  0
   -0.9229    1.9163   -0.1305 H   0  0  0  0  0  0  0  0  0  0  0  0
    3.3477    1.7949    0.1453 H   0  0  0  0  0  0  0  0  0  0  0  0
    0.0879   -3.7608    0.5909 H   0  0  0  0  0  0  0  0  0  0  0  0
    0.4625    3.9188   -0.2752 H   0  0  0  0  0  0  0  0  0  0  0  0
    2.1381    3.8614   -0.1671 H   0  0  0  0  0  0  0  0  0  0  0  0
  1  6  2  0  0  0  0
  1  2  1  0  0  0  0
  1 20  1  0  0  0  0
  2  3  2  0  0  0  0
  2 21  1  0  0  0  0
  3  4  1  0  0  0  0
  3  8  1  0  0  0  0
  4  5  2  0  0  0  0
  4 22  1  0  0  0  0
  5  6  1  0  0  0  0
  5  7  1  0  0  0  0
  6 23  1  0  0  0  0
  8  9  1  0  0  0  0
  8 24  1  0  0  0  0
  9 18  2  0  0  0  0
  9 10  1  0  0  0  0
 10 15  2  0  0  0  0
 10 11  1  0  0  0  0
 11 12  2  0  0  0  0
 11 25  1  0  0  0  0
 12 13  1  0  0  0  0
 12 19  1  0  0  0  0
 13 14  2  0  0  0  0
 13 26  1  0  0  0  0
 14 15  1  0  0  0  0
 15 16  1  0  0  0  0
 16 17  2  0  0  0  0
 17 18  1  0  0  0  0
 17 27  1  0  0  0  0
 19 28  1  0  0  0  0
 19 29  1  0  0  0  0
M  END
$$$$
ZINC03815037
  -OEChem-08230709403D

 33 35  0     0  0  0  0  0  0999 V2000
    1.3484   -4.7911    0.8377 C   0  0  0  0  0  0  0  0  0  0  0  0
    2.5612   -3.9694    0.8356 N   0  0  0  0  0  0  0  0  0  0  0  0
    2.4720   -2.6003    0.6204 C   0  0  0  0  0  0  0  0  0  0  0  0
    1.2299   -2.0292    0.4098 C   0  0  0  0  0  0  0  0  0  0  0  0
    1.1580   -0.6486    0.1946 C   0  0  0  0  0  0  0  0  0  0  0  0
    2.3673    0.0969    0.2036 C   0  0  0  0  0  0  0  0  0  0  0  0
    3.5750   -0.5685    0.4254 C   0  0  0  0  0  0  0  0  0  0  0  0
    2.2915    1.4922   -0.0143 C   0  0  0  0  0  0  0  0  0  0  0  0
    1.0937    2.0291   -0.2162 N   0  0  0  0  0  0  0  0  0  0  0  0
   -0.0056    1.2930   -0.2154 C   0  0  0  0  0  0  0  0  0  0  0  0
    0.0030   -0.0056   -0.0184 N   0  0  0  0  0  0  0  0  0  0  0  0
    3.4280    2.2722   -0.0180 N   0  0  0  0  0  0  0  0  0  0  0  0
    3.3212    3.6627   -0.1146 C   0  0  0  0  0  0  0  0  0  0  0  0
    2.2594    4.3230    0.4911 C   0  0  0  0  0  0  0  0  0  0  0  0
    2.1566    5.6966    0.3945 C   0  0  0  0  0  0  0  0  0  0  0  0
    3.1093    6.4157   -0.3040 C   0  0  0  0  0  0  0  0  0  0  0  0
    4.1680    5.7616   -0.9086 C   0  0  0  0  0  0  0  0  0  0  0  0
    4.2791    4.3874   -0.8114 C   0  0  0  0  0  0  0  0  0  0  0  0
    5.4681    6.7494   -1.8625 Br  0  0  0  0  0  0  0  0  0  0  0  0
    1.6150   -5.8320    1.0212 H   0  0  0  0  0  0  0  0  0  0  0  0
    0.6760   -4.4445    1.6225 H   0  0  0  0  0  0  0  0  0  0  0  0
    0.8517   -4.7083   -0.1290 H   0  0  0  0  0  0  0  0  0  0  0  0
    3.4266   -4.3816    0.9845 H   0  0  0  0  0  0  0  0  0  0  0  0
    0.3360   -2.6352    0.4111 H   0  0  0  0  0  0  0  0  0  0  0  0
    4.5024   -0.0151    0.4350 H   0  0  0  0  0  0  0  0  0  0  0  0
   -0.9530    1.7815   -0.3890 H   0  0  0  0  0  0  0  0  0  0  0  0
    4.3019    1.8563    0.0464 H   0  0  0  0  0  0  0  0  0  0  0  0
    1.5149    3.7624    1.0368 H   0  0  0  0  0  0  0  0  0  0  0  0
    1.3313    6.2102    0.8653 H   0  0  0  0  0  0  0  0  0  0  0  0
    3.0268    7.4900   -0.3774 H   0  0  0  0  0  0  0  0  0  0  0  0
    5.1079    3.8775   -1.2799 H   0  0  0  0  0  0  0  0  0  0  0  0
    3.6583   -1.9074    0.6355 N   0  3  0  0  0  0  0  0  0  0  0  0
    4.5576   -2.3758    0.7966 H   0  0  0  0  0  0  0  0  0  0  0  0
  1  2  1  0  0  0  0
  1 20  1  0  0  0  0
  1 21  1  0  0  0  0
  1 22  1  0  0  0  0
  2  3  1  0  0  0  0
  2 23  1  0  0  0  0
  3  4  2  0  0  0  0
  3 32  1  0  0  0  0
  4  5  1  0  0  0  0
  4 24  1  0  0  0  0
  5 11  2  0  0  0  0
  5  6  1  0  0  0  0
  6  7  1  0  0  0  0
  6  8  2  0  0  0  0
  7 25  1  0  0  0  0
  7 32  2  0  0  0  0
  8  9  1  0  0  0  0
  8 12  1  0  0  0  0
  9 10  2  0  0  0  0
 10 11  1  0  0  0  0
 10 26  1  0  0  0  0
 12 13  1  0  0  0  0
 12 27  1  0  0  0  0
 13 18  2  0  0  0  0
 13 14  1  0  0  0  0
 14 15  2  0  0  0  0
 14 28  1  0  0  0  0
 15 16  1  0  0  0  0
 15 29  1  0  0  0  0
 16 17  2  0  0  0  0
 16 30  1  0  0  0  0
 17 18  1  0  0  0  0
 17 19  1  0  0  0  0
 18 31  1  0  0  0  0
 32 33  1  0  0  0  0
M  CHG  1  32   1
M  END
$$$$
ZINC03815038
  -OEChem-08230709403D

 30 32  0     0  0  0  0  0  0999 V2000
    4.3673   -4.4187   -0.3516 C   0  0  0  0  0  0  0  0  0  0  0  0
    4.4335   -3.0425   -0.4508 C   0  0  0  0  0  0  0  0  0  0  0  0
    3.4077   -2.2601    0.0638 C   0  0  0  0  0  0  0  0  0  0  0  0
    2.3205   -2.8645    0.6822 C   0  0  0  0  0  0  0  0  0  0  0  0
    2.2576   -4.2417    0.7736 C   0  0  0  0  0  0  0  0  0  0  0  0
    3.2818   -5.0180    0.2597 C   0  0  0  0  0  0  0  0  0  0  0  0
    0.7749   -5.0664    1.6087 Br  0  0  0  0  0  0  0  0  0  0  0  0
    3.4720   -0.8674   -0.0353 N   0  0  0  0  0  0  0  0  0  0  0  0
    2.3130   -0.1315   -0.1808 C   0  0  0  0  0  0  0  0  0  0  0  0
    2.3441    1.2832   -0.1658 C   0  0  0  0  0  0  0  0  0  0  0  0
    3.5385    1.9962   -0.0044 C   0  0  0  0  0  0  0  0  0  0  0  0
    3.5153    3.3616    0.0035 C   0  0  0  0  0  0  0  0  0  0  0  0
    2.3081    4.0586   -0.1483 C   0  0  0  0  0  0  0  0  0  0  0  0
    1.1200    3.3810   -0.3081 C   0  0  0  0  0  0  0  0  0  0  0  0
    1.1205    1.9805   -0.3197 C   0  0  0  0  0  0  0  0  0  0  0  0
   -0.0100    1.2731   -0.4722 N   0  0  0  0  0  0  0  0  0  0  0  0
    0.0218   -0.0383   -0.4781 C   0  0  0  0  0  0  0  0  0  0  0  0
    1.1404   -0.7317   -0.3380 N   0  0  0  0  0  0  0  0  0  0  0  0
    2.3105    5.4170   -0.1371 O   0  0  0  0  0  0  0  0  0  0  0  0
    4.6756    4.0530    0.1608 O   0  0  0  0  0  0  0  0  0  0  0  0
    5.1649   -5.0272   -0.7516 H   0  0  0  0  0  0  0  0  0  0  0  0
    5.2820   -2.5753   -0.9285 H   0  0  0  0  0  0  0  0  0  0  0  0
    1.5235   -2.2587    1.0876 H   0  0  0  0  0  0  0  0  0  0  0  0
    3.2329   -6.0941    0.3365 H   0  0  0  0  0  0  0  0  0  0  0  0
    4.3309   -0.4179   -0.0018 H   0  0  0  0  0  0  0  0  0  0  0  0
    4.4735    1.4687    0.1136 H   0  0  0  0  0  0  0  0  0  0  0  0
    0.1946    3.9255   -0.4244 H   0  0  0  0  0  0  0  0  0  0  0  0
   -0.9062   -0.5762   -0.6034 H   0  0  0  0  0  0  0  0  0  0  0  0
    2.4254    5.8173   -1.0099 H   0  0  0  0  0  0  0  0  0  0  0  0
    5.1258    4.2600   -0.6697 H   0  0  0  0  0  0  0  0  0  0  0  0
  1  6  2  0  0  0  0
  1  2  1  0  0  0  0
  1 21  1  0  0  0  0
  2  3  2  0  0  0  0
  2 22  1  0  0  0  0
  3  4  1  0  0  0  0
  3  8  1  0  0  0  0
  4  5  2  0  0  0  0
  4 23  1  0  0  0  0
  5  6  1  0  0  0  0
  5  7  1  0  0  0  0
  6 24  1  0  0  0  0
  8  9  1  0  0  0  0
  8 25  1  0  0  0  0
  9 18  2  0  0  0  0
  9 10  1  0  0  0  0
 10 15  2  0  0  0  0
 10 11  1  0  0  0  0
 11 12  2  0  0  0  0
 11 26  1  0  0  0  0
 12 13  1  0  0  0  0
 12 20  1  0  0  0  0
 13 14  2  0  0  0  0
 13 19  1  0  0  0  0
 14 15  1  0  0  0  0
 14 27  1  0  0  0  0
 15 16  1  0  0  0  0
 16 17  2  0  0  0  0
 17 18  1  0  0  0  0
 17 28  1  0  0  0  0
 19 29  1  0  0  0  0
 20 30  1  0  0  0  0
M  END
$$$$
ZINC03815039
  -OEChem-08230709403D

 48 50  0     0  0  0  0  0  0999 V2000
   -1.2414   10.0061   -0.6347 C   0  0  0  0  0  0  0  0  0  0  0  0
    0.1109    9.3092   -0.4715 C   0  0  0  0  0  0  0  0  0  0  0  0
   -0.1078    7.8040   -0.3063 C   0  0  0  0  0  0  0  0  0  0  0  0
    1.1552    7.1531   -0.1539 O   0  0  0  0  0  0  0  0  0  0  0  0
    1.1386    5.8027    0.0051 C   0  0  0  0  0  0  0  0  0  0  0  0
   -0.0548    5.1381    0.0126 C   0  0  0  0  0  0  0  0  0  0  0  0
   -0.0731    3.7478    0.1757 C   0  0  0  0  0  0  0  0  0  0  0  0
    1.1438    3.0387    0.3318 C   0  0  0  0  0  0  0  0  0  0  0  0
    2.3554    3.7401    0.3210 C   0  0  0  0  0  0  0  0  0  0  0  0
    2.3464    5.1079    0.1589 C   0  0  0  0  0  0  0  0  0  0  0  0
    3.5206    5.7910    0.1476 O   0  0  0  0  0  0  0  0  0  0  0  0
    4.7172    5.0268    0.3090 C   0  0  0  0  0  0  0  0  0  0  0  0
    5.9282    5.9611    0.2700 C   0  0  0  0  0  0  0  0  0  0  0  0
    7.2094    5.1429    0.4428 C   0  0  0  0  0  0  0  0  0  0  0  0
    1.0981    1.7061    0.4869 N   0  0  0  0  0  0  0  0  0  0  0  0
   -0.0526    1.0764    0.4933 C   0  0  0  0  0  0  0  0  0  0  0  0
   -1.2130    1.6959    0.3462 N   0  0  0  0  0  0  0  0  0  0  0  0
   -1.2817    3.0116    0.1913 C   0  0  0  0  0  0  0  0  0  0  0  0
   -2.4993    3.6452    0.0437 N   0  0  0  0  0  0  0  0  0  0  0  0
   -3.6722    2.8912   -0.0546 C   0  0  0  0  0  0  0  0  0  0  0  0
   -4.8637    3.3870    0.4598 C   0  0  0  0  0  0  0  0  0  0  0  0
   -6.0210    2.6401    0.3609 C   0  0  0  0  0  0  0  0  0  0  0  0
   -5.9952    1.3994   -0.2496 C   0  0  0  0  0  0  0  0  0  0  0  0
   -4.8106    0.9025   -0.7635 C   0  0  0  0  0  0  0  0  0  0  0  0
   -3.6499    1.6474   -0.6718 C   0  0  0  0  0  0  0  0  0  0  0  0
   -4.7809   -0.7942   -1.5978 Br  0  0  0  0  0  0  0  0  0  0  0  0
   -1.0856   11.0785   -0.7524 H   0  0  0  0  0  0  0  0  0  0  0  0
   -1.7483    9.6137   -1.5162 H   0  0  0  0  0  0  0  0  0  0  0  0
   -1.8535    9.8227    0.2483 H   0  0  0  0  0  0  0  0  0  0  0  0
    0.6179    9.7017    0.4100 H   0  0  0  0  0  0  0  0  0  0  0  0
    0.7231    9.4927   -1.3545 H   0  0  0  0  0  0  0  0  0  0  0  0
   -0.6147    7.4116   -1.1878 H   0  0  0  0  0  0  0  0  0  0  0  0
   -0.7199    7.6205    0.5767 H   0  0  0  0  0  0  0  0  0  0  0  0
   -0.9799    5.6825   -0.1070 H   0  0  0  0  0  0  0  0  0  0  0  0
    3.2904    3.2126    0.4392 H   0  0  0  0  0  0  0  0  0  0  0  0
    4.6900    4.5070    1.2667 H   0  0  0  0  0  0  0  0  0  0  0  0
    4.7945    4.2980   -0.4979 H   0  0  0  0  0  0  0  0  0  0  0  0
    5.9554    6.4809   -0.6877 H   0  0  0  0  0  0  0  0  0  0  0  0
    5.8509    6.6899    1.0769 H   0  0  0  0  0  0  0  0  0  0  0  0
    7.1822    4.6231    1.4005 H   0  0  0  0  0  0  0  0  0  0  0  0
    7.2867    4.4142   -0.3640 H   0  0  0  0  0  0  0  0  0  0  0  0
    8.0721    5.8086    0.4151 H   0  0  0  0  0  0  0  0  0  0  0  0
   -0.0529    0.0039    0.6200 H   0  0  0  0  0  0  0  0  0  0  0  0
   -2.5410    4.6137    0.0083 H   0  0  0  0  0  0  0  0  0  0  0  0
   -4.8848    4.3556    0.9371 H   0  0  0  0  0  0  0  0  0  0  0  0
   -6.9474    3.0254    0.7604 H   0  0  0  0  0  0  0  0  0  0  0  0
   -6.9018    0.8174   -0.3256 H   0  0  0  0  0  0  0  0  0  0  0  0
   -2.7261    1.2609   -1.0764 H   0  0  0  0  0  0  0  0  0  0  0  0
  1  2  1  0  0  0  0
  1 27  1  0  0  0  0
  1 28  1  0  0  0  0
  1 29  1  0  0  0  0
  2  3  1  0  0  0  0
  2 30  1  0  0  0  0
  2 31  1  0  0  0  0
  3  4  1  0  0  0  0
  3 32  1  0  0  0  0
  3 33  1  0  0  0  0
  4  5  1  0  0  0  0
  5 10  2  0  0  0  0
  5  6  1  0  0  0  0
  6  7  2  0  0  0  0
  6 34  1  0  0  0  0
  7 18  1  0  0  0  0
  7  8  1  0  0  0  0
  8  9  2  0  0  0  0
  8 15  1  0  0  0  0
  9 10  1  0  0  0  0
  9 35  1  0  0  0  0
 10 11  1  0  0  0  0
 11 12  1  0  0  0  0
 12 13  1  0  0  0  0
 12 36  1  0  0  0  0
 12 37  1  0  0  0  0
 13 14  1  0  0  0  0
 13 38  1  0  0  0  0
 13 39  1  0  0  0  0
 14 40  1  0  0  0  0
 14 41  1  0  0  0  0
 14 42  1  0  0  0  0
 15 16  2  0  0  0  0
 16 17  1  0  0  0  0
 16 43  1  0  0  0  0
 17 18  2  0  0  0  0
 18 19  1  0  0  0  0
 19 20  1  0  0  0  0
 19 44  1  0  0  0  0
 20 25  2  0  0  0  0
 20 21  1  0  0  0  0
 21 22  2  0  0  0  0
 21 45  1  0  0  0  0
 22 23  1  0  0  0  0
 22 46  1  0  0  0  0
 23 24  2  0  0  0  0
 23 47  1  0  0  0  0
 24 25  1  0  0  0  0
 24 26  1  0  0  0  0
 25 48  1  0  0  0  0
M  END
$$$$
ZINC03815040
  -OEChem-08230709403D

 41 43  0     1  0  0  0  0  0999 V2000
    3.2477    7.8488    0.3032 C   0  0  0  0  0  0  0  0  0  0  0  0
    3.3146    6.4726    0.4008 C   0  0  0  0  0  0  0  0  0  0  0  0
    2.2783    5.6913   -0.0942 C   0  0  0  0  0  0  0  0  0  0  0  0
    1.1797    6.2968   -0.6910 C   0  0  0  0  0  0  0  0  0  0  0  0
    1.1164    7.6741   -0.7808 C   0  0  0  0  0  0  0  0  0  0  0  0
    2.1509    8.4493   -0.2864 C   0  0  0  0  0  0  0  0  0  0  0  0
   -0.3817    8.5003   -1.5864 Br  0  0  0  0  0  0  0  0  0  0  0  0
    2.3435    4.2984    0.0028 N   0  0  0  0  0  0  0  0  0  0  0  0
    1.1874    3.5634    0.1663 C   0  0  0  0  0  0  0  0  0  0  0  0
    1.2075    2.1039    0.1512 C   0  0  0  0  0  0  0  0  0  0  0  0
    2.3743    1.3571   -0.0248 C   0  0  0  0  0  0  0  0  0  0  0  0
    2.2768   -0.0238   -0.0226 C   0  0  0  0  0  0  0  0  0  0  0  0
   -0.0184    0.0184    0.3137 C   0  0  0  0  0  0  0  0  0  0  0  0
   -0.0225    1.4193    0.3255 C   0  0  0  0  0  0  0  0  0  0  0  0
   -1.1372    2.1418    0.4998 N   0  0  0  0  0  0  0  0  0  0  0  0
   -1.0977    3.4512    0.4999 C   0  0  0  0  0  0  0  0  0  0  0  0
    0.0120    4.1556    0.3433 N   0  0  0  0  0  0  0  0  0  0  0  0
    3.4275   -0.7887   -0.1973 N   0  0  0  0  0  0  0  0  0  0  0  0
    4.7235   -0.1308   -0.3815 C   0  0  0  0  0  0  0  0  0  0  0  0
    5.8141   -1.1906   -0.5499 C   0  0  1  0  0  0  0  0  0  0  0  0
    5.5916   -1.8055   -1.4220 H   0  0  0  0  0  0  0  0  0  0  0  0
    7.1675   -0.5035   -0.7422 C   0  0  0  0  0  0  0  0  0  0  0  0
    8.1669   -1.4877   -1.0154 O   0  0  0  0  0  0  0  0  0  0  0  0
    5.8603   -2.0160    0.6157 O   0  0  0  0  0  0  0  0  0  0  0  0
    4.0535    8.4565    0.6877 H   0  0  0  0  0  0  0  0  0  0  0  0
    4.1717    6.0045    0.8619 H   0  0  0  0  0  0  0  0  0  0  0  0
    0.3744    5.6919   -1.0808 H   0  0  0  0  0  0  0  0  0  0  0  0
    2.1013    9.5255   -0.3617 H   0  0  0  0  0  0  0  0  0  0  0  0
    3.2016    3.8486   -0.0449 H   0  0  0  0  0  0  0  0  0  0  0  0
    3.3284    1.8445   -0.1604 H   0  0  0  0  0  0  0  0  0  0  0  0
   -0.9426   -0.5249    0.4444 H   0  0  0  0  0  0  0  0  0  0  0  0
   -2.0246    3.9876    0.6396 H   0  0  0  0  0  0  0  0  0  0  0  0
    3.3709   -1.7570   -0.1971 H   0  0  0  0  0  0  0  0  0  0  0  0
    4.6882    0.4988   -1.2706 H   0  0  0  0  0  0  0  0  0  0  0  0
    4.9460    0.4841    0.4906 H   0  0  0  0  0  0  0  0  0  0  0  0
    7.1058    0.1933   -1.5782 H   0  0  0  0  0  0  0  0  0  0  0  0
    7.4313    0.0401    0.1650 H   0  0  0  0  0  0  0  0  0  0  0  0
    9.0524   -1.1227   -1.1486 H   0  0  0  0  0  0  0  0  0  0  0  0
    6.0541   -1.5341    1.4314 H   0  0  0  0  0  0  0  0  0  0  0  0
    1.1063   -0.7218    0.1429 N   0  3  0  0  0  0  0  0  0  0  0  0
    1.0830   -1.7482    0.1377 H   0  0  0  0  0  0  0  0  0  0  0  0
  1  6  2  0  0  0  0
  1  2  1  0  0  0  0
  1 25  1  0  0  0  0
  2  3  2  0  0  0  0
  2 26  1  0  0  0  0
  3  4  1  0  0  0  0
  3  8  1  0  0  0  0
  4  5  2  0  0  0  0
  4 27  1  0  0  0  0
  5  6  1  0  0  0  0
  5  7  1  0  0  0  0
  6 28  1  0  0  0  0
  8  9  1  0  0  0  0
  8 29  1  0  0  0  0
  9 17  2  0  0  0  0
  9 10  1  0  0  0  0
 10 14  2  0  0  0  0
 10 11  1  0  0  0  0
 11 12  2  0  0  0  0
 11 30  1  0  0  0  0
 12 18  1  0  0  0  0
 12 40  1  0  0  0  0
 13 14  1  0  0  0  0
 13 31  1  0  0  0  0
 13 40  2  0  0  0  0
 14 15  1  0  0  0  0
 15 16  2  0  0  0  0
 16 17  1  0  0  0  0
 16 32  1  0  0  0  0
 18 19  1  0  0  0  0
 18 33  1  0  0  0  0
 19 20  1  0  0  0  0
 19 34  1  0  0  0  0
 19 35  1  0  0  0  0
 20 21  1  0  0  0  0
 20 22  1  0  0  0  0
 20 24  1  0  0  0  0
 22 23  1  0  0  0  0
 22 36  1  0  0  0  0
 22 37  1  0  0  0  0
 23 38  1  0  0  0  0
 24 39  1  0  0  0  0
 40 41  1  0  0  0  0
M  CHG  1  40   1
M  END
$$$$
ZINC03815041
  -OEChem-08230709403D

 37 39  0     0  0  0  0  0  0999 V2000
    4.0877   -4.5419    0.2273 C   0  0  0  0  0  0  0  0  0  0  0  0
    2.8497   -3.9414    0.3484 C   0  0  0  0  0  0  0  0  0  0  0  0
    2.6507   -2.6577   -0.1435 C   0  0  0  0  0  0  0  0  0  0  0  0
    3.6968   -1.9837   -0.7607 C   0  0  0  0  0  0  0  0  0  0  0  0
    4.9342   -2.5880   -0.8745 C   0  0  0  0  0  0  0  0  0  0  0  0
    5.1286   -3.8672   -0.3832 C   0  0  0  0  0  0  0  0  0  0  0  0
    6.3610   -1.6696   -1.7092 Br  0  0  0  0  0  0  0  0  0  0  0  0
    1.3990   -2.0477   -0.0227 N   0  0  0  0  0  0  0  0  0  0  0  0
    1.3107   -0.6807    0.1420 C   0  0  0  0  0  0  0  0  0  0  0  0
    0.0199    0.0007    0.1513 C   0  0  0  0  0  0  0  0  0  0  0  0
   -1.1978   -0.6656   -0.0016 C   0  0  0  0  0  0  0  0  0  0  0  0
   -2.3630    0.0813    0.0236 C   0  0  0  0  0  0  0  0  0  0  0  0
   -1.2204    2.0754    0.3421 C   0  0  0  0  0  0  0  0  0  0  0  0
    0.0114    1.4085    0.3253 C   0  0  0  0  0  0  0  0  0  0  0  0
    1.1830    2.0416    0.4719 N   0  0  0  0  0  0  0  0  0  0  0  0
    2.3130    1.3790    0.4556 C   0  0  0  0  0  0  0  0  0  0  0  0
    2.3967    0.0674    0.2979 N   0  0  0  0  0  0  0  0  0  0  0  0
   -3.5889   -0.5624   -0.1270 N   0  0  0  0  0  0  0  0  0  0  0  0
   -3.6357   -2.0152   -0.3097 C   0  0  0  0  0  0  0  0  0  0  0  0
   -5.0914   -2.4649   -0.4496 C   0  0  0  0  0  0  0  0  0  0  0  0
   -5.6469   -1.9153   -1.6460 O   0  0  0  0  0  0  0  0  0  0  0  0
    4.2427   -5.5400    0.6097 H   0  0  0  0  0  0  0  0  0  0  0  0
    2.0373   -4.4693    0.8254 H   0  0  0  0  0  0  0  0  0  0  0  0
    3.5442   -0.9870   -1.1479 H   0  0  0  0  0  0  0  0  0  0  0  0
    6.0953   -4.3394   -0.4772 H   0  0  0  0  0  0  0  0  0  0  0  0
    0.5923   -2.5855   -0.0548 H   0  0  0  0  0  0  0  0  0  0  0  0
   -1.2297   -1.7368   -0.1359 H   0  0  0  0  0  0  0  0  0  0  0  0
   -1.2521    3.1469    0.4732 H   0  0  0  0  0  0  0  0  0  0  0  0
    3.2303    1.9357    0.5779 H   0  0  0  0  0  0  0  0  0  0  0  0
   -4.4116   -0.0488   -0.1109 H   0  0  0  0  0  0  0  0  0  0  0  0
   -3.0837   -2.2862   -1.2097 H   0  0  0  0  0  0  0  0  0  0  0  0
   -3.1856   -2.5047    0.5539 H   0  0  0  0  0  0  0  0  0  0  0  0
   -5.1326   -3.5531   -0.4964 H   0  0  0  0  0  0  0  0  0  0  0  0
   -5.6636   -2.1164    0.4102 H   0  0  0  0  0  0  0  0  0  0  0  0
   -6.5699   -2.1596   -1.7995 H   0  0  0  0  0  0  0  0  0  0  0  0
   -2.4118    1.4432    0.1898 N   0  3  0  0  0  0  0  0  0  0  0  0
   -3.3014    1.9559    0.1983 H   0  0  0  0  0  0  0  0  0  0  0  0
  1  6  2  0  0  0  0
  1  2  1  0  0  0  0
  1 22  1  0  0  0  0
  2  3  2  0  0  0  0
  2 23  1  0  0  0  0
  3  4  1  0  0  0  0
  3  8  1  0  0  0  0
  4  5  2  0  0  0  0
  4 24  1  0  0  0  0
  5  6  1  0  0  0  0
  5  7  1  0  0  0  0
  6 25  1  0  0  0  0
  8  9  1  0  0  0  0
  8 26  1  0  0  0  0
  9 17  2  0  0  0  0
  9 10  1  0  0  0  0
 10 14  2  0  0  0  0
 10 11  1  0  0  0  0
 11 12  2  0  0  0  0
 11 27  1  0  0  0  0
 12 18  1  0  0  0  0
 12 36  1  0  0  0  0
 13 14  1  0  0  0  0
 13 28  1  0  0  0  0
 13 36  2  0  0  0  0
 14 15  1  0  0  0  0
 15 16  2  0  0  0  0
 16 17  1  0  0  0  0
 16 29  1  0  0  0  0
 18 19  1  0  0  0  0
 18 30  1  0  0  0  0
 19 20  1  0  0  0  0
 19 31  1  0  0  0  0
 19 32  1  0  0  0  0
 20 21  1  0  0  0  0
 20 33  1  0  0  0  0
 20 34  1  0  0  0  0
 21 35  1  0  0  0  0
 36 37  1  0  0  0  0
M  CHG  1  36   1
M  END
$$$$
ZINC03815042
  -OEChem-08230709403D

 33 35  0     0  0  0  0  0  0999 V2000
   -3.6357   -2.0147   -0.3098 C   0  0  0  0  0  0  0  0  0  0  0  0
   -3.5888   -0.5619   -0.1270 N   0  0  0  0  0  0  0  0  0  0  0  0
   -2.3630    0.0818    0.0237 C   0  0  0  0  0  0  0  0  0  0  0  0
   -1.1975   -0.6655   -0.0016 C   0  0  0  0  0  0  0  0  0  0  0  0
    0.0199    0.0007    0.1514 C   0  0  0  0  0  0  0  0  0  0  0  0
    0.0114    1.4088    0.3255 C   0  0  0  0  0  0  0  0  0  0  0  0
   -1.2200    2.0755    0.3423 C   0  0  0  0  0  0  0  0  0  0  0  0
    1.1832    2.0418    0.4721 N   0  0  0  0  0  0  0  0  0  0  0  0
    2.3130    1.3791    0.4557 C   0  0  0  0  0  0  0  0  0  0  0  0
    2.3968    0.0676    0.2980 N   0  0  0  0  0  0  0  0  0  0  0  0
    1.3108   -0.6806    0.1420 C   0  0  0  0  0  0  0  0  0  0  0  0
    1.3992   -2.0477   -0.0228 N   0  0  0  0  0  0  0  0  0  0  0  0
    2.6510   -2.6575   -0.1435 C   0  0  0  0  0  0  0  0  0  0  0  0
    2.8501   -3.9416    0.3486 C   0  0  0  0  0  0  0  0  0  0  0  0
    4.0878   -4.5418    0.2280 C   0  0  0  0  0  0  0  0  0  0  0  0
    5.1294   -3.8666   -0.3817 C   0  0  0  0  0  0  0  0  0  0  0  0
    4.9349   -2.5878   -0.8734 C   0  0  0  0  0  0  0  0  0  0  0  0
    3.6967   -1.9836   -0.7605 C   0  0  0  0  0  0  0  0  0  0  0  0
    6.2451   -1.7442   -1.6386 Cl  0  0  0  0  0  0  0  0  0  0  0  0
   -4.6728   -2.3350   -0.4094 H   0  0  0  0  0  0  0  0  0  0  0  0
   -3.0837   -2.2856   -1.2097 H   0  0  0  0  0  0  0  0  0  0  0  0
   -3.1856   -2.5043    0.5538 H   0  0  0  0  0  0  0  0  0  0  0  0
   -4.4115   -0.0483   -0.1108 H   0  0  0  0  0  0  0  0  0  0  0  0
   -1.2293   -1.7366   -0.1359 H   0  0  0  0  0  0  0  0  0  0  0  0
   -1.2516    3.1471    0.4734 H   0  0  0  0  0  0  0  0  0  0  0  0
    3.2304    1.9358    0.5781 H   0  0  0  0  0  0  0  0  0  0  0  0
    0.5925   -2.5854   -0.0548 H   0  0  0  0  0  0  0  0  0  0  0  0
    2.0375   -4.4697    0.8252 H   0  0  0  0  0  0  0  0  0  0  0  0
    4.2426   -5.5400    0.6101 H   0  0  0  0  0  0  0  0  0  0  0  0
    6.0964   -4.3385   -0.4746 H   0  0  0  0  0  0  0  0  0  0  0  0
    3.5439   -0.9871   -1.1479 H   0  0  0  0  0  0  0  0  0  0  0  0
   -2.4116    1.4433    0.1898 N   0  3  0  0  0  0  0  0  0  0  0  0
   -3.3012    1.9560    0.1984 H   0  0  0  0  0  0  0  0  0  0  0  0
  1  2  1  0  0  0  0
  1 20  1  0  0  0  0
  1 21  1  0  0  0  0
  1 22  1  0  0  0  0
  2  3  1  0  0  0  0
  2 23  1  0  0  0  0
  3  4  2  0  0  0  0
  3 32  1  0  0  0  0
  4  5  1  0  0  0  0
  4 24  1  0  0  0  0
  5 11  2  0  0  0  0
  5  6  1  0  0  0  0
  6  7  1  0  0  0  0
  6  8  2  0  0  0  0
  7 25  1  0  0  0  0
  7 32  2  0  0  0  0
  8  9  1  0  0  0  0
  9 10  2  0  0  0  0
  9 26  1  0  0  0  0
 10 11  1  0  0  0  0
 11 12  1  0  0  0  0
 12 13  1  0  0  0  0
 12 27  1  0  0  0  0
 13 18  2  0  0  0  0
 13 14  1  0  0  0  0
 14 15  2  0  0  0  0
 14 28  1  0  0  0  0
 15 16  1  0  0  0  0
 15 29  1  0  0  0  0
 16 17  2  0  0  0  0
 16 30  1  0  0  0  0
 17 18  1  0  0  0  0
 17 19  1  0  0  0  0
 18 31  1  0  0  0  0
 32 33  1  0  0  0  0
M  CHG  1  32   1
M  END
$$$$
ZINC03815043
  -OEChem-08230709403D

 40 42  0     1  0  0  0  0  0999 V2000
   -3.6443   -2.0240   -0.1999 C   0  0  0  0  0  0  0  0  0  0  0  0
   -3.5888   -0.5619   -0.1270 N   0  0  3  0  0  0  0  0  0  0  0  0
   -4.8227    0.2232   -0.2126 C   0  0  0  0  0  0  0  0  0  0  0  0
   -5.1107    0.5626   -1.6764 C   0  0  0  0  0  0  0  0  0  0  0  0
   -5.3768   -0.6401   -2.4008 O   0  0  0  0  0  0  0  0  0  0  0  0
   -2.3630    0.0818    0.0237 C   0  0  0  0  0  0  0  0  0  0  0  0
   -1.1975   -0.6654   -0.0016 C   0  0  0  0  0  0  0  0  0  0  0  0
    0.0199    0.0007    0.1514 C   0  0  0  0  0  0  0  0  0  0  0  0
    0.0114    1.4088    0.3255 C   0  0  0  0  0  0  0  0  0  0  0  0
   -1.2200    2.0755    0.3424 C   0  0  0  0  0  0  0  0  0  0  0  0
    1.1832    2.0418    0.4722 N   0  0  0  0  0  0  0  0  0  0  0  0
    2.3130    1.3791    0.4558 C   0  0  0  0  0  0  0  0  0  0  0  0
    2.3968    0.0675    0.2981 N   0  0  0  0  0  0  0  0  0  0  0  0
    1.3108   -0.6806    0.1421 C   0  0  0  0  0  0  0  0  0  0  0  0
    1.3992   -2.0476   -0.0228 N   0  0  0  0  0  0  0  0  0  0  0  0
    2.6510   -2.6575   -0.1435 C   0  0  0  0  0  0  0  0  0  0  0  0
    2.8501   -3.9416    0.3485 C   0  0  0  0  0  0  0  0  0  0  0  0
    4.0878   -4.5418    0.2275 C   0  0  0  0  0  0  0  0  0  0  0  0
    5.1289   -3.8668   -0.3832 C   0  0  0  0  0  0  0  0  0  0  0  0
    4.9344   -2.5882   -0.8748 C   0  0  0  0  0  0  0  0  0  0  0  0
    3.6967   -1.9836   -0.7606 C   0  0  0  0  0  0  0  0  0  0  0  0
    6.3609   -1.6700   -1.7100 Br  0  0  0  0  0  0  0  0  0  0  0  0
   -3.7590   -2.4337    0.8036 H   0  0  0  0  0  0  0  0  0  0  0  0
   -4.4927   -2.3252   -0.8144 H   0  0  0  0  0  0  0  0  0  0  0  0
   -2.7226   -2.4010   -0.6432 H   0  0  0  0  0  0  0  0  0  0  0  0
   -5.6509   -0.3559    0.1958 H   0  0  0  0  0  0  0  0  0  0  0  0
   -4.7074    1.1446    0.3582 H   0  0  0  0  0  0  0  0  0  0  0  0
   -5.9781    1.2203   -1.7330 H   0  0  0  0  0  0  0  0  0  0  0  0
   -4.2455    1.0641   -2.1101 H   0  0  0  0  0  0  0  0  0  0  0  0
   -5.5683   -0.5004   -3.3383 H   0  0  0  0  0  0  0  0  0  0  0  0
   -1.2293   -1.7366   -0.1359 H   0  0  0  0  0  0  0  0  0  0  0  0
   -1.2516    3.1470    0.4735 H   0  0  0  0  0  0  0  0  0  0  0  0
    3.2304    1.9358    0.5779 H   0  0  0  0  0  0  0  0  0  0  0  0
    0.5925   -2.5854   -0.0548 H   0  0  0  0  0  0  0  0  0  0  0  0
    2.0377   -4.4696    0.8256 H   0  0  0  0  0  0  0  0  0  0  0  0
    4.2428   -5.5399    0.6098 H   0  0  0  0  0  0  0  0  0  0  0  0
    6.0958   -4.3388   -0.4768 H   0  0  0  0  0  0  0  0  0  0  0  0
    3.5441   -0.9870   -1.1477 H   0  0  0  0  0  0  0  0  0  0  0  0
   -2.4116    1.4433    0.1898 N   0  3  0  0  0  0  0  0  0  0  0  0
   -3.3012    1.9560    0.1983 H   0  0  0  0  0  0  0  0  0  0  0  0
  1  2  1  0  0  0  0
  1 23  1  0  0  0  0
  1 24  1  0  0  0  0
  1 25  1  0  0  0  0
  2  3  1  0  0  0  0
  2  6  1  0  0  0  0
  3  4  1  0  0  0  0
  3 26  1  0  0  0  0
  3 27  1  0  0  0  0
  4  5  1  0  0  0  0
  4 28  1  0  0  0  0
  4 29  1  0  0  0  0
  5 30  1  0  0  0  0
  6  7  2  0  0  0  0
  6 39  1  0  0  0  0
  7  8  1  0  0  0  0
  7 31  1  0  0  0  0
  8 14  2  0  0  0  0
  8  9  1  0  0  0  0
  9 10  1  0  0  0  0
  9 11  2  0  0  0  0
 10 32  1  0  0  0  0
 10 39  2  0  0  0  0
 11 12  1  0  0  0  0
 12 13  2  0  0  0  0
 12 33  1  0  0  0  0
 13 14  1  0  0  0  0
 14 15  1  0  0  0  0
 15 16  1  0  0  0  0
 15 34  1  0  0  0  0
 16 21  2  0  0  0  0
 16 17  1  0  0  0  0
 17 18  2  0  0  0  0
 17 35  1  0  0  0  0
 18 19  1  0  0  0  0
 18 36  1  0  0  0  0
 19 20  2  0  0  0  0
 19 37  1  0  0  0  0
 20 21  1  0  0  0  0
 20 22  1  0  0  0  0
 21 38  1  0  0  0  0
 39 40  1  0  0  0  0
M  CHG  1  39   1
M  END
$$$$
ZINC03815044
  -OEChem-08230709403D

 39 41  0     0  0  0  0  0  0999 V2000
   -0.1079    7.8043   -0.3020 C   0  0  0  0  0  0  0  0  0  0  0  0
    1.1551    7.1533   -0.1511 O   0  0  0  0  0  0  0  0  0  0  0  0
    1.1386    5.8027    0.0065 C   0  0  0  0  0  0  0  0  0  0  0  0
   -0.0548    5.1381    0.0140 C   0  0  0  0  0  0  0  0  0  0  0  0
   -0.0731    3.7478    0.1766 C   0  0  0  0  0  0  0  0  0  0  0  0
    1.1438    3.0386    0.3321 C   0  0  0  0  0  0  0  0  0  0  0  0
    2.3555    3.7400    0.3213 C   0  0  0  0  0  0  0  0  0  0  0  0
    2.3464    5.1079    0.1598 C   0  0  0  0  0  0  0  0  0  0  0  0
    3.5206    5.7910    0.1489 O   0  0  0  0  0  0  0  0  0  0  0  0
    4.7173    5.0267    0.3097 C   0  0  0  0  0  0  0  0  0  0  0  0
    1.0982    1.7060    0.4868 N   0  0  0  0  0  0  0  0  0  0  0  0
   -0.0525    1.0763    0.4932 C   0  0  0  0  0  0  0  0  0  0  0  0
   -1.2129    1.6957    0.3461 N   0  0  0  0  0  0  0  0  0  0  0  0
   -1.2816    3.0116    0.1922 C   0  0  0  0  0  0  0  0  0  0  0  0
   -2.4993    3.6452    0.0450 N   0  0  0  0  0  0  0  0  0  0  0  0
   -3.6722    2.8912   -0.0533 C   0  0  0  0  0  0  0  0  0  0  0  0
   -4.8637    3.3867    0.4614 C   0  0  0  0  0  0  0  0  0  0  0  0
   -6.0204    2.6392    0.3626 C   0  0  0  0  0  0  0  0  0  0  0  0
   -5.9940    1.3987   -0.2484 C   0  0  0  0  0  0  0  0  0  0  0  0
   -4.8099    0.9025   -0.7618 C   0  0  0  0  0  0  0  0  0  0  0  0
   -3.6502    1.6474   -0.6710 C   0  0  0  0  0  0  0  0  0  0  0  0
   -4.7858   -0.4496   -1.4267 C   0  0  0  0  0  0  0  0  0  0  0  0
   -6.0700   -1.0040   -1.4026 F   0  0  0  0  0  0  0  0  0  0  0  0
   -4.3630   -0.3097   -2.7529 F   0  0  0  0  0  0  0  0  0  0  0  0
   -3.9020   -1.2904   -0.7417 F   0  0  0  0  0  0  0  0  0  0  0  0
   -0.6154    7.4128   -1.1837 H   0  0  0  0  0  0  0  0  0  0  0  0
   -0.7196    7.6199    0.5811 H   0  0  0  0  0  0  0  0  0  0  0  0
    0.0478    8.8768   -0.4187 H   0  0  0  0  0  0  0  0  0  0  0  0
   -0.9799    5.6826   -0.1052 H   0  0  0  0  0  0  0  0  0  0  0  0
    3.2905    3.2124    0.4384 H   0  0  0  0  0  0  0  0  0  0  0  0
    4.6901    4.5063    1.2670 H   0  0  0  0  0  0  0  0  0  0  0  0
    4.7946    4.2986   -0.4977 H   0  0  0  0  0  0  0  0  0  0  0  0
    5.5800    5.6924    0.2824 H   0  0  0  0  0  0  0  0  0  0  0  0
   -0.0528    0.0037    0.6198 H   0  0  0  0  0  0  0  0  0  0  0  0
   -2.5410    4.6137    0.0099 H   0  0  0  0  0  0  0  0  0  0  0  0
   -4.8850    4.3553    0.9387 H   0  0  0  0  0  0  0  0  0  0  0  0
   -6.9470    3.0238    0.7626 H   0  0  0  0  0  0  0  0  0  0  0  0
   -6.9003    0.8164   -0.3250 H   0  0  0  0  0  0  0  0  0  0  0  0
   -2.7265    1.2612   -1.0761 H   0  0  0  0  0  0  0  0  0  0  0  0
  1  2  1  0  0  0  0
  1 26  1  0  0  0  0
  1 27  1  0  0  0  0
  1 28  1  0  0  0  0
  2  3  1  0  0  0  0
  3  8  2  0  0  0  0
  3  4  1  0  0  0  0
  4  5  2  0  0  0  0
  4 29  1  0  0  0  0
  5 14  1  0  0  0  0
  5  6  1  0  0  0  0
  6  7  2  0  0  0  0
  6 11  1  0  0  0  0
  7  8  1  0  0  0  0
  7 30  1  0  0  0  0
  8  9  1  0  0  0  0
  9 10  1  0  0  0  0
 10 31  1  0  0  0  0
 10 32  1  0  0  0  0
 10 33  1  0  0  0  0
 11 12  2  0  0  0  0
 12 13  1  0  0  0  0
 12 34  1  0  0  0  0
 13 14  2  0  0  0  0
 14 15  1  0  0  0  0
 15 16  1  0  0  0  0
 15 35  1  0  0  0  0
 16 21  2  0  0  0  0
 16 17  1  0  0  0  0
 17 18  2  0  0  0  0
 17 36  1  0  0  0  0
 18 19  1  0  0  0  0
 18 37  1  0  0  0  0
 19 20  2  0  0  0  0
 19 38  1  0  0  0  0
 20 21  1  0  0  0  0
 20 22  1  0  0  0  0
 21 39  1  0  0  0  0
 22 23  1  0  0  0  0
 22 24  1  0  0  0  0
 22 25  1  0  0  0  0
M  END
$$$$
ZINC03815045
  -OEChem-08230709403D

 37 39  0     0  0  0  0  0  0999 V2000
    2.1576    5.6966    0.3943 C   0  0  0  0  0  0  0  0  0  0  0  0
    2.2602    4.3225    0.4909 C   0  0  0  0  0  0  0  0  0  0  0  0
    3.3215    3.6622   -0.1146 C   0  0  0  0  0  0  0  0  0  0  0  0
    4.2799    4.3869   -0.8116 C   0  0  0  0  0  0  0  0  0  0  0  0
    4.1693    5.7608   -0.9084 C   0  0  0  0  0  0  0  0  0  0  0  0
    3.1101    6.4152   -0.3040 C   0  0  0  0  0  0  0  0  0  0  0  0
    5.4699    6.7485   -1.8618 Br  0  0  0  0  0  0  0  0  0  0  0  0
    3.4281    2.2717   -0.0180 N   0  0  0  0  0  0  0  0  0  0  0  0
    2.2914    1.4919   -0.0148 C   0  0  0  0  0  0  0  0  0  0  0  0
    2.3670    0.0967    0.2030 C   0  0  0  0  0  0  0  0  0  0  0  0
    3.5749   -0.5691    0.4254 C   0  0  0  0  0  0  0  0  0  0  0  0
    2.4714   -2.6007    0.6198 C   0  0  0  0  0  0  0  0  0  0  0  0
    1.2297   -2.0296    0.4088 C   0  0  0  0  0  0  0  0  0  0  0  0
    1.1579   -0.6486    0.1936 C   0  0  0  0  0  0  0  0  0  0  0  0
    0.0031   -0.0057   -0.0199 N   0  0  0  0  0  0  0  0  0  0  0  0
   -0.0055    1.2929   -0.2168 C   0  0  0  0  0  0  0  0  0  0  0  0
    1.0938    2.0290   -0.2171 N   0  0  0  0  0  0  0  0  0  0  0  0
    2.5604   -3.9699    0.8350 N   0  0  0  0  0  0  0  0  0  0  0  0
    1.3474   -4.7915    0.8366 C   0  0  0  0  0  0  0  0  0  0  0  0
    1.7214   -6.2525    1.0942 C   0  0  0  0  0  0  0  0  0  0  0  0
    2.2661   -6.3800    2.4092 O   0  0  0  0  0  0  0  0  0  0  0  0
    1.3324    6.2103    0.8651 H   0  0  0  0  0  0  0  0  0  0  0  0
    1.5156    3.7620    1.0367 H   0  0  0  0  0  0  0  0  0  0  0  0
    5.1086    3.8769   -1.2801 H   0  0  0  0  0  0  0  0  0  0  0  0
    3.0277    7.4896   -0.3777 H   0  0  0  0  0  0  0  0  0  0  0  0
    4.3020    1.8556    0.0467 H   0  0  0  0  0  0  0  0  0  0  0  0
    4.5023   -0.0157    0.4358 H   0  0  0  0  0  0  0  0  0  0  0  0
    0.3358   -2.6356    0.4097 H   0  0  0  0  0  0  0  0  0  0  0  0
   -0.9528    1.7814   -0.3908 H   0  0  0  0  0  0  0  0  0  0  0  0
    3.4256   -4.3822    0.9842 H   0  0  0  0  0  0  0  0  0  0  0  0
    0.6748   -4.4448    1.6211 H   0  0  0  0  0  0  0  0  0  0  0  0
    0.8511   -4.7086   -0.1303 H   0  0  0  0  0  0  0  0  0  0  0  0
    0.8316   -6.8761    1.0075 H   0  0  0  0  0  0  0  0  0  0  0  0
    2.4622   -6.5726    0.3615 H   0  0  0  0  0  0  0  0  0  0  0  0
    2.5260   -7.2820    2.6415 H   0  0  0  0  0  0  0  0  0  0  0  0
    3.6579   -1.9077    0.6354 N   0  3  0  0  0  0  0  0  0  0  0  0
    4.5572   -2.3762    0.7969 H   0  0  0  0  0  0  0  0  0  0  0  0
  1  6  2  0  0  0  0
  1  2  1  0  0  0  0
  1 22  1  0  0  0  0
  2  3  2  0  0  0  0
  2 23  1  0  0  0  0
  3  4  1  0  0  0  0
  3  8  1  0  0  0  0
  4  5  2  0  0  0  0
  4 24  1  0  0  0  0
  5  6  1  0  0  0  0
  5  7  1  0  0  0  0
  6 25  1  0  0  0  0
  8  9  1  0  0  0  0
  8 26  1  0  0  0  0
  9 17  2  0  0  0  0
  9 10  1  0  0  0  0
 10 14  2  0  0  0  0
 10 11  1  0  0  0  0
 11 27  1  0  0  0  0
 11 36  2  0  0  0  0
 12 13  2  0  0  0  0
 12 18  1  0  0  0  0
 12 36  1  0  0  0  0
 13 14  1  0  0  0  0
 13 28  1  0  0  0  0
 14 15  1  0  0  0  0
 15 16  2  0  0  0  0
 16 17  1  0  0  0  0
 16 29  1  0  0  0  0
 18 19  1  0  0  0  0
 18 30  1  0  0  0  0
 19 20  1  0  0  0  0
 19 31  1  0  0  0  0
 19 32  1  0  0  0  0
 20 21  1  0  0  0  0
 20 33  1  0  0  0  0
 20 34  1  0  0  0  0
 21 35  1  0  0  0  0
 36 37  1  0  0  0  0
M  CHG  1  36   1
M  END
$$$$
ZINC03815046
  -OEChem-08230709403D

 30 32  0     0  0  0  0  0  0999 V2000
   -2.4922    4.2050    0.4277 C   0  0  0  0  0  0  0  0  0  0  0  0
   -1.2843    3.5411    0.5183 C   0  0  0  0  0  0  0  0  0  0  0  0
   -0.1517    4.0771   -0.0810 C   0  0  0  0  0  0  0  0  0  0  0  0
   -0.2363    5.2827   -0.7658 C   0  0  0  0  0  0  0  0  0  0  0  0
   -1.4487    5.9395   -0.8575 C   0  0  0  0  0  0  0  0  0  0  0  0
   -2.5752    5.4021   -0.2588 C   0  0  0  0  0  0  0  0  0  0  0  0
   -1.5576    7.4433   -1.7180 Cl  0  0  0  0  0  0  0  0  0  0  0  0
    1.0720    3.4075    0.0097 N   0  0  0  0  0  0  0  0  0  0  0  0
    1.1064    2.0281   -0.0043 C   0  0  0  0  0  0  0  0  0  0  0  0
    2.3185    1.3297    0.2074 C   0  0  0  0  0  0  0  0  0  0  0  0
    3.5278    1.9971    0.4391 C   0  0  0  0  0  0  0  0  0  0  0  0
    4.6680    1.2800    0.6368 C   0  0  0  0  0  0  0  0  0  0  0  0
    4.6483   -0.1192    0.6122 C   0  0  0  0  0  0  0  0  0  0  0  0
    3.4709   -0.8039    0.3851 C   0  0  0  0  0  0  0  0  0  0  0  0
    2.2873   -0.0869    0.1799 C   0  0  0  0  0  0  0  0  0  0  0  0
    1.1154   -0.7021   -0.0441 N   0  0  0  0  0  0  0  0  0  0  0  0
    0.0224   -0.0017   -0.2335 C   0  0  0  0  0  0  0  0  0  0  0  0
    0.0036    1.3213   -0.2170 N   0  0  0  0  0  0  0  0  0  0  0  0
    5.8295   -0.8288    0.8180 N   0  0  0  0  0  0  0  0  0  0  0  0
   -3.3728    3.7885    0.8939 H   0  0  0  0  0  0  0  0  0  0  0  0
   -1.2207    2.6058    1.0546 H   0  0  0  0  0  0  0  0  0  0  0  0
    0.6434    5.7040   -1.2294 H   0  0  0  0  0  0  0  0  0  0  0  0
   -3.5209    5.9193   -0.3279 H   0  0  0  0  0  0  0  0  0  0  0  0
    1.8969    3.9126    0.0824 H   0  0  0  0  0  0  0  0  0  0  0  0
    3.5557    3.0765    0.4604 H   0  0  0  0  0  0  0  0  0  0  0  0
    5.5991    1.7973    0.8153 H   0  0  0  0  0  0  0  0  0  0  0  0
    3.4635   -1.8837    0.3675 H   0  0  0  0  0  0  0  0  0  0  0  0
   -0.9035   -0.5286   -0.4111 H   0  0  0  0  0  0  0  0  0  0  0  0
    6.6596   -0.3530    0.9773 H   0  0  0  0  0  0  0  0  0  0  0  0
    5.8217   -1.7987    0.8020 H   0  0  0  0  0  0  0  0  0  0  0  0
  1  6  2  0  0  0  0
  1  2  1  0  0  0  0
  1 20  1  0  0  0  0
  2  3  2  0  0  0  0
  2 21  1  0  0  0  0
  3  4  1  0  0  0  0
  3  8  1  0  0  0  0
  4  5  2  0  0  0  0
  4 22  1  0  0  0  0
  5  6  1  0  0  0  0
  5  7  1  0  0  0  0
  6 23  1  0  0  0  0
  8  9  1  0  0  0  0
  8 24  1  0  0  0  0
  9 18  2  0  0  0  0
  9 10  1  0  0  0  0
 10 15  2  0  0  0  0
 10 11  1  0  0  0  0
 11 12  2  0  0  0  0
 11 25  1  0  0  0  0
 12 13  1  0  0  0  0
 12 26  1  0  0  0  0
 13 14  2  0  0  0  0
 13 19  1  0  0  0  0
 14 15  1  0  0  0  0
 14 27  1  0  0  0  0
 15 16  1  0  0  0  0
 16 17  2  0  0  0  0
 17 18  1  0  0  0  0
 17 28  1  0  0  0  0
 19 29  1  0  0  0  0
 19 30  1  0  0  0  0
M  END
$$$$
ZINC03815047
  -OEChem-08230709403D

 41 44  0     0  0  0  0  0  0999 V2000
   -1.1108    2.9203   -0.7515 C   0  0  0  0  0  0  0  0  0  0  0  0
    0.0731    3.6319   -0.7455 C   0  0  0  0  0  0  0  0  0  0  0  0
    1.1562    3.1695   -0.0088 C   0  0  0  0  0  0  0  0  0  0  0  0
    1.0449    1.9921    0.7200 C   0  0  0  0  0  0  0  0  0  0  0  0
   -0.1421    1.2850    0.7099 C   0  0  0  0  0  0  0  0  0  0  0  0
   -1.2207    1.7517   -0.0211 C   0  0  0  0  0  0  0  0  0  0  0  0
   -0.2955   -0.3176    1.7019 Br  0  0  0  0  0  0  0  0  0  0  0  0
    2.3551    3.8876   -0.0005 N   0  0  0  0  0  0  0  0  0  0  0  0
    2.3357    5.2646   -0.0976 C   0  0  0  0  0  0  0  0  0  0  0  0
    3.5726    6.0347   -0.2111 C   0  0  0  0  0  0  0  0  0  0  0  0
    3.4639    7.4429   -0.3121 C   0  0  0  0  0  0  0  0  0  0  0  0
    4.6473    8.1940   -0.4282 C   0  0  0  0  0  0  0  0  0  0  0  0
    5.7970    7.5515   -0.4430 N   0  0  0  0  0  0  0  0  0  0  0  0
    5.8571    6.2253   -0.3515 C   0  0  0  0  0  0  0  0  0  0  0  0
    4.7783    5.4714   -0.2403 N   0  0  0  0  0  0  0  0  0  0  0  0
    7.0982    5.6122   -0.3732 N   0  0  0  0  0  0  0  0  0  0  0  0
    8.3131    6.4218   -0.4951 C   0  0  0  0  0  0  0  0  0  0  0  0
    9.5386    5.5058   -0.4943 C   0  0  0  0  0  0  0  0  0  0  0  0
   10.7883    6.3386   -0.6197 C   0  0  0  0  0  0  0  0  0  0  0  0
   11.8392    6.3204    0.2223 C   0  0  0  0  0  0  0  0  0  0  0  0
   12.7489    7.2222   -0.2603 N   0  0  0  0  0  0  0  0  0  0  0  0
   13.6378    7.4415    0.1420 H   0  0  0  0  0  0  0  0  0  0  0  0
   12.2219    7.7604   -1.3811 C   0  0  0  0  0  0  0  0  0  0  0  0
   11.0514    7.2236   -1.5926 N   0  0  0  0  0  0  0  0  0  0  0  0
    2.2480    7.9992   -0.2879 N   0  0  0  0  0  0  0  0  0  0  0  0
    1.1713    7.2599   -0.1787 C   0  0  0  0  0  0  0  0  0  0  0  0
    1.1935    5.9400   -0.0858 N   0  0  0  0  0  0  0  0  0  0  0  0
   -1.9531    3.2798   -1.3239 H   0  0  0  0  0  0  0  0  0  0  0  0
    0.1568    4.5467   -1.3133 H   0  0  0  0  0  0  0  0  0  0  0  0
    1.8850    1.6301    1.2941 H   0  0  0  0  0  0  0  0  0  0  0  0
   -2.1489    1.1995   -0.0243 H   0  0  0  0  0  0  0  0  0  0  0  0
    3.2009    3.4185    0.0735 H   0  0  0  0  0  0  0  0  0  0  0  0
    4.6142    9.2709   -0.5029 H   0  0  0  0  0  0  0  0  0  0  0  0
    7.1634    4.6466   -0.3077 H   0  0  0  0  0  0  0  0  0  0  0  0
    8.2818    6.9860   -1.4272 H   0  0  0  0  0  0  0  0  0  0  0  0
    8.3753    7.1126    0.3458 H   0  0  0  0  0  0  0  0  0  0  0  0
    9.5700    4.9416    0.4378 H   0  0  0  0  0  0  0  0  0  0  0  0
    9.4764    4.8150   -1.3352 H   0  0  0  0  0  0  0  0  0  0  0  0
   11.9439    5.7116    1.1081 H   0  0  0  0  0  0  0  0  0  0  0  0
   12.6929    8.5083   -2.0018 H   0  0  0  0  0  0  0  0  0  0  0  0
    0.2120    7.7558   -0.1634 H   0  0  0  0  0  0  0  0  0  0  0  0
  1  6  2  0  0  0  0
  1  2  1  0  0  0  0
  1 28  1  0  0  0  0
  2  3  2  0  0  0  0
  2 29  1  0  0  0  0
  3  4  1  0  0  0  0
  3  8  1  0  0  0  0
  4  5  2  0  0  0  0
  4 30  1  0  0  0  0
  5  6  1  0  0  0  0
  5  7  1  0  0  0  0
  6 31  1  0  0  0  0
  8  9  1  0  0  0  0
  8 32  1  0  0  0  0
  9 27  2  0  0  0  0
  9 10  1  0  0  0  0
 10 15  2  0  0  0  0
 10 11  1  0  0  0  0
 11 12  2  0  0  0  0
 11 25  1  0  0  0  0
 12 13  1  0  0  0  0
 12 33  1  0  0  0  0
 13 14  2  0  0  0  0
 14 15  1  0  0  0  0
 14 16  1  0  0  0  0
 16 17  1  0  0  0  0
 16 34  1  0  0  0  0
 17 18  1  0  0  0  0
 17 35  1  0  0  0  0
 17 36  1  0  0  0  0
 18 19  1  0  0  0  0
 18 37  1  0  0  0  0
 18 38  1  0  0  0  0
 19 24  1  0  0  0  0
 19 20  2  0  0  0  0
 20 21  1  0  0  0  0
 20 39  1  0  0  0  0
 21 22  1  0  0  0  0
 21 23  1  0  0  0  0
 23 24  2  0  0  0  0
 23 40  1  0  0  0  0
 25 26  2  0  0  0  0
 26 27  1  0  0  0  0
 26 41  1  0  0  0  0
M  END
$$$$
ZINC03815047
  -OEChem-08230709403D

 41 44  0     0  0  0  0  0  0999 V2000
   -1.1108    2.9203   -0.7515 C   0  0  0  0  0  0  0  0  0  0  0  0
    0.0731    3.6319   -0.7455 C   0  0  0  0  0  0  0  0  0  0  0  0
    1.1562    3.1695   -0.0088 C   0  0  0  0  0  0  0  0  0  0  0  0
    1.0449    1.9921    0.7200 C   0  0  0  0  0  0  0  0  0  0  0  0
   -0.1421    1.2850    0.7099 C   0  0  0  0  0  0  0  0  0  0  0  0
   -1.2207    1.7517   -0.0211 C   0  0  0  0  0  0  0  0  0  0  0  0
   -0.2955   -0.3176    1.7019 Br  0  0  0  0  0  0  0  0  0  0  0  0
    2.3551    3.8876   -0.0005 N   0  0  0  0  0  0  0  0  0  0  0  0
    2.3357    5.2646   -0.0976 C   0  0  0  0  0  0  0  0  0  0  0  0
    3.5726    6.0347   -0.2111 C   0  0  0  0  0  0  0  0  0  0  0  0
    3.4639    7.4429   -0.3121 C   0  0  0  0  0  0  0  0  0  0  0  0
    4.6473    8.1940   -0.4282 C   0  0  0  0  0  0  0  0  0  0  0  0
    5.7970    7.5515   -0.4430 N   0  0  0  0  0  0  0  0  0  0  0  0
    5.8571    6.2253   -0.3515 C   0  0  0  0  0  0  0  0  0  0  0  0
    4.7783    5.4714   -0.2403 N   0  0  0  0  0  0  0  0  0  0  0  0
    7.0982    5.6122   -0.3732 N   0  0  0  0  0  0  0  0  0  0  0  0
    8.3131    6.4218   -0.4951 C   0  0  0  0  0  0  0  0  0  0  0  0
    9.5386    5.5058   -0.4943 C   0  0  0  0  0  0  0  0  0  0  0  0
   10.7883    6.3386   -0.6197 C   0  0  0  0  0  0  0  0  0  0  0  0
   11.8392    6.3204    0.2223 C   0  0  0  0  0  0  0  0  0  0  0  0
   12.7489    7.2222   -0.2603 N   0  0  0  0  0  0  0  0  0  0  0  0
   13.6378    7.4415    0.1420 H   0  0  0  0  0  0  0  0  0  0  0  0
   12.2219    7.7604   -1.3811 C   0  0  0  0  0  0  0  0  0  0  0  0
   11.0514    7.2236   -1.5926 N   0  0  0  0  0  0  0  0  0  0  0  0
    2.2480    7.9992   -0.2879 N   0  0  0  0  0  0  0  0  0  0  0  0
    1.1713    7.2599   -0.1787 C   0  0  0  0  0  0  0  0  0  0  0  0
    1.1935    5.9400   -0.0858 N   0  0  0  0  0  0  0  0  0  0  0  0
   -1.9531    3.2798   -1.3239 H   0  0  0  0  0  0  0  0  0  0  0  0
    0.1568    4.5467   -1.3133 H   0  0  0  0  0  0  0  0  0  0  0  0
    1.8850    1.6301    1.2941 H   0  0  0  0  0  0  0  0  0  0  0  0
   -2.1489    1.1995   -0.0243 H   0  0  0  0  0  0  0  0  0  0  0  0
    3.2009    3.4185    0.0735 H   0  0  0  0  0  0  0  0  0  0  0  0
    4.6142    9.2709   -0.5029 H   0  0  0  0  0  0  0  0  0  0  0  0
    7.1634    4.6466   -0.3077 H   0  0  0  0  0  0  0  0  0  0  0  0
    8.2818    6.9860   -1.4272 H   0  0  0  0  0  0  0  0  0  0  0  0
    8.3753    7.1126    0.3458 H   0  0  0  0  0  0  0  0  0  0  0  0
    9.5700    4.9416    0.4378 H   0  0  0  0  0  0  0  0  0  0  0  0
    9.4764    4.8150   -1.3352 H   0  0  0  0  0  0  0  0  0  0  0  0
   11.9439    5.7116    1.1081 H   0  0  0  0  0  0  0  0  0  0  0  0
   12.6929    8.5083   -2.0018 H   0  0  0  0  0  0  0  0  0  0  0  0
    0.2120    7.7558   -0.1634 H   0  0  0  0  0  0  0  0  0  0  0  0
  1  6  2  0  0  0  0
  1  2  1  0  0  0  0
  1 28  1  0  0  0  0
  2  3  2  0  0  0  0
  2 29  1  0  0  0  0
  3  4  1  0  0  0  0
  3  8  1  0  0  0  0
  4  5  2  0  0  0  0
  4 30  1  0  0  0  0
  5  6  1  0  0  0  0
  5  7  1  0  0  0  0
  6 31  1  0  0  0  0
  8  9  1  0  0  0  0
  8 32  1  0  0  0  0
  9 27  2  0  0  0  0
  9 10  1  0  0  0  0
 10 15  2  0  0  0  0
 10 11  1  0  0  0  0
 11 12  2  0  0  0  0
 11 25  1  0  0  0  0
 12 13  1  0  0  0  0
 12 33  1  0  0  0  0
 13 14  2  0  0  0  0
 14 15  1  0  0  0  0
 14 16  1  0  0  0  0
 16 17  1  0  0  0  0
 16 34  1  0  0  0  0
 17 18  1  0  0  0  0
 17 35  1  0  0  0  0
 17 36  1  0  0  0  0
 18 19  1  0  0  0  0
 18 37  1  0  0  0  0
 18 38  1  0  0  0  0
 19 24  1  0  0  0  0
 19 20  2  0  0  0  0
 20 21  1  0  0  0  0
 20 39  1  0  0  0  0
 21 22  1  0  0  0  0
 21 23  1  0  0  0  0
 23 24  2  0  0  0  0
 23 40  1  0  0  0  0
 25 26  2  0  0  0  0
 26 27  1  0  0  0  0
 26 41  1  0  0  0  0
M  END
$$$$
ZINC03815047
  -OEChem-08230709403D

 42 45  0     0  0  0  0  0  0999 V2000
   -1.1108    2.9203   -0.7515 C   0  0  0  0  0  0  0  0  0  0  0  0
    0.0731    3.6319   -0.7455 C   0  0  0  0  0  0  0  0  0  0  0  0
    1.1562    3.1695   -0.0088 C   0  0  0  0  0  0  0  0  0  0  0  0
    1.0449    1.9921    0.7200 C   0  0  0  0  0  0  0  0  0  0  0  0
   -0.1421    1.2850    0.7099 C   0  0  0  0  0  0  0  0  0  0  0  0
   -1.2207    1.7517   -0.0211 C   0  0  0  0  0  0  0  0  0  0  0  0
   -0.2955   -0.3176    1.7019 Br  0  0  0  0  0  0  0  0  0  0  0  0
    2.3551    3.8876   -0.0005 N   0  0  0  0  0  0  0  0  0  0  0  0
    2.3357    5.2646   -0.0976 C   0  0  0  0  0  0  0  0  0  0  0  0
    3.5726    6.0347   -0.2111 C   0  0  0  0  0  0  0  0  0  0  0  0
    3.4639    7.4429   -0.3121 C   0  0  0  0  0  0  0  0  0  0  0  0
    4.6473    8.1940   -0.4282 C   0  0  0  0  0  0  0  0  0  0  0  0
    5.7970    7.5515   -0.4430 N   0  0  0  0  0  0  0  0  0  0  0  0
    5.8571    6.2253   -0.3515 C   0  0  0  0  0  0  0  0  0  0  0  0
    4.7783    5.4714   -0.2403 N   0  0  0  0  0  0  0  0  0  0  0  0
    7.0982    5.6122   -0.3732 N   0  0  0  0  0  0  0  0  0  0  0  0
    8.3131    6.4218   -0.4951 C   0  0  0  0  0  0  0  0  0  0  0  0
    9.5386    5.5058   -0.4943 C   0  0  0  0  0  0  0  0  0  0  0  0
   10.7883    6.3386   -0.6197 C   0  0  0  0  0  0  0  0  0  0  0  0
   11.8392    6.3204    0.2223 C   0  0  0  0  0  0  0  0  0  0  0  0
   12.7489    7.2222   -0.2603 N   0  0  0  0  0  0  0  0  0  0  0  0
   13.6378    7.4415    0.1420 H   0  0  0  0  0  0  0  0  0  0  0  0
   12.2219    7.7604   -1.3811 C   0  0  0  0  0  0  0  0  0  0  0  0
    2.2480    7.9992   -0.2879 N   0  0  0  0  0  0  0  0  0  0  0  0
    1.1713    7.2599   -0.1787 C   0  0  0  0  0  0  0  0  0  0  0  0
    1.1935    5.9400   -0.0858 N   0  0  0  0  0  0  0  0  0  0  0  0
   -1.9531    3.2798   -1.3239 H   0  0  0  0  0  0  0  0  0  0  0  0
    0.1568    4.5467   -1.3133 H   0  0  0  0  0  0  0  0  0  0  0  0
    1.8850    1.6301    1.2941 H   0  0  0  0  0  0  0  0  0  0  0  0
   -2.1489    1.1995   -0.0243 H   0  0  0  0  0  0  0  0  0  0  0  0
    3.2009    3.4185    0.0735 H   0  0  0  0  0  0  0  0  0  0  0  0
    4.6142    9.2709   -0.5029 H   0  0  0  0  0  0  0  0  0  0  0  0
    7.1634    4.6466   -0.3077 H   0  0  0  0  0  0  0  0  0  0  0  0
    8.2818    6.9860   -1.4272 H   0  0  0  0  0  0  0  0  0  0  0  0
    8.3753    7.1126    0.3458 H   0  0  0  0  0  0  0  0  0  0  0  0
    9.5700    4.9416    0.4378 H   0  0  0  0  0  0  0  0  0  0  0  0
    9.4764    4.8150   -1.3352 H   0  0  0  0  0  0  0  0  0  0  0  0
   11.9439    5.7116    1.1081 H   0  0  0  0  0  0  0  0  0  0  0  0
   12.6929    8.5083   -2.0018 H   0  0  0  0  0  0  0  0  0  0  0  0
    0.2120    7.7558   -0.1634 H   0  0  0  0  0  0  0  0  0  0  0  0
   11.0522    7.2233   -1.5916 N   0  3  0  0  0  0  0  0  0  0  0  0
   10.4307    7.4437   -2.3786 H   0  0  0  0  0  0  0  0  0  0  0  0
  1  6  2  0  0  0  0
  1  2  1  0  0  0  0
  1 27  1  0  0  0  0
  2  3  2  0  0  0  0
  2 28  1  0  0  0  0
  3  4  1  0  0  0  0
  3  8  1  0  0  0  0
  4  5  2  0  0  0  0
  4 29  1  0  0  0  0
  5  6  1  0  0  0  0
  5  7  1  0  0  0  0
  6 30  1  0  0  0  0
  8  9  1  0  0  0  0
  8 31  1  0  0  0  0
  9 26  2  0  0  0  0
  9 10  1  0  0  0  0
 10 15  2  0  0  0  0
 10 11  1  0  0  0  0
 11 12  2  0  0  0  0
 11 24  1  0  0  0  0
 12 13  1  0  0  0  0
 12 32  1  0  0  0  0
 13 14  2  0  0  0  0
 14 15  1  0  0  0  0
 14 16  1  0  0  0  0
 16 17  1  0  0  0  0
 16 33  1  0  0  0  0
 17 18  1  0  0  0  0
 17 34  1  0  0  0  0
 17 35  1  0  0  0  0
 18 19  1  0  0  0  0
 18 36  1  0  0  0  0
 18 37  1  0  0  0  0
 19 20  2  0  0  0  0
 19 41  1  0  0  0  0
 20 21  1  0  0  0  0
 20 38  1  0  0  0  0
 21 22  1  0  0  0  0
 21 23  1  0  0  0  0
 23 39  1  0  0  0  0
 23 41  2  0  0  0  0
 24 25  2  0  0  0  0
 25 26  1  0  0  0  0
 25 40  1  0  0  0  0
 41 42  1  0  0  0  0
M  CHG  1  41   1
M  END
$$$$
ZINC03815048
  -OEChem-08230709403D

 33 36  0     0  0  0  0  0  0999 V2000
   -9.6980    2.3449    0.3958 C   0  0  0  0  0  0  0  0  0  0  0  0
   -8.4004    2.8086    0.4912 C   0  0  0  0  0  0  0  0  0  0  0  0
   -7.3545    2.0528   -0.0230 C   0  0  0  0  0  0  0  0  0  0  0  0
   -7.6179    0.8349   -0.6370 C   0  0  0  0  0  0  0  0  0  0  0  0
   -8.9176    0.3744   -0.7251 C   0  0  0  0  0  0  0  0  0  0  0  0
   -9.9570    1.1301   -0.2111 C   0  0  0  0  0  0  0  0  0  0  0  0
   -9.2774   -1.2863   -1.5548 Br  0  0  0  0  0  0  0  0  0  0  0  0
   -6.0405    2.5194    0.0722 N   0  0  0  0  0  0  0  0  0  0  0  0
   -4.9942    1.6205    0.2177 C   0  0  0  0  0  0  0  0  0  0  0  0
   -3.6747    2.0538    0.1995 C   0  0  0  0  0  0  0  0  0  0  0  0
   -2.6178    1.1475    0.3458 C   0  0  0  0  0  0  0  0  0  0  0  0
   -1.2600    1.7253    0.3042 C   0  0  0  0  0  0  0  0  0  0  0  0
   -0.0322    1.0381    0.4327 C   0  0  0  0  0  0  0  0  0  0  0  0
    1.1621    1.7211    0.3793 C   0  0  0  0  0  0  0  0  0  0  0  0
    1.1930    3.1027    0.2028 C   0  0  0  0  0  0  0  0  0  0  0  0
    0.0068    3.7969    0.0800 C   0  0  0  0  0  0  0  0  0  0  0  0
   -1.1941    3.1175    0.1332 C   0  0  0  0  0  0  0  0  0  0  0  0
   -2.8894    3.6316    0.0192 S   0  0  0  0  0  0  0  0  0  0  0  0
    2.3648    1.0158    0.5039 N   0  0  0  0  0  0  0  0  0  0  0  0
   -2.9652   -0.1499    0.5025 N   0  0  0  0  0  0  0  0  0  0  0  0
   -4.2200   -0.5228    0.5148 C   0  0  0  0  0  0  0  0  0  0  0  0
   -5.2287    0.3187    0.3782 N   0  0  0  0  0  0  0  0  0  0  0  0
  -10.5114    2.9324    0.7955 H   0  0  0  0  0  0  0  0  0  0  0  0
   -8.1991    3.7577    0.9655 H   0  0  0  0  0  0  0  0  0  0  0  0
   -6.8074    0.2470   -1.0418 H   0  0  0  0  0  0  0  0  0  0  0  0
  -10.9726    0.7702   -0.2847 H   0  0  0  0  0  0  0  0  0  0  0  0
   -5.8603    3.4718    0.0365 H   0  0  0  0  0  0  0  0  0  0  0  0
   -0.0303   -0.0332    0.5695 H   0  0  0  0  0  0  0  0  0  0  0  0
    2.1370    3.6258    0.1627 H   0  0  0  0  0  0  0  0  0  0  0  0
    0.0176    4.8682   -0.0568 H   0  0  0  0  0  0  0  0  0  0  0  0
    2.3524    0.0537    0.6267 H   0  0  0  0  0  0  0  0  0  0  0  0
    3.2107    1.4892    0.4674 H   0  0  0  0  0  0  0  0  0  0  0  0
   -4.4417   -1.5719    0.6436 H   0  0  0  0  0  0  0  0  0  0  0  0
  1  6  2  0  0  0  0
  1  2  1  0  0  0  0
  1 23  1  0  0  0  0
  2  3  2  0  0  0  0
  2 24  1  0  0  0  0
  3  4  1  0  0  0  0
  3  8  1  0  0  0  0
  4  5  2  0  0  0  0
  4 25  1  0  0  0  0
  5  6  1  0  0  0  0
  5  7  1  0  0  0  0
  6 26  1  0  0  0  0
  8  9  1  0  0  0  0
  8 27  1  0  0  0  0
  9 22  2  0  0  0  0
  9 10  1  0  0  0  0
 10 18  1  0  0  0  0
 10 11  2  0  0  0  0
 11 12  1  0  0  0  0
 11 20  1  0  0  0  0
 12 17  2  0  0  0  0
 12 13  1  0  0  0  0
 13 14  2  0  0  0  0
 13 28  1  0  0  0  0
 14 15  1  0  0  0  0
 14 19  1  0  0  0  0
 15 16  2  0  0  0  0
 15 29  1  0  0  0  0
 16 17  1  0  0  0  0
 16 30  1  0  0  0  0
 17 18  1  0  0  0  0
 19 31  1  0  0  0  0
 19 32  1  0  0  0  0
 20 21  2  0  0  0  0
 21 22  1  0  0  0  0
 21 33  1  0  0  0  0
M  END
$$$$
ZINC03815049
  -OEChem-08230709403D

 38 40  0     0  0  0  0  0  0999 V2000
    4.0877   -4.5419    0.2273 C   0  0  0  0  0  0  0  0  0  0  0  0
    2.8497   -3.9414    0.3484 C   0  0  0  0  0  0  0  0  0  0  0  0
    2.6507   -2.6577   -0.1435 C   0  0  0  0  0  0  0  0  0  0  0  0
    3.6968   -1.9837   -0.7607 C   0  0  0  0  0  0  0  0  0  0  0  0
    4.9342   -2.5880   -0.8745 C   0  0  0  0  0  0  0  0  0  0  0  0
    5.1286   -3.8672   -0.3832 C   0  0  0  0  0  0  0  0  0  0  0  0
    6.3610   -1.6696   -1.7092 Br  0  0  0  0  0  0  0  0  0  0  0  0
    1.3990   -2.0477   -0.0227 N   0  0  0  0  0  0  0  0  0  0  0  0
    1.3107   -0.6807    0.1420 C   0  0  0  0  0  0  0  0  0  0  0  0
    0.0199    0.0007    0.1513 C   0  0  0  0  0  0  0  0  0  0  0  0
   -1.1978   -0.6656   -0.0016 C   0  0  0  0  0  0  0  0  0  0  0  0
   -2.3630    0.0813    0.0236 C   0  0  0  0  0  0  0  0  0  0  0  0
   -1.2204    2.0754    0.3421 C   0  0  0  0  0  0  0  0  0  0  0  0
    0.0114    1.4085    0.3253 C   0  0  0  0  0  0  0  0  0  0  0  0
    1.1830    2.0416    0.4719 N   0  0  0  0  0  0  0  0  0  0  0  0
    2.3130    1.3790    0.4556 C   0  0  0  0  0  0  0  0  0  0  0  0
    2.3967    0.0674    0.2979 N   0  0  0  0  0  0  0  0  0  0  0  0
   -3.5889   -0.5624   -0.1270 N   0  0  0  0  0  0  0  0  0  0  0  0
   -3.6357   -2.0152   -0.3097 C   0  0  0  0  0  0  0  0  0  0  0  0
   -5.0914   -2.4649   -0.4496 C   0  0  0  0  0  0  0  0  0  0  0  0
   -5.1396   -3.9594   -0.6376 C   0  0  0  0  0  0  0  0  0  0  0  0
   -4.1148   -4.5991   -0.6576 O   0  0  0  0  0  0  0  0  0  0  0  0
    4.2427   -5.5400    0.6097 H   0  0  0  0  0  0  0  0  0  0  0  0
    2.0373   -4.4693    0.8254 H   0  0  0  0  0  0  0  0  0  0  0  0
    3.5442   -0.9870   -1.1479 H   0  0  0  0  0  0  0  0  0  0  0  0
    6.0953   -4.3394   -0.4772 H   0  0  0  0  0  0  0  0  0  0  0  0
    0.5923   -2.5855   -0.0548 H   0  0  0  0  0  0  0  0  0  0  0  0
   -1.2297   -1.7368   -0.1359 H   0  0  0  0  0  0  0  0  0  0  0  0
   -1.2521    3.1469    0.4732 H   0  0  0  0  0  0  0  0  0  0  0  0
    3.2303    1.9357    0.5779 H   0  0  0  0  0  0  0  0  0  0  0  0
   -4.4116   -0.0488   -0.1109 H   0  0  0  0  0  0  0  0  0  0  0  0
   -3.0837   -2.2862   -1.2097 H   0  0  0  0  0  0  0  0  0  0  0  0
   -3.1856   -2.5047    0.5539 H   0  0  0  0  0  0  0  0  0  0  0  0
   -5.6435   -2.1939    0.4503 H   0  0  0  0  0  0  0  0  0  0  0  0
   -5.5416   -1.9754   -1.3132 H   0  0  0  0  0  0  0  0  0  0  0  0
   -2.4118    1.4432    0.1898 N   0  3  0  0  0  0  0  0  0  0  0  0
   -3.3014    1.9559    0.1983 H   0  0  0  0  0  0  0  0  0  0  0  0
   -6.3210   -4.5798   -0.7828 O   0  5  0  0  0  0  0  0  0  0  0  0
  1  6  2  0  0  0  0
  1  2  1  0  0  0  0
  1 23  1  0  0  0  0
  2  3  2  0  0  0  0
  2 24  1  0  0  0  0
  3  4  1  0  0  0  0
  3  8  1  0  0  0  0
  4  5  2  0  0  0  0
  4 25  1  0  0  0  0
  5  6  1  0  0  0  0
  5  7  1  0  0  0  0
  6 26  1  0  0  0  0
  8  9  1  0  0  0  0
  8 27  1  0  0  0  0
  9 17  2  0  0  0  0
  9 10  1  0  0  0  0
 10 14  2  0  0  0  0
 10 11  1  0  0  0  0
 11 12  2  0  0  0  0
 11 28  1  0  0  0  0
 12 18  1  0  0  0  0
 12 36  1  0  0  0  0
 13 14  1  0  0  0  0
 13 29  1  0  0  0  0
 13 36  2  0  0  0  0
 14 15  1  0  0  0  0
 15 16  2  0  0  0  0
 16 17  1  0  0  0  0
 16 30  1  0  0  0  0
 18 19  1  0  0  0  0
 18 31  1  0  0  0  0
 19 20  1  0  0  0  0
 19 32  1  0  0  0  0
 19 33  1  0  0  0  0
 20 21  1  0  0  0  0
 20 34  1  0  0  0  0
 20 35  1  0  0  0  0
 21 22  2  0  0  0  0
 21 38  1  0  0  0  0
 36 37  1  0  0  0  0
M  CHG  2  36   1  38  -1
M  END
$$$$
ZINC03815050
  -OEChem-08230709403D

 35 37  0     0  0  0  0  0  0999 V2000
    4.0877   -4.5419    0.2273 C   0  0  0  0  0  0  0  0  0  0  0  0
    2.8497   -3.9414    0.3484 C   0  0  0  0  0  0  0  0  0  0  0  0
    2.6507   -2.6577   -0.1435 C   0  0  0  0  0  0  0  0  0  0  0  0
    3.6968   -1.9837   -0.7607 C   0  0  0  0  0  0  0  0  0  0  0  0
    4.9342   -2.5880   -0.8745 C   0  0  0  0  0  0  0  0  0  0  0  0
    5.1286   -3.8672   -0.3832 C   0  0  0  0  0  0  0  0  0  0  0  0
    6.3610   -1.6696   -1.7092 Br  0  0  0  0  0  0  0  0  0  0  0  0
    1.3990   -2.0477   -0.0227 N   0  0  0  0  0  0  0  0  0  0  0  0
    1.3107   -0.6807    0.1420 C   0  0  0  0  0  0  0  0  0  0  0  0
    0.0199    0.0007    0.1513 C   0  0  0  0  0  0  0  0  0  0  0  0
   -1.1978   -0.6656   -0.0016 C   0  0  0  0  0  0  0  0  0  0  0  0
   -2.3630    0.0813    0.0236 C   0  0  0  0  0  0  0  0  0  0  0  0
   -1.2204    2.0754    0.3421 C   0  0  0  0  0  0  0  0  0  0  0  0
    0.0114    1.4085    0.3253 C   0  0  0  0  0  0  0  0  0  0  0  0
    1.1830    2.0416    0.4719 N   0  0  0  0  0  0  0  0  0  0  0  0
    2.3130    1.3790    0.4556 C   0  0  0  0  0  0  0  0  0  0  0  0
    2.3967    0.0674    0.2979 N   0  0  0  0  0  0  0  0  0  0  0  0
   -3.5889   -0.5624   -0.1270 N   0  0  0  0  0  0  0  0  0  0  0  0
   -3.6357   -2.0152   -0.3097 C   0  0  0  0  0  0  0  0  0  0  0  0
   -5.0695   -2.4582   -0.4475 C   0  0  0  0  0  0  0  0  0  0  0  0
   -5.9608   -1.6439   -0.3981 O   0  0  0  0  0  0  0  0  0  0  0  0
    4.2427   -5.5400    0.6097 H   0  0  0  0  0  0  0  0  0  0  0  0
    2.0373   -4.4693    0.8254 H   0  0  0  0  0  0  0  0  0  0  0  0
    3.5442   -0.9870   -1.1479 H   0  0  0  0  0  0  0  0  0  0  0  0
    6.0953   -4.3394   -0.4772 H   0  0  0  0  0  0  0  0  0  0  0  0
    0.5923   -2.5855   -0.0548 H   0  0  0  0  0  0  0  0  0  0  0  0
   -1.2297   -1.7368   -0.1359 H   0  0  0  0  0  0  0  0  0  0  0  0
   -1.2521    3.1469    0.4732 H   0  0  0  0  0  0  0  0  0  0  0  0
    3.2303    1.9357    0.5779 H   0  0  0  0  0  0  0  0  0  0  0  0
   -4.4116   -0.0488   -0.1109 H   0  0  0  0  0  0  0  0  0  0  0  0
   -3.0837   -2.2862   -1.2097 H   0  0  0  0  0  0  0  0  0  0  0  0
   -3.1856   -2.5047    0.5539 H   0  0  0  0  0  0  0  0  0  0  0  0
   -2.4118    1.4432    0.1898 N   0  3  0  0  0  0  0  0  0  0  0  0
   -3.3014    1.9559    0.1983 H   0  0  0  0  0  0  0  0  0  0  0  0
   -5.3565   -3.7573   -0.6251 O   0  5  0  0  0  0  0  0  0  0  0  0
  1  6  2  0  0  0  0
  1  2  1  0  0  0  0
  1 22  1  0  0  0  0
  2  3  2  0  0  0  0
  2 23  1  0  0  0  0
  3  4  1  0  0  0  0
  3  8  1  0  0  0  0
  4  5  2  0  0  0  0
  4 24  1  0  0  0  0
  5  6  1  0  0  0  0
  5  7  1  0  0  0  0
  6 25  1  0  0  0  0
  8  9  1  0  0  0  0
  8 26  1  0  0  0  0
  9 17  2  0  0  0  0
  9 10  1  0  0  0  0
 10 14  2  0  0  0  0
 10 11  1  0  0  0  0
 11 12  2  0  0  0  0
 11 27  1  0  0  0  0
 12 18  1  0  0  0  0
 12 33  1  0  0  0  0
 13 14  1  0  0  0  0
 13 28  1  0  0  0  0
 13 33  2  0  0  0  0
 14 15  1  0  0  0  0
 15 16  2  0  0  0  0
 16 17  1  0  0  0  0
 16 29  1  0  0  0  0
 18 19  1  0  0  0  0
 18 30  1  0  0  0  0
 19 20  1  0  0  0  0
 19 31  1  0  0  0  0
 19 32  1  0  0  0  0
 20 21  2  0  0  0  0
 20 35  1  0  0  0  0
 33 34  1  0  0  0  0
M  CHG  2  33   1  35  -1
M  END
$$$$
ZINC03815051
  -OEChem-08230709403D

 41 43  0     0  0  0  0  0  0999 V2000
    2.1576    5.6966    0.3943 C   0  0  0  0  0  0  0  0  0  0  0  0
    2.2602    4.3225    0.4909 C   0  0  0  0  0  0  0  0  0  0  0  0
    3.3215    3.6622   -0.1146 C   0  0  0  0  0  0  0  0  0  0  0  0
    4.2799    4.3869   -0.8116 C   0  0  0  0  0  0  0  0  0  0  0  0
    4.1693    5.7608   -0.9084 C   0  0  0  0  0  0  0  0  0  0  0  0
    3.1101    6.4152   -0.3040 C   0  0  0  0  0  0  0  0  0  0  0  0
    5.4699    6.7485   -1.8618 Br  0  0  0  0  0  0  0  0  0  0  0  0
    3.4281    2.2717   -0.0180 N   0  0  0  0  0  0  0  0  0  0  0  0
    2.2914    1.4919   -0.0148 C   0  0  0  0  0  0  0  0  0  0  0  0
    2.3670    0.0967    0.2030 C   0  0  0  0  0  0  0  0  0  0  0  0
    3.5749   -0.5691    0.4254 C   0  0  0  0  0  0  0  0  0  0  0  0
    2.4714   -2.6007    0.6198 C   0  0  0  0  0  0  0  0  0  0  0  0
    1.2297   -2.0296    0.4088 C   0  0  0  0  0  0  0  0  0  0  0  0
    1.1579   -0.6486    0.1936 C   0  0  0  0  0  0  0  0  0  0  0  0
    0.0031   -0.0057   -0.0199 N   0  0  0  0  0  0  0  0  0  0  0  0
   -0.0055    1.2929   -0.2168 C   0  0  0  0  0  0  0  0  0  0  0  0
    1.0938    2.0290   -0.2171 N   0  0  0  0  0  0  0  0  0  0  0  0
    2.5604   -3.9699    0.8350 N   0  0  0  0  0  0  0  0  0  0  0  0
    1.3474   -4.7915    0.8366 C   0  0  0  0  0  0  0  0  0  0  0  0
    1.7214   -6.2525    1.0942 C   0  0  0  0  0  0  0  0  0  0  0  0
    0.4547   -7.1106    1.0959 C   0  0  0  0  0  0  0  0  0  0  0  0
    0.8230   -8.5496    1.3497 C   0  0  0  0  0  0  0  0  0  0  0  0
    1.9800   -8.8574    1.5126 O   0  0  0  0  0  0  0  0  0  0  0  0
    1.3324    6.2103    0.8651 H   0  0  0  0  0  0  0  0  0  0  0  0
    1.5156    3.7620    1.0367 H   0  0  0  0  0  0  0  0  0  0  0  0
    5.1086    3.8769   -1.2801 H   0  0  0  0  0  0  0  0  0  0  0  0
    3.0277    7.4896   -0.3777 H   0  0  0  0  0  0  0  0  0  0  0  0
    4.3020    1.8556    0.0467 H   0  0  0  0  0  0  0  0  0  0  0  0
    4.5023   -0.0157    0.4358 H   0  0  0  0  0  0  0  0  0  0  0  0
    0.3358   -2.6356    0.4097 H   0  0  0  0  0  0  0  0  0  0  0  0
   -0.9528    1.7814   -0.3908 H   0  0  0  0  0  0  0  0  0  0  0  0
    3.4256   -4.3822    0.9842 H   0  0  0  0  0  0  0  0  0  0  0  0
    0.6748   -4.4448    1.6211 H   0  0  0  0  0  0  0  0  0  0  0  0
    0.8511   -4.7086   -0.1303 H   0  0  0  0  0  0  0  0  0  0  0  0
    2.3940   -6.5992    0.3097 H   0  0  0  0  0  0  0  0  0  0  0  0
    2.2177   -6.3354    2.0612 H   0  0  0  0  0  0  0  0  0  0  0  0
   -0.2180   -6.7639    1.8805 H   0  0  0  0  0  0  0  0  0  0  0  0
   -0.0416   -7.0276    0.1290 H   0  0  0  0  0  0  0  0  0  0  0  0
    3.6579   -1.9077    0.6354 N   0  3  0  0  0  0  0  0  0  0  0  0
    4.5572   -2.3762    0.7969 H   0  0  0  0  0  0  0  0  0  0  0  0
   -0.1342   -9.4895    1.3949 O   0  5  0  0  0  0  0  0  0  0  0  0
  1  6  2  0  0  0  0
  1  2  1  0  0  0  0
  1 24  1  0  0  0  0
  2  3  2  0  0  0  0
  2 25  1  0  0  0  0
  3  4  1  0  0  0  0
  3  8  1  0  0  0  0
  4  5  2  0  0  0  0
  4 26  1  0  0  0  0
  5  6  1  0  0  0  0
  5  7  1  0  0  0  0
  6 27  1  0  0  0  0
  8  9  1  0  0  0  0
  8 28  1  0  0  0  0
  9 17  2  0  0  0  0
  9 10  1  0  0  0  0
 10 14  2  0  0  0  0
 10 11  1  0  0  0  0
 11 29  1  0  0  0  0
 11 39  2  0  0  0  0
 12 13  2  0  0  0  0
 12 18  1  0  0  0  0
 12 39  1  0  0  0  0
 13 14  1  0  0  0  0
 13 30  1  0  0  0  0
 14 15  1  0  0  0  0
 15 16  2  0  0  0  0
 16 17  1  0  0  0  0
 16 31  1  0  0  0  0
 18 19  1  0  0  0  0
 18 32  1  0  0  0  0
 19 20  1  0  0  0  0
 19 33  1  0  0  0  0
 19 34  1  0  0  0  0
 20 21  1  0  0  0  0
 20 35  1  0  0  0  0
 20 36  1  0  0  0  0
 21 22  1  0  0  0  0
 21 37  1  0  0  0  0
 21 38  1  0  0  0  0
 22 23  2  0  0  0  0
 22 41  1  0  0  0  0
 39 40  1  0  0  0  0
M  CHG  2  39   1  41  -1
M  END
$$$$
ZINC03815052
  -OEChem-08230709403D

 34 37  0     0  0  0  0  0  0999 V2000
   -1.1244   -0.8108   -1.3301 C   0  0  0  0  0  0  0  0  0  0  0  0
    0.0797    0.0518   -1.0526 C   0  0  0  0  0  0  0  0  0  0  0  0
    0.0520    1.4049   -0.9193 N   0  0  0  0  0  0  0  0  0  0  0  0
   -0.7556    1.9908   -0.9864 H   0  0  0  0  0  0  0  0  0  0  0  0
    1.3500    1.8210   -0.6733 C   0  0  0  0  0  0  0  0  0  0  0  0
    1.9267    3.0542   -0.4569 C   0  0  0  0  0  0  0  0  0  0  0  0
    3.3019    3.1411   -0.2319 C   0  0  0  0  0  0  0  0  0  0  0  0
    4.0999    1.9667   -0.2261 C   0  0  0  0  0  0  0  0  0  0  0  0
    3.5072    0.7241   -0.4460 C   0  0  0  0  0  0  0  0  0  0  0  0
    2.1372    0.6473   -0.6692 C   0  0  0  0  0  0  0  0  0  0  0  0
    1.2939   -0.3917   -0.9072 N   0  0  0  0  0  0  0  0  0  0  0  0
    5.4213    2.0876   -0.0056 N   0  0  0  0  0  0  0  0  0  0  0  0
    5.9564    3.2663    0.1991 C   0  0  0  0  0  0  0  0  0  0  0  0
    5.2521    4.3878    0.2027 N   0  0  0  0  0  0  0  0  0  0  0  0
    3.9424    4.3850   -0.0039 C   0  0  0  0  0  0  0  0  0  0  0  0
    3.2220    5.5616    0.0024 N   0  0  0  0  0  0  0  0  0  0  0  0
    3.8860    6.7870    0.1085 C   0  0  0  0  0  0  0  0  0  0  0  0
    5.1262    6.9612   -0.4933 C   0  0  0  0  0  0  0  0  0  0  0  0
    5.7797    8.1730   -0.3872 C   0  0  0  0  0  0  0  0  0  0  0  0
    5.2014    9.2132    0.3172 C   0  0  0  0  0  0  0  0  0  0  0  0
    3.9663    9.0437    0.9174 C   0  0  0  0  0  0  0  0  0  0  0  0
    3.3050    7.8347    0.8108 C   0  0  0  0  0  0  0  0  0  0  0  0
    3.1796   10.4693    1.8788 Br  0  0  0  0  0  0  0  0  0  0  0  0
   -1.2556   -0.9160   -2.4071 H   0  0  0  0  0  0  0  0  0  0  0  0
   -0.9772   -1.7945   -0.8843 H   0  0  0  0  0  0  0  0  0  0  0  0
   -2.0114   -0.3458   -0.8998 H   0  0  0  0  0  0  0  0  0  0  0  0
    1.3189    3.9469   -0.4611 H   0  0  0  0  0  0  0  0  0  0  0  0
    4.1084   -0.1730   -0.4426 H   0  0  0  0  0  0  0  0  0  0  0  0
    7.0207    3.3258    0.3725 H   0  0  0  0  0  0  0  0  0  0  0  0
    2.2548    5.5385   -0.0669 H   0  0  0  0  0  0  0  0  0  0  0  0
    5.5788    6.1494   -1.0432 H   0  0  0  0  0  0  0  0  0  0  0  0
    6.7435    8.3088   -0.8552 H   0  0  0  0  0  0  0  0  0  0  0  0
    5.7147   10.1599    0.3985 H   0  0  0  0  0  0  0  0  0  0  0  0
    2.3393    7.7038    1.2763 H   0  0  0  0  0  0  0  0  0  0  0  0
  1  2  1  0  0  0  0
  1 24  1  0  0  0  0
  1 25  1  0  0  0  0
  1 26  1  0  0  0  0
  2 11  2  0  0  0  0
  2  3  1  0  0  0  0
  3  4  1  0  0  0  0
  3  5  1  0  0  0  0
  5 10  2  0  0  0  0
  5  6  1  0  0  0  0
  6  7  2  0  0  0  0
  6 27  1  0  0  0  0
  7 15  1  0  0  0  0
  7  8  1  0  0  0  0
  8  9  2  0  0  0  0
  8 12  1  0  0  0  0
  9 10  1  0  0  0  0
  9 28  1  0  0  0  0
 10 11  1  0  0  0  0
 12 13  2  0  0  0  0
 13 14  1  0  0  0  0
 13 29  1  0  0  0  0
 14 15  2  0  0  0  0
 15 16  1  0  0  0  0
 16 17  1  0  0  0  0
 16 30  1  0  0  0  0
 17 22  2  0  0  0  0
 17 18  1  0  0  0  0
 18 19  2  0  0  0  0
 18 31  1  0  0  0  0
 19 20  1  0  0  0  0
 19 32  1  0  0  0  0
 20 21  2  0  0  0  0
 20 33  1  0  0  0  0
 21 22  1  0  0  0  0
 21 23  1  0  0  0  0
 22 34  1  0  0  0  0
M  END
$$$$
ZINC03815052
  -OEChem-08230709403D

 35 38  0     0  0  0  0  0  0999 V2000
   -1.1244   -0.8108   -1.3301 C   0  0  0  0  0  0  0  0  0  0  0  0
    0.0797    0.0518   -1.0526 C   0  0  0  0  0  0  0  0  0  0  0  0
    0.0520    1.4049   -0.9193 N   0  0  0  0  0  0  0  0  0  0  0  0
   -0.7556    1.9908   -0.9864 H   0  0  0  0  0  0  0  0  0  0  0  0
    1.3500    1.8210   -0.6733 C   0  0  0  0  0  0  0  0  0  0  0  0
    1.9267    3.0542   -0.4569 C   0  0  0  0  0  0  0  0  0  0  0  0
    3.3019    3.1411   -0.2319 C   0  0  0  0  0  0  0  0  0  0  0  0
    4.0999    1.9667   -0.2261 C   0  0  0  0  0  0  0  0  0  0  0  0
    3.5072    0.7241   -0.4460 C   0  0  0  0  0  0  0  0  0  0  0  0
    2.1372    0.6473   -0.6692 C   0  0  0  0  0  0  0  0  0  0  0  0
    5.4213    2.0876   -0.0056 N   0  0  0  0  0  0  0  0  0  0  0  0
    5.9564    3.2663    0.1991 C   0  0  0  0  0  0  0  0  0  0  0  0
    5.2521    4.3878    0.2027 N   0  0  0  0  0  0  0  0  0  0  0  0
    3.9424    4.3850   -0.0039 C   0  0  0  0  0  0  0  0  0  0  0  0
    3.2220    5.5616    0.0024 N   0  0  0  0  0  0  0  0  0  0  0  0
    3.8860    6.7870    0.1085 C   0  0  0  0  0  0  0  0  0  0  0  0
    5.1262    6.9612   -0.4933 C   0  0  0  0  0  0  0  0  0  0  0  0
    5.7797    8.1730   -0.3872 C   0  0  0  0  0  0  0  0  0  0  0  0
    5.2014    9.2132    0.3172 C   0  0  0  0  0  0  0  0  0  0  0  0
    3.9663    9.0437    0.9174 C   0  0  0  0  0  0  0  0  0  0  0  0
    3.3050    7.8347    0.8108 C   0  0  0  0  0  0  0  0  0  0  0  0
    3.1796   10.4693    1.8788 Br  0  0  0  0  0  0  0  0  0  0  0  0
   -1.2556   -0.9160   -2.4071 H   0  0  0  0  0  0  0  0  0  0  0  0
   -0.9772   -1.7945   -0.8843 H   0  0  0  0  0  0  0  0  0  0  0  0
   -2.0114   -0.3458   -0.8998 H   0  0  0  0  0  0  0  0  0  0  0  0
    1.3189    3.9469   -0.4611 H   0  0  0  0  0  0  0  0  0  0  0  0
    4.1084   -0.1730   -0.4426 H   0  0  0  0  0  0  0  0  0  0  0  0
    7.0207    3.3258    0.3725 H   0  0  0  0  0  0  0  0  0  0  0  0
    2.2548    5.5385   -0.0669 H   0  0  0  0  0  0  0  0  0  0  0  0
    5.5788    6.1494   -1.0432 H   0  0  0  0  0  0  0  0  0  0  0  0
    6.7435    8.3088   -0.8552 H   0  0  0  0  0  0  0  0  0  0  0  0
    5.7147   10.1599    0.3985 H   0  0  0  0  0  0  0  0  0  0  0  0
    2.3393    7.7038    1.2763 H   0  0  0  0  0  0  0  0  0  0  0  0
    1.2944   -0.3935   -0.9073 N   0  3  0  0  0  0  0  0  0  0  0  0
    1.5736   -1.3799   -0.9638 H   0  0  0  0  0  0  0  0  0  0  0  0
  1  2  1  0  0  0  0
  1 23  1  0  0  0  0
  1 24  1  0  0  0  0
  1 25  1  0  0  0  0
  2  3  1  0  0  0  0
  2 34  2  0  0  0  0
  3  4  1  0  0  0  0
  3  5  1  0  0  0  0
  5 10  2  0  0  0  0
  5  6  1  0  0  0  0
  6  7  2  0  0  0  0
  6 26  1  0  0  0  0
  7 14  1  0  0  0  0
  7  8  1  0  0  0  0
  8  9  2  0  0  0  0
  8 11  1  0  0  0  0
  9 10  1  0  0  0  0
  9 27  1  0  0  0  0
 10 34  1  0  0  0  0
 11 12  2  0  0  0  0
 12 13  1  0  0  0  0
 12 28  1  0  0  0  0
 13 14  2  0  0  0  0
 14 15  1  0  0  0  0
 15 16  1  0  0  0  0
 15 29  1  0  0  0  0
 16 21  2  0  0  0  0
 16 17  1  0  0  0  0
 17 18  2  0  0  0  0
 17 30  1  0  0  0  0
 18 19  1  0  0  0  0
 18 31  1  0  0  0  0
 19 20  2  0  0  0  0
 19 32  1  0  0  0  0
 20 21  1  0  0  0  0
 20 22  1  0  0  0  0
 21 33  1  0  0  0  0
 34 35  1  0  0  0  0
M  CHG  1  34   1
M  END
$$$$
ZINC03815052
  -OEChem-08230709403D

 34 37  0     0  0  0  0  0  0999 V2000
   -1.1244   -0.8108   -1.3301 C   0  0  0  0  0  0  0  0  0  0  0  0
    0.0797    0.0518   -1.0526 C   0  0  0  0  0  0  0  0  0  0  0  0
    0.0520    1.4049   -0.9193 N   0  0  0  0  0  0  0  0  0  0  0  0
   -0.7556    1.9908   -0.9864 H   0  0  0  0  0  0  0  0  0  0  0  0
    1.3500    1.8210   -0.6733 C   0  0  0  0  0  0  0  0  0  0  0  0
    1.9267    3.0542   -0.4569 C   0  0  0  0  0  0  0  0  0  0  0  0
    3.3019    3.1411   -0.2319 C   0  0  0  0  0  0  0  0  0  0  0  0
    4.0999    1.9667   -0.2261 C   0  0  0  0  0  0  0  0  0  0  0  0
    3.5072    0.7241   -0.4460 C   0  0  0  0  0  0  0  0  0  0  0  0
    2.1372    0.6473   -0.6692 C   0  0  0  0  0  0  0  0  0  0  0  0
    1.2939   -0.3917   -0.9072 N   0  0  0  0  0  0  0  0  0  0  0  0
    5.4213    2.0876   -0.0056 N   0  0  0  0  0  0  0  0  0  0  0  0
    5.9564    3.2663    0.1991 C   0  0  0  0  0  0  0  0  0  0  0  0
    5.2521    4.3878    0.2027 N   0  0  0  0  0  0  0  0  0  0  0  0
    3.9424    4.3850   -0.0039 C   0  0  0  0  0  0  0  0  0  0  0  0
    3.2220    5.5616    0.0024 N   0  0  0  0  0  0  0  0  0  0  0  0
    3.8860    6.7870    0.1085 C   0  0  0  0  0  0  0  0  0  0  0  0
    5.1262    6.9612   -0.4933 C   0  0  0  0  0  0  0  0  0  0  0  0
    5.7797    8.1730   -0.3872 C   0  0  0  0  0  0  0  0  0  0  0  0
    5.2014    9.2132    0.3172 C   0  0  0  0  0  0  0  0  0  0  0  0
    3.9663    9.0437    0.9174 C   0  0  0  0  0  0  0  0  0  0  0  0
    3.3050    7.8347    0.8108 C   0  0  0  0  0  0  0  0  0  0  0  0
    3.1796   10.4693    1.8788 Br  0  0  0  0  0  0  0  0  0  0  0  0
   -1.2556   -0.9160   -2.4071 H   0  0  0  0  0  0  0  0  0  0  0  0
   -0.9772   -1.7945   -0.8843 H   0  0  0  0  0  0  0  0  0  0  0  0
   -2.0114   -0.3458   -0.8998 H   0  0  0  0  0  0  0  0  0  0  0  0
    1.3189    3.9469   -0.4611 H   0  0  0  0  0  0  0  0  0  0  0  0
    4.1084   -0.1730   -0.4426 H   0  0  0  0  0  0  0  0  0  0  0  0
    7.0207    3.3258    0.3725 H   0  0  0  0  0  0  0  0  0  0  0  0
    2.2548    5.5385   -0.0669 H   0  0  0  0  0  0  0  0  0  0  0  0
    5.5788    6.1494   -1.0432 H   0  0  0  0  0  0  0  0  0  0  0  0
    6.7435    8.3088   -0.8552 H   0  0  0  0  0  0  0  0  0  0  0  0
    5.7147   10.1599    0.3985 H   0  0  0  0  0  0  0  0  0  0  0  0
    2.3393    7.7038    1.2763 H   0  0  0  0  0  0  0  0  0  0  0  0
  1  2  1  0  0  0  0
  1 24  1  0  0  0  0
  1 25  1  0  0  0  0
  1 26  1  0  0  0  0
  2 11  2  0  0  0  0
  2  3  1  0  0  0  0
  3  4  1  0  0  0  0
  3  5  1  0  0  0  0
  5 10  2  0  0  0  0
  5  6  1  0  0  0  0
  6  7  2  0  0  0  0
  6 27  1  0  0  0  0
  7 15  1  0  0  0  0
  7  8  1  0  0  0  0
  8  9  2  0  0  0  0
  8 12  1  0  0  0  0
  9 10  1  0  0  0  0
  9 28  1  0  0  0  0
 10 11  1  0  0  0  0
 12 13  2  0  0  0  0
 13 14  1  0  0  0  0
 13 29  1  0  0  0  0
 14 15  2  0  0  0  0
 15 16  1  0  0  0  0
 16 17  1  0  0  0  0
 16 30  1  0  0  0  0
 17 22  2  0  0  0  0
 17 18  1  0  0  0  0
 18 19  2  0  0  0  0
 18 31  1  0  0  0  0
 19 20  1  0  0  0  0
 19 32  1  0  0  0  0
 20 21  2  0  0  0  0
 20 33  1  0  0  0  0
 21 22  1  0  0  0  0
 21 23  1  0  0  0  0
 22 34  1  0  0  0  0
M  END
$$$$
ZINC03815054
  -OEChem-08230709403D

 31 34  0     0  0  0  0  0  0999 V2000
    7.3400   -2.6765    0.2973 C   0  0  0  0  0  0  0  0  0  0  0  0
    6.1117   -2.0562    0.4181 C   0  0  0  0  0  0  0  0  0  0  0  0
    4.9873   -2.6251   -0.1661 C   0  0  0  0  0  0  0  0  0  0  0  0
    5.1008   -3.8199   -0.8657 C   0  0  0  0  0  0  0  0  0  0  0  0
    6.3332   -4.4326   -0.9874 C   0  0  0  0  0  0  0  0  0  0  0  0
    7.4513   -3.8627   -0.4039 C   0  0  0  0  0  0  0  0  0  0  0  0
    6.4908   -6.0556   -1.9450 Br  0  0  0  0  0  0  0  0  0  0  0  0
    3.7431   -1.9997   -0.0455 N   0  0  0  0  0  0  0  0  0  0  0  0
    3.6606   -0.6230   -0.0438 C   0  0  0  0  0  0  0  0  0  0  0  0
    2.4252    0.0323    0.1987 C   0  0  0  0  0  0  0  0  0  0  0  0
    1.2543   -0.6831    0.4440 C   0  0  0  0  0  0  0  0  0  0  0  0
    0.0730   -0.0022    0.6758 C   0  0  0  0  0  0  0  0  0  0  0  0
    0.0517    1.4128    0.6643 C   0  0  0  0  0  0  0  0  0  0  0  0
    1.2166    2.1342    0.4206 C   0  0  0  0  0  0  0  0  0  0  0  0
    2.4088    1.4526    0.1861 C   0  0  0  0  0  0  0  0  0  0  0  0
    3.5592    2.1081   -0.0544 N   0  0  0  0  0  0  0  0  0  0  0  0
    4.6689    1.4462   -0.2709 C   0  0  0  0  0  0  0  0  0  0  0  0
    4.7326    0.1229   -0.2690 N   0  0  0  0  0  0  0  0  0  0  0  0
   -1.3296    1.8014    0.9455 C   0  0  0  0  0  0  0  0  0  0  0  0
   -2.0286    0.7142    1.0938 N   0  0  0  0  0  0  0  0  0  0  0  0
   -1.2136   -0.4116    0.9412 N   0  0  0  0  0  0  0  0  0  0  0  0
   -1.5170   -1.3617    1.0133 H   0  0  0  0  0  0  0  0  0  0  0  0
    8.2144   -2.2343    0.7515 H   0  0  0  0  0  0  0  0  0  0  0  0
    6.0257   -1.1296    0.9661 H   0  0  0  0  0  0  0  0  0  0  0  0
    4.2276   -4.2670   -1.3173 H   0  0  0  0  0  0  0  0  0  0  0  0
    8.4128   -4.3459   -0.4962 H   0  0  0  0  0  0  0  0  0  0  0  0
    2.9377   -2.5339    0.0370 H   0  0  0  0  0  0  0  0  0  0  0  0
    1.2693   -1.7630    0.4527 H   0  0  0  0  0  0  0  0  0  0  0  0
    1.1964    3.2140    0.4124 H   0  0  0  0  0  0  0  0  0  0  0  0
    5.5734    2.0051   -0.4602 H   0  0  0  0  0  0  0  0  0  0  0  0
   -1.7044    2.8121    1.0121 H   0  0  0  0  0  0  0  0  0  0  0  0
  1  6  2  0  0  0  0
  1  2  1  0  0  0  0
  1 23  1  0  0  0  0
  2  3  2  0  0  0  0
  2 24  1  0  0  0  0
  3  4  1  0  0  0  0
  3  8  1  0  0  0  0
  4  5  2  0  0  0  0
  4 25  1  0  0  0  0
  5  6  1  0  0  0  0
  5  7  1  0  0  0  0
  6 26  1  0  0  0  0
  8  9  1  0  0  0  0
  8 27  1  0  0  0  0
  9 18  2  0  0  0  0
  9 10  1  0  0  0  0
 10 15  2  0  0  0  0
 10 11  1  0  0  0  0
 11 12  2  0  0  0  0
 11 28  1  0  0  0  0
 12 21  1  0  0  0  0
 12 13  1  0  0  0  0
 13 14  2  0  0  0  0
 13 19  1  0  0  0  0
 14 15  1  0  0  0  0
 14 29  1  0  0  0  0
 15 16  1  0  0  0  0
 16 17  2  0  0  0  0
 17 18  1  0  0  0  0
 17 30  1  0  0  0  0
 19 20  2  0  0  0  0
 19 31  1  0  0  0  0
 20 21  1  0  0  0  0
 21 22  1  0  0  0  0
M  END
$$$$
ZINC03815055
  -OEChem-08230709403D

 30 32  0     0  0  0  0  0  0999 V2000
   -1.4911    6.0223    0.3363 C   0  0  0  0  0  0  0  0  0  0  0  0
   -0.2808    5.3630    0.4278 C   0  0  0  0  0  0  0  0  0  0  0  0
   -0.1517    4.0771   -0.0810 C   0  0  0  0  0  0  0  0  0  0  0  0
   -1.2397    3.4599   -0.6853 C   0  0  0  0  0  0  0  0  0  0  0  0
   -2.4488    4.1229   -0.7693 C   0  0  0  0  0  0  0  0  0  0  0  0
   -2.5738    5.4037   -0.2610 C   0  0  0  0  0  0  0  0  0  0  0  0
   -4.0925    3.1911   -1.6744 I   0  0  0  0  0  0  0  0  0  0  0  0
    1.0720    3.4075    0.0097 N   0  0  0  0  0  0  0  0  0  0  0  0
    1.0985    2.0364    0.1628 C   0  0  0  0  0  0  0  0  0  0  0  0
    2.3222    1.3266    0.1397 C   0  0  0  0  0  0  0  0  0  0  0  0
    3.5514    1.9740   -0.0378 C   0  0  0  0  0  0  0  0  0  0  0  0
    4.7020    1.2465   -0.0537 C   0  0  0  0  0  0  0  0  0  0  0  0
    4.6735   -0.1437    0.1053 C   0  0  0  0  0  0  0  0  0  0  0  0
    3.4763   -0.8087    0.2820 C   0  0  0  0  0  0  0  0  0  0  0  0
    2.2819   -0.0808    0.3016 C   0  0  0  0  0  0  0  0  0  0  0  0
    1.0909   -0.6768    0.4697 N   0  0  0  0  0  0  0  0  0  0  0  0
   -0.0121    0.0334    0.4830 C   0  0  0  0  0  0  0  0  0  0  0  0
   -0.0230    1.3484    0.3353 N   0  0  0  0  0  0  0  0  0  0  0  0
    5.8657   -0.8643    0.0851 N   0  0  0  0  0  0  0  0  0  0  0  0
   -1.5918    7.0224    0.7314 H   0  0  0  0  0  0  0  0  0  0  0  0
    0.5643    5.8469    0.8948 H   0  0  0  0  0  0  0  0  0  0  0  0
   -1.1414    2.4618   -1.0858 H   0  0  0  0  0  0  0  0  0  0  0  0
   -3.5190    5.9214   -0.3312 H   0  0  0  0  0  0  0  0  0  0  0  0
    1.9025    3.9067   -0.0350 H   0  0  0  0  0  0  0  0  0  0  0  0
    3.5863    3.0463   -0.1619 H   0  0  0  0  0  0  0  0  0  0  0  0
    5.6484    1.7484   -0.1904 H   0  0  0  0  0  0  0  0  0  0  0  0
    3.4622   -1.8817    0.4045 H   0  0  0  0  0  0  0  0  0  0  0  0
   -0.9533   -0.4781    0.6203 H   0  0  0  0  0  0  0  0  0  0  0  0
    6.7096   -0.4023   -0.0388 H   0  0  0  0  0  0  0  0  0  0  0  0
    5.8519   -1.8280    0.1948 H   0  0  0  0  0  0  0  0  0  0  0  0
  1  6  2  0  0  0  0
  1  2  1  0  0  0  0
  1 20  1  0  0  0  0
  2  3  2  0  0  0  0
  2 21  1  0  0  0  0
  3  4  1  0  0  0  0
  3  8  1  0  0  0  0
  4  5  2  0  0  0  0
  4 22  1  0  0  0  0
  5  6  1  0  0  0  0
  5  7  1  0  0  0  0
  6 23  1  0  0  0  0
  8  9  1  0  0  0  0
  8 24  1  0  0  0  0
  9 18  2  0  0  0  0
  9 10  1  0  0  0  0
 10 15  2  0  0  0  0
 10 11  1  0  0  0  0
 11 12  2  0  0  0  0
 11 25  1  0  0  0  0
 12 13  1  0  0  0  0
 12 26  1  0  0  0  0
 13 14  2  0  0  0  0
 13 19  1  0  0  0  0
 14 15  1  0  0  0  0
 14 27  1  0  0  0  0
 15 16  1  0  0  0  0
 16 17  2  0  0  0  0
 17 18  1  0  0  0  0
 17 28  1  0  0  0  0
 19 29  1  0  0  0  0
 19 30  1  0  0  0  0
M  END
$$$$
ZINC03815056
  -OEChem-08230709403D

 56 58  0     0  0  0  0  0  0999 V2000
    4.4126   -1.5015   -1.8628 C   0  0  0  0  0  0  0  0  0  0  0  0
    3.1182   -1.2242   -1.4682 C   0  0  0  0  0  0  0  0  0  0  0  0
    2.5204   -0.0278   -1.8430 C   0  0  0  0  0  0  0  0  0  0  0  0
    3.2249    0.8843   -2.6184 C   0  0  0  0  0  0  0  0  0  0  0  0
    4.5211    0.6032   -3.0059 C   0  0  0  0  0  0  0  0  0  0  0  0
    5.1134   -0.5900   -2.6305 C   0  0  0  0  0  0  0  0  0  0  0  0
    5.4837    1.8463   -4.0565 Br  0  0  0  0  0  0  0  0  0  0  0  0
    1.2106    0.2552   -1.4455 N   0  0  0  0  0  0  0  0  0  0  0  0
    0.8395    1.5548   -1.1678 C   0  0  0  0  0  0  0  0  0  0  0  0
   -0.5452    1.8994   -0.8606 C   0  0  0  0  0  0  0  0  0  0  0  0
   -1.5773    0.9594   -0.8246 C   0  0  0  0  0  0  0  0  0  0  0  0
   -2.8548    1.3979   -0.5213 C   0  0  0  0  0  0  0  0  0  0  0  0
   -2.1719    3.6025   -0.2842 C   0  0  0  0  0  0  0  0  0  0  0  0
   -0.8481    3.2577   -0.5862 C   0  0  0  0  0  0  0  0  0  0  0  0
    0.1467    4.1544   -0.6220 N   0  0  0  0  0  0  0  0  0  0  0  0
    1.3727    3.7889   -0.9037 C   0  0  0  0  0  0  0  0  0  0  0  0
    1.7279    2.5418   -1.1696 N   0  0  0  0  0  0  0  0  0  0  0  0
   -3.8995    0.4777   -0.4798 N   0  0  0  0  0  0  0  0  0  0  0  0
   -3.6404   -0.9376   -0.7554 C   0  0  0  0  0  0  0  0  0  0  0  0
   -4.9469   -1.7262   -0.6450 C   0  0  0  0  0  0  0  0  0  0  0  0
   -4.6763   -3.2043   -0.9329 C   0  0  0  0  0  0  0  0  0  0  0  0
   -6.8743   -3.5671   -1.8813 C   0  0  0  0  0  0  0  0  0  0  0  0
   -8.2728   -4.0802   -1.5322 C   0  0  0  0  0  0  0  0  0  0  0  0
   -8.7420   -3.4205   -0.3547 O   0  0  0  0  0  0  0  0  0  0  0  0
   -5.6770   -5.4080   -0.8615 C   0  0  0  0  0  0  0  0  0  0  0  0
   -5.0606   -5.8496    0.4674 C   0  0  0  0  0  0  0  0  0  0  0  0
   -6.0109   -5.6639    1.5183 O   0  0  0  0  0  0  0  0  0  0  0  0
    4.8776   -2.4317   -1.5715 H   0  0  0  0  0  0  0  0  0  0  0  0
    2.5716   -1.9369   -0.8685 H   0  0  0  0  0  0  0  0  0  0  0  0
    2.7615    1.8137   -2.9149 H   0  0  0  0  0  0  0  0  0  0  0  0
    6.1250   -0.8097   -2.9382 H   0  0  0  0  0  0  0  0  0  0  0  0
    0.5625   -0.4620   -1.3650 H   0  0  0  0  0  0  0  0  0  0  0  0
   -1.3837   -0.0835   -1.0279 H   0  0  0  0  0  0  0  0  0  0  0  0
   -2.4267    4.6303   -0.0718 H   0  0  0  0  0  0  0  0  0  0  0  0
    2.1388    4.5500   -0.9199 H   0  0  0  0  0  0  0  0  0  0  0  0
   -4.7986    0.7739   -0.2683 H   0  0  0  0  0  0  0  0  0  0  0  0
   -3.2360   -1.0436   -1.7621 H   0  0  0  0  0  0  0  0  0  0  0  0
   -2.9213   -1.3228   -0.0326 H   0  0  0  0  0  0  0  0  0  0  0  0
   -5.3513   -1.6202    0.3616 H   0  0  0  0  0  0  0  0  0  0  0  0
   -5.6660   -1.3410   -1.3679 H   0  0  0  0  0  0  0  0  0  0  0  0
   -4.2719   -3.3103   -1.9395 H   0  0  0  0  0  0  0  0  0  0  0  0
   -3.9571   -3.5895   -0.2100 H   0  0  0  0  0  0  0  0  0  0  0  0
   -6.8957   -2.4803   -1.9619 H   0  0  0  0  0  0  0  0  0  0  0  0
   -6.5569   -3.9957   -2.8319 H   0  0  0  0  0  0  0  0  0  0  0  0
   -8.9523   -3.8744   -2.3592 H   0  0  0  0  0  0  0  0  0  0  0  0
   -8.2316   -5.1549   -1.3546 H   0  0  0  0  0  0  0  0  0  0  0  0
   -9.6250   -3.6974   -0.0741 H   0  0  0  0  0  0  0  0  0  0  0  0
   -6.6162   -5.9379   -1.0203 H   0  0  0  0  0  0  0  0  0  0  0  0
   -4.9886   -5.6368   -1.6751 H   0  0  0  0  0  0  0  0  0  0  0  0
   -4.7855   -6.9027    0.4082 H   0  0  0  0  0  0  0  0  0  0  0  0
   -4.1716   -5.2528    0.6717 H   0  0  0  0  0  0  0  0  0  0  0  0
   -5.6630   -5.8514    2.4009 H   0  0  0  0  0  0  0  0  0  0  0  0
   -3.1869    2.7020   -0.2502 N   0  3  0  0  0  0  0  0  0  0  0  0
   -4.1509    2.9811   -0.0336 H   0  0  0  0  0  0  0  0  0  0  0  0
   -5.9426   -3.9552   -0.8015 N   0  3  0  0  0  0  0  0  0  0  0  0
   -6.3705   -3.7316    0.1046 H   0  0  0  0  0  0  0  0  0  0  0  0
  1  6  2  0  0  0  0
  1  2  1  0  0  0  0
  1 28  1  0  0  0  0
  2  3  2  0  0  0  0
  2 29  1  0  0  0  0
  3  4  1  0  0  0  0
  3  8  1  0  0  0  0
  4  5  2  0  0  0  0
  4 30  1  0  0  0  0
  5  6  1  0  0  0  0
  5  7  1  0  0  0  0
  6 31  1  0  0  0  0
  8  9  1  0  0  0  0
  8 32  1  0  0  0  0
  9 17  2  0  0  0  0
  9 10  1  0  0  0  0
 10 14  2  0  0  0  0
 10 11  1  0  0  0  0
 11 12  2  0  0  0  0
 11 33  1  0  0  0  0
 12 18  1  0  0  0  0
 12 53  1  0  0  0  0
 13 14  1  0  0  0  0
 13 34  1  0  0  0  0
 13 53  2  0  0  0  0
 14 15  1  0  0  0  0
 15 16  2  0  0  0  0
 16 17  1  0  0  0  0
 16 35  1  0  0  0  0
 18 19  1  0  0  0  0
 18 36  1  0  0  0  0
 19 20  1  0  0  0  0
 19 37  1  0  0  0  0
 19 38  1  0  0  0  0
 20 21  1  0  0  0  0
 20 39  1  0  0  0  0
 20 40  1  0  0  0  0
 21 41  1  0  0  0  0
 21 42  1  0  0  0  0
 21 55  1  0  0  0  0
 22 23  1  0  0  0  0
 22 43  1  0  0  0  0
 22 44  1  0  0  0  0
 22 55  1  0  0  0  0
 23 24  1  0  0  0  0
 23 45  1  0  0  0  0
 23 46  1  0  0  0  0
 24 47  1  0  0  0  0
 25 26  1  0  0  0  0
 25 48  1  0  0  0  0
 25 49  1  0  0  0  0
 25 55  1  0  0  0  0
 26 27  1  0  0  0  0
 26 50  1  0  0  0  0
 26 51  1  0  0  0  0
 27 52  1  0  0  0  0
 53 54  1  0  0  0  0
 55 56  1  0  0  0  0
M  CHG  2  53   1  55   1
M  END
$$$$
ZINC03815057
  -OEChem-08230709403D

 34 37  0     0  0  0  0  0  0999 V2000
   -2.9614    4.9295    1.0221 C   0  0  0  0  0  0  0  0  0  0  0  0
   -2.4732    3.5507    0.9411 N   0  0  0  0  0  0  0  0  0  0  0  0
   -1.1762    3.1790    0.6831 C   0  0  0  0  0  0  0  0  0  0  0  0
   -0.0169    3.8950    0.4393 C   0  0  0  0  0  0  0  0  0  0  0  0
    1.1786    3.2162    0.2062 C   0  0  0  0  0  0  0  0  0  0  0  0
    1.2023    1.7952    0.2199 C   0  0  0  0  0  0  0  0  0  0  0  0
    0.0353    1.0775    0.4653 C   0  0  0  0  0  0  0  0  0  0  0  0
   -1.1532    1.7638    0.6914 C   0  0  0  0  0  0  0  0  0  0  0  0
   -2.5242    1.3357    0.9684 C   0  0  0  0  0  0  0  0  0  0  0  0
   -3.2558    2.4031    1.0995 N   0  0  0  0  0  0  0  0  0  0  0  0
    2.4406    1.1451   -0.0217 C   0  0  0  0  0  0  0  0  0  0  0  0
    3.5094    1.8963   -0.2472 N   0  0  0  0  0  0  0  0  0  0  0  0
    3.4388    3.2189   -0.2501 C   0  0  0  0  0  0  0  0  0  0  0  0
    2.3258    3.8759   -0.0339 N   0  0  0  0  0  0  0  0  0  0  0  0
    2.5295   -0.2306   -0.0223 N   0  0  0  0  0  0  0  0  0  0  0  0
    3.7766   -0.8503   -0.1421 C   0  0  0  0  0  0  0  0  0  0  0  0
    4.8985   -0.2760    0.4427 C   0  0  0  0  0  0  0  0  0  0  0  0
    6.1292   -0.8907    0.3232 C   0  0  0  0  0  0  0  0  0  0  0  0
    6.2464   -2.0770   -0.3778 C   0  0  0  0  0  0  0  0  0  0  0  0
    5.1315   -2.6522   -0.9612 C   0  0  0  0  0  0  0  0  0  0  0  0
    3.8960   -2.0444   -0.8410 C   0  0  0  0  0  0  0  0  0  0  0  0
    5.2970   -4.2748   -1.9182 Br  0  0  0  0  0  0  0  0  0  0  0  0
   -3.2866    5.2584    0.0351 H   0  0  0  0  0  0  0  0  0  0  0  0
   -3.8008    4.9776    1.7159 H   0  0  0  0  0  0  0  0  0  0  0  0
   -2.1602    5.5785    1.3757 H   0  0  0  0  0  0  0  0  0  0  0  0
   -0.0381    4.9748    0.4299 H   0  0  0  0  0  0  0  0  0  0  0  0
    0.0516   -0.0023    0.4756 H   0  0  0  0  0  0  0  0  0  0  0  0
   -2.8677    0.3151    1.0501 H   0  0  0  0  0  0  0  0  0  0  0  0
    4.3406    3.7821   -0.4399 H   0  0  0  0  0  0  0  0  0  0  0  0
    1.7266   -0.7685    0.0604 H   0  0  0  0  0  0  0  0  0  0  0  0
    4.8080    0.6506    0.9901 H   0  0  0  0  0  0  0  0  0  0  0  0
    7.0013   -0.4446    0.7780 H   0  0  0  0  0  0  0  0  0  0  0  0
    7.2102   -2.5556   -0.4697 H   0  0  0  0  0  0  0  0  0  0  0  0
    3.0252   -2.4955   -1.2934 H   0  0  0  0  0  0  0  0  0  0  0  0
  1  2  1  0  0  0  0
  1 23  1  0  0  0  0
  1 24  1  0  0  0  0
  1 25  1  0  0  0  0
  2 10  1  0  0  0  0
  2  3  1  0  0  0  0
  3  8  2  0  0  0  0
  3  4  1  0  0  0  0
  4  5  2  0  0  0  0
  4 26  1  0  0  0  0
  5 14  1  0  0  0  0
  5  6  1  0  0  0  0
  6  7  2  0  0  0  0
  6 11  1  0  0  0  0
  7  8  1  0  0  0  0
  7 27  1  0  0  0  0
  8  9  1  0  0  0  0
  9 10  2  0  0  0  0
  9 28  1  0  0  0  0
 11 12  2  0  0  0  0
 11 15  1  0  0  0  0
 12 13  1  0  0  0  0
 13 14  2  0  0  0  0
 13 29  1  0  0  0  0
 15 16  1  0  0  0  0
 15 30  1  0  0  0  0
 16 21  2  0  0  0  0
 16 17  1  0  0  0  0
 17 18  2  0  0  0  0
 17 31  1  0  0  0  0
 18 19  1  0  0  0  0
 18 32  1  0  0  0  0
 19 20  2  0  0  0  0
 19 33  1  0  0  0  0
 20 21  1  0  0  0  0
 20 22  1  0  0  0  0
 21 34  1  0  0  0  0
M  END
$$$$
ZINC03815058
  -OEChem-08230709403D

 31 34  0     0  0  0  0  0  0999 V2000
    1.5127   -1.9014    0.5725 C   0  0  0  0  0  0  0  0  0  0  0  0
    1.3358   -0.5317    0.5504 C   0  0  0  0  0  0  0  0  0  0  0  0
    0.1651    0.0079    0.0329 C   0  0  0  0  0  0  0  0  0  0  0  0
   -0.8268   -0.8327   -0.4562 C   0  0  0  0  0  0  0  0  0  0  0  0
   -0.6419   -2.2018   -0.4352 C   0  0  0  0  0  0  0  0  0  0  0  0
    0.5261   -2.7357    0.0807 C   0  0  0  0  0  0  0  0  0  0  0  0
   -1.9886   -3.3473   -1.1061 Br  0  0  0  0  0  0  0  0  0  0  0  0
   -0.0169    1.3936    0.0097 N   0  0  0  0  0  0  0  0  0  0  0  0
    1.0658    2.2281   -0.1688 C   0  0  0  0  0  0  0  0  0  0  0  0
    0.9222    3.6373   -0.0789 C   0  0  0  0  0  0  0  0  0  0  0  0
   -0.3073    4.2315    0.1915 C   0  0  0  0  0  0  0  0  0  0  0  0
   -0.3932    5.6173    0.2693 C   0  0  0  0  0  0  0  0  0  0  0  0
   -1.4952    6.5434    0.5290 C   0  0  0  0  0  0  0  0  0  0  0  0
   -1.0176    7.7525    0.4871 N   0  0  0  0  0  0  0  0  0  0  0  0
    0.3531    7.7241    0.2134 N   0  0  0  0  0  0  0  0  0  0  0  0
    0.9446    8.5262    0.1309 H   0  0  0  0  0  0  0  0  0  0  0  0
    0.7578    6.4186    0.0758 C   0  0  0  0  0  0  0  0  0  0  0  0
    1.9812    5.8303   -0.1932 C   0  0  0  0  0  0  0  0  0  0  0  0
    2.0776    4.4413   -0.2733 C   0  0  0  0  0  0  0  0  0  0  0  0
    3.2485    3.8323   -0.5322 N   0  0  0  0  0  0  0  0  0  0  0  0
    3.3179    2.5256   -0.6029 C   0  0  0  0  0  0  0  0  0  0  0  0
    2.2700    1.7356   -0.4236 N   0  0  0  0  0  0  0  0  0  0  0  0
    2.4229   -2.3212    0.9748 H   0  0  0  0  0  0  0  0  0  0  0  0
    2.1071    0.1192    0.9348 H   0  0  0  0  0  0  0  0  0  0  0  0
   -1.7399   -0.4164   -0.8554 H   0  0  0  0  0  0  0  0  0  0  0  0
    0.6670   -3.8063    0.0996 H   0  0  0  0  0  0  0  0  0  0  0  0
   -0.9055    1.7678    0.1152 H   0  0  0  0  0  0  0  0  0  0  0  0
   -1.1865    3.6219    0.3391 H   0  0  0  0  0  0  0  0  0  0  0  0
   -2.5226    6.2717    0.7212 H   0  0  0  0  0  0  0  0  0  0  0  0
    2.8576    6.4442   -0.3400 H   0  0  0  0  0  0  0  0  0  0  0  0
    4.2751    2.0714   -0.8126 H   0  0  0  0  0  0  0  0  0  0  0  0
  1  6  2  0  0  0  0
  1  2  1  0  0  0  0
  1 23  1  0  0  0  0
  2  3  2  0  0  0  0
  2 24  1  0  0  0  0
  3  4  1  0  0  0  0
  3  8  1  0  0  0  0
  4  5  2  0  0  0  0
  4 25  1  0  0  0  0
  5  6  1  0  0  0  0
  5  7  1  0  0  0  0
  6 26  1  0  0  0  0
  8  9  1  0  0  0  0
  8 27  1  0  0  0  0
  9 22  2  0  0  0  0
  9 10  1  0  0  0  0
 10 19  2  0  0  0  0
 10 11  1  0  0  0  0
 11 12  2  0  0  0  0
 11 28  1  0  0  0  0
 12 17  1  0  0  0  0
 12 13  1  0  0  0  0
 13 14  2  0  0  0  0
 13 29  1  0  0  0  0
 14 15  1  0  0  0  0
 15 16  1  0  0  0  0
 15 17  1  0  0  0  0
 17 18  2  0  0  0  0
 18 19  1  0  0  0  0
 18 30  1  0  0  0  0
 19 20  1  0  0  0  0
 20 21  2  0  0  0  0
 21 22  1  0  0  0  0
 21 31  1  0  0  0  0
M  END
$$$$
ZINC03815059
  -OEChem-08230709403D

 38 40  0     1  0  0  0  0  0999 V2000
   -3.6443   -2.0240   -0.1999 C   0  0  0  0  0  0  0  0  0  0  0  0
   -3.5888   -0.5619   -0.1270 N   0  0  3  0  0  0  0  0  0  0  0  0
   -4.8227    0.2232   -0.2126 C   0  0  0  0  0  0  0  0  0  0  0  0
   -5.1064    0.5575   -1.6544 C   0  0  0  0  0  0  0  0  0  0  0  0
   -4.3549    0.1789   -2.5215 O   0  0  0  0  0  0  0  0  0  0  0  0
   -2.3630    0.0818    0.0237 C   0  0  0  0  0  0  0  0  0  0  0  0
   -1.1975   -0.6654   -0.0016 C   0  0  0  0  0  0  0  0  0  0  0  0
    0.0199    0.0007    0.1514 C   0  0  0  0  0  0  0  0  0  0  0  0
    0.0114    1.4088    0.3255 C   0  0  0  0  0  0  0  0  0  0  0  0
   -1.2200    2.0755    0.3424 C   0  0  0  0  0  0  0  0  0  0  0  0
    1.1832    2.0418    0.4722 N   0  0  0  0  0  0  0  0  0  0  0  0
    2.3130    1.3791    0.4558 C   0  0  0  0  0  0  0  0  0  0  0  0
    2.3968    0.0675    0.2981 N   0  0  0  0  0  0  0  0  0  0  0  0
    1.3108   -0.6806    0.1421 C   0  0  0  0  0  0  0  0  0  0  0  0
    1.3992   -2.0476   -0.0228 N   0  0  0  0  0  0  0  0  0  0  0  0
    2.6510   -2.6575   -0.1435 C   0  0  0  0  0  0  0  0  0  0  0  0
    2.8501   -3.9416    0.3485 C   0  0  0  0  0  0  0  0  0  0  0  0
    4.0878   -4.5418    0.2275 C   0  0  0  0  0  0  0  0  0  0  0  0
    5.1289   -3.8668   -0.3832 C   0  0  0  0  0  0  0  0  0  0  0  0
    4.9344   -2.5882   -0.8748 C   0  0  0  0  0  0  0  0  0  0  0  0
    3.6967   -1.9836   -0.7606 C   0  0  0  0  0  0  0  0  0  0  0  0
    6.3609   -1.6700   -1.7100 Br  0  0  0  0  0  0  0  0  0  0  0  0
   -3.7590   -2.4337    0.8036 H   0  0  0  0  0  0  0  0  0  0  0  0
   -4.4927   -2.3252   -0.8144 H   0  0  0  0  0  0  0  0  0  0  0  0
   -2.7226   -2.4010   -0.6432 H   0  0  0  0  0  0  0  0  0  0  0  0
   -5.6509   -0.3559    0.1958 H   0  0  0  0  0  0  0  0  0  0  0  0
   -4.7074    1.1446    0.3582 H   0  0  0  0  0  0  0  0  0  0  0  0
   -1.2293   -1.7366   -0.1359 H   0  0  0  0  0  0  0  0  0  0  0  0
   -1.2516    3.1470    0.4735 H   0  0  0  0  0  0  0  0  0  0  0  0
    3.2304    1.9358    0.5779 H   0  0  0  0  0  0  0  0  0  0  0  0
    0.5925   -2.5854   -0.0548 H   0  0  0  0  0  0  0  0  0  0  0  0
    2.0377   -4.4696    0.8256 H   0  0  0  0  0  0  0  0  0  0  0  0
    4.2428   -5.5399    0.6098 H   0  0  0  0  0  0  0  0  0  0  0  0
    6.0958   -4.3388   -0.4768 H   0  0  0  0  0  0  0  0  0  0  0  0
    3.5441   -0.9870   -1.1477 H   0  0  0  0  0  0  0  0  0  0  0  0
   -6.1938    1.2760   -1.9753 O   0  5  0  0  0  0  0  0  0  0  0  0
   -2.4116    1.4433    0.1898 N   0  3  0  0  0  0  0  0  0  0  0  0
   -3.3012    1.9560    0.1983 H   0  0  0  0  0  0  0  0  0  0  0  0
  1  2  1  0  0  0  0
  1 23  1  0  0  0  0
  1 24  1  0  0  0  0
  1 25  1  0  0  0  0
  2  3  1  0  0  0  0
  2  6  1  0  0  0  0
  3  4  1  0  0  0  0
  3 26  1  0  0  0  0
  3 27  1  0  0  0  0
  4  5  2  0  0  0  0
  4 36  1  0  0  0  0
  6  7  2  0  0  0  0
  6 37  1  0  0  0  0
  7  8  1  0  0  0  0
  7 28  1  0  0  0  0
  8 14  2  0  0  0  0
  8  9  1  0  0  0  0
  9 10  1  0  0  0  0
  9 11  2  0  0  0  0
 10 29  1  0  0  0  0
 10 37  2  0  0  0  0
 11 12  1  0  0  0  0
 12 13  2  0  0  0  0
 12 30  1  0  0  0  0
 13 14  1  0  0  0  0
 14 15  1  0  0  0  0
 15 16  1  0  0  0  0
 15 31  1  0  0  0  0
 16 21  2  0  0  0  0
 16 17  1  0  0  0  0
 17 18  2  0  0  0  0
 17 32  1  0  0  0  0
 18 19  1  0  0  0  0
 18 33  1  0  0  0  0
 19 20  2  0  0  0  0
 19 34  1  0  0  0  0
 20 21  1  0  0  0  0
 20 22  1  0  0  0  0
 21 35  1  0  0  0  0
 37 38  1  0  0  0  0
M  CHG  2  36  -1  37   1
M  END
$$$$
ZINC03815060
  -OEChem-08230709403D

 36 38  0     0  0  0  0  0  0999 V2000
   -1.9932    0.9790   -1.4877 C   0  0  0  0  0  0  0  0  0  0  0  0
   -0.9721    1.7510   -0.6924 C   0  0  0  0  0  0  0  0  0  0  0  0
   -0.0145    1.0758    0.0424 C   0  0  0  0  0  0  0  0  0  0  0  0
    0.9281    1.7802    0.7685 C   0  0  0  0  0  0  0  0  0  0  0  0
    0.9128    3.1613    0.7664 C   0  0  0  0  0  0  0  0  0  0  0  0
   -0.0510    3.8425    0.0342 C   0  0  0  0  0  0  0  0  0  0  0  0
   -0.9969    3.1316   -0.6940 C   0  0  0  0  0  0  0  0  0  0  0  0
   -0.0691    5.2401    0.0295 N   0  0  0  0  0  0  0  0  0  0  0  0
    1.1128    5.9456    0.1252 C   0  0  0  0  0  0  0  0  0  0  0  0
    1.1206    7.4005    0.2434 C   0  0  0  0  0  0  0  0  0  0  0  0
   -0.0432    8.1720    0.2685 C   0  0  0  0  0  0  0  0  0  0  0  0
    0.0819    9.5457    0.3843 C   0  0  0  0  0  0  0  0  0  0  0  0
    2.3991    9.4501    0.4516 C   0  0  0  0  0  0  0  0  0  0  0  0
    2.3760    8.0541    0.3372 C   0  0  0  0  0  0  0  0  0  0  0  0
    3.4886    7.3080    0.3130 N   0  0  0  0  0  0  0  0  0  0  0  0
    3.4226    6.0042    0.2052 C   0  0  0  0  0  0  0  0  0  0  0  0
    2.2882    5.3276    0.1190 N   0  0  0  0  0  0  0  0  0  0  0  0
   -1.0655   10.3348    0.4119 N   0  0  0  0  0  0  0  0  0  0  0  0
   -2.3870    9.7094    0.3182 C   0  0  0  0  0  0  0  0  0  0  0  0
   -2.8678    0.7865   -0.8663 H   0  0  0  0  0  0  0  0  0  0  0  0
   -2.2889    1.5604   -2.3610 H   0  0  0  0  0  0  0  0  0  0  0  0
   -1.5616    0.0317   -1.8109 H   0  0  0  0  0  0  0  0  0  0  0  0
   -0.0001   -0.0041    0.0454 H   0  0  0  0  0  0  0  0  0  0  0  0
    1.6772    1.2499    1.3376 H   0  0  0  0  0  0  0  0  0  0  0  0
    1.6497    3.7110    1.3332 H   0  0  0  0  0  0  0  0  0  0  0  0
   -1.7474    3.6582   -1.2647 H   0  0  0  0  0  0  0  0  0  0  0  0
   -0.9125    5.7140   -0.0411 H   0  0  0  0  0  0  0  0  0  0  0  0
   -1.0162    7.7085    0.1989 H   0  0  0  0  0  0  0  0  0  0  0  0
    3.3429    9.9700    0.5241 H   0  0  0  0  0  0  0  0  0  0  0  0
    4.3483    5.4481    0.1903 H   0  0  0  0  0  0  0  0  0  0  0  0
   -0.9896   11.2984    0.4931 H   0  0  0  0  0  0  0  0  0  0  0  0
   -3.1571   10.4798    0.3563 H   0  0  0  0  0  0  0  0  0  0  0  0
   -2.4650    9.1640   -0.6223 H   0  0  0  0  0  0  0  0  0  0  0  0
   -2.5221    9.0191    1.1508 H   0  0  0  0  0  0  0  0  0  0  0  0
    1.2775   10.2140    0.4775 N   0  3  0  0  0  0  0  0  0  0  0  0
    1.3208   11.2363    0.5621 H   0  0  0  0  0  0  0  0  0  0  0  0
  1  2  1  0  0  0  0
  1 20  1  0  0  0  0
  1 21  1  0  0  0  0
  1 22  1  0  0  0  0
  2  7  2  0  0  0  0
  2  3  1  0  0  0  0
  3  4  2  0  0  0  0
  3 23  1  0  0  0  0
  4  5  1  0  0  0  0
  4 24  1  0  0  0  0
  5  6  2  0  0  0  0
  5 25  1  0  0  0  0
  6  7  1  0  0  0  0
  6  8  1  0  0  0  0
  7 26  1  0  0  0  0
  8  9  1  0  0  0  0
  8 27  1  0  0  0  0
  9 17  2  0  0  0  0
  9 10  1  0  0  0  0
 10 14  2  0  0  0  0
 10 11  1  0  0  0  0
 11 12  2  0  0  0  0
 11 28  1  0  0  0  0
 12 18  1  0  0  0  0
 12 35  1  0  0  0  0
 13 14  1  0  0  0  0
 13 29  1  0  0  0  0
 13 35  2  0  0  0  0
 14 15  1  0  0  0  0
 15 16  2  0  0  0  0
 16 17  1  0  0  0  0
 16 30  1  0  0  0  0
 18 19  1  0  0  0  0
 18 31  1  0  0  0  0
 19 32  1  0  0  0  0
 19 33  1  0  0  0  0
 19 34  1  0  0  0  0
 35 36  1  0  0  0  0
M  CHG  1  35   1
M  END
$$$$
ZINC03815061
  -OEChem-08230709403D

 33 36  0     0  0  0  0  0  0999 V2000
   -0.1959    1.2428   -0.0986 C   0  0  0  0  0  0  0  0  0  0  0  0
    0.9776    1.9330   -0.3319 C   0  0  0  0  0  0  0  0  0  0  0  0
    1.1690    3.1868    0.2347 C   0  0  0  0  0  0  0  0  0  0  0  0
    0.1787    3.7427    1.0347 C   0  0  0  0  0  0  0  0  0  0  0  0
   -0.9929    3.0473    1.2642 C   0  0  0  0  0  0  0  0  0  0  0  0
   -1.1823    1.8007    0.6933 C   0  0  0  0  0  0  0  0  0  0  0  0
   -2.3423    3.8028    2.3524 Br  0  0  0  0  0  0  0  0  0  0  0  0
    2.3552    3.8876   -0.0000 N   0  0  0  0  0  0  0  0  0  0  0  0
    2.3357    5.2714   -0.0971 C   0  0  0  0  0  0  0  0  0  0  0  0
    3.5154    5.9938   -0.2104 C   0  0  0  0  0  0  0  0  0  0  0  0
    3.4973    7.3905   -0.3085 C   0  0  0  0  0  0  0  0  0  0  0  0
    4.8133    8.0480   -0.4244 C   0  0  0  0  0  0  0  0  0  0  0  0
    5.0730    9.4329   -0.5366 C   0  0  0  0  0  0  0  0  0  0  0  0
    6.3462    9.8981   -0.6366 C   0  0  0  0  0  0  0  0  0  0  0  0
    7.4372    9.0298   -0.6324 C   0  0  0  0  0  0  0  0  0  0  0  0
    7.2177    7.6636   -0.5241 C   0  0  0  0  0  0  0  0  0  0  0  0
    5.9263    7.1898   -0.4221 C   0  0  0  0  0  0  0  0  0  0  0  0
    5.2328    5.5630   -0.2703 S   0  0  0  0  0  0  0  0  0  0  0  0
    8.7362    9.5292   -0.7361 N   0  0  0  0  0  0  0  0  0  0  0  0
    2.2765    7.9720   -0.2850 N   0  0  0  0  0  0  0  0  0  0  0  0
    1.1839    7.2587   -0.1765 C   0  0  0  0  0  0  0  0  0  0  0  0
    1.1833    5.9411   -0.0895 N   0  0  0  0  0  0  0  0  0  0  0  0
   -0.3449    0.2680   -0.5389 H   0  0  0  0  0  0  0  0  0  0  0  0
    1.7459    1.4981   -0.9539 H   0  0  0  0  0  0  0  0  0  0  0  0
    0.3243    4.7175    1.4764 H   0  0  0  0  0  0  0  0  0  0  0  0
   -2.1007    1.2608    0.8705 H   0  0  0  0  0  0  0  0  0  0  0  0
    3.1921    3.4065   -0.0950 H   0  0  0  0  0  0  0  0  0  0  0  0
    4.2488   10.1308   -0.5427 H   0  0  0  0  0  0  0  0  0  0  0  0
    6.5162   10.9612   -0.7212 H   0  0  0  0  0  0  0  0  0  0  0  0
    8.0514    6.9770   -0.5190 H   0  0  0  0  0  0  0  0  0  0  0  0
    8.8838   10.4849   -0.8116 H   0  0  0  0  0  0  0  0  0  0  0  0
    9.4915    8.9206   -0.7327 H   0  0  0  0  0  0  0  0  0  0  0  0
    0.2347    7.7738   -0.1631 H   0  0  0  0  0  0  0  0  0  0  0  0
  1  6  2  0  0  0  0
  1  2  1  0  0  0  0
  1 23  1  0  0  0  0
  2  3  2  0  0  0  0
  2 24  1  0  0  0  0
  3  4  1  0  0  0  0
  3  8  1  0  0  0  0
  4  5  2  0  0  0  0
  4 25  1  0  0  0  0
  5  6  1  0  0  0  0
  5  7  1  0  0  0  0
  6 26  1  0  0  0  0
  8  9  1  0  0  0  0
  8 27  1  0  0  0  0
  9 22  2  0  0  0  0
  9 10  1  0  0  0  0
 10 18  1  0  0  0  0
 10 11  2  0  0  0  0
 11 12  1  0  0  0  0
 11 20  1  0  0  0  0
 12 17  2  0  0  0  0
 12 13  1  0  0  0  0
 13 14  2  0  0  0  0
 13 28  1  0  0  0  0
 14 15  1  0  0  0  0
 14 29  1  0  0  0  0
 15 16  2  0  0  0  0
 15 19  1  0  0  0  0
 16 17  1  0  0  0  0
 16 30  1  0  0  0  0
 17 18  1  0  0  0  0
 19 31  1  0  0  0  0
 19 32  1  0  0  0  0
 20 21  2  0  0  0  0
 21 22  1  0  0  0  0
 21 33  1  0  0  0  0
M  END
$$$$
ZINC03815062
  -OEChem-08230709403D

 46 49  0     0  0  0  0  0  0999 V2000
    2.1577    5.6966    0.3942 C   0  0  0  0  0  0  0  0  0  0  0  0
    2.2603    4.3225    0.4909 C   0  0  0  0  0  0  0  0  0  0  0  0
    3.3215    3.6622   -0.1150 C   0  0  0  0  0  0  0  0  0  0  0  0
    4.2797    4.3869   -0.8123 C   0  0  0  0  0  0  0  0  0  0  0  0
    4.1688    5.7608   -0.9094 C   0  0  0  0  0  0  0  0  0  0  0  0
    3.1100    6.4152   -0.3043 C   0  0  0  0  0  0  0  0  0  0  0  0
    5.4687    6.7483   -1.8638 Br  0  0  0  0  0  0  0  0  0  0  0  0
    3.4281    2.2717   -0.0184 N   0  0  0  0  0  0  0  0  0  0  0  0
    2.2914    1.4919   -0.0144 C   0  0  0  0  0  0  0  0  0  0  0  0
    2.3671    0.0967    0.2035 C   0  0  0  0  0  0  0  0  0  0  0  0
    3.5751   -0.5691    0.4250 C   0  0  0  0  0  0  0  0  0  0  0  0
    2.4717   -2.6006    0.6204 C   0  0  0  0  0  0  0  0  0  0  0  0
    1.2299   -2.0296    0.4098 C   0  0  0  0  0  0  0  0  0  0  0  0
    1.1580   -0.6486    0.1945 C   0  0  0  0  0  0  0  0  0  0  0  0
    0.0031   -0.0057   -0.0186 N   0  0  0  0  0  0  0  0  0  0  0  0
   -0.0056    1.2929   -0.2155 C   0  0  0  0  0  0  0  0  0  0  0  0
    1.0937    2.0290   -0.2163 N   0  0  0  0  0  0  0  0  0  0  0  0
    2.5608   -3.9699    0.8351 N   0  0  0  0  0  0  0  0  0  0  0  0
    1.3480   -4.7916    0.8367 C   0  0  0  0  0  0  0  0  0  0  0  0
    1.7221   -6.2527    1.0938 C   0  0  0  0  0  0  0  0  0  0  0  0
    0.4554   -7.1108    1.0955 C   0  0  0  0  0  0  0  0  0  0  0  0
    0.8137   -8.5098    1.3417 N   0  0  0  0  0  0  0  0  0  0  0  0
    1.1160   -9.4498    0.3937 C   0  0  0  0  0  0  0  0  0  0  0  0
    1.3873  -10.5932    1.0514 C   0  0  0  0  0  0  0  0  0  0  0  0
    1.2452  -10.3603    2.3646 N   0  0  0  0  0  0  0  0  0  0  0  0
    0.9017   -9.1144    2.5460 C   0  0  0  0  0  0  0  0  0  0  0  0
    1.3327    6.2103    0.8653 H   0  0  0  0  0  0  0  0  0  0  0  0
    1.5159    3.7620    1.0368 H   0  0  0  0  0  0  0  0  0  0  0  0
    5.1084    3.8769   -1.2807 H   0  0  0  0  0  0  0  0  0  0  0  0
    3.0277    7.4896   -0.3778 H   0  0  0  0  0  0  0  0  0  0  0  0
    4.3020    1.8556    0.0458 H   0  0  0  0  0  0  0  0  0  0  0  0
    4.5026   -0.0158    0.4344 H   0  0  0  0  0  0  0  0  0  0  0  0
    0.3360   -2.6356    0.4110 H   0  0  0  0  0  0  0  0  0  0  0  0
   -0.9530    1.7814   -0.3892 H   0  0  0  0  0  0  0  0  0  0  0  0
    3.4261   -4.3821    0.9840 H   0  0  0  0  0  0  0  0  0  0  0  0
    0.6755   -4.4452    1.6214 H   0  0  0  0  0  0  0  0  0  0  0  0
    0.8515   -4.7084   -0.1301 H   0  0  0  0  0  0  0  0  0  0  0  0
    2.3946   -6.5990    0.3090 H   0  0  0  0  0  0  0  0  0  0  0  0
    2.2186   -6.3358    2.0606 H   0  0  0  0  0  0  0  0  0  0  0  0
   -0.2171   -6.7644    1.8802 H   0  0  0  0  0  0  0  0  0  0  0  0
   -0.0410   -7.0276    0.1287 H   0  0  0  0  0  0  0  0  0  0  0  0
    1.1356   -9.3022   -0.6760 H   0  0  0  0  0  0  0  0  0  0  0  0
    1.6652  -11.5343    0.6002 H   0  0  0  0  0  0  0  0  0  0  0  0
    0.7188   -8.6446    3.5011 H   0  0  0  0  0  0  0  0  0  0  0  0
    3.6583   -1.9077    0.6351 N   0  3  0  0  0  0  0  0  0  0  0  0
    4.5576   -2.3762    0.7959 H   0  0  0  0  0  0  0  0  0  0  0  0
  1  6  2  0  0  0  0
  1  2  1  0  0  0  0
  1 27  1  0  0  0  0
  2  3  2  0  0  0  0
  2 28  1  0  0  0  0
  3  4  1  0  0  0  0
  3  8  1  0  0  0  0
  4  5  2  0  0  0  0
  4 29  1  0  0  0  0
  5  6  1  0  0  0  0
  5  7  1  0  0  0  0
  6 30  1  0  0  0  0
  8  9  1  0  0  0  0
  8 31  1  0  0  0  0
  9 17  2  0  0  0  0
  9 10  1  0  0  0  0
 10 14  2  0  0  0  0
 10 11  1  0  0  0  0
 11 32  1  0  0  0  0
 11 45  2  0  0  0  0
 12 13  2  0  0  0  0
 12 18  1  0  0  0  0
 12 45  1  0  0  0  0
 13 14  1  0  0  0  0
 13 33  1  0  0  0  0
 14 15  1  0  0  0  0
 15 16  2  0  0  0  0
 16 17  1  0  0  0  0
 16 34  1  0  0  0  0
 18 19  1  0  0  0  0
 18 35  1  0  0  0  0
 19 20  1  0  0  0  0
 19 36  1  0  0  0  0
 19 37  1  0  0  0  0
 20 21  1  0  0  0  0
 20 38  1  0  0  0  0
 20 39  1  0  0  0  0
 21 22  1  0  0  0  0
 21 40  1  0  0  0  0
 21 41  1  0  0  0  0
 22 26  1  0  0  0  0
 22 23  1  0  0  0  0
 23 24  2  0  0  0  0
 23 42  1  0  0  0  0
 24 25  1  0  0  0  0
 24 43  1  0  0  0  0
 25 26  2  0  0  0  0
 26 44  1  0  0  0  0
 45 46  1  0  0  0  0
M  CHG  1  45   1
M  END
$$$$
ZINC03815062
  -OEChem-08230709403D

 47 50  0     0  0  0  0  0  0999 V2000
    2.1577    5.6966    0.3942 C   0  0  0  0  0  0  0  0  0  0  0  0
    2.2603    4.3225    0.4909 C   0  0  0  0  0  0  0  0  0  0  0  0
    3.3215    3.6622   -0.1150 C   0  0  0  0  0  0  0  0  0  0  0  0
    4.2797    4.3869   -0.8123 C   0  0  0  0  0  0  0  0  0  0  0  0
    4.1688    5.7608   -0.9094 C   0  0  0  0  0  0  0  0  0  0  0  0
    3.1100    6.4152   -0.3043 C   0  0  0  0  0  0  0  0  0  0  0  0
    5.4687    6.7483   -1.8638 Br  0  0  0  0  0  0  0  0  0  0  0  0
    3.4281    2.2717   -0.0184 N   0  0  0  0  0  0  0  0  0  0  0  0
    2.2914    1.4919   -0.0144 C   0  0  0  0  0  0  0  0  0  0  0  0
    2.3671    0.0967    0.2035 C   0  0  0  0  0  0  0  0  0  0  0  0
    3.5751   -0.5691    0.4250 C   0  0  0  0  0  0  0  0  0  0  0  0
    2.4717   -2.6006    0.6204 C   0  0  0  0  0  0  0  0  0  0  0  0
    1.2299   -2.0296    0.4098 C   0  0  0  0  0  0  0  0  0  0  0  0
    1.1580   -0.6486    0.1945 C   0  0  0  0  0  0  0  0  0  0  0  0
    0.0031   -0.0057   -0.0186 N   0  0  0  0  0  0  0  0  0  0  0  0
   -0.0056    1.2929   -0.2155 C   0  0  0  0  0  0  0  0  0  0  0  0
    1.0937    2.0290   -0.2163 N   0  0  0  0  0  0  0  0  0  0  0  0
    2.5608   -3.9699    0.8351 N   0  0  0  0  0  0  0  0  0  0  0  0
    1.3480   -4.7916    0.8367 C   0  0  0  0  0  0  0  0  0  0  0  0
    1.7221   -6.2527    1.0938 C   0  0  0  0  0  0  0  0  0  0  0  0
    0.4554   -7.1108    1.0955 C   0  0  0  0  0  0  0  0  0  0  0  0
    0.8137   -8.5098    1.3417 N   0  0  0  0  0  0  0  0  0  0  0  0
    1.1160   -9.4498    0.3937 C   0  0  0  0  0  0  0  0  0  0  0  0
    1.3873  -10.5932    1.0514 C   0  0  0  0  0  0  0  0  0  0  0  0
    0.9017   -9.1144    2.5460 C   0  0  0  0  0  0  0  0  0  0  0  0
    1.3327    6.2103    0.8653 H   0  0  0  0  0  0  0  0  0  0  0  0
    1.5159    3.7620    1.0368 H   0  0  0  0  0  0  0  0  0  0  0  0
    5.1084    3.8769   -1.2807 H   0  0  0  0  0  0  0  0  0  0  0  0
    3.0277    7.4896   -0.3778 H   0  0  0  0  0  0  0  0  0  0  0  0
    4.3020    1.8556    0.0458 H   0  0  0  0  0  0  0  0  0  0  0  0
    4.5026   -0.0158    0.4344 H   0  0  0  0  0  0  0  0  0  0  0  0
    0.3360   -2.6356    0.4110 H   0  0  0  0  0  0  0  0  0  0  0  0
   -0.9530    1.7814   -0.3892 H   0  0  0  0  0  0  0  0  0  0  0  0
    3.4261   -4.3821    0.9840 H   0  0  0  0  0  0  0  0  0  0  0  0
    0.6755   -4.4452    1.6214 H   0  0  0  0  0  0  0  0  0  0  0  0
    0.8515   -4.7084   -0.1301 H   0  0  0  0  0  0  0  0  0  0  0  0
    2.3946   -6.5990    0.3090 H   0  0  0  0  0  0  0  0  0  0  0  0
    2.2186   -6.3358    2.0606 H   0  0  0  0  0  0  0  0  0  0  0  0
   -0.2171   -6.7644    1.8802 H   0  0  0  0  0  0  0  0  0  0  0  0
   -0.0410   -7.0276    0.1287 H   0  0  0  0  0  0  0  0  0  0  0  0
    1.1356   -9.3022   -0.6760 H   0  0  0  0  0  0  0  0  0  0  0  0
    1.6652  -11.5343    0.6002 H   0  0  0  0  0  0  0  0  0  0  0  0
    0.7188   -8.6446    3.5011 H   0  0  0  0  0  0  0  0  0  0  0  0
    3.6583   -1.9077    0.6351 N   0  3  0  0  0  0  0  0  0  0  0  0
    4.5576   -2.3762    0.7959 H   0  0  0  0  0  0  0  0  0  0  0  0
    1.2450  -10.3594    2.3636 N   0  3  0  0  0  0  0  0  0  0  0  0
    1.3845  -11.0520    3.1086 H   0  0  0  0  0  0  0  0  0  0  0  0
  1  6  2  0  0  0  0
  1  2  1  0  0  0  0
  1 26  1  0  0  0  0
  2  3  2  0  0  0  0
  2 27  1  0  0  0  0
  3  4  1  0  0  0  0
  3  8  1  0  0  0  0
  4  5  2  0  0  0  0
  4 28  1  0  0  0  0
  5  6  1  0  0  0  0
  5  7  1  0  0  0  0
  6 29  1  0  0  0  0
  8  9  1  0  0  0  0
  8 30  1  0  0  0  0
  9 17  2  0  0  0  0
  9 10  1  0  0  0  0
 10 14  2  0  0  0  0
 10 11  1  0  0  0  0
 11 31  1  0  0  0  0
 11 44  2  0  0  0  0
 12 13  2  0  0  0  0
 12 18  1  0  0  0  0
 12 44  1  0  0  0  0
 13 14  1  0  0  0  0
 13 32  1  0  0  0  0
 14 15  1  0  0  0  0
 15 16  2  0  0  0  0
 16 17  1  0  0  0  0
 16 33  1  0  0  0  0
 18 19  1  0  0  0  0
 18 34  1  0  0  0  0
 19 20  1  0  0  0  0
 19 35  1  0  0  0  0
 19 36  1  0  0  0  0
 20 21  1  0  0  0  0
 20 37  1  0  0  0  0
 20 38  1  0  0  0  0
 21 22  1  0  0  0  0
 21 39  1  0  0  0  0
 21 40  1  0  0  0  0
 22 25  1  0  0  0  0
 22 23  1  0  0  0  0
 23 24  2  0  0  0  0
 23 41  1  0  0  0  0
 24 42  1  0  0  0  0
 24 46  1  0  0  0  0
 25 43  1  0  0  0  0
 25 46  2  0  0  0  0
 44 45  1  0  0  0  0
 46 47  1  0  0  0  0
M  CHG  2  44   1  46   1
M  END
$$$$
ZINC03815063
  -OEChem-08230709403D

 44 46  0     1  0  0  0  0  0999 V2000
    3.3278   -2.2467   -0.3076 C   0  0  0  0  0  0  0  0  0  0  0  0
    3.4270   -0.7892   -0.1978 N   0  0  3  0  0  0  0  0  0  0  0  0
    4.7364   -0.1365   -0.2723 C   0  0  0  0  0  0  0  0  0  0  0  0
    5.3322   -0.0267    1.1327 C   0  0  2  0  0  0  0  0  0  0  0  0
    4.6275    0.4863    1.7871 H   0  0  0  0  0  0  0  0  0  0  0  0
    6.6403    0.7646    1.0716 C   0  0  0  0  0  0  0  0  0  0  0  0
    7.1366    0.9675    2.3961 O   0  0  0  0  0  0  0  0  0  0  0  0
    5.5909   -1.3357    1.6441 O   0  0  0  0  0  0  0  0  0  0  0  0
    2.2765   -0.0242   -0.0225 C   0  0  0  0  0  0  0  0  0  0  0  0
    2.3741    1.3570   -0.0252 C   0  0  0  0  0  0  0  0  0  0  0  0
    1.2077    2.1038    0.1513 C   0  0  0  0  0  0  0  0  0  0  0  0
   -0.0226    1.4191    0.3258 C   0  0  0  0  0  0  0  0  0  0  0  0
   -0.0187    0.0187    0.3139 C   0  0  0  0  0  0  0  0  0  0  0  0
   -1.1387    2.1421    0.4892 N   0  0  0  0  0  0  0  0  0  0  0  0
   -1.0975    3.4514    0.4983 C   0  0  0  0  0  0  0  0  0  0  0  0
    0.0123    4.1557    0.3416 N   0  0  0  0  0  0  0  0  0  0  0  0
    1.1877    3.5633    0.1654 C   0  0  0  0  0  0  0  0  0  0  0  0
    2.3439    4.2982    0.0016 N   0  0  0  0  0  0  0  0  0  0  0  0
    2.2788    5.6909   -0.0963 C   0  0  0  0  0  0  0  0  0  0  0  0
    3.3152    6.4728    0.3986 C   0  0  0  0  0  0  0  0  0  0  0  0
    3.2482    7.8486    0.3005 C   0  0  0  0  0  0  0  0  0  0  0  0
    2.1512    8.4488   -0.2901 C   0  0  0  0  0  0  0  0  0  0  0  0
    1.1172    7.6736   -0.7841 C   0  0  0  0  0  0  0  0  0  0  0  0
    1.1807    6.2959   -0.6937 C   0  0  0  0  0  0  0  0  0  0  0  0
   -0.3806    8.4993   -1.5908 Br  0  0  0  0  0  0  0  0  0  0  0  0
    3.2035   -2.5246   -1.3543 H   0  0  0  0  0  0  0  0  0  0  0  0
    4.2368   -2.7034    0.0840 H   0  0  0  0  0  0  0  0  0  0  0  0
    2.4693   -2.5967    0.2656 H   0  0  0  0  0  0  0  0  0  0  0  0
    5.4010   -0.7263   -0.9036 H   0  0  0  0  0  0  0  0  0  0  0  0
    4.6217    0.8607   -0.6972 H   0  0  0  0  0  0  0  0  0  0  0  0
    7.3748    0.2080    0.4896 H   0  0  0  0  0  0  0  0  0  0  0  0
    6.4590    1.7303    0.5996 H   0  0  0  0  0  0  0  0  0  0  0  0
    7.9658    1.4636    2.4338 H   0  0  0  0  0  0  0  0  0  0  0  0
    6.2114   -1.8509    1.1105 H   0  0  0  0  0  0  0  0  0  0  0  0
    3.3282    1.8444   -0.1612 H   0  0  0  0  0  0  0  0  0  0  0  0
   -0.9429   -0.5245    0.4447 H   0  0  0  0  0  0  0  0  0  0  0  0
   -2.0243    3.9880    0.6378 H   0  0  0  0  0  0  0  0  0  0  0  0
    3.2020    3.8483   -0.0455 H   0  0  0  0  0  0  0  0  0  0  0  0
    4.1723    6.0050    0.8601 H   0  0  0  0  0  0  0  0  0  0  0  0
    4.0536    8.4565    0.6852 H   0  0  0  0  0  0  0  0  0  0  0  0
    2.1017    9.5250   -0.3661 H   0  0  0  0  0  0  0  0  0  0  0  0
    0.3756    5.6907   -1.0834 H   0  0  0  0  0  0  0  0  0  0  0  0
    1.1062   -0.7218    0.1430 N   0  3  0  0  0  0  0  0  0  0  0  0
    1.0828   -1.7483    0.1378 H   0  0  0  0  0  0  0  0  0  0  0  0
  1  2  1  0  0  0  0
  1 26  1  0  0  0  0
  1 27  1  0  0  0  0
  1 28  1  0  0  0  0
  2  3  1  0  0  0  0
  2  9  1  0  0  0  0
  3  4  1  0  0  0  0
  3 29  1  0  0  0  0
  3 30  1  0  0  0  0
  4  5  1  0  0  0  0
  4  6  1  0  0  0  0
  4  8  1  0  0  0  0
  6  7  1  0  0  0  0
  6 31  1  0  0  0  0
  6 32  1  0  0  0  0
  7 33  1  0  0  0  0
  8 34  1  0  0  0  0
  9 10  2  0  0  0  0
  9 43  1  0  0  0  0
 10 11  1  0  0  0  0
 10 35  1  0  0  0  0
 11 17  2  0  0  0  0
 11 12  1  0  0  0  0
 12 13  1  0  0  0  0
 12 14  2  0  0  0  0
 13 36  1  0  0  0  0
 13 43  2  0  0  0  0
 14 15  1  0  0  0  0
 15 16  2  0  0  0  0
 15 37  1  0  0  0  0
 16 17  1  0  0  0  0
 17 18  1  0  0  0  0
 18 19  1  0  0  0  0
 18 38  1  0  0  0  0
 19 24  2  0  0  0  0
 19 20  1  0  0  0  0
 20 21  2  0  0  0  0
 20 39  1  0  0  0  0
 21 22  1  0  0  0  0
 21 40  1  0  0  0  0
 22 23  2  0  0  0  0
 22 41  1  0  0  0  0
 23 24  1  0  0  0  0
 23 25  1  0  0  0  0
 24 42  1  0  0  0  0
 43 44  1  0  0  0  0
M  CHG  1  43   1
M  END
$$$$
ZINC03815064
  -OEChem-08230709403D

 38 40  0     0  0  0  0  0  0999 V2000
    2.1576    5.6966    0.3943 C   0  0  0  0  0  0  0  0  0  0  0  0
    2.2602    4.3225    0.4909 C   0  0  0  0  0  0  0  0  0  0  0  0
    3.3215    3.6622   -0.1146 C   0  0  0  0  0  0  0  0  0  0  0  0
    4.2799    4.3869   -0.8116 C   0  0  0  0  0  0  0  0  0  0  0  0
    4.1693    5.7608   -0.9084 C   0  0  0  0  0  0  0  0  0  0  0  0
    3.1101    6.4152   -0.3040 C   0  0  0  0  0  0  0  0  0  0  0  0
    5.4699    6.7485   -1.8618 Br  0  0  0  0  0  0  0  0  0  0  0  0
    3.4281    2.2717   -0.0180 N   0  0  0  0  0  0  0  0  0  0  0  0
    2.2914    1.4919   -0.0148 C   0  0  0  0  0  0  0  0  0  0  0  0
    2.3670    0.0967    0.2030 C   0  0  0  0  0  0  0  0  0  0  0  0
    3.5749   -0.5691    0.4254 C   0  0  0  0  0  0  0  0  0  0  0  0
    2.4714   -2.6007    0.6198 C   0  0  0  0  0  0  0  0  0  0  0  0
    1.2297   -2.0296    0.4088 C   0  0  0  0  0  0  0  0  0  0  0  0
    1.1579   -0.6486    0.1936 C   0  0  0  0  0  0  0  0  0  0  0  0
    0.0031   -0.0057   -0.0199 N   0  0  0  0  0  0  0  0  0  0  0  0
   -0.0055    1.2929   -0.2168 C   0  0  0  0  0  0  0  0  0  0  0  0
    1.0938    2.0290   -0.2171 N   0  0  0  0  0  0  0  0  0  0  0  0
    2.5604   -3.9699    0.8350 N   0  0  0  0  0  0  0  0  0  0  0  0
    1.3474   -4.7915    0.8366 C   0  0  0  0  0  0  0  0  0  0  0  0
    1.7214   -6.2525    1.0942 C   0  0  0  0  0  0  0  0  0  0  0  0
    0.4737   -7.0977    1.0959 C   0  0  0  0  0  0  0  0  0  0  0  0
   -0.6041   -6.5841    0.9100 O   0  0  0  0  0  0  0  0  0  0  0  0
    1.3324    6.2103    0.8651 H   0  0  0  0  0  0  0  0  0  0  0  0
    1.5156    3.7620    1.0367 H   0  0  0  0  0  0  0  0  0  0  0  0
    5.1086    3.8769   -1.2801 H   0  0  0  0  0  0  0  0  0  0  0  0
    3.0277    7.4896   -0.3777 H   0  0  0  0  0  0  0  0  0  0  0  0
    4.3020    1.8556    0.0467 H   0  0  0  0  0  0  0  0  0  0  0  0
    4.5023   -0.0157    0.4358 H   0  0  0  0  0  0  0  0  0  0  0  0
    0.3358   -2.6356    0.4097 H   0  0  0  0  0  0  0  0  0  0  0  0
   -0.9528    1.7814   -0.3908 H   0  0  0  0  0  0  0  0  0  0  0  0
    3.4256   -4.3822    0.9842 H   0  0  0  0  0  0  0  0  0  0  0  0
    0.6748   -4.4448    1.6211 H   0  0  0  0  0  0  0  0  0  0  0  0
    0.8511   -4.7086   -0.1303 H   0  0  0  0  0  0  0  0  0  0  0  0
    2.3940   -6.5992    0.3097 H   0  0  0  0  0  0  0  0  0  0  0  0
    2.2177   -6.3354    2.0612 H   0  0  0  0  0  0  0  0  0  0  0  0
    3.6579   -1.9077    0.6354 N   0  3  0  0  0  0  0  0  0  0  0  0
    4.5572   -2.3762    0.7969 H   0  0  0  0  0  0  0  0  0  0  0  0
    0.5597   -8.4210    1.3038 O   0  5  0  0  0  0  0  0  0  0  0  0
  1  6  2  0  0  0  0
  1  2  1  0  0  0  0
  1 23  1  0  0  0  0
  2  3  2  0  0  0  0
  2 24  1  0  0  0  0
  3  4  1  0  0  0  0
  3  8  1  0  0  0  0
  4  5  2  0  0  0  0
  4 25  1  0  0  0  0
  5  6  1  0  0  0  0
  5  7  1  0  0  0  0
  6 26  1  0  0  0  0
  8  9  1  0  0  0  0
  8 27  1  0  0  0  0
  9 17  2  0  0  0  0
  9 10  1  0  0  0  0
 10 14  2  0  0  0  0
 10 11  1  0  0  0  0
 11 28  1  0  0  0  0
 11 36  2  0  0  0  0
 12 13  2  0  0  0  0
 12 18  1  0  0  0  0
 12 36  1  0  0  0  0
 13 14  1  0  0  0  0
 13 29  1  0  0  0  0
 14 15  1  0  0  0  0
 15 16  2  0  0  0  0
 16 17  1  0  0  0  0
 16 30  1  0  0  0  0
 18 19  1  0  0  0  0
 18 31  1  0  0  0  0
 19 20  1  0  0  0  0
 19 32  1  0  0  0  0
 19 33  1  0  0  0  0
 20 21  1  0  0  0  0
 20 34  1  0  0  0  0
 20 35  1  0  0  0  0
 21 22  2  0  0  0  0
 21 38  1  0  0  0  0
 36 37  1  0  0  0  0
M  CHG  2  36   1  38  -1
M  END
$$$$
ZINC03815065
  -OEChem-08230709403D

 50 53  0     0  0  0  0  0  0999 V2000
    4.0877   -4.5419    0.2273 C   0  0  0  0  0  0  0  0  0  0  0  0
    2.8497   -3.9414    0.3484 C   0  0  0  0  0  0  0  0  0  0  0  0
    2.6507   -2.6577   -0.1435 C   0  0  0  0  0  0  0  0  0  0  0  0
    3.6968   -1.9837   -0.7607 C   0  0  0  0  0  0  0  0  0  0  0  0
    4.9342   -2.5880   -0.8745 C   0  0  0  0  0  0  0  0  0  0  0  0
    5.1286   -3.8672   -0.3832 C   0  0  0  0  0  0  0  0  0  0  0  0
    6.3610   -1.6696   -1.7092 Br  0  0  0  0  0  0  0  0  0  0  0  0
    1.3990   -2.0477   -0.0227 N   0  0  0  0  0  0  0  0  0  0  0  0
    1.3107   -0.6807    0.1420 C   0  0  0  0  0  0  0  0  0  0  0  0
    0.0199    0.0007    0.1513 C   0  0  0  0  0  0  0  0  0  0  0  0
   -1.1978   -0.6656   -0.0016 C   0  0  0  0  0  0  0  0  0  0  0  0
   -2.3630    0.0813    0.0236 C   0  0  0  0  0  0  0  0  0  0  0  0
   -1.2204    2.0754    0.3421 C   0  0  0  0  0  0  0  0  0  0  0  0
    0.0114    1.4085    0.3253 C   0  0  0  0  0  0  0  0  0  0  0  0
    1.1830    2.0416    0.4719 N   0  0  0  0  0  0  0  0  0  0  0  0
    2.3130    1.3790    0.4556 C   0  0  0  0  0  0  0  0  0  0  0  0
    2.3967    0.0674    0.2979 N   0  0  0  0  0  0  0  0  0  0  0  0
   -3.5889   -0.5624   -0.1270 N   0  0  0  0  0  0  0  0  0  0  0  0
   -3.6357   -2.0152   -0.3097 C   0  0  0  0  0  0  0  0  0  0  0  0
   -5.0914   -2.4649   -0.4496 C   0  0  0  0  0  0  0  0  0  0  0  0
   -4.5342   -4.3111   -1.9153 C   0  0  0  0  0  0  0  0  0  0  0  0
   -4.5502   -5.8371   -2.0383 C   0  0  0  0  0  0  0  0  0  0  0  0
   -5.8948   -6.3067   -1.9085 O   0  0  0  0  0  0  0  0  0  0  0  0
   -6.5137   -5.9458   -0.6707 C   0  0  0  0  0  0  0  0  0  0  0  0
   -6.5176   -4.4209   -0.5339 C   0  0  0  0  0  0  0  0  0  0  0  0
    4.2427   -5.5400    0.6097 H   0  0  0  0  0  0  0  0  0  0  0  0
    2.0373   -4.4693    0.8254 H   0  0  0  0  0  0  0  0  0  0  0  0
    3.5442   -0.9870   -1.1479 H   0  0  0  0  0  0  0  0  0  0  0  0
    6.0953   -4.3394   -0.4772 H   0  0  0  0  0  0  0  0  0  0  0  0
    0.5923   -2.5855   -0.0548 H   0  0  0  0  0  0  0  0  0  0  0  0
   -1.2297   -1.7368   -0.1359 H   0  0  0  0  0  0  0  0  0  0  0  0
   -1.2521    3.1469    0.4732 H   0  0  0  0  0  0  0  0  0  0  0  0
    3.2303    1.9357    0.5779 H   0  0  0  0  0  0  0  0  0  0  0  0
   -4.4116   -0.0488   -0.1109 H   0  0  0  0  0  0  0  0  0  0  0  0
   -3.0837   -2.2862   -1.2097 H   0  0  0  0  0  0  0  0  0  0  0  0
   -3.1856   -2.5047    0.5539 H   0  0  0  0  0  0  0  0  0  0  0  0
   -5.6435   -2.1939    0.4503 H   0  0  0  0  0  0  0  0  0  0  0  0
   -5.5416   -1.9754   -1.3132 H   0  0  0  0  0  0  0  0  0  0  0  0
   -5.1053   -3.8740   -2.7343 H   0  0  0  0  0  0  0  0  0  0  0  0
   -3.5054   -3.9534   -1.9564 H   0  0  0  0  0  0  0  0  0  0  0  0
   -3.9351   -6.2722   -1.2506 H   0  0  0  0  0  0  0  0  0  0  0  0
   -4.1552   -6.1286   -3.0115 H   0  0  0  0  0  0  0  0  0  0  0  0
   -5.9557   -6.3840    0.1567 H   0  0  0  0  0  0  0  0  0  0  0  0
   -7.5391   -6.3152   -0.6552 H   0  0  0  0  0  0  0  0  0  0  0  0
   -6.9367   -4.1434    0.4333 H   0  0  0  0  0  0  0  0  0  0  0  0
   -7.1204   -3.9855   -1.3309 H   0  0  0  0  0  0  0  0  0  0  0  0
   -2.4118    1.4432    0.1898 N   0  3  0  0  0  0  0  0  0  0  0  0
   -3.3014    1.9559    0.1983 H   0  0  0  0  0  0  0  0  0  0  0  0
   -5.1244   -3.9344   -0.6134 N   0  3  0  0  0  0  0  0  0  0  0  0
   -4.5762   -4.3665    0.1396 H   0  0  0  0  0  0  0  0  0  0  0  0
  1  6  2  0  0  0  0
  1  2  1  0  0  0  0
  1 26  1  0  0  0  0
  2  3  2  0  0  0  0
  2 27  1  0  0  0  0
  3  4  1  0  0  0  0
  3  8  1  0  0  0  0
  4  5  2  0  0  0  0
  4 28  1  0  0  0  0
  5  6  1  0  0  0  0
  5  7  1  0  0  0  0
  6 29  1  0  0  0  0
  8  9  1  0  0  0  0
  8 30  1  0  0  0  0
  9 17  2  0  0  0  0
  9 10  1  0  0  0  0
 10 14  2  0  0  0  0
 10 11  1  0  0  0  0
 11 12  2  0  0  0  0
 11 31  1  0  0  0  0
 12 18  1  0  0  0  0
 12 47  1  0  0  0  0
 13 14  1  0  0  0  0
 13 32  1  0  0  0  0
 13 47  2  0  0  0  0
 14 15  1  0  0  0  0
 15 16  2  0  0  0  0
 16 17  1  0  0  0  0
 16 33  1  0  0  0  0
 18 19  1  0  0  0  0
 18 34  1  0  0  0  0
 19 20  1  0  0  0  0
 19 35  1  0  0  0  0
 19 36  1  0  0  0  0
 20 37  1  0  0  0  0
 20 38  1  0  0  0  0
 20 49  1  0  0  0  0
 21 22  1  0  0  0  0
 21 39  1  0  0  0  0
 21 40  1  0  0  0  0
 21 49  1  0  0  0  0
 22 23  1  0  0  0  0
 22 41  1  0  0  0  0
 22 42  1  0  0  0  0
 23 24  1  0  0  0  0
 24 25  1  0  0  0  0
 24 43  1  0  0  0  0
 24 44  1  0  0  0  0
 25 45  1  0  0  0  0
 25 46  1  0  0  0  0
 25 49  1  0  0  0  0
 47 48  1  0  0  0  0
 49 50  1  0  0  0  0
M  CHG  2  47   1  49   1
M  END
$$$$
ZINC03815066
  -OEChem-08230709403D

 40 42  0     0  0  0  0  0  0999 V2000
   -6.5500    2.0923    2.1120 C   0  0  0  0  0  0  0  0  0  0  0  0
   -5.3729    2.2322    1.3138 O   0  0  0  0  0  0  0  0  0  0  0  0
   -4.2673    1.5563    1.7216 C   0  0  0  0  0  0  0  0  0  0  0  0
   -4.3241    0.7814    2.8614 C   0  0  0  0  0  0  0  0  0  0  0  0
   -3.1878    0.0845    3.2846 C   0  0  0  0  0  0  0  0  0  0  0  0
   -1.9881    0.1825    2.5358 C   0  0  0  0  0  0  0  0  0  0  0  0
   -1.9491    0.9765    1.3784 C   0  0  0  0  0  0  0  0  0  0  0  0
   -3.0832    1.6601    0.9848 C   0  0  0  0  0  0  0  0  0  0  0  0
   -3.0498    2.4359   -0.1332 O   0  0  0  0  0  0  0  0  0  0  0  0
   -3.4276    1.8164   -1.3643 C   0  0  0  0  0  0  0  0  0  0  0  0
   -0.8036    1.0762    0.6546 O   0  0  0  0  0  0  0  0  0  0  0  0
    0.0302    2.2078    0.9123 C   0  0  0  0  0  0  0  0  0  0  0  0
   -0.8578   -0.5345    2.9888 C   0  0  0  0  0  0  0  0  0  0  0  0
   -0.9766   -1.2630    4.0919 N   0  0  0  0  0  0  0  0  0  0  0  0
   -2.1174   -1.3254    4.7599 C   0  0  0  0  0  0  0  0  0  0  0  0
   -3.1982   -0.6822    4.3873 N   0  0  0  0  0  0  0  0  0  0  0  0
    0.3385   -0.4790    2.3018 N   0  0  0  0  0  0  0  0  0  0  0  0
    1.4086   -1.2876    2.6954 C   0  0  0  0  0  0  0  0  0  0  0  0
    2.7140   -0.8358    2.5468 C   0  0  0  0  0  0  0  0  0  0  0  0
    3.7692   -1.6367    2.9364 C   0  0  0  0  0  0  0  0  0  0  0  0
    3.5282   -2.8876    3.4746 C   0  0  0  0  0  0  0  0  0  0  0  0
    2.2296   -3.3408    3.6247 C   0  0  0  0  0  0  0  0  0  0  0  0
    1.1690   -2.5420    3.2411 C   0  0  0  0  0  0  0  0  0  0  0  0
    1.9054   -5.0518    4.3618 Br  0  0  0  0  0  0  0  0  0  0  0  0
   -6.3473    2.4452    3.1232 H   0  0  0  0  0  0  0  0  0  0  0  0
   -7.3566    2.6819    1.6763 H   0  0  0  0  0  0  0  0  0  0  0  0
   -6.8438    1.0432    2.1454 H   0  0  0  0  0  0  0  0  0  0  0  0
   -5.2429    0.7129    3.4249 H   0  0  0  0  0  0  0  0  0  0  0  0
   -2.7281    1.0135   -1.5967 H   0  0  0  0  0  0  0  0  0  0  0  0
   -4.4333    1.4064   -1.2711 H   0  0  0  0  0  0  0  0  0  0  0  0
   -3.4098    2.5568   -2.1641 H   0  0  0  0  0  0  0  0  0  0  0  0
   -0.5074    3.1209    0.6568 H   0  0  0  0  0  0  0  0  0  0  0  0
    0.9348    2.1376    0.3083 H   0  0  0  0  0  0  0  0  0  0  0  0
    0.2991    2.2280    1.9684 H   0  0  0  0  0  0  0  0  0  0  0  0
   -2.1606   -1.9334    5.6515 H   0  0  0  0  0  0  0  0  0  0  0  0
    0.4363    0.1211    1.5461 H   0  0  0  0  0  0  0  0  0  0  0  0
    2.9033    0.1409    2.1265 H   0  0  0  0  0  0  0  0  0  0  0  0
    4.7840   -1.2857    2.8209 H   0  0  0  0  0  0  0  0  0  0  0  0
    4.3554   -3.5118    3.7789 H   0  0  0  0  0  0  0  0  0  0  0  0
    0.1553   -2.8943    3.3621 H   0  0  0  0  0  0  0  0  0  0  0  0
  1  2  1  0  0  0  0
  1 25  1  0  0  0  0
  1 26  1  0  0  0  0
  1 27  1  0  0  0  0
  2  3  1  0  0  0  0
  3  8  2  0  0  0  0
  3  4  1  0  0  0  0
  4  5  2  0  0  0  0
  4 28  1  0  0  0  0
  5 16  1  0  0  0  0
  5  6  1  0  0  0  0
  6  7  2  0  0  0  0
  6 13  1  0  0  0  0
  7  8  1  0  0  0  0
  7 11  1  0  0  0  0
  8  9  1  0  0  0  0
  9 10  1  0  0  0  0
 10 29  1  0  0  0  0
 10 30  1  0  0  0  0
 10 31  1  0  0  0  0
 11 12  1  0  0  0  0
 12 32  1  0  0  0  0
 12 33  1  0  0  0  0
 12 34  1  0  0  0  0
 13 14  2  0  0  0  0
 13 17  1  0  0  0  0
 14 15  1  0  0  0  0
 15 16  2  0  0  0  0
 15 35  1  0  0  0  0
 17 18  1  0  0  0  0
 17 36  1  0  0  0  0
 18 23  2  0  0  0  0
 18 19  1  0  0  0  0
 19 20  2  0  0  0  0
 19 37  1  0  0  0  0
 20 21  1  0  0  0  0
 20 38  1  0  0  0  0
 21 22  2  0  0  0  0
 21 39  1  0  0  0  0
 22 23  1  0  0  0  0
 22 24  1  0  0  0  0
 23 40  1  0  0  0  0
M  END
$$$$
ZINC03815067
  -OEChem-08230709403D

 46 49  0     1  0  0  0  0  0999 V2000
   -0.5284   -0.0684   -0.3144 C   0  0  0  0  0  0  0  0  0  0  0  0
   -0.9082    2.0224    0.8462 C   0  0  0  0  0  0  0  0  0  0  0  0
   -1.8109    2.5593   -0.2344 C   0  0  0  0  0  0  0  0  0  0  0  0
   -1.4444    2.9214   -1.4720 C   0  0  0  0  0  0  0  0  0  0  0  0
   -2.5346    3.3593   -2.1777 N   0  0  0  0  0  0  0  0  0  0  0  0
   -2.5153    3.6708   -3.0961 H   0  0  0  0  0  0  0  0  0  0  0  0
   -3.6621    3.2968   -1.3863 C   0  0  0  0  0  0  0  0  0  0  0  0
   -3.2563    2.7907   -0.1286 C   0  0  0  0  0  0  0  0  0  0  0  0
   -4.1792    2.6118    0.8918 C   0  0  0  0  0  0  0  0  0  0  0  0
   -5.5167    2.9359    0.6685 C   0  0  0  0  0  0  0  0  0  0  0  0
   -5.9260    3.4441   -0.5931 C   0  0  0  0  0  0  0  0  0  0  0  0
   -4.9873    3.6194   -1.6116 C   0  0  0  0  0  0  0  0  0  0  0  0
   -7.2235    3.7458   -0.7738 N   0  0  0  0  0  0  0  0  0  0  0  0
   -8.0886    3.5731    0.1958 C   0  0  0  0  0  0  0  0  0  0  0  0
   -7.7534    3.1027    1.3873 N   0  0  0  0  0  0  0  0  0  0  0  0
   -6.5017    2.7727    1.6752 C   0  0  0  0  0  0  0  0  0  0  0  0
   -6.1669    2.2843    2.9209 N   0  0  0  0  0  0  0  0  0  0  0  0
   -7.1680    2.0171    3.8590 C   0  0  0  0  0  0  0  0  0  0  0  0
   -8.3997    1.5274    3.4425 C   0  0  0  0  0  0  0  0  0  0  0  0
   -9.3867    1.2639    4.3715 C   0  0  0  0  0  0  0  0  0  0  0  0
   -9.1506    1.4864    5.7158 C   0  0  0  0  0  0  0  0  0  0  0  0
   -7.9253    1.9740    6.1345 C   0  0  0  0  0  0  0  0  0  0  0  0
   -6.9317    2.2352    5.2100 C   0  0  0  0  0  0  0  0  0  0  0  0
   -7.6073    2.2760    7.9740 Br  0  0  0  0  0  0  0  0  0  0  0  0
   -0.3606    0.0242    2.0993 C   0  0  0  0  0  0  0  0  0  0  0  0
   -0.7176   -1.4302    2.2674 C   0  0  0  0  0  0  0  0  0  0  0  0
   -1.4603   -1.9650    1.4786 O   0  0  0  0  0  0  0  0  0  0  0  0
   -0.7005   -1.1438   -0.2696 H   0  0  0  0  0  0  0  0  0  0  0  0
    0.5405    0.1251   -0.4046 H   0  0  0  0  0  0  0  0  0  0  0  0
   -1.0469    0.3469   -1.1786 H   0  0  0  0  0  0  0  0  0  0  0  0
   -1.1921    2.4555    1.8054 H   0  0  0  0  0  0  0  0  0  0  0  0
    0.1252    2.2855    0.6204 H   0  0  0  0  0  0  0  0  0  0  0  0
   -0.4367    2.8730   -1.8577 H   0  0  0  0  0  0  0  0  0  0  0  0
   -3.8646    2.2248    1.8498 H   0  0  0  0  0  0  0  0  0  0  0  0
   -5.2954    4.0052   -2.5721 H   0  0  0  0  0  0  0  0  0  0  0  0
   -9.1226    3.8267    0.0146 H   0  0  0  0  0  0  0  0  0  0  0  0
   -5.2367    2.1261    3.1459 H   0  0  0  0  0  0  0  0  0  0  0  0
   -8.5851    1.3532    2.3928 H   0  0  0  0  0  0  0  0  0  0  0  0
  -10.3442    0.8832    4.0479 H   0  0  0  0  0  0  0  0  0  0  0  0
   -9.9241    1.2788    6.4404 H   0  0  0  0  0  0  0  0  0  0  0  0
   -5.9738    2.6116    5.5375 H   0  0  0  0  0  0  0  0  0  0  0  0
    0.7182    0.1217    1.9773 H   0  0  0  0  0  0  0  0  0  0  0  0
   -0.6783    0.5806    2.9810 H   0  0  0  0  0  0  0  0  0  0  0  0
   -1.0661    0.5543    0.9135 N   0  3  2  0  0  0  0  0  0  0  0  0
   -2.0649    0.3295    0.9915 H   0  0  0  0  0  0  0  0  0  0  0  0
   -0.2106   -2.1315    3.2935 O   0  5  0  0  0  0  0  0  0  0  0  0
  1 28  1  0  0  0  0
  1 29  1  0  0  0  0
  1 30  1  0  0  0  0
  1 44  1  0  0  0  0
  2  3  1  0  0  0  0
  2 31  1  0  0  0  0
  2 32  1  0  0  0  0
  2 44  1  0  0  0  0
  3  8  1  0  0  0  0
  3  4  2  0  0  0  0
  4  5  1  0  0  0  0
  4 33  1  0  0  0  0
  5  6  1  0  0  0  0
  5  7  1  0  0  0  0
  7 12  2  0  0  0  0
  7  8  1  0  0  0  0
  8  9  2  0  0  0  0
  9 10  1  0  0  0  0
  9 34  1  0  0  0  0
 10 16  2  0  0  0  0
 10 11  1  0  0  0  0
 11 12  1  0  0  0  0
 11 13  2  0  0  0  0
 12 35  1  0  0  0  0
 13 14  1  0  0  0  0
 14 15  2  0  0  0  0
 14 36  1  0  0  0  0
 15 16  1  0  0  0  0
 16 17  1  0  0  0  0
 17 18  1  0  0  0  0
 17 37  1  0  0  0  0
 18 23  2  0  0  0  0
 18 19  1  0  0  0  0
 19 20  2  0  0  0  0
 19 38  1  0  0  0  0
 20 21  1  0  0  0  0
 20 39  1  0  0  0  0
 21 22  2  0  0  0  0
 21 40  1  0  0  0  0
 22 23  1  0  0  0  0
 22 24  1  0  0  0  0
 23 41  1  0  0  0  0
 25 26  1  0  0  0  0
 25 42  1  0  0  0  0
 25 43  1  0  0  0  0
 25 44  1  0  0  0  0
 26 27  2  0  0  0  0
 26 46  1  0  0  0  0
 44 45  1  0  0  0  0
M  CHG  2  44   1  46  -1
M  END
$$$$
ZINC03815068
  -OEChem-08230709403D

 53 56  0     0  0  0  0  0  0999 V2000
    2.1576    5.6966    0.3943 C   0  0  0  0  0  0  0  0  0  0  0  0
    2.2602    4.3225    0.4909 C   0  0  0  0  0  0  0  0  0  0  0  0
    3.3215    3.6622   -0.1146 C   0  0  0  0  0  0  0  0  0  0  0  0
    4.2799    4.3869   -0.8116 C   0  0  0  0  0  0  0  0  0  0  0  0
    4.1693    5.7608   -0.9084 C   0  0  0  0  0  0  0  0  0  0  0  0
    3.1101    6.4152   -0.3040 C   0  0  0  0  0  0  0  0  0  0  0  0
    5.4699    6.7485   -1.8618 Br  0  0  0  0  0  0  0  0  0  0  0  0
    3.4281    2.2717   -0.0180 N   0  0  0  0  0  0  0  0  0  0  0  0
    2.2914    1.4919   -0.0148 C   0  0  0  0  0  0  0  0  0  0  0  0
    2.3670    0.0967    0.2030 C   0  0  0  0  0  0  0  0  0  0  0  0
    3.5749   -0.5691    0.4254 C   0  0  0  0  0  0  0  0  0  0  0  0
    2.4714   -2.6007    0.6198 C   0  0  0  0  0  0  0  0  0  0  0  0
    1.2297   -2.0296    0.4088 C   0  0  0  0  0  0  0  0  0  0  0  0
    1.1579   -0.6486    0.1936 C   0  0  0  0  0  0  0  0  0  0  0  0
    0.0031   -0.0057   -0.0199 N   0  0  0  0  0  0  0  0  0  0  0  0
   -0.0055    1.2929   -0.2168 C   0  0  0  0  0  0  0  0  0  0  0  0
    1.0938    2.0290   -0.2171 N   0  0  0  0  0  0  0  0  0  0  0  0
    2.5604   -3.9699    0.8350 N   0  0  0  0  0  0  0  0  0  0  0  0
    1.3474   -4.7915    0.8366 C   0  0  0  0  0  0  0  0  0  0  0  0
    1.7214   -6.2525    1.0942 C   0  0  0  0  0  0  0  0  0  0  0  0
    0.4547   -7.1106    1.0959 C   0  0  0  0  0  0  0  0  0  0  0  0
    0.8138   -8.5133    1.3433 N   0  3  0  0  0  0  0  0  0  0  0  0
    1.8121   -8.9451    0.3554 C   0  0  0  0  0  0  0  0  0  0  0  0
    2.1845  -10.4069    0.6153 C   0  0  0  0  0  0  0  0  0  0  0  0
    1.0040  -11.2122    0.5559 O   0  0  0  0  0  0  0  0  0  0  0  0
   -0.0089  -10.8151    1.4844 C   0  0  0  0  0  0  0  0  0  0  0  0
   -0.3856   -9.3541    1.2260 C   0  0  0  0  0  0  0  0  0  0  0  0
    1.3714   -8.6440    2.6895 O   0  5  0  0  0  0  0  0  0  0  0  0
    1.3324    6.2103    0.8651 H   0  0  0  0  0  0  0  0  0  0  0  0
    1.5156    3.7620    1.0367 H   0  0  0  0  0  0  0  0  0  0  0  0
    5.1086    3.8769   -1.2801 H   0  0  0  0  0  0  0  0  0  0  0  0
    3.0277    7.4896   -0.3777 H   0  0  0  0  0  0  0  0  0  0  0  0
    4.3020    1.8556    0.0467 H   0  0  0  0  0  0  0  0  0  0  0  0
    4.5023   -0.0157    0.4358 H   0  0  0  0  0  0  0  0  0  0  0  0
    0.3357   -2.6355    0.4104 H   0  0  0  0  0  0  0  0  0  0  0  0
   -0.9528    1.7814   -0.3908 H   0  0  0  0  0  0  0  0  0  0  0  0
    3.4256   -4.3822    0.9842 H   0  0  0  0  0  0  0  0  0  0  0  0
    0.6748   -4.4448    1.6211 H   0  0  0  0  0  0  0  0  0  0  0  0
    0.8511   -4.7086   -0.1303 H   0  0  0  0  0  0  0  0  0  0  0  0
    2.3940   -6.5992    0.3097 H   0  0  0  0  0  0  0  0  0  0  0  0
    2.2177   -6.3354    2.0612 H   0  0  0  0  0  0  0  0  0  0  0  0
   -0.2180   -6.7639    1.8805 H   0  0  0  0  0  0  0  0  0  0  0  0
   -0.0416   -7.0276    0.1290 H   0  0  0  0  0  0  0  0  0  0  0  0
    1.3964   -8.8487   -0.6476 H   0  0  0  0  0  0  0  0  0  0  0  0
    2.7022   -8.3221    0.4418 H   0  0  0  0  0  0  0  0  0  0  0  0
    2.6373  -10.4970    1.6027 H   0  0  0  0  0  0  0  0  0  0  0  0
    2.8929  -10.7429   -0.1420 H   0  0  0  0  0  0  0  0  0  0  0  0
    0.3688  -10.9192    2.5016 H   0  0  0  0  0  0  0  0  0  0  0  0
   -0.8883  -11.4460    1.3557 H   0  0  0  0  0  0  0  0  0  0  0  0
   -1.1267   -9.0347    1.9587 H   0  0  0  0  0  0  0  0  0  0  0  0
   -0.8008   -9.2574    0.2229 H   0  0  0  0  0  0  0  0  0  0  0  0
    3.6579   -1.9077    0.6354 N   0  3  0  0  0  0  0  0  0  0  0  0
    4.5572   -2.3762    0.7969 H   0  0  0  0  0  0  0  0  0  0  0  0
  1  6  2  0  0  0  0
  1  2  1  0  0  0  0
  1 29  1  0  0  0  0
  2  3  2  0  0  0  0
  2 30  1  0  0  0  0
  3  4  1  0  0  0  0
  3  8  1  0  0  0  0
  4  5  2  0  0  0  0
  4 31  1  0  0  0  0
  5  6  1  0  0  0  0
  5  7  1  0  0  0  0
  6 32  1  0  0  0  0
  8  9  1  0  0  0  0
  8 33  1  0  0  0  0
  9 17  2  0  0  0  0
  9 10  1  0  0  0  0
 10 14  2  0  0  0  0
 10 11  1  0  0  0  0
 11 34  1  0  0  0  0
 11 52  2  0  0  0  0
 12 13  2  0  0  0  0
 12 18  1  0  0  0  0
 12 52  1  0  0  0  0
 13 14  1  0  0  0  0
 13 35  1  0  0  0  0
 14 15  1  0  0  0  0
 15 16  2  0  0  0  0
 16 17  1  0  0  0  0
 16 36  1  0  0  0  0
 18 19  1  0  0  0  0
 18 37  1  0  0  0  0
 19 20  1  0  0  0  0
 19 38  1  0  0  0  0
 19 39  1  0  0  0  0
 20 21  1  0  0  0  0
 20 40  1  0  0  0  0
 20 41  1  0  0  0  0
 21 22  1  0  0  0  0
 21 42  1  0  0  0  0
 21 43  1  0  0  0  0
 22 27  1  0  0  0  0
 22 23  1  0  0  0  0
 22 28  1  0  0  0  0
 23 24  1  0  0  0  0
 23 44  1  0  0  0  0
 23 45  1  0  0  0  0
 24 25  1  0  0  0  0
 24 46  1  0  0  0  0
 24 47  1  0  0  0  0
 25 26  1  0  0  0  0
 26 27  1  0  0  0  0
 26 48  1  0  0  0  0
 26 49  1  0  0  0  0
 27 50  1  0  0  0  0
 27 51  1  0  0  0  0
 52 53  1  0  0  0  0
M  CHG  3  22   1  28  -1  52   1
M  END
$$$$
ZINC03815069
  -OEChem-08230709403D

 31 33  0     0  0  0  0  0  0999 V2000
    8.2860    6.3392   -0.4854 C   0  0  0  0  0  0  0  0  0  0  0  0
    7.0618    5.5436   -0.3650 N   0  0  0  0  0  0  0  0  0  0  0  0
    5.8277    6.1708   -0.3446 C   0  0  0  0  0  0  0  0  0  0  0  0
    5.7831    7.4979   -0.4361 N   0  0  0  0  0  0  0  0  0  0  0  0
    4.6406    8.1522   -0.4224 C   0  0  0  0  0  0  0  0  0  0  0  0
    3.4482    7.4139   -0.3077 C   0  0  0  0  0  0  0  0  0  0  0  0
    3.5393    6.0050   -0.2074 C   0  0  0  0  0  0  0  0  0  0  0  0
    4.7410    5.4294   -0.2348 N   0  0  0  0  0  0  0  0  0  0  0  0
    2.3353    5.2648   -0.0976 C   0  0  0  0  0  0  0  0  0  0  0  0
    1.1907    5.9331   -0.0852 N   0  0  0  0  0  0  0  0  0  0  0  0
    1.1582    7.2532   -0.1771 C   0  0  0  0  0  0  0  0  0  0  0  0
    2.2403    7.9882   -0.2853 N   0  0  0  0  0  0  0  0  0  0  0  0
    2.3547    3.8878   -0.0005 N   0  0  0  0  0  0  0  0  0  0  0  0
    1.1558    3.1697   -0.0090 C   0  0  0  0  0  0  0  0  0  0  0  0
    1.0435    1.9936    0.7223 C   0  0  0  0  0  0  0  0  0  0  0  0
   -0.1422    1.2859    0.7117 C   0  0  0  0  0  0  0  0  0  0  0  0
   -1.2160    1.7435   -0.0299 C   0  0  0  0  0  0  0  0  0  0  0  0
   -1.1098    2.9171   -0.7551 C   0  0  0  0  0  0  0  0  0  0  0  0
    0.0743    3.6300   -0.7486 C   0  0  0  0  0  0  0  0  0  0  0  0
   -2.5833    3.5419   -1.7622 Br  0  0  0  0  0  0  0  0  0  0  0  0
    8.3551    7.0292    0.3557 H   0  0  0  0  0  0  0  0  0  0  0  0
    9.1515    5.6767   -0.4839 H   0  0  0  0  0  0  0  0  0  0  0  0
    8.2621    6.9038   -1.4175 H   0  0  0  0  0  0  0  0  0  0  0  0
    7.1159    4.5773   -0.2995 H   0  0  0  0  0  0  0  0  0  0  0  0
    4.6191    9.2294   -0.4971 H   0  0  0  0  0  0  0  0  0  0  0  0
    0.1982    7.7477   -0.1620 H   0  0  0  0  0  0  0  0  0  0  0  0
    3.2005    3.4187    0.0736 H   0  0  0  0  0  0  0  0  0  0  0  0
    1.8828    1.6334    1.2987 H   0  0  0  0  0  0  0  0  0  0  0  0
   -0.2295    0.3715    1.2797 H   0  0  0  0  0  0  0  0  0  0  0  0
   -2.1409    1.1859   -0.0397 H   0  0  0  0  0  0  0  0  0  0  0  0
    0.1584    4.5436   -1.3184 H   0  0  0  0  0  0  0  0  0  0  0  0
  1  2  1  0  0  0  0
  1 21  1  0  0  0  0
  1 22  1  0  0  0  0
  1 23  1  0  0  0  0
  2  3  1  0  0  0  0
  2 24  1  0  0  0  0
  3  8  2  0  0  0  0
  3  4  1  0  0  0  0
  4  5  2  0  0  0  0
  5  6  1  0  0  0  0
  5 25  1  0  0  0  0
  6 12  2  0  0  0  0
  6  7  1  0  0  0  0
  7  8  1  0  0  0  0
  7  9  2  0  0  0  0
  9 10  1  0  0  0  0
  9 13  1  0  0  0  0
 10 11  2  0  0  0  0
 11 12  1  0  0  0  0
 11 26  1  0  0  0  0
 13 14  1  0  0  0  0
 13 27  1  0  0  0  0
 14 19  2  0  0  0  0
 14 15  1  0  0  0  0
 15 16  2  0  0  0  0
 15 28  1  0  0  0  0
 16 17  1  0  0  0  0
 16 29  1  0  0  0  0
 17 18  2  0  0  0  0
 17 30  1  0  0  0  0
 18 19  1  0  0  0  0
 18 20  1  0  0  0  0
 19 31  1  0  0  0  0
M  END
$$$$
ZINC03815070
  -OEChem-08230709403D

 31 33  0     0  0  0  0  0  0999 V2000
    8.2851    6.3305   -0.4872 C   0  0  0  0  0  0  0  0  0  0  0  0
    7.0693    5.5221   -0.3658 N   0  0  0  0  0  0  0  0  0  0  0  0
    5.8253    6.1383   -0.3437 C   0  0  0  0  0  0  0  0  0  0  0  0
    5.7377    7.5374   -0.4380 C   0  0  0  0  0  0  0  0  0  0  0  0
    4.5698    8.1376   -0.4192 N   0  0  0  0  0  0  0  0  0  0  0  0
    3.4529    7.4117   -0.3088 C   0  0  0  0  0  0  0  0  0  0  0  0
    3.5407    6.0030   -0.2074 C   0  0  0  0  0  0  0  0  0  0  0  0
    4.7321    5.4054   -0.2336 N   0  0  0  0  0  0  0  0  0  0  0  0
    2.3354    5.2642   -0.0975 C   0  0  0  0  0  0  0  0  0  0  0  0
    1.1895    5.9312   -0.0850 N   0  0  0  0  0  0  0  0  0  0  0  0
    1.1583    7.2504   -0.1774 C   0  0  0  0  0  0  0  0  0  0  0  0
    2.2410    7.9837   -0.2860 N   0  0  0  0  0  0  0  0  0  0  0  0
    2.3548    3.8878   -0.0005 N   0  0  0  0  0  0  0  0  0  0  0  0
    1.1558    3.1697   -0.0089 C   0  0  0  0  0  0  0  0  0  0  0  0
    0.0739    3.6299   -0.7494 C   0  0  0  0  0  0  0  0  0  0  0  0
   -1.1096    2.9186   -0.7556 C   0  0  0  0  0  0  0  0  0  0  0  0
   -1.2210    1.7518   -0.0216 C   0  0  0  0  0  0  0  0  0  0  0  0
   -0.1442    1.2876    0.7128 C   0  0  0  0  0  0  0  0  0  0  0  0
    1.0431    1.9949    0.7231 C   0  0  0  0  0  0  0  0  0  0  0  0
   -0.2995   -0.3122    1.7091 Br  0  0  0  0  0  0  0  0  0  0  0  0
    8.3480    7.0207    0.3541 H   0  0  0  0  0  0  0  0  0  0  0  0
    9.1575    5.6770   -0.4870 H   0  0  0  0  0  0  0  0  0  0  0  0
    8.2543    6.8953   -1.4190 H   0  0  0  0  0  0  0  0  0  0  0  0
    7.1335    4.5565   -0.3009 H   0  0  0  0  0  0  0  0  0  0  0  0
    6.6395    8.1248   -0.5273 H   0  0  0  0  0  0  0  0  0  0  0  0
    0.1989    7.7461   -0.1623 H   0  0  0  0  0  0  0  0  0  0  0  0
    3.2005    3.4187    0.0736 H   0  0  0  0  0  0  0  0  0  0  0  0
    0.1587    4.5429   -1.3200 H   0  0  0  0  0  0  0  0  0  0  0  0
   -1.9508    3.2763   -1.3308 H   0  0  0  0  0  0  0  0  0  0  0  0
   -2.1493    1.1999   -0.0246 H   0  0  0  0  0  0  0  0  0  0  0  0
    1.8821    1.6348    1.3000 H   0  0  0  0  0  0  0  0  0  0  0  0
  1  2  1  0  0  0  0
  1 21  1  0  0  0  0
  1 22  1  0  0  0  0
  1 23  1  0  0  0  0
  2  3  1  0  0  0  0
  2 24  1  0  0  0  0
  3  8  2  0  0  0  0
  3  4  1  0  0  0  0
  4  5  2  0  0  0  0
  4 25  1  0  0  0  0
  5  6  1  0  0  0  0
  6 12  2  0  0  0  0
  6  7  1  0  0  0  0
  7  8  1  0  0  0  0
  7  9  2  0  0  0  0
  9 10  1  0  0  0  0
  9 13  1  0  0  0  0
 10 11  2  0  0  0  0
 11 12  1  0  0  0  0
 11 26  1  0  0  0  0
 13 14  1  0  0  0  0
 13 27  1  0  0  0  0
 14 19  2  0  0  0  0
 14 15  1  0  0  0  0
 15 16  2  0  0  0  0
 15 28  1  0  0  0  0
 16 17  1  0  0  0  0
 16 29  1  0  0  0  0
 17 18  2  0  0  0  0
 17 30  1  0  0  0  0
 18 19  1  0  0  0  0
 18 20  1  0  0  0  0
 19 31  1  0  0  0  0
M  END
$$$$
ZINC03815071
  -OEChem-08230709403D

 43 46  0     0  0  0  0  0  0999 V2000
    4.0877   -4.5419    0.2273 C   0  0  0  0  0  0  0  0  0  0  0  0
    2.8497   -3.9414    0.3484 C   0  0  0  0  0  0  0  0  0  0  0  0
    2.6507   -2.6577   -0.1435 C   0  0  0  0  0  0  0  0  0  0  0  0
    3.6968   -1.9837   -0.7607 C   0  0  0  0  0  0  0  0  0  0  0  0
    4.9342   -2.5880   -0.8745 C   0  0  0  0  0  0  0  0  0  0  0  0
    5.1286   -3.8672   -0.3832 C   0  0  0  0  0  0  0  0  0  0  0  0
    6.3610   -1.6696   -1.7092 Br  0  0  0  0  0  0  0  0  0  0  0  0
    1.3990   -2.0477   -0.0227 N   0  0  0  0  0  0  0  0  0  0  0  0
    1.3107   -0.6807    0.1420 C   0  0  0  0  0  0  0  0  0  0  0  0
    0.0199    0.0007    0.1513 C   0  0  0  0  0  0  0  0  0  0  0  0
   -1.1978   -0.6656   -0.0016 C   0  0  0  0  0  0  0  0  0  0  0  0
   -2.3630    0.0813    0.0236 C   0  0  0  0  0  0  0  0  0  0  0  0
   -1.2204    2.0754    0.3421 C   0  0  0  0  0  0  0  0  0  0  0  0
    0.0114    1.4085    0.3253 C   0  0  0  0  0  0  0  0  0  0  0  0
    1.1830    2.0416    0.4719 N   0  0  0  0  0  0  0  0  0  0  0  0
    2.3130    1.3790    0.4556 C   0  0  0  0  0  0  0  0  0  0  0  0
    2.3967    0.0674    0.2979 N   0  0  0  0  0  0  0  0  0  0  0  0
   -3.5889   -0.5624   -0.1270 N   0  0  0  0  0  0  0  0  0  0  0  0
   -3.6357   -2.0152   -0.3097 C   0  0  0  0  0  0  0  0  0  0  0  0
   -5.0914   -2.4649   -0.4496 C   0  0  0  0  0  0  0  0  0  0  0  0
   -5.1396   -3.9594   -0.6376 C   0  0  0  0  0  0  0  0  0  0  0  0
   -5.8397   -4.8295    0.1150 C   0  0  0  0  0  0  0  0  0  0  0  0
   -5.6033   -6.0763   -0.3980 N   0  0  0  0  0  0  0  0  0  0  0  0
   -5.9799   -6.9385   -0.0593 H   0  0  0  0  0  0  0  0  0  0  0  0
   -4.7665   -5.9246   -1.4470 C   0  0  0  0  0  0  0  0  0  0  0  0
   -4.4974   -4.6554   -1.5874 N   0  0  0  0  0  0  0  0  0  0  0  0
    4.2427   -5.5400    0.6097 H   0  0  0  0  0  0  0  0  0  0  0  0
    2.0373   -4.4693    0.8254 H   0  0  0  0  0  0  0  0  0  0  0  0
    3.5442   -0.9870   -1.1479 H   0  0  0  0  0  0  0  0  0  0  0  0
    6.0953   -4.3394   -0.4772 H   0  0  0  0  0  0  0  0  0  0  0  0
    0.5923   -2.5855   -0.0548 H   0  0  0  0  0  0  0  0  0  0  0  0
   -1.2297   -1.7368   -0.1359 H   0  0  0  0  0  0  0  0  0  0  0  0
   -1.2521    3.1469    0.4732 H   0  0  0  0  0  0  0  0  0  0  0  0
    3.2303    1.9357    0.5779 H   0  0  0  0  0  0  0  0  0  0  0  0
   -4.4116   -0.0488   -0.1109 H   0  0  0  0  0  0  0  0  0  0  0  0
   -3.0837   -2.2862   -1.2097 H   0  0  0  0  0  0  0  0  0  0  0  0
   -3.1856   -2.5047    0.5539 H   0  0  0  0  0  0  0  0  0  0  0  0
   -5.6435   -2.1939    0.4503 H   0  0  0  0  0  0  0  0  0  0  0  0
   -5.5416   -1.9754   -1.3132 H   0  0  0  0  0  0  0  0  0  0  0  0
   -6.4668   -4.5896    0.9610 H   0  0  0  0  0  0  0  0  0  0  0  0
   -4.3862   -6.7213   -2.0691 H   0  0  0  0  0  0  0  0  0  0  0  0
   -2.4118    1.4432    0.1898 N   0  3  0  0  0  0  0  0  0  0  0  0
   -3.3014    1.9559    0.1983 H   0  0  0  0  0  0  0  0  0  0  0  0
  1  6  2  0  0  0  0
  1  2  1  0  0  0  0
  1 27  1  0  0  0  0
  2  3  2  0  0  0  0
  2 28  1  0  0  0  0
  3  4  1  0  0  0  0
  3  8  1  0  0  0  0
  4  5  2  0  0  0  0
  4 29  1  0  0  0  0
  5  6  1  0  0  0  0
  5  7  1  0  0  0  0
  6 30  1  0  0  0  0
  8  9  1  0  0  0  0
  8 31  1  0  0  0  0
  9 17  2  0  0  0  0
  9 10  1  0  0  0  0
 10 14  2  0  0  0  0
 10 11  1  0  0  0  0
 11 12  2  0  0  0  0
 11 32  1  0  0  0  0
 12 18  1  0  0  0  0
 12 42  1  0  0  0  0
 13 14  1  0  0  0  0
 13 33  1  0  0  0  0
 13 42  2  0  0  0  0
 14 15  1  0  0  0  0
 15 16  2  0  0  0  0
 16 17  1  0  0  0  0
 16 34  1  0  0  0  0
 18 19  1  0  0  0  0
 18 35  1  0  0  0  0
 19 20  1  0  0  0  0
 19 36  1  0  0  0  0
 19 37  1  0  0  0  0
 20 21  1  0  0  0  0
 20 38  1  0  0  0  0
 20 39  1  0  0  0  0
 21 26  1  0  0  0  0
 21 22  2  0  0  0  0
 22 23  1  0  0  0  0
 22 40  1  0  0  0  0
 23 24  1  0  0  0  0
 23 25  1  0  0  0  0
 25 26  2  0  0  0  0
 25 41  1  0  0  0  0
 42 43  1  0  0  0  0
M  CHG  1  42   1
M  END
$$$$
ZINC03815071
  -OEChem-08230709403D

 43 46  0     0  0  0  0  0  0999 V2000
    4.0877   -4.5419    0.2273 C   0  0  0  0  0  0  0  0  0  0  0  0
    2.8497   -3.9414    0.3484 C   0  0  0  0  0  0  0  0  0  0  0  0
    2.6507   -2.6577   -0.1435 C   0  0  0  0  0  0  0  0  0  0  0  0
    3.6968   -1.9837   -0.7607 C   0  0  0  0  0  0  0  0  0  0  0  0
    4.9342   -2.5880   -0.8745 C   0  0  0  0  0  0  0  0  0  0  0  0
    5.1286   -3.8672   -0.3832 C   0  0  0  0  0  0  0  0  0  0  0  0
    6.3610   -1.6696   -1.7092 Br  0  0  0  0  0  0  0  0  0  0  0  0
    1.3990   -2.0477   -0.0227 N   0  0  0  0  0  0  0  0  0  0  0  0
    1.3107   -0.6807    0.1420 C   0  0  0  0  0  0  0  0  0  0  0  0
    0.0199    0.0007    0.1513 C   0  0  0  0  0  0  0  0  0  0  0  0
   -1.1978   -0.6656   -0.0016 C   0  0  0  0  0  0  0  0  0  0  0  0
   -2.3630    0.0813    0.0236 C   0  0  0  0  0  0  0  0  0  0  0  0
   -1.2204    2.0754    0.3421 C   0  0  0  0  0  0  0  0  0  0  0  0
    0.0114    1.4085    0.3253 C   0  0  0  0  0  0  0  0  0  0  0  0
    1.1830    2.0416    0.4719 N   0  0  0  0  0  0  0  0  0  0  0  0
    2.3130    1.3790    0.4556 C   0  0  0  0  0  0  0  0  0  0  0  0
    2.3967    0.0674    0.2979 N   0  0  0  0  0  0  0  0  0  0  0  0
   -3.5889   -0.5624   -0.1270 N   0  0  0  0  0  0  0  0  0  0  0  0
   -3.6357   -2.0152   -0.3097 C   0  0  0  0  0  0  0  0  0  0  0  0
   -5.0914   -2.4649   -0.4496 C   0  0  0  0  0  0  0  0  0  0  0  0
   -5.1396   -3.9594   -0.6376 C   0  0  0  0  0  0  0  0  0  0  0  0
   -5.8397   -4.8295    0.1150 C   0  0  0  0  0  0  0  0  0  0  0  0
   -5.6033   -6.0763   -0.3980 N   0  0  0  0  0  0  0  0  0  0  0  0
   -5.9799   -6.9385   -0.0593 H   0  0  0  0  0  0  0  0  0  0  0  0
   -4.7665   -5.9246   -1.4470 C   0  0  0  0  0  0  0  0  0  0  0  0
   -4.4974   -4.6554   -1.5874 N   0  0  0  0  0  0  0  0  0  0  0  0
    4.2427   -5.5400    0.6097 H   0  0  0  0  0  0  0  0  0  0  0  0
    2.0373   -4.4693    0.8254 H   0  0  0  0  0  0  0  0  0  0  0  0
    3.5442   -0.9870   -1.1479 H   0  0  0  0  0  0  0  0  0  0  0  0
    6.0953   -4.3394   -0.4772 H   0  0  0  0  0  0  0  0  0  0  0  0
    0.5923   -2.5855   -0.0548 H   0  0  0  0  0  0  0  0  0  0  0  0
   -1.2297   -1.7368   -0.1359 H   0  0  0  0  0  0  0  0  0  0  0  0
   -1.2521    3.1469    0.4732 H   0  0  0  0  0  0  0  0  0  0  0  0
    3.2303    1.9357    0.5779 H   0  0  0  0  0  0  0  0  0  0  0  0
   -4.4116   -0.0488   -0.1109 H   0  0  0  0  0  0  0  0  0  0  0  0
   -3.0837   -2.2862   -1.2097 H   0  0  0  0  0  0  0  0  0  0  0  0
   -3.1856   -2.5047    0.5539 H   0  0  0  0  0  0  0  0  0  0  0  0
   -5.6435   -2.1939    0.4503 H   0  0  0  0  0  0  0  0  0  0  0  0
   -5.5416   -1.9754   -1.3132 H   0  0  0  0  0  0  0  0  0  0  0  0
   -6.4668   -4.5896    0.9610 H   0  0  0  0  0  0  0  0  0  0  0  0
   -4.3862   -6.7213   -2.0691 H   0  0  0  0  0  0  0  0  0  0  0  0
   -2.4118    1.4432    0.1898 N   0  3  0  0  0  0  0  0  0  0  0  0
   -3.3014    1.9559    0.1983 H   0  0  0  0  0  0  0  0  0  0  0  0
  1  6  2  0  0  0  0
  1  2  1  0  0  0  0
  1 27  1  0  0  0  0
  2  3  2  0  0  0  0
  2 28  1  0  0  0  0
  3  4  1  0  0  0  0
  3  8  1  0  0  0  0
  4  5  2  0  0  0  0
  4 29  1  0  0  0  0
  5  6  1  0  0  0  0
  5  7  1  0  0  0  0
  6 30  1  0  0  0  0
  8  9  1  0  0  0  0
  8 31  1  0  0  0  0
  9 17  2  0  0  0  0
  9 10  1  0  0  0  0
 10 14  2  0  0  0  0
 10 11  1  0  0  0  0
 11 12  2  0  0  0  0
 11 32  1  0  0  0  0
 12 18  1  0  0  0  0
 12 42  1  0  0  0  0
 13 14  1  0  0  0  0
 13 33  1  0  0  0  0
 13 42  2  0  0  0  0
 14 15  1  0  0  0  0
 15 16  2  0  0  0  0
 16 17  1  0  0  0  0
 16 34  1  0  0  0  0
 18 19  1  0  0  0  0
 18 35  1  0  0  0  0
 19 20  1  0  0  0  0
 19 36  1  0  0  0  0
 19 37  1  0  0  0  0
 20 21  1  0  0  0  0
 20 38  1  0  0  0  0
 20 39  1  0  0  0  0
 21 26  1  0  0  0  0
 21 22  2  0  0  0  0
 22 23  1  0  0  0  0
 22 40  1  0  0  0  0
 23 24  1  0  0  0  0
 23 25  1  0  0  0  0
 25 26  2  0  0  0  0
 25 41  1  0  0  0  0
 42 43  1  0  0  0  0
M  CHG  1  42   1
M  END
$$$$
ZINC03815071
  -OEChem-08230709403D

 44 47  0     0  0  0  0  0  0999 V2000
    4.0877   -4.5419    0.2273 C   0  0  0  0  0  0  0  0  0  0  0  0
    2.8497   -3.9414    0.3484 C   0  0  0  0  0  0  0  0  0  0  0  0
    2.6507   -2.6577   -0.1435 C   0  0  0  0  0  0  0  0  0  0  0  0
    3.6968   -1.9837   -0.7607 C   0  0  0  0  0  0  0  0  0  0  0  0
    4.9342   -2.5880   -0.8745 C   0  0  0  0  0  0  0  0  0  0  0  0
    5.1286   -3.8672   -0.3832 C   0  0  0  0  0  0  0  0  0  0  0  0
    6.3610   -1.6696   -1.7092 Br  0  0  0  0  0  0  0  0  0  0  0  0
    1.3990   -2.0477   -0.0227 N   0  0  0  0  0  0  0  0  0  0  0  0
    1.3107   -0.6807    0.1420 C   0  0  0  0  0  0  0  0  0  0  0  0
    0.0199    0.0007    0.1513 C   0  0  0  0  0  0  0  0  0  0  0  0
   -1.1978   -0.6656   -0.0016 C   0  0  0  0  0  0  0  0  0  0  0  0
   -2.3630    0.0813    0.0236 C   0  0  0  0  0  0  0  0  0  0  0  0
   -1.2204    2.0754    0.3421 C   0  0  0  0  0  0  0  0  0  0  0  0
    0.0114    1.4085    0.3253 C   0  0  0  0  0  0  0  0  0  0  0  0
    1.1830    2.0416    0.4719 N   0  0  0  0  0  0  0  0  0  0  0  0
    2.3130    1.3790    0.4556 C   0  0  0  0  0  0  0  0  0  0  0  0
    2.3967    0.0674    0.2979 N   0  0  0  0  0  0  0  0  0  0  0  0
   -3.5889   -0.5624   -0.1270 N   0  0  0  0  0  0  0  0  0  0  0  0
   -3.6357   -2.0152   -0.3097 C   0  0  0  0  0  0  0  0  0  0  0  0
   -5.0914   -2.4649   -0.4496 C   0  0  0  0  0  0  0  0  0  0  0  0
   -5.1396   -3.9594   -0.6376 C   0  0  0  0  0  0  0  0  0  0  0  0
   -5.8397   -4.8295    0.1150 C   0  0  0  0  0  0  0  0  0  0  0  0
   -5.6033   -6.0763   -0.3980 N   0  0  0  0  0  0  0  0  0  0  0  0
   -5.9799   -6.9385   -0.0593 H   0  0  0  0  0  0  0  0  0  0  0  0
   -4.7665   -5.9246   -1.4470 C   0  0  0  0  0  0  0  0  0  0  0  0
    4.2427   -5.5400    0.6097 H   0  0  0  0  0  0  0  0  0  0  0  0
    2.0373   -4.4693    0.8254 H   0  0  0  0  0  0  0  0  0  0  0  0
    3.5442   -0.9870   -1.1479 H   0  0  0  0  0  0  0  0  0  0  0  0
    6.0953   -4.3394   -0.4772 H   0  0  0  0  0  0  0  0  0  0  0  0
    0.5923   -2.5855   -0.0548 H   0  0  0  0  0  0  0  0  0  0  0  0
   -1.2297   -1.7368   -0.1359 H   0  0  0  0  0  0  0  0  0  0  0  0
   -1.2521    3.1469    0.4732 H   0  0  0  0  0  0  0  0  0  0  0  0
    3.2303    1.9357    0.5779 H   0  0  0  0  0  0  0  0  0  0  0  0
   -4.4116   -0.0488   -0.1109 H   0  0  0  0  0  0  0  0  0  0  0  0
   -3.0837   -2.2862   -1.2097 H   0  0  0  0  0  0  0  0  0  0  0  0
   -3.1856   -2.5047    0.5539 H   0  0  0  0  0  0  0  0  0  0  0  0
   -5.6435   -2.1939    0.4503 H   0  0  0  0  0  0  0  0  0  0  0  0
   -5.5416   -1.9754   -1.3132 H   0  0  0  0  0  0  0  0  0  0  0  0
   -6.4668   -4.5896    0.9610 H   0  0  0  0  0  0  0  0  0  0  0  0
   -4.3862   -6.7213   -2.0691 H   0  0  0  0  0  0  0  0  0  0  0  0
   -2.4118    1.4432    0.1898 N   0  3  0  0  0  0  0  0  0  0  0  0
   -3.3014    1.9559    0.1983 H   0  0  0  0  0  0  0  0  0  0  0  0
   -4.4982   -4.6559   -1.5864 N   0  3  0  0  0  0  0  0  0  0  0  0
   -3.8907   -4.2536   -2.3098 H   0  0  0  0  0  0  0  0  0  0  0  0
  1  6  2  0  0  0  0
  1  2  1  0  0  0  0
  1 26  1  0  0  0  0
  2  3  2  0  0  0  0
  2 27  1  0  0  0  0
  3  4  1  0  0  0  0
  3  8  1  0  0  0  0
  4  5  2  0  0  0  0
  4 28  1  0  0  0  0
  5  6  1  0  0  0  0
  5  7  1  0  0  0  0
  6 29  1  0  0  0  0
  8  9  1  0  0  0  0
  8 30  1  0  0  0  0
  9 17  2  0  0  0  0
  9 10  1  0  0  0  0
 10 14  2  0  0  0  0
 10 11  1  0  0  0  0
 11 12  2  0  0  0  0
 11 31  1  0  0  0  0
 12 18  1  0  0  0  0
 12 41  1  0  0  0  0
 13 14  1  0  0  0  0
 13 32  1  0  0  0  0
 13 41  2  0  0  0  0
 14 15  1  0  0  0  0
 15 16  2  0  0  0  0
 16 17  1  0  0  0  0
 16 33  1  0  0  0  0
 18 19  1  0  0  0  0
 18 34  1  0  0  0  0
 19 20  1  0  0  0  0
 19 35  1  0  0  0  0
 19 36  1  0  0  0  0
 20 21  1  0  0  0  0
 20 37  1  0  0  0  0
 20 38  1  0  0  0  0
 21 22  2  0  0  0  0
 21 43  1  0  0  0  0
 22 23  1  0  0  0  0
 22 39  1  0  0  0  0
 23 24  1  0  0  0  0
 23 25  1  0  0  0  0
 25 40  1  0  0  0  0
 25 43  2  0  0  0  0
 41 42  1  0  0  0  0
 43 44  1  0  0  0  0
M  CHG  2  41   1  43   1
M  END
$$$$
ZINC03815072
  -OEChem-08230709403D

 30 32  0     0  0  0  0  0  0999 V2000
   -2.4921    4.2052    0.4275 C   0  0  0  0  0  0  0  0  0  0  0  0
   -1.2843    3.5412    0.5183 C   0  0  0  0  0  0  0  0  0  0  0  0
   -0.1517    4.0771   -0.0810 C   0  0  0  0  0  0  0  0  0  0  0  0
   -0.2363    5.2827   -0.7658 C   0  0  0  0  0  0  0  0  0  0  0  0
   -1.4485    5.9395   -0.8575 C   0  0  0  0  0  0  0  0  0  0  0  0
   -2.5749    5.4023   -0.2590 C   0  0  0  0  0  0  0  0  0  0  0  0
   -1.5670    7.5775   -1.7949 Br  0  0  0  0  0  0  0  0  0  0  0  0
    1.0720    3.4075    0.0097 N   0  0  0  0  0  0  0  0  0  0  0  0
    1.1064    2.0281   -0.0040 C   0  0  0  0  0  0  0  0  0  0  0  0
    2.3185    1.3297    0.2077 C   0  0  0  0  0  0  0  0  0  0  0  0
    3.5279    1.9971    0.4387 C   0  0  0  0  0  0  0  0  0  0  0  0
    4.6682    1.2801    0.6360 C   0  0  0  0  0  0  0  0  0  0  0  0
    4.6486   -0.1191    0.6112 C   0  0  0  0  0  0  0  0  0  0  0  0
    3.4708   -0.8038    0.3858 C   0  0  0  0  0  0  0  0  0  0  0  0
    2.2872   -0.0869    0.1806 C   0  0  0  0  0  0  0  0  0  0  0  0
    1.1154   -0.7021   -0.0431 N   0  0  0  0  0  0  0  0  0  0  0  0
    0.0223   -0.0017   -0.2326 C   0  0  0  0  0  0  0  0  0  0  0  0
    0.0035    1.3213   -0.2164 N   0  0  0  0  0  0  0  0  0  0  0  0
    5.8299   -0.8287    0.8162 N   0  0  0  0  0  0  0  0  0  0  0  0
   -3.3729    3.7888    0.8938 H   0  0  0  0  0  0  0  0  0  0  0  0
   -1.2208    2.6059    1.0546 H   0  0  0  0  0  0  0  0  0  0  0  0
    0.6434    5.7041   -1.2294 H   0  0  0  0  0  0  0  0  0  0  0  0
   -3.5205    5.9196   -0.3282 H   0  0  0  0  0  0  0  0  0  0  0  0
    1.8969    3.9126    0.0822 H   0  0  0  0  0  0  0  0  0  0  0  0
    3.5559    3.0766    0.4598 H   0  0  0  0  0  0  0  0  0  0  0  0
    5.5993    1.7974    0.8142 H   0  0  0  0  0  0  0  0  0  0  0  0
    3.4634   -1.8837    0.3685 H   0  0  0  0  0  0  0  0  0  0  0  0
   -0.9037   -0.5286   -0.4100 H   0  0  0  0  0  0  0  0  0  0  0  0
    6.6601   -0.3528    0.9750 H   0  0  0  0  0  0  0  0  0  0  0  0
    5.8222   -1.7985    0.8001 H   0  0  0  0  0  0  0  0  0  0  0  0
  1  6  2  0  0  0  0
  1  2  1  0  0  0  0
  1 20  1  0  0  0  0
  2  3  2  0  0  0  0
  2 21  1  0  0  0  0
  3  4  1  0  0  0  0
  3  8  1  0  0  0  0
  4  5  2  0  0  0  0
  4 22  1  0  0  0  0
  5  6  1  0  0  0  0
  5  7  1  0  0  0  0
  6 23  1  0  0  0  0
  8  9  1  0  0  0  0
  8 24  1  0  0  0  0
  9 18  2  0  0  0  0
  9 10  1  0  0  0  0
 10 15  2  0  0  0  0
 10 11  1  0  0  0  0
 11 12  2  0  0  0  0
 11 25  1  0  0  0  0
 12 13  1  0  0  0  0
 12 26  1  0  0  0  0
 13 14  2  0  0  0  0
 13 19  1  0  0  0  0
 14 15  1  0  0  0  0
 14 27  1  0  0  0  0
 15 16  1  0  0  0  0
 16 17  2  0  0  0  0
 17 18  1  0  0  0  0
 17 28  1  0  0  0  0
 19 29  1  0  0  0  0
 19 30  1  0  0  0  0
M  END
$$$$
ZINC03815073
  -OEChem-08230709403D

 35 38  0     0  0  0  0  0  0999 V2000
   -4.9120    5.5863   -0.8883 C   0  0  0  0  0  0  0  0  0  0  0  0
   -3.4881    5.9262   -0.8325 N   0  0  0  0  0  0  0  0  0  0  0  0
   -2.9722    7.1847   -1.0015 C   0  0  0  0  0  0  0  0  0  0  0  0
   -1.6365    7.1544   -0.8914 C   0  0  0  0  0  0  0  0  0  0  0  0
   -1.2578    5.7609   -0.6297 C   0  0  0  0  0  0  0  0  0  0  0  0
   -2.4678    5.0275   -0.6027 C   0  0  0  0  0  0  0  0  0  0  0  0
   -2.4500    3.6642   -0.3748 C   0  0  0  0  0  0  0  0  0  0  0  0
   -1.2327    3.0114   -0.1709 C   0  0  0  0  0  0  0  0  0  0  0  0
   -0.0195    3.7494   -0.1984 C   0  0  0  0  0  0  0  0  0  0  0  0
   -0.0415    5.1242   -0.4290 C   0  0  0  0  0  0  0  0  0  0  0  0
    1.1947    3.0484    0.0133 C   0  0  0  0  0  0  0  0  0  0  0  0
    1.1350    1.7408    0.2259 N   0  0  0  0  0  0  0  0  0  0  0  0
   -0.0204    1.0944    0.2426 C   0  0  0  0  0  0  0  0  0  0  0  0
   -1.1738    1.6866    0.0488 N   0  0  0  0  0  0  0  0  0  0  0  0
    2.4055    3.7088   -0.0019 N   0  0  0  0  0  0  0  0  0  0  0  0
    3.5977    2.9846    0.0884 C   0  0  0  0  0  0  0  0  0  0  0  0
    3.7003    1.7352   -0.5105 C   0  0  0  0  0  0  0  0  0  0  0  0
    4.8795    1.0222   -0.4202 C   0  0  0  0  0  0  0  0  0  0  0  0
    5.9582    1.5505    0.2652 C   0  0  0  0  0  0  0  0  0  0  0  0
    5.8600    2.7947    0.8625 C   0  0  0  0  0  0  0  0  0  0  0  0
    4.6839    3.5151    0.7720 C   0  0  0  0  0  0  0  0  0  0  0  0
    7.3381    3.5128    1.7980 Br  0  0  0  0  0  0  0  0  0  0  0  0
   -5.3448    5.6699    0.1086 H   0  0  0  0  0  0  0  0  0  0  0  0
   -5.4229    6.2714   -1.5649 H   0  0  0  0  0  0  0  0  0  0  0  0
   -5.0277    4.5646   -1.2501 H   0  0  0  0  0  0  0  0  0  0  0  0
   -3.5568    8.0718   -1.1954 H   0  0  0  0  0  0  0  0  0  0  0  0
   -0.9658    7.9963   -0.9794 H   0  0  0  0  0  0  0  0  0  0  0  0
   -3.3743    3.1060   -0.3542 H   0  0  0  0  0  0  0  0  0  0  0  0
    0.8793    5.6883   -0.4504 H   0  0  0  0  0  0  0  0  0  0  0  0
   -0.0119    0.0291    0.4199 H   0  0  0  0  0  0  0  0  0  0  0  0
    2.4297    4.6757   -0.0752 H   0  0  0  0  0  0  0  0  0  0  0  0
    2.8585    1.3217   -1.0460 H   0  0  0  0  0  0  0  0  0  0  0  0
    4.9595    0.0510   -0.8857 H   0  0  0  0  0  0  0  0  0  0  0  0
    6.8793    0.9910    0.3340 H   0  0  0  0  0  0  0  0  0  0  0  0
    4.6088    4.4880    1.2348 H   0  0  0  0  0  0  0  0  0  0  0  0
  1  2  1  0  0  0  0
  1 23  1  0  0  0  0
  1 24  1  0  0  0  0
  1 25  1  0  0  0  0
  2  6  1  0  0  0  0
  2  3  1  0  0  0  0
  3  4  2  0  0  0  0
  3 26  1  0  0  0  0
  4  5  1  0  0  0  0
  4 27  1  0  0  0  0
  5 10  2  0  0  0  0
  5  6  1  0  0  0  0
  6  7  2  0  0  0  0
  7  8  1  0  0  0  0
  7 28  1  0  0  0  0
  8 14  2  0  0  0  0
  8  9  1  0  0  0  0
  9 10  1  0  0  0  0
  9 11  2  0  0  0  0
 10 29  1  0  0  0  0
 11 12  1  0  0  0  0
 11 15  1  0  0  0  0
 12 13  2  0  0  0  0
 13 14  1  0  0  0  0
 13 30  1  0  0  0  0
 15 16  1  0  0  0  0
 15 31  1  0  0  0  0
 16 21  2  0  0  0  0
 16 17  1  0  0  0  0
 17 18  2  0  0  0  0
 17 32  1  0  0  0  0
 18 19  1  0  0  0  0
 18 33  1  0  0  0  0
 19 20  2  0  0  0  0
 19 34  1  0  0  0  0
 20 21  1  0  0  0  0
 20 22  1  0  0  0  0
 21 35  1  0  0  0  0
M  END
$$$$
ZINC03815074
  -OEChem-08230709403D

 48 51  0     0  0  0  0  0  0999 V2000
   -4.2872    4.3842    8.3641 C   0  0  0  0  0  0  0  0  0  0  0  0
   -3.6333    4.0623    7.1908 C   0  0  0  0  0  0  0  0  0  0  0  0
   -2.8509    2.9164    7.1249 C   0  0  0  0  0  0  0  0  0  0  0  0
   -2.7329    2.0945    8.2386 C   0  0  0  0  0  0  0  0  0  0  0  0
   -3.3860    2.4243    9.4107 C   0  0  0  0  0  0  0  0  0  0  0  0
   -4.1642    3.5671    9.4726 C   0  0  0  0  0  0  0  0  0  0  0  0
   -3.2221    1.3095   10.9293 Br  0  0  0  0  0  0  0  0  0  0  0  0
   -2.1886    2.5880    5.9389 N   0  0  0  0  0  0  0  0  0  0  0  0
   -0.9703    1.9402    5.9852 C   0  0  0  0  0  0  0  0  0  0  0  0
   -0.3104    1.4773    4.7662 C   0  0  0  0  0  0  0  0  0  0  0  0
    0.9376    0.8222    4.9020 C   0  0  0  0  0  0  0  0  0  0  0  0
    1.5822    0.3723    3.7357 C   0  0  0  0  0  0  0  0  0  0  0  0
    0.9945    0.5819    2.5757 N   0  0  0  0  0  0  0  0  0  0  0  0
   -0.1797    1.2020    2.4898 C   0  0  0  0  0  0  0  0  0  0  0  0
   -0.8261    1.6496    3.5512 N   0  0  0  0  0  0  0  0  0  0  0  0
   -0.7430    1.3904    1.2391 N   0  0  0  0  0  0  0  0  0  0  0  0
   -0.0472    0.9103    0.0426 C   0  0  0  0  0  0  0  0  0  0  0  0
   -0.8781    1.2427   -1.1983 C   0  0  0  0  0  0  0  0  0  0  0  0
    1.0701    1.5035   -2.6137 C   0  0  0  0  0  0  0  0  0  0  0  0
    1.7925    0.9313   -3.8363 C   0  0  0  0  0  0  0  0  0  0  0  0
    0.9232    0.9944   -4.9702 O   0  0  0  0  0  0  0  0  0  0  0  0
   -0.3043    0.2817   -4.7949 C   0  0  0  0  0  0  0  0  0  0  0  0
   -1.0479    0.8472   -3.5820 C   0  0  0  0  0  0  0  0  0  0  0  0
    1.4505    0.6589    6.1263 N   0  0  0  0  0  0  0  0  0  0  0  0
    0.8144    1.0942    7.1863 C   0  0  0  0  0  0  0  0  0  0  0  0
   -0.3535    1.7145    7.1383 N   0  0  0  0  0  0  0  0  0  0  0  0
   -4.8956    5.2750    8.4156 H   0  0  0  0  0  0  0  0  0  0  0  0
   -3.7300    4.7012    6.3254 H   0  0  0  0  0  0  0  0  0  0  0  0
   -2.1286    1.2007    8.1894 H   0  0  0  0  0  0  0  0  0  0  0  0
   -4.6769    3.8210   10.3886 H   0  0  0  0  0  0  0  0  0  0  0  0
   -2.5848    2.8153    5.0831 H   0  0  0  0  0  0  0  0  0  0  0  0
    2.5352   -0.1329    3.7899 H   0  0  0  0  0  0  0  0  0  0  0  0
   -1.5983    1.8402    1.1552 H   0  0  0  0  0  0  0  0  0  0  0  0
    0.0893   -0.1690    0.1101 H   0  0  0  0  0  0  0  0  0  0  0  0
    0.9260    1.3957   -0.0311 H   0  0  0  0  0  0  0  0  0  0  0  0
   -1.8513    0.7573   -1.1247 H   0  0  0  0  0  0  0  0  0  0  0  0
   -1.0146    2.3220   -1.2658 H   0  0  0  0  0  0  0  0  0  0  0  0
    0.8440    2.5561   -2.7841 H   0  0  0  0  0  0  0  0  0  0  0  0
    1.7078    1.4051   -1.7352 H   0  0  0  0  0  0  0  0  0  0  0  0
    2.0662   -0.1062   -3.6448 H   0  0  0  0  0  0  0  0  0  0  0  0
    2.6919    1.5144   -4.0344 H   0  0  0  0  0  0  0  0  0  0  0  0
   -0.0915   -0.7748   -4.6313 H   0  0  0  0  0  0  0  0  0  0  0  0
   -0.9217    0.3955   -5.6859 H   0  0  0  0  0  0  0  0  0  0  0  0
   -1.9563    0.2699   -3.4103 H   0  0  0  0  0  0  0  0  0  0  0  0
   -1.3079    1.8893   -3.7679 H   0  0  0  0  0  0  0  0  0  0  0  0
    1.2693    0.9383    8.1533 H   0  0  0  0  0  0  0  0  0  0  0  0
   -0.1733    0.7353   -2.3954 N   0  3  0  0  0  0  0  0  0  0  0  0
    0.0656   -0.2524   -2.2484 H   0  0  0  0  0  0  0  0  0  0  0  0
  1  6  2  0  0  0  0
  1  2  1  0  0  0  0
  1 27  1  0  0  0  0
  2  3  2  0  0  0  0
  2 28  1  0  0  0  0
  3  4  1  0  0  0  0
  3  8  1  0  0  0  0
  4  5  2  0  0  0  0
  4 29  1  0  0  0  0
  5  6  1  0  0  0  0
  5  7  1  0  0  0  0
  6 30  1  0  0  0  0
  8  9  1  0  0  0  0
  8 31  1  0  0  0  0
  9 26  2  0  0  0  0
  9 10  1  0  0  0  0
 10 15  2  0  0  0  0
 10 11  1  0  0  0  0
 11 12  2  0  0  0  0
 11 24  1  0  0  0  0
 12 13  1  0  0  0  0
 12 32  1  0  0  0  0
 13 14  2  0  0  0  0
 14 15  1  0  0  0  0
 14 16  1  0  0  0  0
 16 17  1  0  0  0  0
 16 33  1  0  0  0  0
 17 18  1  0  0  0  0
 17 34  1  0  0  0  0
 17 35  1  0  0  0  0
 18 36  1  0  0  0  0
 18 37  1  0  0  0  0
 18 47  1  0  0  0  0
 19 20  1  0  0  0  0
 19 38  1  0  0  0  0
 19 39  1  0  0  0  0
 19 47  1  0  0  0  0
 20 21  1  0  0  0  0
 20 40  1  0  0  0  0
 20 41  1  0  0  0  0
 21 22  1  0  0  0  0
 22 23  1  0  0  0  0
 22 42  1  0  0  0  0
 22 43  1  0  0  0  0
 23 44  1  0  0  0  0
 23 45  1  0  0  0  0
 23 47  1  0  0  0  0
 24 25  2  0  0  0  0
 25 26  1  0  0  0  0
 25 46  1  0  0  0  0
 47 48  1  0  0  0  0
M  CHG  1  47   1
M  END
$$$$
ZINC03815075
  -OEChem-08230709403D

 36 38  0     0  0  0  0  0  0999 V2000
   -0.1079    7.8041   -0.3050 C   0  0  0  0  0  0  0  0  0  0  0  0
    1.1552    7.1532   -0.1533 O   0  0  0  0  0  0  0  0  0  0  0  0
    1.1386    5.8027    0.0050 C   0  0  0  0  0  0  0  0  0  0  0  0
   -0.0548    5.1381    0.0126 C   0  0  0  0  0  0  0  0  0  0  0  0
   -0.0731    3.7478    0.1755 C   0  0  0  0  0  0  0  0  0  0  0  0
    1.1438    3.0386    0.3314 C   0  0  0  0  0  0  0  0  0  0  0  0
    2.3555    3.7401    0.3205 C   0  0  0  0  0  0  0  0  0  0  0  0
    2.3463    5.1080    0.1591 C   0  0  0  0  0  0  0  0  0  0  0  0
    3.5205    5.7912    0.1487 O   0  0  0  0  0  0  0  0  0  0  0  0
    4.7172    5.0270    0.3103 C   0  0  0  0  0  0  0  0  0  0  0  0
    1.0982    1.7061    0.4863 N   0  0  0  0  0  0  0  0  0  0  0  0
   -0.0525    1.0764    0.4928 C   0  0  0  0  0  0  0  0  0  0  0  0
   -1.2129    1.6958    0.3458 N   0  0  0  0  0  0  0  0  0  0  0  0
   -1.2816    3.0116    0.1911 C   0  0  0  0  0  0  0  0  0  0  0  0
   -2.4993    3.6452    0.0441 N   0  0  0  0  0  0  0  0  0  0  0  0
   -3.6722    2.8912   -0.0543 C   0  0  0  0  0  0  0  0  0  0  0  0
   -4.8637    3.3868    0.4605 C   0  0  0  0  0  0  0  0  0  0  0  0
   -6.0208    2.6398    0.3614 C   0  0  0  0  0  0  0  0  0  0  0  0
   -5.9949    1.3993   -0.2494 C   0  0  0  0  0  0  0  0  0  0  0  0
   -4.8105    0.9028   -0.7635 C   0  0  0  0  0  0  0  0  0  0  0  0
   -3.6501    1.6475   -0.6718 C   0  0  0  0  0  0  0  0  0  0  0  0
   -4.7777   -0.9764   -1.6890 I   0  0  0  0  0  0  0  0  0  0  0  0
   -0.6151    7.4121   -1.1866 H   0  0  0  0  0  0  0  0  0  0  0  0
   -0.7198    7.6202    0.5781 H   0  0  0  0  0  0  0  0  0  0  0  0
    0.0479    8.8766   -0.4222 H   0  0  0  0  0  0  0  0  0  0  0  0
   -0.9799    5.6825   -0.1069 H   0  0  0  0  0  0  0  0  0  0  0  0
    3.2904    3.2126    0.4386 H   0  0  0  0  0  0  0  0  0  0  0  0
    4.6895    4.5068    1.2677 H   0  0  0  0  0  0  0  0  0  0  0  0
    4.7949    4.2986   -0.4969 H   0  0  0  0  0  0  0  0  0  0  0  0
    5.5798    5.6928    0.2833 H   0  0  0  0  0  0  0  0  0  0  0  0
   -0.0528    0.0038    0.6193 H   0  0  0  0  0  0  0  0  0  0  0  0
   -2.5410    4.6137    0.0090 H   0  0  0  0  0  0  0  0  0  0  0  0
   -4.8848    4.3553    0.9380 H   0  0  0  0  0  0  0  0  0  0  0  0
   -6.9473    3.0249    0.7611 H   0  0  0  0  0  0  0  0  0  0  0  0
   -6.9013    0.8171   -0.3256 H   0  0  0  0  0  0  0  0  0  0  0  0
   -2.7264    1.2613   -1.0769 H   0  0  0  0  0  0  0  0  0  0  0  0
  1  2  1  0  0  0  0
  1 23  1  0  0  0  0
  1 24  1  0  0  0  0
  1 25  1  0  0  0  0
  2  3  1  0  0  0  0
  3  8  2  0  0  0  0
  3  4  1  0  0  0  0
  4  5  2  0  0  0  0
  4 26  1  0  0  0  0
  5 14  1  0  0  0  0
  5  6  1  0  0  0  0
  6  7  2  0  0  0  0
  6 11  1  0  0  0  0
  7  8  1  0  0  0  0
  7 27  1  0  0  0  0
  8  9  1  0  0  0  0
  9 10  1  0  0  0  0
 10 28  1  0  0  0  0
 10 29  1  0  0  0  0
 10 30  1  0  0  0  0
 11 12  2  0  0  0  0
 12 13  1  0  0  0  0
 12 31  1  0  0  0  0
 13 14  2  0  0  0  0
 14 15  1  0  0  0  0
 15 16  1  0  0  0  0
 15 32  1  0  0  0  0
 16 21  2  0  0  0  0
 16 17  1  0  0  0  0
 17 18  2  0  0  0  0
 17 33  1  0  0  0  0
 18 19  1  0  0  0  0
 18 34  1  0  0  0  0
 19 20  2  0  0  0  0
 19 35  1  0  0  0  0
 20 21  1  0  0  0  0
 20 22  1  0  0  0  0
 21 36  1  0  0  0  0
M  END
$$$$
ZINC03815076
  -OEChem-08230709403D

 43 46  0     0  0  0  0  0  0999 V2000
    8.4867    5.7345    0.3312 C   0  0  0  0  0  0  0  0  0  0  0  0
    7.3064    5.0259    0.4446 C   0  0  0  0  0  0  0  0  0  0  0  0
    7.1872    3.7773   -0.1520 C   0  0  0  0  0  0  0  0  0  0  0  0
    8.2583    3.2424   -0.8565 C   0  0  0  0  0  0  0  0  0  0  0  0
    9.4346    3.9582   -0.9704 C   0  0  0  0  0  0  0  0  0  0  0  0
    9.5494    5.2022   -0.3749 C   0  0  0  0  0  0  0  0  0  0  0  0
   10.8914    3.2343   -1.9346 Br  0  0  0  0  0  0  0  0  0  0  0  0
    5.9940    3.0581   -0.0389 N   0  0  0  0  0  0  0  0  0  0  0  0
    4.7866    3.7232   -0.0283 C   0  0  0  0  0  0  0  0  0  0  0  0
    3.5763    3.0304    0.2060 C   0  0  0  0  0  0  0  0  0  0  0  0
    3.5261    1.6534    0.4361 C   0  0  0  0  0  0  0  0  0  0  0  0
    1.2174    1.7283    0.6536 C   0  0  0  0  0  0  0  0  0  0  0  0
    1.1679    3.0928    0.4350 C   0  0  0  0  0  0  0  0  0  0  0  0
    2.3673    3.7759    0.2040 C   0  0  0  0  0  0  0  0  0  0  0  0
    2.4208    5.0951   -0.0179 N   0  0  0  0  0  0  0  0  0  0  0  0
    3.5751    5.6849   -0.2297 C   0  0  0  0  0  0  0  0  0  0  0  0
    4.7265    5.0334   -0.2374 N   0  0  0  0  0  0  0  0  0  0  0  0
    0.0362    1.0351    0.8845 N   0  0  0  0  0  0  0  0  0  0  0  0
   -1.2432    1.7489    0.8885 C   0  0  0  0  0  0  0  0  0  0  0  0
   -2.3785    0.7592    1.1577 C   0  0  0  0  0  0  0  0  0  0  0  0
   -3.6945    1.4935    1.1618 C   0  0  0  0  0  0  0  0  0  0  0  0
   -4.7674    1.1990    0.4030 C   0  0  0  0  0  0  0  0  0  0  0  0
   -5.7392    2.1090    0.7210 N   0  0  0  0  0  0  0  0  0  0  0  0
   -6.6576    2.1579    0.3285 H   0  0  0  0  0  0  0  0  0  0  0  0
   -5.2260    2.9284    1.6638 C   0  0  0  0  0  0  0  0  0  0  0  0
   -4.0046    2.5512    1.9261 N   0  0  0  0  0  0  0  0  0  0  0  0
    8.5796    6.7054    0.7951 H   0  0  0  0  0  0  0  0  0  0  0  0
    6.4768    5.4426    0.9964 H   0  0  0  0  0  0  0  0  0  0  0  0
    8.1703    2.2698   -1.3178 H   0  0  0  0  0  0  0  0  0  0  0  0
   10.4712    5.7582   -0.4617 H   0  0  0  0  0  0  0  0  0  0  0  0
    6.0155    2.0909    0.0321 H   0  0  0  0  0  0  0  0  0  0  0  0
    4.4371    1.0733    0.4409 H   0  0  0  0  0  0  0  0  0  0  0  0
    0.2250    3.6195    0.4428 H   0  0  0  0  0  0  0  0  0  0  0  0
    3.5848    6.7505   -0.4052 H   0  0  0  0  0  0  0  0  0  0  0  0
    0.0579    0.0778    1.0392 H   0  0  0  0  0  0  0  0  0  0  0  0
   -1.2321    2.5101    1.6686 H   0  0  0  0  0  0  0  0  0  0  0  0
   -1.3973    2.2238   -0.0804 H   0  0  0  0  0  0  0  0  0  0  0  0
   -2.3896   -0.0020    0.3777 H   0  0  0  0  0  0  0  0  0  0  0  0
   -2.2244    0.2843    2.1267 H   0  0  0  0  0  0  0  0  0  0  0  0
   -4.8458    0.3989   -0.3182 H   0  0  0  0  0  0  0  0  0  0  0  0
   -5.7424    3.7562    2.1270 H   0  0  0  0  0  0  0  0  0  0  0  0
    2.3701    0.9804    0.6679 N   0  3  0  0  0  0  0  0  0  0  0  0
    2.3578   -0.0311    0.8442 H   0  0  0  0  0  0  0  0  0  0  0  0
  1  6  2  0  0  0  0
  1  2  1  0  0  0  0
  1 27  1  0  0  0  0
  2  3  2  0  0  0  0
  2 28  1  0  0  0  0
  3  4  1  0  0  0  0
  3  8  1  0  0  0  0
  4  5  2  0  0  0  0
  4 29  1  0  0  0  0
  5  6  1  0  0  0  0
  5  7  1  0  0  0  0
  6 30  1  0  0  0  0
  8  9  1  0  0  0  0
  8 31  1  0  0  0  0
  9 17  2  0  0  0  0
  9 10  1  0  0  0  0
 10 14  2  0  0  0  0
 10 11  1  0  0  0  0
 11 32  1  0  0  0  0
 11 42  2  0  0  0  0
 12 13  2  0  0  0  0
 12 18  1  0  0  0  0
 12 42  1  0  0  0  0
 13 14  1  0  0  0  0
 13 33  1  0  0  0  0
 14 15  1  0  0  0  0
 15 16  2  0  0  0  0
 16 17  1  0  0  0  0
 16 34  1  0  0  0  0
 18 19  1  0  0  0  0
 18 35  1  0  0  0  0
 19 20  1  0  0  0  0
 19 36  1  0  0  0  0
 19 37  1  0  0  0  0
 20 21  1  0  0  0  0
 20 38  1  0  0  0  0
 20 39  1  0  0  0  0
 21 26  1  0  0  0  0
 21 22  2  0  0  0  0
 22 23  1  0  0  0  0
 22 40  1  0  0  0  0
 23 24  1  0  0  0  0
 23 25  1  0  0  0  0
 25 26  2  0  0  0  0
 25 41  1  0  0  0  0
 42 43  1  0  0  0  0
M  CHG  1  42   1
M  END
$$$$
ZINC03815076
  -OEChem-08230709403D

 43 46  0     0  0  0  0  0  0999 V2000
    8.4867    5.7345    0.3312 C   0  0  0  0  0  0  0  0  0  0  0  0
    7.3064    5.0259    0.4446 C   0  0  0  0  0  0  0  0  0  0  0  0
    7.1872    3.7773   -0.1520 C   0  0  0  0  0  0  0  0  0  0  0  0
    8.2583    3.2424   -0.8565 C   0  0  0  0  0  0  0  0  0  0  0  0
    9.4346    3.9582   -0.9704 C   0  0  0  0  0  0  0  0  0  0  0  0
    9.5494    5.2022   -0.3749 C   0  0  0  0  0  0  0  0  0  0  0  0
   10.8914    3.2343   -1.9346 Br  0  0  0  0  0  0  0  0  0  0  0  0
    5.9940    3.0581   -0.0389 N   0  0  0  0  0  0  0  0  0  0  0  0
    4.7866    3.7232   -0.0283 C   0  0  0  0  0  0  0  0  0  0  0  0
    3.5763    3.0304    0.2060 C   0  0  0  0  0  0  0  0  0  0  0  0
    3.5261    1.6534    0.4361 C   0  0  0  0  0  0  0  0  0  0  0  0
    1.2174    1.7283    0.6536 C   0  0  0  0  0  0  0  0  0  0  0  0
    1.1679    3.0928    0.4350 C   0  0  0  0  0  0  0  0  0  0  0  0
    2.3673    3.7759    0.2040 C   0  0  0  0  0  0  0  0  0  0  0  0
    2.4208    5.0951   -0.0179 N   0  0  0  0  0  0  0  0  0  0  0  0
    3.5751    5.6849   -0.2297 C   0  0  0  0  0  0  0  0  0  0  0  0
    4.7265    5.0334   -0.2374 N   0  0  0  0  0  0  0  0  0  0  0  0
    0.0362    1.0351    0.8845 N   0  0  0  0  0  0  0  0  0  0  0  0
   -1.2432    1.7489    0.8885 C   0  0  0  0  0  0  0  0  0  0  0  0
   -2.3785    0.7592    1.1577 C   0  0  0  0  0  0  0  0  0  0  0  0
   -3.6945    1.4935    1.1618 C   0  0  0  0  0  0  0  0  0  0  0  0
   -4.7674    1.1990    0.4030 C   0  0  0  0  0  0  0  0  0  0  0  0
   -5.7392    2.1090    0.7210 N   0  0  0  0  0  0  0  0  0  0  0  0
   -6.6576    2.1579    0.3285 H   0  0  0  0  0  0  0  0  0  0  0  0
   -5.2260    2.9284    1.6638 C   0  0  0  0  0  0  0  0  0  0  0  0
   -4.0046    2.5512    1.9261 N   0  0  0  0  0  0  0  0  0  0  0  0
    8.5796    6.7054    0.7951 H   0  0  0  0  0  0  0  0  0  0  0  0
    6.4768    5.4426    0.9964 H   0  0  0  0  0  0  0  0  0  0  0  0
    8.1703    2.2698   -1.3178 H   0  0  0  0  0  0  0  0  0  0  0  0
   10.4712    5.7582   -0.4617 H   0  0  0  0  0  0  0  0  0  0  0  0
    6.0155    2.0909    0.0321 H   0  0  0  0  0  0  0  0  0  0  0  0
    4.4371    1.0733    0.4409 H   0  0  0  0  0  0  0  0  0  0  0  0
    0.2250    3.6195    0.4428 H   0  0  0  0  0  0  0  0  0  0  0  0
    3.5848    6.7505   -0.4052 H   0  0  0  0  0  0  0  0  0  0  0  0
    0.0579    0.0778    1.0392 H   0  0  0  0  0  0  0  0  0  0  0  0
   -1.2321    2.5101    1.6686 H   0  0  0  0  0  0  0  0  0  0  0  0
   -1.3973    2.2238   -0.0804 H   0  0  0  0  0  0  0  0  0  0  0  0
   -2.3896   -0.0020    0.3777 H   0  0  0  0  0  0  0  0  0  0  0  0
   -2.2244    0.2843    2.1267 H   0  0  0  0  0  0  0  0  0  0  0  0
   -4.8458    0.3989   -0.3182 H   0  0  0  0  0  0  0  0  0  0  0  0
   -5.7424    3.7562    2.1270 H   0  0  0  0  0  0  0  0  0  0  0  0
    2.3701    0.9804    0.6679 N   0  3  0  0  0  0  0  0  0  0  0  0
    2.3578   -0.0311    0.8442 H   0  0  0  0  0  0  0  0  0  0  0  0
  1  6  2  0  0  0  0
  1  2  1  0  0  0  0
  1 27  1  0  0  0  0
  2  3  2  0  0  0  0
  2 28  1  0  0  0  0
  3  4  1  0  0  0  0
  3  8  1  0  0  0  0
  4  5  2  0  0  0  0
  4 29  1  0  0  0  0
  5  6  1  0  0  0  0
  5  7  1  0  0  0  0
  6 30  1  0  0  0  0
  8  9  1  0  0  0  0
  8 31  1  0  0  0  0
  9 17  2  0  0  0  0
  9 10  1  0  0  0  0
 10 14  2  0  0  0  0
 10 11  1  0  0  0  0
 11 32  1  0  0  0  0
 11 42  2  0  0  0  0
 12 13  2  0  0  0  0
 12 18  1  0  0  0  0
 12 42  1  0  0  0  0
 13 14  1  0  0  0  0
 13 33  1  0  0  0  0
 14 15  1  0  0  0  0
 15 16  2  0  0  0  0
 16 17  1  0  0  0  0
 16 34  1  0  0  0  0
 18 19  1  0  0  0  0
 18 35  1  0  0  0  0
 19 20  1  0  0  0  0
 19 36  1  0  0  0  0
 19 37  1  0  0  0  0
 20 21  1  0  0  0  0
 20 38  1  0  0  0  0
 20 39  1  0  0  0  0
 21 26  1  0  0  0  0
 21 22  2  0  0  0  0
 22 23  1  0  0  0  0
 22 40  1  0  0  0  0
 23 24  1  0  0  0  0
 23 25  1  0  0  0  0
 25 26  2  0  0  0  0
 25 41  1  0  0  0  0
 42 43  1  0  0  0  0
M  CHG  1  42   1
M  END
$$$$
ZINC03815076
  -OEChem-08230709403D

 44 47  0     0  0  0  0  0  0999 V2000
    8.4867    5.7345    0.3312 C   0  0  0  0  0  0  0  0  0  0  0  0
    7.3064    5.0259    0.4446 C   0  0  0  0  0  0  0  0  0  0  0  0
    7.1872    3.7773   -0.1520 C   0  0  0  0  0  0  0  0  0  0  0  0
    8.2583    3.2424   -0.8565 C   0  0  0  0  0  0  0  0  0  0  0  0
    9.4346    3.9582   -0.9704 C   0  0  0  0  0  0  0  0  0  0  0  0
    9.5494    5.2022   -0.3749 C   0  0  0  0  0  0  0  0  0  0  0  0
   10.8914    3.2343   -1.9346 Br  0  0  0  0  0  0  0  0  0  0  0  0
    5.9940    3.0581   -0.0389 N   0  0  0  0  0  0  0  0  0  0  0  0
    4.7866    3.7232   -0.0283 C   0  0  0  0  0  0  0  0  0  0  0  0
    3.5763    3.0304    0.2060 C   0  0  0  0  0  0  0  0  0  0  0  0
    3.5261    1.6534    0.4361 C   0  0  0  0  0  0  0  0  0  0  0  0
    1.2174    1.7283    0.6536 C   0  0  0  0  0  0  0  0  0  0  0  0
    1.1679    3.0928    0.4350 C   0  0  0  0  0  0  0  0  0  0  0  0
    2.3673    3.7759    0.2040 C   0  0  0  0  0  0  0  0  0  0  0  0
    2.4208    5.0951   -0.0179 N   0  0  0  0  0  0  0  0  0  0  0  0
    3.5751    5.6849   -0.2297 C   0  0  0  0  0  0  0  0  0  0  0  0
    4.7265    5.0334   -0.2374 N   0  0  0  0  0  0  0  0  0  0  0  0
    0.0362    1.0351    0.8845 N   0  0  0  0  0  0  0  0  0  0  0  0
   -1.2432    1.7489    0.8885 C   0  0  0  0  0  0  0  0  0  0  0  0
   -2.3785    0.7592    1.1577 C   0  0  0  0  0  0  0  0  0  0  0  0
   -3.6945    1.4935    1.1618 C   0  0  0  0  0  0  0  0  0  0  0  0
   -4.7674    1.1990    0.4030 C   0  0  0  0  0  0  0  0  0  0  0  0
   -5.7392    2.1090    0.7210 N   0  0  0  0  0  0  0  0  0  0  0  0
   -6.6576    2.1579    0.3285 H   0  0  0  0  0  0  0  0  0  0  0  0
   -5.2260    2.9284    1.6638 C   0  0  0  0  0  0  0  0  0  0  0  0
    8.5796    6.7054    0.7951 H   0  0  0  0  0  0  0  0  0  0  0  0
    6.4768    5.4426    0.9964 H   0  0  0  0  0  0  0  0  0  0  0  0
    8.1703    2.2698   -1.3178 H   0  0  0  0  0  0  0  0  0  0  0  0
   10.4712    5.7582   -0.4617 H   0  0  0  0  0  0  0  0  0  0  0  0
    6.0155    2.0909    0.0321 H   0  0  0  0  0  0  0  0  0  0  0  0
    4.4371    1.0733    0.4409 H   0  0  0  0  0  0  0  0  0  0  0  0
    0.2250    3.6195    0.4428 H   0  0  0  0  0  0  0  0  0  0  0  0
    3.5848    6.7505   -0.4052 H   0  0  0  0  0  0  0  0  0  0  0  0
    0.0579    0.0778    1.0392 H   0  0  0  0  0  0  0  0  0  0  0  0
   -1.2321    2.5101    1.6686 H   0  0  0  0  0  0  0  0  0  0  0  0
   -1.3973    2.2238   -0.0804 H   0  0  0  0  0  0  0  0  0  0  0  0
   -2.3896   -0.0020    0.3777 H   0  0  0  0  0  0  0  0  0  0  0  0
   -2.2244    0.2843    2.1267 H   0  0  0  0  0  0  0  0  0  0  0  0
   -4.8458    0.3989   -0.3182 H   0  0  0  0  0  0  0  0  0  0  0  0
   -5.7424    3.7562    2.1270 H   0  0  0  0  0  0  0  0  0  0  0  0
    2.3701    0.9804    0.6679 N   0  3  0  0  0  0  0  0  0  0  0  0
    2.3578   -0.0311    0.8442 H   0  0  0  0  0  0  0  0  0  0  0  0
   -4.0054    2.5506    1.9252 N   0  3  0  0  0  0  0  0  0  0  0  0
   -3.3804    2.9936    2.6088 H   0  0  0  0  0  0  0  0  0  0  0  0
  1  6  2  0  0  0  0
  1  2  1  0  0  0  0
  1 26  1  0  0  0  0
  2  3  2  0  0  0  0
  2 27  1  0  0  0  0
  3  4  1  0  0  0  0
  3  8  1  0  0  0  0
  4  5  2  0  0  0  0
  4 28  1  0  0  0  0
  5  6  1  0  0  0  0
  5  7  1  0  0  0  0
  6 29  1  0  0  0  0
  8  9  1  0  0  0  0
  8 30  1  0  0  0  0
  9 17  2  0  0  0  0
  9 10  1  0  0  0  0
 10 14  2  0  0  0  0
 10 11  1  0  0  0  0
 11 31  1  0  0  0  0
 11 41  2  0  0  0  0
 12 13  2  0  0  0  0
 12 18  1  0  0  0  0
 12 41  1  0  0  0  0
 13 14  1  0  0  0  0
 13 32  1  0  0  0  0
 14 15  1  0  0  0  0
 15 16  2  0  0  0  0
 16 17  1  0  0  0  0
 16 33  1  0  0  0  0
 18 19  1  0  0  0  0
 18 34  1  0  0  0  0
 19 20  1  0  0  0  0
 19 35  1  0  0  0  0
 19 36  1  0  0  0  0
 20 21  1  0  0  0  0
 20 37  1  0  0  0  0
 20 38  1  0  0  0  0
 21 22  2  0  0  0  0
 21 43  1  0  0  0  0
 22 23  1  0  0  0  0
 22 39  1  0  0  0  0
 23 24  1  0  0  0  0
 23 25  1  0  0  0  0
 25 40  1  0  0  0  0
 25 43  2  0  0  0  0
 41 42  1  0  0  0  0
 43 44  1  0  0  0  0
M  CHG  2  41   1  43   1
M  END
$$$$
ZINC03815077
  -OEChem-08230709403D

 41 43  0     1  0  0  0  0  0999 V2000
    2.1577    5.6966    0.3942 C   0  0  0  0  0  0  0  0  0  0  0  0
    2.2603    4.3225    0.4909 C   0  0  0  0  0  0  0  0  0  0  0  0
    3.3215    3.6622   -0.1150 C   0  0  0  0  0  0  0  0  0  0  0  0
    4.2797    4.3869   -0.8123 C   0  0  0  0  0  0  0  0  0  0  0  0
    4.1688    5.7608   -0.9094 C   0  0  0  0  0  0  0  0  0  0  0  0
    3.1100    6.4152   -0.3043 C   0  0  0  0  0  0  0  0  0  0  0  0
    5.4687    6.7483   -1.8638 Br  0  0  0  0  0  0  0  0  0  0  0  0
    3.4281    2.2717   -0.0184 N   0  0  0  0  0  0  0  0  0  0  0  0
    2.2914    1.4919   -0.0144 C   0  0  0  0  0  0  0  0  0  0  0  0
    2.3671    0.0967    0.2035 C   0  0  0  0  0  0  0  0  0  0  0  0
    3.5751   -0.5691    0.4250 C   0  0  0  0  0  0  0  0  0  0  0  0
    2.4717   -2.6006    0.6204 C   0  0  0  0  0  0  0  0  0  0  0  0
    1.2299   -2.0296    0.4098 C   0  0  0  0  0  0  0  0  0  0  0  0
    1.1580   -0.6486    0.1945 C   0  0  0  0  0  0  0  0  0  0  0  0
    0.0031   -0.0057   -0.0186 N   0  0  0  0  0  0  0  0  0  0  0  0
   -0.0056    1.2929   -0.2155 C   0  0  0  0  0  0  0  0  0  0  0  0
    1.0937    2.0290   -0.2163 N   0  0  0  0  0  0  0  0  0  0  0  0
    2.5608   -3.9699    0.8351 N   0  0  0  0  0  0  0  0  0  0  0  0
    1.3480   -4.7916    0.8367 C   0  0  0  0  0  0  0  0  0  0  0  0
    1.7221   -6.2527    1.0938 C   0  0  2  0  0  0  0  0  0  0  0  0
    2.4628   -6.5725    0.3608 H   0  0  0  0  0  0  0  0  0  0  0  0
    0.4732   -7.1280    0.9721 C   0  0  0  0  0  0  0  0  0  0  0  0
    0.8413   -8.5031    1.0967 O   0  0  0  0  0  0  0  0  0  0  0  0
    2.2671   -6.3805    2.4086 O   0  0  0  0  0  0  0  0  0  0  0  0
    1.3327    6.2103    0.8653 H   0  0  0  0  0  0  0  0  0  0  0  0
    1.5159    3.7620    1.0368 H   0  0  0  0  0  0  0  0  0  0  0  0
    5.1084    3.8769   -1.2807 H   0  0  0  0  0  0  0  0  0  0  0  0
    3.0277    7.4896   -0.3778 H   0  0  0  0  0  0  0  0  0  0  0  0
    4.3020    1.8556    0.0458 H   0  0  0  0  0  0  0  0  0  0  0  0
    4.5026   -0.0158    0.4344 H   0  0  0  0  0  0  0  0  0  0  0  0
    0.3360   -2.6356    0.4110 H   0  0  0  0  0  0  0  0  0  0  0  0
   -0.9530    1.7814   -0.3892 H   0  0  0  0  0  0  0  0  0  0  0  0
    3.4261   -4.3821    0.9840 H   0  0  0  0  0  0  0  0  0  0  0  0
    0.6755   -4.4452    1.6214 H   0  0  0  0  0  0  0  0  0  0  0  0
    0.8515   -4.7084   -0.1301 H   0  0  0  0  0  0  0  0  0  0  0  0
   -0.2315   -6.8675    1.7618 H   0  0  0  0  0  0  0  0  0  0  0  0
    0.0073   -6.9632    0.0005 H   0  0  0  0  0  0  0  0  0  0  0  0
    0.0973   -9.1171    1.0292 H   0  0  0  0  0  0  0  0  0  0  0  0
    1.6613   -6.1128    3.1132 H   0  0  0  0  0  0  0  0  0  0  0  0
    3.6583   -1.9077    0.6351 N   0  3  0  0  0  0  0  0  0  0  0  0
    4.5576   -2.3762    0.7959 H   0  0  0  0  0  0  0  0  0  0  0  0
  1  6  2  0  0  0  0
  1  2  1  0  0  0  0
  1 25  1  0  0  0  0
  2  3  2  0  0  0  0
  2 26  1  0  0  0  0
  3  4  1  0  0  0  0
  3  8  1  0  0  0  0
  4  5  2  0  0  0  0
  4 27  1  0  0  0  0
  5  6  1  0  0  0  0
  5  7  1  0  0  0  0
  6 28  1  0  0  0  0
  8  9  1  0  0  0  0
  8 29  1  0  0  0  0
  9 17  2  0  0  0  0
  9 10  1  0  0  0  0
 10 14  2  0  0  0  0
 10 11  1  0  0  0  0
 11 30  1  0  0  0  0
 11 40  2  0  0  0  0
 12 13  2  0  0  0  0
 12 18  1  0  0  0  0
 12 40  1  0  0  0  0
 13 14  1  0  0  0  0
 13 31  1  0  0  0  0
 14 15  1  0  0  0  0
 15 16  2  0  0  0  0
 16 17  1  0  0  0  0
 16 32  1  0  0  0  0
 18 19  1  0  0  0  0
 18 33  1  0  0  0  0
 19 20  1  0  0  0  0
 19 34  1  0  0  0  0
 19 35  1  0  0  0  0
 20 21  1  0  0  0  0
 20 22  1  0  0  0  0
 20 24  1  0  0  0  0
 22 23  1  0  0  0  0
 22 36  1  0  0  0  0
 22 37  1  0  0  0  0
 23 38  1  0  0  0  0
 24 39  1  0  0  0  0
 40 41  1  0  0  0  0
M  CHG  1  40   1
M  END
$$$$
ZINC03815078
  -OEChem-08230709403D

 53 55  0     0  0  0  0  0  0999 V2000
    3.6230   -4.3808   -3.1889 C   0  0  0  0  0  0  0  0  0  0  0  0
    2.4881   -3.7820   -2.6776 C   0  0  0  0  0  0  0  0  0  0  0  0
    2.0944   -2.5332   -3.1411 C   0  0  0  0  0  0  0  0  0  0  0  0
    2.8409   -1.8925   -4.1219 C   0  0  0  0  0  0  0  0  0  0  0  0
    3.9778   -2.4946   -4.6259 C   0  0  0  0  0  0  0  0  0  0  0  0
    4.3670   -3.7390   -4.1615 C   0  0  0  0  0  0  0  0  0  0  0  0
    4.9985   -1.6212   -5.9567 Br  0  0  0  0  0  0  0  0  0  0  0  0
    0.9462   -1.9251   -2.6259 N   0  0  0  0  0  0  0  0  0  0  0  0
    0.8892   -0.5521   -2.5017 C   0  0  0  0  0  0  0  0  0  0  0  0
   -0.3264    0.1194   -2.0523 C   0  0  0  0  0  0  0  0  0  0  0  0
   -1.4987   -0.5628   -1.7200 C   0  0  0  0  0  0  0  0  0  0  0  0
   -2.5932    0.1759   -1.3045 C   0  0  0  0  0  0  0  0  0  0  0  0
   -1.4643    2.1919   -1.5150 C   0  0  0  0  0  0  0  0  0  0  0  0
   -0.3067    1.5341   -1.9505 C   0  0  0  0  0  0  0  0  0  0  0  0
    0.8213    2.1824   -2.2704 N   0  0  0  0  0  0  0  0  0  0  0  0
    1.8841    1.5282   -2.6685 C   0  0  0  0  0  0  0  0  0  0  0  0
    1.9380    0.2109   -2.7869 N   0  0  0  0  0  0  0  0  0  0  0  0
   -3.7729   -0.4837   -0.9681 N   0  0  0  0  0  0  0  0  0  0  0  0
   -3.8461   -1.9442   -1.0558 C   0  0  0  0  0  0  0  0  0  0  0  0
   -5.2408   -2.4111   -0.6342 C   0  0  0  0  0  0  0  0  0  0  0  0
   -4.6049   -4.4681    0.4736 C   0  0  0  0  0  0  0  0  0  0  0  0
   -4.4697   -5.9783    0.2691 C   0  0  0  0  0  0  0  0  0  0  0  0
   -3.6236   -6.2331   -0.8540 O   0  0  0  0  0  0  0  0  0  0  0  0
   -6.6904   -4.3470   -0.7506 C   0  0  0  0  0  0  0  0  0  0  0  0
   -7.2269   -4.1354   -2.1677 C   0  0  0  0  0  0  0  0  0  0  0  0
   -6.4954   -4.9552   -3.0814 O   0  0  0  0  0  0  0  0  0  0  0  0
    3.9294   -5.3518   -2.8287 H   0  0  0  0  0  0  0  0  0  0  0  0
    1.9077   -4.2842   -1.9179 H   0  0  0  0  0  0  0  0  0  0  0  0
    2.5351   -0.9233   -4.4872 H   0  0  0  0  0  0  0  0  0  0  0  0
    5.2535   -4.2098   -4.5601 H   0  0  0  0  0  0  0  0  0  0  0  0
    0.1894   -2.4683   -2.3556 H   0  0  0  0  0  0  0  0  0  0  0  0
   -1.5500   -1.6396   -1.7851 H   0  0  0  0  0  0  0  0  0  0  0  0
   -1.4733    3.2685   -1.4296 H   0  0  0  0  0  0  0  0  0  0  0  0
    2.7685    2.0971   -2.9146 H   0  0  0  0  0  0  0  0  0  0  0  0
   -4.5460    0.0240   -0.6758 H   0  0  0  0  0  0  0  0  0  0  0  0
   -3.6532   -2.2567   -2.0821 H   0  0  0  0  0  0  0  0  0  0  0  0
   -3.1000   -2.3857   -0.3952 H   0  0  0  0  0  0  0  0  0  0  0  0
   -5.4471   -2.0695    0.3801 H   0  0  0  0  0  0  0  0  0  0  0  0
   -5.9840   -1.9969   -1.3154 H   0  0  0  0  0  0  0  0  0  0  0  0
   -3.6139   -4.0238    0.5664 H   0  0  0  0  0  0  0  0  0  0  0  0
   -5.1764   -4.2741    1.3813 H   0  0  0  0  0  0  0  0  0  0  0  0
   -4.0343   -6.4282    1.1614 H   0  0  0  0  0  0  0  0  0  0  0  0
   -5.4540   -6.4100    0.0879 H   0  0  0  0  0  0  0  0  0  0  0  0
   -3.4929   -7.1724   -1.0429 H   0  0  0  0  0  0  0  0  0  0  0  0
   -6.7297   -5.4076   -0.5018 H   0  0  0  0  0  0  0  0  0  0  0  0
   -7.3005   -3.7851   -0.0434 H   0  0  0  0  0  0  0  0  0  0  0  0
   -8.2821   -4.4065   -2.2009 H   0  0  0  0  0  0  0  0  0  0  0  0
   -7.1119   -3.0881   -2.4471 H   0  0  0  0  0  0  0  0  0  0  0  0
   -6.7825   -4.8721   -4.0010 H   0  0  0  0  0  0  0  0  0  0  0  0
   -2.6128    1.5441   -1.1933 N   0  3  0  0  0  0  0  0  0  0  0  0
   -3.4509    2.0499   -0.8836 H   0  0  0  0  0  0  0  0  0  0  0  0
   -5.2866   -3.8869   -0.7021 N   0  3  0  0  0  0  0  0  0  0  0  0
   -4.8045   -4.1967   -1.5541 H   0  0  0  0  0  0  0  0  0  0  0  0
  1  6  2  0  0  0  0
  1  2  1  0  0  0  0
  1 27  1  0  0  0  0
  2  3  2  0  0  0  0
  2 28  1  0  0  0  0
  3  4  1  0  0  0  0
  3  8  1  0  0  0  0
  4  5  2  0  0  0  0
  4 29  1  0  0  0  0
  5  6  1  0  0  0  0
  5  7  1  0  0  0  0
  6 30  1  0  0  0  0
  8  9  1  0  0  0  0
  8 31  1  0  0  0  0
  9 17  2  0  0  0  0
  9 10  1  0  0  0  0
 10 14  2  0  0  0  0
 10 11  1  0  0  0  0
 11 12  2  0  0  0  0
 11 32  1  0  0  0  0
 12 18  1  0  0  0  0
 12 50  1  0  0  0  0
 13 14  1  0  0  0  0
 13 33  1  0  0  0  0
 13 50  2  0  0  0  0
 14 15  1  0  0  0  0
 15 16  2  0  0  0  0
 16 17  1  0  0  0  0
 16 34  1  0  0  0  0
 18 19  1  0  0  0  0
 18 35  1  0  0  0  0
 19 20  1  0  0  0  0
 19 36  1  0  0  0  0
 19 37  1  0  0  0  0
 20 38  1  0  0  0  0
 20 39  1  0  0  0  0
 20 52  1  0  0  0  0
 21 22  1  0  0  0  0
 21 40  1  0  0  0  0
 21 41  1  0  0  0  0
 21 52  1  0  0  0  0
 22 23  1  0  0  0  0
 22 42  1  0  0  0  0
 22 43  1  0  0  0  0
 23 44  1  0  0  0  0
 24 25  1  0  0  0  0
 24 45  1  0  0  0  0
 24 46  1  0  0  0  0
 24 52  1  0  0  0  0
 25 26  1  0  0  0  0
 25 47  1  0  0  0  0
 25 48  1  0  0  0  0
 26 49  1  0  0  0  0
 50 51  1  0  0  0  0
 52 53  1  0  0  0  0
M  CHG  2  50   1  52   1
M  END
$$$$
ZINC03815079
  -OEChem-08230709403D

 34 36  0     0  0  0  0  0  0999 V2000
    0.0360    0.9175    0.0872 C   0  0  0  0  0  0  0  0  0  0  0  0
   -0.6631    1.3924    1.2839 N   0  0  0  0  0  0  0  0  0  0  0  0
   -2.1269    1.4482    1.3034 C   0  0  0  0  0  0  0  0  0  0  0  0
    0.0597    1.7884    2.3964 C   0  0  0  0  0  0  0  0  0  0  0  0
    1.3885    1.7272    2.3509 N   0  0  0  0  0  0  0  0  0  0  0  0
    2.1311    2.0895    3.3760 C   0  0  0  0  0  0  0  0  0  0  0  0
    1.4869    2.5500    4.5392 C   0  0  0  0  0  0  0  0  0  0  0  0
    0.0724    2.5997    4.5469 C   0  0  0  0  0  0  0  0  0  0  0  0
   -0.5958    2.2170    3.4591 N   0  0  0  0  0  0  0  0  0  0  0  0
   -0.5724    3.0642    5.7208 C   0  0  0  0  0  0  0  0  0  0  0  0
    0.1845    3.4265    6.7469 N   0  0  0  0  0  0  0  0  0  0  0  0
    1.5054    3.3614    6.6905 C   0  0  0  0  0  0  0  0  0  0  0  0
    2.1548    2.9402    5.6305 N   0  0  0  0  0  0  0  0  0  0  0  0
   -1.9491    3.1376    5.7930 N   0  0  0  0  0  0  0  0  0  0  0  0
   -2.5680    3.4873    6.9963 C   0  0  0  0  0  0  0  0  0  0  0  0
   -3.7585    4.2037    6.9843 C   0  0  0  0  0  0  0  0  0  0  0  0
   -4.3678    4.5479    8.1747 C   0  0  0  0  0  0  0  0  0  0  0  0
   -3.7948    4.1802    9.3785 C   0  0  0  0  0  0  0  0  0  0  0  0
   -2.6094    3.4668    9.3945 C   0  0  0  0  0  0  0  0  0  0  0  0
   -1.9974    3.1147    8.2063 C   0  0  0  0  0  0  0  0  0  0  0  0
   -1.8305    2.9658   11.0432 Br  0  0  0  0  0  0  0  0  0  0  0  0
    0.1775   -0.1613    0.1532 H   0  0  0  0  0  0  0  0  0  0  0  0
    1.0069    1.4076    0.0151 H   0  0  0  0  0  0  0  0  0  0  0  0
   -0.5564    1.1528   -0.7970 H   0  0  0  0  0  0  0  0  0  0  0  0
   -2.5218    0.5011    1.6710 H   0  0  0  0  0  0  0  0  0  0  0  0
   -2.4509    2.2561    1.9594 H   0  0  0  0  0  0  0  0  0  0  0  0
   -2.4970    1.6291    0.2942 H   0  0  0  0  0  0  0  0  0  0  0  0
    3.2085    2.0344    3.3255 H   0  0  0  0  0  0  0  0  0  0  0  0
    2.0743    3.6691    7.5554 H   0  0  0  0  0  0  0  0  0  0  0  0
   -2.4868    2.9465    5.0087 H   0  0  0  0  0  0  0  0  0  0  0  0
   -4.2067    4.4914    6.0448 H   0  0  0  0  0  0  0  0  0  0  0  0
   -5.2931    5.1048    8.1657 H   0  0  0  0  0  0  0  0  0  0  0  0
   -4.2739    4.4501   10.3080 H   0  0  0  0  0  0  0  0  0  0  0  0
   -1.0744    2.5539    8.2190 H   0  0  0  0  0  0  0  0  0  0  0  0
  1  2  1  0  0  0  0
  1 22  1  0  0  0  0
  1 23  1  0  0  0  0
  1 24  1  0  0  0  0
  2  3  1  0  0  0  0
  2  4  1  0  0  0  0
  3 25  1  0  0  0  0
  3 26  1  0  0  0  0
  3 27  1  0  0  0  0
  4  9  2  0  0  0  0
  4  5  1  0  0  0  0
  5  6  2  0  0  0  0
  6  7  1  0  0  0  0
  6 28  1  0  0  0  0
  7 13  2  0  0  0  0
  7  8  1  0  0  0  0
  8  9  1  0  0  0  0
  8 10  2  0  0  0  0
 10 11  1  0  0  0  0
 10 14  1  0  0  0  0
 11 12  2  0  0  0  0
 12 13  1  0  0  0  0
 12 29  1  0  0  0  0
 14 15  1  0  0  0  0
 14 30  1  0  0  0  0
 15 20  2  0  0  0  0
 15 16  1  0  0  0  0
 16 17  2  0  0  0  0
 16 31  1  0  0  0  0
 17 18  1  0  0  0  0
 17 32  1  0  0  0  0
 18 19  2  0  0  0  0
 18 33  1  0  0  0  0
 19 20  1  0  0  0  0
 19 21  1  0  0  0  0
 20 34  1  0  0  0  0
M  END
$$$$
ZINC03815080
  -OEChem-08230709403D

 34 36  0     0  0  0  0  0  0999 V2000
   -2.4452    1.2355    0.3067 C   0  0  0  0  0  0  0  0  0  0  0  0
   -1.2080    2.0120    0.1946 N   0  0  0  0  0  0  0  0  0  0  0  0
   -1.2518    3.4745    0.2691 C   0  0  0  0  0  0  0  0  0  0  0  0
    0.0061    1.3620    0.0177 C   0  0  0  0  0  0  0  0  0  0  0  0
    0.0323   -0.0316   -0.1586 C   0  0  0  0  0  0  0  0  0  0  0  0
    1.1705   -0.6630   -0.3327 N   0  0  0  0  0  0  0  0  0  0  0  0
    2.3160    0.0258   -0.3424 C   0  0  0  0  0  0  0  0  0  0  0  0
    2.2904    1.4294   -0.1649 C   0  0  0  0  0  0  0  0  0  0  0  0
    1.1282    2.0584    0.0109 N   0  0  0  0  0  0  0  0  0  0  0  0
    3.5242    2.1280   -0.1819 C   0  0  0  0  0  0  0  0  0  0  0  0
    4.6376    1.4311   -0.3630 N   0  0  0  0  0  0  0  0  0  0  0  0
    4.6110    0.1185   -0.5247 C   0  0  0  0  0  0  0  0  0  0  0  0
    3.4993   -0.5787   -0.5179 N   0  0  0  0  0  0  0  0  0  0  0  0
    3.5651    3.4973   -0.0147 N   0  0  0  0  0  0  0  0  0  0  0  0
    4.7955    4.1530    0.0816 C   0  0  0  0  0  0  0  0  0  0  0  0
    4.9376    5.4431   -0.4146 C   0  0  0  0  0  0  0  0  0  0  0  0
    6.1543    6.0888   -0.3177 C   0  0  0  0  0  0  0  0  0  0  0  0
    7.2313    5.4533    0.2729 C   0  0  0  0  0  0  0  0  0  0  0  0
    7.0938    4.1687    0.7681 C   0  0  0  0  0  0  0  0  0  0  0  0
    5.8772    3.5188    0.6785 C   0  0  0  0  0  0  0  0  0  0  0  0
    8.5695    3.3042    1.5747 Br  0  0  0  0  0  0  0  0  0  0  0  0
   -2.6294    0.9946    1.3536 H   0  0  0  0  0  0  0  0  0  0  0  0
   -3.2780    1.8205   -0.0835 H   0  0  0  0  0  0  0  0  0  0  0  0
   -2.3487    0.3135   -0.2667 H   0  0  0  0  0  0  0  0  0  0  0  0
   -0.2428    3.8739    0.1666 H   0  0  0  0  0  0  0  0  0  0  0  0
   -1.8788    3.8606   -0.5346 H   0  0  0  0  0  0  0  0  0  0  0  0
   -1.6664    3.7770    1.2307 H   0  0  0  0  0  0  0  0  0  0  0  0
   -0.8927   -0.5892   -0.1506 H   0  0  0  0  0  0  0  0  0  0  0  0
    5.5459   -0.4027   -0.6684 H   0  0  0  0  0  0  0  0  0  0  0  0
    2.7399    4.0045    0.0360 H   0  0  0  0  0  0  0  0  0  0  0  0
    4.0971    5.9402   -0.8760 H   0  0  0  0  0  0  0  0  0  0  0  0
    6.2649    7.0915   -0.7033 H   0  0  0  0  0  0  0  0  0  0  0  0
    8.1816    5.9609    0.3480 H   0  0  0  0  0  0  0  0  0  0  0  0
    5.7690    2.5176    1.0688 H   0  0  0  0  0  0  0  0  0  0  0  0
  1  2  1  0  0  0  0
  1 22  1  0  0  0  0
  1 23  1  0  0  0  0
  1 24  1  0  0  0  0
  2  3  1  0  0  0  0
  2  4  1  0  0  0  0
  3 25  1  0  0  0  0
  3 26  1  0  0  0  0
  3 27  1  0  0  0  0
  4  9  2  0  0  0  0
  4  5  1  0  0  0  0
  5  6  2  0  0  0  0
  5 28  1  0  0  0  0
  6  7  1  0  0  0  0
  7 13  2  0  0  0  0
  7  8  1  0  0  0  0
  8  9  1  0  0  0  0
  8 10  2  0  0  0  0
 10 11  1  0  0  0  0
 10 14  1  0  0  0  0
 11 12  2  0  0  0  0
 12 13  1  0  0  0  0
 12 29  1  0  0  0  0
 14 15  1  0  0  0  0
 14 30  1  0  0  0  0
 15 20  2  0  0  0  0
 15 16  1  0  0  0  0
 16 17  2  0  0  0  0
 16 31  1  0  0  0  0
 17 18  1  0  0  0  0
 17 32  1  0  0  0  0
 18 19  2  0  0  0  0
 18 33  1  0  0  0  0
 19 20  1  0  0  0  0
 19 21  1  0  0  0  0
 20 34  1  0  0  0  0
M  END
$$$$
ZINC03815082
  -OEChem-08230709403D

 38 41  0     0  0  0  0  0  0999 V2000
    1.2158    2.0869   -1.4921 C   0  0  0  0  0  0  0  0  0  0  0  0
    1.1575    3.4234   -1.1473 C   0  0  0  0  0  0  0  0  0  0  0  0
    0.0416    3.9234   -0.4873 C   0  0  0  0  0  0  0  0  0  0  0  0
   -1.0146    3.0777   -0.1750 C   0  0  0  0  0  0  0  0  0  0  0  0
   -0.9541    1.7390   -0.5274 C   0  0  0  0  0  0  0  0  0  0  0  0
    0.1658    1.2440   -1.1815 C   0  0  0  0  0  0  0  0  0  0  0  0
   -1.9885    0.9098   -0.2281 O   0  0  0  0  0  0  0  0  0  0  0  0
   -0.0175    5.2747   -0.1382 N   0  0  0  0  0  0  0  0  0  0  0  0
    1.1572    5.9740    0.1482 C   0  0  0  0  0  0  0  0  0  0  0  0
    1.2675    7.4051    0.4136 C   0  0  0  0  0  0  0  0  0  0  0  0
    2.6325    7.6626    0.6499 C   0  0  0  0  0  0  0  0  0  0  0  0
    3.2836    6.4722    0.5333 N   0  0  0  0  0  0  0  0  0  0  0  0
    4.2684    6.3386    0.6447 H   0  0  0  0  0  0  0  0  0  0  0  0
    2.3597    5.4654    0.2334 N   0  0  0  0  0  0  0  0  0  0  0  0
    3.0092    8.9118    0.9215 N   0  0  0  0  0  0  0  0  0  0  0  0
    2.1249    9.8842    0.9680 C   0  0  0  0  0  0  0  0  0  0  0  0
    0.8362    9.6882    0.7536 N   0  0  0  0  0  0  0  0  0  0  0  0
    0.3624    8.4776    0.4739 C   0  0  0  0  0  0  0  0  0  0  0  0
   -0.9871    8.2793    0.2498 N   0  0  0  0  0  0  0  0  0  0  0  0
   -1.8562    9.3732    0.2043 C   0  0  0  0  0  0  0  0  0  0  0  0
   -1.4131   10.5943   -0.2886 C   0  0  0  0  0  0  0  0  0  0  0  0
   -2.2738   11.6732   -0.3329 C   0  0  0  0  0  0  0  0  0  0  0  0
   -3.5761   11.5399    0.1127 C   0  0  0  0  0  0  0  0  0  0  0  0
   -4.0214   10.3252    0.6038 C   0  0  0  0  0  0  0  0  0  0  0  0
   -3.1659    9.2401    0.6462 C   0  0  0  0  0  0  0  0  0  0  0  0
   -5.6573   10.1622    1.1615 Cl  0  0  0  0  0  0  0  0  0  0  0  0
    2.0839    1.7000   -2.0050 H   0  0  0  0  0  0  0  0  0  0  0  0
    1.9795    4.0801   -1.3912 H   0  0  0  0  0  0  0  0  0  0  0  0
   -1.8832    3.4635    0.3379 H   0  0  0  0  0  0  0  0  0  0  0  0
    0.2145    0.1996   -1.4521 H   0  0  0  0  0  0  0  0  0  0  0  0
   -1.9144    0.4852    0.6375 H   0  0  0  0  0  0  0  0  0  0  0  0
   -0.8743    5.7273   -0.0946 H   0  0  0  0  0  0  0  0  0  0  0  0
    2.4664   10.8842    1.1911 H   0  0  0  0  0  0  0  0  0  0  0  0
   -1.3310    7.3811    0.1240 H   0  0  0  0  0  0  0  0  0  0  0  0
   -0.3961   10.6997   -0.6365 H   0  0  0  0  0  0  0  0  0  0  0  0
   -1.9295   12.6224   -0.7163 H   0  0  0  0  0  0  0  0  0  0  0  0
   -4.2471   12.3854    0.0769 H   0  0  0  0  0  0  0  0  0  0  0  0
   -3.5146    8.2911    1.0258 H   0  0  0  0  0  0  0  0  0  0  0  0
  1  6  2  0  0  0  0
  1  2  1  0  0  0  0
  1 27  1  0  0  0  0
  2  3  2  0  0  0  0
  2 28  1  0  0  0  0
  3  4  1  0  0  0  0
  3  8  1  0  0  0  0
  4  5  2  0  0  0  0
  4 29  1  0  0  0  0
  5  6  1  0  0  0  0
  5  7  1  0  0  0  0
  6 30  1  0  0  0  0
  7 31  1  0  0  0  0
  8  9  1  0  0  0  0
  8 32  1  0  0  0  0
  9 14  2  0  0  0  0
  9 10  1  0  0  0  0
 10 18  2  0  0  0  0
 10 11  1  0  0  0  0
 11 12  1  0  0  0  0
 11 15  2  0  0  0  0
 12 13  1  0  0  0  0
 12 14  1  0  0  0  0
 15 16  1  0  0  0  0
 16 17  2  0  0  0  0
 16 33  1  0  0  0  0
 17 18  1  0  0  0  0
 18 19  1  0  0  0  0
 19 20  1  0  0  0  0
 19 34  1  0  0  0  0
 20 25  2  0  0  0  0
 20 21  1  0  0  0  0
 21 22  2  0  0  0  0
 21 35  1  0  0  0  0
 22 23  1  0  0  0  0
 22 36  1  0  0  0  0
 23 24  2  0  0  0  0
 23 37  1  0  0  0  0
 24 25  1  0  0  0  0
 24 26  1  0  0  0  0
 25 38  1  0  0  0  0
M  END
$$$$
ZINC03815083
  -OEChem-08230709403D

 34 35  0     0  0  0  0  0  0999 V2000
    3.1777   -3.3300    1.7386 C   0  0  0  0  0  0  0  0  0  0  0  0
    2.7812   -2.3037    0.7088 C   0  0  0  0  0  0  0  0  0  0  0  0
    3.6195   -2.0364   -0.3583 C   0  0  0  0  0  0  0  0  0  0  0  0
    3.2592   -1.0961   -1.3059 C   0  0  0  0  0  0  0  0  0  0  0  0
    2.0581   -0.4237   -1.1919 C   0  0  0  0  0  0  0  0  0  0  0  0
    1.2164   -0.6859   -0.1188 C   0  0  0  0  0  0  0  0  0  0  0  0
    1.5813   -1.6316    0.8313 C   0  0  0  0  0  0  0  0  0  0  0  0
    0.0021   -0.0041    0.0020 N   0  0  0  0  0  0  0  0  0  0  0  0
   -0.0598    1.3555   -0.2671 C   0  0  0  0  0  0  0  0  0  0  0  0
    1.1037    2.0827   -0.5002 C   0  0  0  0  0  0  0  0  0  0  0  0
    0.9880    3.4436   -0.7661 C   0  0  0  0  0  0  0  0  0  0  0  0
   -0.2233    3.9972   -0.7879 N   0  0  0  0  0  0  0  0  0  0  0  0
   -1.3012    3.2744   -0.5620 C   0  0  0  0  0  0  0  0  0  0  0  0
   -1.2338    1.9827   -0.3117 N   0  0  0  0  0  0  0  0  0  0  0  0
    2.1169    4.2121   -1.0045 N   0  0  0  0  0  0  0  0  0  0  0  0
    3.4440    3.5922   -0.9775 C   0  0  0  0  0  0  0  0  0  0  0  0
    4.5080    4.6522   -1.2699 C   0  0  0  0  0  0  0  0  0  0  0  0
    4.5203    5.6179   -0.2167 O   0  0  0  0  0  0  0  0  0  0  0  0
    2.8070   -4.3096    1.4367 H   0  0  0  0  0  0  0  0  0  0  0  0
    4.2641   -3.3620    1.8202 H   0  0  0  0  0  0  0  0  0  0  0  0
    2.7486   -3.0608    2.7038 H   0  0  0  0  0  0  0  0  0  0  0  0
    4.5575   -2.5635   -0.4518 H   0  0  0  0  0  0  0  0  0  0  0  0
    3.9159   -0.8900   -2.1381 H   0  0  0  0  0  0  0  0  0  0  0  0
    1.7753    0.3076   -1.9346 H   0  0  0  0  0  0  0  0  0  0  0  0
    0.9270   -1.8411    1.6646 H   0  0  0  0  0  0  0  0  0  0  0  0
   -0.7973   -0.4815    0.2740 H   0  0  0  0  0  0  0  0  0  0  0  0
    2.0711    1.6032   -0.4757 H   0  0  0  0  0  0  0  0  0  0  0  0
   -2.2687    3.7538   -0.5873 H   0  0  0  0  0  0  0  0  0  0  0  0
    2.0281    5.1602   -1.1892 H   0  0  0  0  0  0  0  0  0  0  0  0
    3.6230    3.1596    0.0068 H   0  0  0  0  0  0  0  0  0  0  0  0
    3.4945    2.8086   -1.7335 H   0  0  0  0  0  0  0  0  0  0  0  0
    5.4861    4.1760   -1.3377 H   0  0  0  0  0  0  0  0  0  0  0  0
    4.2784    5.1468   -2.2137 H   0  0  0  0  0  0  0  0  0  0  0  0
    5.1726    6.3217   -0.3360 H   0  0  0  0  0  0  0  0  0  0  0  0
  1  2  1  0  0  0  0
  1 19  1  0  0  0  0
  1 20  1  0  0  0  0
  1 21  1  0  0  0  0
  2  7  2  0  0  0  0
  2  3  1  0  0  0  0
  3  4  2  0  0  0  0
  3 22  1  0  0  0  0
  4  5  1  0  0  0  0
  4 23  1  0  0  0  0
  5  6  2  0  0  0  0
  5 24  1  0  0  0  0
  6  7  1  0  0  0  0
  6  8  1  0  0  0  0
  7 25  1  0  0  0  0
  8  9  1  0  0  0  0
  8 26  1  0  0  0  0
  9 14  2  0  0  0  0
  9 10  1  0  0  0  0
 10 11  2  0  0  0  0
 10 27  1  0  0  0  0
 11 12  1  0  0  0  0
 11 15  1  0  0  0  0
 12 13  2  0  0  0  0
 13 14  1  0  0  0  0
 13 28  1  0  0  0  0
 15 16  1  0  0  0  0
 15 29  1  0  0  0  0
 16 17  1  0  0  0  0
 16 30  1  0  0  0  0
 16 31  1  0  0  0  0
 17 18  1  0  0  0  0
 17 32  1  0  0  0  0
 17 33  1  0  0  0  0
 18 34  1  0  0  0  0
M  END
$$$$
ZINC03815084
  -OEChem-08230709403D

 33 36  0     0  0  0  0  0  0999 V2000
   -5.1219   10.9594    0.3985 C   0  0  0  0  0  0  0  0  0  0  0  0
   -4.0547   10.0872    0.4897 C   0  0  0  0  0  0  0  0  0  0  0  0
   -4.1670    8.7987   -0.0168 C   0  0  0  0  0  0  0  0  0  0  0  0
   -5.3515    8.3930   -0.6186 C   0  0  0  0  0  0  0  0  0  0  0  0
   -6.4172    9.2685   -0.7021 C   0  0  0  0  0  0  0  0  0  0  0  0
   -6.3014   10.5515   -0.1962 C   0  0  0  0  0  0  0  0  0  0  0  0
   -8.0327    8.7155   -1.5145 Br  0  0  0  0  0  0  0  0  0  0  0  0
   -3.0887    7.9143    0.0736 N   0  0  0  0  0  0  0  0  0  0  0  0
   -3.3178    6.5547    0.2283 C   0  0  0  0  0  0  0  0  0  0  0  0
   -2.2667    5.6486    0.2057 C   0  0  0  0  0  0  0  0  0  0  0  0
   -2.4964    4.2759    0.3612 C   0  0  0  0  0  0  0  0  0  0  0  0
   -1.3014    3.4113    0.3196 C   0  0  0  0  0  0  0  0  0  0  0  0
   -1.2577    2.0030    0.4443 C   0  0  0  0  0  0  0  0  0  0  0  0
   -0.0645    1.3317    0.3901 C   0  0  0  0  0  0  0  0  0  0  0  0
    1.1389    2.0133    0.1994 C   0  0  0  0  0  0  0  0  0  0  0  0
    1.1236    3.3941    0.0686 C   0  0  0  0  0  0  0  0  0  0  0  0
   -0.0764    4.0721    0.1286 C   0  0  0  0  0  0  0  0  0  0  0  0
   -0.5116    5.7890    0.0093 S   0  0  0  0  0  0  0  0  0  0  0  0
    2.3456    1.3122    0.1414 N   0  0  0  0  0  0  0  0  0  0  0  0
   -0.0529   -0.0132    0.5179 F   0  0  0  0  0  0  0  0  0  0  0  0
   -3.7857    3.9049    0.5315 N   0  0  0  0  0  0  0  0  0  0  0  0
   -4.7525    4.7877    0.5472 C   0  0  0  0  0  0  0  0  0  0  0  0
   -4.5529    6.0849    0.4020 N   0  0  0  0  0  0  0  0  0  0  0  0
   -5.0346   11.9614    0.7919 H   0  0  0  0  0  0  0  0  0  0  0  0
   -3.1338   10.4067    0.9547 H   0  0  0  0  0  0  0  0  0  0  0  0
   -5.4407    7.3931   -1.0171 H   0  0  0  0  0  0  0  0  0  0  0  0
   -7.1341   11.2356   -0.2665 H   0  0  0  0  0  0  0  0  0  0  0  0
   -2.1801    8.2509    0.0282 H   0  0  0  0  0  0  0  0  0  0  0  0
   -2.1747    1.4511    0.5884 H   0  0  0  0  0  0  0  0  0  0  0  0
    2.0463    3.9357   -0.0791 H   0  0  0  0  0  0  0  0  0  0  0  0
    2.3504    0.3466    0.2338 H   0  0  0  0  0  0  0  0  0  0  0  0
    3.1787    1.7909    0.0087 H   0  0  0  0  0  0  0  0  0  0  0  0
   -5.7645    4.4372    0.6862 H   0  0  0  0  0  0  0  0  0  0  0  0
  1  6  2  0  0  0  0
  1  2  1  0  0  0  0
  1 24  1  0  0  0  0
  2  3  2  0  0  0  0
  2 25  1  0  0  0  0
  3  4  1  0  0  0  0
  3  8  1  0  0  0  0
  4  5  2  0  0  0  0
  4 26  1  0  0  0  0
  5  6  1  0  0  0  0
  5  7  1  0  0  0  0
  6 27  1  0  0  0  0
  8  9  1  0  0  0  0
  8 28  1  0  0  0  0
  9 23  2  0  0  0  0
  9 10  1  0  0  0  0
 10 18  1  0  0  0  0
 10 11  2  0  0  0  0
 11 12  1  0  0  0  0
 11 21  1  0  0  0  0
 12 17  2  0  0  0  0
 12 13  1  0  0  0  0
 13 14  2  0  0  0  0
 13 29  1  0  0  0  0
 14 15  1  0  0  0  0
 14 20  1  0  0  0  0
 15 16  2  0  0  0  0
 15 19  1  0  0  0  0
 16 17  1  0  0  0  0
 16 30  1  0  0  0  0
 17 18  1  0  0  0  0
 19 31  1  0  0  0  0
 19 32  1  0  0  0  0
 21 22  2  0  0  0  0
 22 23  1  0  0  0  0
 22 33  1  0  0  0  0
M  END
$$$$
ZINC03815085
  -OEChem-08230709403D

 53 56  0     0  0  0  0  0  0999 V2000
    4.0877   -4.5419    0.2273 C   0  0  0  0  0  0  0  0  0  0  0  0
    2.8497   -3.9414    0.3484 C   0  0  0  0  0  0  0  0  0  0  0  0
    2.6507   -2.6577   -0.1435 C   0  0  0  0  0  0  0  0  0  0  0  0
    3.6968   -1.9837   -0.7607 C   0  0  0  0  0  0  0  0  0  0  0  0
    4.9342   -2.5880   -0.8745 C   0  0  0  0  0  0  0  0  0  0  0  0
    5.1286   -3.8672   -0.3832 C   0  0  0  0  0  0  0  0  0  0  0  0
    6.3610   -1.6696   -1.7092 Br  0  0  0  0  0  0  0  0  0  0  0  0
    1.3990   -2.0477   -0.0227 N   0  0  0  0  0  0  0  0  0  0  0  0
    1.3107   -0.6807    0.1420 C   0  0  0  0  0  0  0  0  0  0  0  0
    0.0199    0.0007    0.1513 C   0  0  0  0  0  0  0  0  0  0  0  0
   -1.1978   -0.6656   -0.0016 C   0  0  0  0  0  0  0  0  0  0  0  0
   -2.3630    0.0813    0.0236 C   0  0  0  0  0  0  0  0  0  0  0  0
   -1.2204    2.0754    0.3421 C   0  0  0  0  0  0  0  0  0  0  0  0
    0.0114    1.4085    0.3253 C   0  0  0  0  0  0  0  0  0  0  0  0
    1.1830    2.0416    0.4719 N   0  0  0  0  0  0  0  0  0  0  0  0
    2.3130    1.3790    0.4556 C   0  0  0  0  0  0  0  0  0  0  0  0
    2.3967    0.0674    0.2979 N   0  0  0  0  0  0  0  0  0  0  0  0
   -3.5889   -0.5624   -0.1270 N   0  0  0  0  0  0  0  0  0  0  0  0
   -3.6357   -2.0152   -0.3097 C   0  0  0  0  0  0  0  0  0  0  0  0
   -5.0914   -2.4649   -0.4496 C   0  0  0  0  0  0  0  0  0  0  0  0
   -5.1404   -3.9822   -0.6405 C   0  0  0  0  0  0  0  0  0  0  0  0
   -7.2777   -4.2017    0.4779 C   0  0  0  0  0  0  0  0  0  0  0  0
   -8.7399   -4.6081    0.2760 C   0  0  0  0  0  0  0  0  0  0  0  0
   -8.7952   -5.9686   -0.1615 O   0  0  0  0  0  0  0  0  0  0  0  0
   -8.0856   -6.2110   -1.3793 C   0  0  0  0  0  0  0  0  0  0  0  0
   -6.6168   -5.8208   -1.1942 C   0  0  0  0  0  0  0  0  0  0  0  0
    4.2427   -5.5400    0.6097 H   0  0  0  0  0  0  0  0  0  0  0  0
    2.0373   -4.4693    0.8254 H   0  0  0  0  0  0  0  0  0  0  0  0
    3.5442   -0.9870   -1.1479 H   0  0  0  0  0  0  0  0  0  0  0  0
    6.0953   -4.3394   -0.4772 H   0  0  0  0  0  0  0  0  0  0  0  0
    0.5923   -2.5855   -0.0548 H   0  0  0  0  0  0  0  0  0  0  0  0
   -1.2297   -1.7368   -0.1359 H   0  0  0  0  0  0  0  0  0  0  0  0
   -1.2521    3.1469    0.4732 H   0  0  0  0  0  0  0  0  0  0  0  0
    3.2303    1.9357    0.5779 H   0  0  0  0  0  0  0  0  0  0  0  0
   -4.4116   -0.0488   -0.1109 H   0  0  0  0  0  0  0  0  0  0  0  0
   -3.0837   -2.2862   -1.2097 H   0  0  0  0  0  0  0  0  0  0  0  0
   -3.1856   -2.5047    0.5539 H   0  0  0  0  0  0  0  0  0  0  0  0
   -5.6435   -2.1939    0.4503 H   0  0  0  0  0  0  0  0  0  0  0  0
   -5.5416   -1.9754   -1.3132 H   0  0  0  0  0  0  0  0  0  0  0  0
   -4.5883   -4.2532   -1.5404 H   0  0  0  0  0  0  0  0  0  0  0  0
   -4.6902   -4.4717    0.2231 H   0  0  0  0  0  0  0  0  0  0  0  0
   -6.8369   -4.8091    1.2683 H   0  0  0  0  0  0  0  0  0  0  0  0
   -7.2277   -3.1490    0.7562 H   0  0  0  0  0  0  0  0  0  0  0  0
   -9.1958   -3.9649   -0.4767 H   0  0  0  0  0  0  0  0  0  0  0  0
   -9.2793   -4.5064    1.2177 H   0  0  0  0  0  0  0  0  0  0  0  0
   -8.5226   -5.6144   -2.1801 H   0  0  0  0  0  0  0  0  0  0  0  0
   -8.1519   -7.2686   -1.6348 H   0  0  0  0  0  0  0  0  0  0  0  0
   -6.0844   -5.9501   -2.1365 H   0  0  0  0  0  0  0  0  0  0  0  0
   -6.1655   -6.4542   -0.4305 H   0  0  0  0  0  0  0  0  0  0  0  0
   -2.4118    1.4432    0.1898 N   0  3  0  0  0  0  0  0  0  0  0  0
   -3.3014    1.9559    0.1983 H   0  0  0  0  0  0  0  0  0  0  0  0
   -6.5510   -4.3994   -0.7936 N   0  3  0  0  0  0  0  0  0  0  0  0
   -6.9913   -3.8260   -1.5227 H   0  0  0  0  0  0  0  0  0  0  0  0
  1  6  2  0  0  0  0
  1  2  1  0  0  0  0
  1 27  1  0  0  0  0
  2  3  2  0  0  0  0
  2 28  1  0  0  0  0
  3  4  1  0  0  0  0
  3  8  1  0  0  0  0
  4  5  2  0  0  0  0
  4 29  1  0  0  0  0
  5  6  1  0  0  0  0
  5  7  1  0  0  0  0
  6 30  1  0  0  0  0
  8  9  1  0  0  0  0
  8 31  1  0  0  0  0
  9 17  2  0  0  0  0
  9 10  1  0  0  0  0
 10 14  2  0  0  0  0
 10 11  1  0  0  0  0
 11 12  2  0  0  0  0
 11 32  1  0  0  0  0
 12 18  1  0  0  0  0
 12 50  1  0  0  0  0
 13 14  1  0  0  0  0
 13 33  1  0  0  0  0
 13 50  2  0  0  0  0
 14 15  1  0  0  0  0
 15 16  2  0  0  0  0
 16 17  1  0  0  0  0
 16 34  1  0  0  0  0
 18 19  1  0  0  0  0
 18 35  1  0  0  0  0
 19 20  1  0  0  0  0
 19 36  1  0  0  0  0
 19 37  1  0  0  0  0
 20 21  1  0  0  0  0
 20 38  1  0  0  0  0
 20 39  1  0  0  0  0
 21 40  1  0  0  0  0
 21 41  1  0  0  0  0
 21 52  1  0  0  0  0
 22 23  1  0  0  0  0
 22 42  1  0  0  0  0
 22 43  1  0  0  0  0
 22 52  1  0  0  0  0
 23 24  1  0  0  0  0
 23 44  1  0  0  0  0
 23 45  1  0  0  0  0
 24 25  1  0  0  0  0
 25 26  1  0  0  0  0
 25 46  1  0  0  0  0
 25 47  1  0  0  0  0
 26 48  1  0  0  0  0
 26 49  1  0  0  0  0
 26 52  1  0  0  0  0
 50 51  1  0  0  0  0
 52 53  1  0  0  0  0
M  CHG  2  50   1  52   1
M  END
$$$$
ZINC03815086
  -OEChem-08230709403D

 36 39  0     0  0  0  0  0  0999 V2000
    0.0414    0.7893    0.1043 C   0  0  0  0  0  0  0  0  0  0  0  0
   -0.6788    1.3837    1.2331 N   0  0  0  0  0  0  0  0  0  0  0  0
   -1.9944    1.0023    1.5000 C   0  0  0  0  0  0  0  0  0  0  0  0
   -2.6304    0.0563    0.6971 C   0  0  0  0  0  0  0  0  0  0  0  0
   -3.9109   -0.3293    0.9394 C   0  0  0  0  0  0  0  0  0  0  0  0
   -4.6417    0.2182    2.0183 C   0  0  0  0  0  0  0  0  0  0  0  0
   -3.9828    1.1697    2.8158 C   0  0  0  0  0  0  0  0  0  0  0  0
   -2.6816    1.5566    2.5711 C   0  0  0  0  0  0  0  0  0  0  0  0
   -5.1799    1.6258    4.0443 S   0  0  0  0  0  0  0  0  0  0  0  0
   -6.5220    0.5912    3.5271 C   0  0  0  0  0  0  0  0  0  0  0  0
   -6.0294   -0.0954    2.4101 C   0  0  0  0  0  0  0  0  0  0  0  0
   -6.8827   -0.9645    1.8231 N   0  0  0  0  0  0  0  0  0  0  0  0
   -8.0959   -1.1439    2.2824 C   0  0  0  0  0  0  0  0  0  0  0  0
   -8.5752   -0.5053    3.3338 N   0  0  0  0  0  0  0  0  0  0  0  0
   -7.8137    0.3741    3.9850 C   0  0  0  0  0  0  0  0  0  0  0  0
   -8.3003    1.0549    5.0915 N   0  0  0  0  0  0  0  0  0  0  0  0
   -9.6384    0.9103    5.4682 C   0  0  0  0  0  0  0  0  0  0  0  0
   -9.9946    0.9718    6.8098 C   0  0  0  0  0  0  0  0  0  0  0  0
  -11.3175    0.8291    7.1789 C   0  0  0  0  0  0  0  0  0  0  0  0
  -12.2881    0.6251    6.2152 C   0  0  0  0  0  0  0  0  0  0  0  0
  -11.9373    0.5632    4.8782 C   0  0  0  0  0  0  0  0  0  0  0  0
  -10.6156    0.7106    4.5018 C   0  0  0  0  0  0  0  0  0  0  0  0
  -13.2684    0.2847    3.5642 Br  0  0  0  0  0  0  0  0  0  0  0  0
    0.1027   -0.2904    0.2404 H   0  0  0  0  0  0  0  0  0  0  0  0
    1.0470    1.2069    0.0545 H   0  0  0  0  0  0  0  0  0  0  0  0
   -0.4896    1.0093   -0.8219 H   0  0  0  0  0  0  0  0  0  0  0  0
   -0.2413    2.0423    1.7950 H   0  0  0  0  0  0  0  0  0  0  0  0
   -2.0949   -0.3784   -0.1340 H   0  0  0  0  0  0  0  0  0  0  0  0
   -4.3762   -1.0641    0.2991 H   0  0  0  0  0  0  0  0  0  0  0  0
   -2.2026    2.2876    3.2056 H   0  0  0  0  0  0  0  0  0  0  0  0
   -8.7367   -1.8504    1.7756 H   0  0  0  0  0  0  0  0  0  0  0  0
   -7.7119    1.6312    5.6038 H   0  0  0  0  0  0  0  0  0  0  0  0
   -9.2374    1.1307    7.5632 H   0  0  0  0  0  0  0  0  0  0  0  0
  -11.5946    0.8772    8.2217 H   0  0  0  0  0  0  0  0  0  0  0  0
  -13.3221    0.5141    6.5067 H   0  0  0  0  0  0  0  0  0  0  0  0
  -10.3426    0.6664    3.4578 H   0  0  0  0  0  0  0  0  0  0  0  0
  1  2  1  0  0  0  0
  1 24  1  0  0  0  0
  1 25  1  0  0  0  0
  1 26  1  0  0  0  0
  2  3  1  0  0  0  0
  2 27  1  0  0  0  0
  3  8  2  0  0  0  0
  3  4  1  0  0  0  0
  4  5  2  0  0  0  0
  4 28  1  0  0  0  0
  5  6  1  0  0  0  0
  5 29  1  0  0  0  0
  6 11  1  0  0  0  0
  6  7  2  0  0  0  0
  7  8  1  0  0  0  0
  7  9  1  0  0  0  0
  8 30  1  0  0  0  0
  9 10  1  0  0  0  0
 10 15  2  0  0  0  0
 10 11  1  0  0  0  0
 11 12  2  0  0  0  0
 12 13  1  0  0  0  0
 13 14  2  0  0  0  0
 13 31  1  0  0  0  0
 14 15  1  0  0  0  0
 15 16  1  0  0  0  0
 16 17  1  0  0  0  0
 16 32  1  0  0  0  0
 17 22  2  0  0  0  0
 17 18  1  0  0  0  0
 18 19  2  0  0  0  0
 18 33  1  0  0  0  0
 19 20  1  0  0  0  0
 19 34  1  0  0  0  0
 20 21  2  0  0  0  0
 20 35  1  0  0  0  0
 21 22  1  0  0  0  0
 21 23  1  0  0  0  0
 22 36  1  0  0  0  0
M  END
$$$$
ZINC03815087
  -OEChem-08230709403D

 45 47  0     0  0  0  0  0  0999 V2000
   -4.6716   -4.6187    0.5724 C   0  0  0  0  0  0  0  0  0  0  0  0
   -6.4894   -4.3613   -1.0062 C   0  0  0  0  0  0  0  0  0  0  0  0
   -5.0914   -2.4643   -0.4498 C   0  0  0  0  0  0  0  0  0  0  0  0
   -3.6357   -2.0147   -0.3098 C   0  0  0  0  0  0  0  0  0  0  0  0
   -3.5888   -0.5619   -0.1270 N   0  0  0  0  0  0  0  0  0  0  0  0
   -2.3630    0.0818    0.0237 C   0  0  0  0  0  0  0  0  0  0  0  0
   -1.1975   -0.6654   -0.0016 C   0  0  0  0  0  0  0  0  0  0  0  0
    0.0199    0.0007    0.1514 C   0  0  0  0  0  0  0  0  0  0  0  0
    0.0114    1.4088    0.3255 C   0  0  0  0  0  0  0  0  0  0  0  0
   -1.2200    2.0755    0.3424 C   0  0  0  0  0  0  0  0  0  0  0  0
    1.1832    2.0418    0.4722 N   0  0  0  0  0  0  0  0  0  0  0  0
    2.3130    1.3791    0.4558 C   0  0  0  0  0  0  0  0  0  0  0  0
    2.3968    0.0675    0.2981 N   0  0  0  0  0  0  0  0  0  0  0  0
    1.3108   -0.6806    0.1421 C   0  0  0  0  0  0  0  0  0  0  0  0
    1.3992   -2.0476   -0.0228 N   0  0  0  0  0  0  0  0  0  0  0  0
    2.6510   -2.6575   -0.1435 C   0  0  0  0  0  0  0  0  0  0  0  0
    2.8501   -3.9416    0.3485 C   0  0  0  0  0  0  0  0  0  0  0  0
    4.0878   -4.5418    0.2275 C   0  0  0  0  0  0  0  0  0  0  0  0
    5.1289   -3.8668   -0.3832 C   0  0  0  0  0  0  0  0  0  0  0  0
    4.9344   -2.5882   -0.8748 C   0  0  0  0  0  0  0  0  0  0  0  0
    3.6967   -1.9836   -0.7606 C   0  0  0  0  0  0  0  0  0  0  0  0
    6.3609   -1.6700   -1.7100 Br  0  0  0  0  0  0  0  0  0  0  0  0
   -5.3080   -4.3519    1.4161 H   0  0  0  0  0  0  0  0  0  0  0  0
   -4.7167   -5.6956    0.4094 H   0  0  0  0  0  0  0  0  0  0  0  0
   -3.6435   -4.3264    0.7861 H   0  0  0  0  0  0  0  0  0  0  0  0
   -6.7829   -3.8819   -1.9400 H   0  0  0  0  0  0  0  0  0  0  0  0
   -6.4960   -5.4436   -1.1357 H   0  0  0  0  0  0  0  0  0  0  0  0
   -7.1917   -4.0852   -0.2196 H   0  0  0  0  0  0  0  0  0  0  0  0
   -5.6435   -2.1934    0.4502 H   0  0  0  0  0  0  0  0  0  0  0  0
   -5.5415   -1.9747   -1.3133 H   0  0  0  0  0  0  0  0  0  0  0  0
   -3.0837   -2.2856   -1.2098 H   0  0  0  0  0  0  0  0  0  0  0  0
   -3.1856   -2.5043    0.5537 H   0  0  0  0  0  0  0  0  0  0  0  0
   -4.4115   -0.0483   -0.1109 H   0  0  0  0  0  0  0  0  0  0  0  0
   -1.2293   -1.7366   -0.1359 H   0  0  0  0  0  0  0  0  0  0  0  0
   -1.2516    3.1470    0.4735 H   0  0  0  0  0  0  0  0  0  0  0  0
    3.2304    1.9358    0.5779 H   0  0  0  0  0  0  0  0  0  0  0  0
    0.5925   -2.5854   -0.0548 H   0  0  0  0  0  0  0  0  0  0  0  0
    2.0377   -4.4696    0.8256 H   0  0  0  0  0  0  0  0  0  0  0  0
    4.2428   -5.5399    0.6098 H   0  0  0  0  0  0  0  0  0  0  0  0
    6.0958   -4.3388   -0.4768 H   0  0  0  0  0  0  0  0  0  0  0  0
    3.5441   -0.9870   -1.1477 H   0  0  0  0  0  0  0  0  0  0  0  0
   -5.1208   -3.9278   -0.6546 N   0  3  0  0  0  0  0  0  0  0  0  0
   -4.4862   -4.1696   -1.4248 H   0  0  0  0  0  0  0  0  0  0  0  0
   -2.4116    1.4433    0.1898 N   0  3  0  0  0  0  0  0  0  0  0  0
   -3.3012    1.9560    0.1983 H   0  0  0  0  0  0  0  0  0  0  0  0
  1 23  1  0  0  0  0
  1 24  1  0  0  0  0
  1 25  1  0  0  0  0
  1 42  1  0  0  0  0
  2 26  1  0  0  0  0
  2 27  1  0  0  0  0
  2 28  1  0  0  0  0
  2 42  1  0  0  0  0
  3  4  1  0  0  0  0
  3 29  1  0  0  0  0
  3 30  1  0  0  0  0
  3 42  1  0  0  0  0
  4  5  1  0  0  0  0
  4 31  1  0  0  0  0
  4 32  1  0  0  0  0
  5  6  1  0  0  0  0
  5 33  1  0  0  0  0
  6  7  2  0  0  0  0
  6 44  1  0  0  0  0
  7  8  1  0  0  0  0
  7 34  1  0  0  0  0
  8 14  2  0  0  0  0
  8  9  1  0  0  0  0
  9 10  1  0  0  0  0
  9 11  2  0  0  0  0
 10 35  1  0  0  0  0
 10 44  2  0  0  0  0
 11 12  1  0  0  0  0
 12 13  2  0  0  0  0
 12 36  1  0  0  0  0
 13 14  1  0  0  0  0
 14 15  1  0  0  0  0
 15 16  1  0  0  0  0
 15 37  1  0  0  0  0
 16 21  2  0  0  0  0
 16 17  1  0  0  0  0
 17 18  2  0  0  0  0
 17 38  1  0  0  0  0
 18 19  1  0  0  0  0
 18 39  1  0  0  0  0
 19 20  2  0  0  0  0
 19 40  1  0  0  0  0
 20 21  1  0  0  0  0
 20 22  1  0  0  0  0
 21 41  1  0  0  0  0
 42 43  1  0  0  0  0
 44 45  1  0  0  0  0
M  CHG  2  42   1  44   1
M  END
$$$$
ZINC03815088
  -OEChem-08230709403D

 36 38  0     0  0  0  0  0  0999 V2000
   -2.3863    9.7100    0.3182 C   0  0  0  0  0  0  0  0  0  0  0  0
   -1.0648   10.3352    0.4129 N   0  0  0  0  0  0  0  0  0  0  0  0
    0.0824    9.5459    0.3863 C   0  0  0  0  0  0  0  0  0  0  0  0
   -0.0428    8.1718    0.2699 C   0  0  0  0  0  0  0  0  0  0  0  0
    1.1206    7.4005    0.2453 C   0  0  0  0  0  0  0  0  0  0  0  0
    2.3763    8.0540    0.3401 C   0  0  0  0  0  0  0  0  0  0  0  0
    2.3995    9.4496    0.4549 C   0  0  0  0  0  0  0  0  0  0  0  0
    3.4888    7.3077    0.3163 N   0  0  0  0  0  0  0  0  0  0  0  0
    3.4226    6.0039    0.2080 C   0  0  0  0  0  0  0  0  0  0  0  0
    2.2882    5.3276    0.1205 N   0  0  0  0  0  0  0  0  0  0  0  0
    1.1128    5.9456    0.1266 C   0  0  0  0  0  0  0  0  0  0  0  0
   -0.0690    5.2401    0.0304 N   0  0  0  0  0  0  0  0  0  0  0  0
   -0.0435    3.8623   -0.2034 C   0  0  0  0  0  0  0  0  0  0  0  0
    0.9630    3.3071   -0.9838 C   0  0  0  0  0  0  0  0  0  0  0  0
    0.9851    1.9457   -1.2131 C   0  0  0  0  0  0  0  0  0  0  0  0
    0.0067    1.1349   -0.6669 C   0  0  0  0  0  0  0  0  0  0  0  0
   -0.9996    1.6849    0.1055 C   0  0  0  0  0  0  0  0  0  0  0  0
   -1.0244    3.0452    0.3436 C   0  0  0  0  0  0  0  0  0  0  0  0
   -2.0670    0.7983    0.6935 C   0  0  0  0  0  0  0  0  0  0  0  0
   -1.8279   -0.5290    0.3215 F   0  0  0  0  0  0  0  0  0  0  0  0
   -2.0441    0.9031    2.0883 F   0  0  0  0  0  0  0  0  0  0  0  0
   -3.3200    1.1977    0.2163 F   0  0  0  0  0  0  0  0  0  0  0  0
   -2.4637    9.1646   -0.6223 H   0  0  0  0  0  0  0  0  0  0  0  0
   -2.5222    9.0197    1.1508 H   0  0  0  0  0  0  0  0  0  0  0  0
   -3.1563   10.4806    0.3558 H   0  0  0  0  0  0  0  0  0  0  0  0
   -0.9888   11.2988    0.4942 H   0  0  0  0  0  0  0  0  0  0  0  0
   -1.0158    7.7085    0.1996 H   0  0  0  0  0  0  0  0  0  0  0  0
    3.3434    9.9693    0.5282 H   0  0  0  0  0  0  0  0  0  0  0  0
    4.3483    5.4477    0.1935 H   0  0  0  0  0  0  0  0  0  0  0  0
   -0.9177    5.7003    0.1250 H   0  0  0  0  0  0  0  0  0  0  0  0
    1.7271    3.9397   -1.4109 H   0  0  0  0  0  0  0  0  0  0  0  0
    1.7670    1.5135   -1.8199 H   0  0  0  0  0  0  0  0  0  0  0  0
    0.0263    0.0703   -0.8478 H   0  0  0  0  0  0  0  0  0  0  0  0
   -1.8084    3.4736    0.9504 H   0  0  0  0  0  0  0  0  0  0  0  0
    1.2778   10.2138    0.4803 N   0  3  0  0  0  0  0  0  0  0  0  0
    1.3213   11.2361    0.5652 H   0  0  0  0  0  0  0  0  0  0  0  0
  1  2  1  0  0  0  0
  1 23  1  0  0  0  0
  1 24  1  0  0  0  0
  1 25  1  0  0  0  0
  2  3  1  0  0  0  0
  2 26  1  0  0  0  0
  3  4  2  0  0  0  0
  3 35  1  0  0  0  0
  4  5  1  0  0  0  0
  4 27  1  0  0  0  0
  5 11  2  0  0  0  0
  5  6  1  0  0  0  0
  6  7  1  0  0  0  0
  6  8  2  0  0  0  0
  7 28  1  0  0  0  0
  7 35  2  0  0  0  0
  8  9  1  0  0  0  0
  9 10  2  0  0  0  0
  9 29  1  0  0  0  0
 10 11  1  0  0  0  0
 11 12  1  0  0  0  0
 12 13  1  0  0  0  0
 12 30  1  0  0  0  0
 13 18  2  0  0  0  0
 13 14  1  0  0  0  0
 14 15  2  0  0  0  0
 14 31  1  0  0  0  0
 15 16  1  0  0  0  0
 15 32  1  0  0  0  0
 16 17  2  0  0  0  0
 16 33  1  0  0  0  0
 17 18  1  0  0  0  0
 17 19  1  0  0  0  0
 18 34  1  0  0  0  0
 19 20  1  0  0  0  0
 19 21  1  0  0  0  0
 19 22  1  0  0  0  0
 35 36  1  0  0  0  0
M  CHG  1  35   1
M  END
$$$$
ZINC03815089
  -OEChem-08230709403D

 38 41  0     0  0  0  0  0  0999 V2000
    1.4363   -6.8871   -0.6802 C   0  0  0  0  0  0  0  0  0  0  0  0
    0.7178   -5.6570   -0.5671 O   0  0  0  0  0  0  0  0  0  0  0  0
    1.4439   -4.5412   -0.2897 C   0  0  0  0  0  0  0  0  0  0  0  0
    2.8223   -4.6321   -0.1294 C   0  0  0  0  0  0  0  0  0  0  0  0
    3.5699   -3.5090    0.1516 C   0  0  0  0  0  0  0  0  0  0  0  0
    2.9487   -2.2708    0.2792 C   0  0  0  0  0  0  0  0  0  0  0  0
    1.5586   -2.1780    0.1178 C   0  0  0  0  0  0  0  0  0  0  0  0
    0.8104   -3.3185   -0.1670 C   0  0  0  0  0  0  0  0  0  0  0  0
    1.2087   -0.7593    0.3096 C   0  0  0  0  0  0  0  0  0  0  0  0
    2.4082   -0.0842    0.5747 C   0  0  0  0  0  0  0  0  0  0  0  0
    3.4409   -1.0043    0.5529 N   0  0  0  0  0  0  0  0  0  0  0  0
    4.3751   -0.7935    0.7066 H   0  0  0  0  0  0  0  0  0  0  0  0
    2.3826    1.2895    0.7999 C   0  0  0  0  0  0  0  0  0  0  0  0
    1.1875    1.9766    0.7619 C   0  0  0  0  0  0  0  0  0  0  0  0
    0.0002    1.3140    0.5004 C   0  0  0  0  0  0  0  0  0  0  0  0
    0.0016   -0.0534    0.2732 C   0  0  0  0  0  0  0  0  0  0  0  0
   -1.1943   -0.7219    0.0092 N   0  0  0  0  0  0  0  0  0  0  0  0
   -2.4123   -0.0484    0.1295 C   0  0  0  0  0  0  0  0  0  0  0  0
   -2.6325    0.8058    1.2031 C   0  0  0  0  0  0  0  0  0  0  0  0
   -3.8353    1.4746    1.3163 C   0  0  0  0  0  0  0  0  0  0  0  0
   -4.8249    1.2866    0.3688 C   0  0  0  0  0  0  0  0  0  0  0  0
   -4.6116    0.4325   -0.6987 C   0  0  0  0  0  0  0  0  0  0  0  0
   -3.4079   -0.2355   -0.8208 C   0  0  0  0  0  0  0  0  0  0  0  0
   -5.9684    0.1785   -1.9911 Br  0  0  0  0  0  0  0  0  0  0  0  0
    0.7398   -7.6955   -0.9028 H   0  0  0  0  0  0  0  0  0  0  0  0
    2.1690   -6.8073   -1.4832 H   0  0  0  0  0  0  0  0  0  0  0  0
    1.9480   -7.0967    0.2591 H   0  0  0  0  0  0  0  0  0  0  0  0
    3.3109   -5.5903   -0.2269 H   0  0  0  0  0  0  0  0  0  0  0  0
    4.6398   -3.5905    0.2742 H   0  0  0  0  0  0  0  0  0  0  0  0
   -0.2600   -3.2476   -0.2918 H   0  0  0  0  0  0  0  0  0  0  0  0
    3.3016    1.8187    1.0046 H   0  0  0  0  0  0  0  0  0  0  0  0
    1.1776    3.0421    0.9379 H   0  0  0  0  0  0  0  0  0  0  0  0
   -0.9285    1.8645    0.4690 H   0  0  0  0  0  0  0  0  0  0  0  0
   -1.1800   -1.6543   -0.2579 H   0  0  0  0  0  0  0  0  0  0  0  0
   -1.8620    0.9499    1.9461 H   0  0  0  0  0  0  0  0  0  0  0  0
   -4.0052    2.1417    2.1485 H   0  0  0  0  0  0  0  0  0  0  0  0
   -5.7665    1.8073    0.4624 H   0  0  0  0  0  0  0  0  0  0  0  0
   -3.2417   -0.9024   -1.6539 H   0  0  0  0  0  0  0  0  0  0  0  0
  1  2  1  0  0  0  0
  1 25  1  0  0  0  0
  1 26  1  0  0  0  0
  1 27  1  0  0  0  0
  2  3  1  0  0  0  0
  3  8  2  0  0  0  0
  3  4  1  0  0  0  0
  4  5  2  0  0  0  0
  4 28  1  0  0  0  0
  5  6  1  0  0  0  0
  5 29  1  0  0  0  0
  6 11  1  0  0  0  0
  6  7  2  0  0  0  0
  7  8  1  0  0  0  0
  7  9  1  0  0  0  0
  8 30  1  0  0  0  0
  9 16  2  0  0  0  0
  9 10  1  0  0  0  0
 10 11  1  0  0  0  0
 10 13  2  0  0  0  0
 11 12  1  0  0  0  0
 13 14  1  0  0  0  0
 13 31  1  0  0  0  0
 14 15  2  0  0  0  0
 14 32  1  0  0  0  0
 15 16  1  0  0  0  0
 15 33  1  0  0  0  0
 16 17  1  0  0  0  0
 17 18  1  0  0  0  0
 17 34  1  0  0  0  0
 18 23  2  0  0  0  0
 18 19  1  0  0  0  0
 19 20  2  0  0  0  0
 19 35  1  0  0  0  0
 20 21  1  0  0  0  0
 20 36  1  0  0  0  0
 21 22  2  0  0  0  0
 21 37  1  0  0  0  0
 22 23  1  0  0  0  0
 22 24  1  0  0  0  0
 23 38  1  0  0  0  0
M  END
$$$$
ZINC03815090
  -OEChem-08230709403D

 48 50  0     0  0  0  0  0  0999 V2000
   -7.1356   -3.8862   -2.0093 C   0  0  0  0  0  0  0  0  0  0  0  0
   -6.6442   -5.8775   -0.7224 C   0  0  0  0  0  0  0  0  0  0  0  0
   -5.1405   -3.9816   -0.6407 C   0  0  0  0  0  0  0  0  0  0  0  0
   -5.0914   -2.4643   -0.4498 C   0  0  0  0  0  0  0  0  0  0  0  0
   -3.6357   -2.0147   -0.3098 C   0  0  0  0  0  0  0  0  0  0  0  0
   -3.5888   -0.5619   -0.1270 N   0  0  0  0  0  0  0  0  0  0  0  0
   -2.3630    0.0818    0.0237 C   0  0  0  0  0  0  0  0  0  0  0  0
   -1.1975   -0.6654   -0.0016 C   0  0  0  0  0  0  0  0  0  0  0  0
    0.0199    0.0007    0.1514 C   0  0  0  0  0  0  0  0  0  0  0  0
    0.0114    1.4088    0.3255 C   0  0  0  0  0  0  0  0  0  0  0  0
   -1.2200    2.0755    0.3424 C   0  0  0  0  0  0  0  0  0  0  0  0
    1.1832    2.0418    0.4722 N   0  0  0  0  0  0  0  0  0  0  0  0
    2.3130    1.3791    0.4558 C   0  0  0  0  0  0  0  0  0  0  0  0
    2.3968    0.0675    0.2981 N   0  0  0  0  0  0  0  0  0  0  0  0
    1.3108   -0.6806    0.1421 C   0  0  0  0  0  0  0  0  0  0  0  0
    1.3992   -2.0476   -0.0228 N   0  0  0  0  0  0  0  0  0  0  0  0
    2.6510   -2.6575   -0.1435 C   0  0  0  0  0  0  0  0  0  0  0  0
    2.8501   -3.9416    0.3485 C   0  0  0  0  0  0  0  0  0  0  0  0
    4.0878   -4.5418    0.2275 C   0  0  0  0  0  0  0  0  0  0  0  0
    5.1289   -3.8668   -0.3832 C   0  0  0  0  0  0  0  0  0  0  0  0
    4.9344   -2.5882   -0.8748 C   0  0  0  0  0  0  0  0  0  0  0  0
    3.6967   -1.9836   -0.7606 C   0  0  0  0  0  0  0  0  0  0  0  0
    6.3609   -1.6700   -1.7100 Br  0  0  0  0  0  0  0  0  0  0  0  0
   -6.5733   -4.2499   -2.8693 H   0  0  0  0  0  0  0  0  0  0  0  0
   -8.1703   -4.2209   -2.0838 H   0  0  0  0  0  0  0  0  0  0  0  0
   -7.1066   -2.7968   -1.9905 H   0  0  0  0  0  0  0  0  0  0  0  0
   -6.2580   -6.2357    0.2319 H   0  0  0  0  0  0  0  0  0  0  0  0
   -7.6893   -6.1700   -0.8242 H   0  0  0  0  0  0  0  0  0  0  0  0
   -6.0641   -6.3133   -1.5358 H   0  0  0  0  0  0  0  0  0  0  0  0
   -4.5884   -4.2525   -1.5407 H   0  0  0  0  0  0  0  0  0  0  0  0
   -4.6904   -4.4712    0.2229 H   0  0  0  0  0  0  0  0  0  0  0  0
   -5.6435   -2.1934    0.4502 H   0  0  0  0  0  0  0  0  0  0  0  0
   -5.5415   -1.9747   -1.3133 H   0  0  0  0  0  0  0  0  0  0  0  0
   -3.0837   -2.2856   -1.2098 H   0  0  0  0  0  0  0  0  0  0  0  0
   -3.1856   -2.5043    0.5537 H   0  0  0  0  0  0  0  0  0  0  0  0
   -4.4115   -0.0483   -0.1109 H   0  0  0  0  0  0  0  0  0  0  0  0
   -1.2293   -1.7366   -0.1359 H   0  0  0  0  0  0  0  0  0  0  0  0
   -1.2516    3.1470    0.4735 H   0  0  0  0  0  0  0  0  0  0  0  0
    3.2304    1.9358    0.5779 H   0  0  0  0  0  0  0  0  0  0  0  0
    0.5925   -2.5854   -0.0548 H   0  0  0  0  0  0  0  0  0  0  0  0
    2.0377   -4.4696    0.8256 H   0  0  0  0  0  0  0  0  0  0  0  0
    4.2428   -5.5399    0.6098 H   0  0  0  0  0  0  0  0  0  0  0  0
    6.0958   -4.3388   -0.4768 H   0  0  0  0  0  0  0  0  0  0  0  0
    3.5441   -0.9870   -1.1477 H   0  0  0  0  0  0  0  0  0  0  0  0
   -6.5528   -4.4026   -0.7529 N   0  3  0  0  0  0  0  0  0  0  0  0
   -7.0791   -4.0193    0.0411 H   0  0  0  0  0  0  0  0  0  0  0  0
   -2.4116    1.4433    0.1898 N   0  3  0  0  0  0  0  0  0  0  0  0
   -3.3012    1.9560    0.1983 H   0  0  0  0  0  0  0  0  0  0  0  0
  1 24  1  0  0  0  0
  1 25  1  0  0  0  0
  1 26  1  0  0  0  0
  1 45  1  0  0  0  0
  2 27  1  0  0  0  0
  2 28  1  0  0  0  0
  2 29  1  0  0  0  0
  2 45  1  0  0  0  0
  3  4  1  0  0  0  0
  3 30  1  0  0  0  0
  3 31  1  0  0  0  0
  3 45  1  0  0  0  0
  4  5  1  0  0  0  0
  4 32  1  0  0  0  0
  4 33  1  0  0  0  0
  5  6  1  0  0  0  0
  5 34  1  0  0  0  0
  5 35  1  0  0  0  0
  6  7  1  0  0  0  0
  6 36  1  0  0  0  0
  7  8  2  0  0  0  0
  7 47  1  0  0  0  0
  8  9  1  0  0  0  0
  8 37  1  0  0  0  0
  9 15  2  0  0  0  0
  9 10  1  0  0  0  0
 10 11  1  0  0  0  0
 10 12  2  0  0  0  0
 11 38  1  0  0  0  0
 11 47  2  0  0  0  0
 12 13  1  0  0  0  0
 13 14  2  0  0  0  0
 13 39  1  0  0  0  0
 14 15  1  0  0  0  0
 15 16  1  0  0  0  0
 16 17  1  0  0  0  0
 16 40  1  0  0  0  0
 17 22  2  0  0  0  0
 17 18  1  0  0  0  0
 18 19  2  0  0  0  0
 18 41  1  0  0  0  0
 19 20  1  0  0  0  0
 19 42  1  0  0  0  0
 20 21  2  0  0  0  0
 20 43  1  0  0  0  0
 21 22  1  0  0  0  0
 21 23  1  0  0  0  0
 22 44  1  0  0  0  0
 45 46  1  0  0  0  0
 47 48  1  0  0  0  0
M  CHG  2  45   1  47   1
M  END
$$$$
ZINC03815091
  -OEChem-08230709403D

 45 48  0     0  0  0  0  0  0999 V2000
   -5.9154    1.7466    0.0319 C   0  0  0  0  0  0  0  0  0  0  0  0
   -6.0071    2.6667    1.0654 C   0  0  0  0  0  0  0  0  0  0  0  0
   -4.9066    2.8855    1.8718 C   0  0  0  0  0  0  0  0  0  0  0  0
   -3.7813    2.2277    1.6706 N   0  0  0  0  0  0  0  0  0  0  0  0
   -3.6565    1.3497    0.6948 C   0  0  0  0  0  0  0  0  0  0  0  0
   -4.7148    1.0785   -0.1520 C   0  0  0  0  0  0  0  0  0  0  0  0
   -2.3467    0.6289    0.5045 C   0  0  0  0  0  0  0  0  0  0  0  0
   -1.2190    1.6518    0.3531 C   0  0  0  0  0  0  0  0  0  0  0  0
    0.0542    0.9512    0.1681 N   0  0  0  0  0  0  0  0  0  0  0  0
    1.2309    1.6774    0.0017 C   0  0  0  0  0  0  0  0  0  0  0  0
    1.1816    3.0611    0.0192 C   0  0  0  0  0  0  0  0  0  0  0  0
    2.3734    3.7685   -0.1490 C   0  0  0  0  0  0  0  0  0  0  0  0
    3.5792    3.0431   -0.3301 C   0  0  0  0  0  0  0  0  0  0  0  0
    3.5265    1.6436   -0.3329 C   0  0  0  0  0  0  0  0  0  0  0  0
    4.7193    3.7283   -0.4905 N   0  0  0  0  0  0  0  0  0  0  0  0
    4.7246    5.0382   -0.4811 C   0  0  0  0  0  0  0  0  0  0  0  0
    3.6400    5.7791   -0.3180 N   0  0  0  0  0  0  0  0  0  0  0  0
    2.4445    5.2265   -0.1480 C   0  0  0  0  0  0  0  0  0  0  0  0
    1.3145    5.9997    0.0219 N   0  0  0  0  0  0  0  0  0  0  0  0
    1.4281    7.3882    0.1343 C   0  0  0  0  0  0  0  0  0  0  0  0
    0.4204    8.2110   -0.3536 C   0  0  0  0  0  0  0  0  0  0  0  0
    0.5351    9.5824   -0.2408 C   0  0  0  0  0  0  0  0  0  0  0  0
    1.6516   10.1378    0.3572 C   0  0  0  0  0  0  0  0  0  0  0  0
    2.6570    9.3218    0.8446 C   0  0  0  0  0  0  0  0  0  0  0  0
    2.5458    7.9482    0.7391 C   0  0  0  0  0  0  0  0  0  0  0  0
    4.1813   10.0862    1.6619 Br  0  0  0  0  0  0  0  0  0  0  0  0
   -6.7592    1.5553   -0.6145 H   0  0  0  0  0  0  0  0  0  0  0  0
   -6.9272    3.2052    1.2380 H   0  0  0  0  0  0  0  0  0  0  0  0
   -4.9699    3.6004    2.6788 H   0  0  0  0  0  0  0  0  0  0  0  0
   -4.6077    0.3550   -0.9466 H   0  0  0  0  0  0  0  0  0  0  0  0
   -2.3991    0.0106   -0.3916 H   0  0  0  0  0  0  0  0  0  0  0  0
   -2.1504   -0.0027    1.3709 H   0  0  0  0  0  0  0  0  0  0  0  0
   -1.1666    2.2702    1.2492 H   0  0  0  0  0  0  0  0  0  0  0  0
   -1.4154    2.2835   -0.5132 H   0  0  0  0  0  0  0  0  0  0  0  0
    0.0771   -0.0185    0.1575 H   0  0  0  0  0  0  0  0  0  0  0  0
    0.2449    3.5800    0.1599 H   0  0  0  0  0  0  0  0  0  0  0  0
    4.4313    1.0699   -0.4690 H   0  0  0  0  0  0  0  0  0  0  0  0
    5.6698    5.5434   -0.6145 H   0  0  0  0  0  0  0  0  0  0  0  0
    0.4411    5.5796    0.0633 H   0  0  0  0  0  0  0  0  0  0  0  0
   -0.4517    7.7782   -0.8210 H   0  0  0  0  0  0  0  0  0  0  0  0
   -0.2482   10.2221   -0.6196 H   0  0  0  0  0  0  0  0  0  0  0  0
    1.7387   11.2108    0.4441 H   0  0  0  0  0  0  0  0  0  0  0  0
    3.3290    7.3112    1.1230 H   0  0  0  0  0  0  0  0  0  0  0  0
    2.3770    0.9410   -0.1649 N   0  3  0  0  0  0  0  0  0  0  0  0
    2.3658   -0.0856   -0.1627 H   0  0  0  0  0  0  0  0  0  0  0  0
  1  6  2  0  0  0  0
  1  2  1  0  0  0  0
  1 27  1  0  0  0  0
  2  3  2  0  0  0  0
  2 28  1  0  0  0  0
  3  4  1  0  0  0  0
  3 29  1  0  0  0  0
  4  5  2  0  0  0  0
  5  6  1  0  0  0  0
  5  7  1  0  0  0  0
  6 30  1  0  0  0  0
  7  8  1  0  0  0  0
  7 31  1  0  0  0  0
  7 32  1  0  0  0  0
  8  9  1  0  0  0  0
  8 33  1  0  0  0  0
  8 34  1  0  0  0  0
  9 10  1  0  0  0  0
  9 35  1  0  0  0  0
 10 11  2  0  0  0  0
 10 44  1  0  0  0  0
 11 12  1  0  0  0  0
 11 36  1  0  0  0  0
 12 18  2  0  0  0  0
 12 13  1  0  0  0  0
 13 14  1  0  0  0  0
 13 15  2  0  0  0  0
 14 37  1  0  0  0  0
 14 44  2  0  0  0  0
 15 16  1  0  0  0  0
 16 17  2  0  0  0  0
 16 38  1  0  0  0  0
 17 18  1  0  0  0  0
 18 19  1  0  0  0  0
 19 20  1  0  0  0  0
 19 39  1  0  0  0  0
 20 25  2  0  0  0  0
 20 21  1  0  0  0  0
 21 22  2  0  0  0  0
 21 40  1  0  0  0  0
 22 23  1  0  0  0  0
 22 41  1  0  0  0  0
 23 24  2  0  0  0  0
 23 42  1  0  0  0  0
 24 25  1  0  0  0  0
 24 26  1  0  0  0  0
 25 43  1  0  0  0  0
 44 45  1  0  0  0  0
M  CHG  1  44   1
M  END
$$$$
ZINC03815092
  -OEChem-08230709403D

 56 58  0     0  0  0  0  0  0999 V2000
    4.9266    3.3568   -0.9348 C   0  0  0  0  0  0  0  0  0  0  0  0
    4.6377    2.0281   -0.6920 C   0  0  0  0  0  0  0  0  0  0  0  0
    5.3707    1.0323   -1.3248 C   0  0  0  0  0  0  0  0  0  0  0  0
    6.3962    1.3764   -2.1964 C   0  0  0  0  0  0  0  0  0  0  0  0
    6.6774    2.7073   -2.4384 C   0  0  0  0  0  0  0  0  0  0  0  0
    5.9445    3.6967   -1.8064 C   0  0  0  0  0  0  0  0  0  0  0  0
    8.0692    3.1775   -3.6292 Br  0  0  0  0  0  0  0  0  0  0  0  0
    5.0809   -0.3132   -1.0806 N   0  0  0  0  0  0  0  0  0  0  0  0
    3.7805   -0.7069   -0.8479 C   0  0  0  0  0  0  0  0  0  0  0  0
    3.4774   -2.0407   -0.4889 C   0  0  0  0  0  0  0  0  0  0  0  0
    4.4570   -3.0268   -0.3488 C   0  0  0  0  0  0  0  0  0  0  0  0
    2.8513   -4.6068    0.2061 C   0  0  0  0  0  0  0  0  0  0  0  0
    1.8139   -3.6996    0.0920 C   0  0  0  0  0  0  0  0  0  0  0  0
    2.1168   -2.3803   -0.2633 C   0  0  0  0  0  0  0  0  0  0  0  0
    1.1819   -1.4315   -0.3988 N   0  0  0  0  0  0  0  0  0  0  0  0
    1.5232   -0.2086   -0.7350 C   0  0  0  0  0  0  0  0  0  0  0  0
    2.7760    0.1552   -0.9553 N   0  0  0  0  0  0  0  0  0  0  0  0
    2.5680   -5.9202    0.5579 N   0  0  0  0  0  0  0  0  0  0  0  0
    1.1832   -6.3304    0.8033 C   0  0  0  0  0  0  0  0  0  0  0  0
    1.1486   -7.8152    1.1711 C   0  0  0  0  0  0  0  0  0  0  0  0
   -0.2976   -8.2436    1.4273 C   0  0  0  0  0  0  0  0  0  0  0  0
    0.0928   -9.8358    3.2092 C   0  0  0  0  0  0  0  0  0  0  0  0
    0.2894  -11.3250    3.4999 C   0  0  0  0  0  0  0  0  0  0  0  0
    1.3729  -11.8249    2.7135 O   0  0  0  0  0  0  0  0  0  0  0  0
   -1.6588  -10.2397    1.5870 C   0  0  0  0  0  0  0  0  0  0  0  0
   -1.8527  -10.5060    0.0929 C   0  0  0  0  0  0  0  0  0  0  0  0
   -0.9061  -11.4835   -0.3435 O   0  0  0  0  0  0  0  0  0  0  0  0
    4.3567    4.1312   -0.4429 H   0  0  0  0  0  0  0  0  0  0  0  0
    3.8423    1.7636   -0.0110 H   0  0  0  0  0  0  0  0  0  0  0  0
    6.9707    0.6045   -2.6868 H   0  0  0  0  0  0  0  0  0  0  0  0
    6.1685    4.7364   -1.9941 H   0  0  0  0  0  0  0  0  0  0  0  0
    5.7948   -0.9698   -1.0749 H   0  0  0  0  0  0  0  0  0  0  0  0
    5.4958   -2.7835   -0.5167 H   0  0  0  0  0  0  0  0  0  0  0  0
    0.7930   -4.0025    0.2726 H   0  0  0  0  0  0  0  0  0  0  0  0
    0.7452    0.5330   -0.8407 H   0  0  0  0  0  0  0  0  0  0  0  0
    3.2871   -6.5659    0.6412 H   0  0  0  0  0  0  0  0  0  0  0  0
    0.7702   -5.7432    1.6235 H   0  0  0  0  0  0  0  0  0  0  0  0
    0.5905   -6.1651   -0.0964 H   0  0  0  0  0  0  0  0  0  0  0  0
    1.5616   -8.4024    0.3509 H   0  0  0  0  0  0  0  0  0  0  0  0
    1.7414   -7.9805    2.0708 H   0  0  0  0  0  0  0  0  0  0  0  0
   -0.7185   -7.6396    2.2312 H   0  0  0  0  0  0  0  0  0  0  0  0
   -0.8849   -8.1011    0.5202 H   0  0  0  0  0  0  0  0  0  0  0  0
    1.0310   -9.3062    3.3753 H   0  0  0  0  0  0  0  0  0  0  0  0
   -0.6734   -9.4342    3.8723 H   0  0  0  0  0  0  0  0  0  0  0  0
    0.5146  -11.4621    4.5575 H   0  0  0  0  0  0  0  0  0  0  0  0
   -0.6221  -11.8676    3.2492 H   0  0  0  0  0  0  0  0  0  0  0  0
    1.5547  -12.7652    2.8470 H   0  0  0  0  0  0  0  0  0  0  0  0
   -1.7456  -11.1765    2.1373 H   0  0  0  0  0  0  0  0  0  0  0  0
   -2.4216   -9.5426    1.9338 H   0  0  0  0  0  0  0  0  0  0  0  0
   -2.8632  -10.8752   -0.0822 H   0  0  0  0  0  0  0  0  0  0  0  0
   -1.7024   -9.5808   -0.4635 H   0  0  0  0  0  0  0  0  0  0  0  0
   -0.9712  -11.7019   -1.2832 H   0  0  0  0  0  0  0  0  0  0  0  0
    4.1763   -4.3096   -0.0048 N   0  3  0  0  0  0  0  0  0  0  0  0
    4.9129   -5.0182    0.0925 H   0  0  0  0  0  0  0  0  0  0  0  0
   -0.3089   -9.6749    1.7959 N   0  3  0  0  0  0  0  0  0  0  0  0
    0.3589  -10.1781    1.2000 H   0  0  0  0  0  0  0  0  0  0  0  0
  1  6  2  0  0  0  0
  1  2  1  0  0  0  0
  1 28  1  0  0  0  0
  2  3  2  0  0  0  0
  2 29  1  0  0  0  0
  3  4  1  0  0  0  0
  3  8  1  0  0  0  0
  4  5  2  0  0  0  0
  4 30  1  0  0  0  0
  5  6  1  0  0  0  0
  5  7  1  0  0  0  0
  6 31  1  0  0  0  0
  8  9  1  0  0  0  0
  8 32  1  0  0  0  0
  9 17  2  0  0  0  0
  9 10  1  0  0  0  0
 10 14  2  0  0  0  0
 10 11  1  0  0  0  0
 11 33  1  0  0  0  0
 11 53  2  0  0  0  0
 12 13  2  0  0  0  0
 12 18  1  0  0  0  0
 12 53  1  0  0  0  0
 13 14  1  0  0  0  0
 13 34  1  0  0  0  0
 14 15  1  0  0  0  0
 15 16  2  0  0  0  0
 16 17  1  0  0  0  0
 16 35  1  0  0  0  0
 18 19  1  0  0  0  0
 18 36  1  0  0  0  0
 19 20  1  0  0  0  0
 19 37  1  0  0  0  0
 19 38  1  0  0  0  0
 20 21  1  0  0  0  0
 20 39  1  0  0  0  0
 20 40  1  0  0  0  0
 21 41  1  0  0  0  0
 21 42  1  0  0  0  0
 21 55  1  0  0  0  0
 22 23  1  0  0  0  0
 22 43  1  0  0  0  0
 22 44  1  0  0  0  0
 22 55  1  0  0  0  0
 23 24  1  0  0  0  0
 23 45  1  0  0  0  0
 23 46  1  0  0  0  0
 24 47  1  0  0  0  0
 25 26  1  0  0  0  0
 25 48  1  0  0  0  0
 25 49  1  0  0  0  0
 25 55  1  0  0  0  0
 26 27  1  0  0  0  0
 26 50  1  0  0  0  0
 26 51  1  0  0  0  0
 27 52  1  0  0  0  0
 53 54  1  0  0  0  0
 55 56  1  0  0  0  0
M  CHG  2  53   1  55   1
M  END
$$$$
ZINC03815093
  -OEChem-08230709403D

 32 35  0     0  0  0  0  0  0999 V2000
    8.4088   -0.9942   -0.3727 C   0  0  0  0  0  0  0  0  0  0  0  0
    7.2386   -0.2659   -0.4637 C   0  0  0  0  0  0  0  0  0  0  0  0
    6.0561   -0.7871    0.0455 C   0  0  0  0  0  0  0  0  0  0  0  0
    6.0553   -2.0380    0.6497 C   0  0  0  0  0  0  0  0  0  0  0  0
    7.2281   -2.7636    0.7333 C   0  0  0  0  0  0  0  0  0  0  0  0
    8.4043   -2.2411    0.2244 C   0  0  0  0  0  0  0  0  0  0  0  0
    7.2275   -4.4694    1.5497 Br  0  0  0  0  0  0  0  0  0  0  0  0
    4.8706   -0.0521   -0.0447 N   0  0  0  0  0  0  0  0  0  0  0  0
    3.6629   -0.7052   -0.1947 C   0  0  0  0  0  0  0  0  0  0  0  0
    2.4446    0.0083   -0.1633 C   0  0  0  0  0  0  0  0  0  0  0  0
    1.2391   -0.7148   -0.3221 C   0  0  0  0  0  0  0  0  0  0  0  0
    0.0081   -0.0368   -0.2956 C   0  0  0  0  0  0  0  0  0  0  0  0
   -0.0287    1.3089   -0.1187 C   0  0  0  0  0  0  0  0  0  0  0  0
    1.1563    2.0462    0.0408 C   0  0  0  0  0  0  0  0  0  0  0  0
    2.4014    1.4031    0.0202 C   0  0  0  0  0  0  0  0  0  0  0  0
    3.3621    2.3647    0.1980 N   0  0  0  0  0  0  0  0  0  0  0  0
    4.3174    2.1987    0.2249 H   0  0  0  0  0  0  0  0  0  0  0  0
    2.7750    3.5924    0.3310 C   0  0  0  0  0  0  0  0  0  0  0  0
    1.4402    3.4686    0.2454 C   0  0  0  0  0  0  0  0  0  0  0  0
    1.3057   -2.0432   -0.4950 N   0  0  0  0  0  0  0  0  0  0  0  0
    2.4661   -2.6557   -0.5160 C   0  0  0  0  0  0  0  0  0  0  0  0
    3.6171   -2.0200   -0.3717 N   0  0  0  0  0  0  0  0  0  0  0  0
    9.3284   -0.5889   -0.7682 H   0  0  0  0  0  0  0  0  0  0  0  0
    7.2431    0.7080   -0.9306 H   0  0  0  0  0  0  0  0  0  0  0  0
    5.1383   -2.4443    1.0503 H   0  0  0  0  0  0  0  0  0  0  0  0
    9.3207   -2.8084    0.2942 H   0  0  0  0  0  0  0  0  0  0  0  0
    4.8961    0.9166   -0.0020 H   0  0  0  0  0  0  0  0  0  0  0  0
   -0.9124   -0.5886   -0.4167 H   0  0  0  0  0  0  0  0  0  0  0  0
   -0.9804    1.8193   -0.1050 H   0  0  0  0  0  0  0  0  0  0  0  0
    3.3046    4.5215    0.4819 H   0  0  0  0  0  0  0  0  0  0  0  0
    0.7148    4.2658    0.3137 H   0  0  0  0  0  0  0  0  0  0  0  0
    2.4821   -3.7264   -0.6570 H   0  0  0  0  0  0  0  0  0  0  0  0
  1  6  2  0  0  0  0
  1  2  1  0  0  0  0
  1 23  1  0  0  0  0
  2  3  2  0  0  0  0
  2 24  1  0  0  0  0
  3  4  1  0  0  0  0
  3  8  1  0  0  0  0
  4  5  2  0  0  0  0
  4 25  1  0  0  0  0
  5  6  1  0  0  0  0
  5  7  1  0  0  0  0
  6 26  1  0  0  0  0
  8  9  1  0  0  0  0
  8 27  1  0  0  0  0
  9 22  2  0  0  0  0
  9 10  1  0  0  0  0
 10 15  2  0  0  0  0
 10 11  1  0  0  0  0
 11 12  2  0  0  0  0
 11 20  1  0  0  0  0
 12 13  1  0  0  0  0
 12 28  1  0  0  0  0
 13 14  2  0  0  0  0
 13 29  1  0  0  0  0
 14 19  1  0  0  0  0
 14 15  1  0  0  0  0
 15 16  1  0  0  0  0
 16 17  1  0  0  0  0
 16 18  1  0  0  0  0
 18 19  2  0  0  0  0
 18 30  1  0  0  0  0
 19 31  1  0  0  0  0
 20 21  2  0  0  0  0
 21 22  1  0  0  0  0
 21 32  1  0  0  0  0
M  END
$$$$
ZINC03815094
  -OEChem-08230709403D

 46 49  0     0  0  0  0  0  0999 V2000
    1.9051    5.7835   -1.0091 C   0  0  0  0  0  0  0  0  0  0  0  0
    2.0435    4.3806   -0.4766 C   0  0  0  0  0  0  0  0  0  0  0  0
    3.2607    3.9454    0.0154 C   0  0  0  0  0  0  0  0  0  0  0  0
    3.3918    2.6593    0.5058 C   0  0  0  0  0  0  0  0  0  0  0  0
    2.3055    1.8061    0.5102 C   0  0  0  0  0  0  0  0  0  0  0  0
    1.0832    2.2380    0.0116 C   0  0  0  0  0  0  0  0  0  0  0  0
    0.9549    3.5311   -0.4800 C   0  0  0  0  0  0  0  0  0  0  0  0
   -0.0166    1.3755    0.0096 N   0  0  0  0  0  0  0  0  0  0  0  0
    0.1704    0.0194   -0.1629 C   0  0  0  0  0  0  0  0  0  0  0  0
   -0.9411   -0.9201   -0.0511 C   0  0  0  0  0  0  0  0  0  0  0  0
   -2.2502   -0.5257    0.2335 C   0  0  0  0  0  0  0  0  0  0  0  0
   -3.2270   -1.5030    0.3173 C   0  0  0  0  0  0  0  0  0  0  0  0
   -1.7258   -3.2126   -0.1370 C   0  0  0  0  0  0  0  0  0  0  0  0
   -0.6689   -2.2991   -0.2418 C   0  0  0  0  0  0  0  0  0  0  0  0
    0.5891   -2.6708   -0.5140 N   0  0  0  0  0  0  0  0  0  0  0  0
    1.5489   -1.7837   -0.6029 C   0  0  0  0  0  0  0  0  0  0  0  0
    1.3677   -0.4823   -0.4427 N   0  0  0  0  0  0  0  0  0  0  0  0
   -4.5394   -1.1325    0.6005 N   0  0  0  0  0  0  0  0  0  0  0  0
   -4.8740    0.2789    0.8062 C   0  0  0  0  0  0  0  0  0  0  0  0
   -6.3697    0.4109    1.0995 C   0  0  0  0  0  0  0  0  0  0  0  0
   -6.7139    1.8628    1.3111 C   0  0  0  0  0  0  0  0  0  0  0  0
   -7.6557    2.5580    0.6453 C   0  0  0  0  0  0  0  0  0  0  0  0
   -7.6375    3.8311    1.1479 N   0  0  0  0  0  0  0  0  0  0  0  0
   -8.2209    4.5908    0.8607 H   0  0  0  0  0  0  0  0  0  0  0  0
   -6.6846    3.8695    2.1040 C   0  0  0  0  0  0  0  0  0  0  0  0
   -6.1399    2.6875    2.1996 N   0  0  0  0  0  0  0  0  0  0  0  0
    1.6112    6.4520   -0.1998 H   0  0  0  0  0  0  0  0  0  0  0  0
    2.8590    6.1110   -1.4225 H   0  0  0  0  0  0  0  0  0  0  0  0
    1.1450    5.8024   -1.7901 H   0  0  0  0  0  0  0  0  0  0  0  0
    4.1106    4.6118    0.0169 H   0  0  0  0  0  0  0  0  0  0  0  0
    4.3434    2.3228    0.8899 H   0  0  0  0  0  0  0  0  0  0  0  0
    2.4075    0.8030    0.8971 H   0  0  0  0  0  0  0  0  0  0  0  0
    0.0046    3.8717   -0.8640 H   0  0  0  0  0  0  0  0  0  0  0  0
   -0.9118    1.7308    0.1255 H   0  0  0  0  0  0  0  0  0  0  0  0
   -2.4942    0.5154    0.3846 H   0  0  0  0  0  0  0  0  0  0  0  0
   -1.5430   -4.2677   -0.2782 H   0  0  0  0  0  0  0  0  0  0  0  0
    2.5461   -2.1344   -0.8243 H   0  0  0  0  0  0  0  0  0  0  0  0
   -5.2319   -1.8090    0.6615 H   0  0  0  0  0  0  0  0  0  0  0  0
   -4.3027    0.6687    1.6487 H   0  0  0  0  0  0  0  0  0  0  0  0
   -4.6285    0.8451   -0.0923 H   0  0  0  0  0  0  0  0  0  0  0  0
   -6.9410    0.0211    0.2571 H   0  0  0  0  0  0  0  0  0  0  0  0
   -6.6152   -0.1553    1.9980 H   0  0  0  0  0  0  0  0  0  0  0  0
   -8.3009    2.1832   -0.1354 H   0  0  0  0  0  0  0  0  0  0  0  0
   -6.4201    4.7341    2.6946 H   0  0  0  0  0  0  0  0  0  0  0  0
   -3.0029   -2.8456    0.1392 N   0  3  0  0  0  0  0  0  0  0  0  0
   -3.7605   -3.5349    0.2112 H   0  0  0  0  0  0  0  0  0  0  0  0
  1  2  1  0  0  0  0
  1 27  1  0  0  0  0
  1 28  1  0  0  0  0
  1 29  1  0  0  0  0
  2  7  2  0  0  0  0
  2  3  1  0  0  0  0
  3  4  2  0  0  0  0
  3 30  1  0  0  0  0
  4  5  1  0  0  0  0
  4 31  1  0  0  0  0
  5  6  2  0  0  0  0
  5 32  1  0  0  0  0
  6  7  1  0  0  0  0
  6  8  1  0  0  0  0
  7 33  1  0  0  0  0
  8  9  1  0  0  0  0
  8 34  1  0  0  0  0
  9 17  2  0  0  0  0
  9 10  1  0  0  0  0
 10 14  2  0  0  0  0
 10 11  1  0  0  0  0
 11 12  2  0  0  0  0
 11 35  1  0  0  0  0
 12 18  1  0  0  0  0
 12 45  1  0  0  0  0
 13 14  1  0  0  0  0
 13 36  1  0  0  0  0
 13 45  2  0  0  0  0
 14 15  1  0  0  0  0
 15 16  2  0  0  0  0
 16 17  1  0  0  0  0
 16 37  1  0  0  0  0
 18 19  1  0  0  0  0
 18 38  1  0  0  0  0
 19 20  1  0  0  0  0
 19 39  1  0  0  0  0
 19 40  1  0  0  0  0
 20 21  1  0  0  0  0
 20 41  1  0  0  0  0
 20 42  1  0  0  0  0
 21 26  1  0  0  0  0
 21 22  2  0  0  0  0
 22 23  1  0  0  0  0
 22 43  1  0  0  0  0
 23 24  1  0  0  0  0
 23 25  1  0  0  0  0
 25 26  2  0  0  0  0
 25 44  1  0  0  0  0
 45 46  1  0  0  0  0
M  CHG  1  45   1
M  END
$$$$
ZINC03815094
  -OEChem-08230709403D

 46 49  0     0  0  0  0  0  0999 V2000
    1.9051    5.7835   -1.0091 C   0  0  0  0  0  0  0  0  0  0  0  0
    2.0435    4.3806   -0.4766 C   0  0  0  0  0  0  0  0  0  0  0  0
    3.2607    3.9454    0.0154 C   0  0  0  0  0  0  0  0  0  0  0  0
    3.3918    2.6593    0.5058 C   0  0  0  0  0  0  0  0  0  0  0  0
    2.3055    1.8061    0.5102 C   0  0  0  0  0  0  0  0  0  0  0  0
    1.0832    2.2380    0.0116 C   0  0  0  0  0  0  0  0  0  0  0  0
    0.9549    3.5311   -0.4800 C   0  0  0  0  0  0  0  0  0  0  0  0
   -0.0166    1.3755    0.0096 N   0  0  0  0  0  0  0  0  0  0  0  0
    0.1704    0.0194   -0.1629 C   0  0  0  0  0  0  0  0  0  0  0  0
   -0.9411   -0.9201   -0.0511 C   0  0  0  0  0  0  0  0  0  0  0  0
   -2.2502   -0.5257    0.2335 C   0  0  0  0  0  0  0  0  0  0  0  0
   -3.2270   -1.5030    0.3173 C   0  0  0  0  0  0  0  0  0  0  0  0
   -1.7258   -3.2126   -0.1370 C   0  0  0  0  0  0  0  0  0  0  0  0
   -0.6689   -2.2991   -0.2418 C   0  0  0  0  0  0  0  0  0  0  0  0
    0.5891   -2.6708   -0.5140 N   0  0  0  0  0  0  0  0  0  0  0  0
    1.5489   -1.7837   -0.6029 C   0  0  0  0  0  0  0  0  0  0  0  0
    1.3677   -0.4823   -0.4427 N   0  0  0  0  0  0  0  0  0  0  0  0
   -4.5394   -1.1325    0.6005 N   0  0  0  0  0  0  0  0  0  0  0  0
   -4.8740    0.2789    0.8062 C   0  0  0  0  0  0  0  0  0  0  0  0
   -6.3697    0.4109    1.0995 C   0  0  0  0  0  0  0  0  0  0  0  0
   -6.7139    1.8628    1.3111 C   0  0  0  0  0  0  0  0  0  0  0  0
   -7.6557    2.5580    0.6453 C   0  0  0  0  0  0  0  0  0  0  0  0
   -7.6375    3.8311    1.1479 N   0  0  0  0  0  0  0  0  0  0  0  0
   -8.2209    4.5908    0.8607 H   0  0  0  0  0  0  0  0  0  0  0  0
   -6.6846    3.8695    2.1040 C   0  0  0  0  0  0  0  0  0  0  0  0
   -6.1399    2.6875    2.1996 N   0  0  0  0  0  0  0  0  0  0  0  0
    1.6112    6.4520   -0.1998 H   0  0  0  0  0  0  0  0  0  0  0  0
    2.8590    6.1110   -1.4225 H   0  0  0  0  0  0  0  0  0  0  0  0
    1.1450    5.8024   -1.7901 H   0  0  0  0  0  0  0  0  0  0  0  0
    4.1106    4.6118    0.0169 H   0  0  0  0  0  0  0  0  0  0  0  0
    4.3434    2.3228    0.8899 H   0  0  0  0  0  0  0  0  0  0  0  0
    2.4075    0.8030    0.8971 H   0  0  0  0  0  0  0  0  0  0  0  0
    0.0046    3.8717   -0.8640 H   0  0  0  0  0  0  0  0  0  0  0  0
   -0.9118    1.7308    0.1255 H   0  0  0  0  0  0  0  0  0  0  0  0
   -2.4942    0.5154    0.3846 H   0  0  0  0  0  0  0  0  0  0  0  0
   -1.5430   -4.2677   -0.2782 H   0  0  0  0  0  0  0  0  0  0  0  0
    2.5461   -2.1344   -0.8243 H   0  0  0  0  0  0  0  0  0  0  0  0
   -5.2319   -1.8090    0.6615 H   0  0  0  0  0  0  0  0  0  0  0  0
   -4.3027    0.6687    1.6487 H   0  0  0  0  0  0  0  0  0  0  0  0
   -4.6285    0.8451   -0.0923 H   0  0  0  0  0  0  0  0  0  0  0  0
   -6.9410    0.0211    0.2571 H   0  0  0  0  0  0  0  0  0  0  0  0
   -6.6152   -0.1553    1.9980 H   0  0  0  0  0  0  0  0  0  0  0  0
   -8.3009    2.1832   -0.1354 H   0  0  0  0  0  0  0  0  0  0  0  0
   -6.4201    4.7341    2.6946 H   0  0  0  0  0  0  0  0  0  0  0  0
   -3.0029   -2.8456    0.1392 N   0  3  0  0  0  0  0  0  0  0  0  0
   -3.7605   -3.5349    0.2112 H   0  0  0  0  0  0  0  0  0  0  0  0
  1  2  1  0  0  0  0
  1 27  1  0  0  0  0
  1 28  1  0  0  0  0
  1 29  1  0  0  0  0
  2  7  2  0  0  0  0
  2  3  1  0  0  0  0
  3  4  2  0  0  0  0
  3 30  1  0  0  0  0
  4  5  1  0  0  0  0
  4 31  1  0  0  0  0
  5  6  2  0  0  0  0
  5 32  1  0  0  0  0
  6  7  1  0  0  0  0
  6  8  1  0  0  0  0
  7 33  1  0  0  0  0
  8  9  1  0  0  0  0
  8 34  1  0  0  0  0
  9 17  2  0  0  0  0
  9 10  1  0  0  0  0
 10 14  2  0  0  0  0
 10 11  1  0  0  0  0
 11 12  2  0  0  0  0
 11 35  1  0  0  0  0
 12 18  1  0  0  0  0
 12 45  1  0  0  0  0
 13 14  1  0  0  0  0
 13 36  1  0  0  0  0
 13 45  2  0  0  0  0
 14 15  1  0  0  0  0
 15 16  2  0  0  0  0
 16 17  1  0  0  0  0
 16 37  1  0  0  0  0
 18 19  1  0  0  0  0
 18 38  1  0  0  0  0
 19 20  1  0  0  0  0
 19 39  1  0  0  0  0
 19 40  1  0  0  0  0
 20 21  1  0  0  0  0
 20 41  1  0  0  0  0
 20 42  1  0  0  0  0
 21 26  1  0  0  0  0
 21 22  2  0  0  0  0
 22 23  1  0  0  0  0
 22 43  1  0  0  0  0
 23 24  1  0  0  0  0
 23 25  1  0  0  0  0
 25 26  2  0  0  0  0
 25 44  1  0  0  0  0
 45 46  1  0  0  0  0
M  CHG  1  45   1
M  END
$$$$
ZINC03815094
  -OEChem-08230709403D

 47 50  0     0  0  0  0  0  0999 V2000
    1.9051    5.7835   -1.0091 C   0  0  0  0  0  0  0  0  0  0  0  0
    2.0435    4.3806   -0.4766 C   0  0  0  0  0  0  0  0  0  0  0  0
    3.2607    3.9454    0.0154 C   0  0  0  0  0  0  0  0  0  0  0  0
    3.3918    2.6593    0.5058 C   0  0  0  0  0  0  0  0  0  0  0  0
    2.3055    1.8061    0.5102 C   0  0  0  0  0  0  0  0  0  0  0  0
    1.0832    2.2380    0.0116 C   0  0  0  0  0  0  0  0  0  0  0  0
    0.9549    3.5311   -0.4800 C   0  0  0  0  0  0  0  0  0  0  0  0
   -0.0166    1.3755    0.0096 N   0  0  0  0  0  0  0  0  0  0  0  0
    0.1704    0.0194   -0.1629 C   0  0  0  0  0  0  0  0  0  0  0  0
   -0.9411   -0.9201   -0.0511 C   0  0  0  0  0  0  0  0  0  0  0  0
   -2.2502   -0.5257    0.2335 C   0  0  0  0  0  0  0  0  0  0  0  0
   -3.2270   -1.5030    0.3173 C   0  0  0  0  0  0  0  0  0  0  0  0
   -1.7258   -3.2126   -0.1370 C   0  0  0  0  0  0  0  0  0  0  0  0
   -0.6689   -2.2991   -0.2418 C   0  0  0  0  0  0  0  0  0  0  0  0
    0.5891   -2.6708   -0.5140 N   0  0  0  0  0  0  0  0  0  0  0  0
    1.5489   -1.7837   -0.6029 C   0  0  0  0  0  0  0  0  0  0  0  0
    1.3677   -0.4823   -0.4427 N   0  0  0  0  0  0  0  0  0  0  0  0
   -4.5394   -1.1325    0.6005 N   0  0  0  0  0  0  0  0  0  0  0  0
   -4.8740    0.2789    0.8062 C   0  0  0  0  0  0  0  0  0  0  0  0
   -6.3697    0.4109    1.0995 C   0  0  0  0  0  0  0  0  0  0  0  0
   -6.7139    1.8628    1.3111 C   0  0  0  0  0  0  0  0  0  0  0  0
   -7.6557    2.5580    0.6453 C   0  0  0  0  0  0  0  0  0  0  0  0
   -7.6375    3.8311    1.1479 N   0  0  0  0  0  0  0  0  0  0  0  0
   -8.2209    4.5908    0.8607 H   0  0  0  0  0  0  0  0  0  0  0  0
   -6.6846    3.8695    2.1040 C   0  0  0  0  0  0  0  0  0  0  0  0
    1.6112    6.4520   -0.1998 H   0  0  0  0  0  0  0  0  0  0  0  0
    2.8590    6.1110   -1.4225 H   0  0  0  0  0  0  0  0  0  0  0  0
    1.1450    5.8024   -1.7901 H   0  0  0  0  0  0  0  0  0  0  0  0
    4.1106    4.6118    0.0169 H   0  0  0  0  0  0  0  0  0  0  0  0
    4.3434    2.3228    0.8899 H   0  0  0  0  0  0  0  0  0  0  0  0
    2.4075    0.8030    0.8971 H   0  0  0  0  0  0  0  0  0  0  0  0
    0.0046    3.8717   -0.8640 H   0  0  0  0  0  0  0  0  0  0  0  0
   -0.9118    1.7308    0.1255 H   0  0  0  0  0  0  0  0  0  0  0  0
   -2.4942    0.5154    0.3846 H   0  0  0  0  0  0  0  0  0  0  0  0
   -1.5430   -4.2677   -0.2782 H   0  0  0  0  0  0  0  0  0  0  0  0
    2.5461   -2.1344   -0.8243 H   0  0  0  0  0  0  0  0  0  0  0  0
   -5.2319   -1.8090    0.6615 H   0  0  0  0  0  0  0  0  0  0  0  0
   -4.3027    0.6687    1.6487 H   0  0  0  0  0  0  0  0  0  0  0  0
   -4.6285    0.8451   -0.0923 H   0  0  0  0  0  0  0  0  0  0  0  0
   -6.9410    0.0211    0.2571 H   0  0  0  0  0  0  0  0  0  0  0  0
   -6.6152   -0.1553    1.9980 H   0  0  0  0  0  0  0  0  0  0  0  0
   -8.3009    2.1832   -0.1354 H   0  0  0  0  0  0  0  0  0  0  0  0
   -6.4201    4.7341    2.6946 H   0  0  0  0  0  0  0  0  0  0  0  0
   -3.0029   -2.8456    0.1392 N   0  3  0  0  0  0  0  0  0  0  0  0
   -3.7605   -3.5349    0.2112 H   0  0  0  0  0  0  0  0  0  0  0  0
   -6.1409    2.6878    2.1987 N   0  3  0  0  0  0  0  0  0  0  0  0
   -5.3912    2.4298    2.8512 H   0  0  0  0  0  0  0  0  0  0  0  0
  1  2  1  0  0  0  0
  1 26  1  0  0  0  0
  1 27  1  0  0  0  0
  1 28  1  0  0  0  0
  2  7  2  0  0  0  0
  2  3  1  0  0  0  0
  3  4  2  0  0  0  0
  3 29  1  0  0  0  0
  4  5  1  0  0  0  0
  4 30  1  0  0  0  0
  5  6  2  0  0  0  0
  5 31  1  0  0  0  0
  6  7  1  0  0  0  0
  6  8  1  0  0  0  0
  7 32  1  0  0  0  0
  8  9  1  0  0  0  0
  8 33  1  0  0  0  0
  9 17  2  0  0  0  0
  9 10  1  0  0  0  0
 10 14  2  0  0  0  0
 10 11  1  0  0  0  0
 11 12  2  0  0  0  0
 11 34  1  0  0  0  0
 12 18  1  0  0  0  0
 12 44  1  0  0  0  0
 13 14  1  0  0  0  0
 13 35  1  0  0  0  0
 13 44  2  0  0  0  0
 14 15  1  0  0  0  0
 15 16  2  0  0  0  0
 16 17  1  0  0  0  0
 16 36  1  0  0  0  0
 18 19  1  0  0  0  0
 18 37  1  0  0  0  0
 19 20  1  0  0  0  0
 19 38  1  0  0  0  0
 19 39  1  0  0  0  0
 20 21  1  0  0  0  0
 20 40  1  0  0  0  0
 20 41  1  0  0  0  0
 21 22  2  0  0  0  0
 21 46  1  0  0  0  0
 22 23  1  0  0  0  0
 22 42  1  0  0  0  0
 23 24  1  0  0  0  0
 23 25  1  0  0  0  0
 25 43  1  0  0  0  0
 25 46  2  0  0  0  0
 44 45  1  0  0  0  0
 46 47  1  0  0  0  0
M  CHG  2  44   1  46   1
M  END
$$$$
ZINC03815095
  -OEChem-08230709403D

 46 49  0     0  0  0  0  0  0999 V2000
   -4.7678    4.1955    1.8282 C   0  0  0  0  0  0  0  0  0  0  0  0
   -4.6906    5.3964    3.9293 C   0  0  0  0  0  0  0  0  0  0  0  0
   -3.0207    5.8233    2.2288 C   0  0  0  0  0  0  0  0  0  0  0  0
   -2.8378    6.1251    0.7401 C   0  0  0  0  0  0  0  0  0  0  0  0
   -1.4413    6.4854    0.4828 N   0  0  0  0  0  0  0  0  0  0  0  0
   -0.9298    7.7445    0.4318 C   0  0  0  0  0  0  0  0  0  0  0  0
    0.3461    7.7043    0.1822 N   0  0  0  0  0  0  0  0  0  0  0  0
    0.7487    6.4125    0.0542 C   0  0  0  0  0  0  0  0  0  0  0  0
   -0.3969    5.6069    0.2460 C   0  0  0  0  0  0  0  0  0  0  0  0
   -0.3092    4.2334    0.1761 C   0  0  0  0  0  0  0  0  0  0  0  0
    0.9249    3.6345   -0.0869 C   0  0  0  0  0  0  0  0  0  0  0  0
    2.0814    4.4365   -0.2756 C   0  0  0  0  0  0  0  0  0  0  0  0
    1.9830    5.8254   -0.1977 C   0  0  0  0  0  0  0  0  0  0  0  0
    3.2522    3.8272   -0.5331 N   0  0  0  0  0  0  0  0  0  0  0  0
    3.3208    2.5201   -0.6022 C   0  0  0  0  0  0  0  0  0  0  0  0
    2.2708    1.7325   -0.4282 N   0  0  0  0  0  0  0  0  0  0  0  0
    1.0679    2.2271   -0.1692 C   0  0  0  0  0  0  0  0  0  0  0  0
   -0.0169    1.3935    0.0097 N   0  0  0  0  0  0  0  0  0  0  0  0
    0.1639    0.0078    0.0396 C   0  0  0  0  0  0  0  0  0  0  0  0
    1.3331   -0.5305    0.5627 C   0  0  0  0  0  0  0  0  0  0  0  0
    1.5088   -1.8999    0.5913 C   0  0  0  0  0  0  0  0  0  0  0  0
    0.5225   -2.7358    0.1005 C   0  0  0  0  0  0  0  0  0  0  0  0
   -0.6433   -2.2034   -0.4208 C   0  0  0  0  0  0  0  0  0  0  0  0
   -0.8271   -0.8338   -0.4483 C   0  0  0  0  0  0  0  0  0  0  0  0
   -1.9895   -3.3509   -1.0895 Br  0  0  0  0  0  0  0  0  0  0  0  0
   -4.1261    3.4007    2.2084 H   0  0  0  0  0  0  0  0  0  0  0  0
   -5.8098    3.9517    2.0355 H   0  0  0  0  0  0  0  0  0  0  0  0
   -4.6249    4.2945    0.7522 H   0  0  0  0  0  0  0  0  0  0  0  0
   -4.4916    6.3684    4.3807 H   0  0  0  0  0  0  0  0  0  0  0  0
   -5.7342    5.1271    4.0920 H   0  0  0  0  0  0  0  0  0  0  0  0
   -4.0461    4.6451    4.3856 H   0  0  0  0  0  0  0  0  0  0  0  0
   -2.3731    4.9941    2.5137 H   0  0  0  0  0  0  0  0  0  0  0  0
   -2.7595    6.7056    2.8132 H   0  0  0  0  0  0  0  0  0  0  0  0
   -3.4853    6.9543    0.4552 H   0  0  0  0  0  0  0  0  0  0  0  0
   -3.0989    5.2428    0.1557 H   0  0  0  0  0  0  0  0  0  0  0  0
   -1.5015    8.6490    0.5783 H   0  0  0  0  0  0  0  0  0  0  0  0
   -1.1886    3.6241    0.3241 H   0  0  0  0  0  0  0  0  0  0  0  0
    2.8580    6.4412   -0.3444 H   0  0  0  0  0  0  0  0  0  0  0  0
    4.2776    2.0646   -0.8108 H   0  0  0  0  0  0  0  0  0  0  0  0
   -0.9055    1.7690    0.1108 H   0  0  0  0  0  0  0  0  0  0  0  0
    2.1039    0.1214    0.9462 H   0  0  0  0  0  0  0  0  0  0  0  0
    2.4175   -2.3186    0.9979 H   0  0  0  0  0  0  0  0  0  0  0  0
    0.6624   -3.8064    0.1245 H   0  0  0  0  0  0  0  0  0  0  0  0
   -1.7389   -0.4186   -0.8515 H   0  0  0  0  0  0  0  0  0  0  0  0
   -4.4376    5.4826    2.4756 N   0  3  0  0  0  0  0  0  0  0  0  0
   -5.0320    6.2187    2.0767 H   0  0  0  0  0  0  0  0  0  0  0  0
  1 26  1  0  0  0  0
  1 27  1  0  0  0  0
  1 28  1  0  0  0  0
  1 45  1  0  0  0  0
  2 29  1  0  0  0  0
  2 30  1  0  0  0  0
  2 31  1  0  0  0  0
  2 45  1  0  0  0  0
  3  4  1  0  0  0  0
  3 32  1  0  0  0  0
  3 33  1  0  0  0  0
  3 45  1  0  0  0  0
  4  5  1  0  0  0  0
  4 34  1  0  0  0  0
  4 35  1  0  0  0  0
  5  9  1  0  0  0  0
  5  6  1  0  0  0  0
  6  7  2  0  0  0  0
  6 36  1  0  0  0  0
  7  8  1  0  0  0  0
  8 13  2  0  0  0  0
  8  9  1  0  0  0  0
  9 10  2  0  0  0  0
 10 11  1  0  0  0  0
 10 37  1  0  0  0  0
 11 17  2  0  0  0  0
 11 12  1  0  0  0  0
 12 13  1  0  0  0  0
 12 14  2  0  0  0  0
 13 38  1  0  0  0  0
 14 15  1  0  0  0  0
 15 16  2  0  0  0  0
 15 39  1  0  0  0  0
 16 17  1  0  0  0  0
 17 18  1  0  0  0  0
 18 19  1  0  0  0  0
 18 40  1  0  0  0  0
 19 24  2  0  0  0  0
 19 20  1  0  0  0  0
 20 21  2  0  0  0  0
 20 41  1  0  0  0  0
 21 22  1  0  0  0  0
 21 42  1  0  0  0  0
 22 23  2  0  0  0  0
 22 43  1  0  0  0  0
 23 24  1  0  0  0  0
 23 25  1  0  0  0  0
 24 44  1  0  0  0  0
 45 46  1  0  0  0  0
M  CHG  1  45   1
M  END
$$$$
ZINC03815096
  -OEChem-08230709403D

 39 41  0     0  0  0  0  0  0999 V2000
    2.1576    5.6966    0.3943 C   0  0  0  0  0  0  0  0  0  0  0  0
    2.2602    4.3225    0.4909 C   0  0  0  0  0  0  0  0  0  0  0  0
    3.3215    3.6622   -0.1146 C   0  0  0  0  0  0  0  0  0  0  0  0
    4.2799    4.3869   -0.8116 C   0  0  0  0  0  0  0  0  0  0  0  0
    4.1693    5.7608   -0.9084 C   0  0  0  0  0  0  0  0  0  0  0  0
    3.1101    6.4152   -0.3040 C   0  0  0  0  0  0  0  0  0  0  0  0
    5.4699    6.7485   -1.8618 Br  0  0  0  0  0  0  0  0  0  0  0  0
    3.4281    2.2717   -0.0180 N   0  0  0  0  0  0  0  0  0  0  0  0
    2.2914    1.4919   -0.0148 C   0  0  0  0  0  0  0  0  0  0  0  0
    2.3670    0.0967    0.2030 C   0  0  0  0  0  0  0  0  0  0  0  0
    3.5749   -0.5691    0.4254 C   0  0  0  0  0  0  0  0  0  0  0  0
    2.4714   -2.6007    0.6198 C   0  0  0  0  0  0  0  0  0  0  0  0
    1.2297   -2.0296    0.4088 C   0  0  0  0  0  0  0  0  0  0  0  0
    1.1579   -0.6486    0.1936 C   0  0  0  0  0  0  0  0  0  0  0  0
    0.0031   -0.0057   -0.0199 N   0  0  0  0  0  0  0  0  0  0  0  0
   -0.0055    1.2929   -0.2168 C   0  0  0  0  0  0  0  0  0  0  0  0
    1.0938    2.0290   -0.2171 N   0  0  0  0  0  0  0  0  0  0  0  0
    2.5604   -3.9699    0.8350 N   0  0  0  0  0  0  0  0  0  0  0  0
    1.3474   -4.7915    0.8366 C   0  0  0  0  0  0  0  0  0  0  0  0
    1.7214   -6.2525    1.0942 C   0  0  0  0  0  0  0  0  0  0  0  0
    0.2195   -7.2698    1.0962 S   0  0  0  0  0  0  0  0  0  0  0  0
   -0.5870   -6.9497    2.2216 O   0  0  0  0  0  0  0  0  0  0  0  0
   -0.3423   -7.3156   -0.2082 O   0  0  0  0  0  0  0  0  0  0  0  0
    1.3324    6.2103    0.8651 H   0  0  0  0  0  0  0  0  0  0  0  0
    1.5156    3.7620    1.0367 H   0  0  0  0  0  0  0  0  0  0  0  0
    5.1086    3.8769   -1.2801 H   0  0  0  0  0  0  0  0  0  0  0  0
    3.0277    7.4896   -0.3777 H   0  0  0  0  0  0  0  0  0  0  0  0
    4.3020    1.8556    0.0467 H   0  0  0  0  0  0  0  0  0  0  0  0
    4.5023   -0.0157    0.4358 H   0  0  0  0  0  0  0  0  0  0  0  0
    0.3358   -2.6356    0.4097 H   0  0  0  0  0  0  0  0  0  0  0  0
   -0.9528    1.7814   -0.3908 H   0  0  0  0  0  0  0  0  0  0  0  0
    3.4256   -4.3822    0.9842 H   0  0  0  0  0  0  0  0  0  0  0  0
    0.6748   -4.4448    1.6211 H   0  0  0  0  0  0  0  0  0  0  0  0
    0.8511   -4.7086   -0.1303 H   0  0  0  0  0  0  0  0  0  0  0  0
    2.3940   -6.5992    0.3097 H   0  0  0  0  0  0  0  0  0  0  0  0
    2.2177   -6.3354    2.0612 H   0  0  0  0  0  0  0  0  0  0  0  0
    3.6579   -1.9077    0.6354 N   0  3  0  0  0  0  0  0  0  0  0  0
    4.5572   -2.3762    0.7969 H   0  0  0  0  0  0  0  0  0  0  0  0
    0.7076   -8.6873    1.3588 O   0  5  0  0  0  0  0  0  0  0  0  0
  1  6  2  0  0  0  0
  1  2  1  0  0  0  0
  1 24  1  0  0  0  0
  2  3  2  0  0  0  0
  2 25  1  0  0  0  0
  3  4  1  0  0  0  0
  3  8  1  0  0  0  0
  4  5  2  0  0  0  0
  4 26  1  0  0  0  0
  5  6  1  0  0  0  0
  5  7  1  0  0  0  0
  6 27  1  0  0  0  0
  8  9  1  0  0  0  0
  8 28  1  0  0  0  0
  9 17  2  0  0  0  0
  9 10  1  0  0  0  0
 10 14  2  0  0  0  0
 10 11  1  0  0  0  0
 11 29  1  0  0  0  0
 11 37  2  0  0  0  0
 12 13  2  0  0  0  0
 12 18  1  0  0  0  0
 12 37  1  0  0  0  0
 13 14  1  0  0  0  0
 13 30  1  0  0  0  0
 14 15  1  0  0  0  0
 15 16  2  0  0  0  0
 16 17  1  0  0  0  0
 16 31  1  0  0  0  0
 18 19  1  0  0  0  0
 18 32  1  0  0  0  0
 19 20  1  0  0  0  0
 19 33  1  0  0  0  0
 19 34  1  0  0  0  0
 20 21  1  0  0  0  0
 20 35  1  0  0  0  0
 20 36  1  0  0  0  0
 21 22  2  0  0  0  0
 21 23  2  0  0  0  0
 21 39  1  0  0  0  0
 37 38  1  0  0  0  0
M  CHG  2  37   1  39  -1
M  END
$$$$
ZINC03815097
  -OEChem-08230709403D

 36 38  0     0  0  0  0  0  0999 V2000
   -1.9876    0.9754   -1.4828 C   0  0  0  0  0  0  0  0  0  0  0  0
   -0.9700    1.7492   -0.6848 C   0  0  0  0  0  0  0  0  0  0  0  0
   -0.0172    1.0758    0.0579 C   0  0  0  0  0  0  0  0  0  0  0  0
    0.9217    1.7819    0.7869 C   0  0  0  0  0  0  0  0  0  0  0  0
    0.9074    3.1631    0.7801 C   0  0  0  0  0  0  0  0  0  0  0  0
   -0.0515    3.8425    0.0400 C   0  0  0  0  0  0  0  0  0  0  0  0
   -0.9935    3.1299   -0.6914 C   0  0  0  0  0  0  0  0  0  0  0  0
   -0.0691    5.2402    0.0313 N   0  0  0  0  0  0  0  0  0  0  0  0
    1.1117    5.9450    0.1283 C   0  0  0  0  0  0  0  0  0  0  0  0
    1.1105    7.3549    0.2380 C   0  0  0  0  0  0  0  0  0  0  0  0
   -0.0649    8.1095    0.2667 C   0  0  0  0  0  0  0  0  0  0  0  0
    1.1493   10.0761    0.4689 C   0  0  0  0  0  0  0  0  0  0  0  0
    2.3633    9.4141    0.4546 C   0  0  0  0  0  0  0  0  0  0  0  0
    2.3618    8.0193    0.3396 C   0  0  0  0  0  0  0  0  0  0  0  0
    3.4849    7.2909    0.3171 N   0  0  0  0  0  0  0  0  0  0  0  0
    3.4244    5.9834    0.2078 C   0  0  0  0  0  0  0  0  0  0  0  0
    2.2834    5.3200    0.1159 N   0  0  0  0  0  0  0  0  0  0  0  0
    1.1330   11.4602    0.5829 N   0  0  0  0  0  0  0  0  0  0  0  0
    2.3924   12.2016    0.6862 C   0  0  0  0  0  0  0  0  0  0  0  0
   -2.8658    0.7862   -0.8656 H   0  0  0  0  0  0  0  0  0  0  0  0
   -2.2777    1.5538   -2.3600 H   0  0  0  0  0  0  0  0  0  0  0  0
   -1.5552    0.0264   -1.8001 H   0  0  0  0  0  0  0  0  0  0  0  0
   -0.0039   -0.0041    0.0648 H   0  0  0  0  0  0  0  0  0  0  0  0
    1.6673    1.2530    1.3619 H   0  0  0  0  0  0  0  0  0  0  0  0
    1.6409    3.7141    1.3501 H   0  0  0  0  0  0  0  0  0  0  0  0
   -1.7403    3.6551   -1.2683 H   0  0  0  0  0  0  0  0  0  0  0  0
   -0.9121    5.7142   -0.0430 H   0  0  0  0  0  0  0  0  0  0  0  0
   -1.0238    7.6180    0.1945 H   0  0  0  0  0  0  0  0  0  0  0  0
    3.2915    9.9610    0.5300 H   0  0  0  0  0  0  0  0  0  0  0  0
    4.3482    5.4242    0.1926 H   0  0  0  0  0  0  0  0  0  0  0  0
    0.2878   11.9360    0.5942 H   0  0  0  0  0  0  0  0  0  0  0  0
    2.9372   11.8709    1.5704 H   0  0  0  0  0  0  0  0  0  0  0  0
    2.9962   12.0176   -0.2025 H   0  0  0  0  0  0  0  0  0  0  0  0
    2.1808   13.2677    0.7673 H   0  0  0  0  0  0  0  0  0  0  0  0
   -0.0768    9.4624    0.3778 N   0  3  0  0  0  0  0  0  0  0  0  0
   -0.9531    9.9973    0.3930 H   0  0  0  0  0  0  0  0  0  0  0  0
  1  2  1  0  0  0  0
  1 20  1  0  0  0  0
  1 21  1  0  0  0  0
  1 22  1  0  0  0  0
  2  7  2  0  0  0  0
  2  3  1  0  0  0  0
  3  4  2  0  0  0  0
  3 23  1  0  0  0  0
  4  5  1  0  0  0  0
  4 24  1  0  0  0  0
  5  6  2  0  0  0  0
  5 25  1  0  0  0  0
  6  7  1  0  0  0  0
  6  8  1  0  0  0  0
  7 26  1  0  0  0  0
  8  9  1  0  0  0  0
  8 27  1  0  0  0  0
  9 17  2  0  0  0  0
  9 10  1  0  0  0  0
 10 14  2  0  0  0  0
 10 11  1  0  0  0  0
 11 28  1  0  0  0  0
 11 35  2  0  0  0  0
 12 13  2  0  0  0  0
 12 18  1  0  0  0  0
 12 35  1  0  0  0  0
 13 14  1  0  0  0  0
 13 29  1  0  0  0  0
 14 15  1  0  0  0  0
 15 16  2  0  0  0  0
 16 17  1  0  0  0  0
 16 30  1  0  0  0  0
 18 19  1  0  0  0  0
 18 31  1  0  0  0  0
 19 32  1  0  0  0  0
 19 33  1  0  0  0  0
 19 34  1  0  0  0  0
 35 36  1  0  0  0  0
M  CHG  1  35   1
M  END
$$$$
ZINC03815098
  -OEChem-08230709403D

 42 45  0     0  0  0  0  0  0999 V2000
    3.2477    7.8488    0.3032 C   0  0  0  0  0  0  0  0  0  0  0  0
    3.3146    6.4726    0.4008 C   0  0  0  0  0  0  0  0  0  0  0  0
    2.2783    5.6913   -0.0942 C   0  0  0  0  0  0  0  0  0  0  0  0
    1.1797    6.2968   -0.6910 C   0  0  0  0  0  0  0  0  0  0  0  0
    1.1164    7.6741   -0.7808 C   0  0  0  0  0  0  0  0  0  0  0  0
    2.1509    8.4493   -0.2864 C   0  0  0  0  0  0  0  0  0  0  0  0
   -0.3817    8.5003   -1.5864 Br  0  0  0  0  0  0  0  0  0  0  0  0
    2.3435    4.2984    0.0028 N   0  0  0  0  0  0  0  0  0  0  0  0
    1.1874    3.5634    0.1663 C   0  0  0  0  0  0  0  0  0  0  0  0
    1.2075    2.1039    0.1512 C   0  0  0  0  0  0  0  0  0  0  0  0
    2.3743    1.3571   -0.0248 C   0  0  0  0  0  0  0  0  0  0  0  0
    2.2768   -0.0238   -0.0226 C   0  0  0  0  0  0  0  0  0  0  0  0
   -0.0184    0.0184    0.3137 C   0  0  0  0  0  0  0  0  0  0  0  0
   -0.0225    1.4193    0.3255 C   0  0  0  0  0  0  0  0  0  0  0  0
   -1.1372    2.1418    0.4998 N   0  0  0  0  0  0  0  0  0  0  0  0
   -1.0977    3.4512    0.4999 C   0  0  0  0  0  0  0  0  0  0  0  0
    0.0120    4.1556    0.3433 N   0  0  0  0  0  0  0  0  0  0  0  0
    3.4275   -0.7887   -0.1973 N   0  0  0  0  0  0  0  0  0  0  0  0
    4.7235   -0.1308   -0.3815 C   0  0  0  0  0  0  0  0  0  0  0  0
    5.7977   -1.1746   -0.5474 C   0  0  0  0  0  0  0  0  0  0  0  0
    6.4753   -1.6666    0.5580 C   0  0  0  0  0  0  0  0  0  0  0  0
    7.4525   -2.6294    0.3581 C   0  0  0  0  0  0  0  0  0  0  0  0
    7.7239   -3.0567   -0.9281 C   0  0  0  0  0  0  0  0  0  0  0  0
    7.0628   -2.5628   -1.9565 N   0  0  0  0  0  0  0  0  0  0  0  0
    6.1239   -1.6494   -1.8034 C   0  0  0  0  0  0  0  0  0  0  0  0
    4.0535    8.4565    0.6877 H   0  0  0  0  0  0  0  0  0  0  0  0
    4.1717    6.0045    0.8619 H   0  0  0  0  0  0  0  0  0  0  0  0
    0.3744    5.6919   -1.0808 H   0  0  0  0  0  0  0  0  0  0  0  0
    2.1013    9.5255   -0.3617 H   0  0  0  0  0  0  0  0  0  0  0  0
    3.2016    3.8486   -0.0449 H   0  0  0  0  0  0  0  0  0  0  0  0
    3.3284    1.8445   -0.1604 H   0  0  0  0  0  0  0  0  0  0  0  0
   -0.9426   -0.5249    0.4444 H   0  0  0  0  0  0  0  0  0  0  0  0
   -2.0246    3.9876    0.6396 H   0  0  0  0  0  0  0  0  0  0  0  0
    3.3709   -1.7570   -0.1971 H   0  0  0  0  0  0  0  0  0  0  0  0
    4.6882    0.4988   -1.2706 H   0  0  0  0  0  0  0  0  0  0  0  0
    4.9460    0.4841    0.4906 H   0  0  0  0  0  0  0  0  0  0  0  0
    6.2445   -1.3111    1.5513 H   0  0  0  0  0  0  0  0  0  0  0  0
    7.9977   -3.0374    1.1964 H   0  0  0  0  0  0  0  0  0  0  0  0
    8.4866   -3.8034   -1.0927 H   0  0  0  0  0  0  0  0  0  0  0  0
    5.6036   -1.2683   -2.6697 H   0  0  0  0  0  0  0  0  0  0  0  0
    1.1063   -0.7218    0.1429 N   0  3  0  0  0  0  0  0  0  0  0  0
    1.0830   -1.7482    0.1377 H   0  0  0  0  0  0  0  0  0  0  0  0
  1  6  2  0  0  0  0
  1  2  1  0  0  0  0
  1 26  1  0  0  0  0
  2  3  2  0  0  0  0
  2 27  1  0  0  0  0
  3  4  1  0  0  0  0
  3  8  1  0  0  0  0
  4  5  2  0  0  0  0
  4 28  1  0  0  0  0
  5  6  1  0  0  0  0
  5  7  1  0  0  0  0
  6 29  1  0  0  0  0
  8  9  1  0  0  0  0
  8 30  1  0  0  0  0
  9 17  2  0  0  0  0
  9 10  1  0  0  0  0
 10 14  2  0  0  0  0
 10 11  1  0  0  0  0
 11 12  2  0  0  0  0
 11 31  1  0  0  0  0
 12 18  1  0  0  0  0
 12 41  1  0  0  0  0
 13 14  1  0  0  0  0
 13 32  1  0  0  0  0
 13 41  2  0  0  0  0
 14 15  1  0  0  0  0
 15 16  2  0  0  0  0
 16 17  1  0  0  0  0
 16 33  1  0  0  0  0
 18 19  1  0  0  0  0
 18 34  1  0  0  0  0
 19 20  1  0  0  0  0
 19 35  1  0  0  0  0
 19 36  1  0  0  0  0
 20 25  2  0  0  0  0
 20 21  1  0  0  0  0
 21 22  2  0  0  0  0
 21 37  1  0  0  0  0
 22 23  1  0  0  0  0
 22 38  1  0  0  0  0
 23 24  2  0  0  0  0
 23 39  1  0  0  0  0
 24 25  1  0  0  0  0
 25 40  1  0  0  0  0
 41 42  1  0  0  0  0
M  CHG  1  41   1
M  END
$$$$
ZINC03815099
  -OEChem-08230709403D

 53 56  0     0  0  0  0  0  0999 V2000
   -1.9932    0.9790   -1.4877 C   0  0  0  0  0  0  0  0  0  0  0  0
   -0.9721    1.7510   -0.6924 C   0  0  0  0  0  0  0  0  0  0  0  0
   -0.0145    1.0758    0.0424 C   0  0  0  0  0  0  0  0  0  0  0  0
    0.9281    1.7802    0.7685 C   0  0  0  0  0  0  0  0  0  0  0  0
    0.9128    3.1613    0.7664 C   0  0  0  0  0  0  0  0  0  0  0  0
   -0.0510    3.8425    0.0342 C   0  0  0  0  0  0  0  0  0  0  0  0
   -0.9969    3.1316   -0.6940 C   0  0  0  0  0  0  0  0  0  0  0  0
   -0.0691    5.2401    0.0295 N   0  0  0  0  0  0  0  0  0  0  0  0
    1.1128    5.9456    0.1252 C   0  0  0  0  0  0  0  0  0  0  0  0
    1.1206    7.4005    0.2434 C   0  0  0  0  0  0  0  0  0  0  0  0
   -0.0432    8.1720    0.2685 C   0  0  0  0  0  0  0  0  0  0  0  0
    0.0819    9.5457    0.3843 C   0  0  0  0  0  0  0  0  0  0  0  0
    2.3991    9.4501    0.4516 C   0  0  0  0  0  0  0  0  0  0  0  0
    2.3760    8.0541    0.3372 C   0  0  0  0  0  0  0  0  0  0  0  0
    3.4886    7.3080    0.3130 N   0  0  0  0  0  0  0  0  0  0  0  0
    3.4226    6.0042    0.2052 C   0  0  0  0  0  0  0  0  0  0  0  0
    2.2882    5.3276    0.1190 N   0  0  0  0  0  0  0  0  0  0  0  0
   -1.0655   10.3348    0.4119 N   0  0  0  0  0  0  0  0  0  0  0  0
   -2.3870    9.7094    0.3182 C   0  0  0  0  0  0  0  0  0  0  0  0
   -3.4679   10.7909    0.3717 C   0  0  0  0  0  0  0  0  0  0  0  0
   -4.9911    9.5457   -1.0413 C   0  0  0  0  0  0  0  0  0  0  0  0
   -6.3567    8.8544   -1.0751 C   0  0  0  0  0  0  0  0  0  0  0  0
   -7.3762    9.8085   -0.7657 O   0  0  0  0  0  0  0  0  0  0  0  0
   -7.2147   10.4296    0.5124 C   0  0  0  0  0  0  0  0  0  0  0  0
   -5.8577   11.1368    0.5623 C   0  0  0  0  0  0  0  0  0  0  0  0
   -2.8678    0.7865   -0.8663 H   0  0  0  0  0  0  0  0  0  0  0  0
   -2.2889    1.5604   -2.3610 H   0  0  0  0  0  0  0  0  0  0  0  0
   -1.5616    0.0317   -1.8109 H   0  0  0  0  0  0  0  0  0  0  0  0
   -0.0001   -0.0041    0.0454 H   0  0  0  0  0  0  0  0  0  0  0  0
    1.6772    1.2499    1.3376 H   0  0  0  0  0  0  0  0  0  0  0  0
    1.6497    3.7110    1.3332 H   0  0  0  0  0  0  0  0  0  0  0  0
   -1.7474    3.6582   -1.2647 H   0  0  0  0  0  0  0  0  0  0  0  0
   -0.9125    5.7140   -0.0411 H   0  0  0  0  0  0  0  0  0  0  0  0
   -1.0162    7.7085    0.1989 H   0  0  0  0  0  0  0  0  0  0  0  0
    3.3429    9.9700    0.5241 H   0  0  0  0  0  0  0  0  0  0  0  0
    4.3483    5.4481    0.1903 H   0  0  0  0  0  0  0  0  0  0  0  0
   -0.9896   11.2984    0.4931 H   0  0  0  0  0  0  0  0  0  0  0  0
   -2.4650    9.1640   -0.6223 H   0  0  0  0  0  0  0  0  0  0  0  0
   -2.5221    9.0191    1.1508 H   0  0  0  0  0  0  0  0  0  0  0  0
   -3.3899   11.3363    1.3122 H   0  0  0  0  0  0  0  0  0  0  0  0
   -3.3328   11.4812   -0.4609 H   0  0  0  0  0  0  0  0  0  0  0  0
   -4.9532   10.3146   -1.8129 H   0  0  0  0  0  0  0  0  0  0  0  0
   -4.2065    8.8105   -1.2203 H   0  0  0  0  0  0  0  0  0  0  0  0
   -6.3758    8.0500   -0.3398 H   0  0  0  0  0  0  0  0  0  0  0  0
   -6.5327    8.4431   -2.0691 H   0  0  0  0  0  0  0  0  0  0  0  0
   -7.2587    9.6710    1.2939 H   0  0  0  0  0  0  0  0  0  0  0  0
   -8.0107   11.1581    0.6662 H   0  0  0  0  0  0  0  0  0  0  0  0
   -5.7058   11.5631    1.5539 H   0  0  0  0  0  0  0  0  0  0  0  0
   -5.8337   11.9312   -0.1837 H   0  0  0  0  0  0  0  0  0  0  0  0
    1.2775   10.2140    0.4775 N   0  3  0  0  0  0  0  0  0  0  0  0
    1.3208   11.2363    0.5621 H   0  0  0  0  0  0  0  0  0  0  0  0
   -4.7956   10.1437    0.2959 N   0  3  0  0  0  0  0  0  0  0  0  0
   -4.8463    9.4021    1.0042 H   0  0  0  0  0  0  0  0  0  0  0  0
  1  2  1  0  0  0  0
  1 26  1  0  0  0  0
  1 27  1  0  0  0  0
  1 28  1  0  0  0  0
  2  7  2  0  0  0  0
  2  3  1  0  0  0  0
  3  4  2  0  0  0  0
  3 29  1  0  0  0  0
  4  5  1  0  0  0  0
  4 30  1  0  0  0  0
  5  6  2  0  0  0  0
  5 31  1  0  0  0  0
  6  7  1  0  0  0  0
  6  8  1  0  0  0  0
  7 32  1  0  0  0  0
  8  9  1  0  0  0  0
  8 33  1  0  0  0  0
  9 17  2  0  0  0  0
  9 10  1  0  0  0  0
 10 14  2  0  0  0  0
 10 11  1  0  0  0  0
 11 12  2  0  0  0  0
 11 34  1  0  0  0  0
 12 18  1  0  0  0  0
 12 50  1  0  0  0  0
 13 14  1  0  0  0  0
 13 35  1  0  0  0  0
 13 50  2  0  0  0  0
 14 15  1  0  0  0  0
 15 16  2  0  0  0  0
 16 17  1  0  0  0  0
 16 36  1  0  0  0  0
 18 19  1  0  0  0  0
 18 37  1  0  0  0  0
 19 20  1  0  0  0  0
 19 38  1  0  0  0  0
 19 39  1  0  0  0  0
 20 40  1  0  0  0  0
 20 41  1  0  0  0  0
 20 52  1  0  0  0  0
 21 22  1  0  0  0  0
 21 42  1  0  0  0  0
 21 43  1  0  0  0  0
 21 52  1  0  0  0  0
 22 23  1  0  0  0  0
 22 44  1  0  0  0  0
 22 45  1  0  0  0  0
 23 24  1  0  0  0  0
 24 25  1  0  0  0  0
 24 46  1  0  0  0  0
 24 47  1  0  0  0  0
 25 48  1  0  0  0  0
 25 49  1  0  0  0  0
 25 52  1  0  0  0  0
 50 51  1  0  0  0  0
 52 53  1  0  0  0  0
M  CHG  2  50   1  52   1
M  END
$$$$
ZINC03815100
  -OEChem-08230709403D

 28 30  0     0  0  0  0  0  0999 V2000
   -1.1108    2.9203   -0.7515 C   0  0  0  0  0  0  0  0  0  0  0  0
    0.0731    3.6319   -0.7455 C   0  0  0  0  0  0  0  0  0  0  0  0
    1.1562    3.1695   -0.0088 C   0  0  0  0  0  0  0  0  0  0  0  0
    1.0449    1.9921    0.7200 C   0  0  0  0  0  0  0  0  0  0  0  0
   -0.1421    1.2850    0.7099 C   0  0  0  0  0  0  0  0  0  0  0  0
   -1.2207    1.7517   -0.0211 C   0  0  0  0  0  0  0  0  0  0  0  0
   -0.2955   -0.3176    1.7019 Br  0  0  0  0  0  0  0  0  0  0  0  0
    2.3551    3.8876   -0.0005 N   0  0  0  0  0  0  0  0  0  0  0  0
    2.3357    5.2646   -0.0976 C   0  0  0  0  0  0  0  0  0  0  0  0
    3.5726    6.0347   -0.2111 C   0  0  0  0  0  0  0  0  0  0  0  0
    3.4639    7.4429   -0.3121 C   0  0  0  0  0  0  0  0  0  0  0  0
    4.6473    8.1940   -0.4282 C   0  0  0  0  0  0  0  0  0  0  0  0
    5.7970    7.5515   -0.4430 N   0  0  0  0  0  0  0  0  0  0  0  0
    5.8571    6.2253   -0.3515 C   0  0  0  0  0  0  0  0  0  0  0  0
    4.7783    5.4714   -0.2403 N   0  0  0  0  0  0  0  0  0  0  0  0
    7.0982    5.6122   -0.3732 N   0  0  0  0  0  0  0  0  0  0  0  0
    2.2480    7.9992   -0.2879 N   0  0  0  0  0  0  0  0  0  0  0  0
    1.1713    7.2599   -0.1787 C   0  0  0  0  0  0  0  0  0  0  0  0
    1.1935    5.9400   -0.0858 N   0  0  0  0  0  0  0  0  0  0  0  0
   -1.9531    3.2798   -1.3239 H   0  0  0  0  0  0  0  0  0  0  0  0
    0.1568    4.5467   -1.3133 H   0  0  0  0  0  0  0  0  0  0  0  0
    1.8850    1.6301    1.2941 H   0  0  0  0  0  0  0  0  0  0  0  0
   -2.1489    1.1995   -0.0243 H   0  0  0  0  0  0  0  0  0  0  0  0
    3.2009    3.4185    0.0735 H   0  0  0  0  0  0  0  0  0  0  0  0
    4.6142    9.2709   -0.5029 H   0  0  0  0  0  0  0  0  0  0  0  0
    7.9026    6.1483   -0.4539 H   0  0  0  0  0  0  0  0  0  0  0  0
    7.1634    4.6466   -0.3077 H   0  0  0  0  0  0  0  0  0  0  0  0
    0.2120    7.7558   -0.1634 H   0  0  0  0  0  0  0  0  0  0  0  0
  1  6  2  0  0  0  0
  1  2  1  0  0  0  0
  1 20  1  0  0  0  0
  2  3  2  0  0  0  0
  2 21  1  0  0  0  0
  3  4  1  0  0  0  0
  3  8  1  0  0  0  0
  4  5  2  0  0  0  0
  4 22  1  0  0  0  0
  5  6  1  0  0  0  0
  5  7  1  0  0  0  0
  6 23  1  0  0  0  0
  8  9  1  0  0  0  0
  8 24  1  0  0  0  0
  9 19  2  0  0  0  0
  9 10  1  0  0  0  0
 10 15  2  0  0  0  0
 10 11  1  0  0  0  0
 11 12  2  0  0  0  0
 11 17  1  0  0  0  0
 12 13  1  0  0  0  0
 12 25  1  0  0  0  0
 13 14  2  0  0  0  0
 14 15  1  0  0  0  0
 14 16  1  0  0  0  0
 16 26  1  0  0  0  0
 16 27  1  0  0  0  0
 17 18  2  0  0  0  0
 18 19  1  0  0  0  0
 18 28  1  0  0  0  0
M  END
$$$$
ZINC03815101
  -OEChem-08230709403D

 28 30  0     0  0  0  0  0  0999 V2000
   -1.1093    2.9180   -0.7554 C   0  0  0  0  0  0  0  0  0  0  0  0
    0.0746    3.6295   -0.7493 C   0  0  0  0  0  0  0  0  0  0  0  0
    1.1562    3.1695   -0.0089 C   0  0  0  0  0  0  0  0  0  0  0  0
    1.0434    1.9944    0.7234 C   0  0  0  0  0  0  0  0  0  0  0  0
   -0.1435    1.2873    0.7131 C   0  0  0  0  0  0  0  0  0  0  0  0
   -1.2207    1.7516   -0.0216 C   0  0  0  0  0  0  0  0  0  0  0  0
   -0.2988   -0.3125    1.7094 Br  0  0  0  0  0  0  0  0  0  0  0  0
    2.3551    3.8876   -0.0005 N   0  0  0  0  0  0  0  0  0  0  0  0
    2.3358    5.2640   -0.0975 C   0  0  0  0  0  0  0  0  0  0  0  0
    3.5415    6.0031   -0.2075 C   0  0  0  0  0  0  0  0  0  0  0  0
    3.4535    7.4117   -0.3088 C   0  0  0  0  0  0  0  0  0  0  0  0
    4.5700    8.1377   -0.4192 N   0  0  0  0  0  0  0  0  0  0  0  0
    5.7382    7.5374   -0.4381 C   0  0  0  0  0  0  0  0  0  0  0  0
    5.8259    6.1388   -0.3433 C   0  0  0  0  0  0  0  0  0  0  0  0
    4.7325    5.4057   -0.2337 N   0  0  0  0  0  0  0  0  0  0  0  0
    7.0701    5.5228   -0.3645 N   0  0  0  0  0  0  0  0  0  0  0  0
    2.2412    7.9837   -0.2860 N   0  0  0  0  0  0  0  0  0  0  0  0
    1.1588    7.2504   -0.1774 C   0  0  0  0  0  0  0  0  0  0  0  0
    1.1901    5.9308   -0.0850 N   0  0  0  0  0  0  0  0  0  0  0  0
   -1.9504    3.2757   -1.3307 H   0  0  0  0  0  0  0  0  0  0  0  0
    0.1594    4.5425   -1.3199 H   0  0  0  0  0  0  0  0  0  0  0  0
    1.8824    1.6343    1.3003 H   0  0  0  0  0  0  0  0  0  0  0  0
   -2.1490    1.1997   -0.0246 H   0  0  0  0  0  0  0  0  0  0  0  0
    3.2009    3.4185    0.0736 H   0  0  0  0  0  0  0  0  0  0  0  0
    6.6399    8.1249   -0.5277 H   0  0  0  0  0  0  0  0  0  0  0  0
    7.8750    6.0582   -0.4446 H   0  0  0  0  0  0  0  0  0  0  0  0
    7.1344    4.5572   -0.2992 H   0  0  0  0  0  0  0  0  0  0  0  0
    0.1994    7.7460   -0.1624 H   0  0  0  0  0  0  0  0  0  0  0  0
  1  6  2  0  0  0  0
  1  2  1  0  0  0  0
  1 20  1  0  0  0  0
  2  3  2  0  0  0  0
  2 21  1  0  0  0  0
  3  4  1  0  0  0  0
  3  8  1  0  0  0  0
  4  5  2  0  0  0  0
  4 22  1  0  0  0  0
  5  6  1  0  0  0  0
  5  7  1  0  0  0  0
  6 23  1  0  0  0  0
  8  9  1  0  0  0  0
  8 24  1  0  0  0  0
  9 19  2  0  0  0  0
  9 10  1  0  0  0  0
 10 15  2  0  0  0  0
 10 11  1  0  0  0  0
 11 12  2  0  0  0  0
 11 17  1  0  0  0  0
 12 13  1  0  0  0  0
 13 14  2  0  0  0  0
 13 25  1  0  0  0  0
 14 15  1  0  0  0  0
 14 16  1  0  0  0  0
 16 26  1  0  0  0  0
 16 27  1  0  0  0  0
 17 18  2  0  0  0  0
 18 19  1  0  0  0  0
 18 28  1  0  0  0  0
M  END
$$$$
ZINC03815102
  -OEChem-08230709403D

 35 37  0     0  0  0  0  0  0999 V2000
    2.1576    5.6966    0.3943 C   0  0  0  0  0  0  0  0  0  0  0  0
    2.2602    4.3225    0.4909 C   0  0  0  0  0  0  0  0  0  0  0  0
    3.3215    3.6622   -0.1146 C   0  0  0  0  0  0  0  0  0  0  0  0
    4.2799    4.3869   -0.8116 C   0  0  0  0  0  0  0  0  0  0  0  0
    4.1693    5.7608   -0.9084 C   0  0  0  0  0  0  0  0  0  0  0  0
    3.1101    6.4152   -0.3040 C   0  0  0  0  0  0  0  0  0  0  0  0
    5.4699    6.7485   -1.8618 Br  0  0  0  0  0  0  0  0  0  0  0  0
    3.4281    2.2717   -0.0180 N   0  0  0  0  0  0  0  0  0  0  0  0
    2.2914    1.4919   -0.0148 C   0  0  0  0  0  0  0  0  0  0  0  0
    2.3670    0.0967    0.2030 C   0  0  0  0  0  0  0  0  0  0  0  0
    3.5749   -0.5691    0.4254 C   0  0  0  0  0  0  0  0  0  0  0  0
    2.4714   -2.6007    0.6198 C   0  0  0  0  0  0  0  0  0  0  0  0
    1.2297   -2.0296    0.4088 C   0  0  0  0  0  0  0  0  0  0  0  0
    1.1579   -0.6486    0.1936 C   0  0  0  0  0  0  0  0  0  0  0  0
    0.0031   -0.0057   -0.0199 N   0  0  0  0  0  0  0  0  0  0  0  0
   -0.0055    1.2929   -0.2168 C   0  0  0  0  0  0  0  0  0  0  0  0
    1.0938    2.0290   -0.2171 N   0  0  0  0  0  0  0  0  0  0  0  0
    2.5604   -3.9699    0.8350 N   0  0  0  0  0  0  0  0  0  0  0  0
    1.3474   -4.7915    0.8366 C   0  0  0  0  0  0  0  0  0  0  0  0
    1.7158   -6.2306    1.0904 C   0  0  0  0  0  0  0  0  0  0  0  0
    2.8728   -6.5383    1.2532 O   0  0  0  0  0  0  0  0  0  0  0  0
    1.3324    6.2103    0.8651 H   0  0  0  0  0  0  0  0  0  0  0  0
    1.5156    3.7620    1.0367 H   0  0  0  0  0  0  0  0  0  0  0  0
    5.1086    3.8769   -1.2801 H   0  0  0  0  0  0  0  0  0  0  0  0
    3.0277    7.4896   -0.3777 H   0  0  0  0  0  0  0  0  0  0  0  0
    4.3020    1.8556    0.0467 H   0  0  0  0  0  0  0  0  0  0  0  0
    4.5023   -0.0157    0.4358 H   0  0  0  0  0  0  0  0  0  0  0  0
    0.3358   -2.6356    0.4097 H   0  0  0  0  0  0  0  0  0  0  0  0
   -0.9528    1.7814   -0.3908 H   0  0  0  0  0  0  0  0  0  0  0  0
    3.4256   -4.3822    0.9842 H   0  0  0  0  0  0  0  0  0  0  0  0
    0.6748   -4.4448    1.6211 H   0  0  0  0  0  0  0  0  0  0  0  0
    0.8511   -4.7086   -0.1303 H   0  0  0  0  0  0  0  0  0  0  0  0
    3.6579   -1.9077    0.6354 N   0  3  0  0  0  0  0  0  0  0  0  0
    4.5572   -2.3762    0.7969 H   0  0  0  0  0  0  0  0  0  0  0  0
    0.7586   -7.1704    1.1355 O   0  5  0  0  0  0  0  0  0  0  0  0
  1  6  2  0  0  0  0
  1  2  1  0  0  0  0
  1 22  1  0  0  0  0
  2  3  2  0  0  0  0
  2 23  1  0  0  0  0
  3  4  1  0  0  0  0
  3  8  1  0  0  0  0
  4  5  2  0  0  0  0
  4 24  1  0  0  0  0
  5  6  1  0  0  0  0
  5  7  1  0  0  0  0
  6 25  1  0  0  0  0
  8  9  1  0  0  0  0
  8 26  1  0  0  0  0
  9 17  2  0  0  0  0
  9 10  1  0  0  0  0
 10 14  2  0  0  0  0
 10 11  1  0  0  0  0
 11 27  1  0  0  0  0
 11 33  2  0  0  0  0
 12 13  2  0  0  0  0
 12 18  1  0  0  0  0
 12 33  1  0  0  0  0
 13 14  1  0  0  0  0
 13 28  1  0  0  0  0
 14 15  1  0  0  0  0
 15 16  2  0  0  0  0
 16 17  1  0  0  0  0
 16 29  1  0  0  0  0
 18 19  1  0  0  0  0
 18 30  1  0  0  0  0
 19 20  1  0  0  0  0
 19 31  1  0  0  0  0
 19 32  1  0  0  0  0
 20 21  2  0  0  0  0
 20 35  1  0  0  0  0
 33 34  1  0  0  0  0
M  CHG  2  33   1  35  -1
M  END
$$$$
ZINC03815103
  -OEChem-08230709403D

 43 46  0     1  0  0  0  0  0999 V2000
    3.0383   10.6703    0.4011 C   0  0  0  0  0  0  0  0  0  0  0  0
    2.4613    9.4198    0.5074 C   0  0  0  0  0  0  0  0  0  0  0  0
    3.0661    8.3238   -0.0944 C   0  0  0  0  0  0  0  0  0  0  0  0
    4.2532    8.4880   -0.7969 C   0  0  0  0  0  0  0  0  0  0  0  0
    4.8226    9.7424   -0.9040 C   0  0  0  0  0  0  0  0  0  0  0  0
    4.2170   10.8321   -0.3030 C   0  0  0  0  0  0  0  0  0  0  0  0
    6.4348    9.9691   -1.8660 Br  0  0  0  0  0  0  0  0  0  0  0  0
    2.4845    7.0572    0.0115 N   0  0  0  0  0  0  0  0  0  0  0  0
    1.1114    6.9272    0.0181 C   0  0  0  0  0  0  0  0  0  0  0  0
    0.5004    5.6678    0.2459 C   0  0  0  0  0  0  0  0  0  0  0  0
    1.2543    4.5170    0.4712 C   0  0  0  0  0  0  0  0  0  0  0  0
    0.6052    3.3099    0.6879 C   0  0  0  0  0  0  0  0  0  0  0  0
    1.0743    1.9440    0.9484 C   0  0  0  0  0  0  0  0  0  0  0  0
   -0.0143    1.1724    1.0777 C   0  0  0  0  0  0  0  0  0  0  0  0
   -1.1480    1.9255    0.9169 N   0  0  0  0  0  0  0  0  0  0  0  0
   -0.8082    3.2411    0.6820 C   0  0  0  0  0  0  0  0  0  0  0  0
   -1.5591    4.3802    0.4593 C   0  0  0  0  0  0  0  0  0  0  0  0
   -0.9181    5.6008    0.2396 C   0  0  0  0  0  0  0  0  0  0  0  0
   -1.6138    6.7300    0.0190 N   0  0  0  0  0  0  0  0  0  0  0  0
   -0.9923    7.8657   -0.1856 C   0  0  0  0  0  0  0  0  0  0  0  0
    0.3274    7.9762   -0.1888 N   0  0  0  0  0  0  0  0  0  0  0  0
   -2.5175    1.4100    0.9872 C   0  0  2  0  0  0  0  0  0  0  0  0
   -3.1449    1.9471    0.2759 H   0  0  0  0  0  0  0  0  0  0  0  0
   -3.0652    1.6086    2.4019 C   0  0  0  0  0  0  0  0  0  0  0  0
   -4.5350    1.1855    2.4439 C   0  0  0  0  0  0  0  0  0  0  0  0
   -5.0465    1.3710    3.7652 O   0  0  0  0  0  0  0  0  0  0  0  0
   -2.5192    0.0173    0.6670 O   0  0  0  0  0  0  0  0  0  0  0  0
    2.5682   11.5227    0.8690 H   0  0  0  0  0  0  0  0  0  0  0  0
    1.5405    9.2944    1.0577 H   0  0  0  0  0  0  0  0  0  0  0  0
    4.7283    7.6370   -1.2622 H   0  0  0  0  0  0  0  0  0  0  0  0
    4.6663   11.8109   -0.3839 H   0  0  0  0  0  0  0  0  0  0  0  0
    3.0465    6.2696    0.0803 H   0  0  0  0  0  0  0  0  0  0  0  0
    2.3333    4.5645    0.4767 H   0  0  0  0  0  0  0  0  0  0  0  0
    2.1024    1.6212    1.0218 H   0  0  0  0  0  0  0  0  0  0  0  0
    0.0000    0.1107    1.2752 H   0  0  0  0  0  0  0  0  0  0  0  0
   -2.6377    4.3261    0.4555 H   0  0  0  0  0  0  0  0  0  0  0  0
   -1.5838    8.7524   -0.3595 H   0  0  0  0  0  0  0  0  0  0  0  0
   -2.4921    1.0009    3.1021 H   0  0  0  0  0  0  0  0  0  0  0  0
   -2.9816    2.6593    2.6797 H   0  0  0  0  0  0  0  0  0  0  0  0
   -5.1081    1.7932    1.7437 H   0  0  0  0  0  0  0  0  0  0  0  0
   -4.6186    0.1348    2.1661 H   0  0  0  0  0  0  0  0  0  0  0  0
   -5.9756    1.1224    3.8658 H   0  0  0  0  0  0  0  0  0  0  0  0
   -1.9800   -0.5234    1.2603 H   0  0  0  0  0  0  0  0  0  0  0  0
  1  6  2  0  0  0  0
  1  2  1  0  0  0  0
  1 28  1  0  0  0  0
  2  3  2  0  0  0  0
  2 29  1  0  0  0  0
  3  4  1  0  0  0  0
  3  8  1  0  0  0  0
  4  5  2  0  0  0  0
  4 30  1  0  0  0  0
  5  6  1  0  0  0  0
  5  7  1  0  0  0  0
  6 31  1  0  0  0  0
  8  9  1  0  0  0  0
  8 32  1  0  0  0  0
  9 21  2  0  0  0  0
  9 10  1  0  0  0  0
 10 18  2  0  0  0  0
 10 11  1  0  0  0  0
 11 12  2  0  0  0  0
 11 33  1  0  0  0  0
 12 16  1  0  0  0  0
 12 13  1  0  0  0  0
 13 14  2  0  0  0  0
 13 34  1  0  0  0  0
 14 15  1  0  0  0  0
 14 35  1  0  0  0  0
 15 16  1  0  0  0  0
 15 22  1  0  0  0  0
 16 17  2  0  0  0  0
 17 18  1  0  0  0  0
 17 36  1  0  0  0  0
 18 19  1  0  0  0  0
 19 20  2  0  0  0  0
 20 21  1  0  0  0  0
 20 37  1  0  0  0  0
 22 23  1  0  0  0  0
 22 24  1  0  0  0  0
 22 27  1  0  0  0  0
 24 25  1  0  0  0  0
 24 38  1  0  0  0  0
 24 39  1  0  0  0  0
 25 26  1  0  0  0  0
 25 40  1  0  0  0  0
 25 41  1  0  0  0  0
 26 42  1  0  0  0  0
 27 43  1  0  0  0  0
M  END
$$$$
ZINC03815105
  -OEChem-08230709403D

 46 49  0     0  0  0  0  0  0999 V2000
    5.4210   -2.5818    0.2263 C   0  0  0  0  0  0  0  0  0  0  0  0
    4.1624   -2.0257    0.3470 C   0  0  0  0  0  0  0  0  0  0  0  0
    3.9181   -0.7497   -0.1445 C   0  0  0  0  0  0  0  0  0  0  0  0
    4.9399   -0.0386   -0.7609 C   0  0  0  0  0  0  0  0  0  0  0  0
    6.1980   -0.5985   -0.8742 C   0  0  0  0  0  0  0  0  0  0  0  0
    6.4375   -1.8702   -0.3833 C   0  0  0  0  0  0  0  0  0  0  0  0
    7.5917    0.3704   -1.7078 Br  0  0  0  0  0  0  0  0  0  0  0  0
    2.6454   -0.1847   -0.0242 N   0  0  0  0  0  0  0  0  0  0  0  0
    2.5084    1.1783    0.1410 C   0  0  0  0  0  0  0  0  0  0  0  0
    1.1942    1.8133    0.1499 C   0  0  0  0  0  0  0  0  0  0  0  0
    0.0010    1.1042   -0.0040 C   0  0  0  0  0  0  0  0  0  0  0  0
   -1.1897    1.8101    0.0151 C   0  0  0  0  0  0  0  0  0  0  0  0
   -0.1189    3.8432    0.3355 C   0  0  0  0  0  0  0  0  0  0  0  0
    1.1356    3.2198    0.3244 C   0  0  0  0  0  0  0  0  0  0  0  0
    2.2839    3.8941    0.4719 N   0  0  0  0  0  0  0  0  0  0  0  0
    3.4367    3.2722    0.4559 C   0  0  0  0  0  0  0  0  0  0  0  0
    3.5671    1.9645    0.2978 N   0  0  0  0  0  0  0  0  0  0  0  0
   -2.3915    1.1241   -0.1428 N   0  0  0  0  0  0  0  0  0  0  0  0
   -2.3866   -0.3294   -0.3266 C   0  0  0  0  0  0  0  0  0  0  0  0
   -3.8249   -0.8295   -0.4749 C   0  0  0  0  0  0  0  0  0  0  0  0
   -3.8198   -2.3474   -0.6669 C   0  0  0  0  0  0  0  0  0  0  0  0
   -5.1970   -2.8263   -0.8089 N   0  0  0  0  0  0  0  0  0  0  0  0
   -6.0231   -3.2352    0.2030 C   0  0  0  0  0  0  0  0  0  0  0  0
   -7.1915   -3.5879   -0.3663 C   0  0  0  0  0  0  0  0  0  0  0  0
   -7.0785   -3.4084   -1.6907 N   0  0  0  0  0  0  0  0  0  0  0  0
   -5.8865   -2.9523   -1.9631 C   0  0  0  0  0  0  0  0  0  0  0  0
    5.6112   -3.5739    0.6084 H   0  0  0  0  0  0  0  0  0  0  0  0
    3.3690   -2.5824    0.8234 H   0  0  0  0  0  0  0  0  0  0  0  0
    4.7521    0.9521   -1.1478 H   0  0  0  0  0  0  0  0  0  0  0  0
    7.4205   -2.3076   -0.4769 H   0  0  0  0  0  0  0  0  0  0  0  0
    1.8584   -0.7508   -0.0569 H   0  0  0  0  0  0  0  0  0  0  0  0
    0.0072    0.0327   -0.1390 H   0  0  0  0  0  0  0  0  0  0  0  0
   -0.1886    4.9129    0.4668 H   0  0  0  0  0  0  0  0  0  0  0  0
    4.3335    3.8611    0.5794 H   0  0  0  0  0  0  0  0  0  0  0  0
   -3.2317    1.6086   -0.1310 H   0  0  0  0  0  0  0  0  0  0  0  0
   -1.8203   -0.5802   -1.2236 H   0  0  0  0  0  0  0  0  0  0  0  0
   -1.9245   -0.8035    0.5393 H   0  0  0  0  0  0  0  0  0  0  0  0
   -4.3911   -0.5786    0.4221 H   0  0  0  0  0  0  0  0  0  0  0  0
   -4.2870   -0.3553   -1.3408 H   0  0  0  0  0  0  0  0  0  0  0  0
   -3.2535   -2.5983   -1.5638 H   0  0  0  0  0  0  0  0  0  0  0  0
   -3.3577   -2.8216    0.1990 H   0  0  0  0  0  0  0  0  0  0  0  0
   -5.7847   -3.2665    1.2559 H   0  0  0  0  0  0  0  0  0  0  0  0
   -8.0645   -3.9560    0.1521 H   0  0  0  0  0  0  0  0  0  0  0  0
   -5.5135   -2.7146   -2.9484 H   0  0  0  0  0  0  0  0  0  0  0  0
   -1.2872    3.1686    0.1872 N   0  3  0  0  0  0  0  0  0  0  0  0
   -2.1948    3.6483    0.2028 H   0  0  0  0  0  0  0  0  0  0  0  0
  1  6  2  0  0  0  0
  1  2  1  0  0  0  0
  1 27  1  0  0  0  0
  2  3  2  0  0  0  0
  2 28  1  0  0  0  0
  3  4  1  0  0  0  0
  3  8  1  0  0  0  0
  4  5  2  0  0  0  0
  4 29  1  0  0  0  0
  5  6  1  0  0  0  0
  5  7  1  0  0  0  0
  6 30  1  0  0  0  0
  8  9  1  0  0  0  0
  8 31  1  0  0  0  0
  9 17  2  0  0  0  0
  9 10  1  0  0  0  0
 10 14  2  0  0  0  0
 10 11  1  0  0  0  0
 11 12  2  0  0  0  0
 11 32  1  0  0  0  0
 12 18  1  0  0  0  0
 12 45  1  0  0  0  0
 13 14  1  0  0  0  0
 13 33  1  0  0  0  0
 13 45  2  0  0  0  0
 14 15  1  0  0  0  0
 15 16  2  0  0  0  0
 16 17  1  0  0  0  0
 16 34  1  0  0  0  0
 18 19  1  0  0  0  0
 18 35  1  0  0  0  0
 19 20  1  0  0  0  0
 19 36  1  0  0  0  0
 19 37  1  0  0  0  0
 20 21  1  0  0  0  0
 20 38  1  0  0  0  0
 20 39  1  0  0  0  0
 21 22  1  0  0  0  0
 21 40  1  0  0  0  0
 21 41  1  0  0  0  0
 22 26  1  0  0  0  0
 22 23  1  0  0  0  0
 23 24  2  0  0  0  0
 23 42  1  0  0  0  0
 24 25  1  0  0  0  0
 24 43  1  0  0  0  0
 25 26  2  0  0  0  0
 26 44  1  0  0  0  0
 45 46  1  0  0  0  0
M  CHG  1  45   1
M  END
$$$$
ZINC03815105
  -OEChem-08230709403D

 47 50  0     0  0  0  0  0  0999 V2000
    5.4210   -2.5818    0.2263 C   0  0  0  0  0  0  0  0  0  0  0  0
    4.1624   -2.0257    0.3470 C   0  0  0  0  0  0  0  0  0  0  0  0
    3.9181   -0.7497   -0.1445 C   0  0  0  0  0  0  0  0  0  0  0  0
    4.9399   -0.0386   -0.7609 C   0  0  0  0  0  0  0  0  0  0  0  0
    6.1980   -0.5985   -0.8742 C   0  0  0  0  0  0  0  0  0  0  0  0
    6.4375   -1.8702   -0.3833 C   0  0  0  0  0  0  0  0  0  0  0  0
    7.5917    0.3704   -1.7078 Br  0  0  0  0  0  0  0  0  0  0  0  0
    2.6454   -0.1847   -0.0242 N   0  0  0  0  0  0  0  0  0  0  0  0
    2.5084    1.1783    0.1410 C   0  0  0  0  0  0  0  0  0  0  0  0
    1.1942    1.8133    0.1499 C   0  0  0  0  0  0  0  0  0  0  0  0
    0.0010    1.1042   -0.0040 C   0  0  0  0  0  0  0  0  0  0  0  0
   -1.1897    1.8101    0.0151 C   0  0  0  0  0  0  0  0  0  0  0  0
   -0.1189    3.8432    0.3355 C   0  0  0  0  0  0  0  0  0  0  0  0
    1.1356    3.2198    0.3244 C   0  0  0  0  0  0  0  0  0  0  0  0
    2.2839    3.8941    0.4719 N   0  0  0  0  0  0  0  0  0  0  0  0
    3.4367    3.2722    0.4559 C   0  0  0  0  0  0  0  0  0  0  0  0
    3.5671    1.9645    0.2978 N   0  0  0  0  0  0  0  0  0  0  0  0
   -2.3915    1.1241   -0.1428 N   0  0  0  0  0  0  0  0  0  0  0  0
   -2.3866   -0.3294   -0.3266 C   0  0  0  0  0  0  0  0  0  0  0  0
   -3.8249   -0.8295   -0.4749 C   0  0  0  0  0  0  0  0  0  0  0  0
   -3.8198   -2.3474   -0.6669 C   0  0  0  0  0  0  0  0  0  0  0  0
   -5.1970   -2.8263   -0.8089 N   0  0  0  0  0  0  0  0  0  0  0  0
   -6.0231   -3.2352    0.2030 C   0  0  0  0  0  0  0  0  0  0  0  0
   -7.1915   -3.5879   -0.3663 C   0  0  0  0  0  0  0  0  0  0  0  0
   -5.8865   -2.9523   -1.9631 C   0  0  0  0  0  0  0  0  0  0  0  0
    5.6112   -3.5739    0.6084 H   0  0  0  0  0  0  0  0  0  0  0  0
    3.3690   -2.5824    0.8234 H   0  0  0  0  0  0  0  0  0  0  0  0
    4.7521    0.9521   -1.1478 H   0  0  0  0  0  0  0  0  0  0  0  0
    7.4205   -2.3076   -0.4769 H   0  0  0  0  0  0  0  0  0  0  0  0
    1.8584   -0.7508   -0.0569 H   0  0  0  0  0  0  0  0  0  0  0  0
    0.0072    0.0327   -0.1390 H   0  0  0  0  0  0  0  0  0  0  0  0
   -0.1886    4.9129    0.4668 H   0  0  0  0  0  0  0  0  0  0  0  0
    4.3335    3.8611    0.5794 H   0  0  0  0  0  0  0  0  0  0  0  0
   -3.2317    1.6086   -0.1310 H   0  0  0  0  0  0  0  0  0  0  0  0
   -1.8203   -0.5802   -1.2236 H   0  0  0  0  0  0  0  0  0  0  0  0
   -1.9245   -0.8035    0.5393 H   0  0  0  0  0  0  0  0  0  0  0  0
   -4.3911   -0.5786    0.4221 H   0  0  0  0  0  0  0  0  0  0  0  0
   -4.2870   -0.3553   -1.3408 H   0  0  0  0  0  0  0  0  0  0  0  0
   -3.2535   -2.5983   -1.5638 H   0  0  0  0  0  0  0  0  0  0  0  0
   -3.3577   -2.8216    0.1990 H   0  0  0  0  0  0  0  0  0  0  0  0
   -5.7847   -3.2665    1.2559 H   0  0  0  0  0  0  0  0  0  0  0  0
   -8.0645   -3.9560    0.1521 H   0  0  0  0  0  0  0  0  0  0  0  0
   -5.5135   -2.7146   -2.9484 H   0  0  0  0  0  0  0  0  0  0  0  0
   -1.2872    3.1686    0.1872 N   0  3  0  0  0  0  0  0  0  0  0  0
   -2.1948    3.6483    0.2028 H   0  0  0  0  0  0  0  0  0  0  0  0
   -7.0775   -3.4082   -1.6898 N   0  3  0  0  0  0  0  0  0  0  0  0
   -7.8129   -3.5994   -2.3804 H   0  0  0  0  0  0  0  0  0  0  0  0
  1  6  2  0  0  0  0
  1  2  1  0  0  0  0
  1 26  1  0  0  0  0
  2  3  2  0  0  0  0
  2 27  1  0  0  0  0
  3  4  1  0  0  0  0
  3  8  1  0  0  0  0
  4  5  2  0  0  0  0
  4 28  1  0  0  0  0
  5  6  1  0  0  0  0
  5  7  1  0  0  0  0
  6 29  1  0  0  0  0
  8  9  1  0  0  0  0
  8 30  1  0  0  0  0
  9 17  2  0  0  0  0
  9 10  1  0  0  0  0
 10 14  2  0  0  0  0
 10 11  1  0  0  0  0
 11 12  2  0  0  0  0
 11 31  1  0  0  0  0
 12 18  1  0  0  0  0
 12 44  1  0  0  0  0
 13 14  1  0  0  0  0
 13 32  1  0  0  0  0
 13 44  2  0  0  0  0
 14 15  1  0  0  0  0
 15 16  2  0  0  0  0
 16 17  1  0  0  0  0
 16 33  1  0  0  0  0
 18 19  1  0  0  0  0
 18 34  1  0  0  0  0
 19 20  1  0  0  0  0
 19 35  1  0  0  0  0
 19 36  1  0  0  0  0
 20 21  1  0  0  0  0
 20 37  1  0  0  0  0
 20 38  1  0  0  0  0
 21 22  1  0  0  0  0
 21 39  1  0  0  0  0
 21 40  1  0  0  0  0
 22 25  1  0  0  0  0
 22 23  1  0  0  0  0
 23 24  2  0  0  0  0
 23 41  1  0  0  0  0
 24 42  1  0  0  0  0
 24 46  1  0  0  0  0
 25 43  1  0  0  0  0
 25 46  2  0  0  0  0
 44 45  1  0  0  0  0
 46 47  1  0  0  0  0
M  CHG  2  44   1  46   1
M  END
$$$$
ZINC03815106
  -OEChem-08230709403D

 32 35  0     0  0  0  0  0  0999 V2000
   -6.4187   -4.6352   -0.2512 C   0  0  0  0  0  0  0  0  0  0  0  0
   -5.1905   -4.0136   -0.3657 C   0  0  0  0  0  0  0  0  0  0  0  0
   -5.0120   -2.7324    0.1402 C   0  0  0  0  0  0  0  0  0  0  0  0
   -6.0687   -2.0819    0.7647 C   0  0  0  0  0  0  0  0  0  0  0  0
   -7.2962   -2.7072    0.8717 C   0  0  0  0  0  0  0  0  0  0  0  0
   -7.4701   -3.9839    0.3664 C   0  0  0  0  0  0  0  0  0  0  0  0
   -8.7374   -1.8209    1.7163 Br  0  0  0  0  0  0  0  0  0  0  0  0
   -3.7702   -2.1012    0.0262 N   0  0  0  0  0  0  0  0  0  0  0  0
   -3.7039   -0.7336   -0.1241 C   0  0  0  0  0  0  0  0  0  0  0  0
   -2.4186   -0.0283   -0.1259 C   0  0  0  0  0  0  0  0  0  0  0  0
   -1.2127   -0.6942    0.0223 C   0  0  0  0  0  0  0  0  0  0  0  0
   -0.0205    0.0360    0.0125 C   0  0  0  0  0  0  0  0  0  0  0  0
   -0.0513    1.4921   -0.1532 C   0  0  0  0  0  0  0  0  0  0  0  0
   -1.2701    2.1577   -0.2958 C   0  0  0  0  0  0  0  0  0  0  0  0
   -2.4528    1.4288   -0.2919 C   0  0  0  0  0  0  0  0  0  0  0  0
   -3.6545    2.0187   -0.4312 N   0  0  0  0  0  0  0  0  0  0  0  0
   -4.7549    1.3115   -0.4177 C   0  0  0  0  0  0  0  0  0  0  0  0
   -4.8007   -0.0022   -0.2726 N   0  0  0  0  0  0  0  0  0  0  0  0
    1.1080    2.1695   -0.1594 N   0  0  0  0  0  0  0  0  0  0  0  0
    2.2382    1.5202   -0.0186 C   0  0  0  0  0  0  0  0  0  0  0  0
    2.2665    0.1313    0.1399 C   0  0  0  0  0  0  0  0  0  0  0  0
    1.1639   -0.5776    0.1531 N   0  0  0  0  0  0  0  0  0  0  0  0
   -6.5577   -5.6314   -0.6445 H   0  0  0  0  0  0  0  0  0  0  0  0
   -4.3697   -4.5233   -0.8484 H   0  0  0  0  0  0  0  0  0  0  0  0
   -5.9319   -1.0874    1.1630 H   0  0  0  0  0  0  0  0  0  0  0  0
   -8.4292   -4.4725    0.4552 H   0  0  0  0  0  0  0  0  0  0  0  0
   -2.9550   -2.6262    0.0530 H   0  0  0  0  0  0  0  0  0  0  0  0
   -1.1938   -1.7672    0.1438 H   0  0  0  0  0  0  0  0  0  0  0  0
   -1.2929    3.2305   -0.4176 H   0  0  0  0  0  0  0  0  0  0  0  0
   -5.6913    1.8370   -0.5333 H   0  0  0  0  0  0  0  0  0  0  0  0
    3.1677    2.0701   -0.0251 H   0  0  0  0  0  0  0  0  0  0  0  0
    3.2172   -0.3683    0.2535 H   0  0  0  0  0  0  0  0  0  0  0  0
  1  6  2  0  0  0  0
  1  2  1  0  0  0  0
  1 23  1  0  0  0  0
  2  3  2  0  0  0  0
  2 24  1  0  0  0  0
  3  4  1  0  0  0  0
  3  8  1  0  0  0  0
  4  5  2  0  0  0  0
  4 25  1  0  0  0  0
  5  6  1  0  0  0  0
  5  7  1  0  0  0  0
  6 26  1  0  0  0  0
  8  9  1  0  0  0  0
  8 27  1  0  0  0  0
  9 18  2  0  0  0  0
  9 10  1  0  0  0  0
 10 15  2  0  0  0  0
 10 11  1  0  0  0  0
 11 12  2  0  0  0  0
 11 28  1  0  0  0  0
 12 22  1  0  0  0  0
 12 13  1  0  0  0  0
 13 14  2  0  0  0  0
 13 19  1  0  0  0  0
 14 15  1  0  0  0  0
 14 29  1  0  0  0  0
 15 16  1  0  0  0  0
 16 17  2  0  0  0  0
 17 18  1  0  0  0  0
 17 30  1  0  0  0  0
 19 20  2  0  0  0  0
 20 21  1  0  0  0  0
 20 31  1  0  0  0  0
 21 22  2  0  0  0  0
 21 32  1  0  0  0  0
M  END
$$$$
ZINC03815107
  -OEChem-08230709403D

 31 34  0     0  0  0  0  0  0999 V2000
   -1.2547    1.7947    0.3980 C   0  0  0  0  0  0  0  0  0  0  0  0
   -0.0672    1.1027    0.2073 C   0  0  0  0  0  0  0  0  0  0  0  0
    1.1124    1.8050    0.0619 C   0  0  0  0  0  0  0  0  0  0  0  0
    1.0972    3.1847    0.1137 C   0  0  0  0  0  0  0  0  0  0  0  0
   -0.0884    3.9117    0.3114 C   0  0  0  0  0  0  0  0  0  0  0  0
   -1.2784    3.1641    0.4554 C   0  0  0  0  0  0  0  0  0  0  0  0
    0.0575    5.3802    0.3438 C   0  0  0  0  0  0  0  0  0  0  0  0
    1.3578    5.8712    0.1740 C   0  0  0  0  0  0  0  0  0  0  0  0
    2.3605    4.4240   -0.0234 S   0  0  0  0  0  0  0  0  0  0  0  0
    1.6125    7.2360    0.1879 C   0  0  0  0  0  0  0  0  0  0  0  0
    0.5867    8.0678    0.3666 N   0  0  0  0  0  0  0  0  0  0  0  0
   -0.6333    7.5883    0.5248 C   0  0  0  0  0  0  0  0  0  0  0  0
   -0.9098    6.3084    0.5177 N   0  0  0  0  0  0  0  0  0  0  0  0
    2.9011    7.7211    0.0196 N   0  0  0  0  0  0  0  0  0  0  0  0
    3.1222    9.0976   -0.0794 C   0  0  0  0  0  0  0  0  0  0  0  0
    4.2970    9.6512    0.4142 C   0  0  0  0  0  0  0  0  0  0  0  0
    4.5130   11.0115    0.3146 C   0  0  0  0  0  0  0  0  0  0  0  0
    3.5618   11.8230   -0.2762 C   0  0  0  0  0  0  0  0  0  0  0  0
    2.3906   11.2754   -0.7689 C   0  0  0  0  0  0  0  0  0  0  0  0
    2.1706    9.9140   -0.6766 C   0  0  0  0  0  0  0  0  0  0  0  0
    1.0934   12.3894   -1.5764 Br  0  0  0  0  0  0  0  0  0  0  0  0
   -2.1772    1.2438    0.5071 H   0  0  0  0  0  0  0  0  0  0  0  0
   -0.0664    0.0234    0.1684 H   0  0  0  0  0  0  0  0  0  0  0  0
    2.0424    1.2779   -0.0919 H   0  0  0  0  0  0  0  0  0  0  0  0
   -2.2165    3.6766    0.6092 H   0  0  0  0  0  0  0  0  0  0  0  0
   -1.4442    8.2871    0.6676 H   0  0  0  0  0  0  0  0  0  0  0  0
    3.6487    7.1051   -0.0293 H   0  0  0  0  0  0  0  0  0  0  0  0
    5.0405    9.0183    0.8758 H   0  0  0  0  0  0  0  0  0  0  0  0
    5.4262   11.4420    0.6982 H   0  0  0  0  0  0  0  0  0  0  0  0
    3.7336   12.8864   -0.3534 H   0  0  0  0  0  0  0  0  0  0  0  0
    1.2582    9.4862   -1.0650 H   0  0  0  0  0  0  0  0  0  0  0  0
  1  6  2  0  0  0  0
  1  2  1  0  0  0  0
  1 22  1  0  0  0  0
  2  3  2  0  0  0  0
  2 23  1  0  0  0  0
  3  4  1  0  0  0  0
  3 24  1  0  0  0  0
  4  9  1  0  0  0  0
  4  5  2  0  0  0  0
  5  6  1  0  0  0  0
  5  7  1  0  0  0  0
  6 25  1  0  0  0  0
  7 13  2  0  0  0  0
  7  8  1  0  0  0  0
  8  9  1  0  0  0  0
  8 10  2  0  0  0  0
 10 11  1  0  0  0  0
 10 14  1  0  0  0  0
 11 12  2  0  0  0  0
 12 13  1  0  0  0  0
 12 26  1  0  0  0  0
 14 15  1  0  0  0  0
 14 27  1  0  0  0  0
 15 20  2  0  0  0  0
 15 16  1  0  0  0  0
 16 17  2  0  0  0  0
 16 28  1  0  0  0  0
 17 18  1  0  0  0  0
 17 29  1  0  0  0  0
 18 19  2  0  0  0  0
 18 30  1  0  0  0  0
 19 20  1  0  0  0  0
 19 21  1  0  0  0  0
 20 31  1  0  0  0  0
M  END
$$$$
ZINC03815108
  -OEChem-08230709403D

 51 53  0     0  0  0  0  0  0999 V2000
   -6.1763   -6.5856    0.2415 C   0  0  0  0  0  0  0  0  0  0  0  0
   -7.9941   -6.3282   -1.3371 C   0  0  0  0  0  0  0  0  0  0  0  0
   -6.5962   -4.4312   -0.7807 C   0  0  0  0  0  0  0  0  0  0  0  0
   -5.1405   -3.9816   -0.6407 C   0  0  0  0  0  0  0  0  0  0  0  0
   -5.0914   -2.4643   -0.4498 C   0  0  0  0  0  0  0  0  0  0  0  0
   -3.6357   -2.0147   -0.3098 C   0  0  0  0  0  0  0  0  0  0  0  0
   -3.5888   -0.5619   -0.1270 N   0  0  0  0  0  0  0  0  0  0  0  0
   -2.3630    0.0818    0.0237 C   0  0  0  0  0  0  0  0  0  0  0  0
   -1.1975   -0.6654   -0.0016 C   0  0  0  0  0  0  0  0  0  0  0  0
    0.0199    0.0007    0.1514 C   0  0  0  0  0  0  0  0  0  0  0  0
    0.0114    1.4088    0.3255 C   0  0  0  0  0  0  0  0  0  0  0  0
   -1.2200    2.0755    0.3424 C   0  0  0  0  0  0  0  0  0  0  0  0
    1.1832    2.0418    0.4722 N   0  0  0  0  0  0  0  0  0  0  0  0
    2.3130    1.3791    0.4558 C   0  0  0  0  0  0  0  0  0  0  0  0
    2.3968    0.0675    0.2981 N   0  0  0  0  0  0  0  0  0  0  0  0
    1.3108   -0.6806    0.1421 C   0  0  0  0  0  0  0  0  0  0  0  0
    1.3992   -2.0476   -0.0228 N   0  0  0  0  0  0  0  0  0  0  0  0
    2.6510   -2.6575   -0.1435 C   0  0  0  0  0  0  0  0  0  0  0  0
    2.8501   -3.9416    0.3485 C   0  0  0  0  0  0  0  0  0  0  0  0
    4.0878   -4.5418    0.2275 C   0  0  0  0  0  0  0  0  0  0  0  0
    5.1289   -3.8668   -0.3832 C   0  0  0  0  0  0  0  0  0  0  0  0
    4.9344   -2.5882   -0.8748 C   0  0  0  0  0  0  0  0  0  0  0  0
    3.6967   -1.9836   -0.7606 C   0  0  0  0  0  0  0  0  0  0  0  0
    6.3609   -1.6700   -1.7100 Br  0  0  0  0  0  0  0  0  0  0  0  0
   -6.8127   -6.3188    1.0852 H   0  0  0  0  0  0  0  0  0  0  0  0
   -6.2215   -7.6624    0.0785 H   0  0  0  0  0  0  0  0  0  0  0  0
   -5.1482   -6.2933    0.4552 H   0  0  0  0  0  0  0  0  0  0  0  0
   -8.2876   -5.8488   -2.2709 H   0  0  0  0  0  0  0  0  0  0  0  0
   -8.0008   -7.4105   -1.4666 H   0  0  0  0  0  0  0  0  0  0  0  0
   -8.6964   -6.0521   -0.5505 H   0  0  0  0  0  0  0  0  0  0  0  0
   -7.1482   -4.1603    0.1193 H   0  0  0  0  0  0  0  0  0  0  0  0
   -7.0463   -3.9416   -1.6442 H   0  0  0  0  0  0  0  0  0  0  0  0
   -4.5884   -4.2525   -1.5407 H   0  0  0  0  0  0  0  0  0  0  0  0
   -4.6904   -4.4712    0.2229 H   0  0  0  0  0  0  0  0  0  0  0  0
   -5.6435   -2.1934    0.4502 H   0  0  0  0  0  0  0  0  0  0  0  0
   -5.5415   -1.9747   -1.3133 H   0  0  0  0  0  0  0  0  0  0  0  0
   -3.0837   -2.2856   -1.2098 H   0  0  0  0  0  0  0  0  0  0  0  0
   -3.1856   -2.5043    0.5537 H   0  0  0  0  0  0  0  0  0  0  0  0
   -4.4115   -0.0483   -0.1109 H   0  0  0  0  0  0  0  0  0  0  0  0
   -1.2293   -1.7366   -0.1359 H   0  0  0  0  0  0  0  0  0  0  0  0
   -1.2516    3.1470    0.4735 H   0  0  0  0  0  0  0  0  0  0  0  0
    3.2304    1.9358    0.5779 H   0  0  0  0  0  0  0  0  0  0  0  0
    0.5925   -2.5854   -0.0548 H   0  0  0  0  0  0  0  0  0  0  0  0
    2.0377   -4.4696    0.8256 H   0  0  0  0  0  0  0  0  0  0  0  0
    4.2428   -5.5399    0.6098 H   0  0  0  0  0  0  0  0  0  0  0  0
    6.0958   -4.3388   -0.4768 H   0  0  0  0  0  0  0  0  0  0  0  0
    3.5441   -0.9870   -1.1477 H   0  0  0  0  0  0  0  0  0  0  0  0
   -6.6255   -5.8947   -0.9855 N   0  3  0  0  0  0  0  0  0  0  0  0
   -5.9909   -6.1364   -1.7557 H   0  0  0  0  0  0  0  0  0  0  0  0
   -2.4116    1.4433    0.1898 N   0  3  0  0  0  0  0  0  0  0  0  0
   -3.3012    1.9560    0.1983 H   0  0  0  0  0  0  0  0  0  0  0  0
  1 25  1  0  0  0  0
  1 26  1  0  0  0  0
  1 27  1  0  0  0  0
  1 48  1  0  0  0  0
  2 28  1  0  0  0  0
  2 29  1  0  0  0  0
  2 30  1  0  0  0  0
  2 48  1  0  0  0  0
  3  4  1  0  0  0  0
  3 31  1  0  0  0  0
  3 32  1  0  0  0  0
  3 48  1  0  0  0  0
  4  5  1  0  0  0  0
  4 33  1  0  0  0  0
  4 34  1  0  0  0  0
  5  6  1  0  0  0  0
  5 35  1  0  0  0  0
  5 36  1  0  0  0  0
  6  7  1  0  0  0  0
  6 37  1  0  0  0  0
  6 38  1  0  0  0  0
  7  8  1  0  0  0  0
  7 39  1  0  0  0  0
  8  9  2  0  0  0  0
  8 50  1  0  0  0  0
  9 10  1  0  0  0  0
  9 40  1  0  0  0  0
 10 16  2  0  0  0  0
 10 11  1  0  0  0  0
 11 12  1  0  0  0  0
 11 13  2  0  0  0  0
 12 41  1  0  0  0  0
 12 50  2  0  0  0  0
 13 14  1  0  0  0  0
 14 15  2  0  0  0  0
 14 42  1  0  0  0  0
 15 16  1  0  0  0  0
 16 17  1  0  0  0  0
 17 18  1  0  0  0  0
 17 43  1  0  0  0  0
 18 23  2  0  0  0  0
 18 19  1  0  0  0  0
 19 20  2  0  0  0  0
 19 44  1  0  0  0  0
 20 21  1  0  0  0  0
 20 45  1  0  0  0  0
 21 22  2  0  0  0  0
 21 46  1  0  0  0  0
 22 23  1  0  0  0  0
 22 24  1  0  0  0  0
 23 47  1  0  0  0  0
 48 49  1  0  0  0  0
 50 51  1  0  0  0  0
M  CHG  2  48   1  50   1
M  END
$$$$
ZINC03815109
  -OEChem-08230709403D

 56 59  0     0  0  0  0  0  0999 V2000
   -1.9932    0.9790   -1.4877 C   0  0  0  0  0  0  0  0  0  0  0  0
   -0.9721    1.7510   -0.6924 C   0  0  0  0  0  0  0  0  0  0  0  0
   -0.0145    1.0758    0.0424 C   0  0  0  0  0  0  0  0  0  0  0  0
    0.9281    1.7802    0.7685 C   0  0  0  0  0  0  0  0  0  0  0  0
    0.9128    3.1613    0.7664 C   0  0  0  0  0  0  0  0  0  0  0  0
   -0.0510    3.8425    0.0342 C   0  0  0  0  0  0  0  0  0  0  0  0
   -0.9969    3.1316   -0.6940 C   0  0  0  0  0  0  0  0  0  0  0  0
   -0.0691    5.2401    0.0295 N   0  0  0  0  0  0  0  0  0  0  0  0
    1.1128    5.9456    0.1252 C   0  0  0  0  0  0  0  0  0  0  0  0
    1.1206    7.4005    0.2434 C   0  0  0  0  0  0  0  0  0  0  0  0
   -0.0432    8.1720    0.2685 C   0  0  0  0  0  0  0  0  0  0  0  0
    0.0819    9.5457    0.3843 C   0  0  0  0  0  0  0  0  0  0  0  0
    2.3991    9.4501    0.4516 C   0  0  0  0  0  0  0  0  0  0  0  0
    2.3760    8.0541    0.3372 C   0  0  0  0  0  0  0  0  0  0  0  0
    3.4886    7.3080    0.3130 N   0  0  0  0  0  0  0  0  0  0  0  0
    3.4226    6.0042    0.2052 C   0  0  0  0  0  0  0  0  0  0  0  0
    2.2882    5.3276    0.1190 N   0  0  0  0  0  0  0  0  0  0  0  0
   -1.0655   10.3348    0.4119 N   0  0  0  0  0  0  0  0  0  0  0  0
   -2.3870    9.7094    0.3182 C   0  0  0  0  0  0  0  0  0  0  0  0
   -3.4679   10.7909    0.3717 C   0  0  0  0  0  0  0  0  0  0  0  0
   -4.8481   10.1377    0.2739 C   0  0  0  0  0  0  0  0  0  0  0  0
   -5.9095   11.8327    1.6405 C   0  0  0  0  0  0  0  0  0  0  0  0
   -6.9617   12.9448    1.6308 C   0  0  0  0  0  0  0  0  0  0  0  0
   -8.2320   12.3893    1.2802 O   0  0  0  0  0  0  0  0  0  0  0  0
   -8.2453   11.7424    0.0048 C   0  0  0  0  0  0  0  0  0  0  0  0
   -7.2061   10.6181   -0.0020 C   0  0  0  0  0  0  0  0  0  0  0  0
   -2.8678    0.7865   -0.8663 H   0  0  0  0  0  0  0  0  0  0  0  0
   -2.2889    1.5604   -2.3610 H   0  0  0  0  0  0  0  0  0  0  0  0
   -1.5616    0.0317   -1.8109 H   0  0  0  0  0  0  0  0  0  0  0  0
   -0.0001   -0.0041    0.0454 H   0  0  0  0  0  0  0  0  0  0  0  0
    1.6772    1.2499    1.3376 H   0  0  0  0  0  0  0  0  0  0  0  0
    1.6497    3.7110    1.3332 H   0  0  0  0  0  0  0  0  0  0  0  0
   -1.7474    3.6582   -1.2647 H   0  0  0  0  0  0  0  0  0  0  0  0
   -0.9125    5.7140   -0.0411 H   0  0  0  0  0  0  0  0  0  0  0  0
   -1.0162    7.7085    0.1989 H   0  0  0  0  0  0  0  0  0  0  0  0
    3.3429    9.9700    0.5241 H   0  0  0  0  0  0  0  0  0  0  0  0
    4.3483    5.4481    0.1903 H   0  0  0  0  0  0  0  0  0  0  0  0
   -0.9896   11.2984    0.4931 H   0  0  0  0  0  0  0  0  0  0  0  0
   -2.4650    9.1640   -0.6223 H   0  0  0  0  0  0  0  0  0  0  0  0
   -2.5221    9.0191    1.1508 H   0  0  0  0  0  0  0  0  0  0  0  0
   -3.3899   11.3363    1.3122 H   0  0  0  0  0  0  0  0  0  0  0  0
   -3.3328   11.4812   -0.4609 H   0  0  0  0  0  0  0  0  0  0  0  0
   -4.9261    9.5923   -0.6666 H   0  0  0  0  0  0  0  0  0  0  0  0
   -4.9832    9.4474    1.1066 H   0  0  0  0  0  0  0  0  0  0  0  0
   -6.1605   11.1009    2.4083 H   0  0  0  0  0  0  0  0  0  0  0  0
   -4.9295   12.2608    1.8512 H   0  0  0  0  0  0  0  0  0  0  0  0
   -6.6823   13.7039    0.9002 H   0  0  0  0  0  0  0  0  0  0  0  0
   -7.0228   13.3967    2.6208 H   0  0  0  0  0  0  0  0  0  0  0  0
   -8.0032   12.4665   -0.7731 H   0  0  0  0  0  0  0  0  0  0  0  0
   -9.2347   11.3246   -0.1812 H   0  0  0  0  0  0  0  0  0  0  0  0
   -7.1725   10.1595   -0.9903 H   0  0  0  0  0  0  0  0  0  0  0  0
   -7.4778    9.8668    0.7395 H   0  0  0  0  0  0  0  0  0  0  0  0
    1.2775   10.2140    0.4775 N   0  3  0  0  0  0  0  0  0  0  0  0
    1.3208   11.2363    0.5621 H   0  0  0  0  0  0  0  0  0  0  0  0
   -5.8813   11.1954    0.3069 N   0  3  0  0  0  0  0  0  0  0  0  0
   -5.6539   11.9062   -0.3984 H   0  0  0  0  0  0  0  0  0  0  0  0
  1  2  1  0  0  0  0
  1 27  1  0  0  0  0
  1 28  1  0  0  0  0
  1 29  1  0  0  0  0
  2  7  2  0  0  0  0
  2  3  1  0  0  0  0
  3  4  2  0  0  0  0
  3 30  1  0  0  0  0
  4  5  1  0  0  0  0
  4 31  1  0  0  0  0
  5  6  2  0  0  0  0
  5 32  1  0  0  0  0
  6  7  1  0  0  0  0
  6  8  1  0  0  0  0
  7 33  1  0  0  0  0
  8  9  1  0  0  0  0
  8 34  1  0  0  0  0
  9 17  2  0  0  0  0
  9 10  1  0  0  0  0
 10 14  2  0  0  0  0
 10 11  1  0  0  0  0
 11 12  2  0  0  0  0
 11 35  1  0  0  0  0
 12 18  1  0  0  0  0
 12 53  1  0  0  0  0
 13 14  1  0  0  0  0
 13 36  1  0  0  0  0
 13 53  2  0  0  0  0
 14 15  1  0  0  0  0
 15 16  2  0  0  0  0
 16 17  1  0  0  0  0
 16 37  1  0  0  0  0
 18 19  1  0  0  0  0
 18 38  1  0  0  0  0
 19 20  1  0  0  0  0
 19 39  1  0  0  0  0
 19 40  1  0  0  0  0
 20 21  1  0  0  0  0
 20 41  1  0  0  0  0
 20 42  1  0  0  0  0
 21 43  1  0  0  0  0
 21 44  1  0  0  0  0
 21 55  1  0  0  0  0
 22 23  1  0  0  0  0
 22 45  1  0  0  0  0
 22 46  1  0  0  0  0
 22 55  1  0  0  0  0
 23 24  1  0  0  0  0
 23 47  1  0  0  0  0
 23 48  1  0  0  0  0
 24 25  1  0  0  0  0
 25 26  1  0  0  0  0
 25 49  1  0  0  0  0
 25 50  1  0  0  0  0
 26 51  1  0  0  0  0
 26 52  1  0  0  0  0
 26 55  1  0  0  0  0
 53 54  1  0  0  0  0
 55 56  1  0  0  0  0
M  CHG  2  53   1  55   1
M  END
$$$$
ZINC03815110
  -OEChem-08230709403D

 53 56  0     0  0  0  0  0  0999 V2000
    2.1576    5.6966    0.3943 C   0  0  0  0  0  0  0  0  0  0  0  0
    2.2602    4.3225    0.4909 C   0  0  0  0  0  0  0  0  0  0  0  0
    3.3215    3.6622   -0.1146 C   0  0  0  0  0  0  0  0  0  0  0  0
    4.2799    4.3869   -0.8116 C   0  0  0  0  0  0  0  0  0  0  0  0
    4.1693    5.7608   -0.9084 C   0  0  0  0  0  0  0  0  0  0  0  0
    3.1101    6.4152   -0.3040 C   0  0  0  0  0  0  0  0  0  0  0  0
    5.4699    6.7485   -1.8618 Br  0  0  0  0  0  0  0  0  0  0  0  0
    3.4281    2.2717   -0.0180 N   0  0  0  0  0  0  0  0  0  0  0  0
    2.2914    1.4919   -0.0148 C   0  0  0  0  0  0  0  0  0  0  0  0
    2.3670    0.0967    0.2030 C   0  0  0  0  0  0  0  0  0  0  0  0
    3.5749   -0.5691    0.4254 C   0  0  0  0  0  0  0  0  0  0  0  0
    2.4714   -2.6007    0.6198 C   0  0  0  0  0  0  0  0  0  0  0  0
    1.2297   -2.0296    0.4088 C   0  0  0  0  0  0  0  0  0  0  0  0
    1.1579   -0.6486    0.1936 C   0  0  0  0  0  0  0  0  0  0  0  0
    0.0031   -0.0057   -0.0199 N   0  0  0  0  0  0  0  0  0  0  0  0
   -0.0055    1.2929   -0.2168 C   0  0  0  0  0  0  0  0  0  0  0  0
    1.0938    2.0290   -0.2171 N   0  0  0  0  0  0  0  0  0  0  0  0
    2.5604   -3.9699    0.8350 N   0  0  0  0  0  0  0  0  0  0  0  0
    1.3474   -4.7915    0.8366 C   0  0  0  0  0  0  0  0  0  0  0  0
    1.7214   -6.2525    1.0942 C   0  0  0  0  0  0  0  0  0  0  0  0
    0.4547   -7.1106    1.0959 C   0  0  0  0  0  0  0  0  0  0  0  0
    1.5979   -9.0612    0.2269 C   0  0  0  0  0  0  0  0  0  0  0  0
    2.0006  -10.5021    0.5520 C   0  0  0  0  0  0  0  0  0  0  0  0
    0.8249  -11.2721    0.8171 O   0  0  0  0  0  0  0  0  0  0  0  0
    0.0377  -10.7670    1.8990 C   0  0  0  0  0  0  0  0  0  0  0  0
   -0.3848   -9.3288    1.5876 C   0  0  0  0  0  0  0  0  0  0  0  0
    1.3324    6.2103    0.8651 H   0  0  0  0  0  0  0  0  0  0  0  0
    1.5156    3.7620    1.0367 H   0  0  0  0  0  0  0  0  0  0  0  0
    5.1086    3.8769   -1.2801 H   0  0  0  0  0  0  0  0  0  0  0  0
    3.0277    7.4896   -0.3777 H   0  0  0  0  0  0  0  0  0  0  0  0
    4.3020    1.8556    0.0467 H   0  0  0  0  0  0  0  0  0  0  0  0
    4.5023   -0.0157    0.4358 H   0  0  0  0  0  0  0  0  0  0  0  0
    0.3358   -2.6356    0.4097 H   0  0  0  0  0  0  0  0  0  0  0  0
   -0.9528    1.7814   -0.3908 H   0  0  0  0  0  0  0  0  0  0  0  0
    3.4256   -4.3822    0.9842 H   0  0  0  0  0  0  0  0  0  0  0  0
    0.6748   -4.4448    1.6211 H   0  0  0  0  0  0  0  0  0  0  0  0
    0.8511   -4.7086   -0.1303 H   0  0  0  0  0  0  0  0  0  0  0  0
    2.3940   -6.5992    0.3097 H   0  0  0  0  0  0  0  0  0  0  0  0
    2.2177   -6.3354    2.0612 H   0  0  0  0  0  0  0  0  0  0  0  0
   -0.2180   -6.7639    1.8805 H   0  0  0  0  0  0  0  0  0  0  0  0
   -0.0416   -7.0276    0.1290 H   0  0  0  0  0  0  0  0  0  0  0  0
    0.9960   -9.0477   -0.6817 H   0  0  0  0  0  0  0  0  0  0  0  0
    2.4933   -8.4573    0.0802 H   0  0  0  0  0  0  0  0  0  0  0  0
    2.6466  -10.5103    1.4298 H   0  0  0  0  0  0  0  0  0  0  0  0
    2.5331  -10.9314   -0.2967 H   0  0  0  0  0  0  0  0  0  0  0  0
    0.6267  -10.7828    2.8160 H   0  0  0  0  0  0  0  0  0  0  0  0
   -0.8493  -11.3879    2.0246 H   0  0  0  0  0  0  0  0  0  0  0  0
   -0.9367   -8.9202    2.4342 H   0  0  0  0  0  0  0  0  0  0  0  0
   -1.0184   -9.3195    0.7007 H   0  0  0  0  0  0  0  0  0  0  0  0
    3.6579   -1.9077    0.6354 N   0  3  0  0  0  0  0  0  0  0  0  0
    4.5572   -2.3762    0.7969 H   0  0  0  0  0  0  0  0  0  0  0  0
    0.8296   -8.5156    1.3653 N   0  3  0  0  0  0  0  0  0  0  0  0
    1.4134   -8.5493    2.2092 H   0  0  0  0  0  0  0  0  0  0  0  0
  1  6  2  0  0  0  0
  1  2  1  0  0  0  0
  1 27  1  0  0  0  0
  2  3  2  0  0  0  0
  2 28  1  0  0  0  0
  3  4  1  0  0  0  0
  3  8  1  0  0  0  0
  4  5  2  0  0  0  0
  4 29  1  0  0  0  0
  5  6  1  0  0  0  0
  5  7  1  0  0  0  0
  6 30  1  0  0  0  0
  8  9  1  0  0  0  0
  8 31  1  0  0  0  0
  9 17  2  0  0  0  0
  9 10  1  0  0  0  0
 10 14  2  0  0  0  0
 10 11  1  0  0  0  0
 11 32  1  0  0  0  0
 11 50  2  0  0  0  0
 12 13  2  0  0  0  0
 12 18  1  0  0  0  0
 12 50  1  0  0  0  0
 13 14  1  0  0  0  0
 13 33  1  0  0  0  0
 14 15  1  0  0  0  0
 15 16  2  0  0  0  0
 16 17  1  0  0  0  0
 16 34  1  0  0  0  0
 18 19  1  0  0  0  0
 18 35  1  0  0  0  0
 19 20  1  0  0  0  0
 19 36  1  0  0  0  0
 19 37  1  0  0  0  0
 20 21  1  0  0  0  0
 20 38  1  0  0  0  0
 20 39  1  0  0  0  0
 21 40  1  0  0  0  0
 21 41  1  0  0  0  0
 21 52  1  0  0  0  0
 22 23  1  0  0  0  0
 22 42  1  0  0  0  0
 22 43  1  0  0  0  0
 22 52  1  0  0  0  0
 23 24  1  0  0  0  0
 23 44  1  0  0  0  0
 23 45  1  0  0  0  0
 24 25  1  0  0  0  0
 25 26  1  0  0  0  0
 25 46  1  0  0  0  0
 25 47  1  0  0  0  0
 26 48  1  0  0  0  0
 26 49  1  0  0  0  0
 26 52  1  0  0  0  0
 50 51  1  0  0  0  0
 52 53  1  0  0  0  0
M  CHG  2  50   1  52   1
M  END
$$$$
ZINC03815111
  -OEChem-08230709403D

 30 32  0     0  0  0  0  0  0999 V2000
   -1.4903    6.0231    0.3405 C   0  0  0  0  0  0  0  0  0  0  0  0
   -0.2803    5.3628    0.4306 C   0  0  0  0  0  0  0  0  0  0  0  0
   -0.1517    4.0771   -0.0792 C   0  0  0  0  0  0  0  0  0  0  0  0
   -1.2396    3.4603   -0.6833 C   0  0  0  0  0  0  0  0  0  0  0  0
   -2.4500    4.1242   -0.7664 C   0  0  0  0  0  0  0  0  0  0  0  0
   -2.5739    5.4063   -0.2563 C   0  0  0  0  0  0  0  0  0  0  0  0
   -3.5107    3.5241   -1.3496 F   0  0  0  0  0  0  0  0  0  0  0  0
    1.0720    3.4075    0.0106 N   0  0  0  0  0  0  0  0  0  0  0  0
    1.0986    2.0363    0.1632 C   0  0  0  0  0  0  0  0  0  0  0  0
    2.3223    1.3266    0.1392 C   0  0  0  0  0  0  0  0  0  0  0  0
    3.5513    1.9739   -0.0395 C   0  0  0  0  0  0  0  0  0  0  0  0
    4.7019    1.2465   -0.0557 C   0  0  0  0  0  0  0  0  0  0  0  0
    4.6736   -0.1436    0.1047 C   0  0  0  0  0  0  0  0  0  0  0  0
    3.4765   -0.8086    0.2822 C   0  0  0  0  0  0  0  0  0  0  0  0
    2.2821   -0.0807    0.3021 C   0  0  0  0  0  0  0  0  0  0  0  0
    1.0913   -0.6767    0.4713 N   0  0  0  0  0  0  0  0  0  0  0  0
   -0.0117    0.0335    0.4849 C   0  0  0  0  0  0  0  0  0  0  0  0
   -0.0228    1.3484    0.3369 N   0  0  0  0  0  0  0  0  0  0  0  0
    5.8659   -0.8641    0.0850 N   0  0  0  0  0  0  0  0  0  0  0  0
   -1.5898    7.0229    0.7366 H   0  0  0  0  0  0  0  0  0  0  0  0
    0.5652    5.8459    0.8974 H   0  0  0  0  0  0  0  0  0  0  0  0
   -1.1415    2.4624   -1.0845 H   0  0  0  0  0  0  0  0  0  0  0  0
   -3.5187    5.9249   -0.3253 H   0  0  0  0  0  0  0  0  0  0  0  0
    1.9024    3.9067   -0.0344 H   0  0  0  0  0  0  0  0  0  0  0  0
    3.5861    3.0461   -0.1642 H   0  0  0  0  0  0  0  0  0  0  0  0
    5.6482    1.7483   -0.1937 H   0  0  0  0  0  0  0  0  0  0  0  0
    3.4626   -1.8815    0.4053 H   0  0  0  0  0  0  0  0  0  0  0  0
   -0.9529   -0.4780    0.6228 H   0  0  0  0  0  0  0  0  0  0  0  0
    6.7097   -0.4021   -0.0393 H   0  0  0  0  0  0  0  0  0  0  0  0
    5.8522   -1.8276    0.1957 H   0  0  0  0  0  0  0  0  0  0  0  0
  1  6  2  0  0  0  0
  1  2  1  0  0  0  0
  1 20  1  0  0  0  0
  2  3  2  0  0  0  0
  2 21  1  0  0  0  0
  3  4  1  0  0  0  0
  3  8  1  0  0  0  0
  4  5  2  0  0  0  0
  4 22  1  0  0  0  0
  5  6  1  0  0  0  0
  5  7  1  0  0  0  0
  6 23  1  0  0  0  0
  8  9  1  0  0  0  0
  8 24  1  0  0  0  0
  9 18  2  0  0  0  0
  9 10  1  0  0  0  0
 10 15  2  0  0  0  0
 10 11  1  0  0  0  0
 11 12  2  0  0  0  0
 11 25  1  0  0  0  0
 12 13  1  0  0  0  0
 12 26  1  0  0  0  0
 13 14  2  0  0  0  0
 13 19  1  0  0  0  0
 14 15  1  0  0  0  0
 14 27  1  0  0  0  0
 15 16  1  0  0  0  0
 16 17  2  0  0  0  0
 17 18  1  0  0  0  0
 17 28  1  0  0  0  0
 19 29  1  0  0  0  0
 19 30  1  0  0  0  0
M  END
$$$$
ZINC03815112
  -OEChem-08230709403D

 36 39  0     0  0  0  0  0  0999 V2000
   -1.9899    0.9747   -1.4802 C   0  0  0  0  0  0  0  0  0  0  0  0
   -0.9711    1.7489   -0.6842 C   0  0  0  0  0  0  0  0  0  0  0  0
   -0.0169    1.0758    0.0570 C   0  0  0  0  0  0  0  0  0  0  0  0
    0.9230    1.7823    0.7845 C   0  0  0  0  0  0  0  0  0  0  0  0
    0.9087    3.1634    0.7772 C   0  0  0  0  0  0  0  0  0  0  0  0
   -0.0515    3.8425    0.0383 C   0  0  0  0  0  0  0  0  0  0  0  0
   -0.9946    3.1295   -0.6913 C   0  0  0  0  0  0  0  0  0  0  0  0
   -0.0691    5.2400    0.0290 N   0  0  0  0  0  0  0  0  0  0  0  0
    1.1190    5.9492    0.1262 C   0  0  0  0  0  0  0  0  0  0  0  0
    1.1155    7.3340    0.2329 C   0  0  0  0  0  0  0  0  0  0  0  0
    2.3139    8.0505    0.3359 C   0  0  0  0  0  0  0  0  0  0  0  0
    2.1831    9.5164    0.4499 C   0  0  0  0  0  0  0  0  0  0  0  0
    3.2258   10.4635    0.5605 C   0  0  0  0  0  0  0  0  0  0  0  0
    2.9441   11.8076    0.6593 C   0  0  0  0  0  0  0  0  0  0  0  0
    1.6296   12.2691    0.6529 C   0  0  0  0  0  0  0  0  0  0  0  0
    0.5939   11.3635    0.5458 C   0  0  0  0  0  0  0  0  0  0  0  0
    0.8702   10.0143    0.4465 C   0  0  0  0  0  0  0  0  0  0  0  0
   -0.1517    8.5705    0.2960 S   0  0  0  0  0  0  0  0  0  0  0  0
    3.9956   12.7254    0.7673 N   0  0  0  0  0  0  0  0  0  0  0  0
    3.4489    7.3160    0.3138 N   0  0  0  0  0  0  0  0  0  0  0  0
    3.4149    6.0117    0.2070 C   0  0  0  0  0  0  0  0  0  0  0  0
    2.2935    5.3202    0.1140 N   0  0  0  0  0  0  0  0  0  0  0  0
   -2.8670    0.7854   -0.8614 H   0  0  0  0  0  0  0  0  0  0  0  0
   -2.2817    1.5528   -2.3569 H   0  0  0  0  0  0  0  0  0  0  0  0
   -1.5579    0.0257   -1.7980 H   0  0  0  0  0  0  0  0  0  0  0  0
   -0.0030   -0.0041    0.0638 H   0  0  0  0  0  0  0  0  0  0  0  0
    1.6693    1.2536    1.3589 H   0  0  0  0  0  0  0  0  0  0  0  0
    1.6435    3.7147    1.3452 H   0  0  0  0  0  0  0  0  0  0  0  0
   -1.7424    3.6545   -1.2673 H   0  0  0  0  0  0  0  0  0  0  0  0
   -0.9121    5.7139   -0.0454 H   0  0  0  0  0  0  0  0  0  0  0  0
    4.2530   10.1301    0.5673 H   0  0  0  0  0  0  0  0  0  0  0  0
    1.4230   13.3262    0.7314 H   0  0  0  0  0  0  0  0  0  0  0  0
   -0.4294   11.7088    0.5401 H   0  0  0  0  0  0  0  0  0  0  0  0
    4.9138   12.4126    0.7723 H   0  0  0  0  0  0  0  0  0  0  0  0
    3.8060   13.6741    0.8373 H   0  0  0  0  0  0  0  0  0  0  0  0
    4.3513    5.4738    0.1947 H   0  0  0  0  0  0  0  0  0  0  0  0
  1  2  1  0  0  0  0
  1 23  1  0  0  0  0
  1 24  1  0  0  0  0
  1 25  1  0  0  0  0
  2  7  2  0  0  0  0
  2  3  1  0  0  0  0
  3  4  2  0  0  0  0
  3 26  1  0  0  0  0
  4  5  1  0  0  0  0
  4 27  1  0  0  0  0
  5  6  2  0  0  0  0
  5 28  1  0  0  0  0
  6  7  1  0  0  0  0
  6  8  1  0  0  0  0
  7 29  1  0  0  0  0
  8  9  1  0  0  0  0
  8 30  1  0  0  0  0
  9 22  2  0  0  0  0
  9 10  1  0  0  0  0
 10 18  1  0  0  0  0
 10 11  2  0  0  0  0
 11 12  1  0  0  0  0
 11 20  1  0  0  0  0
 12 17  2  0  0  0  0
 12 13  1  0  0  0  0
 13 14  2  0  0  0  0
 13 31  1  0  0  0  0
 14 15  1  0  0  0  0
 14 19  1  0  0  0  0
 15 16  2  0  0  0  0
 15 32  1  0  0  0  0
 16 17  1  0  0  0  0
 16 33  1  0  0  0  0
 17 18  1  0  0  0  0
 19 34  1  0  0  0  0
 19 35  1  0  0  0  0
 20 21  2  0  0  0  0
 21 22  1  0  0  0  0
 21 36  1  0  0  0  0
M  END
$$$$
ZINC03815113
  -OEChem-08230709403D

 44 47  0     0  0  0  0  0  0999 V2000
   -1.1108    2.9203   -0.7515 C   0  0  0  0  0  0  0  0  0  0  0  0
    0.0731    3.6319   -0.7455 C   0  0  0  0  0  0  0  0  0  0  0  0
    1.1562    3.1695   -0.0088 C   0  0  0  0  0  0  0  0  0  0  0  0
    1.0449    1.9921    0.7200 C   0  0  0  0  0  0  0  0  0  0  0  0
   -0.1421    1.2850    0.7099 C   0  0  0  0  0  0  0  0  0  0  0  0
   -1.2207    1.7517   -0.0211 C   0  0  0  0  0  0  0  0  0  0  0  0
   -0.2955   -0.3176    1.7019 Br  0  0  0  0  0  0  0  0  0  0  0  0
    2.3551    3.8876   -0.0005 N   0  0  0  0  0  0  0  0  0  0  0  0
    2.3357    5.2646   -0.0976 C   0  0  0  0  0  0  0  0  0  0  0  0
    3.5726    6.0347   -0.2111 C   0  0  0  0  0  0  0  0  0  0  0  0
    3.4639    7.4429   -0.3121 C   0  0  0  0  0  0  0  0  0  0  0  0
    4.6473    8.1940   -0.4282 C   0  0  0  0  0  0  0  0  0  0  0  0
    5.7970    7.5515   -0.4430 N   0  0  0  0  0  0  0  0  0  0  0  0
    5.8571    6.2253   -0.3515 C   0  0  0  0  0  0  0  0  0  0  0  0
    4.7783    5.4714   -0.2403 N   0  0  0  0  0  0  0  0  0  0  0  0
    7.0982    5.6122   -0.3732 N   0  0  0  0  0  0  0  0  0  0  0  0
    8.3131    6.4218   -0.4951 C   0  0  0  0  0  0  0  0  0  0  0  0
    9.5386    5.5058   -0.4943 C   0  0  0  0  0  0  0  0  0  0  0  0
   10.8074    6.3513   -0.6216 C   0  0  0  0  0  0  0  0  0  0  0  0
   11.9808    5.4742   -0.6209 N   0  0  0  0  0  0  0  0  0  0  0  0
   12.6926    5.0707    0.4765 C   0  0  0  0  0  0  0  0  0  0  0  0
   13.6817    4.2743    0.0281 C   0  0  0  0  0  0  0  0  0  0  0  0
   13.5824    4.2013   -1.3075 N   0  0  0  0  0  0  0  0  0  0  0  0
   12.5658    4.9175   -1.7033 C   0  0  0  0  0  0  0  0  0  0  0  0
    2.2480    7.9992   -0.2879 N   0  0  0  0  0  0  0  0  0  0  0  0
    1.1713    7.2599   -0.1787 C   0  0  0  0  0  0  0  0  0  0  0  0
    1.1935    5.9400   -0.0858 N   0  0  0  0  0  0  0  0  0  0  0  0
   -1.9531    3.2798   -1.3239 H   0  0  0  0  0  0  0  0  0  0  0  0
    0.1568    4.5467   -1.3133 H   0  0  0  0  0  0  0  0  0  0  0  0
    1.8850    1.6301    1.2941 H   0  0  0  0  0  0  0  0  0  0  0  0
   -2.1489    1.1995   -0.0243 H   0  0  0  0  0  0  0  0  0  0  0  0
    3.2009    3.4185    0.0735 H   0  0  0  0  0  0  0  0  0  0  0  0
    4.6142    9.2709   -0.5029 H   0  0  0  0  0  0  0  0  0  0  0  0
    7.1634    4.6466   -0.3077 H   0  0  0  0  0  0  0  0  0  0  0  0
    8.2818    6.9860   -1.4272 H   0  0  0  0  0  0  0  0  0  0  0  0
    8.3753    7.1126    0.3458 H   0  0  0  0  0  0  0  0  0  0  0  0
    9.5700    4.9416    0.4378 H   0  0  0  0  0  0  0  0  0  0  0  0
    9.4764    4.8150   -1.3352 H   0  0  0  0  0  0  0  0  0  0  0  0
   10.7761    6.9155   -1.5537 H   0  0  0  0  0  0  0  0  0  0  0  0
   10.8696    7.0421    0.2193 H   0  0  0  0  0  0  0  0  0  0  0  0
   12.4970    5.3376    1.5045 H   0  0  0  0  0  0  0  0  0  0  0  0
   14.4274    3.7846    0.6368 H   0  0  0  0  0  0  0  0  0  0  0  0
   12.2452    5.0437   -2.7268 H   0  0  0  0  0  0  0  0  0  0  0  0
    0.2120    7.7558   -0.1634 H   0  0  0  0  0  0  0  0  0  0  0  0
  1  6  2  0  0  0  0
  1  2  1  0  0  0  0
  1 28  1  0  0  0  0
  2  3  2  0  0  0  0
  2 29  1  0  0  0  0
  3  4  1  0  0  0  0
  3  8  1  0  0  0  0
  4  5  2  0  0  0  0
  4 30  1  0  0  0  0
  5  6  1  0  0  0  0
  5  7  1  0  0  0  0
  6 31  1  0  0  0  0
  8  9  1  0  0  0  0
  8 32  1  0  0  0  0
  9 27  2  0  0  0  0
  9 10  1  0  0  0  0
 10 15  2  0  0  0  0
 10 11  1  0  0  0  0
 11 12  2  0  0  0  0
 11 25  1  0  0  0  0
 12 13  1  0  0  0  0
 12 33  1  0  0  0  0
 13 14  2  0  0  0  0
 14 15  1  0  0  0  0
 14 16  1  0  0  0  0
 16 17  1  0  0  0  0
 16 34  1  0  0  0  0
 17 18  1  0  0  0  0
 17 35  1  0  0  0  0
 17 36  1  0  0  0  0
 18 19  1  0  0  0  0
 18 37  1  0  0  0  0
 18 38  1  0  0  0  0
 19 20  1  0  0  0  0
 19 39  1  0  0  0  0
 19 40  1  0  0  0  0
 20 24  1  0  0  0  0
 20 21  1  0  0  0  0
 21 22  2  0  0  0  0
 21 41  1  0  0  0  0
 22 23  1  0  0  0  0
 22 42  1  0  0  0  0
 23 24  2  0  0  0  0
 24 43  1  0  0  0  0
 25 26  2  0  0  0  0
 26 27  1  0  0  0  0
 26 44  1  0  0  0  0
M  END
$$$$
ZINC03815113
  -OEChem-08230709403D

 45 48  0     0  0  0  0  0  0999 V2000
   -1.1108    2.9203   -0.7515 C   0  0  0  0  0  0  0  0  0  0  0  0
    0.0731    3.6319   -0.7455 C   0  0  0  0  0  0  0  0  0  0  0  0
    1.1562    3.1695   -0.0088 C   0  0  0  0  0  0  0  0  0  0  0  0
    1.0449    1.9921    0.7200 C   0  0  0  0  0  0  0  0  0  0  0  0
   -0.1421    1.2850    0.7099 C   0  0  0  0  0  0  0  0  0  0  0  0
   -1.2207    1.7517   -0.0211 C   0  0  0  0  0  0  0  0  0  0  0  0
   -0.2955   -0.3176    1.7019 Br  0  0  0  0  0  0  0  0  0  0  0  0
    2.3551    3.8876   -0.0005 N   0  0  0  0  0  0  0  0  0  0  0  0
    2.3357    5.2646   -0.0976 C   0  0  0  0  0  0  0  0  0  0  0  0
    3.5726    6.0347   -0.2111 C   0  0  0  0  0  0  0  0  0  0  0  0
    3.4639    7.4429   -0.3121 C   0  0  0  0  0  0  0  0  0  0  0  0
    4.6473    8.1940   -0.4282 C   0  0  0  0  0  0  0  0  0  0  0  0
    5.7970    7.5515   -0.4430 N   0  0  0  0  0  0  0  0  0  0  0  0
    5.8571    6.2253   -0.3515 C   0  0  0  0  0  0  0  0  0  0  0  0
    4.7783    5.4714   -0.2403 N   0  0  0  0  0  0  0  0  0  0  0  0
    7.0982    5.6122   -0.3732 N   0  0  0  0  0  0  0  0  0  0  0  0
    8.3131    6.4218   -0.4951 C   0  0  0  0  0  0  0  0  0  0  0  0
    9.5386    5.5058   -0.4943 C   0  0  0  0  0  0  0  0  0  0  0  0
   10.8074    6.3513   -0.6216 C   0  0  0  0  0  0  0  0  0  0  0  0
   11.9808    5.4742   -0.6209 N   0  0  0  0  0  0  0  0  0  0  0  0
   12.6926    5.0707    0.4765 C   0  0  0  0  0  0  0  0  0  0  0  0
   13.6817    4.2743    0.0281 C   0  0  0  0  0  0  0  0  0  0  0  0
   12.5658    4.9175   -1.7033 C   0  0  0  0  0  0  0  0  0  0  0  0
    2.2480    7.9992   -0.2879 N   0  0  0  0  0  0  0  0  0  0  0  0
    1.1713    7.2599   -0.1787 C   0  0  0  0  0  0  0  0  0  0  0  0
    1.1935    5.9400   -0.0858 N   0  0  0  0  0  0  0  0  0  0  0  0
   -1.9531    3.2798   -1.3239 H   0  0  0  0  0  0  0  0  0  0  0  0
    0.1568    4.5467   -1.3133 H   0  0  0  0  0  0  0  0  0  0  0  0
    1.8850    1.6301    1.2941 H   0  0  0  0  0  0  0  0  0  0  0  0
   -2.1489    1.1995   -0.0243 H   0  0  0  0  0  0  0  0  0  0  0  0
    3.2009    3.4185    0.0735 H   0  0  0  0  0  0  0  0  0  0  0  0
    4.6142    9.2709   -0.5029 H   0  0  0  0  0  0  0  0  0  0  0  0
    7.1634    4.6466   -0.3077 H   0  0  0  0  0  0  0  0  0  0  0  0
    8.2818    6.9860   -1.4272 H   0  0  0  0  0  0  0  0  0  0  0  0
    8.3753    7.1126    0.3458 H   0  0  0  0  0  0  0  0  0  0  0  0
    9.5700    4.9416    0.4378 H   0  0  0  0  0  0  0  0  0  0  0  0
    9.4764    4.8150   -1.3352 H   0  0  0  0  0  0  0  0  0  0  0  0
   10.7761    6.9155   -1.5537 H   0  0  0  0  0  0  0  0  0  0  0  0
   10.8696    7.0421    0.2193 H   0  0  0  0  0  0  0  0  0  0  0  0
   12.4970    5.3376    1.5045 H   0  0  0  0  0  0  0  0  0  0  0  0
   14.4274    3.7846    0.6368 H   0  0  0  0  0  0  0  0  0  0  0  0
   12.2452    5.0437   -2.7268 H   0  0  0  0  0  0  0  0  0  0  0  0
    0.2120    7.7558   -0.1634 H   0  0  0  0  0  0  0  0  0  0  0  0
   13.5816    4.2020   -1.3067 N   0  3  0  0  0  0  0  0  0  0  0  0
   14.2068    3.6670   -1.9208 H   0  0  0  0  0  0  0  0  0  0  0  0
  1  6  2  0  0  0  0
  1  2  1  0  0  0  0
  1 27  1  0  0  0  0
  2  3  2  0  0  0  0
  2 28  1  0  0  0  0
  3  4  1  0  0  0  0
  3  8  1  0  0  0  0
  4  5  2  0  0  0  0
  4 29  1  0  0  0  0
  5  6  1  0  0  0  0
  5  7  1  0  0  0  0
  6 30  1  0  0  0  0
  8  9  1  0  0  0  0
  8 31  1  0  0  0  0
  9 26  2  0  0  0  0
  9 10  1  0  0  0  0
 10 15  2  0  0  0  0
 10 11  1  0  0  0  0
 11 12  2  0  0  0  0
 11 24  1  0  0  0  0
 12 13  1  0  0  0  0
 12 32  1  0  0  0  0
 13 14  2  0  0  0  0
 14 15  1  0  0  0  0
 14 16  1  0  0  0  0
 16 17  1  0  0  0  0
 16 33  1  0  0  0  0
 17 18  1  0  0  0  0
 17 34  1  0  0  0  0
 17 35  1  0  0  0  0
 18 19  1  0  0  0  0
 18 36  1  0  0  0  0
 18 37  1  0  0  0  0
 19 20  1  0  0  0  0
 19 38  1  0  0  0  0
 19 39  1  0  0  0  0
 20 23  1  0  0  0  0
 20 21  1  0  0  0  0
 21 22  2  0  0  0  0
 21 40  1  0  0  0  0
 22 41  1  0  0  0  0
 22 44  1  0  0  0  0
 23 42  1  0  0  0  0
 23 44  2  0  0  0  0
 24 25  2  0  0  0  0
 25 26  1  0  0  0  0
 25 43  1  0  0  0  0
 44 45  1  0  0  0  0
M  CHG  1  44   1
M  END
$$$$
ZINC03815114
  -OEChem-08230709403D

 51 54  0     0  0  0  0  0  0999 V2000
   -5.1360    5.6267    8.4367 C   0  0  0  0  0  0  0  0  0  0  0  0
   -4.2869    4.3838    8.3641 C   0  0  0  0  0  0  0  0  0  0  0  0
   -4.1634    3.5659    9.4726 C   0  0  0  0  0  0  0  0  0  0  0  0
   -3.3858    2.4243    9.4102 C   0  0  0  0  0  0  0  0  0  0  0  0
   -2.7329    2.0948    8.2385 C   0  0  0  0  0  0  0  0  0  0  0  0
   -2.8509    2.9164    7.1249 C   0  0  0  0  0  0  0  0  0  0  0  0
   -3.6335    4.0625    7.1909 C   0  0  0  0  0  0  0  0  0  0  0  0
   -2.1886    2.5880    5.9389 N   0  0  0  0  0  0  0  0  0  0  0  0
   -0.9704    1.9402    5.9852 C   0  0  0  0  0  0  0  0  0  0  0  0
   -0.3104    1.4773    4.7662 C   0  0  0  0  0  0  0  0  0  0  0  0
    0.9375    0.8221    4.9020 C   0  0  0  0  0  0  0  0  0  0  0  0
    1.5821    0.3721    3.7357 C   0  0  0  0  0  0  0  0  0  0  0  0
    0.9944    0.5818    2.5757 N   0  0  0  0  0  0  0  0  0  0  0  0
   -0.1797    1.2020    2.4898 C   0  0  0  0  0  0  0  0  0  0  0  0
   -0.8261    1.6496    3.5512 N   0  0  0  0  0  0  0  0  0  0  0  0
   -0.7429    1.3904    1.2391 N   0  0  0  0  0  0  0  0  0  0  0  0
   -0.0472    0.9104    0.0426 C   0  0  0  0  0  0  0  0  0  0  0  0
   -0.8781    1.2429   -1.1984 C   0  0  0  0  0  0  0  0  0  0  0  0
    1.0702    1.5036   -2.6137 C   0  0  0  0  0  0  0  0  0  0  0  0
    1.7926    0.9314   -3.8363 C   0  0  0  0  0  0  0  0  0  0  0  0
    0.9233    0.9946   -4.9702 O   0  0  0  0  0  0  0  0  0  0  0  0
   -0.3042    0.2819   -4.7950 C   0  0  0  0  0  0  0  0  0  0  0  0
   -1.0478    0.8475   -3.5821 C   0  0  0  0  0  0  0  0  0  0  0  0
    1.4504    0.6587    6.1263 N   0  0  0  0  0  0  0  0  0  0  0  0
    0.8143    1.0940    7.1863 C   0  0  0  0  0  0  0  0  0  0  0  0
   -0.3536    1.7143    7.1383 N   0  0  0  0  0  0  0  0  0  0  0  0
   -6.1587    5.3856    8.1467 H   0  0  0  0  0  0  0  0  0  0  0  0
   -5.1288    6.0127    9.4561 H   0  0  0  0  0  0  0  0  0  0  0  0
   -4.7347    6.3809    7.7598 H   0  0  0  0  0  0  0  0  0  0  0  0
   -4.6759    3.8193   10.3889 H   0  0  0  0  0  0  0  0  0  0  0  0
   -3.2918    1.7877   10.2775 H   0  0  0  0  0  0  0  0  0  0  0  0
   -2.1290    1.2008    8.1892 H   0  0  0  0  0  0  0  0  0  0  0  0
   -3.7310    4.7013    6.3255 H   0  0  0  0  0  0  0  0  0  0  0  0
   -2.5848    2.8153    5.0831 H   0  0  0  0  0  0  0  0  0  0  0  0
    2.5351   -0.1331    3.7899 H   0  0  0  0  0  0  0  0  0  0  0  0
   -1.5982    1.8403    1.1552 H   0  0  0  0  0  0  0  0  0  0  0  0
    0.0892   -0.1689    0.1101 H   0  0  0  0  0  0  0  0  0  0  0  0
    0.9260    1.3957   -0.0311 H   0  0  0  0  0  0  0  0  0  0  0  0
   -1.8513    0.7576   -1.1247 H   0  0  0  0  0  0  0  0  0  0  0  0
   -1.0145    2.3222   -1.2658 H   0  0  0  0  0  0  0  0  0  0  0  0
    0.8442    2.5562   -2.7841 H   0  0  0  0  0  0  0  0  0  0  0  0
    1.7079    1.4052   -1.7352 H   0  0  0  0  0  0  0  0  0  0  0  0
    2.0662   -0.1061   -3.6448 H   0  0  0  0  0  0  0  0  0  0  0  0
    2.6920    1.5145   -4.0343 H   0  0  0  0  0  0  0  0  0  0  0  0
   -0.0916   -0.7745   -4.6314 H   0  0  0  0  0  0  0  0  0  0  0  0
   -0.9216    0.3958   -5.6860 H   0  0  0  0  0  0  0  0  0  0  0  0
   -1.9563    0.2702   -3.4104 H   0  0  0  0  0  0  0  0  0  0  0  0
   -1.3077    1.8896   -3.7679 H   0  0  0  0  0  0  0  0  0  0  0  0
    1.2690    0.9377    8.1533 H   0  0  0  0  0  0  0  0  0  0  0  0
   -0.1737    0.7353   -2.3957 N   0  3  0  0  0  0  0  0  0  0  0  0
    0.0649   -0.2524   -2.2488 H   0  0  0  0  0  0  0  0  0  0  0  0
  1  2  1  0  0  0  0
  1 27  1  0  0  0  0
  1 28  1  0  0  0  0
  1 29  1  0  0  0  0
  2  7  2  0  0  0  0
  2  3  1  0  0  0  0
  3  4  2  0  0  0  0
  3 30  1  0  0  0  0
  4  5  1  0  0  0  0
  4 31  1  0  0  0  0
  5  6  2  0  0  0  0
  5 32  1  0  0  0  0
  6  7  1  0  0  0  0
  6  8  1  0  0  0  0
  7 33  1  0  0  0  0
  8  9  1  0  0  0  0
  8 34  1  0  0  0  0
  9 26  2  0  0  0  0
  9 10  1  0  0  0  0
 10 15  2  0  0  0  0
 10 11  1  0  0  0  0
 11 12  2  0  0  0  0
 11 24  1  0  0  0  0
 12 13  1  0  0  0  0
 12 35  1  0  0  0  0
 13 14  2  0  0  0  0
 14 15  1  0  0  0  0
 14 16  1  0  0  0  0
 16 17  1  0  0  0  0
 16 36  1  0  0  0  0
 17 18  1  0  0  0  0
 17 37  1  0  0  0  0
 17 38  1  0  0  0  0
 18 39  1  0  0  0  0
 18 40  1  0  0  0  0
 18 50  1  0  0  0  0
 19 20  1  0  0  0  0
 19 41  1  0  0  0  0
 19 42  1  0  0  0  0
 19 50  1  0  0  0  0
 20 21  1  0  0  0  0
 20 43  1  0  0  0  0
 20 44  1  0  0  0  0
 21 22  1  0  0  0  0
 22 23  1  0  0  0  0
 22 45  1  0  0  0  0
 22 46  1  0  0  0  0
 23 47  1  0  0  0  0
 23 48  1  0  0  0  0
 23 50  1  0  0  0  0
 24 25  2  0  0  0  0
 25 26  1  0  0  0  0
 25 49  1  0  0  0  0
 50 51  1  0  0  0  0
M  CHG  1  50   1
M  END
$$$$
ZINC03815115
  -OEChem-08230709403D

 47 50  0     0  0  0  0  0  0999 V2000
    9.3837   -4.4941    0.1838 C   0  0  0  0  0  0  0  0  0  0  0  0
    8.7367   -4.0338   -1.0042 O   0  0  0  0  0  0  0  0  0  0  0  0
    7.7685   -3.0920   -0.8541 C   0  0  0  0  0  0  0  0  0  0  0  0
    7.0992   -2.6003   -1.9654 C   0  0  0  0  0  0  0  0  0  0  0  0
    6.1151   -1.6433   -1.8101 C   0  0  0  0  0  0  0  0  0  0  0  0
    5.7970   -1.1755   -0.5485 C   0  0  0  0  0  0  0  0  0  0  0  0
    6.4665   -1.6598    0.5601 C   0  0  0  0  0  0  0  0  0  0  0  0
    7.4475   -2.6210    0.4107 C   0  0  0  0  0  0  0  0  0  0  0  0
    4.7230   -0.1315   -0.3820 C   0  0  0  0  0  0  0  0  0  0  0  0
    3.4270   -0.7892   -0.1978 N   0  0  0  0  0  0  0  0  0  0  0  0
    2.2765   -0.0242   -0.0225 C   0  0  0  0  0  0  0  0  0  0  0  0
    2.3741    1.3570   -0.0252 C   0  0  0  0  0  0  0  0  0  0  0  0
    1.2077    2.1038    0.1513 C   0  0  0  0  0  0  0  0  0  0  0  0
   -0.0226    1.4191    0.3258 C   0  0  0  0  0  0  0  0  0  0  0  0
   -0.0187    0.0187    0.3139 C   0  0  0  0  0  0  0  0  0  0  0  0
   -1.1387    2.1421    0.4892 N   0  0  0  0  0  0  0  0  0  0  0  0
   -1.0975    3.4514    0.4983 C   0  0  0  0  0  0  0  0  0  0  0  0
    0.0123    4.1557    0.3416 N   0  0  0  0  0  0  0  0  0  0  0  0
    1.1877    3.5633    0.1654 C   0  0  0  0  0  0  0  0  0  0  0  0
    2.3439    4.2982    0.0016 N   0  0  0  0  0  0  0  0  0  0  0  0
    2.2788    5.6909   -0.0963 C   0  0  0  0  0  0  0  0  0  0  0  0
    3.3152    6.4728    0.3986 C   0  0  0  0  0  0  0  0  0  0  0  0
    3.2482    7.8486    0.3005 C   0  0  0  0  0  0  0  0  0  0  0  0
    2.1512    8.4488   -0.2901 C   0  0  0  0  0  0  0  0  0  0  0  0
    1.1172    7.6736   -0.7841 C   0  0  0  0  0  0  0  0  0  0  0  0
    1.1807    6.2959   -0.6937 C   0  0  0  0  0  0  0  0  0  0  0  0
   -0.3806    8.4993   -1.5908 Br  0  0  0  0  0  0  0  0  0  0  0  0
    9.8669   -3.6543    0.6831 H   0  0  0  0  0  0  0  0  0  0  0  0
    8.6449   -4.9374    0.8514 H   0  0  0  0  0  0  0  0  0  0  0  0
   10.1328   -5.2418   -0.0768 H   0  0  0  0  0  0  0  0  0  0  0  0
    7.3476   -2.9651   -2.9511 H   0  0  0  0  0  0  0  0  0  0  0  0
    5.5935   -1.2605   -2.6749 H   0  0  0  0  0  0  0  0  0  0  0  0
    6.2195   -1.2893    1.5440 H   0  0  0  0  0  0  0  0  0  0  0  0
    7.9671   -3.0022    1.2773 H   0  0  0  0  0  0  0  0  0  0  0  0
    4.6877    0.4984   -1.2709 H   0  0  0  0  0  0  0  0  0  0  0  0
    4.9458    0.4831    0.4902 H   0  0  0  0  0  0  0  0  0  0  0  0
    3.3702   -1.7576   -0.1978 H   0  0  0  0  0  0  0  0  0  0  0  0
    3.3282    1.8444   -0.1612 H   0  0  0  0  0  0  0  0  0  0  0  0
   -0.9429   -0.5245    0.4447 H   0  0  0  0  0  0  0  0  0  0  0  0
   -2.0243    3.9880    0.6378 H   0  0  0  0  0  0  0  0  0  0  0  0
    3.2020    3.8483   -0.0455 H   0  0  0  0  0  0  0  0  0  0  0  0
    4.1723    6.0050    0.8601 H   0  0  0  0  0  0  0  0  0  0  0  0
    4.0536    8.4565    0.6852 H   0  0  0  0  0  0  0  0  0  0  0  0
    2.1017    9.5250   -0.3661 H   0  0  0  0  0  0  0  0  0  0  0  0
    0.3756    5.6907   -1.0834 H   0  0  0  0  0  0  0  0  0  0  0  0
    1.1062   -0.7218    0.1430 N   0  3  0  0  0  0  0  0  0  0  0  0
    1.0828   -1.7483    0.1378 H   0  0  0  0  0  0  0  0  0  0  0  0
  1  2  1  0  0  0  0
  1 28  1  0  0  0  0
  1 29  1  0  0  0  0
  1 30  1  0  0  0  0
  2  3  1  0  0  0  0
  3  8  2  0  0  0  0
  3  4  1  0  0  0  0
  4  5  2  0  0  0  0
  4 31  1  0  0  0  0
  5  6  1  0  0  0  0
  5 32  1  0  0  0  0
  6  7  2  0  0  0  0
  6  9  1  0  0  0  0
  7  8  1  0  0  0  0
  7 33  1  0  0  0  0
  8 34  1  0  0  0  0
  9 10  1  0  0  0  0
  9 35  1  0  0  0  0
  9 36  1  0  0  0  0
 10 11  1  0  0  0  0
 10 37  1  0  0  0  0
 11 12  2  0  0  0  0
 11 46  1  0  0  0  0
 12 13  1  0  0  0  0
 12 38  1  0  0  0  0
 13 19  2  0  0  0  0
 13 14  1  0  0  0  0
 14 15  1  0  0  0  0
 14 16  2  0  0  0  0
 15 39  1  0  0  0  0
 15 46  2  0  0  0  0
 16 17  1  0  0  0  0
 17 18  2  0  0  0  0
 17 40  1  0  0  0  0
 18 19  1  0  0  0  0
 19 20  1  0  0  0  0
 20 21  1  0  0  0  0
 20 41  1  0  0  0  0
 21 26  2  0  0  0  0
 21 22  1  0  0  0  0
 22 23  2  0  0  0  0
 22 42  1  0  0  0  0
 23 24  1  0  0  0  0
 23 43  1  0  0  0  0
 24 25  2  0  0  0  0
 24 44  1  0  0  0  0
 25 26  1  0  0  0  0
 25 27  1  0  0  0  0
 26 45  1  0  0  0  0
 46 47  1  0  0  0  0
M  CHG  1  46   1
M  END
$$$$
ZINC03815116
  -OEChem-08230709403D

 44 47  0     0  0  0  0  0  0999 V2000
    0.6289    9.5948   -2.5948 C   0  0  0  0  0  0  0  0  0  0  0  0
    0.7721    7.1781   -2.5547 C   0  0  0  0  0  0  0  0  0  0  0  0
   -0.6994    8.3294   -1.0146 C   0  0  0  0  0  0  0  0  0  0  0  0
   -1.6354    7.1545   -0.8936 C   0  0  0  0  0  0  0  0  0  0  0  0
   -2.9711    7.1850   -1.0043 C   0  0  0  0  0  0  0  0  0  0  0  0
   -3.4872    5.9266   -0.8356 N   0  0  0  0  0  0  0  0  0  0  0  0
   -4.4301    5.7018   -0.8725 H   0  0  0  0  0  0  0  0  0  0  0  0
   -2.4672    5.0277   -0.6054 C   0  0  0  0  0  0  0  0  0  0  0  0
   -1.2571    5.7609   -0.6317 C   0  0  0  0  0  0  0  0  0  0  0  0
   -0.0410    5.1242   -0.4296 C   0  0  0  0  0  0  0  0  0  0  0  0
   -0.0193    3.7494   -0.1991 C   0  0  0  0  0  0  0  0  0  0  0  0
   -1.2326    3.0116   -0.1722 C   0  0  0  0  0  0  0  0  0  0  0  0
   -2.4497    3.6644   -0.3771 C   0  0  0  0  0  0  0  0  0  0  0  0
   -1.1739    1.6866    0.0470 N   0  0  0  0  0  0  0  0  0  0  0  0
   -0.0206    1.0944    0.2418 C   0  0  0  0  0  0  0  0  0  0  0  0
    1.1349    1.7408    0.2256 N   0  0  0  0  0  0  0  0  0  0  0  0
    1.1947    3.0483    0.0132 C   0  0  0  0  0  0  0  0  0  0  0  0
    2.4055    3.7087   -0.0005 N   0  0  0  0  0  0  0  0  0  0  0  0
    3.5977    2.9846    0.0902 C   0  0  0  0  0  0  0  0  0  0  0  0
    3.7006    1.7353   -0.5091 C   0  0  0  0  0  0  0  0  0  0  0  0
    4.8795    1.0221   -0.4178 C   0  0  0  0  0  0  0  0  0  0  0  0
    5.9577    1.5500    0.2688 C   0  0  0  0  0  0  0  0  0  0  0  0
    5.8590    2.7937    0.8668 C   0  0  0  0  0  0  0  0  0  0  0  0
    4.6835    3.5148    0.7746 C   0  0  0  0  0  0  0  0  0  0  0  0
    7.3362    3.5110    1.8045 Br  0  0  0  0  0  0  0  0  0  0  0  0
    1.4241    9.6981   -1.8565 H   0  0  0  0  0  0  0  0  0  0  0  0
    1.0617    9.5782   -3.5950 H   0  0  0  0  0  0  0  0  0  0  0  0
   -0.0574   10.4373   -2.5098 H   0  0  0  0  0  0  0  0  0  0  0  0
    0.1899    6.2637   -2.4407 H   0  0  0  0  0  0  0  0  0  0  0  0
    1.2019    7.2127   -3.5558 H   0  0  0  0  0  0  0  0  0  0  0  0
    1.5725    7.1938   -1.8150 H   0  0  0  0  0  0  0  0  0  0  0  0
   -1.2542    9.2539   -0.8551 H   0  0  0  0  0  0  0  0  0  0  0  0
    0.0886    8.2447   -0.2663 H   0  0  0  0  0  0  0  0  0  0  0  0
   -3.5555    8.0723   -1.1985 H   0  0  0  0  0  0  0  0  0  0  0  0
    0.8798    5.6882   -0.4502 H   0  0  0  0  0  0  0  0  0  0  0  0
   -3.3741    3.1063   -0.3573 H   0  0  0  0  0  0  0  0  0  0  0  0
   -0.0123    0.0292    0.4193 H   0  0  0  0  0  0  0  0  0  0  0  0
    2.4297    4.6757   -0.0731 H   0  0  0  0  0  0  0  0  0  0  0  0
    2.8592    1.3222   -1.0455 H   0  0  0  0  0  0  0  0  0  0  0  0
    4.9598    0.0510   -0.8835 H   0  0  0  0  0  0  0  0  0  0  0  0
    6.8788    0.9904    0.3380 H   0  0  0  0  0  0  0  0  0  0  0  0
    4.6082    4.4877    1.2374 H   0  0  0  0  0  0  0  0  0  0  0  0
   -0.1224    8.3410   -2.3754 N   0  3  0  0  0  0  0  0  0  0  0  0
   -0.8845    8.2845   -3.0612 H   0  0  0  0  0  0  0  0  0  0  0  0
  1 26  1  0  0  0  0
  1 27  1  0  0  0  0
  1 28  1  0  0  0  0
  1 43  1  0  0  0  0
  2 29  1  0  0  0  0
  2 30  1  0  0  0  0
  2 31  1  0  0  0  0
  2 43  1  0  0  0  0
  3  4  1  0  0  0  0
  3 32  1  0  0  0  0
  3 33  1  0  0  0  0
  3 43  1  0  0  0  0
  4  9  1  0  0  0  0
  4  5  2  0  0  0  0
  5  6  1  0  0  0  0
  5 34  1  0  0  0  0
  6  7  1  0  0  0  0
  6  8  1  0  0  0  0
  8 13  2  0  0  0  0
  8  9  1  0  0  0  0
  9 10  2  0  0  0  0
 10 11  1  0  0  0  0
 10 35  1  0  0  0  0
 11 17  2  0  0  0  0
 11 12  1  0  0  0  0
 12 13  1  0  0  0  0
 12 14  2  0  0  0  0
 13 36  1  0  0  0  0
 14 15  1  0  0  0  0
 15 16  2  0  0  0  0
 15 37  1  0  0  0  0
 16 17  1  0  0  0  0
 17 18  1  0  0  0  0
 18 19  1  0  0  0  0
 18 38  1  0  0  0  0
 19 24  2  0  0  0  0
 19 20  1  0  0  0  0
 20 21  2  0  0  0  0
 20 39  1  0  0  0  0
 21 22  1  0  0  0  0
 21 40  1  0  0  0  0
 22 23  2  0  0  0  0
 22 41  1  0  0  0  0
 23 24  1  0  0  0  0
 23 25  1  0  0  0  0
 24 42  1  0  0  0  0
 43 44  1  0  0  0  0
M  CHG  1  43   1
M  END
$$$$
ZINC03815117
  -OEChem-08230709403D

 31 33  0     0  0  0  0  0  0999 V2000
    2.5730    3.9709   -0.1533 C   0  0  0  0  0  0  0  0  0  0  0  0
    1.2767    3.3696   -0.1621 O   0  0  0  0  0  0  0  0  0  0  0  0
    1.2213    2.0200   -0.0085 C   0  0  0  0  0  0  0  0  0  0  0  0
    0.0002    1.3691   -0.0070 C   0  0  0  0  0  0  0  0  0  0  0  0
   -0.0002   -0.0219    0.1542 C   0  0  0  0  0  0  0  0  0  0  0  0
    1.2316   -0.7043    0.3078 C   0  0  0  0  0  0  0  0  0  0  0  0
    2.3763   -0.0221    0.2980 N   0  0  0  0  0  0  0  0  0  0  0  0
    2.3955    1.2824    0.1480 C   0  0  0  0  0  0  0  0  0  0  0  0
    1.2073   -2.0375    0.4603 N   0  0  0  0  0  0  0  0  0  0  0  0
    0.0684   -2.6883    0.4664 C   0  0  0  0  0  0  0  0  0  0  0  0
   -1.1046   -2.0925    0.3264 N   0  0  0  0  0  0  0  0  0  0  0  0
   -1.1968   -0.7781    0.1690 C   0  0  0  0  0  0  0  0  0  0  0  0
   -2.4242   -0.1659    0.0243 N   0  0  0  0  0  0  0  0  0  0  0  0
   -3.5839   -0.9398   -0.0748 C   0  0  0  0  0  0  0  0  0  0  0  0
   -4.7836   -0.4653    0.4407 C   0  0  0  0  0  0  0  0  0  0  0  0
   -5.9279   -1.2318    0.3410 C   0  0  0  0  0  0  0  0  0  0  0  0
   -5.8811   -2.4709   -0.2712 C   0  0  0  0  0  0  0  0  0  0  0  0
   -4.6883   -2.9467   -0.7862 C   0  0  0  0  0  0  0  0  0  0  0  0
   -3.5405   -2.1822   -0.6939 C   0  0  0  0  0  0  0  0  0  0  0  0
   -4.6299   -4.6412   -1.6236 Br  0  0  0  0  0  0  0  0  0  0  0  0
    3.0631    3.7640    0.7981 H   0  0  0  0  0  0  0  0  0  0  0  0
    3.1702    3.5588   -0.9668 H   0  0  0  0  0  0  0  0  0  0  0  0
    2.4746    5.0484   -0.2846 H   0  0  0  0  0  0  0  0  0  0  0  0
   -0.9229    1.9160   -0.1306 H   0  0  0  0  0  0  0  0  0  0  0  0
    3.3446    1.7978    0.1456 H   0  0  0  0  0  0  0  0  0  0  0  0
    0.0892   -3.7608    0.5919 H   0  0  0  0  0  0  0  0  0  0  0  0
   -2.4826    0.8018   -0.0087 H   0  0  0  0  0  0  0  0  0  0  0  0
   -4.8212    0.5021    0.9194 H   0  0  0  0  0  0  0  0  0  0  0  0
   -6.8607   -0.8629    0.7414 H   0  0  0  0  0  0  0  0  0  0  0  0
   -6.7775   -3.0683   -0.3478 H   0  0  0  0  0  0  0  0  0  0  0  0
   -2.6105   -2.5519   -1.0996 H   0  0  0  0  0  0  0  0  0  0  0  0
  1  2  1  0  0  0  0
  1 21  1  0  0  0  0
  1 22  1  0  0  0  0
  1 23  1  0  0  0  0
  2  3  1  0  0  0  0
  3  8  2  0  0  0  0
  3  4  1  0  0  0  0
  4  5  2  0  0  0  0
  4 24  1  0  0  0  0
  5 12  1  0  0  0  0
  5  6  1  0  0  0  0
  6  7  2  0  0  0  0
  6  9  1  0  0  0  0
  7  8  1  0  0  0  0
  8 25  1  0  0  0  0
  9 10  2  0  0  0  0
 10 11  1  0  0  0  0
 10 26  1  0  0  0  0
 11 12  2  0  0  0  0
 12 13  1  0  0  0  0
 13 14  1  0  0  0  0
 13 27  1  0  0  0  0
 14 19  2  0  0  0  0
 14 15  1  0  0  0  0
 15 16  2  0  0  0  0
 15 28  1  0  0  0  0
 16 17  1  0  0  0  0
 16 29  1  0  0  0  0
 17 18  2  0  0  0  0
 17 30  1  0  0  0  0
 18 19  1  0  0  0  0
 18 20  1  0  0  0  0
 19 31  1  0  0  0  0
M  END
$$$$
ZINC03815118
  -OEChem-08230709403D

 31 33  0     0  0  0  0  0  0999 V2000
   -4.7277    0.2711   -0.0892 C   0  0  0  0  0  0  0  0  0  0  0  0
   -3.5566   -0.5470   -0.1229 O   0  0  0  0  0  0  0  0  0  0  0  0
   -2.3617    0.0809    0.0236 C   0  0  0  0  0  0  0  0  0  0  0  0
   -1.1982   -0.6653   -0.0016 C   0  0  0  0  0  0  0  0  0  0  0  0
    0.0199    0.0007    0.1515 C   0  0  0  0  0  0  0  0  0  0  0  0
    0.0114    1.4085    0.3256 C   0  0  0  0  0  0  0  0  0  0  0  0
   -1.2205    2.0746    0.3423 C   0  0  0  0  0  0  0  0  0  0  0  0
   -2.3362    1.3977    0.1884 N   0  0  0  0  0  0  0  0  0  0  0  0
    1.1829    2.0416    0.4723 N   0  0  0  0  0  0  0  0  0  0  0  0
    2.3129    1.3790    0.4559 C   0  0  0  0  0  0  0  0  0  0  0  0
    2.3967    0.0676    0.2981 N   0  0  0  0  0  0  0  0  0  0  0  0
    1.3106   -0.6806    0.1421 C   0  0  0  0  0  0  0  0  0  0  0  0
    1.3989   -2.0475   -0.0227 N   0  0  0  0  0  0  0  0  0  0  0  0
    2.6507   -2.6575   -0.1435 C   0  0  0  0  0  0  0  0  0  0  0  0
    2.8498   -3.9415    0.3485 C   0  0  0  0  0  0  0  0  0  0  0  0
    4.0875   -4.5418    0.2275 C   0  0  0  0  0  0  0  0  0  0  0  0
    5.1287   -3.8666   -0.3828 C   0  0  0  0  0  0  0  0  0  0  0  0
    4.9342   -2.5880   -0.8744 C   0  0  0  0  0  0  0  0  0  0  0  0
    3.6965   -1.9835   -0.7606 C   0  0  0  0  0  0  0  0  0  0  0  0
    6.3611   -1.6694   -1.7085 Br  0  0  0  0  0  0  0  0  0  0  0  0
   -4.7834    0.7866    0.8696 H   0  0  0  0  0  0  0  0  0  0  0  0
   -4.6818    1.0048   -0.8940 H   0  0  0  0  0  0  0  0  0  0  0  0
   -5.6114   -0.3540   -0.2174 H   0  0  0  0  0  0  0  0  0  0  0  0
   -1.2303   -1.7365   -0.1360 H   0  0  0  0  0  0  0  0  0  0  0  0
   -1.2530    3.1461    0.4737 H   0  0  0  0  0  0  0  0  0  0  0  0
    3.2303    1.9358    0.5780 H   0  0  0  0  0  0  0  0  0  0  0  0
    0.5923   -2.5853   -0.0549 H   0  0  0  0  0  0  0  0  0  0  0  0
    2.0374   -4.4695    0.8256 H   0  0  0  0  0  0  0  0  0  0  0  0
    4.2424   -5.5400    0.6095 H   0  0  0  0  0  0  0  0  0  0  0  0
    6.0957   -4.3385   -0.4761 H   0  0  0  0  0  0  0  0  0  0  0  0
    3.5438   -0.9869   -1.1477 H   0  0  0  0  0  0  0  0  0  0  0  0
  1  2  1  0  0  0  0
  1 21  1  0  0  0  0
  1 22  1  0  0  0  0
  1 23  1  0  0  0  0
  2  3  1  0  0  0  0
  3  8  2  0  0  0  0
  3  4  1  0  0  0  0
  4  5  2  0  0  0  0
  4 24  1  0  0  0  0
  5 12  1  0  0  0  0
  5  6  1  0  0  0  0
  6  7  2  0  0  0  0
  6  9  1  0  0  0  0
  7  8  1  0  0  0  0
  7 25  1  0  0  0  0
  9 10  2  0  0  0  0
 10 11  1  0  0  0  0
 10 26  1  0  0  0  0
 11 12  2  0  0  0  0
 12 13  1  0  0  0  0
 13 14  1  0  0  0  0
 13 27  1  0  0  0  0
 14 19  2  0  0  0  0
 14 15  1  0  0  0  0
 15 16  2  0  0  0  0
 15 28  1  0  0  0  0
 16 17  1  0  0  0  0
 16 29  1  0  0  0  0
 17 18  2  0  0  0  0
 17 30  1  0  0  0  0
 18 19  1  0  0  0  0
 18 20  1  0  0  0  0
 19 31  1  0  0  0  0
M  END
$$$$
ZINC03815119
  -OEChem-08230709403D

 40 42  0     1  0  0  0  0  0999 V2000
    1.3641   -4.8071    0.7293 C   0  0  0  0  0  0  0  0  0  0  0  0
    2.5612   -3.9694    0.8356 N   0  0  3  0  0  0  0  0  0  0  0  0
    3.8525   -4.5760    1.1688 C   0  0  0  0  0  0  0  0  0  0  0  0
    4.0353   -4.5840    2.6878 C   0  0  0  0  0  0  0  0  0  0  0  0
    3.0532   -5.4356    3.2813 O   0  0  0  0  0  0  0  0  0  0  0  0
    2.4720   -2.6003    0.6204 C   0  0  0  0  0  0  0  0  0  0  0  0
    1.2299   -2.0292    0.4098 C   0  0  0  0  0  0  0  0  0  0  0  0
    1.1580   -0.6486    0.1946 C   0  0  0  0  0  0  0  0  0  0  0  0
    2.3673    0.0969    0.2036 C   0  0  0  0  0  0  0  0  0  0  0  0
    3.5750   -0.5685    0.4254 C   0  0  0  0  0  0  0  0  0  0  0  0
    2.2915    1.4922   -0.0143 C   0  0  0  0  0  0  0  0  0  0  0  0
    1.0937    2.0291   -0.2162 N   0  0  0  0  0  0  0  0  0  0  0  0
   -0.0056    1.2930   -0.2154 C   0  0  0  0  0  0  0  0  0  0  0  0
    0.0030   -0.0056   -0.0184 N   0  0  0  0  0  0  0  0  0  0  0  0
    3.4280    2.2722   -0.0180 N   0  0  0  0  0  0  0  0  0  0  0  0
    3.3212    3.6627   -0.1146 C   0  0  0  0  0  0  0  0  0  0  0  0
    2.2594    4.3230    0.4911 C   0  0  0  0  0  0  0  0  0  0  0  0
    2.1566    5.6966    0.3945 C   0  0  0  0  0  0  0  0  0  0  0  0
    3.1093    6.4157   -0.3040 C   0  0  0  0  0  0  0  0  0  0  0  0
    4.1680    5.7616   -0.9086 C   0  0  0  0  0  0  0  0  0  0  0  0
    4.2791    4.3874   -0.8114 C   0  0  0  0  0  0  0  0  0  0  0  0
    5.4681    6.7494   -1.8625 Br  0  0  0  0  0  0  0  0  0  0  0  0
    1.2571   -5.1596   -0.2965 H   0  0  0  0  0  0  0  0  0  0  0  0
    1.4581   -5.6618    1.3992 H   0  0  0  0  0  0  0  0  0  0  0  0
    0.4863   -4.2233    1.0063 H   0  0  0  0  0  0  0  0  0  0  0  0
    3.8808   -5.5991    0.7940 H   0  0  0  0  0  0  0  0  0  0  0  0
    4.6546   -3.9984    0.7093 H   0  0  0  0  0  0  0  0  0  0  0  0
    5.0315   -4.9530    2.9319 H   0  0  0  0  0  0  0  0  0  0  0  0
    3.9186   -3.5711    3.0732 H   0  0  0  0  0  0  0  0  0  0  0  0
    3.1095   -5.4888    4.2452 H   0  0  0  0  0  0  0  0  0  0  0  0
    0.3360   -2.6352    0.4111 H   0  0  0  0  0  0  0  0  0  0  0  0
    4.5024   -0.0151    0.4350 H   0  0  0  0  0  0  0  0  0  0  0  0
   -0.9530    1.7815   -0.3890 H   0  0  0  0  0  0  0  0  0  0  0  0
    4.3019    1.8563    0.0464 H   0  0  0  0  0  0  0  0  0  0  0  0
    1.5149    3.7624    1.0368 H   0  0  0  0  0  0  0  0  0  0  0  0
    1.3313    6.2102    0.8653 H   0  0  0  0  0  0  0  0  0  0  0  0
    3.0268    7.4900   -0.3774 H   0  0  0  0  0  0  0  0  0  0  0  0
    5.1079    3.8775   -1.2799 H   0  0  0  0  0  0  0  0  0  0  0  0
    3.6583   -1.9074    0.6355 N   0  3  0  0  0  0  0  0  0  0  0  0
    4.5576   -2.3758    0.7966 H   0  0  0  0  0  0  0  0  0  0  0  0
  1  2  1  0  0  0  0
  1 23  1  0  0  0  0
  1 24  1  0  0  0  0
  1 25  1  0  0  0  0
  2  3  1  0  0  0  0
  2  6  1  0  0  0  0
  3  4  1  0  0  0  0
  3 26  1  0  0  0  0
  3 27  1  0  0  0  0
  4  5  1  0  0  0  0
  4 28  1  0  0  0  0
  4 29  1  0  0  0  0
  5 30  1  0  0  0  0
  6  7  2  0  0  0  0
  6 39  1  0  0  0  0
  7  8  1  0  0  0  0
  7 31  1  0  0  0  0
  8 14  2  0  0  0  0
  8  9  1  0  0  0  0
  9 10  1  0  0  0  0
  9 11  2  0  0  0  0
 10 32  1  0  0  0  0
 10 39  2  0  0  0  0
 11 12  1  0  0  0  0
 11 15  1  0  0  0  0
 12 13  2  0  0  0  0
 13 14  1  0  0  0  0
 13 33  1  0  0  0  0
 15 16  1  0  0  0  0
 15 34  1  0  0  0  0
 16 21  2  0  0  0  0
 16 17  1  0  0  0  0
 17 18  2  0  0  0  0
 17 35  1  0  0  0  0
 18 19  1  0  0  0  0
 18 36  1  0  0  0  0
 19 20  2  0  0  0  0
 19 37  1  0  0  0  0
 20 21  1  0  0  0  0
 20 22  1  0  0  0  0
 21 38  1  0  0  0  0
 39 40  1  0  0  0  0
M  CHG  1  39   1
M  END
$$$$
ZINC03815120
  -OEChem-08230709403D

 33 36  0     0  0  0  0  0  0999 V2000
   -0.1958    1.2428   -0.0984 C   0  0  0  0  0  0  0  0  0  0  0  0
    0.9777    1.9330   -0.3317 C   0  0  0  0  0  0  0  0  0  0  0  0
    1.1690    3.1867    0.2347 C   0  0  0  0  0  0  0  0  0  0  0  0
    0.1786    3.7428    1.0345 C   0  0  0  0  0  0  0  0  0  0  0  0
   -0.9930    3.0473    1.2641 C   0  0  0  0  0  0  0  0  0  0  0  0
   -1.1823    1.8007    0.6933 C   0  0  0  0  0  0  0  0  0  0  0  0
   -2.3422    3.8027    2.3526 Br  0  0  0  0  0  0  0  0  0  0  0  0
    2.3552    3.8876   -0.0000 N   0  0  0  0  0  0  0  0  0  0  0  0
    2.3357    5.2711   -0.0971 C   0  0  0  0  0  0  0  0  0  0  0  0
    3.5162    5.9942   -0.2105 C   0  0  0  0  0  0  0  0  0  0  0  0
    3.4977    7.3907   -0.3090 C   0  0  0  0  0  0  0  0  0  0  0  0
    4.8142    8.0480   -0.4249 C   0  0  0  0  0  0  0  0  0  0  0  0
    5.0745    9.4340   -0.5368 C   0  0  0  0  0  0  0  0  0  0  0  0
    6.3590    9.9007   -0.6370 C   0  0  0  0  0  0  0  0  0  0  0  0
    7.4431    9.0349   -0.6322 C   0  0  0  0  0  0  0  0  0  0  0  0
    7.2233    7.6703   -0.5238 C   0  0  0  0  0  0  0  0  0  0  0  0
    5.9256    7.1926   -0.4222 C   0  0  0  0  0  0  0  0  0  0  0  0
    5.2340    5.5650   -0.2699 S   0  0  0  0  0  0  0  0  0  0  0  0
    8.3034    6.7815   -0.5176 N   0  0  0  0  0  0  0  0  0  0  0  0
    2.2770    7.9717   -0.2860 N   0  0  0  0  0  0  0  0  0  0  0  0
    1.1846    7.2585   -0.1776 C   0  0  0  0  0  0  0  0  0  0  0  0
    1.1838    5.9407   -0.0896 N   0  0  0  0  0  0  0  0  0  0  0  0
   -0.3448    0.2679   -0.5387 H   0  0  0  0  0  0  0  0  0  0  0  0
    1.7460    1.4980   -0.9537 H   0  0  0  0  0  0  0  0  0  0  0  0
    0.3241    4.7176    1.4761 H   0  0  0  0  0  0  0  0  0  0  0  0
   -2.1007    1.2608    0.8705 H   0  0  0  0  0  0  0  0  0  0  0  0
    3.1921    3.4065   -0.0950 H   0  0  0  0  0  0  0  0  0  0  0  0
    4.2510   10.1326   -0.5434 H   0  0  0  0  0  0  0  0  0  0  0  0
    6.5309   10.9636   -0.7211 H   0  0  0  0  0  0  0  0  0  0  0  0
    8.4488    9.4204   -0.7117 H   0  0  0  0  0  0  0  0  0  0  0  0
    8.1459    5.8273   -0.4419 H   0  0  0  0  0  0  0  0  0  0  0  0
    9.2099    7.1192   -0.5889 H   0  0  0  0  0  0  0  0  0  0  0  0
    0.2354    7.7736   -0.1645 H   0  0  0  0  0  0  0  0  0  0  0  0
  1  6  2  0  0  0  0
  1  2  1  0  0  0  0
  1 23  1  0  0  0  0
  2  3  2  0  0  0  0
  2 24  1  0  0  0  0
  3  4  1  0  0  0  0
  3  8  1  0  0  0  0
  4  5  2  0  0  0  0
  4 25  1  0  0  0  0
  5  6  1  0  0  0  0
  5  7  1  0  0  0  0
  6 26  1  0  0  0  0
  8  9  1  0  0  0  0
  8 27  1  0  0  0  0
  9 22  2  0  0  0  0
  9 10  1  0  0  0  0
 10 18  1  0  0  0  0
 10 11  2  0  0  0  0
 11 12  1  0  0  0  0
 11 20  1  0  0  0  0
 12 17  2  0  0  0  0
 12 13  1  0  0  0  0
 13 14  2  0  0  0  0
 13 28  1  0  0  0  0
 14 15  1  0  0  0  0
 14 29  1  0  0  0  0
 15 16  2  0  0  0  0
 15 30  1  0  0  0  0
 16 17  1  0  0  0  0
 16 19  1  0  0  0  0
 17 18  1  0  0  0  0
 19 31  1  0  0  0  0
 19 32  1  0  0  0  0
 20 21  2  0  0  0  0
 21 22  1  0  0  0  0
 21 33  1  0  0  0  0
M  END
$$$$
ZINC03815121
  -OEChem-08230709403D

 39 41  0     0  0  0  0  0  0999 V2000
    1.9048    5.7837   -1.0090 C   0  0  0  0  0  0  0  0  0  0  0  0
    2.0432    4.3809   -0.4761 C   0  0  0  0  0  0  0  0  0  0  0  0
    3.2601    3.9461    0.0168 C   0  0  0  0  0  0  0  0  0  0  0  0
    3.3914    2.6598    0.5068 C   0  0  0  0  0  0  0  0  0  0  0  0
    2.3055    1.8063    0.5103 C   0  0  0  0  0  0  0  0  0  0  0  0
    1.0832    2.2381    0.0116 C   0  0  0  0  0  0  0  0  0  0  0  0
    0.9548    3.5312   -0.4799 C   0  0  0  0  0  0  0  0  0  0  0  0
   -0.0166    1.3755    0.0096 N   0  0  0  0  0  0  0  0  0  0  0  0
    0.1705    0.0195   -0.1629 C   0  0  0  0  0  0  0  0  0  0  0  0
   -0.9409   -0.9202   -0.0511 C   0  0  0  0  0  0  0  0  0  0  0  0
   -2.2500   -0.5259    0.2339 C   0  0  0  0  0  0  0  0  0  0  0  0
   -3.2268   -1.5032    0.3177 C   0  0  0  0  0  0  0  0  0  0  0  0
   -1.7256   -3.2127   -0.1375 C   0  0  0  0  0  0  0  0  0  0  0  0
   -0.6688   -2.2991   -0.2422 C   0  0  0  0  0  0  0  0  0  0  0  0
    0.5892   -2.6706   -0.5149 N   0  0  0  0  0  0  0  0  0  0  0  0
    1.5490   -1.7835   -0.6037 C   0  0  0  0  0  0  0  0  0  0  0  0
    1.3678   -0.4822   -0.4427 N   0  0  0  0  0  0  0  0  0  0  0  0
   -4.5390   -1.1329    0.6018 N   0  0  0  0  0  0  0  0  0  0  0  0
   -4.8952    0.2847    0.6997 C   0  0  0  0  0  0  0  0  0  0  0  0
   -5.5631   -2.1611    0.8028 C   0  0  0  0  0  0  0  0  0  0  0  0
    1.6102    6.4523   -0.2001 H   0  0  0  0  0  0  0  0  0  0  0  0
    2.8589    6.1113   -1.4219 H   0  0  0  0  0  0  0  0  0  0  0  0
    1.1452    5.8022   -1.7906 H   0  0  0  0  0  0  0  0  0  0  0  0
    4.1097    4.6129    0.0194 H   0  0  0  0  0  0  0  0  0  0  0  0
    4.3430    2.3236    0.8912 H   0  0  0  0  0  0  0  0  0  0  0  0
    2.4075    0.8032    0.8972 H   0  0  0  0  0  0  0  0  0  0  0  0
    0.0046    3.8716   -0.8643 H   0  0  0  0  0  0  0  0  0  0  0  0
   -0.9118    1.7308    0.1255 H   0  0  0  0  0  0  0  0  0  0  0  0
   -2.4940    0.5151    0.3859 H   0  0  0  0  0  0  0  0  0  0  0  0
   -1.5428   -4.2677   -0.2790 H   0  0  0  0  0  0  0  0  0  0  0  0
    2.5461   -2.1341   -0.8256 H   0  0  0  0  0  0  0  0  0  0  0  0
   -5.1967    0.6522   -0.2812 H   0  0  0  0  0  0  0  0  0  0  0  0
   -5.7203    0.4044    1.4019 H   0  0  0  0  0  0  0  0  0  0  0  0
   -4.0337    0.8524    1.0512 H   0  0  0  0  0  0  0  0  0  0  0  0
   -5.6039   -2.4319    1.8579 H   0  0  0  0  0  0  0  0  0  0  0  0
   -6.5327   -1.7743    0.4892 H   0  0  0  0  0  0  0  0  0  0  0  0
   -5.3146   -3.0420    0.2110 H   0  0  0  0  0  0  0  0  0  0  0  0
   -3.0027   -2.8458    0.1393 N   0  3  0  0  0  0  0  0  0  0  0  0
   -3.7602   -3.5351    0.2113 H   0  0  0  0  0  0  0  0  0  0  0  0
  1  2  1  0  0  0  0
  1 21  1  0  0  0  0
  1 22  1  0  0  0  0
  1 23  1  0  0  0  0
  2  7  2  0  0  0  0
  2  3  1  0  0  0  0
  3  4  2  0  0  0  0
  3 24  1  0  0  0  0
  4  5  1  0  0  0  0
  4 25  1  0  0  0  0
  5  6  2  0  0  0  0
  5 26  1  0  0  0  0
  6  7  1  0  0  0  0
  6  8  1  0  0  0  0
  7 27  1  0  0  0  0
  8  9  1  0  0  0  0
  8 28  1  0  0  0  0
  9 17  2  0  0  0  0
  9 10  1  0  0  0  0
 10 14  2  0  0  0  0
 10 11  1  0  0  0  0
 11 12  2  0  0  0  0
 11 29  1  0  0  0  0
 12 18  1  0  0  0  0
 12 38  1  0  0  0  0
 13 14  1  0  0  0  0
 13 30  1  0  0  0  0
 13 38  2  0  0  0  0
 14 15  1  0  0  0  0
 15 16  2  0  0  0  0
 16 17  1  0  0  0  0
 16 31  1  0  0  0  0
 18 19  1  0  0  0  0
 18 20  1  0  0  0  0
 19 32  1  0  0  0  0
 19 33  1  0  0  0  0
 19 34  1  0  0  0  0
 20 35  1  0  0  0  0
 20 36  1  0  0  0  0
 20 37  1  0  0  0  0
 38 39  1  0  0  0  0
M  CHG  1  38   1
M  END
$$$$
ZINC03815122
  -OEChem-08230709403D

 51 54  0     0  0  0  0  0  0999 V2000
   -1.1108    2.9203   -0.7515 C   0  0  0  0  0  0  0  0  0  0  0  0
    0.0731    3.6319   -0.7455 C   0  0  0  0  0  0  0  0  0  0  0  0
    1.1562    3.1695   -0.0088 C   0  0  0  0  0  0  0  0  0  0  0  0
    1.0449    1.9921    0.7200 C   0  0  0  0  0  0  0  0  0  0  0  0
   -0.1421    1.2850    0.7099 C   0  0  0  0  0  0  0  0  0  0  0  0
   -1.2207    1.7517   -0.0211 C   0  0  0  0  0  0  0  0  0  0  0  0
   -0.2955   -0.3176    1.7019 Br  0  0  0  0  0  0  0  0  0  0  0  0
    2.3551    3.8876   -0.0005 N   0  0  0  0  0  0  0  0  0  0  0  0
    2.3357    5.2646   -0.0976 C   0  0  0  0  0  0  0  0  0  0  0  0
    3.5726    6.0347   -0.2111 C   0  0  0  0  0  0  0  0  0  0  0  0
    3.4639    7.4429   -0.3121 C   0  0  0  0  0  0  0  0  0  0  0  0
    4.6473    8.1940   -0.4282 C   0  0  0  0  0  0  0  0  0  0  0  0
    5.7970    7.5515   -0.4430 N   0  0  0  0  0  0  0  0  0  0  0  0
    5.8571    6.2253   -0.3515 C   0  0  0  0  0  0  0  0  0  0  0  0
    4.7783    5.4714   -0.2403 N   0  0  0  0  0  0  0  0  0  0  0  0
    7.0982    5.6122   -0.3732 N   0  0  0  0  0  0  0  0  0  0  0  0
    8.3131    6.4218   -0.4951 C   0  0  0  0  0  0  0  0  0  0  0  0
    9.5386    5.5058   -0.4943 C   0  0  0  0  0  0  0  0  0  0  0  0
   10.8074    6.3513   -0.6216 C   0  0  0  0  0  0  0  0  0  0  0  0
   12.1439    4.8068    0.6805 C   0  0  0  0  0  0  0  0  0  0  0  0
   13.3433    3.8573    0.6183 C   0  0  0  0  0  0  0  0  0  0  0  0
   14.5092    4.5941    0.2399 O   0  0  0  0  0  0  0  0  0  0  0  0
   14.3884    5.2541   -1.0231 C   0  0  0  0  0  0  0  0  0  0  0  0
   13.1996    6.2178   -0.9775 C   0  0  0  0  0  0  0  0  0  0  0  0
    2.2480    7.9992   -0.2879 N   0  0  0  0  0  0  0  0  0  0  0  0
    1.1713    7.2599   -0.1787 C   0  0  0  0  0  0  0  0  0  0  0  0
    1.1935    5.9400   -0.0858 N   0  0  0  0  0  0  0  0  0  0  0  0
   -1.9531    3.2798   -1.3239 H   0  0  0  0  0  0  0  0  0  0  0  0
    0.1568    4.5467   -1.3133 H   0  0  0  0  0  0  0  0  0  0  0  0
    1.8850    1.6301    1.2941 H   0  0  0  0  0  0  0  0  0  0  0  0
   -2.1489    1.1995   -0.0243 H   0  0  0  0  0  0  0  0  0  0  0  0
    3.2009    3.4185    0.0735 H   0  0  0  0  0  0  0  0  0  0  0  0
    4.6142    9.2709   -0.5029 H   0  0  0  0  0  0  0  0  0  0  0  0
    7.1634    4.6466   -0.3077 H   0  0  0  0  0  0  0  0  0  0  0  0
    8.2818    6.9860   -1.4272 H   0  0  0  0  0  0  0  0  0  0  0  0
    8.3753    7.1126    0.3458 H   0  0  0  0  0  0  0  0  0  0  0  0
    9.5700    4.9416    0.4378 H   0  0  0  0  0  0  0  0  0  0  0  0
    9.4764    4.8150   -1.3352 H   0  0  0  0  0  0  0  0  0  0  0  0
   10.7761    6.9155   -1.5537 H   0  0  0  0  0  0  0  0  0  0  0  0
   10.8696    7.0421    0.2193 H   0  0  0  0  0  0  0  0  0  0  0  0
   12.3127    5.5562    1.4538 H   0  0  0  0  0  0  0  0  0  0  0  0
   11.2424    4.2398    0.9127 H   0  0  0  0  0  0  0  0  0  0  0  0
   13.1515    3.0764   -0.1175 H   0  0  0  0  0  0  0  0  0  0  0  0
   13.5005    3.4049    1.5975 H   0  0  0  0  0  0  0  0  0  0  0  0
   14.2270    4.5138   -1.8066 H   0  0  0  0  0  0  0  0  0  0  0  0
   15.3014    5.8120   -1.2310 H   0  0  0  0  0  0  0  0  0  0  0  0
   13.0687    6.6808   -1.9556 H   0  0  0  0  0  0  0  0  0  0  0  0
   13.3852    6.9897   -0.2307 H   0  0  0  0  0  0  0  0  0  0  0  0
    0.2120    7.7558   -0.1634 H   0  0  0  0  0  0  0  0  0  0  0  0
   11.9813    5.4519   -0.6391 N   0  3  0  0  0  0  0  0  0  0  0  0
   11.8348    4.7258   -1.3502 H   0  0  0  0  0  0  0  0  0  0  0  0
  1  6  2  0  0  0  0
  1  2  1  0  0  0  0
  1 28  1  0  0  0  0
  2  3  2  0  0  0  0
  2 29  1  0  0  0  0
  3  4  1  0  0  0  0
  3  8  1  0  0  0  0
  4  5  2  0  0  0  0
  4 30  1  0  0  0  0
  5  6  1  0  0  0  0
  5  7  1  0  0  0  0
  6 31  1  0  0  0  0
  8  9  1  0  0  0  0
  8 32  1  0  0  0  0
  9 27  2  0  0  0  0
  9 10  1  0  0  0  0
 10 15  2  0  0  0  0
 10 11  1  0  0  0  0
 11 12  2  0  0  0  0
 11 25  1  0  0  0  0
 12 13  1  0  0  0  0
 12 33  1  0  0  0  0
 13 14  2  0  0  0  0
 14 15  1  0  0  0  0
 14 16  1  0  0  0  0
 16 17  1  0  0  0  0
 16 34  1  0  0  0  0
 17 18  1  0  0  0  0
 17 35  1  0  0  0  0
 17 36  1  0  0  0  0
 18 19  1  0  0  0  0
 18 37  1  0  0  0  0
 18 38  1  0  0  0  0
 19 39  1  0  0  0  0
 19 40  1  0  0  0  0
 19 50  1  0  0  0  0
 20 21  1  0  0  0  0
 20 41  1  0  0  0  0
 20 42  1  0  0  0  0
 20 50  1  0  0  0  0
 21 22  1  0  0  0  0
 21 43  1  0  0  0  0
 21 44  1  0  0  0  0
 22 23  1  0  0  0  0
 23 24  1  0  0  0  0
 23 45  1  0  0  0  0
 23 46  1  0  0  0  0
 24 47  1  0  0  0  0
 24 48  1  0  0  0  0
 24 50  1  0  0  0  0
 25 26  2  0  0  0  0
 26 27  1  0  0  0  0
 26 49  1  0  0  0  0
 50 51  1  0  0  0  0
M  CHG  1  50   1
M  END
$$$$
ZINC03815123
  -OEChem-08230709403D

 44 47  0     0  0  0  0  0  0999 V2000
   -1.9932    0.9752   -1.4767 C   0  0  0  0  0  0  0  0  0  0  0  0
   -0.9727    1.7492   -0.6826 C   0  0  0  0  0  0  0  0  0  0  0  0
   -0.0171    1.0758    0.0566 C   0  0  0  0  0  0  0  0  0  0  0  0
    0.9243    1.7820    0.7824 C   0  0  0  0  0  0  0  0  0  0  0  0
    0.9100    3.1631    0.7757 C   0  0  0  0  0  0  0  0  0  0  0  0
   -0.0515    3.8425    0.0386 C   0  0  0  0  0  0  0  0  0  0  0  0
   -0.9959    3.1298   -0.6895 C   0  0  0  0  0  0  0  0  0  0  0  0
   -0.0691    5.2400    0.0299 N   0  0  0  0  0  0  0  0  0  0  0  0
    1.1134    5.9458    0.1271 C   0  0  0  0  0  0  0  0  0  0  0  0
    1.1201    7.4028    0.2403 C   0  0  0  0  0  0  0  0  0  0  0  0
    2.3761    8.0491    0.3409 C   0  0  0  0  0  0  0  0  0  0  0  0
    2.3947    9.4507    0.4562 C   0  0  0  0  0  0  0  0  0  0  0  0
    1.2446   10.0925    0.4707 N   0  0  0  0  0  0  0  0  0  0  0  0
    0.0841    9.4479    0.3795 C   0  0  0  0  0  0  0  0  0  0  0  0
    0.0081    8.1338    0.2690 N   0  0  0  0  0  0  0  0  0  0  0  0
   -1.0890   10.1829    0.4008 N   0  0  0  0  0  0  0  0  0  0  0  0
   -1.0371   11.6420    0.5219 C   0  0  0  0  0  0  0  0  0  0  0  0
   -2.4598   12.2048    0.5208 C   0  0  0  0  0  0  0  0  0  0  0  0
   -2.4064   13.7057    0.6454 C   0  0  0  0  0  0  0  0  0  0  0  0
   -2.9731   14.5903   -0.1970 C   0  0  0  0  0  0  0  0  0  0  0  0
   -2.6826   15.8382    0.2849 N   0  0  0  0  0  0  0  0  0  0  0  0
   -2.9622   16.7098   -0.1178 H   0  0  0  0  0  0  0  0  0  0  0  0
   -1.9479   15.6724    1.4058 C   0  0  0  0  0  0  0  0  0  0  0  0
   -1.7910   14.3944    1.6180 N   0  0  0  0  0  0  0  0  0  0  0  0
    3.4876    7.3057    0.3172 N   0  0  0  0  0  0  0  0  0  0  0  0
    3.4229    6.0012    0.2088 C   0  0  0  0  0  0  0  0  0  0  0  0
    2.2876    5.3277    0.1158 N   0  0  0  0  0  0  0  0  0  0  0  0
   -2.8692    0.7861   -0.8562 H   0  0  0  0  0  0  0  0  0  0  0  0
   -2.2866    1.5535   -2.3528 H   0  0  0  0  0  0  0  0  0  0  0  0
   -1.5620    0.0263   -1.7955 H   0  0  0  0  0  0  0  0  0  0  0  0
   -0.0035   -0.0041    0.0633 H   0  0  0  0  0  0  0  0  0  0  0  0
    1.6718    1.2531    1.3550 H   0  0  0  0  0  0  0  0  0  0  0  0
    1.6454    3.7142    1.3431 H   0  0  0  0  0  0  0  0  0  0  0  0
   -1.7449    3.6550   -1.2637 H   0  0  0  0  0  0  0  0  0  0  0  0
   -0.9121    5.7139   -0.0444 H   0  0  0  0  0  0  0  0  0  0  0  0
    3.3289    9.9874    0.5307 H   0  0  0  0  0  0  0  0  0  0  0  0
   -1.9453    9.7318    0.3355 H   0  0  0  0  0  0  0  0  0  0  0  0
   -0.5403   11.9117    1.4539 H   0  0  0  0  0  0  0  0  0  0  0  0
   -0.4816   12.0568   -0.3192 H   0  0  0  0  0  0  0  0  0  0  0  0
   -2.9565   11.9350   -0.4111 H   0  0  0  0  0  0  0  0  0  0  0  0
   -3.0153   11.7899    1.3619 H   0  0  0  0  0  0  0  0  0  0  0  0
   -3.5464   14.3596   -1.0828 H   0  0  0  0  0  0  0  0  0  0  0  0
   -1.5583   16.4660    2.0261 H   0  0  0  0  0  0  0  0  0  0  0  0
    4.3483    5.4446    0.1941 H   0  0  0  0  0  0  0  0  0  0  0  0
  1  2  1  0  0  0  0
  1 28  1  0  0  0  0
  1 29  1  0  0  0  0
  1 30  1  0  0  0  0
  2  7  2  0  0  0  0
  2  3  1  0  0  0  0
  3  4  2  0  0  0  0
  3 31  1  0  0  0  0
  4  5  1  0  0  0  0
  4 32  1  0  0  0  0
  5  6  2  0  0  0  0
  5 33  1  0  0  0  0
  6  7  1  0  0  0  0
  6  8  1  0  0  0  0
  7 34  1  0  0  0  0
  8  9  1  0  0  0  0
  8 35  1  0  0  0  0
  9 27  2  0  0  0  0
  9 10  1  0  0  0  0
 10 15  2  0  0  0  0
 10 11  1  0  0  0  0
 11 12  2  0  0  0  0
 11 25  1  0  0  0  0
 12 13  1  0  0  0  0
 12 36  1  0  0  0  0
 13 14  2  0  0  0  0
 14 15  1  0  0  0  0
 14 16  1  0  0  0  0
 16 17  1  0  0  0  0
 16 37  1  0  0  0  0
 17 18  1  0  0  0  0
 17 38  1  0  0  0  0
 17 39  1  0  0  0  0
 18 19  1  0  0  0  0
 18 40  1  0  0  0  0
 18 41  1  0  0  0  0
 19 24  1  0  0  0  0
 19 20  2  0  0  0  0
 20 21  1  0  0  0  0
 20 42  1  0  0  0  0
 21 22  1  0  0  0  0
 21 23  1  0  0  0  0
 23 24  2  0  0  0  0
 23 43  1  0  0  0  0
 25 26  2  0  0  0  0
 26 27  1  0  0  0  0
 26 44  1  0  0  0  0
M  END
$$$$
ZINC03815123
  -OEChem-08230709403D

 44 47  0     0  0  0  0  0  0999 V2000
   -1.9932    0.9752   -1.4767 C   0  0  0  0  0  0  0  0  0  0  0  0
   -0.9727    1.7492   -0.6826 C   0  0  0  0  0  0  0  0  0  0  0  0
   -0.0171    1.0758    0.0566 C   0  0  0  0  0  0  0  0  0  0  0  0
    0.9243    1.7820    0.7824 C   0  0  0  0  0  0  0  0  0  0  0  0
    0.9100    3.1631    0.7757 C   0  0  0  0  0  0  0  0  0  0  0  0
   -0.0515    3.8425    0.0386 C   0  0  0  0  0  0  0  0  0  0  0  0
   -0.9959    3.1298   -0.6895 C   0  0  0  0  0  0  0  0  0  0  0  0
   -0.0691    5.2400    0.0299 N   0  0  0  0  0  0  0  0  0  0  0  0
    1.1134    5.9458    0.1271 C   0  0  0  0  0  0  0  0  0  0  0  0
    1.1201    7.4028    0.2403 C   0  0  0  0  0  0  0  0  0  0  0  0
    2.3761    8.0491    0.3409 C   0  0  0  0  0  0  0  0  0  0  0  0
    2.3947    9.4507    0.4562 C   0  0  0  0  0  0  0  0  0  0  0  0
    1.2446   10.0925    0.4707 N   0  0  0  0  0  0  0  0  0  0  0  0
    0.0841    9.4479    0.3795 C   0  0  0  0  0  0  0  0  0  0  0  0
    0.0081    8.1338    0.2690 N   0  0  0  0  0  0  0  0  0  0  0  0
   -1.0890   10.1829    0.4008 N   0  0  0  0  0  0  0  0  0  0  0  0
   -1.0371   11.6420    0.5219 C   0  0  0  0  0  0  0  0  0  0  0  0
   -2.4598   12.2048    0.5208 C   0  0  0  0  0  0  0  0  0  0  0  0
   -2.4064   13.7057    0.6454 C   0  0  0  0  0  0  0  0  0  0  0  0
   -2.9731   14.5903   -0.1970 C   0  0  0  0  0  0  0  0  0  0  0  0
   -2.6826   15.8382    0.2849 N   0  0  0  0  0  0  0  0  0  0  0  0
   -2.9622   16.7098   -0.1178 H   0  0  0  0  0  0  0  0  0  0  0  0
   -1.9479   15.6724    1.4058 C   0  0  0  0  0  0  0  0  0  0  0  0
   -1.7910   14.3944    1.6180 N   0  0  0  0  0  0  0  0  0  0  0  0
    3.4876    7.3057    0.3172 N   0  0  0  0  0  0  0  0  0  0  0  0
    3.4229    6.0012    0.2088 C   0  0  0  0  0  0  0  0  0  0  0  0
    2.2876    5.3277    0.1158 N   0  0  0  0  0  0  0  0  0  0  0  0
   -2.8692    0.7861   -0.8562 H   0  0  0  0  0  0  0  0  0  0  0  0
   -2.2866    1.5535   -2.3528 H   0  0  0  0  0  0  0  0  0  0  0  0
   -1.5620    0.0263   -1.7955 H   0  0  0  0  0  0  0  0  0  0  0  0
   -0.0035   -0.0041    0.0633 H   0  0  0  0  0  0  0  0  0  0  0  0
    1.6718    1.2531    1.3550 H   0  0  0  0  0  0  0  0  0  0  0  0
    1.6454    3.7142    1.3431 H   0  0  0  0  0  0  0  0  0  0  0  0
   -1.7449    3.6550   -1.2637 H   0  0  0  0  0  0  0  0  0  0  0  0
   -0.9121    5.7139   -0.0444 H   0  0  0  0  0  0  0  0  0  0  0  0
    3.3289    9.9874    0.5307 H   0  0  0  0  0  0  0  0  0  0  0  0
   -1.9453    9.7318    0.3355 H   0  0  0  0  0  0  0  0  0  0  0  0
   -0.5403   11.9117    1.4539 H   0  0  0  0  0  0  0  0  0  0  0  0
   -0.4816   12.0568   -0.3192 H   0  0  0  0  0  0  0  0  0  0  0  0
   -2.9565   11.9350   -0.4111 H   0  0  0  0  0  0  0  0  0  0  0  0
   -3.0153   11.7899    1.3619 H   0  0  0  0  0  0  0  0  0  0  0  0
   -3.5464   14.3596   -1.0828 H   0  0  0  0  0  0  0  0  0  0  0  0
   -1.5583   16.4660    2.0261 H   0  0  0  0  0  0  0  0  0  0  0  0
    4.3483    5.4446    0.1941 H   0  0  0  0  0  0  0  0  0  0  0  0
  1  2  1  0  0  0  0
  1 28  1  0  0  0  0
  1 29  1  0  0  0  0
  1 30  1  0  0  0  0
  2  7  2  0  0  0  0
  2  3  1  0  0  0  0
  3  4  2  0  0  0  0
  3 31  1  0  0  0  0
  4  5  1  0  0  0  0
  4 32  1  0  0  0  0
  5  6  2  0  0  0  0
  5 33  1  0  0  0  0
  6  7  1  0  0  0  0
  6  8  1  0  0  0  0
  7 34  1  0  0  0  0
  8  9  1  0  0  0  0
  8 35  1  0  0  0  0
  9 27  2  0  0  0  0
  9 10  1  0  0  0  0
 10 15  2  0  0  0  0
 10 11  1  0  0  0  0
 11 12  2  0  0  0  0
 11 25  1  0  0  0  0
 12 13  1  0  0  0  0
 12 36  1  0  0  0  0
 13 14  2  0  0  0  0
 14 15  1  0  0  0  0
 14 16  1  0  0  0  0
 16 17  1  0  0  0  0
 16 37  1  0  0  0  0
 17 18  1  0  0  0  0
 17 38  1  0  0  0  0
 17 39  1  0  0  0  0
 18 19  1  0  0  0  0
 18 40  1  0  0  0  0
 18 41  1  0  0  0  0
 19 24  1  0  0  0  0
 19 20  2  0  0  0  0
 20 21  1  0  0  0  0
 20 42  1  0  0  0  0
 21 22  1  0  0  0  0
 21 23  1  0  0  0  0
 23 24  2  0  0  0  0
 23 43  1  0  0  0  0
 25 26  2  0  0  0  0
 26 27  1  0  0  0  0
 26 44  1  0  0  0  0
M  END
$$$$
ZINC03815123
  -OEChem-08230709403D

 45 48  0     0  0  0  0  0  0999 V2000
   -1.9932    0.9752   -1.4767 C   0  0  0  0  0  0  0  0  0  0  0  0
   -0.9727    1.7492   -0.6826 C   0  0  0  0  0  0  0  0  0  0  0  0
   -0.0171    1.0758    0.0566 C   0  0  0  0  0  0  0  0  0  0  0  0
    0.9243    1.7820    0.7824 C   0  0  0  0  0  0  0  0  0  0  0  0
    0.9100    3.1631    0.7757 C   0  0  0  0  0  0  0  0  0  0  0  0
   -0.0515    3.8425    0.0386 C   0  0  0  0  0  0  0  0  0  0  0  0
   -0.9959    3.1298   -0.6895 C   0  0  0  0  0  0  0  0  0  0  0  0
   -0.0691    5.2400    0.0299 N   0  0  0  0  0  0  0  0  0  0  0  0
    1.1134    5.9458    0.1271 C   0  0  0  0  0  0  0  0  0  0  0  0
    1.1201    7.4028    0.2403 C   0  0  0  0  0  0  0  0  0  0  0  0
    2.3761    8.0491    0.3409 C   0  0  0  0  0  0  0  0  0  0  0  0
    2.3947    9.4507    0.4562 C   0  0  0  0  0  0  0  0  0  0  0  0
    1.2446   10.0925    0.4707 N   0  0  0  0  0  0  0  0  0  0  0  0
    0.0841    9.4479    0.3795 C   0  0  0  0  0  0  0  0  0  0  0  0
    0.0081    8.1338    0.2690 N   0  0  0  0  0  0  0  0  0  0  0  0
   -1.0890   10.1829    0.4008 N   0  0  0  0  0  0  0  0  0  0  0  0
   -1.0371   11.6420    0.5219 C   0  0  0  0  0  0  0  0  0  0  0  0
   -2.4598   12.2048    0.5208 C   0  0  0  0  0  0  0  0  0  0  0  0
   -2.4064   13.7057    0.6454 C   0  0  0  0  0  0  0  0  0  0  0  0
   -2.9731   14.5903   -0.1970 C   0  0  0  0  0  0  0  0  0  0  0  0
   -2.6826   15.8382    0.2849 N   0  0  0  0  0  0  0  0  0  0  0  0
   -2.9622   16.7098   -0.1178 H   0  0  0  0  0  0  0  0  0  0  0  0
   -1.9479   15.6724    1.4058 C   0  0  0  0  0  0  0  0  0  0  0  0
    3.4876    7.3057    0.3172 N   0  0  0  0  0  0  0  0  0  0  0  0
    3.4229    6.0012    0.2088 C   0  0  0  0  0  0  0  0  0  0  0  0
    2.2876    5.3277    0.1158 N   0  0  0  0  0  0  0  0  0  0  0  0
   -2.8692    0.7861   -0.8562 H   0  0  0  0  0  0  0  0  0  0  0  0
   -2.2866    1.5535   -2.3528 H   0  0  0  0  0  0  0  0  0  0  0  0
   -1.5620    0.0263   -1.7955 H   0  0  0  0  0  0  0  0  0  0  0  0
   -0.0035   -0.0041    0.0633 H   0  0  0  0  0  0  0  0  0  0  0  0
    1.6718    1.2531    1.3550 H   0  0  0  0  0  0  0  0  0  0  0  0
    1.6454    3.7142    1.3431 H   0  0  0  0  0  0  0  0  0  0  0  0
   -1.7449    3.6550   -1.2637 H   0  0  0  0  0  0  0  0  0  0  0  0
   -0.9121    5.7139   -0.0444 H   0  0  0  0  0  0  0  0  0  0  0  0
    3.3289    9.9874    0.5307 H   0  0  0  0  0  0  0  0  0  0  0  0
   -1.9453    9.7318    0.3355 H   0  0  0  0  0  0  0  0  0  0  0  0
   -0.5403   11.9117    1.4539 H   0  0  0  0  0  0  0  0  0  0  0  0
   -0.4816   12.0568   -0.3192 H   0  0  0  0  0  0  0  0  0  0  0  0
   -2.9565   11.9350   -0.4111 H   0  0  0  0  0  0  0  0  0  0  0  0
   -3.0153   11.7899    1.3619 H   0  0  0  0  0  0  0  0  0  0  0  0
   -3.5464   14.3596   -1.0828 H   0  0  0  0  0  0  0  0  0  0  0  0
   -1.5583   16.4660    2.0261 H   0  0  0  0  0  0  0  0  0  0  0  0
    4.3483    5.4446    0.1941 H   0  0  0  0  0  0  0  0  0  0  0  0
   -1.7917   14.3949    1.6170 N   0  3  0  0  0  0  0  0  0  0  0  0
   -1.2782   13.9818    2.4042 H   0  0  0  0  0  0  0  0  0  0  0  0
  1  2  1  0  0  0  0
  1 27  1  0  0  0  0
  1 28  1  0  0  0  0
  1 29  1  0  0  0  0
  2  7  2  0  0  0  0
  2  3  1  0  0  0  0
  3  4  2  0  0  0  0
  3 30  1  0  0  0  0
  4  5  1  0  0  0  0
  4 31  1  0  0  0  0
  5  6  2  0  0  0  0
  5 32  1  0  0  0  0
  6  7  1  0  0  0  0
  6  8  1  0  0  0  0
  7 33  1  0  0  0  0
  8  9  1  0  0  0  0
  8 34  1  0  0  0  0
  9 26  2  0  0  0  0
  9 10  1  0  0  0  0
 10 15  2  0  0  0  0
 10 11  1  0  0  0  0
 11 12  2  0  0  0  0
 11 24  1  0  0  0  0
 12 13  1  0  0  0  0
 12 35  1  0  0  0  0
 13 14  2  0  0  0  0
 14 15  1  0  0  0  0
 14 16  1  0  0  0  0
 16 17  1  0  0  0  0
 16 36  1  0  0  0  0
 17 18  1  0  0  0  0
 17 37  1  0  0  0  0
 17 38  1  0  0  0  0
 18 19  1  0  0  0  0
 18 39  1  0  0  0  0
 18 40  1  0  0  0  0
 19 20  2  0  0  0  0
 19 44  1  0  0  0  0
 20 21  1  0  0  0  0
 20 41  1  0  0  0  0
 21 22  1  0  0  0  0
 21 23  1  0  0  0  0
 23 42  1  0  0  0  0
 23 44  2  0  0  0  0
 24 25  2  0  0  0  0
 25 26  1  0  0  0  0
 25 43  1  0  0  0  0
 44 45  1  0  0  0  0
M  CHG  1  44   1
M  END
$$$$
ZINC03815124
  -OEChem-08230709403D

 33 35  0     0  0  0  0  0  0999 V2000
    1.9048    5.7837   -1.0090 C   0  0  0  0  0  0  0  0  0  0  0  0
    2.0432    4.3809   -0.4761 C   0  0  0  0  0  0  0  0  0  0  0  0
    3.2601    3.9461    0.0168 C   0  0  0  0  0  0  0  0  0  0  0  0
    3.3914    2.6598    0.5068 C   0  0  0  0  0  0  0  0  0  0  0  0
    2.3055    1.8063    0.5103 C   0  0  0  0  0  0  0  0  0  0  0  0
    1.0832    2.2381    0.0116 C   0  0  0  0  0  0  0  0  0  0  0  0
    0.9548    3.5312   -0.4799 C   0  0  0  0  0  0  0  0  0  0  0  0
   -0.0166    1.3755    0.0096 N   0  0  0  0  0  0  0  0  0  0  0  0
    0.1705    0.0195   -0.1629 C   0  0  0  0  0  0  0  0  0  0  0  0
   -0.9410   -0.9202   -0.0511 C   0  0  0  0  0  0  0  0  0  0  0  0
   -2.2500   -0.5259    0.2339 C   0  0  0  0  0  0  0  0  0  0  0  0
   -3.2268   -1.5032    0.3177 C   0  0  0  0  0  0  0  0  0  0  0  0
   -1.7256   -3.2127   -0.1375 C   0  0  0  0  0  0  0  0  0  0  0  0
   -0.6688   -2.2991   -0.2422 C   0  0  0  0  0  0  0  0  0  0  0  0
    0.5892   -2.6706   -0.5149 N   0  0  0  0  0  0  0  0  0  0  0  0
    1.5490   -1.7835   -0.6037 C   0  0  0  0  0  0  0  0  0  0  0  0
    1.3678   -0.4822   -0.4427 N   0  0  0  0  0  0  0  0  0  0  0  0
   -4.5390   -1.1329    0.6018 N   0  0  0  0  0  0  0  0  0  0  0  0
    1.6102    6.4523   -0.2001 H   0  0  0  0  0  0  0  0  0  0  0  0
    2.8589    6.1112   -1.4219 H   0  0  0  0  0  0  0  0  0  0  0  0
    1.1452    5.8021   -1.7906 H   0  0  0  0  0  0  0  0  0  0  0  0
    4.1097    4.6129    0.0194 H   0  0  0  0  0  0  0  0  0  0  0  0
    4.3430    2.3236    0.8912 H   0  0  0  0  0  0  0  0  0  0  0  0
    2.4075    0.8031    0.8972 H   0  0  0  0  0  0  0  0  0  0  0  0
    0.0046    3.8716   -0.8643 H   0  0  0  0  0  0  0  0  0  0  0  0
   -0.9118    1.7308    0.1255 H   0  0  0  0  0  0  0  0  0  0  0  0
   -2.4940    0.5151    0.3859 H   0  0  0  0  0  0  0  0  0  0  0  0
   -1.5428   -4.2677   -0.2790 H   0  0  0  0  0  0  0  0  0  0  0  0
    2.5461   -2.1341   -0.8256 H   0  0  0  0  0  0  0  0  0  0  0  0
   -5.2314   -1.8095    0.6632 H   0  0  0  0  0  0  0  0  0  0  0  0
   -4.7605   -0.1985    0.7384 H   0  0  0  0  0  0  0  0  0  0  0  0
   -3.0027   -2.8458    0.1393 N   0  3  0  0  0  0  0  0  0  0  0  0
   -3.7602   -3.5351    0.2113 H   0  0  0  0  0  0  0  0  0  0  0  0
  1  2  1  0  0  0  0
  1 19  1  0  0  0  0
  1 20  1  0  0  0  0
  1 21  1  0  0  0  0
  2  7  2  0  0  0  0
  2  3  1  0  0  0  0
  3  4  2  0  0  0  0
  3 22  1  0  0  0  0
  4  5  1  0  0  0  0
  4 23  1  0  0  0  0
  5  6  2  0  0  0  0
  5 24  1  0  0  0  0
  6  7  1  0  0  0  0
  6  8  1  0  0  0  0
  7 25  1  0  0  0  0
  8  9  1  0  0  0  0
  8 26  1  0  0  0  0
  9 17  2  0  0  0  0
  9 10  1  0  0  0  0
 10 14  2  0  0  0  0
 10 11  1  0  0  0  0
 11 12  2  0  0  0  0
 11 27  1  0  0  0  0
 12 18  1  0  0  0  0
 12 32  1  0  0  0  0
 13 14  1  0  0  0  0
 13 28  1  0  0  0  0
 13 32  2  0  0  0  0
 14 15  1  0  0  0  0
 15 16  2  0  0  0  0
 16 17  1  0  0  0  0
 16 29  1  0  0  0  0
 18 30  1  0  0  0  0
 18 31  1  0  0  0  0
 32 33  1  0  0  0  0
M  CHG  1  32   1
M  END
$$$$
ZINC03815125
  -OEChem-08230709403D

 36 38  0     0  0  0  0  0  0999 V2000
   -3.9826   -5.0868   -0.8343 C   0  0  0  0  0  0  0  0  0  0  0  0
   -4.0442   -3.8723   -0.0173 N   0  0  0  0  0  0  0  0  0  0  0  0
   -3.0009   -2.9580   -0.0537 C   0  0  0  0  0  0  0  0  0  0  0  0
   -1.9063   -3.2108   -0.8703 C   0  0  0  0  0  0  0  0  0  0  0  0
   -0.8677   -2.2836   -0.8953 C   0  0  0  0  0  0  0  0  0  0  0  0
   -0.9845   -1.1312   -0.0718 C   0  0  0  0  0  0  0  0  0  0  0  0
   -2.1151   -0.9541    0.7067 C   0  0  0  0  0  0  0  0  0  0  0  0
    0.1295   -0.1667   -0.1151 C   0  0  0  0  0  0  0  0  0  0  0  0
   -0.0044    1.0923    0.2483 N   0  0  0  0  0  0  0  0  0  0  0  0
    1.0700    1.9363    0.1981 C   0  0  0  0  0  0  0  0  0  0  0  0
    1.8363    2.1662    1.3439 C   0  0  0  0  0  0  0  0  0  0  0  0
    2.9216    3.0149    1.2851 C   0  0  0  0  0  0  0  0  0  0  0  0
    3.2471    3.6466    0.0976 C   0  0  0  0  0  0  0  0  0  0  0  0
    2.4896    3.4280   -1.0405 C   0  0  0  0  0  0  0  0  0  0  0  0
    1.4035    2.5773   -0.9974 C   0  0  0  0  0  0  0  0  0  0  0  0
    2.9437    4.2973   -2.6573 Br  0  0  0  0  0  0  0  0  0  0  0  0
    1.3371   -0.6959   -0.5661 N   0  0  0  0  0  0  0  0  0  0  0  0
    1.2855   -1.6783   -1.5143 C   0  0  0  0  0  0  0  0  0  0  0  0
    0.2381   -2.4390   -1.6630 N   0  0  0  0  0  0  0  0  0  0  0  0
    2.6178   -0.2159   -0.0412 C   0  0  0  0  0  0  0  0  0  0  0  0
   -4.8844   -5.6780   -0.6750 H   0  0  0  0  0  0  0  0  0  0  0  0
   -3.9087   -4.8133   -1.8869 H   0  0  0  0  0  0  0  0  0  0  0  0
   -3.1090   -5.6728   -0.5490 H   0  0  0  0  0  0  0  0  0  0  0  0
   -4.8142   -3.7073    0.5490 H   0  0  0  0  0  0  0  0  0  0  0  0
   -1.8619   -4.1061   -1.4727 H   0  0  0  0  0  0  0  0  0  0  0  0
   -2.2109   -0.0759    1.3280 H   0  0  0  0  0  0  0  0  0  0  0  0
    1.5810    1.6776    2.2726 H   0  0  0  0  0  0  0  0  0  0  0  0
    3.5167    3.1904    2.1692 H   0  0  0  0  0  0  0  0  0  0  0  0
    4.0957    4.3134    0.0586 H   0  0  0  0  0  0  0  0  0  0  0  0
    0.8132    2.4074   -1.8857 H   0  0  0  0  0  0  0  0  0  0  0  0
    2.1383   -1.8290   -2.1596 H   0  0  0  0  0  0  0  0  0  0  0  0
    2.6414   -0.3520    1.0400 H   0  0  0  0  0  0  0  0  0  0  0  0
    3.4315   -0.7805   -0.4963 H   0  0  0  0  0  0  0  0  0  0  0  0
    2.7335    0.8421   -0.2768 H   0  0  0  0  0  0  0  0  0  0  0  0
   -3.1406   -1.8502    0.7408 N   0  3  0  0  0  0  0  0  0  0  0  0
   -3.9703   -1.7041    1.3278 H   0  0  0  0  0  0  0  0  0  0  0  0
  1  2  1  0  0  0  0
  1 21  1  0  0  0  0
  1 22  1  0  0  0  0
  1 23  1  0  0  0  0
  2  3  1  0  0  0  0
  2 24  1  0  0  0  0
  3  4  2  0  0  0  0
  3 35  1  0  0  0  0
  4  5  1  0  0  0  0
  4 25  1  0  0  0  0
  5 19  1  0  0  0  0
  5  6  2  0  0  0  0
  6  7  1  0  0  0  0
  6  8  1  0  0  0  0
  7 26  1  0  0  0  0
  7 35  2  0  0  0  0
  8  9  2  0  0  0  0
  8 17  1  0  0  0  0
  9 10  1  0  0  0  0
 10 15  2  0  0  0  0
 10 11  1  0  0  0  0
 11 12  2  0  0  0  0
 11 27  1  0  0  0  0
 12 13  1  0  0  0  0
 12 28  1  0  0  0  0
 13 14  2  0  0  0  0
 13 29  1  0  0  0  0
 14 15  1  0  0  0  0
 14 16  1  0  0  0  0
 15 30  1  0  0  0  0
 17 18  1  0  0  0  0
 17 20  1  0  0  0  0
 18 19  2  0  0  0  0
 18 31  1  0  0  0  0
 20 32  1  0  0  0  0
 20 33  1  0  0  0  0
 20 34  1  0  0  0  0
 35 36  1  0  0  0  0
M  CHG  1  35   1
M  END
$$$$
ZINC03815126
  -OEChem-08230709403D

 44 46  0     1  0  0  0  0  0999 V2000
    3.8533   -4.5759    1.1686 C   0  0  0  0  0  0  0  0  0  0  0  0
    2.5619   -3.9694    0.8364 N   0  0  3  0  0  0  0  0  0  0  0  0
    1.3647   -4.8071    0.7307 C   0  0  0  0  0  0  0  0  0  0  0  0
    1.2137   -5.3015   -0.7093 C   0  0  2  0  0  0  0  0  0  0  0  0
    1.2084   -4.4483   -1.3877 H   0  0  0  0  0  0  0  0  0  0  0  0
   -0.1007   -6.0721   -0.8488 C   0  0  0  0  0  0  0  0  0  0  0  0
   -0.2982   -6.4334   -2.2172 O   0  0  0  0  0  0  0  0  0  0  0  0
    2.3071   -6.1620   -1.0347 O   0  0  0  0  0  0  0  0  0  0  0  0
    2.4725   -2.6001    0.6216 C   0  0  0  0  0  0  0  0  0  0  0  0
    1.2302   -2.0290    0.4120 C   0  0  0  0  0  0  0  0  0  0  0  0
    1.1581   -0.6485    0.1967 C   0  0  0  0  0  0  0  0  0  0  0  0
    2.3674    0.0970    0.2046 C   0  0  0  0  0  0  0  0  0  0  0  0
    3.5753   -0.5685    0.4251 C   0  0  0  0  0  0  0  0  0  0  0  0
    2.2914    1.4923   -0.0133 C   0  0  0  0  0  0  0  0  0  0  0  0
    1.0935    2.0292   -0.2142 N   0  0  0  0  0  0  0  0  0  0  0  0
   -0.0058    1.2930   -0.2125 C   0  0  0  0  0  0  0  0  0  0  0  0
    0.0030   -0.0055   -0.0154 N   0  0  0  0  0  0  0  0  0  0  0  0
    3.4280    2.2722   -0.0183 N   0  0  0  0  0  0  0  0  0  0  0  0
    3.3211    3.6627   -0.1149 C   0  0  0  0  0  0  0  0  0  0  0  0
    2.2595    4.3230    0.4911 C   0  0  0  0  0  0  0  0  0  0  0  0
    2.1564    5.6966    0.3940 C   0  0  0  0  0  0  0  0  0  0  0  0
    3.1084    6.4155   -0.3056 C   0  0  0  0  0  0  0  0  0  0  0  0
    4.1672    5.7615   -0.9100 C   0  0  0  0  0  0  0  0  0  0  0  0
    4.2789    4.3874   -0.8120 C   0  0  0  0  0  0  0  0  0  0  0  0
    5.4666    6.7492   -1.8650 Br  0  0  0  0  0  0  0  0  0  0  0  0
    3.9843   -4.5819    2.2507 H   0  0  0  0  0  0  0  0  0  0  0  0
    3.8815   -5.5990    0.7935 H   0  0  0  0  0  0  0  0  0  0  0  0
    4.6551   -3.9982    0.7088 H   0  0  0  0  0  0  0  0  0  0  0  0
    1.4592   -5.6620    1.4003 H   0  0  0  0  0  0  0  0  0  0  0  0
    0.4871   -4.2233    1.0084 H   0  0  0  0  0  0  0  0  0  0  0  0
   -0.0601   -6.9734   -0.2372 H   0  0  0  0  0  0  0  0  0  0  0  0
   -0.9272   -5.4441   -0.5159 H   0  0  0  0  0  0  0  0  0  0  0  0
   -1.1143   -6.9258   -2.3801 H   0  0  0  0  0  0  0  0  0  0  0  0
    2.3736   -6.9442   -0.4699 H   0  0  0  0  0  0  0  0  0  0  0  0
    0.3363   -2.6351    0.4141 H   0  0  0  0  0  0  0  0  0  0  0  0
    4.5028   -0.0151    0.4336 H   0  0  0  0  0  0  0  0  0  0  0  0
   -0.9533    1.7816   -0.3854 H   0  0  0  0  0  0  0  0  0  0  0  0
    4.3020    1.8562    0.0451 H   0  0  0  0  0  0  0  0  0  0  0  0
    1.5154    3.7624    1.0374 H   0  0  0  0  0  0  0  0  0  0  0  0
    1.3315    6.2102    0.8654 H   0  0  0  0  0  0  0  0  0  0  0  0
    3.0253    7.4898   -0.3799 H   0  0  0  0  0  0  0  0  0  0  0  0
    5.1077    3.8775   -1.2805 H   0  0  0  0  0  0  0  0  0  0  0  0
    3.6588   -1.9073    0.6352 N   0  3  0  0  0  0  0  0  0  0  0  0
    4.5583   -2.3757    0.7953 H   0  0  0  0  0  0  0  0  0  0  0  0
  1  2  1  0  0  0  0
  1 26  1  0  0  0  0
  1 27  1  0  0  0  0
  1 28  1  0  0  0  0
  2  3  1  0  0  0  0
  2  9  1  0  0  0  0
  3  4  1  0  0  0  0
  3 29  1  0  0  0  0
  3 30  1  0  0  0  0
  4  5  1  0  0  0  0
  4  6  1  0  0  0  0
  4  8  1  0  0  0  0
  6  7  1  0  0  0  0
  6 31  1  0  0  0  0
  6 32  1  0  0  0  0
  7 33  1  0  0  0  0
  8 34  1  0  0  0  0
  9 10  2  0  0  0  0
  9 43  1  0  0  0  0
 10 11  1  0  0  0  0
 10 35  1  0  0  0  0
 11 17  2  0  0  0  0
 11 12  1  0  0  0  0
 12 13  1  0  0  0  0
 12 14  2  0  0  0  0
 13 36  1  0  0  0  0
 13 43  2  0  0  0  0
 14 15  1  0  0  0  0
 14 18  1  0  0  0  0
 15 16  2  0  0  0  0
 16 17  1  0  0  0  0
 16 37  1  0  0  0  0
 18 19  1  0  0  0  0
 18 38  1  0  0  0  0
 19 24  2  0  0  0  0
 19 20  1  0  0  0  0
 20 21  2  0  0  0  0
 20 39  1  0  0  0  0
 21 22  1  0  0  0  0
 21 40  1  0  0  0  0
 22 23  2  0  0  0  0
 22 41  1  0  0  0  0
 23 24  1  0  0  0  0
 23 25  1  0  0  0  0
 24 42  1  0  0  0  0
 43 44  1  0  0  0  0
M  CHG  1  43   1
M  END
$$$$
ZINC03815128
  -OEChem-08230709403D

 50 53  0     0  0  0  0  0  0999 V2000
    2.1576    5.6966    0.3943 C   0  0  0  0  0  0  0  0  0  0  0  0
    2.2602    4.3225    0.4909 C   0  0  0  0  0  0  0  0  0  0  0  0
    3.3215    3.6622   -0.1146 C   0  0  0  0  0  0  0  0  0  0  0  0
    4.2799    4.3869   -0.8116 C   0  0  0  0  0  0  0  0  0  0  0  0
    4.1693    5.7608   -0.9084 C   0  0  0  0  0  0  0  0  0  0  0  0
    3.1101    6.4152   -0.3040 C   0  0  0  0  0  0  0  0  0  0  0  0
    5.4699    6.7485   -1.8618 Br  0  0  0  0  0  0  0  0  0  0  0  0
    3.4281    2.2717   -0.0180 N   0  0  0  0  0  0  0  0  0  0  0  0
    2.2914    1.4919   -0.0148 C   0  0  0  0  0  0  0  0  0  0  0  0
    2.3670    0.0967    0.2030 C   0  0  0  0  0  0  0  0  0  0  0  0
    3.5749   -0.5691    0.4254 C   0  0  0  0  0  0  0  0  0  0  0  0
    2.4714   -2.6007    0.6198 C   0  0  0  0  0  0  0  0  0  0  0  0
    1.2297   -2.0296    0.4088 C   0  0  0  0  0  0  0  0  0  0  0  0
    1.1579   -0.6486    0.1936 C   0  0  0  0  0  0  0  0  0  0  0  0
    0.0031   -0.0057   -0.0199 N   0  0  0  0  0  0  0  0  0  0  0  0
   -0.0055    1.2929   -0.2168 C   0  0  0  0  0  0  0  0  0  0  0  0
    1.0938    2.0290   -0.2171 N   0  0  0  0  0  0  0  0  0  0  0  0
    2.5604   -3.9699    0.8350 N   0  0  0  0  0  0  0  0  0  0  0  0
    1.3474   -4.7915    0.8366 C   0  0  0  0  0  0  0  0  0  0  0  0
    1.7214   -6.2525    1.0942 C   0  0  0  0  0  0  0  0  0  0  0  0
   -0.3593   -6.7373    2.2356 C   0  0  0  0  0  0  0  0  0  0  0  0
   -1.6391   -7.5747    2.1653 C   0  0  0  0  0  0  0  0  0  0  0  0
   -1.2940   -8.9624    2.1415 O   0  0  0  0  0  0  0  0  0  0  0  0
   -0.4531   -9.3278    1.0440 C   0  0  0  0  0  0  0  0  0  0  0  0
    0.8387   -8.5081    1.1028 C   0  0  0  0  0  0  0  0  0  0  0  0
    1.3324    6.2103    0.8651 H   0  0  0  0  0  0  0  0  0  0  0  0
    1.5156    3.7620    1.0367 H   0  0  0  0  0  0  0  0  0  0  0  0
    5.1086    3.8769   -1.2801 H   0  0  0  0  0  0  0  0  0  0  0  0
    3.0277    7.4896   -0.3777 H   0  0  0  0  0  0  0  0  0  0  0  0
    4.3020    1.8556    0.0467 H   0  0  0  0  0  0  0  0  0  0  0  0
    4.5023   -0.0157    0.4358 H   0  0  0  0  0  0  0  0  0  0  0  0
    0.3358   -2.6356    0.4097 H   0  0  0  0  0  0  0  0  0  0  0  0
   -0.9528    1.7814   -0.3908 H   0  0  0  0  0  0  0  0  0  0  0  0
    3.4256   -4.3822    0.9842 H   0  0  0  0  0  0  0  0  0  0  0  0
    0.6748   -4.4448    1.6211 H   0  0  0  0  0  0  0  0  0  0  0  0
    0.8511   -4.7086   -0.1303 H   0  0  0  0  0  0  0  0  0  0  0  0
    2.3940   -6.5992    0.3097 H   0  0  0  0  0  0  0  0  0  0  0  0
    2.2177   -6.3354    2.0612 H   0  0  0  0  0  0  0  0  0  0  0  0
    0.1652   -6.9516    3.1667 H   0  0  0  0  0  0  0  0  0  0  0  0
   -0.6147   -5.6783    2.1963 H   0  0  0  0  0  0  0  0  0  0  0  0
   -2.1907   -7.3212    1.2600 H   0  0  0  0  0  0  0  0  0  0  0  0
   -2.2581   -7.3685    3.0385 H   0  0  0  0  0  0  0  0  0  0  0  0
   -0.9702   -9.1253    0.1061 H   0  0  0  0  0  0  0  0  0  0  0  0
   -0.2137  -10.3893    1.1065 H   0  0  0  0  0  0  0  0  0  0  0  0
    1.4578   -8.7419    0.2367 H   0  0  0  0  0  0  0  0  0  0  0  0
    1.3824   -8.7508    2.0159 H   0  0  0  0  0  0  0  0  0  0  0  0
    3.6579   -1.9077    0.6354 N   0  3  0  0  0  0  0  0  0  0  0  0
    4.5572   -2.3762    0.7969 H   0  0  0  0  0  0  0  0  0  0  0  0
    0.4906   -7.0722    1.0734 N   0  3  0  0  0  0  0  0  0  0  0  0
   -0.0291   -6.8721    0.2107 H   0  0  0  0  0  0  0  0  0  0  0  0
  1  6  2  0  0  0  0
  1  2  1  0  0  0  0
  1 26  1  0  0  0  0
  2  3  2  0  0  0  0
  2 27  1  0  0  0  0
  3  4  1  0  0  0  0
  3  8  1  0  0  0  0
  4  5  2  0  0  0  0
  4 28  1  0  0  0  0
  5  6  1  0  0  0  0
  5  7  1  0  0  0  0
  6 29  1  0  0  0  0
  8  9  1  0  0  0  0
  8 30  1  0  0  0  0
  9 17  2  0  0  0  0
  9 10  1  0  0  0  0
 10 14  2  0  0  0  0
 10 11  1  0  0  0  0
 11 31  1  0  0  0  0
 11 47  2  0  0  0  0
 12 13  2  0  0  0  0
 12 18  1  0  0  0  0
 12 47  1  0  0  0  0
 13 14  1  0  0  0  0
 13 32  1  0  0  0  0
 14 15  1  0  0  0  0
 15 16  2  0  0  0  0
 16 17  1  0  0  0  0
 16 33  1  0  0  0  0
 18 19  1  0  0  0  0
 18 34  1  0  0  0  0
 19 20  1  0  0  0  0
 19 35  1  0  0  0  0
 19 36  1  0  0  0  0
 20 37  1  0  0  0  0
 20 38  1  0  0  0  0
 20 49  1  0  0  0  0
 21 22  1  0  0  0  0
 21 39  1  0  0  0  0
 21 40  1  0  0  0  0
 21 49  1  0  0  0  0
 22 23  1  0  0  0  0
 22 41  1  0  0  0  0
 22 42  1  0  0  0  0
 23 24  1  0  0  0  0
 24 25  1  0  0  0  0
 24 43  1  0  0  0  0
 24 44  1  0  0  0  0
 25 45  1  0  0  0  0
 25 46  1  0  0  0  0
 25 49  1  0  0  0  0
 47 48  1  0  0  0  0
 49 50  1  0  0  0  0
M  CHG  2  47   1  49   1
M  END
$$$$
ZINC03815129
  -OEChem-08230709403D

 33 35  0     0  0  0  0  0  0999 V2000
    0.9230    1.7830    0.7875 C   0  0  0  0  0  0  0  0  0  0  0  0
   -0.0158    1.0758    0.0584 C   0  0  0  0  0  0  0  0  0  0  0  0
   -0.9687    1.7483   -0.6842 C   0  0  0  0  0  0  0  0  0  0  0  0
   -0.9930    3.1293   -0.6911 C   0  0  0  0  0  0  0  0  0  0  0  0
   -0.0515    3.8425    0.0396 C   0  0  0  0  0  0  0  0  0  0  0  0
    0.9082    3.1637    0.7801 C   0  0  0  0  0  0  0  0  0  0  0  0
   -0.0691    5.2402    0.0295 N   0  0  0  0  0  0  0  0  0  0  0  0
    1.1129    5.9458    0.1252 C   0  0  0  0  0  0  0  0  0  0  0  0
    1.1099    7.3565    0.2335 C   0  0  0  0  0  0  0  0  0  0  0  0
   -0.0791    8.0964    0.2485 C   0  0  0  0  0  0  0  0  0  0  0  0
   -0.0295    9.4527    0.3540 C   0  0  0  0  0  0  0  0  0  0  0  0
    1.1970   10.1202    0.4483 C   0  0  0  0  0  0  0  0  0  0  0  0
    2.3849    9.4160    0.4452 C   0  0  0  0  0  0  0  0  0  0  0  0
    2.3573    8.0219    0.3327 C   0  0  0  0  0  0  0  0  0  0  0  0
    3.4824    7.2901    0.3102 N   0  0  0  0  0  0  0  0  0  0  0  0
    3.4239    5.9838    0.2033 C   0  0  0  0  0  0  0  0  0  0  0  0
    2.2829    5.3197    0.1126 N   0  0  0  0  0  0  0  0  0  0  0  0
    1.2194   11.5090    0.5562 N   0  0  0  0  0  0  0  0  0  0  0  0
   -1.9854    0.9736   -1.4824 C   0  0  0  0  0  0  0  0  0  0  0  0
   -1.7638   -0.3975   -1.3144 F   0  0  0  0  0  0  0  0  0  0  0  0
   -3.2719    1.2961   -1.0371 F   0  0  0  0  0  0  0  0  0  0  0  0
   -1.8645    1.3031   -2.8367 F   0  0  0  0  0  0  0  0  0  0  0  0
    1.6687    1.2546    1.3630 H   0  0  0  0  0  0  0  0  0  0  0  0
   -0.0017   -0.0041    0.0656 H   0  0  0  0  0  0  0  0  0  0  0  0
   -1.7403    3.6540   -1.2678 H   0  0  0  0  0  0  0  0  0  0  0  0
    1.6415    3.7153    1.3496 H   0  0  0  0  0  0  0  0  0  0  0  0
   -0.9121    5.7141   -0.0448 H   0  0  0  0  0  0  0  0  0  0  0  0
   -1.0318    7.5928    0.1764 H   0  0  0  0  0  0  0  0  0  0  0  0
   -0.9480   10.0207    0.3653 H   0  0  0  0  0  0  0  0  0  0  0  0
    3.3276    9.9379    0.5179 H   0  0  0  0  0  0  0  0  0  0  0  0
    4.3483    5.4256    0.1882 H   0  0  0  0  0  0  0  0  0  0  0  0
    0.3878   12.0082    0.5656 H   0  0  0  0  0  0  0  0  0  0  0  0
    2.0667   11.9768    0.6219 H   0  0  0  0  0  0  0  0  0  0  0  0
  1  6  2  0  0  0  0
  1  2  1  0  0  0  0
  1 23  1  0  0  0  0
  2  3  2  0  0  0  0
  2 24  1  0  0  0  0
  3  4  1  0  0  0  0
  3 19  1  0  0  0  0
  4  5  2  0  0  0  0
  4 25  1  0  0  0  0
  5  6  1  0  0  0  0
  5  7  1  0  0  0  0
  6 26  1  0  0  0  0
  7  8  1  0  0  0  0
  7 27  1  0  0  0  0
  8 17  2  0  0  0  0
  8  9  1  0  0  0  0
  9 14  2  0  0  0  0
  9 10  1  0  0  0  0
 10 11  2  0  0  0  0
 10 28  1  0  0  0  0
 11 12  1  0  0  0  0
 11 29  1  0  0  0  0
 12 13  2  0  0  0  0
 12 18  1  0  0  0  0
 13 14  1  0  0  0  0
 13 30  1  0  0  0  0
 14 15  1  0  0  0  0
 15 16  2  0  0  0  0
 16 17  1  0  0  0  0
 16 31  1  0  0  0  0
 18 32  1  0  0  0  0
 18 33  1  0  0  0  0
 19 20  1  0  0  0  0
 19 21  1  0  0  0  0
 19 22  1  0  0  0  0
M  END
$$$$
ZINC03815130
  -OEChem-08230709403D

 50 53  0     1  0  0  0  0  0999 V2000
   -0.5284   -0.0684   -0.3144 C   0  0  0  0  0  0  0  0  0  0  0  0
   -0.9082    2.0224    0.8462 C   0  0  0  0  0  0  0  0  0  0  0  0
   -1.8109    2.5593   -0.2344 C   0  0  0  0  0  0  0  0  0  0  0  0
   -1.4444    2.9214   -1.4720 C   0  0  0  0  0  0  0  0  0  0  0  0
   -2.5346    3.3593   -2.1777 N   0  0  0  0  0  0  0  0  0  0  0  0
   -2.5153    3.6708   -3.0961 H   0  0  0  0  0  0  0  0  0  0  0  0
   -3.6621    3.2968   -1.3863 C   0  0  0  0  0  0  0  0  0  0  0  0
   -3.2563    2.7907   -0.1286 C   0  0  0  0  0  0  0  0  0  0  0  0
   -4.1792    2.6118    0.8918 C   0  0  0  0  0  0  0  0  0  0  0  0
   -5.5167    2.9359    0.6685 C   0  0  0  0  0  0  0  0  0  0  0  0
   -5.9260    3.4441   -0.5931 C   0  0  0  0  0  0  0  0  0  0  0  0
   -4.9873    3.6194   -1.6116 C   0  0  0  0  0  0  0  0  0  0  0  0
   -7.2235    3.7458   -0.7738 N   0  0  0  0  0  0  0  0  0  0  0  0
   -8.0886    3.5731    0.1958 C   0  0  0  0  0  0  0  0  0  0  0  0
   -7.7534    3.1027    1.3873 N   0  0  0  0  0  0  0  0  0  0  0  0
   -6.5017    2.7727    1.6752 C   0  0  0  0  0  0  0  0  0  0  0  0
   -6.1669    2.2843    2.9209 N   0  0  0  0  0  0  0  0  0  0  0  0
   -7.1680    2.0171    3.8590 C   0  0  0  0  0  0  0  0  0  0  0  0
   -8.3997    1.5274    3.4425 C   0  0  0  0  0  0  0  0  0  0  0  0
   -9.3867    1.2639    4.3715 C   0  0  0  0  0  0  0  0  0  0  0  0
   -9.1506    1.4864    5.7158 C   0  0  0  0  0  0  0  0  0  0  0  0
   -7.9253    1.9740    6.1345 C   0  0  0  0  0  0  0  0  0  0  0  0
   -6.9317    2.2352    5.2100 C   0  0  0  0  0  0  0  0  0  0  0  0
   -7.6073    2.2760    7.9740 Br  0  0  0  0  0  0  0  0  0  0  0  0
   -0.3606    0.0242    2.0993 C   0  0  0  0  0  0  0  0  0  0  0  0
   -0.7176   -1.4302    2.2674 C   0  0  0  0  0  0  0  0  0  0  0  0
   -1.4603   -1.9650    1.4786 O   0  0  0  0  0  0  0  0  0  0  0  0
   -0.2106   -2.1315    3.2935 O   0  0  0  0  0  0  0  0  0  0  0  0
   -0.5977   -3.5274    3.3931 C   0  0  0  0  0  0  0  0  0  0  0  0
   -0.7005   -1.1438   -0.2696 H   0  0  0  0  0  0  0  0  0  0  0  0
    0.5405    0.1251   -0.4046 H   0  0  0  0  0  0  0  0  0  0  0  0
   -1.0469    0.3469   -1.1786 H   0  0  0  0  0  0  0  0  0  0  0  0
   -1.1921    2.4555    1.8054 H   0  0  0  0  0  0  0  0  0  0  0  0
    0.1252    2.2855    0.6204 H   0  0  0  0  0  0  0  0  0  0  0  0
   -0.4367    2.8730   -1.8577 H   0  0  0  0  0  0  0  0  0  0  0  0
   -3.8646    2.2248    1.8498 H   0  0  0  0  0  0  0  0  0  0  0  0
   -5.2954    4.0052   -2.5721 H   0  0  0  0  0  0  0  0  0  0  0  0
   -9.1226    3.8267    0.0146 H   0  0  0  0  0  0  0  0  0  0  0  0
   -5.2367    2.1261    3.1459 H   0  0  0  0  0  0  0  0  0  0  0  0
   -8.5851    1.3532    2.3928 H   0  0  0  0  0  0  0  0  0  0  0  0
  -10.3442    0.8832    4.0479 H   0  0  0  0  0  0  0  0  0  0  0  0
   -9.9241    1.2788    6.4404 H   0  0  0  0  0  0  0  0  0  0  0  0
   -5.9738    2.6116    5.5375 H   0  0  0  0  0  0  0  0  0  0  0  0
    0.7182    0.1217    1.9773 H   0  0  0  0  0  0  0  0  0  0  0  0
   -0.6783    0.5806    2.9810 H   0  0  0  0  0  0  0  0  0  0  0  0
   -1.6804   -3.5977    3.4970 H   0  0  0  0  0  0  0  0  0  0  0  0
   -0.2839   -4.0565    2.4932 H   0  0  0  0  0  0  0  0  0  0  0  0
   -0.1193   -3.9759    4.2637 H   0  0  0  0  0  0  0  0  0  0  0  0
   -1.0661    0.5543    0.9135 N   0  3  2  0  0  0  0  0  0  0  0  0
   -2.0649    0.3295    0.9915 H   0  0  0  0  0  0  0  0  0  0  0  0
  1 30  1  0  0  0  0
  1 31  1  0  0  0  0
  1 32  1  0  0  0  0
  1 49  1  0  0  0  0
  2  3  1  0  0  0  0
  2 33  1  0  0  0  0
  2 34  1  0  0  0  0
  2 49  1  0  0  0  0
  3  8  1  0  0  0  0
  3  4  2  0  0  0  0
  4  5  1  0  0  0  0
  4 35  1  0  0  0  0
  5  6  1  0  0  0  0
  5  7  1  0  0  0  0
  7 12  2  0  0  0  0
  7  8  1  0  0  0  0
  8  9  2  0  0  0  0
  9 10  1  0  0  0  0
  9 36  1  0  0  0  0
 10 16  2  0  0  0  0
 10 11  1  0  0  0  0
 11 12  1  0  0  0  0
 11 13  2  0  0  0  0
 12 37  1  0  0  0  0
 13 14  1  0  0  0  0
 14 15  2  0  0  0  0
 14 38  1  0  0  0  0
 15 16  1  0  0  0  0
 16 17  1  0  0  0  0
 17 18  1  0  0  0  0
 17 39  1  0  0  0  0
 18 23  2  0  0  0  0
 18 19  1  0  0  0  0
 19 20  2  0  0  0  0
 19 40  1  0  0  0  0
 20 21  1  0  0  0  0
 20 41  1  0  0  0  0
 21 22  2  0  0  0  0
 21 42  1  0  0  0  0
 22 23  1  0  0  0  0
 22 24  1  0  0  0  0
 23 43  1  0  0  0  0
 25 26  1  0  0  0  0
 25 44  1  0  0  0  0
 25 45  1  0  0  0  0
 25 49  1  0  0  0  0
 26 27  2  0  0  0  0
 26 28  1  0  0  0  0
 28 29  1  0  0  0  0
 29 46  1  0  0  0  0
 29 47  1  0  0  0  0
 29 48  1  0  0  0  0
 49 50  1  0  0  0  0
M  CHG  1  49   1
M  END
$$$$
ZINC03815131
  -OEChem-08230709403D

 52 55  0     0  0  0  0  0  0999 V2000
    4.4204   -5.4328    5.3332 C   0  0  0  0  0  0  0  0  0  0  0  0
    4.2875   -4.4220    4.4013 C   0  0  0  0  0  0  0  0  0  0  0  0
    3.5472   -4.6371    3.2459 C   0  0  0  0  0  0  0  0  0  0  0  0
    2.9378   -5.8672    3.0339 C   0  0  0  0  0  0  0  0  0  0  0  0
    3.0789   -6.8761    3.9673 C   0  0  0  0  0  0  0  0  0  0  0  0
    3.8173   -6.6580    5.1174 C   0  0  0  0  0  0  0  0  0  0  0  0
    2.2559   -8.5537    3.6770 Br  0  0  0  0  0  0  0  0  0  0  0  0
    3.4110   -3.6159    2.3011 N   0  0  0  0  0  0  0  0  0  0  0  0
    4.4457   -2.7284    2.0909 C   0  0  0  0  0  0  0  0  0  0  0  0
    4.2893   -1.6212    1.2185 C   0  0  0  0  0  0  0  0  0  0  0  0
    3.0934   -1.3837    0.5425 C   0  0  0  0  0  0  0  0  0  0  0  0
    2.9942   -0.2850   -0.2990 C   0  0  0  0  0  0  0  0  0  0  0  0
    4.0927    0.5899   -0.4737 C   0  0  0  0  0  0  0  0  0  0  0  0
    5.2801    0.3575    0.1949 C   0  0  0  0  0  0  0  0  0  0  0  0
    5.3928   -0.7445    1.0445 C   0  0  0  0  0  0  0  0  0  0  0  0
    6.5308   -1.0038    1.7120 N   0  0  0  0  0  0  0  0  0  0  0  0
    6.6152   -2.0435    2.5055 C   0  0  0  0  0  0  0  0  0  0  0  0
    5.6132   -2.8878    2.6986 N   0  0  0  0  0  0  0  0  0  0  0  0
    3.6900    1.5701   -1.3561 N   0  0  0  0  0  0  0  0  0  0  0  0
    4.2426    2.3072   -1.6599 H   0  0  0  0  0  0  0  0  0  0  0  0
    2.3951    1.3450   -1.7443 C   0  0  0  0  0  0  0  0  0  0  0  0
    1.9162    0.2483   -1.1401 C   0  0  0  0  0  0  0  0  0  0  0  0
    0.5343   -0.3312   -1.2995 C   0  0  0  0  0  0  0  0  0  0  0  0
   -0.5256    1.5143   -0.1447 C   0  0  0  0  0  0  0  0  0  0  0  0
   -1.1373    1.9253    1.1961 C   0  0  0  0  0  0  0  0  0  0  0  0
   -0.2149    1.6371    2.2489 O   0  0  0  0  0  0  0  0  0  0  0  0
   -1.5699   -0.6702   -0.1506 C   0  0  0  0  0  0  0  0  0  0  0  0
   -1.3161   -2.1304    0.2292 C   0  0  0  0  0  0  0  0  0  0  0  0
   -0.8072   -2.1941    1.5630 O   0  0  0  0  0  0  0  0  0  0  0  0
    4.9960   -5.2658    6.2316 H   0  0  0  0  0  0  0  0  0  0  0  0
    4.7590   -3.4652    4.5707 H   0  0  0  0  0  0  0  0  0  0  0  0
    2.3575   -6.0361    2.1388 H   0  0  0  0  0  0  0  0  0  0  0  0
    3.9223   -7.4464    5.8480 H   0  0  0  0  0  0  0  0  0  0  0  0
    2.5889   -3.5315    1.7933 H   0  0  0  0  0  0  0  0  0  0  0  0
    2.2521   -2.0483    0.6728 H   0  0  0  0  0  0  0  0  0  0  0  0
    6.1174    1.0263    0.0608 H   0  0  0  0  0  0  0  0  0  0  0  0
    7.5450   -2.2202    3.0257 H   0  0  0  0  0  0  0  0  0  0  0  0
    1.8401    1.9631   -2.4345 H   0  0  0  0  0  0  0  0  0  0  0  0
    0.5991   -1.4183   -1.3441 H   0  0  0  0  0  0  0  0  0  0  0  0
    0.0868    0.0443   -2.2198 H   0  0  0  0  0  0  0  0  0  0  0  0
    0.4230    2.0324   -0.2853 H   0  0  0  0  0  0  0  0  0  0  0  0
   -1.2079    1.7801   -0.9520 H   0  0  0  0  0  0  0  0  0  0  0  0
   -1.3534    2.9936    1.1847 H   0  0  0  0  0  0  0  0  0  0  0  0
   -2.0606    1.3696    1.3598 H   0  0  0  0  0  0  0  0  0  0  0  0
   -0.5373    1.8725    3.1296 H   0  0  0  0  0  0  0  0  0  0  0  0
   -2.2472   -0.2187    0.5743 H   0  0  0  0  0  0  0  0  0  0  0  0
   -2.0180   -0.6255   -1.1433 H   0  0  0  0  0  0  0  0  0  0  0  0
   -2.2502   -2.6890    0.1696 H   0  0  0  0  0  0  0  0  0  0  0  0
   -0.5893   -2.5635   -0.4580 H   0  0  0  0  0  0  0  0  0  0  0  0
   -0.5513   -3.0832    1.8443 H   0  0  0  0  0  0  0  0  0  0  0  0
   -0.2829    0.0563   -0.1304 N   0  3  0  0  0  0  0  0  0  0  0  0
    0.2251   -0.1888    0.7276 H   0  0  0  0  0  0  0  0  0  0  0  0
  1  6  2  0  0  0  0
  1  2  1  0  0  0  0
  1 30  1  0  0  0  0
  2  3  2  0  0  0  0
  2 31  1  0  0  0  0
  3  4  1  0  0  0  0
  3  8  1  0  0  0  0
  4  5  2  0  0  0  0
  4 32  1  0  0  0  0
  5  6  1  0  0  0  0
  5  7  1  0  0  0  0
  6 33  1  0  0  0  0
  8  9  1  0  0  0  0
  8 34  1  0  0  0  0
  9 18  2  0  0  0  0
  9 10  1  0  0  0  0
 10 15  2  0  0  0  0
 10 11  1  0  0  0  0
 11 12  2  0  0  0  0
 11 35  1  0  0  0  0
 12 22  1  0  0  0  0
 12 13  1  0  0  0  0
 13 14  2  0  0  0  0
 13 19  1  0  0  0  0
 14 15  1  0  0  0  0
 14 36  1  0  0  0  0
 15 16  1  0  0  0  0
 16 17  2  0  0  0  0
 17 18  1  0  0  0  0
 17 37  1  0  0  0  0
 19 20  1  0  0  0  0
 19 21  1  0  0  0  0
 21 22  2  0  0  0  0
 21 38  1  0  0  0  0
 22 23  1  0  0  0  0
 23 39  1  0  0  0  0
 23 40  1  0  0  0  0
 23 51  1  0  0  0  0
 24 25  1  0  0  0  0
 24 41  1  0  0  0  0
 24 42  1  0  0  0  0
 24 51  1  0  0  0  0
 25 26  1  0  0  0  0
 25 43  1  0  0  0  0
 25 44  1  0  0  0  0
 26 45  1  0  0  0  0
 27 28  1  0  0  0  0
 27 46  1  0  0  0  0
 27 47  1  0  0  0  0
 27 51  1  0  0  0  0
 28 29  1  0  0  0  0
 28 48  1  0  0  0  0
 28 49  1  0  0  0  0
 29 50  1  0  0  0  0
 51 52  1  0  0  0  0
M  CHG  1  51   1
M  END
$$$$
ZINC03815132
  -OEChem-08230709403D

 49 52  0     0  0  0  0  0  0999 V2000
   -1.9873    0.9754   -1.4832 C   0  0  0  0  0  0  0  0  0  0  0  0
   -0.9700    1.7492   -0.6848 C   0  0  0  0  0  0  0  0  0  0  0  0
   -0.0172    1.0758    0.0579 C   0  0  0  0  0  0  0  0  0  0  0  0
    0.9217    1.7819    0.7869 C   0  0  0  0  0  0  0  0  0  0  0  0
    0.9074    3.1631    0.7801 C   0  0  0  0  0  0  0  0  0  0  0  0
   -0.0515    3.8425    0.0400 C   0  0  0  0  0  0  0  0  0  0  0  0
   -0.9935    3.1299   -0.6914 C   0  0  0  0  0  0  0  0  0  0  0  0
   -0.0691    5.2402    0.0313 N   0  0  0  0  0  0  0  0  0  0  0  0
    1.1117    5.9450    0.1283 C   0  0  0  0  0  0  0  0  0  0  0  0
    1.1105    7.3549    0.2380 C   0  0  0  0  0  0  0  0  0  0  0  0
   -0.0648    8.1096    0.2659 C   0  0  0  0  0  0  0  0  0  0  0  0
    1.1494   10.0763    0.4673 C   0  0  0  0  0  0  0  0  0  0  0  0
    2.3634    9.4142    0.4533 C   0  0  0  0  0  0  0  0  0  0  0  0
    2.3618    8.0193    0.3391 C   0  0  0  0  0  0  0  0  0  0  0  0
    3.4849    7.2909    0.3167 N   0  0  0  0  0  0  0  0  0  0  0  0
    3.4244    5.9834    0.2078 C   0  0  0  0  0  0  0  0  0  0  0  0
    2.2834    5.3200    0.1159 N   0  0  0  0  0  0  0  0  0  0  0  0
    1.1331   11.4605    0.5800 N   0  0  0  0  0  0  0  0  0  0  0  0
    2.3925   12.2019    0.6822 C   0  0  0  0  0  0  0  0  0  0  0  0
    2.0955   13.6986    0.7948 C   0  0  0  0  0  0  0  0  0  0  0  0
    3.4108   14.4729    0.9016 C   0  0  0  0  0  0  0  0  0  0  0  0
    3.1264   15.9060    1.0095 N   0  0  0  0  0  0  0  0  0  0  0  0
    3.0104   16.7913   -0.0280 C   0  0  0  0  0  0  0  0  0  0  0  0
    2.7436   17.9946    0.5146 C   0  0  0  0  0  0  0  0  0  0  0  0
    2.7071   17.8498    1.8476 N   0  0  0  0  0  0  0  0  0  0  0  0
    2.9355   16.6014    2.1513 C   0  0  0  0  0  0  0  0  0  0  0  0
   -2.8656    0.7859   -0.8662 H   0  0  0  0  0  0  0  0  0  0  0  0
   -2.2773    1.5540   -2.3603 H   0  0  0  0  0  0  0  0  0  0  0  0
   -1.5546    0.0266   -1.8006 H   0  0  0  0  0  0  0  0  0  0  0  0
   -0.0039   -0.0041    0.0648 H   0  0  0  0  0  0  0  0  0  0  0  0
    1.6673    1.2530    1.3619 H   0  0  0  0  0  0  0  0  0  0  0  0
    1.6409    3.7141    1.3501 H   0  0  0  0  0  0  0  0  0  0  0  0
   -1.7402    3.6551   -1.2683 H   0  0  0  0  0  0  0  0  0  0  0  0
   -0.9121    5.7142   -0.0430 H   0  0  0  0  0  0  0  0  0  0  0  0
   -1.0238    7.6181    0.1933 H   0  0  0  0  0  0  0  0  0  0  0  0
    3.2916    9.9611    0.5283 H   0  0  0  0  0  0  0  0  0  0  0  0
    4.3482    5.4242    0.1929 H   0  0  0  0  0  0  0  0  0  0  0  0
    0.2879   11.9363    0.5910 H   0  0  0  0  0  0  0  0  0  0  0  0
    2.9375   11.8721    1.5667 H   0  0  0  0  0  0  0  0  0  0  0  0
    2.9961   12.0171   -0.2064 H   0  0  0  0  0  0  0  0  0  0  0  0
    1.5505   14.0284   -0.0896 H   0  0  0  0  0  0  0  0  0  0  0  0
    1.4919   13.8834    1.6835 H   0  0  0  0  0  0  0  0  0  0  0  0
    3.9558   14.1431    1.7861 H   0  0  0  0  0  0  0  0  0  0  0  0
    4.0144   14.2881    0.0130 H   0  0  0  0  0  0  0  0  0  0  0  0
    3.1111   16.5674   -1.0797 H   0  0  0  0  0  0  0  0  0  0  0  0
    2.5910   18.9158   -0.0281 H   0  0  0  0  0  0  0  0  0  0  0  0
    2.9663   16.1920    3.1502 H   0  0  0  0  0  0  0  0  0  0  0  0
   -0.0768    9.4626    0.3761 N   0  3  0  0  0  0  0  0  0  0  0  0
   -0.9530    9.9975    0.3904 H   0  0  0  0  0  0  0  0  0  0  0  0
  1  2  1  0  0  0  0
  1 27  1  0  0  0  0
  1 28  1  0  0  0  0
  1 29  1  0  0  0  0
  2  7  2  0  0  0  0
  2  3  1  0  0  0  0
  3  4  2  0  0  0  0
  3 30  1  0  0  0  0
  4  5  1  0  0  0  0
  4 31  1  0  0  0  0
  5  6  2  0  0  0  0
  5 32  1  0  0  0  0
  6  7  1  0  0  0  0
  6  8  1  0  0  0  0
  7 33  1  0  0  0  0
  8  9  1  0  0  0  0
  8 34  1  0  0  0  0
  9 17  2  0  0  0  0
  9 10  1  0  0  0  0
 10 14  2  0  0  0  0
 10 11  1  0  0  0  0
 11 35  1  0  0  0  0
 11 48  2  0  0  0  0
 12 13  2  0  0  0  0
 12 18  1  0  0  0  0
 12 48  1  0  0  0  0
 13 14  1  0  0  0  0
 13 36  1  0  0  0  0
 14 15  1  0  0  0  0
 15 16  2  0  0  0  0
 16 17  1  0  0  0  0
 16 37  1  0  0  0  0
 18 19  1  0  0  0  0
 18 38  1  0  0  0  0
 19 20  1  0  0  0  0
 19 39  1  0  0  0  0
 19 40  1  0  0  0  0
 20 21  1  0  0  0  0
 20 41  1  0  0  0  0
 20 42  1  0  0  0  0
 21 22  1  0  0  0  0
 21 43  1  0  0  0  0
 21 44  1  0  0  0  0
 22 26  1  0  0  0  0
 22 23  1  0  0  0  0
 23 24  2  0  0  0  0
 23 45  1  0  0  0  0
 24 25  1  0  0  0  0
 24 46  1  0  0  0  0
 25 26  2  0  0  0  0
 26 47  1  0  0  0  0
 48 49  1  0  0  0  0
M  CHG  1  48   1
M  END
$$$$
ZINC03815132
  -OEChem-08230709403D

 50 53  0     0  0  0  0  0  0999 V2000
   -1.9873    0.9754   -1.4832 C   0  0  0  0  0  0  0  0  0  0  0  0
   -0.9700    1.7492   -0.6848 C   0  0  0  0  0  0  0  0  0  0  0  0
   -0.0172    1.0758    0.0579 C   0  0  0  0  0  0  0  0  0  0  0  0
    0.9217    1.7819    0.7869 C   0  0  0  0  0  0  0  0  0  0  0  0
    0.9074    3.1631    0.7801 C   0  0  0  0  0  0  0  0  0  0  0  0
   -0.0515    3.8425    0.0400 C   0  0  0  0  0  0  0  0  0  0  0  0
   -0.9935    3.1299   -0.6914 C   0  0  0  0  0  0  0  0  0  0  0  0
   -0.0691    5.2402    0.0313 N   0  0  0  0  0  0  0  0  0  0  0  0
    1.1117    5.9450    0.1283 C   0  0  0  0  0  0  0  0  0  0  0  0
    1.1105    7.3549    0.2380 C   0  0  0  0  0  0  0  0  0  0  0  0
   -0.0648    8.1096    0.2659 C   0  0  0  0  0  0  0  0  0  0  0  0
    1.1494   10.0763    0.4673 C   0  0  0  0  0  0  0  0  0  0  0  0
    2.3634    9.4142    0.4533 C   0  0  0  0  0  0  0  0  0  0  0  0
    2.3618    8.0193    0.3391 C   0  0  0  0  0  0  0  0  0  0  0  0
    3.4849    7.2909    0.3167 N   0  0  0  0  0  0  0  0  0  0  0  0
    3.4244    5.9834    0.2078 C   0  0  0  0  0  0  0  0  0  0  0  0
    2.2834    5.3200    0.1159 N   0  0  0  0  0  0  0  0  0  0  0  0
    1.1331   11.4605    0.5800 N   0  0  0  0  0  0  0  0  0  0  0  0
    2.3925   12.2019    0.6822 C   0  0  0  0  0  0  0  0  0  0  0  0
    2.0955   13.6986    0.7948 C   0  0  0  0  0  0  0  0  0  0  0  0
    3.4108   14.4729    0.9016 C   0  0  0  0  0  0  0  0  0  0  0  0
    3.1264   15.9060    1.0095 N   0  0  0  0  0  0  0  0  0  0  0  0
    3.0104   16.7913   -0.0280 C   0  0  0  0  0  0  0  0  0  0  0  0
    2.7436   17.9946    0.5146 C   0  0  0  0  0  0  0  0  0  0  0  0
    2.9355   16.6014    2.1513 C   0  0  0  0  0  0  0  0  0  0  0  0
   -2.8656    0.7859   -0.8662 H   0  0  0  0  0  0  0  0  0  0  0  0
   -2.2773    1.5540   -2.3603 H   0  0  0  0  0  0  0  0  0  0  0  0
   -1.5546    0.0266   -1.8006 H   0  0  0  0  0  0  0  0  0  0  0  0
   -0.0039   -0.0041    0.0648 H   0  0  0  0  0  0  0  0  0  0  0  0
    1.6673    1.2530    1.3619 H   0  0  0  0  0  0  0  0  0  0  0  0
    1.6409    3.7141    1.3501 H   0  0  0  0  0  0  0  0  0  0  0  0
   -1.7402    3.6551   -1.2683 H   0  0  0  0  0  0  0  0  0  0  0  0
   -0.9121    5.7142   -0.0430 H   0  0  0  0  0  0  0  0  0  0  0  0
   -1.0238    7.6181    0.1933 H   0  0  0  0  0  0  0  0  0  0  0  0
    3.2916    9.9611    0.5283 H   0  0  0  0  0  0  0  0  0  0  0  0
    4.3482    5.4242    0.1929 H   0  0  0  0  0  0  0  0  0  0  0  0
    0.2879   11.9363    0.5910 H   0  0  0  0  0  0  0  0  0  0  0  0
    2.9375   11.8721    1.5667 H   0  0  0  0  0  0  0  0  0  0  0  0
    2.9961   12.0171   -0.2064 H   0  0  0  0  0  0  0  0  0  0  0  0
    1.5505   14.0284   -0.0896 H   0  0  0  0  0  0  0  0  0  0  0  0
    1.4919   13.8834    1.6835 H   0  0  0  0  0  0  0  0  0  0  0  0
    3.9558   14.1431    1.7861 H   0  0  0  0  0  0  0  0  0  0  0  0
    4.0144   14.2881    0.0130 H   0  0  0  0  0  0  0  0  0  0  0  0
    3.1111   16.5674   -1.0797 H   0  0  0  0  0  0  0  0  0  0  0  0
    2.5910   18.9158   -0.0281 H   0  0  0  0  0  0  0  0  0  0  0  0
    2.9663   16.1920    3.1502 H   0  0  0  0  0  0  0  0  0  0  0  0
   -0.0768    9.4626    0.3761 N   0  3  0  0  0  0  0  0  0  0  0  0
   -0.9530    9.9975    0.3904 H   0  0  0  0  0  0  0  0  0  0  0  0
    2.7073   17.8488    1.8467 N   0  3  0  0  0  0  0  0  0  0  0  0
    2.5280   18.6015    2.5216 H   0  0  0  0  0  0  0  0  0  0  0  0
  1  2  1  0  0  0  0
  1 26  1  0  0  0  0
  1 27  1  0  0  0  0
  1 28  1  0  0  0  0
  2  7  2  0  0  0  0
  2  3  1  0  0  0  0
  3  4  2  0  0  0  0
  3 29  1  0  0  0  0
  4  5  1  0  0  0  0
  4 30  1  0  0  0  0
  5  6  2  0  0  0  0
  5 31  1  0  0  0  0
  6  7  1  0  0  0  0
  6  8  1  0  0  0  0
  7 32  1  0  0  0  0
  8  9  1  0  0  0  0
  8 33  1  0  0  0  0
  9 17  2  0  0  0  0
  9 10  1  0  0  0  0
 10 14  2  0  0  0  0
 10 11  1  0  0  0  0
 11 34  1  0  0  0  0
 11 47  2  0  0  0  0
 12 13  2  0  0  0  0
 12 18  1  0  0  0  0
 12 47  1  0  0  0  0
 13 14  1  0  0  0  0
 13 35  1  0  0  0  0
 14 15  1  0  0  0  0
 15 16  2  0  0  0  0
 16 17  1  0  0  0  0
 16 36  1  0  0  0  0
 18 19  1  0  0  0  0
 18 37  1  0  0  0  0
 19 20  1  0  0  0  0
 19 38  1  0  0  0  0
 19 39  1  0  0  0  0
 20 21  1  0  0  0  0
 20 40  1  0  0  0  0
 20 41  1  0  0  0  0
 21 22  1  0  0  0  0
 21 42  1  0  0  0  0
 21 43  1  0  0  0  0
 22 25  1  0  0  0  0
 22 23  1  0  0  0  0
 23 24  2  0  0  0  0
 23 44  1  0  0  0  0
 24 45  1  0  0  0  0
 24 49  1  0  0  0  0
 25 46  1  0  0  0  0
 25 49  2  0  0  0  0
 47 48  1  0  0  0  0
 49 50  1  0  0  0  0
M  CHG  2  47   1  49   1
M  END
$$$$
ZINC03815133
  -OEChem-08230709403D

 51 55  0     0  0  0  0  0  0999 V2000
    4.8791    1.0198   -0.4205 C   0  0  0  0  0  0  0  0  0  0  0  0
    3.7001    1.7338   -0.5109 C   0  0  0  0  0  0  0  0  0  0  0  0
    3.5982    2.9827    0.0883 C   0  0  0  0  0  0  0  0  0  0  0  0
    4.6851    3.5125    0.7721 C   0  0  0  0  0  0  0  0  0  0  0  0
    5.8601    2.7913    0.8630 C   0  0  0  0  0  0  0  0  0  0  0  0
    5.9577    1.5469    0.2651 C   0  0  0  0  0  0  0  0  0  0  0  0
    7.3386    3.5081    1.7991 Br  0  0  0  0  0  0  0  0  0  0  0  0
    2.4064    3.7075   -0.0015 N   0  0  0  0  0  0  0  0  0  0  0  0
    1.1958    3.0481    0.0150 C   0  0  0  0  0  0  0  0  0  0  0  0
   -0.0194    3.7504   -0.1963 C   0  0  0  0  0  0  0  0  0  0  0  0
   -0.0398    5.1230   -0.4272 C   0  0  0  0  0  0  0  0  0  0  0  0
   -1.2577    5.7631   -0.6289 C   0  0  0  0  0  0  0  0  0  0  0  0
   -1.6320    7.1528   -0.8902 C   0  0  0  0  0  0  0  0  0  0  0  0
   -2.9271    7.2026   -0.9992 N   0  0  0  0  0  0  0  0  0  0  0  0
   -3.4782    5.9290   -0.8292 N   0  0  0  0  0  0  0  0  0  0  0  0
   -2.4672    5.0277   -0.6000 C   0  0  0  0  0  0  0  0  0  0  0  0
   -2.4495    3.6631   -0.3703 C   0  0  0  0  0  0  0  0  0  0  0  0
   -1.2330    3.0119   -0.1673 C   0  0  0  0  0  0  0  0  0  0  0  0
   -1.1736    1.6865    0.0529 N   0  0  0  0  0  0  0  0  0  0  0  0
   -0.0204    1.0947    0.2464 C   0  0  0  0  0  0  0  0  0  0  0  0
    1.1355    1.7411    0.2283 N   0  0  0  0  0  0  0  0  0  0  0  0
   -4.9062    5.6070   -0.8865 C   0  0  0  0  0  0  0  0  0  0  0  0
   -5.2932    5.2585   -2.3251 C   0  0  0  0  0  0  0  0  0  0  0  0
   -7.0170    3.7008   -1.6399 C   0  0  0  0  0  0  0  0  0  0  0  0
   -8.5242    3.4347   -1.6751 C   0  0  0  0  0  0  0  0  0  0  0  0
   -8.9590    3.3638   -3.0358 O   0  0  0  0  0  0  0  0  0  0  0  0
   -8.6910    4.5500   -3.7883 C   0  0  0  0  0  0  0  0  0  0  0  0
   -7.1855    4.8275   -3.7745 C   0  0  0  0  0  0  0  0  0  0  0  0
    4.9585    0.0487   -0.8863 H   0  0  0  0  0  0  0  0  0  0  0  0
    2.8580    1.3211   -1.0466 H   0  0  0  0  0  0  0  0  0  0  0  0
    4.6107    4.4855    1.2350 H   0  0  0  0  0  0  0  0  0  0  0  0
    6.8784    0.9867    0.3339 H   0  0  0  0  0  0  0  0  0  0  0  0
    2.4310    4.6743   -0.0754 H   0  0  0  0  0  0  0  0  0  0  0  0
    0.8819    5.6856   -0.4499 H   0  0  0  0  0  0  0  0  0  0  0  0
   -0.9537    7.9887   -0.9771 H   0  0  0  0  0  0  0  0  0  0  0  0
   -3.3737    3.1047   -0.3492 H   0  0  0  0  0  0  0  0  0  0  0  0
   -0.0118    0.0296    0.4247 H   0  0  0  0  0  0  0  0  0  0  0  0
   -5.1129    4.7555   -0.2382 H   0  0  0  0  0  0  0  0  0  0  0  0
   -5.4863    6.4673   -0.5524 H   0  0  0  0  0  0  0  0  0  0  0  0
   -5.0865    6.1100   -2.9734 H   0  0  0  0  0  0  0  0  0  0  0  0
   -4.7131    4.3983   -2.6591 H   0  0  0  0  0  0  0  0  0  0  0  0
   -6.4890    2.8658   -2.1004 H   0  0  0  0  0  0  0  0  0  0  0  0
   -6.6912    3.8125   -0.6057 H   0  0  0  0  0  0  0  0  0  0  0  0
   -9.0487    4.2439   -1.1671 H   0  0  0  0  0  0  0  0  0  0  0  0
   -8.7388    2.4904   -1.1748 H   0  0  0  0  0  0  0  0  0  0  0  0
   -9.2204    5.3917   -3.3418 H   0  0  0  0  0  0  0  0  0  0  0  0
   -9.0265    4.4131   -4.8164 H   0  0  0  0  0  0  0  0  0  0  0  0
   -6.9827    5.7615   -4.2985 H   0  0  0  0  0  0  0  0  0  0  0  0
   -6.6602    4.0104   -4.2691 H   0  0  0  0  0  0  0  0  0  0  0  0
   -6.7400    4.9551   -2.3707 N   0  3  0  0  0  0  0  0  0  0  0  0
   -7.2561    5.7225   -1.9248 H   0  0  0  0  0  0  0  0  0  0  0  0
  1  6  2  0  0  0  0
  1  2  1  0  0  0  0
  1 29  1  0  0  0  0
  2  3  2  0  0  0  0
  2 30  1  0  0  0  0
  3  4  1  0  0  0  0
  3  8  1  0  0  0  0
  4  5  2  0  0  0  0
  4 31  1  0  0  0  0
  5  6  1  0  0  0  0
  5  7  1  0  0  0  0
  6 32  1  0  0  0  0
  8  9  1  0  0  0  0
  8 33  1  0  0  0  0
  9 21  2  0  0  0  0
  9 10  1  0  0  0  0
 10 18  2  0  0  0  0
 10 11  1  0  0  0  0
 11 12  2  0  0  0  0
 11 34  1  0  0  0  0
 12 16  1  0  0  0  0
 12 13  1  0  0  0  0
 13 14  2  0  0  0  0
 13 35  1  0  0  0  0
 14 15  1  0  0  0  0
 15 16  1  0  0  0  0
 15 22  1  0  0  0  0
 16 17  2  0  0  0  0
 17 18  1  0  0  0  0
 17 36  1  0  0  0  0
 18 19  1  0  0  0  0
 19 20  2  0  0  0  0
 20 21  1  0  0  0  0
 20 37  1  0  0  0  0
 22 23  1  0  0  0  0
 22 38  1  0  0  0  0
 22 39  1  0  0  0  0
 23 40  1  0  0  0  0
 23 41  1  0  0  0  0
 23 50  1  0  0  0  0
 24 25  1  0  0  0  0
 24 42  1  0  0  0  0
 24 43  1  0  0  0  0
 24 50  1  0  0  0  0
 25 26  1  0  0  0  0
 25 44  1  0  0  0  0
 25 45  1  0  0  0  0
 26 27  1  0  0  0  0
 27 28  1  0  0  0  0
 27 46  1  0  0  0  0
 27 47  1  0  0  0  0
 28 48  1  0  0  0  0
 28 49  1  0  0  0  0
 28 50  1  0  0  0  0
 50 51  1  0  0  0  0
M  CHG  1  50   1
M  END
$$$$
ZINC03815134
  -OEChem-08230709403D

 52 56  0     0  0  0  0  0  0999 V2000
    6.4550  -11.1352   -2.2728 C   0  0  0  0  0  0  0  0  0  0  0  0
    5.9112  -10.1170   -1.5141 C   0  0  0  0  0  0  0  0  0  0  0  0
    4.6535  -10.2718   -0.9454 C   0  0  0  0  0  0  0  0  0  0  0  0
    3.9483  -11.4532   -1.1374 C   0  0  0  0  0  0  0  0  0  0  0  0
    4.4956  -12.4660   -1.9013 C   0  0  0  0  0  0  0  0  0  0  0  0
    5.7490  -12.3079   -2.4667 C   0  0  0  0  0  0  0  0  0  0  0  0
    3.5346  -14.0725   -2.1686 Br  0  0  0  0  0  0  0  0  0  0  0  0
    4.1010   -9.2433   -0.1768 N   0  0  0  0  0  0  0  0  0  0  0  0
    4.3354   -7.9270   -0.5155 C   0  0  0  0  0  0  0  0  0  0  0  0
    3.8872   -6.8701    0.3171 C   0  0  0  0  0  0  0  0  0  0  0  0
    3.1963   -7.1138    1.5032 C   0  0  0  0  0  0  0  0  0  0  0  0
    2.7811   -6.0426    2.2811 C   0  0  0  0  0  0  0  0  0  0  0  0
    2.0529   -5.9397    3.5511 C   0  0  0  0  0  0  0  0  0  0  0  0
    1.9362   -4.6342    3.8327 C   0  0  0  0  0  0  0  0  0  0  0  0
    2.5210   -3.8847    2.8455 N   0  0  0  0  0  0  0  0  0  0  0  0
    3.0523   -4.7130    1.8795 C   0  0  0  0  0  0  0  0  0  0  0  0
    3.7367   -4.4674    0.7038 C   0  0  0  0  0  0  0  0  0  0  0  0
    4.1603   -5.5366   -0.0877 C   0  0  0  0  0  0  0  0  0  0  0  0
    4.8288   -5.3383   -1.2373 N   0  0  0  0  0  0  0  0  0  0  0  0
    5.2179   -6.3564   -1.9653 C   0  0  0  0  0  0  0  0  0  0  0  0
    4.9859   -7.6160   -1.6281 N   0  0  0  0  0  0  0  0  0  0  0  0
    2.5785   -2.4210    2.8229 C   0  0  0  0  0  0  0  0  0  0  0  0
    1.4164   -1.8777    1.9890 C   0  0  0  0  0  0  0  0  0  0  0  0
    0.5235    0.1396    0.9889 C   0  0  0  0  0  0  0  0  0  0  0  0
    0.5736    1.6689    1.0407 C   0  0  0  0  0  0  0  0  0  0  0  0
    1.9135    2.1054    0.7972 O   0  0  0  0  0  0  0  0  0  0  0  0
    2.8658    1.5894    1.7312 C   0  0  0  0  0  0  0  0  0  0  0  0
    2.8389    0.0593    1.6865 C   0  0  0  0  0  0  0  0  0  0  0  0
    7.4331  -11.0152   -2.7147 H   0  0  0  0  0  0  0  0  0  0  0  0
    6.4634   -9.2012   -1.3635 H   0  0  0  0  0  0  0  0  0  0  0  0
    2.9720  -11.5784   -0.6929 H   0  0  0  0  0  0  0  0  0  0  0  0
    6.1765  -13.1024   -3.0603 H   0  0  0  0  0  0  0  0  0  0  0  0
    3.5526   -9.4554    0.5947 H   0  0  0  0  0  0  0  0  0  0  0  0
    2.9867   -8.1268    1.8138 H   0  0  0  0  0  0  0  0  0  0  0  0
    1.6843   -6.7607    4.1482 H   0  0  0  0  0  0  0  0  0  0  0  0
    1.4496   -4.2315    4.7087 H   0  0  0  0  0  0  0  0  0  0  0  0
    3.9431   -3.4522    0.3989 H   0  0  0  0  0  0  0  0  0  0  0  0
    5.7528   -6.1590   -2.8826 H   0  0  0  0  0  0  0  0  0  0  0  0
    3.5227   -2.1012    2.3821 H   0  0  0  0  0  0  0  0  0  0  0  0
    2.5049   -2.0388    3.8411 H   0  0  0  0  0  0  0  0  0  0  0  0
    0.4722   -2.1975    2.4299 H   0  0  0  0  0  0  0  0  0  0  0  0
    1.4900   -2.2600    0.9709 H   0  0  0  0  0  0  0  0  0  0  0  0
   -0.4838   -0.1999    1.2302 H   0  0  0  0  0  0  0  0  0  0  0  0
    0.7928   -0.1998   -0.0112 H   0  0  0  0  0  0  0  0  0  0  0  0
   -0.0876    2.0807    0.2782 H   0  0  0  0  0  0  0  0  0  0  0  0
    0.2525    2.0105    2.0247 H   0  0  0  0  0  0  0  0  0  0  0  0
    2.6114    1.9287    2.7353 H   0  0  0  0  0  0  0  0  0  0  0  0
    3.8626    1.9438    1.4689 H   0  0  0  0  0  0  0  0  0  0  0  0
    3.5218   -0.3388    2.4370 H   0  0  0  0  0  0  0  0  0  0  0  0
    3.1452   -0.2813    0.6974 H   0  0  0  0  0  0  0  0  0  0  0  0
    1.4675   -0.3996    1.9906 N   0  3  0  0  0  0  0  0  0  0  0  0
    1.1992   -0.0575    2.9207 H   0  0  0  0  0  0  0  0  0  0  0  0
  1  6  2  0  0  0  0
  1  2  1  0  0  0  0
  1 29  1  0  0  0  0
  2  3  2  0  0  0  0
  2 30  1  0  0  0  0
  3  4  1  0  0  0  0
  3  8  1  0  0  0  0
  4  5  2  0  0  0  0
  4 31  1  0  0  0  0
  5  6  1  0  0  0  0
  5  7  1  0  0  0  0
  6 32  1  0  0  0  0
  8  9  1  0  0  0  0
  8 33  1  0  0  0  0
  9 21  2  0  0  0  0
  9 10  1  0  0  0  0
 10 18  2  0  0  0  0
 10 11  1  0  0  0  0
 11 12  2  0  0  0  0
 11 34  1  0  0  0  0
 12 16  1  0  0  0  0
 12 13  1  0  0  0  0
 13 14  2  0  0  0  0
 13 35  1  0  0  0  0
 14 15  1  0  0  0  0
 14 36  1  0  0  0  0
 15 16  1  0  0  0  0
 15 22  1  0  0  0  0
 16 17  2  0  0  0  0
 17 18  1  0  0  0  0
 17 37  1  0  0  0  0
 18 19  1  0  0  0  0
 19 20  2  0  0  0  0
 20 21  1  0  0  0  0
 20 38  1  0  0  0  0
 22 23  1  0  0  0  0
 22 39  1  0  0  0  0
 22 40  1  0  0  0  0
 23 41  1  0  0  0  0
 23 42  1  0  0  0  0
 23 51  1  0  0  0  0
 24 25  1  0  0  0  0
 24 43  1  0  0  0  0
 24 44  1  0  0  0  0
 24 51  1  0  0  0  0
 25 26  1  0  0  0  0
 25 45  1  0  0  0  0
 25 46  1  0  0  0  0
 26 27  1  0  0  0  0
 27 28  1  0  0  0  0
 27 47  1  0  0  0  0
 27 48  1  0  0  0  0
 28 49  1  0  0  0  0
 28 50  1  0  0  0  0
 28 51  1  0  0  0  0
 51 52  1  0  0  0  0
M  CHG  1  51   1
M  END
$$$$
ZINC03815136
  -OEChem-08230709403D

 34 36  0     0  0  0  0  0  0999 V2000
    4.7265    4.9972    0.3129 C   0  0  0  0  0  0  0  0  0  0  0  0
    3.5357    5.7703    0.1510 O   0  0  0  0  0  0  0  0  0  0  0  0
    2.3564    5.0958    0.1606 C   0  0  0  0  0  0  0  0  0  0  0  0
    2.3569    3.7385    0.3208 C   0  0  0  0  0  0  0  0  0  0  0  0
    1.1444    3.0387    0.3314 C   0  0  0  0  0  0  0  0  0  0  0  0
   -0.0729    3.7472    0.1756 C   0  0  0  0  0  0  0  0  0  0  0  0
   -0.0538    5.1377    0.0127 C   0  0  0  0  0  0  0  0  0  0  0  0
    1.1534    5.8017    0.0059 C   0  0  0  0  0  0  0  0  0  0  0  0
    1.1802    7.1911   -0.1569 N   0  0  0  0  0  0  0  0  0  0  0  0
   -1.2815    3.0115    0.1912 C   0  0  0  0  0  0  0  0  0  0  0  0
   -1.2131    1.6957    0.3459 N   0  0  0  0  0  0  0  0  0  0  0  0
   -0.0526    1.0764    0.4929 C   0  0  0  0  0  0  0  0  0  0  0  0
    1.0982    1.7059    0.4864 N   0  0  0  0  0  0  0  0  0  0  0  0
   -2.4992    3.6455    0.0437 N   0  0  0  0  0  0  0  0  0  0  0  0
   -3.6722    2.8918   -0.0547 C   0  0  0  0  0  0  0  0  0  0  0  0
   -4.8637    3.3879    0.4597 C   0  0  0  0  0  0  0  0  0  0  0  0
   -6.0210    2.6411    0.3612 C   0  0  0  0  0  0  0  0  0  0  0  0
   -5.9956    1.4004   -0.2491 C   0  0  0  0  0  0  0  0  0  0  0  0
   -4.8110    0.9029   -0.7625 C   0  0  0  0  0  0  0  0  0  0  0  0
   -3.6503    1.6479   -0.6718 C   0  0  0  0  0  0  0  0  0  0  0  0
   -4.7815   -0.7942   -1.5962 Br  0  0  0  0  0  0  0  0  0  0  0  0
    4.6946    4.4768    1.2701 H   0  0  0  0  0  0  0  0  0  0  0  0
    4.7993    4.2686   -0.4945 H   0  0  0  0  0  0  0  0  0  0  0  0
    5.5941    5.6566    0.2866 H   0  0  0  0  0  0  0  0  0  0  0  0
    3.2899    3.2075    0.4392 H   0  0  0  0  0  0  0  0  0  0  0  0
   -0.9772    5.6849   -0.1071 H   0  0  0  0  0  0  0  0  0  0  0  0
    0.3511    7.6829   -0.2644 H   0  0  0  0  0  0  0  0  0  0  0  0
    2.0280    7.6625   -0.1622 H   0  0  0  0  0  0  0  0  0  0  0  0
   -0.0529    0.0039    0.6194 H   0  0  0  0  0  0  0  0  0  0  0  0
   -2.5407    4.6140    0.0083 H   0  0  0  0  0  0  0  0  0  0  0  0
   -4.8846    4.3567    0.9366 H   0  0  0  0  0  0  0  0  0  0  0  0
   -6.9473    3.0265    0.7610 H   0  0  0  0  0  0  0  0  0  0  0  0
   -6.9023    0.8187   -0.3254 H   0  0  0  0  0  0  0  0  0  0  0  0
   -2.7267    1.2613   -1.0766 H   0  0  0  0  0  0  0  0  0  0  0  0
  1  2  1  0  0  0  0
  1 22  1  0  0  0  0
  1 23  1  0  0  0  0
  1 24  1  0  0  0  0
  2  3  1  0  0  0  0
  3  8  2  0  0  0  0
  3  4  1  0  0  0  0
  4  5  2  0  0  0  0
  4 25  1  0  0  0  0
  5 13  1  0  0  0  0
  5  6  1  0  0  0  0
  6  7  2  0  0  0  0
  6 10  1  0  0  0  0
  7  8  1  0  0  0  0
  7 26  1  0  0  0  0
  8  9  1  0  0  0  0
  9 27  1  0  0  0  0
  9 28  1  0  0  0  0
 10 11  2  0  0  0  0
 10 14  1  0  0  0  0
 11 12  1  0  0  0  0
 12 13  2  0  0  0  0
 12 29  1  0  0  0  0
 14 15  1  0  0  0  0
 14 30  1  0  0  0  0
 15 20  2  0  0  0  0
 15 16  1  0  0  0  0
 16 17  2  0  0  0  0
 16 31  1  0  0  0  0
 17 18  1  0  0  0  0
 17 32  1  0  0  0  0
 18 19  2  0  0  0  0
 18 33  1  0  0  0  0
 19 20  1  0  0  0  0
 19 21  1  0  0  0  0
 20 34  1  0  0  0  0
M  END
$$$$
ZINC03815137
  -OEChem-08230709403D

 30 32  0     0  0  0  0  0  0999 V2000
   -0.1189    1.1747   -0.1053 C   0  0  0  0  0  0  0  0  0  0  0  0
   -0.7779    1.6487    1.0707 O   0  0  0  0  0  0  0  0  0  0  0  0
   -2.0087    1.1460    1.3311 C   0  0  0  0  0  0  0  0  0  0  0  0
   -2.5249    0.2544    0.4908 N   0  0  0  0  0  0  0  0  0  0  0  0
   -3.7161   -0.2715    0.6887 C   0  0  0  0  0  0  0  0  0  0  0  0
   -4.4449    0.1324    1.8223 C   0  0  0  0  0  0  0  0  0  0  0  0
   -3.8588    1.0836    2.6912 C   0  0  0  0  0  0  0  0  0  0  0  0
   -2.6447    1.5562    2.4105 N   0  0  0  0  0  0  0  0  0  0  0  0
   -4.5962    1.4880    3.8323 C   0  0  0  0  0  0  0  0  0  0  0  0
   -5.7940    0.9533    4.0231 N   0  0  0  0  0  0  0  0  0  0  0  0
   -6.2990    0.0663    3.1804 C   0  0  0  0  0  0  0  0  0  0  0  0
   -5.6612   -0.3445    2.1092 N   0  0  0  0  0  0  0  0  0  0  0  0
   -4.0815    2.4118    4.7196 N   0  0  0  0  0  0  0  0  0  0  0  0
   -4.8695    2.8831    5.7731 C   0  0  0  0  0  0  0  0  0  0  0  0
   -4.2812    3.2205    6.9858 C   0  0  0  0  0  0  0  0  0  0  0  0
   -5.0622    3.6859    8.0251 C   0  0  0  0  0  0  0  0  0  0  0  0
   -6.4291    3.8165    7.8604 C   0  0  0  0  0  0  0  0  0  0  0  0
   -7.0186    3.4820    6.6542 C   0  0  0  0  0  0  0  0  0  0  0  0
   -6.2416    3.0206    5.6084 C   0  0  0  0  0  0  0  0  0  0  0  0
   -8.8879    3.6636    6.4338 Br  0  0  0  0  0  0  0  0  0  0  0  0
    0.0142    0.0950   -0.0370 H   0  0  0  0  0  0  0  0  0  0  0  0
    0.8550    1.6558   -0.1950 H   0  0  0  0  0  0  0  0  0  0  0  0
   -0.7233    1.4116   -0.9809 H   0  0  0  0  0  0  0  0  0  0  0  0
   -4.1234   -0.9946   -0.0024 H   0  0  0  0  0  0  0  0  0  0  0  0
   -7.2798   -0.3377    3.3832 H   0  0  0  0  0  0  0  0  0  0  0  0
   -3.1729    2.7338    4.6118 H   0  0  0  0  0  0  0  0  0  0  0  0
   -3.2138    3.1185    7.1155 H   0  0  0  0  0  0  0  0  0  0  0  0
   -4.6050    3.9486    8.9676 H   0  0  0  0  0  0  0  0  0  0  0  0
   -7.0376    4.1808    8.6749 H   0  0  0  0  0  0  0  0  0  0  0  0
   -6.7014    2.7638    4.6655 H   0  0  0  0  0  0  0  0  0  0  0  0
  1  2  1  0  0  0  0
  1 21  1  0  0  0  0
  1 22  1  0  0  0  0
  1 23  1  0  0  0  0
  2  3  1  0  0  0  0
  3  8  2  0  0  0  0
  3  4  1  0  0  0  0
  4  5  2  0  0  0  0
  5  6  1  0  0  0  0
  5 24  1  0  0  0  0
  6 12  2  0  0  0  0
  6  7  1  0  0  0  0
  7  8  1  0  0  0  0
  7  9  2  0  0  0  0
  9 10  1  0  0  0  0
  9 13  1  0  0  0  0
 10 11  2  0  0  0  0
 11 12  1  0  0  0  0
 11 25  1  0  0  0  0
 13 14  1  0  0  0  0
 13 26  1  0  0  0  0
 14 19  2  0  0  0  0
 14 15  1  0  0  0  0
 15 16  2  0  0  0  0
 15 27  1  0  0  0  0
 16 17  1  0  0  0  0
 16 28  1  0  0  0  0
 17 18  2  0  0  0  0
 17 29  1  0  0  0  0
 18 19  1  0  0  0  0
 18 20  1  0  0  0  0
 19 30  1  0  0  0  0
M  END
$$$$
ZINC03815138
  -OEChem-08230709403D

 30 32  0     0  0  0  0  0  0999 V2000
   -1.1382    3.4119    0.3642 C   0  0  0  0  0  0  0  0  0  0  0  0
   -1.1801    1.9941    0.1904 O   0  0  0  0  0  0  0  0  0  0  0  0
    0.0062    1.3597    0.0176 C   0  0  0  0  0  0  0  0  0  0  0  0
    0.0324   -0.0318   -0.1583 C   0  0  0  0  0  0  0  0  0  0  0  0
    1.1710   -0.6639   -0.3321 N   0  0  0  0  0  0  0  0  0  0  0  0
    2.3159    0.0250   -0.3420 C   0  0  0  0  0  0  0  0  0  0  0  0
    2.2890    1.4289   -0.1650 C   0  0  0  0  0  0  0  0  0  0  0  0
    1.1264    2.0563    0.0108 N   0  0  0  0  0  0  0  0  0  0  0  0
    3.5225    2.1286   -0.1814 C   0  0  0  0  0  0  0  0  0  0  0  0
    4.6364    1.4324   -0.3616 N   0  0  0  0  0  0  0  0  0  0  0  0
    4.6109    0.1196   -0.5229 C   0  0  0  0  0  0  0  0  0  0  0  0
    3.4999   -0.5785   -0.5165 N   0  0  0  0  0  0  0  0  0  0  0  0
    3.5622    3.4976   -0.0147 N   0  0  0  0  0  0  0  0  0  0  0  0
    4.7921    4.1543    0.0821 C   0  0  0  0  0  0  0  0  0  0  0  0
    4.9335    5.4443   -0.4144 C   0  0  0  0  0  0  0  0  0  0  0  0
    6.1498    6.0907   -0.3175 C   0  0  0  0  0  0  0  0  0  0  0  0
    7.2272    5.4559    0.2731 C   0  0  0  0  0  0  0  0  0  0  0  0
    7.0902    4.1715    0.7690 C   0  0  0  0  0  0  0  0  0  0  0  0
    5.8740    3.5211    0.6798 C   0  0  0  0  0  0  0  0  0  0  0  0
    8.5661    3.3083    1.5767 Br  0  0  0  0  0  0  0  0  0  0  0  0
   -0.5462    3.6524    1.2472 H   0  0  0  0  0  0  0  0  0  0  0  0
   -0.6850    3.8724   -0.5136 H   0  0  0  0  0  0  0  0  0  0  0  0
   -2.1517    3.7924    0.4917 H   0  0  0  0  0  0  0  0  0  0  0  0
   -0.8926   -0.5891   -0.1504 H   0  0  0  0  0  0  0  0  0  0  0  0
    5.5463   -0.4007   -0.6662 H   0  0  0  0  0  0  0  0  0  0  0  0
    2.7366    4.0043    0.0353 H   0  0  0  0  0  0  0  0  0  0  0  0
    4.0928    5.9409   -0.8761 H   0  0  0  0  0  0  0  0  0  0  0  0
    6.2598    7.0936   -0.7030 H   0  0  0  0  0  0  0  0  0  0  0  0
    8.1774    5.9638    0.3476 H   0  0  0  0  0  0  0  0  0  0  0  0
    5.7661    2.5202    1.0710 H   0  0  0  0  0  0  0  0  0  0  0  0
  1  2  1  0  0  0  0
  1 21  1  0  0  0  0
  1 22  1  0  0  0  0
  1 23  1  0  0  0  0
  2  3  1  0  0  0  0
  3  8  2  0  0  0  0
  3  4  1  0  0  0  0
  4  5  2  0  0  0  0
  4 24  1  0  0  0  0
  5  6  1  0  0  0  0
  6 12  2  0  0  0  0
  6  7  1  0  0  0  0
  7  8  1  0  0  0  0
  7  9  2  0  0  0  0
  9 10  1  0  0  0  0
  9 13  1  0  0  0  0
 10 11  2  0  0  0  0
 11 12  1  0  0  0  0
 11 25  1  0  0  0  0
 13 14  1  0  0  0  0
 13 26  1  0  0  0  0
 14 19  2  0  0  0  0
 14 15  1  0  0  0  0
 15 16  2  0  0  0  0
 15 27  1  0  0  0  0
 16 17  1  0  0  0  0
 16 28  1  0  0  0  0
 17 18  2  0  0  0  0
 17 29  1  0  0  0  0
 18 19  1  0  0  0  0
 18 20  1  0  0  0  0
 19 30  1  0  0  0  0
M  END
$$$$
ZINC03815139
  -OEChem-08230709403D

 58 61  0     0  0  0  0  0  0999 V2000
  -10.2216   -6.4224   -0.2830 C   0  0  0  0  0  0  0  0  0  0  0  0
   -8.0835   -6.2065   -1.3995 C   0  0  0  0  0  0  0  0  0  0  0  0
   -6.6170   -5.8195   -1.1945 C   0  0  0  0  0  0  0  0  0  0  0  0
   -7.2786   -4.1975    0.4759 C   0  0  0  0  0  0  0  0  0  0  0  0
   -8.7451   -4.5844    0.2708 C   0  0  0  0  0  0  0  0  0  0  0  0
   -5.1405   -3.9816   -0.6407 C   0  0  0  0  0  0  0  0  0  0  0  0
   -5.0914   -2.4643   -0.4498 C   0  0  0  0  0  0  0  0  0  0  0  0
   -3.6357   -2.0147   -0.3098 C   0  0  0  0  0  0  0  0  0  0  0  0
   -3.5888   -0.5619   -0.1270 N   0  0  0  0  0  0  0  0  0  0  0  0
   -2.3630    0.0818    0.0237 C   0  0  0  0  0  0  0  0  0  0  0  0
   -1.1975   -0.6654   -0.0016 C   0  0  0  0  0  0  0  0  0  0  0  0
    0.0199    0.0007    0.1514 C   0  0  0  0  0  0  0  0  0  0  0  0
    0.0114    1.4088    0.3255 C   0  0  0  0  0  0  0  0  0  0  0  0
   -1.2200    2.0755    0.3424 C   0  0  0  0  0  0  0  0  0  0  0  0
    1.1832    2.0418    0.4722 N   0  0  0  0  0  0  0  0  0  0  0  0
    2.3130    1.3791    0.4558 C   0  0  0  0  0  0  0  0  0  0  0  0
    2.3968    0.0675    0.2981 N   0  0  0  0  0  0  0  0  0  0  0  0
    1.3108   -0.6806    0.1421 C   0  0  0  0  0  0  0  0  0  0  0  0
    1.3992   -2.0476   -0.0228 N   0  0  0  0  0  0  0  0  0  0  0  0
    2.6510   -2.6575   -0.1435 C   0  0  0  0  0  0  0  0  0  0  0  0
    2.8501   -3.9416    0.3485 C   0  0  0  0  0  0  0  0  0  0  0  0
    4.0878   -4.5418    0.2275 C   0  0  0  0  0  0  0  0  0  0  0  0
    5.1289   -3.8668   -0.3832 C   0  0  0  0  0  0  0  0  0  0  0  0
    4.9344   -2.5882   -0.8748 C   0  0  0  0  0  0  0  0  0  0  0  0
    3.6967   -1.9836   -0.7606 C   0  0  0  0  0  0  0  0  0  0  0  0
    6.3609   -1.6700   -1.7100 Br  0  0  0  0  0  0  0  0  0  0  0  0
  -10.2520   -7.4840   -0.5284 H   0  0  0  0  0  0  0  0  0  0  0  0
  -10.7466   -6.2516    0.6569 H   0  0  0  0  0  0  0  0  0  0  0  0
  -10.7033   -5.8520   -1.0771 H   0  0  0  0  0  0  0  0  0  0  0  0
   -8.5152   -5.5906   -2.1885 H   0  0  0  0  0  0  0  0  0  0  0  0
   -8.1461   -7.2571   -1.6830 H   0  0  0  0  0  0  0  0  0  0  0  0
   -6.0720   -5.9514   -2.1292 H   0  0  0  0  0  0  0  0  0  0  0  0
   -6.1778   -6.4538   -0.4245 H   0  0  0  0  0  0  0  0  0  0  0  0
   -6.8469   -4.8133    1.2648 H   0  0  0  0  0  0  0  0  0  0  0  0
   -7.2159   -3.1467    0.7589 H   0  0  0  0  0  0  0  0  0  0  0  0
   -9.1843   -3.9502   -0.4992 H   0  0  0  0  0  0  0  0  0  0  0  0
   -9.2901   -4.4526    1.2055 H   0  0  0  0  0  0  0  0  0  0  0  0
   -4.5884   -4.2525   -1.5407 H   0  0  0  0  0  0  0  0  0  0  0  0
   -4.6904   -4.4712    0.2229 H   0  0  0  0  0  0  0  0  0  0  0  0
   -5.6435   -2.1934    0.4502 H   0  0  0  0  0  0  0  0  0  0  0  0
   -5.5415   -1.9747   -1.3133 H   0  0  0  0  0  0  0  0  0  0  0  0
   -3.0837   -2.2856   -1.2098 H   0  0  0  0  0  0  0  0  0  0  0  0
   -3.1856   -2.5043    0.5537 H   0  0  0  0  0  0  0  0  0  0  0  0
   -4.4115   -0.0483   -0.1109 H   0  0  0  0  0  0  0  0  0  0  0  0
   -1.2293   -1.7366   -0.1359 H   0  0  0  0  0  0  0  0  0  0  0  0
   -1.2516    3.1470    0.4735 H   0  0  0  0  0  0  0  0  0  0  0  0
    3.2304    1.9358    0.5779 H   0  0  0  0  0  0  0  0  0  0  0  0
    0.5925   -2.5854   -0.0548 H   0  0  0  0  0  0  0  0  0  0  0  0
    2.0377   -4.4696    0.8256 H   0  0  0  0  0  0  0  0  0  0  0  0
    4.2428   -5.5399    0.6098 H   0  0  0  0  0  0  0  0  0  0  0  0
    6.0958   -4.3388   -0.4768 H   0  0  0  0  0  0  0  0  0  0  0  0
    3.5441   -0.9870   -1.1477 H   0  0  0  0  0  0  0  0  0  0  0  0
   -8.8113   -6.0060   -0.1289 N   0  3  0  0  0  0  0  0  0  0  0  0
   -8.3722   -6.5789    0.6013 H   0  0  0  0  0  0  0  0  0  0  0  0
   -6.5506   -4.3982   -0.7950 N   0  3  0  0  0  0  0  0  0  0  0  0
   -6.9897   -3.8253   -1.5252 H   0  0  0  0  0  0  0  0  0  0  0  0
   -2.4116    1.4433    0.1898 N   0  3  0  0  0  0  0  0  0  0  0  0
   -3.3012    1.9560    0.1983 H   0  0  0  0  0  0  0  0  0  0  0  0
  1 27  1  0  0  0  0
  1 28  1  0  0  0  0
  1 29  1  0  0  0  0
  1 53  1  0  0  0  0
  2  3  1  0  0  0  0
  2 30  1  0  0  0  0
  2 31  1  0  0  0  0
  2 53  1  0  0  0  0
  3 32  1  0  0  0  0
  3 33  1  0  0  0  0
  3 55  1  0  0  0  0
  4  5  1  0  0  0  0
  4 34  1  0  0  0  0
  4 35  1  0  0  0  0
  4 55  1  0  0  0  0
  5 36  1  0  0  0  0
  5 37  1  0  0  0  0
  5 53  1  0  0  0  0
  6  7  1  0  0  0  0
  6 38  1  0  0  0  0
  6 39  1  0  0  0  0
  6 55  1  0  0  0  0
  7  8  1  0  0  0  0
  7 40  1  0  0  0  0
  7 41  1  0  0  0  0
  8  9  1  0  0  0  0
  8 42  1  0  0  0  0
  8 43  1  0  0  0  0
  9 10  1  0  0  0  0
  9 44  1  0  0  0  0
 10 11  2  0  0  0  0
 10 57  1  0  0  0  0
 11 12  1  0  0  0  0
 11 45  1  0  0  0  0
 12 18  2  0  0  0  0
 12 13  1  0  0  0  0
 13 14  1  0  0  0  0
 13 15  2  0  0  0  0
 14 46  1  0  0  0  0
 14 57  2  0  0  0  0
 15 16  1  0  0  0  0
 16 17  2  0  0  0  0
 16 47  1  0  0  0  0
 17 18  1  0  0  0  0
 18 19  1  0  0  0  0
 19 20  1  0  0  0  0
 19 48  1  0  0  0  0
 20 25  2  0  0  0  0
 20 21  1  0  0  0  0
 21 22  2  0  0  0  0
 21 49  1  0  0  0  0
 22 23  1  0  0  0  0
 22 50  1  0  0  0  0
 23 24  2  0  0  0  0
 23 51  1  0  0  0  0
 24 25  1  0  0  0  0
 24 26  1  0  0  0  0
 25 52  1  0  0  0  0
 53 54  1  0  0  0  0
 55 56  1  0  0  0  0
 57 58  1  0  0  0  0
M  CHG  3  53   1  55   1  57   1
M  END
$$$$
ZINC03815140
  -OEChem-08230709403D

 33 35  0     0  0  0  0  0  0999 V2000
   -5.6760   -1.8300    0.7256 C   0  0  0  0  0  0  0  0  0  0  0  0
   -4.5739   -0.8704    0.6216 N   0  0  0  0  0  0  0  0  0  0  0  0
   -3.2820   -1.3187    0.3333 C   0  0  0  0  0  0  0  0  0  0  0  0
   -3.0482   -2.6846    0.1452 C   0  0  0  0  0  0  0  0  0  0  0  0
   -1.7998   -3.1494   -0.1367 C   0  0  0  0  0  0  0  0  0  0  0  0
   -0.7285   -2.2513   -0.2414 C   0  0  0  0  0  0  0  0  0  0  0  0
   -0.9572   -0.8670   -0.0469 C   0  0  0  0  0  0  0  0  0  0  0  0
   -2.2484   -0.4094    0.2362 C   0  0  0  0  0  0  0  0  0  0  0  0
    0.1437    0.0162   -0.1645 C   0  0  0  0  0  0  0  0  0  0  0  0
    1.3339   -0.4994   -0.4409 N   0  0  0  0  0  0  0  0  0  0  0  0
    1.5006   -1.8016   -0.6095 C   0  0  0  0  0  0  0  0  0  0  0  0
    0.5177   -2.6651   -0.5175 N   0  0  0  0  0  0  0  0  0  0  0  0
   -0.0166    1.3761    0.0096 N   0  0  0  0  0  0  0  0  0  0  0  0
    1.0994    2.2177    0.0052 C   0  0  0  0  0  0  0  0  0  0  0  0
    0.9936    3.5115   -0.4899 C   0  0  0  0  0  0  0  0  0  0  0  0
    2.0978    4.3408   -0.4931 C   0  0  0  0  0  0  0  0  0  0  0  0
    3.3083    3.8851   -0.0038 C   0  0  0  0  0  0  0  0  0  0  0  0
    3.4176    2.5973    0.4901 C   0  0  0  0  0  0  0  0  0  0  0  0
    2.3148    1.7642    0.5009 C   0  0  0  0  0  0  0  0  0  0  0  0
    5.0750    1.9793    1.1586 Br  0  0  0  0  0  0  0  0  0  0  0  0
   -5.7863   -2.3606   -0.2201 H   0  0  0  0  0  0  0  0  0  0  0  0
   -5.4618   -2.5446    1.5203 H   0  0  0  0  0  0  0  0  0  0  0  0
   -6.5999   -1.2987    0.9541 H   0  0  0  0  0  0  0  0  0  0  0  0
   -4.7408    0.0760    0.7528 H   0  0  0  0  0  0  0  0  0  0  0  0
   -3.8698   -3.3811    0.2252 H   0  0  0  0  0  0  0  0  0  0  0  0
   -1.6353   -4.2073   -0.2789 H   0  0  0  0  0  0  0  0  0  0  0  0
   -2.4338    0.6445    0.3818 H   0  0  0  0  0  0  0  0  0  0  0  0
    2.4911   -2.1698   -0.8327 H   0  0  0  0  0  0  0  0  0  0  0  0
   -0.9042    1.7482    0.1310 H   0  0  0  0  0  0  0  0  0  0  0  0
    0.0487    3.8683   -0.8723 H   0  0  0  0  0  0  0  0  0  0  0  0
    2.0158    5.3465   -0.8779 H   0  0  0  0  0  0  0  0  0  0  0  0
    4.1701    4.5360   -0.0068 H   0  0  0  0  0  0  0  0  0  0  0  0
    2.3991    0.7605    0.8905 H   0  0  0  0  0  0  0  0  0  0  0  0
  1  2  1  0  0  0  0
  1 21  1  0  0  0  0
  1 22  1  0  0  0  0
  1 23  1  0  0  0  0
  2  3  1  0  0  0  0
  2 24  1  0  0  0  0
  3  8  2  0  0  0  0
  3  4  1  0  0  0  0
  4  5  2  0  0  0  0
  4 25  1  0  0  0  0
  5  6  1  0  0  0  0
  5 26  1  0  0  0  0
  6 12  2  0  0  0  0
  6  7  1  0  0  0  0
  7  8  1  0  0  0  0
  7  9  2  0  0  0  0
  8 27  1  0  0  0  0
  9 10  1  0  0  0  0
  9 13  1  0  0  0  0
 10 11  2  0  0  0  0
 11 12  1  0  0  0  0
 11 28  1  0  0  0  0
 13 14  1  0  0  0  0
 13 29  1  0  0  0  0
 14 19  2  0  0  0  0
 14 15  1  0  0  0  0
 15 16  2  0  0  0  0
 15 30  1  0  0  0  0
 16 17  1  0  0  0  0
 16 31  1  0  0  0  0
 17 18  2  0  0  0  0
 17 32  1  0  0  0  0
 18 19  1  0  0  0  0
 18 20  1  0  0  0  0
 19 33  1  0  0  0  0
M  END
$$$$
ZINC03815141
  -OEChem-08230709403D

 37 39  0     0  0  0  0  0  0999 V2000
   -5.6356    5.3499    8.2610 C   0  0  0  0  0  0  0  0  0  0  0  0
   -4.3469    4.5687    8.2576 C   0  0  0  0  0  0  0  0  0  0  0  0
   -3.7617    4.1961    9.4541 C   0  0  0  0  0  0  0  0  0  0  0  0
   -2.5796    3.4789    9.4555 C   0  0  0  0  0  0  0  0  0  0  0  0
   -1.9813    3.1284    8.2609 C   0  0  0  0  0  0  0  0  0  0  0  0
   -2.5637    3.5051    7.0576 C   0  0  0  0  0  0  0  0  0  0  0  0
   -3.7518    4.2253    7.0598 C   0  0  0  0  0  0  0  0  0  0  0  0
   -1.9589    3.1555    5.8471 N   0  0  0  0  0  0  0  0  0  0  0  0
   -0.5835    3.0744    5.7607 C   0  0  0  0  0  0  0  0  0  0  0  0
    0.0736    2.5965    4.5459 C   0  0  0  0  0  0  0  0  0  0  0  0
    1.4886    2.5447    4.5402 C   0  0  0  0  0  0  0  0  0  0  0  0
    2.1320    2.0865    3.3766 C   0  0  0  0  0  0  0  0  0  0  0  0
    1.3882    1.7284    2.3502 N   0  0  0  0  0  0  0  0  0  0  0  0
    0.0597    1.7918    2.3948 C   0  0  0  0  0  0  0  0  0  0  0  0
   -0.5958    2.2189    3.4591 N   0  0  0  0  0  0  0  0  0  0  0  0
   -0.6630    1.4001    1.2808 N   0  0  0  0  0  0  0  0  0  0  0  0
    0.0359    0.9273    0.0832 C   0  0  0  0  0  0  0  0  0  0  0  0
   -2.1267    1.4585    1.2995 C   0  0  0  0  0  0  0  0  0  0  0  0
    2.1525    2.9316    5.6348 N   0  0  0  0  0  0  0  0  0  0  0  0
    1.5114    3.3516    6.6979 C   0  0  0  0  0  0  0  0  0  0  0  0
    0.1927    3.4277    6.7774 N   0  0  0  0  0  0  0  0  0  0  0  0
   -6.4790    4.6595    8.2491 H   0  0  0  0  0  0  0  0  0  0  0  0
   -5.6839    5.9671    9.1581 H   0  0  0  0  0  0  0  0  0  0  0  0
   -5.6760    5.9880    7.3783 H   0  0  0  0  0  0  0  0  0  0  0  0
   -4.2294    4.4657   10.3895 H   0  0  0  0  0  0  0  0  0  0  0  0
   -2.1255    3.1893   10.3916 H   0  0  0  0  0  0  0  0  0  0  0  0
   -1.0601    2.5647    8.2626 H   0  0  0  0  0  0  0  0  0  0  0  0
   -4.2096    4.5159    6.1258 H   0  0  0  0  0  0  0  0  0  0  0  0
   -2.5056    2.9698    5.0676 H   0  0  0  0  0  0  0  0  0  0  0  0
    3.2093    2.0294    3.3259 H   0  0  0  0  0  0  0  0  0  0  0  0
    0.1755   -0.1519    0.1463 H   0  0  0  0  0  0  0  0  0  0  0  0
    1.0078    1.4159    0.0131 H   0  0  0  0  0  0  0  0  0  0  0  0
   -0.5555    1.1661   -0.8007 H   0  0  0  0  0  0  0  0  0  0  0  0
   -2.5235    0.5111    1.6643 H   0  0  0  0  0  0  0  0  0  0  0  0
   -2.4498    2.2652    1.9576 H   0  0  0  0  0  0  0  0  0  0  0  0
   -2.4960    1.6428    0.2907 H   0  0  0  0  0  0  0  0  0  0  0  0
    2.0920    3.6526    7.5574 H   0  0  0  0  0  0  0  0  0  0  0  0
  1  2  1  0  0  0  0
  1 22  1  0  0  0  0
  1 23  1  0  0  0  0
  1 24  1  0  0  0  0
  2  7  2  0  0  0  0
  2  3  1  0  0  0  0
  3  4  2  0  0  0  0
  3 25  1  0  0  0  0
  4  5  1  0  0  0  0
  4 26  1  0  0  0  0
  5  6  2  0  0  0  0
  5 27  1  0  0  0  0
  6  7  1  0  0  0  0
  6  8  1  0  0  0  0
  7 28  1  0  0  0  0
  8  9  1  0  0  0  0
  8 29  1  0  0  0  0
  9 21  2  0  0  0  0
  9 10  1  0  0  0  0
 10 15  2  0  0  0  0
 10 11  1  0  0  0  0
 11 12  2  0  0  0  0
 11 19  1  0  0  0  0
 12 13  1  0  0  0  0
 12 30  1  0  0  0  0
 13 14  2  0  0  0  0
 14 15  1  0  0  0  0
 14 16  1  0  0  0  0
 16 17  1  0  0  0  0
 16 18  1  0  0  0  0
 17 31  1  0  0  0  0
 17 32  1  0  0  0  0
 17 33  1  0  0  0  0
 18 34  1  0  0  0  0
 18 35  1  0  0  0  0
 18 36  1  0  0  0  0
 19 20  2  0  0  0  0
 20 21  1  0  0  0  0
 20 37  1  0  0  0  0
M  END
$$$$
ZINC03815143
  -OEChem-08230709403D

 34 36  0     0  0  0  0  0  0999 V2000
   -1.9932    0.9752   -1.4767 C   0  0  0  0  0  0  0  0  0  0  0  0
   -0.9727    1.7492   -0.6826 C   0  0  0  0  0  0  0  0  0  0  0  0
   -0.0171    1.0758    0.0566 C   0  0  0  0  0  0  0  0  0  0  0  0
    0.9243    1.7820    0.7824 C   0  0  0  0  0  0  0  0  0  0  0  0
    0.9100    3.1631    0.7757 C   0  0  0  0  0  0  0  0  0  0  0  0
   -0.0515    3.8425    0.0386 C   0  0  0  0  0  0  0  0  0  0  0  0
   -0.9959    3.1298   -0.6895 C   0  0  0  0  0  0  0  0  0  0  0  0
   -0.0691    5.2400    0.0299 N   0  0  0  0  0  0  0  0  0  0  0  0
    1.1134    5.9458    0.1271 C   0  0  0  0  0  0  0  0  0  0  0  0
    1.1201    7.4028    0.2403 C   0  0  0  0  0  0  0  0  0  0  0  0
    2.3761    8.0491    0.3409 C   0  0  0  0  0  0  0  0  0  0  0  0
    2.3947    9.4507    0.4562 C   0  0  0  0  0  0  0  0  0  0  0  0
    1.2446   10.0925    0.4707 N   0  0  0  0  0  0  0  0  0  0  0  0
    0.0841    9.4479    0.3795 C   0  0  0  0  0  0  0  0  0  0  0  0
    0.0081    8.1338    0.2690 N   0  0  0  0  0  0  0  0  0  0  0  0
   -1.0890   10.1829    0.4008 N   0  0  0  0  0  0  0  0  0  0  0  0
   -1.0371   11.6420    0.5219 C   0  0  0  0  0  0  0  0  0  0  0  0
    3.4876    7.3057    0.3172 N   0  0  0  0  0  0  0  0  0  0  0  0
    3.4229    6.0012    0.2088 C   0  0  0  0  0  0  0  0  0  0  0  0
    2.2876    5.3277    0.1158 N   0  0  0  0  0  0  0  0  0  0  0  0
   -2.8692    0.7861   -0.8562 H   0  0  0  0  0  0  0  0  0  0  0  0
   -2.2866    1.5535   -2.3528 H   0  0  0  0  0  0  0  0  0  0  0  0
   -1.5620    0.0263   -1.7955 H   0  0  0  0  0  0  0  0  0  0  0  0
   -0.0035   -0.0041    0.0633 H   0  0  0  0  0  0  0  0  0  0  0  0
    1.6718    1.2531    1.3550 H   0  0  0  0  0  0  0  0  0  0  0  0
    1.6454    3.7142    1.3431 H   0  0  0  0  0  0  0  0  0  0  0  0
   -1.7449    3.6550   -1.2637 H   0  0  0  0  0  0  0  0  0  0  0  0
   -0.9121    5.7139   -0.0444 H   0  0  0  0  0  0  0  0  0  0  0  0
    3.3289    9.9874    0.5307 H   0  0  0  0  0  0  0  0  0  0  0  0
   -1.9453    9.7318    0.3355 H   0  0  0  0  0  0  0  0  0  0  0  0
   -0.5403   11.9117    1.4539 H   0  0  0  0  0  0  0  0  0  0  0  0
   -0.4816   12.0568   -0.3192 H   0  0  0  0  0  0  0  0  0  0  0  0
   -2.0507   12.0429    0.5211 H   0  0  0  0  0  0  0  0  0  0  0  0
    4.3483    5.4446    0.1941 H   0  0  0  0  0  0  0  0  0  0  0  0
  1  2  1  0  0  0  0
  1 21  1  0  0  0  0
  1 22  1  0  0  0  0
  1 23  1  0  0  0  0
  2  7  2  0  0  0  0
  2  3  1  0  0  0  0
  3  4  2  0  0  0  0
  3 24  1  0  0  0  0
  4  5  1  0  0  0  0
  4 25  1  0  0  0  0
  5  6  2  0  0  0  0
  5 26  1  0  0  0  0
  6  7  1  0  0  0  0
  6  8  1  0  0  0  0
  7 27  1  0  0  0  0
  8  9  1  0  0  0  0
  8 28  1  0  0  0  0
  9 20  2  0  0  0  0
  9 10  1  0  0  0  0
 10 15  2  0  0  0  0
 10 11  1  0  0  0  0
 11 12  2  0  0  0  0
 11 18  1  0  0  0  0
 12 13  1  0  0  0  0
 12 29  1  0  0  0  0
 13 14  2  0  0  0  0
 14 15  1  0  0  0  0
 14 16  1  0  0  0  0
 16 17  1  0  0  0  0
 16 30  1  0  0  0  0
 17 31  1  0  0  0  0
 17 32  1  0  0  0  0
 17 33  1  0  0  0  0
 18 19  2  0  0  0  0
 19 20  1  0  0  0  0
 19 34  1  0  0  0  0
M  END
$$$$
ZINC03815144
  -OEChem-08230709403D

 31 33  0     0  0  0  0  0  0999 V2000
    6.9994    4.0330   -0.2552 C   0  0  0  0  0  0  0  0  0  0  0  0
    7.0335    5.4580   -0.3573 O   0  0  0  0  0  0  0  0  0  0  0  0
    5.8418    6.1052   -0.3401 C   0  0  0  0  0  0  0  0  0  0  0  0
    5.8204    7.5019   -0.4373 C   0  0  0  0  0  0  0  0  0  0  0  0
    4.6294    8.1669   -0.4214 C   0  0  0  0  0  0  0  0  0  0  0  0
    3.4481    7.4111   -0.3060 C   0  0  0  0  0  0  0  0  0  0  0  0
    3.5412    6.0037   -0.2065 C   0  0  0  0  0  0  0  0  0  0  0  0
    4.7318    5.4060   -0.2321 N   0  0  0  0  0  0  0  0  0  0  0  0
    2.3354    5.2651   -0.0967 C   0  0  0  0  0  0  0  0  0  0  0  0
    1.1899    5.9314   -0.0836 N   0  0  0  0  0  0  0  0  0  0  0  0
    1.1555    7.2510   -0.1749 C   0  0  0  0  0  0  0  0  0  0  0  0
    2.2380    7.9849   -0.2831 N   0  0  0  0  0  0  0  0  0  0  0  0
    2.3548    3.8878   -0.0000 N   0  0  0  0  0  0  0  0  0  0  0  0
    1.1558    3.1697   -0.0085 C   0  0  0  0  0  0  0  0  0  0  0  0
    0.0738    3.6302   -0.7486 C   0  0  0  0  0  0  0  0  0  0  0  0
   -1.1098    2.9189   -0.7548 C   0  0  0  0  0  0  0  0  0  0  0  0
   -1.2212    1.7521   -0.0209 C   0  0  0  0  0  0  0  0  0  0  0  0
   -0.1441    1.2873    0.7127 C   0  0  0  0  0  0  0  0  0  0  0  0
    1.0433    1.9946    0.7230 C   0  0  0  0  0  0  0  0  0  0  0  0
   -0.2993   -0.3127    1.7087 Br  0  0  0  0  0  0  0  0  0  0  0  0
    6.5243    3.7473    0.6833 H   0  0  0  0  0  0  0  0  0  0  0  0
    6.4311    3.6225   -1.0898 H   0  0  0  0  0  0  0  0  0  0  0  0
    8.0166    3.6424   -0.2812 H   0  0  0  0  0  0  0  0  0  0  0  0
    6.7457    8.0520   -0.5251 H   0  0  0  0  0  0  0  0  0  0  0  0
    4.5941    9.2438   -0.4950 H   0  0  0  0  0  0  0  0  0  0  0  0
    0.1954    7.7453   -0.1595 H   0  0  0  0  0  0  0  0  0  0  0  0
    3.2006    3.4186    0.0738 H   0  0  0  0  0  0  0  0  0  0  0  0
    0.1585    4.5435   -1.3187 H   0  0  0  0  0  0  0  0  0  0  0  0
   -1.9510    3.2767   -1.3299 H   0  0  0  0  0  0  0  0  0  0  0  0
   -2.1495    1.2001   -0.0240 H   0  0  0  0  0  0  0  0  0  0  0  0
    1.8824    1.6342    1.2996 H   0  0  0  0  0  0  0  0  0  0  0  0
  1  2  1  0  0  0  0
  1 21  1  0  0  0  0
  1 22  1  0  0  0  0
  1 23  1  0  0  0  0
  2  3  1  0  0  0  0
  3  8  2  0  0  0  0
  3  4  1  0  0  0  0
  4  5  2  0  0  0  0
  4 24  1  0  0  0  0
  5  6  1  0  0  0  0
  5 25  1  0  0  0  0
  6 12  2  0  0  0  0
  6  7  1  0  0  0  0
  7  8  1  0  0  0  0
  7  9  2  0  0  0  0
  9 10  1  0  0  0  0
  9 13  1  0  0  0  0
 10 11  2  0  0  0  0
 11 12  1  0  0  0  0
 11 26  1  0  0  0  0
 13 14  1  0  0  0  0
 13 27  1  0  0  0  0
 14 19  2  0  0  0  0
 14 15  1  0  0  0  0
 15 16  2  0  0  0  0
 15 28  1  0  0  0  0
 16 17  1  0  0  0  0
 16 29  1  0  0  0  0
 17 18  2  0  0  0  0
 17 30  1  0  0  0  0
 18 19  1  0  0  0  0
 18 20  1  0  0  0  0
 19 31  1  0  0  0  0
M  END
$$$$
ZINC03815145
  -OEChem-08230709403D

 55 57  0     1  0  0  0  0  0999 V2000
    7.9144   -1.0695   -3.3086 C   0  0  0  0  0  0  0  0  0  0  0  0
    7.7727   -2.0888   -2.1764 C   0  0  0  0  0  0  0  0  0  0  0  0
    9.3593   -0.8520   -0.8289 C   0  0  0  0  0  0  0  0  0  0  0  0
   10.3864   -1.9801   -0.7133 C   0  0  0  0  0  0  0  0  0  0  0  0
    6.9893   -0.3973   -0.6311 C   0  0  0  0  0  0  0  0  0  0  0  0
    5.6245   -1.0656   -0.4528 C   0  0  2  0  0  0  0  0  0  0  0  0
    5.4072   -1.6856   -1.3225 H   0  0  0  0  0  0  0  0  0  0  0  0
    4.5451    0.0093   -0.3102 C   0  0  0  0  0  0  0  0  0  0  0  0
    3.2383   -0.6305   -0.1394 N   0  0  0  0  0  0  0  0  0  0  0  0
    2.0950    0.1504    0.0113 C   0  0  0  0  0  0  0  0  0  0  0  0
    2.2100    1.5302   -0.0020 C   0  0  0  0  0  0  0  0  0  0  0  0
    1.0508    2.2930    0.1512 C   0  0  0  0  0  0  0  0  0  0  0  0
   -0.1906    1.6253    0.3134 C   0  0  0  0  0  0  0  0  0  0  0  0
   -0.2042    0.2249    0.3133 C   0  0  0  0  0  0  0  0  0  0  0  0
   -1.2997    2.3636    0.4545 N   0  0  0  0  0  0  0  0  0  0  0  0
   -1.2420    3.6723    0.4533 C   0  0  0  0  0  0  0  0  0  0  0  0
   -0.1212    4.3612    0.3069 N   0  0  0  0  0  0  0  0  0  0  0  0
    1.0490    3.7527    0.1528 C   0  0  0  0  0  0  0  0  0  0  0  0
    2.2167    4.4716   -0.0001 N   0  0  0  0  0  0  0  0  0  0  0  0
    2.1711    5.8646   -0.1051 C   0  0  0  0  0  0  0  0  0  0  0  0
    3.2160    6.6347    0.3904 C   0  0  0  0  0  0  0  0  0  0  0  0
    3.1685    8.0107    0.2849 C   0  0  0  0  0  0  0  0  0  0  0  0
    2.0824    8.6230   -0.3133 C   0  0  0  0  0  0  0  0  0  0  0  0
    1.0401    7.8595   -0.8084 C   0  0  0  0  0  0  0  0  0  0  0  0
    1.0839    6.4816   -0.7102 C   0  0  0  0  0  0  0  0  0  0  0  0
   -0.4425    8.7017   -1.6261 Br  0  0  0  0  0  0  0  0  0  0  0  0
    5.6430   -1.8807    0.7208 O   0  0  0  0  0  0  0  0  0  0  0  0
    7.2550   -0.2224   -3.1195 H   0  0  0  0  0  0  0  0  0  0  0  0
    8.9465   -0.7226   -3.3582 H   0  0  0  0  0  0  0  0  0  0  0  0
    7.6425   -1.5374   -4.2548 H   0  0  0  0  0  0  0  0  0  0  0  0
    8.5028   -2.8867   -2.3124 H   0  0  0  0  0  0  0  0  0  0  0  0
    6.7674   -2.5098   -2.1902 H   0  0  0  0  0  0  0  0  0  0  0  0
    9.5504   -0.2781   -1.7356 H   0  0  0  0  0  0  0  0  0  0  0  0
    9.4393   -0.1974    0.0390 H   0  0  0  0  0  0  0  0  0  0  0  0
   10.1349   -2.6148    0.1364 H   0  0  0  0  0  0  0  0  0  0  0  0
   10.3771   -2.5749   -1.6266 H   0  0  0  0  0  0  0  0  0  0  0  0
   11.3791   -1.5541   -0.5672 H   0  0  0  0  0  0  0  0  0  0  0  0
    6.9488    0.2924   -1.4741 H   0  0  0  0  0  0  0  0  0  0  0  0
    7.2465    0.1511    0.2751 H   0  0  0  0  0  0  0  0  0  0  0  0
    4.5311    0.6311   -1.2053 H   0  0  0  0  0  0  0  0  0  0  0  0
    4.7625    0.6294    0.5595 H   0  0  0  0  0  0  0  0  0  0  0  0
    3.1694   -1.5980   -0.1313 H   0  0  0  0  0  0  0  0  0  0  0  0
    3.1722    2.0044   -0.1274 H   0  0  0  0  0  0  0  0  0  0  0  0
   -1.1370   -0.3056    0.4347 H   0  0  0  0  0  0  0  0  0  0  0  0
   -2.1639    4.2216    0.5744 H   0  0  0  0  0  0  0  0  0  0  0  0
    3.0693    4.0103   -0.0348 H   0  0  0  0  0  0  0  0  0  0  0  0
    4.0645    6.1575    0.8581 H   0  0  0  0  0  0  0  0  0  0  0  0
    3.9808    8.6094    0.6698 H   0  0  0  0  0  0  0  0  0  0  0  0
    2.0478    9.6994   -0.3945 H   0  0  0  0  0  0  0  0  0  0  0  0
    0.2720    5.8856   -1.1001 H   0  0  0  0  0  0  0  0  0  0  0  0
    5.8309   -1.3939    1.5349 H   0  0  0  0  0  0  0  0  0  0  0  0
    8.0056   -1.4443   -0.8667 N   0  3  0  0  0  0  0  0  0  0  0  0
    7.9312   -2.1536   -0.1281 H   0  0  0  0  0  0  0  0  0  0  0  0
    0.9136   -0.5311    0.1655 N   0  3  0  0  0  0  0  0  0  0  0  0
    0.8773   -1.5572    0.1689 H   0  0  0  0  0  0  0  0  0  0  0  0
  1  2  1  0  0  0  0
  1 28  1  0  0  0  0
  1 29  1  0  0  0  0
  1 30  1  0  0  0  0
  2 31  1  0  0  0  0
  2 32  1  0  0  0  0
  2 52  1  0  0  0  0
  3  4  1  0  0  0  0
  3 33  1  0  0  0  0
  3 34  1  0  0  0  0
  3 52  1  0  0  0  0
  4 35  1  0  0  0  0
  4 36  1  0  0  0  0
  4 37  1  0  0  0  0
  5  6  1  0  0  0  0
  5 38  1  0  0  0  0
  5 39  1  0  0  0  0
  5 52  1  0  0  0  0
  6  7  1  0  0  0  0
  6  8  1  0  0  0  0
  6 27  1  0  0  0  0
  8  9  1  0  0  0  0
  8 40  1  0  0  0  0
  8 41  1  0  0  0  0
  9 10  1  0  0  0  0
  9 42  1  0  0  0  0
 10 11  2  0  0  0  0
 10 54  1  0  0  0  0
 11 12  1  0  0  0  0
 11 43  1  0  0  0  0
 12 18  2  0  0  0  0
 12 13  1  0  0  0  0
 13 14  1  0  0  0  0
 13 15  2  0  0  0  0
 14 44  1  0  0  0  0
 14 54  2  0  0  0  0
 15 16  1  0  0  0  0
 16 17  2  0  0  0  0
 16 45  1  0  0  0  0
 17 18  1  0  0  0  0
 18 19  1  0  0  0  0
 19 20  1  0  0  0  0
 19 46  1  0  0  0  0
 20 25  2  0  0  0  0
 20 21  1  0  0  0  0
 21 22  2  0  0  0  0
 21 47  1  0  0  0  0
 22 23  1  0  0  0  0
 22 48  1  0  0  0  0
 23 24  2  0  0  0  0
 23 49  1  0  0  0  0
 24 25  1  0  0  0  0
 24 26  1  0  0  0  0
 25 50  1  0  0  0  0
 27 51  1  0  0  0  0
 52 53  1  0  0  0  0
 54 55  1  0  0  0  0
M  CHG  2  52   1  54   1
M  END
$$$$
ZINC03815146
  -OEChem-08230709403D

 29 31  0     0  0  0  0  0  0999 V2000
   -1.4900    6.0226    0.3400 C   0  0  0  0  0  0  0  0  0  0  0  0
   -0.2799    5.3628    0.4305 C   0  0  0  0  0  0  0  0  0  0  0  0
   -0.1514    4.0771   -0.0792 C   0  0  0  0  0  0  0  0  0  0  0  0
   -1.2397    3.4606   -0.6834 C   0  0  0  0  0  0  0  0  0  0  0  0
   -2.4487    4.1242   -0.7669 C   0  0  0  0  0  0  0  0  0  0  0  0
   -2.5731    5.4050   -0.2575 C   0  0  0  0  0  0  0  0  0  0  0  0
   -3.9330    3.2842   -1.5838 Br  0  0  0  0  0  0  0  0  0  0  0  0
    1.0722    3.4072    0.0106 N   0  0  0  0  0  0  0  0  0  0  0  0
    1.0985    2.0361    0.1631 C   0  0  0  0  0  0  0  0  0  0  0  0
    2.3224    1.3257    0.1391 C   0  0  0  0  0  0  0  0  0  0  0  0
    3.5515    1.9720   -0.0394 C   0  0  0  0  0  0  0  0  0  0  0  0
    4.7017    1.2428   -0.0559 C   0  0  0  0  0  0  0  0  0  0  0  0
    4.6722   -0.1455    0.1038 C   0  0  0  0  0  0  0  0  0  0  0  0
    3.4770   -0.8094    0.2809 C   0  0  0  0  0  0  0  0  0  0  0  0
    2.2818   -0.0813    0.3014 C   0  0  0  0  0  0  0  0  0  0  0  0
    1.0911   -0.6769    0.4704 N   0  0  0  0  0  0  0  0  0  0  0  0
   -0.0117    0.0334    0.4845 C   0  0  0  0  0  0  0  0  0  0  0  0
   -0.0228    1.3484    0.3366 N   0  0  0  0  0  0  0  0  0  0  0  0
    5.8339   -0.8483    0.0838 O   0  0  0  0  0  0  0  0  0  0  0  0
   -1.5902    7.0223    0.7362 H   0  0  0  0  0  0  0  0  0  0  0  0
    0.5656    5.8461    0.8974 H   0  0  0  0  0  0  0  0  0  0  0  0
   -1.1419    2.4626   -1.0843 H   0  0  0  0  0  0  0  0  0  0  0  0
   -3.5180    5.9233   -0.3273 H   0  0  0  0  0  0  0  0  0  0  0  0
    1.9028    3.9062   -0.0343 H   0  0  0  0  0  0  0  0  0  0  0  0
    3.5873    3.0442   -0.1638 H   0  0  0  0  0  0  0  0  0  0  0  0
    5.6486    1.7436   -0.1937 H   0  0  0  0  0  0  0  0  0  0  0  0
    3.4631   -1.8823    0.4035 H   0  0  0  0  0  0  0  0  0  0  0  0
   -0.9529   -0.4780    0.6227 H   0  0  0  0  0  0  0  0  0  0  0  0
    6.2454   -0.9529    0.9526 H   0  0  0  0  0  0  0  0  0  0  0  0
  1  6  2  0  0  0  0
  1  2  1  0  0  0  0
  1 20  1  0  0  0  0
  2  3  2  0  0  0  0
  2 21  1  0  0  0  0
  3  4  1  0  0  0  0
  3  8  1  0  0  0  0
  4  5  2  0  0  0  0
  4 22  1  0  0  0  0
  5  6  1  0  0  0  0
  5  7  1  0  0  0  0
  6 23  1  0  0  0  0
  8  9  1  0  0  0  0
  8 24  1  0  0  0  0
  9 18  2  0  0  0  0
  9 10  1  0  0  0  0
 10 15  2  0  0  0  0
 10 11  1  0  0  0  0
 11 12  2  0  0  0  0
 11 25  1  0  0  0  0
 12 13  1  0  0  0  0
 12 26  1  0  0  0  0
 13 14  2  0  0  0  0
 13 19  1  0  0  0  0
 14 15  1  0  0  0  0
 14 27  1  0  0  0  0
 15 16  1  0  0  0  0
 16 17  2  0  0  0  0
 17 18  1  0  0  0  0
 17 28  1  0  0  0  0
 19 29  1  0  0  0  0
M  END
$$$$
ZINC03815147
  -OEChem-08230709403D

 49 53  0     0  0  0  0  0  0999 V2000
    4.8804    1.0224   -0.4171 C   0  0  0  0  0  0  0  0  0  0  0  0
    3.7010    1.7355   -0.5084 C   0  0  0  0  0  0  0  0  0  0  0  0
    3.5979    2.9846    0.0902 C   0  0  0  0  0  0  0  0  0  0  0  0
    4.6839    3.5153    0.7748 C   0  0  0  0  0  0  0  0  0  0  0  0
    5.8592    2.7947    0.8671 C   0  0  0  0  0  0  0  0  0  0  0  0
    5.9581    1.5504    0.2693 C   0  0  0  0  0  0  0  0  0  0  0  0
    7.3362    3.5124    1.8047 Br  0  0  0  0  0  0  0  0  0  0  0  0
    2.4057    3.7087   -0.0010 N   0  0  0  0  0  0  0  0  0  0  0  0
    1.1949    3.0483    0.0136 C   0  0  0  0  0  0  0  0  0  0  0  0
   -0.0194    3.7494   -0.1990 C   0  0  0  0  0  0  0  0  0  0  0  0
   -0.0411    5.1239   -0.4309 C   0  0  0  0  0  0  0  0  0  0  0  0
   -1.2572    5.7606   -0.6334 C   0  0  0  0  0  0  0  0  0  0  0  0
   -2.4673    5.0274   -0.6060 C   0  0  0  0  0  0  0  0  0  0  0  0
   -2.4496    3.6644   -0.3760 C   0  0  0  0  0  0  0  0  0  0  0  0
   -1.2326    3.0118   -0.1712 C   0  0  0  0  0  0  0  0  0  0  0  0
   -1.1738    1.6868    0.0497 N   0  0  0  0  0  0  0  0  0  0  0  0
   -0.0207    1.0948    0.2444 C   0  0  0  0  0  0  0  0  0  0  0  0
    1.1351    1.7412    0.2273 N   0  0  0  0  0  0  0  0  0  0  0  0
   -3.4873    5.9261   -0.8369 N   0  0  0  0  0  0  0  0  0  0  0  0
   -4.4302    5.7012   -0.8733 H   0  0  0  0  0  0  0  0  0  0  0  0
   -2.9712    7.1843   -1.0069 C   0  0  0  0  0  0  0  0  0  0  0  0
   -1.6355    7.1539   -0.8965 C   0  0  0  0  0  0  0  0  0  0  0  0
   -0.6994    8.3286   -1.0189 C   0  0  0  0  0  0  0  0  0  0  0  0
    0.7782    7.1789   -2.5557 C   0  0  0  0  0  0  0  0  0  0  0  0
    1.3316    7.1986   -3.9831 C   0  0  0  0  0  0  0  0  0  0  0  0
    2.0114    8.4365   -4.2084 O   0  0  0  0  0  0  0  0  0  0  0  0
    1.1839    9.5889   -4.0277 C   0  0  0  0  0  0  0  0  0  0  0  0
    0.6291    9.5934   -2.6008 C   0  0  0  0  0  0  0  0  0  0  0  0
    4.9609    0.0513   -0.8828 H   0  0  0  0  0  0  0  0  0  0  0  0
    2.8595    1.3220   -1.0445 H   0  0  0  0  0  0  0  0  0  0  0  0
    4.6084    4.4881    1.2376 H   0  0  0  0  0  0  0  0  0  0  0  0
    6.8792    0.9908    0.3388 H   0  0  0  0  0  0  0  0  0  0  0  0
    2.4300    4.6756   -0.0745 H   0  0  0  0  0  0  0  0  0  0  0  0
    0.8797    5.6878   -0.4523 H   0  0  0  0  0  0  0  0  0  0  0  0
   -3.3740    3.1062   -0.3558 H   0  0  0  0  0  0  0  0  0  0  0  0
   -0.0124    0.0296    0.4226 H   0  0  0  0  0  0  0  0  0  0  0  0
   -3.5556    8.0714   -1.2018 H   0  0  0  0  0  0  0  0  0  0  0  0
   -1.2542    9.2533   -0.8601 H   0  0  0  0  0  0  0  0  0  0  0  0
    0.0887    8.2446   -0.2706 H   0  0  0  0  0  0  0  0  0  0  0  0
    1.6033    7.2237   -1.8448 H   0  0  0  0  0  0  0  0  0  0  0  0
    0.2105    6.2618   -2.3981 H   0  0  0  0  0  0  0  0  0  0  0  0
    0.5105    7.0997   -4.6931 H   0  0  0  0  0  0  0  0  0  0  0  0
    2.0287    6.3712   -4.1153 H   0  0  0  0  0  0  0  0  0  0  0  0
    0.3586    9.5595   -4.7390 H   0  0  0  0  0  0  0  0  0  0  0  0
    1.7745   10.4903   -4.1914 H   0  0  0  0  0  0  0  0  0  0  0  0
   -0.0474   10.4389   -2.4760 H   0  0  0  0  0  0  0  0  0  0  0  0
    1.4513    9.6772   -1.8901 H   0  0  0  0  0  0  0  0  0  0  0  0
   -0.1206    8.3387   -2.3798 N   0  3  0  0  0  0  0  0  0  0  0  0
   -0.8816    8.2787   -3.0665 H   0  0  0  0  0  0  0  0  0  0  0  0
  1  6  2  0  0  0  0
  1  2  1  0  0  0  0
  1 29  1  0  0  0  0
  2  3  2  0  0  0  0
  2 30  1  0  0  0  0
  3  4  1  0  0  0  0
  3  8  1  0  0  0  0
  4  5  2  0  0  0  0
  4 31  1  0  0  0  0
  5  6  1  0  0  0  0
  5  7  1  0  0  0  0
  6 32  1  0  0  0  0
  8  9  1  0  0  0  0
  8 33  1  0  0  0  0
  9 18  2  0  0  0  0
  9 10  1  0  0  0  0
 10 15  2  0  0  0  0
 10 11  1  0  0  0  0
 11 12  2  0  0  0  0
 11 34  1  0  0  0  0
 12 22  1  0  0  0  0
 12 13  1  0  0  0  0
 13 14  2  0  0  0  0
 13 19  1  0  0  0  0
 14 15  1  0  0  0  0
 14 35  1  0  0  0  0
 15 16  1  0  0  0  0
 16 17  2  0  0  0  0
 17 18  1  0  0  0  0
 17 36  1  0  0  0  0
 19 20  1  0  0  0  0
 19 21  1  0  0  0  0
 21 22  2  0  0  0  0
 21 37  1  0  0  0  0
 22 23  1  0  0  0  0
 23 38  1  0  0  0  0
 23 39  1  0  0  0  0
 23 48  1  0  0  0  0
 24 25  1  0  0  0  0
 24 40  1  0  0  0  0
 24 41  1  0  0  0  0
 24 48  1  0  0  0  0
 25 26  1  0  0  0  0
 25 42  1  0  0  0  0
 25 43  1  0  0  0  0
 26 27  1  0  0  0  0
 27 28  1  0  0  0  0
 27 44  1  0  0  0  0
 27 45  1  0  0  0  0
 28 46  1  0  0  0  0
 28 47  1  0  0  0  0
 28 48  1  0  0  0  0
 48 49  1  0  0  0  0
M  CHG  1  48   1
M  END
$$$$
ZINC03815149
  -OEChem-08230709403D

 58 61  0     0  0  0  0  0  0999 V2000
    1.1841  -12.7113    1.0535 C   0  0  0  0  0  0  0  0  0  0  0  0
    0.0381  -10.7621    1.9206 C   0  0  0  0  0  0  0  0  0  0  0  0
   -0.3827   -9.3283    1.5896 C   0  0  0  0  0  0  0  0  0  0  0  0
    1.6020   -9.0595    0.2304 C   0  0  0  0  0  0  0  0  0  0  0  0
    2.0228  -10.4933    0.5614 C   0  0  0  0  0  0  0  0  0  0  0  0
    0.4559   -7.1103    1.0976 C   0  0  0  0  0  0  0  0  0  0  0  0
    1.7226   -6.2521    1.0953 C   0  0  0  0  0  0  0  0  0  0  0  0
    1.3484   -4.7911    0.8377 C   0  0  0  0  0  0  0  0  0  0  0  0
    2.5612   -3.9694    0.8356 N   0  0  0  0  0  0  0  0  0  0  0  0
    2.4720   -2.6003    0.6204 C   0  0  0  0  0  0  0  0  0  0  0  0
    1.2299   -2.0292    0.4098 C   0  0  0  0  0  0  0  0  0  0  0  0
    1.1580   -0.6486    0.1946 C   0  0  0  0  0  0  0  0  0  0  0  0
    2.3673    0.0969    0.2036 C   0  0  0  0  0  0  0  0  0  0  0  0
    3.5750   -0.5685    0.4254 C   0  0  0  0  0  0  0  0  0  0  0  0
    2.2915    1.4922   -0.0143 C   0  0  0  0  0  0  0  0  0  0  0  0
    1.0937    2.0291   -0.2162 N   0  0  0  0  0  0  0  0  0  0  0  0
   -0.0056    1.2930   -0.2154 C   0  0  0  0  0  0  0  0  0  0  0  0
    0.0030   -0.0056   -0.0184 N   0  0  0  0  0  0  0  0  0  0  0  0
    3.4280    2.2722   -0.0180 N   0  0  0  0  0  0  0  0  0  0  0  0
    3.3212    3.6627   -0.1146 C   0  0  0  0  0  0  0  0  0  0  0  0
    2.2594    4.3230    0.4911 C   0  0  0  0  0  0  0  0  0  0  0  0
    2.1566    5.6966    0.3945 C   0  0  0  0  0  0  0  0  0  0  0  0
    3.1093    6.4157   -0.3040 C   0  0  0  0  0  0  0  0  0  0  0  0
    4.1680    5.7616   -0.9086 C   0  0  0  0  0  0  0  0  0  0  0  0
    4.2791    4.3874   -0.8114 C   0  0  0  0  0  0  0  0  0  0  0  0
    5.4681    6.7494   -1.8625 Br  0  0  0  0  0  0  0  0  0  0  0  0
    0.2766  -13.3047    1.1646 H   0  0  0  0  0  0  0  0  0  0  0  0
    1.7658  -13.0909    0.2134 H   0  0  0  0  0  0  0  0  0  0  0  0
    1.7766  -12.7792    1.9659 H   0  0  0  0  0  0  0  0  0  0  0  0
    0.6427  -10.7634    2.8276 H   0  0  0  0  0  0  0  0  0  0  0  0
   -0.8498  -11.3753    2.0745 H   0  0  0  0  0  0  0  0  0  0  0  0
   -0.9418   -8.9108    2.4271 H   0  0  0  0  0  0  0  0  0  0  0  0
   -1.0098   -9.3299    0.6981 H   0  0  0  0  0  0  0  0  0  0  0  0
    0.9974   -9.0581   -0.6766 H   0  0  0  0  0  0  0  0  0  0  0  0
    2.4899   -8.4462    0.0769 H   0  0  0  0  0  0  0  0  0  0  0  0
    2.6499  -10.4917    1.4529 H   0  0  0  0  0  0  0  0  0  0  0  0
    2.5818  -10.9107   -0.2761 H   0  0  0  0  0  0  0  0  0  0  0  0
   -0.2164   -6.7636    1.8823 H   0  0  0  0  0  0  0  0  0  0  0  0
   -0.0407   -7.0275    0.1308 H   0  0  0  0  0  0  0  0  0  0  0  0
    2.3949   -6.5988    0.3105 H   0  0  0  0  0  0  0  0  0  0  0  0
    2.2193   -6.3349    2.0620 H   0  0  0  0  0  0  0  0  0  0  0  0
    0.6760   -4.4445    1.6225 H   0  0  0  0  0  0  0  0  0  0  0  0
    0.8517   -4.7083   -0.1290 H   0  0  0  0  0  0  0  0  0  0  0  0
    3.4266   -4.3816    0.9845 H   0  0  0  0  0  0  0  0  0  0  0  0
    0.3360   -2.6352    0.4111 H   0  0  0  0  0  0  0  0  0  0  0  0
    4.5024   -0.0151    0.4350 H   0  0  0  0  0  0  0  0  0  0  0  0
   -0.9530    1.7815   -0.3890 H   0  0  0  0  0  0  0  0  0  0  0  0
    4.3019    1.8563    0.0464 H   0  0  0  0  0  0  0  0  0  0  0  0
    1.5149    3.7624    1.0368 H   0  0  0  0  0  0  0  0  0  0  0  0
    1.3313    6.2102    0.8653 H   0  0  0  0  0  0  0  0  0  0  0  0
    3.0268    7.4900   -0.3774 H   0  0  0  0  0  0  0  0  0  0  0  0
    5.1079    3.8775   -1.2799 H   0  0  0  0  0  0  0  0  0  0  0  0
    0.8088  -11.3070    0.7833 N   0  3  0  0  0  0  0  0  0  0  0  0
    0.2258  -11.2740   -0.0613 H   0  0  0  0  0  0  0  0  0  0  0  0
    0.8311   -8.5147    1.3679 N   0  3  0  0  0  0  0  0  0  0  0  0
    1.4139   -8.5476    2.2125 H   0  0  0  0  0  0  0  0  0  0  0  0
    3.6583   -1.9074    0.6355 N   0  3  0  0  0  0  0  0  0  0  0  0
    4.5576   -2.3758    0.7966 H   0  0  0  0  0  0  0  0  0  0  0  0
  1 27  1  0  0  0  0
  1 28  1  0  0  0  0
  1 29  1  0  0  0  0
  1 53  1  0  0  0  0
  2  3  1  0  0  0  0
  2 30  1  0  0  0  0
  2 31  1  0  0  0  0
  2 53  1  0  0  0  0
  3 32  1  0  0  0  0
  3 33  1  0  0  0  0
  3 55  1  0  0  0  0
  4  5  1  0  0  0  0
  4 34  1  0  0  0  0
  4 35  1  0  0  0  0
  4 55  1  0  0  0  0
  5 36  1  0  0  0  0
  5 37  1  0  0  0  0
  5 53  1  0  0  0  0
  6  7  1  0  0  0  0
  6 38  1  0  0  0  0
  6 39  1  0  0  0  0
  6 55  1  0  0  0  0
  7  8  1  0  0  0  0
  7 40  1  0  0  0  0
  7 41  1  0  0  0  0
  8  9  1  0  0  0  0
  8 42  1  0  0  0  0
  8 43  1  0  0  0  0
  9 10  1  0  0  0  0
  9 44  1  0  0  0  0
 10 11  2  0  0  0  0
 10 57  1  0  0  0  0
 11 12  1  0  0  0  0
 11 45  1  0  0  0  0
 12 18  2  0  0  0  0
 12 13  1  0  0  0  0
 13 14  1  0  0  0  0
 13 15  2  0  0  0  0
 14 46  1  0  0  0  0
 14 57  2  0  0  0  0
 15 16  1  0  0  0  0
 15 19  1  0  0  0  0
 16 17  2  0  0  0  0
 17 18  1  0  0  0  0
 17 47  1  0  0  0  0
 19 20  1  0  0  0  0
 19 48  1  0  0  0  0
 20 25  2  0  0  0  0
 20 21  1  0  0  0  0
 21 22  2  0  0  0  0
 21 49  1  0  0  0  0
 22 23  1  0  0  0  0
 22 50  1  0  0  0  0
 23 24  2  0  0  0  0
 23 51  1  0  0  0  0
 24 25  1  0  0  0  0
 24 26  1  0  0  0  0
 25 52  1  0  0  0  0
 53 54  1  0  0  0  0
 55 56  1  0  0  0  0
 57 58  1  0  0  0  0
M  CHG  3  53   1  55   1  57   1
M  END
$$$$
ZINC03815150
  -OEChem-08230709403D

 39 42  0     0  0  0  0  0  0999 V2000
   -1.9973    4.6229    1.0469 C   0  0  0  0  0  0  0  0  0  0  0  0
   -0.8879    3.8208    0.8626 C   0  0  0  0  0  0  0  0  0  0  0  0
    0.2545    4.3428    0.2697 C   0  0  0  0  0  0  0  0  0  0  0  0
    0.2796    5.6723   -0.1317 C   0  0  0  0  0  0  0  0  0  0  0  0
   -0.8353    6.4684    0.0505 C   0  0  0  0  0  0  0  0  0  0  0  0
   -1.9720    5.9444    0.6419 C   0  0  0  0  0  0  0  0  0  0  0  0
   -0.8080    8.1285   -0.4565 Cl  0  0  0  0  0  0  0  0  0  0  0  0
    1.3787    3.5334    0.0825 N   0  0  0  0  0  0  0  0  0  0  0  0
    1.2240    2.1828   -0.1680 C   0  0  0  0  0  0  0  0  0  0  0  0
    2.3399    1.3332   -0.2504 C   0  0  0  0  0  0  0  0  0  0  0  0
    2.1260   -0.0350   -0.5087 C   0  0  0  0  0  0  0  0  0  0  0  0
    3.3523   -0.6265   -0.5385 N   0  0  0  0  0  0  0  0  0  0  0  0
    3.5214   -1.5984   -0.7020 H   0  0  0  0  0  0  0  0  0  0  0  0
    4.3385    0.3378   -0.3047 N   0  0  0  0  0  0  0  0  0  0  0  0
    3.7839    1.5098   -0.1293 C   0  0  0  0  0  0  0  0  0  0  0  0
    4.4509    2.7095    0.1276 N   0  0  0  0  0  0  0  0  0  0  0  0
    5.8359    2.7104    0.3321 C   0  0  0  0  0  0  0  0  0  0  0  0
    6.4597    1.5907    0.8669 C   0  0  0  0  0  0  0  0  0  0  0  0
    7.8263    1.5897    1.0636 C   0  0  0  0  0  0  0  0  0  0  0  0
    8.5757    2.7122    0.7365 C   0  0  0  0  0  0  0  0  0  0  0  0
    7.9513    3.8340    0.2071 C   0  0  0  0  0  0  0  0  0  0  0  0
    6.5853    3.8332    0.0054 C   0  0  0  0  0  0  0  0  0  0  0  0
    9.9604    2.7132    0.9409 N   0  0  0  0  0  0  0  0  0  0  0  0
    0.8748   -0.4679   -0.6638 N   0  0  0  0  0  0  0  0  0  0  0  0
   -0.1388    0.3651   -0.5775 C   0  0  0  0  0  0  0  0  0  0  0  0
    0.0154    1.6552   -0.3374 N   0  0  0  0  0  0  0  0  0  0  0  0
   -2.8855    4.2172    1.5083 H   0  0  0  0  0  0  0  0  0  0  0  0
   -0.9089    2.7884    1.1791 H   0  0  0  0  0  0  0  0  0  0  0  0
    1.1677    6.0823   -0.5894 H   0  0  0  0  0  0  0  0  0  0  0  0
   -2.8407    6.5694    0.7874 H   0  0  0  0  0  0  0  0  0  0  0  0
    2.2674    3.9194    0.1284 H   0  0  0  0  0  0  0  0  0  0  0  0
    3.9547    3.5421    0.1643 H   0  0  0  0  0  0  0  0  0  0  0  0
    5.8763    0.7192    1.1251 H   0  0  0  0  0  0  0  0  0  0  0  0
    8.3120    0.7175    1.4757 H   0  0  0  0  0  0  0  0  0  0  0  0
    8.5341    4.7069   -0.0473 H   0  0  0  0  0  0  0  0  0  0  0  0
    6.0998    4.7054   -0.4067 H   0  0  0  0  0  0  0  0  0  0  0  0
   10.4838    3.4973    0.7128 H   0  0  0  0  0  0  0  0  0  0  0  0
   10.3966    1.9297    1.3107 H   0  0  0  0  0  0  0  0  0  0  0  0
   -1.1389   -0.0211   -0.7086 H   0  0  0  0  0  0  0  0  0  0  0  0
  1  6  2  0  0  0  0
  1  2  1  0  0  0  0
  1 27  1  0  0  0  0
  2  3  2  0  0  0  0
  2 28  1  0  0  0  0
  3  4  1  0  0  0  0
  3  8  1  0  0  0  0
  4  5  2  0  0  0  0
  4 29  1  0  0  0  0
  5  6  1  0  0  0  0
  5  7  1  0  0  0  0
  6 30  1  0  0  0  0
  8  9  1  0  0  0  0
  8 31  1  0  0  0  0
  9 26  2  0  0  0  0
  9 10  1  0  0  0  0
 10 15  1  0  0  0  0
 10 11  2  0  0  0  0
 11 12  1  0  0  0  0
 11 24  1  0  0  0  0
 12 13  1  0  0  0  0
 12 14  1  0  0  0  0
 14 15  2  0  0  0  0
 15 16  1  0  0  0  0
 16 17  1  0  0  0  0
 16 32  1  0  0  0  0
 17 22  2  0  0  0  0
 17 18  1  0  0  0  0
 18 19  2  0  0  0  0
 18 33  1  0  0  0  0
 19 20  1  0  0  0  0
 19 34  1  0  0  0  0
 20 21  2  0  0  0  0
 20 23  1  0  0  0  0
 21 22  1  0  0  0  0
 21 35  1  0  0  0  0
 22 36  1  0  0  0  0
 23 37  1  0  0  0  0
 23 38  1  0  0  0  0
 24 25  2  0  0  0  0
 25 26  1  0  0  0  0
 25 39  1  0  0  0  0
M  END
$$$$
ZINC03815150
  -OEChem-08230709403D

 39 42  0     0  0  0  0  0  0999 V2000
   -1.9973    4.6229    1.0469 C   0  0  0  0  0  0  0  0  0  0  0  0
   -0.8879    3.8208    0.8626 C   0  0  0  0  0  0  0  0  0  0  0  0
    0.2545    4.3428    0.2697 C   0  0  0  0  0  0  0  0  0  0  0  0
    0.2796    5.6723   -0.1317 C   0  0  0  0  0  0  0  0  0  0  0  0
   -0.8353    6.4684    0.0505 C   0  0  0  0  0  0  0  0  0  0  0  0
   -1.9720    5.9444    0.6419 C   0  0  0  0  0  0  0  0  0  0  0  0
   -0.8080    8.1285   -0.4565 Cl  0  0  0  0  0  0  0  0  0  0  0  0
    1.3787    3.5334    0.0825 N   0  0  0  0  0  0  0  0  0  0  0  0
    1.2240    2.1828   -0.1680 C   0  0  0  0  0  0  0  0  0  0  0  0
    2.3399    1.3332   -0.2504 C   0  0  0  0  0  0  0  0  0  0  0  0
    2.1260   -0.0350   -0.5087 C   0  0  0  0  0  0  0  0  0  0  0  0
    3.3523   -0.6265   -0.5385 N   0  0  0  0  0  0  0  0  0  0  0  0
    3.5214   -1.5984   -0.7020 H   0  0  0  0  0  0  0  0  0  0  0  0
    4.3385    0.3378   -0.3047 N   0  0  0  0  0  0  0  0  0  0  0  0
    3.7839    1.5098   -0.1293 C   0  0  0  0  0  0  0  0  0  0  0  0
    4.4509    2.7095    0.1276 N   0  0  0  0  0  0  0  0  0  0  0  0
    5.8359    2.7104    0.3321 C   0  0  0  0  0  0  0  0  0  0  0  0
    6.4597    1.5907    0.8669 C   0  0  0  0  0  0  0  0  0  0  0  0
    7.8263    1.5897    1.0636 C   0  0  0  0  0  0  0  0  0  0  0  0
    8.5757    2.7122    0.7365 C   0  0  0  0  0  0  0  0  0  0  0  0
    7.9513    3.8340    0.2071 C   0  0  0  0  0  0  0  0  0  0  0  0
    6.5853    3.8332    0.0054 C   0  0  0  0  0  0  0  0  0  0  0  0
    9.9604    2.7132    0.9409 N   0  0  0  0  0  0  0  0  0  0  0  0
    0.8748   -0.4679   -0.6638 N   0  0  0  0  0  0  0  0  0  0  0  0
   -0.1388    0.3651   -0.5775 C   0  0  0  0  0  0  0  0  0  0  0  0
    0.0154    1.6552   -0.3374 N   0  0  0  0  0  0  0  0  0  0  0  0
   -2.8855    4.2172    1.5083 H   0  0  0  0  0  0  0  0  0  0  0  0
   -0.9089    2.7884    1.1791 H   0  0  0  0  0  0  0  0  0  0  0  0
    1.1677    6.0823   -0.5894 H   0  0  0  0  0  0  0  0  0  0  0  0
   -2.8407    6.5694    0.7874 H   0  0  0  0  0  0  0  0  0  0  0  0
    2.2674    3.9194    0.1284 H   0  0  0  0  0  0  0  0  0  0  0  0
    3.9547    3.5421    0.1643 H   0  0  0  0  0  0  0  0  0  0  0  0
    5.8763    0.7192    1.1251 H   0  0  0  0  0  0  0  0  0  0  0  0
    8.3120    0.7175    1.4757 H   0  0  0  0  0  0  0  0  0  0  0  0
    8.5341    4.7069   -0.0473 H   0  0  0  0  0  0  0  0  0  0  0  0
    6.0998    4.7054   -0.4067 H   0  0  0  0  0  0  0  0  0  0  0  0
   10.4838    3.4973    0.7128 H   0  0  0  0  0  0  0  0  0  0  0  0
   10.3966    1.9297    1.3107 H   0  0  0  0  0  0  0  0  0  0  0  0
   -1.1389   -0.0211   -0.7086 H   0  0  0  0  0  0  0  0  0  0  0  0
  1  6  2  0  0  0  0
  1  2  1  0  0  0  0
  1 27  1  0  0  0  0
  2  3  2  0  0  0  0
  2 28  1  0  0  0  0
  3  4  1  0  0  0  0
  3  8  1  0  0  0  0
  4  5  2  0  0  0  0
  4 29  1  0  0  0  0
  5  6  1  0  0  0  0
  5  7  1  0  0  0  0
  6 30  1  0  0  0  0
  8  9  1  0  0  0  0
  8 31  1  0  0  0  0
  9 26  2  0  0  0  0
  9 10  1  0  0  0  0
 10 15  1  0  0  0  0
 10 11  2  0  0  0  0
 11 12  1  0  0  0  0
 11 24  1  0  0  0  0
 12 13  1  0  0  0  0
 12 14  1  0  0  0  0
 14 15  2  0  0  0  0
 15 16  1  0  0  0  0
 16 17  1  0  0  0  0
 16 32  1  0  0  0  0
 17 22  2  0  0  0  0
 17 18  1  0  0  0  0
 18 19  2  0  0  0  0
 18 33  1  0  0  0  0
 19 20  1  0  0  0  0
 19 34  1  0  0  0  0
 20 21  2  0  0  0  0
 20 23  1  0  0  0  0
 21 22  1  0  0  0  0
 21 35  1  0  0  0  0
 22 36  1  0  0  0  0
 23 37  1  0  0  0  0
 23 38  1  0  0  0  0
 24 25  2  0  0  0  0
 25 26  1  0  0  0  0
 25 39  1  0  0  0  0
M  END
$$$$
ZINC03815151
  -OEChem-08230709403D

 37 40  0     0  0  0  0  0  0999 V2000
    0.7518    2.6630   -2.2981 C   0  0  0  0  0  0  0  0  0  0  0  0
    0.2966    3.8729   -1.8131 C   0  0  0  0  0  0  0  0  0  0  0  0
    0.3349    4.1345   -0.4442 C   0  0  0  0  0  0  0  0  0  0  0  0
    0.8280    3.1701    0.4318 C   0  0  0  0  0  0  0  0  0  0  0  0
    1.2779    1.9554   -0.0630 C   0  0  0  0  0  0  0  0  0  0  0  0
    1.2358    1.7035   -1.4295 C   0  0  0  0  0  0  0  0  0  0  0  0
    1.7727    0.9849    0.8114 N   0  0  0  0  0  0  0  0  0  0  0  0
   -0.1482    5.4354    0.0778 C   0  0  0  0  0  0  0  0  0  0  0  0
   -1.3868    6.1147   -0.3012 C   0  0  0  0  0  0  0  0  0  0  0  0
   -1.4301    7.3087    0.4430 C   0  0  0  0  0  0  0  0  0  0  0  0
   -0.3023    7.3394    1.2082 N   0  0  0  0  0  0  0  0  0  0  0  0
   -0.0540    8.0720    1.8420 H   0  0  0  0  0  0  0  0  0  0  0  0
    0.4537    6.1868    0.9691 N   0  0  0  0  0  0  0  0  0  0  0  0
   -2.4719    8.1241    0.2822 N   0  0  0  0  0  0  0  0  0  0  0  0
   -3.4397    7.8195   -0.5545 C   0  0  0  0  0  0  0  0  0  0  0  0
   -3.4399    6.7106   -1.2723 N   0  0  0  0  0  0  0  0  0  0  0  0
   -2.4443    5.8339   -1.1818 C   0  0  0  0  0  0  0  0  0  0  0  0
   -2.4497    4.6751   -1.9360 N   0  0  0  0  0  0  0  0  0  0  0  0
   -3.4447    4.4709   -2.8963 C   0  0  0  0  0  0  0  0  0  0  0  0
   -3.9004    3.1860   -3.1641 C   0  0  0  0  0  0  0  0  0  0  0  0
   -4.8837    2.9870   -4.1130 C   0  0  0  0  0  0  0  0  0  0  0  0
   -5.4157    4.0650   -4.7966 C   0  0  0  0  0  0  0  0  0  0  0  0
   -4.9647    5.3464   -4.5325 C   0  0  0  0  0  0  0  0  0  0  0  0
   -3.9836    5.5524   -3.5806 C   0  0  0  0  0  0  0  0  0  0  0  0
   -5.6362    6.6967   -5.3923 Cl  0  0  0  0  0  0  0  0  0  0  0  0
    0.7253    2.4641   -3.3593 H   0  0  0  0  0  0  0  0  0  0  0  0
   -0.0851    4.6186   -2.4947 H   0  0  0  0  0  0  0  0  0  0  0  0
    0.8601    3.3681    1.4931 H   0  0  0  0  0  0  0  0  0  0  0  0
    1.5864    0.7570   -1.8137 H   0  0  0  0  0  0  0  0  0  0  0  0
    2.0871    0.1351    0.4652 H   0  0  0  0  0  0  0  0  0  0  0  0
    1.8020    1.1608    1.7649 H   0  0  0  0  0  0  0  0  0  0  0  0
   -4.2686    8.5040   -0.6589 H   0  0  0  0  0  0  0  0  0  0  0  0
   -1.7631    4.0039   -1.7986 H   0  0  0  0  0  0  0  0  0  0  0  0
   -3.4857    2.3434   -2.6308 H   0  0  0  0  0  0  0  0  0  0  0  0
   -5.2381    1.9883   -4.3212 H   0  0  0  0  0  0  0  0  0  0  0  0
   -6.1849    3.9066   -5.5380 H   0  0  0  0  0  0  0  0  0  0  0  0
   -3.6344    6.5528   -3.3718 H   0  0  0  0  0  0  0  0  0  0  0  0
  1  6  2  0  0  0  0
  1  2  1  0  0  0  0
  1 26  1  0  0  0  0
  2  3  2  0  0  0  0
  2 27  1  0  0  0  0
  3  4  1  0  0  0  0
  3  8  1  0  0  0  0
  4  5  2  0  0  0  0
  4 28  1  0  0  0  0
  5  6  1  0  0  0  0
  5  7  1  0  0  0  0
  6 29  1  0  0  0  0
  7 30  1  0  0  0  0
  7 31  1  0  0  0  0
  8 13  2  0  0  0  0
  8  9  1  0  0  0  0
  9 17  2  0  0  0  0
  9 10  1  0  0  0  0
 10 11  1  0  0  0  0
 10 14  2  0  0  0  0
 11 12  1  0  0  0  0
 11 13  1  0  0  0  0
 14 15  1  0  0  0  0
 15 16  2  0  0  0  0
 15 32  1  0  0  0  0
 16 17  1  0  0  0  0
 17 18  1  0  0  0  0
 18 19  1  0  0  0  0
 18 33  1  0  0  0  0
 19 24  2  0  0  0  0
 19 20  1  0  0  0  0
 20 21  2  0  0  0  0
 20 34  1  0  0  0  0
 21 22  1  0  0  0  0
 21 35  1  0  0  0  0
 22 23  2  0  0  0  0
 22 36  1  0  0  0  0
 23 24  1  0  0  0  0
 23 25  1  0  0  0  0
 24 37  1  0  0  0  0
M  END
$$$$
ZINC03815152
  -OEChem-08230709403D

 37 40  0     0  0  0  0  0  0999 V2000
    0.6439   -9.1144    6.7205 C   0  0  0  0  0  0  0  0  0  0  0  0
    0.2571   -8.1807    5.7790 C   0  0  0  0  0  0  0  0  0  0  0  0
    0.7516   -8.2567    4.4833 C   0  0  0  0  0  0  0  0  0  0  0  0
    1.6303   -9.2754    4.1370 C   0  0  0  0  0  0  0  0  0  0  0  0
    2.0172  -10.2035    5.0846 C   0  0  0  0  0  0  0  0  0  0  0  0
    1.5225  -10.1242    6.3748 C   0  0  0  0  0  0  0  0  0  0  0  0
    3.2178  -11.5874    4.6165 Br  0  0  0  0  0  0  0  0  0  0  0  0
    0.3616   -7.3134    3.5283 N   0  0  0  0  0  0  0  0  0  0  0  0
    0.1432   -6.0038    3.9017 C   0  0  0  0  0  0  0  0  0  0  0  0
   -0.3689   -5.0586    2.9765 C   0  0  0  0  0  0  0  0  0  0  0  0
   -0.6709   -5.4095    1.6615 C   0  0  0  0  0  0  0  0  0  0  0  0
   -1.1706   -4.4454    0.7978 C   0  0  0  0  0  0  0  0  0  0  0  0
   -1.5833   -4.4682   -0.6104 C   0  0  0  0  0  0  0  0  0  0  0  0
   -1.9927   -3.2297   -0.9200 C   0  0  0  0  0  0  0  0  0  0  0  0
   -1.8703   -2.4065    0.1688 N   0  0  0  0  0  0  0  0  0  0  0  0
   -1.3730   -3.1168    1.2410 C   0  0  0  0  0  0  0  0  0  0  0  0
   -1.0742   -2.7651    2.5441 C   0  0  0  0  0  0  0  0  0  0  0  0
   -0.5713   -3.7259    3.4233 C   0  0  0  0  0  0  0  0  0  0  0  0
   -0.2693   -3.4227    4.6979 N   0  0  0  0  0  0  0  0  0  0  0  0
    0.2014   -4.3402    5.5069 C   0  0  0  0  0  0  0  0  0  0  0  0
    0.4064   -5.5947    5.1351 N   0  0  0  0  0  0  0  0  0  0  0  0
   -2.2216   -0.9844    0.1919 C   0  0  0  0  0  0  0  0  0  0  0  0
   -0.9894   -0.1582   -0.0728 C   0  0  0  0  0  0  0  0  0  0  0  0
    0.0732   -0.7015   -0.2614 O   0  0  0  0  0  0  0  0  0  0  0  0
    0.2592   -9.0557    7.7280 H   0  0  0  0  0  0  0  0  0  0  0  0
   -0.4291   -7.3920    6.0502 H   0  0  0  0  0  0  0  0  0  0  0  0
    2.0132   -9.3398    3.1292 H   0  0  0  0  0  0  0  0  0  0  0  0
    1.8233  -10.8530    7.1129 H   0  0  0  0  0  0  0  0  0  0  0  0
    0.2444   -7.5800    2.6030 H   0  0  0  0  0  0  0  0  0  0  0  0
   -0.5178   -6.4221    1.3185 H   0  0  0  0  0  0  0  0  0  0  0  0
   -1.5648   -5.3223   -1.2711 H   0  0  0  0  0  0  0  0  0  0  0  0
   -2.3623   -2.9244   -1.8878 H   0  0  0  0  0  0  0  0  0  0  0  0
   -1.2296   -1.7508    2.8809 H   0  0  0  0  0  0  0  0  0  0  0  0
    0.4326   -4.0603    6.5241 H   0  0  0  0  0  0  0  0  0  0  0  0
   -2.6288   -0.7266    1.1696 H   0  0  0  0  0  0  0  0  0  0  0  0
   -2.9671   -0.7817   -0.5770 H   0  0  0  0  0  0  0  0  0  0  0  0
   -1.0724    1.1813   -0.0990 O   0  5  0  0  0  0  0  0  0  0  0  0
  1  6  2  0  0  0  0
  1  2  1  0  0  0  0
  1 25  1  0  0  0  0
  2  3  2  0  0  0  0
  2 26  1  0  0  0  0
  3  4  1  0  0  0  0
  3  8  1  0  0  0  0
  4  5  2  0  0  0  0
  4 27  1  0  0  0  0
  5  6  1  0  0  0  0
  5  7  1  0  0  0  0
  6 28  1  0  0  0  0
  8  9  1  0  0  0  0
  8 29  1  0  0  0  0
  9 21  2  0  0  0  0
  9 10  1  0  0  0  0
 10 18  2  0  0  0  0
 10 11  1  0  0  0  0
 11 12  2  0  0  0  0
 11 30  1  0  0  0  0
 12 16  1  0  0  0  0
 12 13  1  0  0  0  0
 13 14  2  0  0  0  0
 13 31  1  0  0  0  0
 14 15  1  0  0  0  0
 14 32  1  0  0  0  0
 15 16  1  0  0  0  0
 15 22  1  0  0  0  0
 16 17  2  0  0  0  0
 17 18  1  0  0  0  0
 17 33  1  0  0  0  0
 18 19  1  0  0  0  0
 19 20  2  0  0  0  0
 20 21  1  0  0  0  0
 20 34  1  0  0  0  0
 22 23  1  0  0  0  0
 22 35  1  0  0  0  0
 22 36  1  0  0  0  0
 23 24  2  0  0  0  0
 23 37  1  0  0  0  0
M  CHG  1  37  -1
M  END
$$$$
ZINC03815153
  -OEChem-08230709403D

 56 59  0     0  0  0  0  0  0999 V2000
    2.1576    5.6966    0.3943 C   0  0  0  0  0  0  0  0  0  0  0  0
    2.2602    4.3225    0.4909 C   0  0  0  0  0  0  0  0  0  0  0  0
    3.3215    3.6622   -0.1146 C   0  0  0  0  0  0  0  0  0  0  0  0
    4.2799    4.3869   -0.8116 C   0  0  0  0  0  0  0  0  0  0  0  0
    4.1693    5.7608   -0.9084 C   0  0  0  0  0  0  0  0  0  0  0  0
    3.1101    6.4152   -0.3040 C   0  0  0  0  0  0  0  0  0  0  0  0
    5.4699    6.7485   -1.8618 Br  0  0  0  0  0  0  0  0  0  0  0  0
    3.4281    2.2717   -0.0180 N   0  0  0  0  0  0  0  0  0  0  0  0
    2.2914    1.4919   -0.0148 C   0  0  0  0  0  0  0  0  0  0  0  0
    2.3670    0.0967    0.2030 C   0  0  0  0  0  0  0  0  0  0  0  0
    3.5749   -0.5691    0.4254 C   0  0  0  0  0  0  0  0  0  0  0  0
    2.4714   -2.6007    0.6198 C   0  0  0  0  0  0  0  0  0  0  0  0
    1.2297   -2.0296    0.4088 C   0  0  0  0  0  0  0  0  0  0  0  0
    1.1579   -0.6486    0.1936 C   0  0  0  0  0  0  0  0  0  0  0  0
    0.0031   -0.0057   -0.0199 N   0  0  0  0  0  0  0  0  0  0  0  0
   -0.0055    1.2929   -0.2168 C   0  0  0  0  0  0  0  0  0  0  0  0
    1.0938    2.0290   -0.2171 N   0  0  0  0  0  0  0  0  0  0  0  0
    2.5604   -3.9699    0.8350 N   0  0  0  0  0  0  0  0  0  0  0  0
    1.3474   -4.7915    0.8366 C   0  0  0  0  0  0  0  0  0  0  0  0
    1.7214   -6.2525    1.0942 C   0  0  0  0  0  0  0  0  0  0  0  0
    0.4547   -7.1106    1.0959 C   0  0  0  0  0  0  0  0  0  0  0  0
    0.8287   -8.5716    1.3536 C   0  0  0  0  0  0  0  0  0  0  0  0
   -1.2521   -9.0564    2.4949 C   0  0  0  0  0  0  0  0  0  0  0  0
   -2.5318   -9.8938    2.4247 C   0  0  0  0  0  0  0  0  0  0  0  0
   -2.1868  -11.2815    2.4009 O   0  0  0  0  0  0  0  0  0  0  0  0
   -1.3458  -11.6469    1.3033 C   0  0  0  0  0  0  0  0  0  0  0  0
   -0.0541  -10.8272    1.3622 C   0  0  0  0  0  0  0  0  0  0  0  0
    1.3324    6.2103    0.8651 H   0  0  0  0  0  0  0  0  0  0  0  0
    1.5156    3.7620    1.0367 H   0  0  0  0  0  0  0  0  0  0  0  0
    5.1086    3.8769   -1.2801 H   0  0  0  0  0  0  0  0  0  0  0  0
    3.0277    7.4896   -0.3777 H   0  0  0  0  0  0  0  0  0  0  0  0
    4.3020    1.8556    0.0467 H   0  0  0  0  0  0  0  0  0  0  0  0
    4.5023   -0.0157    0.4358 H   0  0  0  0  0  0  0  0  0  0  0  0
    0.3358   -2.6356    0.4097 H   0  0  0  0  0  0  0  0  0  0  0  0
   -0.9528    1.7814   -0.3908 H   0  0  0  0  0  0  0  0  0  0  0  0
    3.4256   -4.3822    0.9842 H   0  0  0  0  0  0  0  0  0  0  0  0
    0.6748   -4.4448    1.6211 H   0  0  0  0  0  0  0  0  0  0  0  0
    0.8511   -4.7086   -0.1303 H   0  0  0  0  0  0  0  0  0  0  0  0
    2.3940   -6.5992    0.3097 H   0  0  0  0  0  0  0  0  0  0  0  0
    2.2177   -6.3354    2.0612 H   0  0  0  0  0  0  0  0  0  0  0  0
   -0.2180   -6.7639    1.8805 H   0  0  0  0  0  0  0  0  0  0  0  0
   -0.0416   -7.0276    0.1290 H   0  0  0  0  0  0  0  0  0  0  0  0
    1.5013   -8.9183    0.5691 H   0  0  0  0  0  0  0  0  0  0  0  0
    1.3249   -8.6545    2.3205 H   0  0  0  0  0  0  0  0  0  0  0  0
   -0.7275   -9.2707    3.4261 H   0  0  0  0  0  0  0  0  0  0  0  0
   -1.5074   -7.9974    2.4557 H   0  0  0  0  0  0  0  0  0  0  0  0
   -3.0834   -9.6403    1.5194 H   0  0  0  0  0  0  0  0  0  0  0  0
   -3.1502   -9.6874    3.2982 H   0  0  0  0  0  0  0  0  0  0  0  0
   -1.8629  -11.4443    0.3654 H   0  0  0  0  0  0  0  0  0  0  0  0
   -1.1065  -12.7084    1.3658 H   0  0  0  0  0  0  0  0  0  0  0  0
    0.5651  -11.0609    0.4961 H   0  0  0  0  0  0  0  0  0  0  0  0
    0.4896  -11.0698    2.2752 H   0  0  0  0  0  0  0  0  0  0  0  0
    3.6579   -1.9077    0.6354 N   0  3  0  0  0  0  0  0  0  0  0  0
    4.5572   -2.3762    0.7969 H   0  0  0  0  0  0  0  0  0  0  0  0
   -0.4022   -9.3913    1.3327 N   0  3  0  0  0  0  0  0  0  0  0  0
   -0.9218   -9.1911    0.4700 H   0  0  0  0  0  0  0  0  0  0  0  0
  1  6  2  0  0  0  0
  1  2  1  0  0  0  0
  1 28  1  0  0  0  0
  2  3  2  0  0  0  0
  2 29  1  0  0  0  0
  3  4  1  0  0  0  0
  3  8  1  0  0  0  0
  4  5  2  0  0  0  0
  4 30  1  0  0  0  0
  5  6  1  0  0  0  0
  5  7  1  0  0  0  0
  6 31  1  0  0  0  0
  8  9  1  0  0  0  0
  8 32  1  0  0  0  0
  9 17  2  0  0  0  0
  9 10  1  0  0  0  0
 10 14  2  0  0  0  0
 10 11  1  0  0  0  0
 11 33  1  0  0  0  0
 11 53  2  0  0  0  0
 12 13  2  0  0  0  0
 12 18  1  0  0  0  0
 12 53  1  0  0  0  0
 13 14  1  0  0  0  0
 13 34  1  0  0  0  0
 14 15  1  0  0  0  0
 15 16  2  0  0  0  0
 16 17  1  0  0  0  0
 16 35  1  0  0  0  0
 18 19  1  0  0  0  0
 18 36  1  0  0  0  0
 19 20  1  0  0  0  0
 19 37  1  0  0  0  0
 19 38  1  0  0  0  0
 20 21  1  0  0  0  0
 20 39  1  0  0  0  0
 20 40  1  0  0  0  0
 21 22  1  0  0  0  0
 21 41  1  0  0  0  0
 21 42  1  0  0  0  0
 22 43  1  0  0  0  0
 22 44  1  0  0  0  0
 22 55  1  0  0  0  0
 23 24  1  0  0  0  0
 23 45  1  0  0  0  0
 23 46  1  0  0  0  0
 23 55  1  0  0  0  0
 24 25  1  0  0  0  0
 24 47  1  0  0  0  0
 24 48  1  0  0  0  0
 25 26  1  0  0  0  0
 26 27  1  0  0  0  0
 26 49  1  0  0  0  0
 26 50  1  0  0  0  0
 27 51  1  0  0  0  0
 27 52  1  0  0  0  0
 27 55  1  0  0  0  0
 53 54  1  0  0  0  0
 55 56  1  0  0  0  0
M  CHG  2  53   1  55   1
M  END
$$$$
ZINC03815154
  -OEChem-08230709403D

 54 56  0     0  0  0  0  0  0999 V2000
   -1.9876    0.9754   -1.4828 C   0  0  0  0  0  0  0  0  0  0  0  0
   -0.9700    1.7492   -0.6848 C   0  0  0  0  0  0  0  0  0  0  0  0
   -0.0172    1.0758    0.0579 C   0  0  0  0  0  0  0  0  0  0  0  0
    0.9217    1.7819    0.7869 C   0  0  0  0  0  0  0  0  0  0  0  0
    0.9074    3.1631    0.7801 C   0  0  0  0  0  0  0  0  0  0  0  0
   -0.0515    3.8425    0.0400 C   0  0  0  0  0  0  0  0  0  0  0  0
   -0.9935    3.1299   -0.6914 C   0  0  0  0  0  0  0  0  0  0  0  0
   -0.0691    5.2402    0.0313 N   0  0  0  0  0  0  0  0  0  0  0  0
    1.1117    5.9450    0.1283 C   0  0  0  0  0  0  0  0  0  0  0  0
    1.1105    7.3549    0.2380 C   0  0  0  0  0  0  0  0  0  0  0  0
   -0.0649    8.1095    0.2667 C   0  0  0  0  0  0  0  0  0  0  0  0
    1.1493   10.0761    0.4689 C   0  0  0  0  0  0  0  0  0  0  0  0
    2.3633    9.4141    0.4546 C   0  0  0  0  0  0  0  0  0  0  0  0
    2.3618    8.0193    0.3396 C   0  0  0  0  0  0  0  0  0  0  0  0
    3.4849    7.2909    0.3171 N   0  0  0  0  0  0  0  0  0  0  0  0
    3.4244    5.9834    0.2078 C   0  0  0  0  0  0  0  0  0  0  0  0
    2.2834    5.3200    0.1159 N   0  0  0  0  0  0  0  0  0  0  0  0
    1.1330   11.4602    0.5829 N   0  0  0  0  0  0  0  0  0  0  0  0
    2.3924   12.2016    0.6862 C   0  0  0  0  0  0  0  0  0  0  0  0
    2.0954   13.6981    0.8001 C   0  0  0  0  0  0  0  0  0  0  0  0
    3.4106   14.4724    0.9079 C   0  0  0  0  0  0  0  0  0  0  0  0
    3.1136   15.9689    1.0219 C   0  0  0  0  0  0  0  0  0  0  0  0
    5.1543   16.6039   -0.1159 C   0  0  0  0  0  0  0  0  0  0  0  0
    4.1324   18.1186    1.4728 C   0  0  0  0  0  0  0  0  0  0  0  0
   -2.8658    0.7862   -0.8656 H   0  0  0  0  0  0  0  0  0  0  0  0
   -2.2777    1.5538   -2.3600 H   0  0  0  0  0  0  0  0  0  0  0  0
   -1.5552    0.0264   -1.8001 H   0  0  0  0  0  0  0  0  0  0  0  0
   -0.0039   -0.0041    0.0648 H   0  0  0  0  0  0  0  0  0  0  0  0
    1.6673    1.2530    1.3619 H   0  0  0  0  0  0  0  0  0  0  0  0
    1.6409    3.7141    1.3501 H   0  0  0  0  0  0  0  0  0  0  0  0
   -1.7403    3.6551   -1.2683 H   0  0  0  0  0  0  0  0  0  0  0  0
   -0.9121    5.7142   -0.0430 H   0  0  0  0  0  0  0  0  0  0  0  0
   -1.0238    7.6180    0.1945 H   0  0  0  0  0  0  0  0  0  0  0  0
    3.2915    9.9610    0.5300 H   0  0  0  0  0  0  0  0  0  0  0  0
    4.3482    5.4242    0.1926 H   0  0  0  0  0  0  0  0  0  0  0  0
    0.2878   11.9360    0.5942 H   0  0  0  0  0  0  0  0  0  0  0  0
    2.9372   11.8709    1.5704 H   0  0  0  0  0  0  0  0  0  0  0  0
    2.9962   12.0176   -0.2025 H   0  0  0  0  0  0  0  0  0  0  0  0
    1.5505   14.0288   -0.0842 H   0  0  0  0  0  0  0  0  0  0  0  0
    1.4916   13.8821    1.6888 H   0  0  0  0  0  0  0  0  0  0  0  0
    3.9554   14.1417    1.7922 H   0  0  0  0  0  0  0  0  0  0  0  0
    4.0144   14.2884    0.0193 H   0  0  0  0  0  0  0  0  0  0  0  0
    2.5687   16.2996    0.1376 H   0  0  0  0  0  0  0  0  0  0  0  0
    2.5098   16.1529    1.9105 H   0  0  0  0  0  0  0  0  0  0  0  0
    4.5754   17.0121   -0.9444 H   0  0  0  0  0  0  0  0  0  0  0  0
    6.0841   17.1633   -0.0121 H   0  0  0  0  0  0  0  0  0  0  0  0
    5.3808   15.5560   -0.3125 H   0  0  0  0  0  0  0  0  0  0  0  0
    3.6159   18.1719    2.4312 H   0  0  0  0  0  0  0  0  0  0  0  0
    5.0838   18.6458    1.5430 H   0  0  0  0  0  0  0  0  0  0  0  0
    3.5164   18.5817    0.7019 H   0  0  0  0  0  0  0  0  0  0  0  0
   -0.0768    9.4624    0.3778 N   0  3  0  0  0  0  0  0  0  0  0  0
   -0.9531    9.9973    0.3930 H   0  0  0  0  0  0  0  0  0  0  0  0
    4.3918   16.7005    1.1466 N   0  3  0  0  0  0  0  0  0  0  0  0
    4.9443   16.2800    1.9029 H   0  0  0  0  0  0  0  0  0  0  0  0
  1  2  1  0  0  0  0
  1 25  1  0  0  0  0
  1 26  1  0  0  0  0
  1 27  1  0  0  0  0
  2  7  2  0  0  0  0
  2  3  1  0  0  0  0
  3  4  2  0  0  0  0
  3 28  1  0  0  0  0
  4  5  1  0  0  0  0
  4 29  1  0  0  0  0
  5  6  2  0  0  0  0
  5 30  1  0  0  0  0
  6  7  1  0  0  0  0
  6  8  1  0  0  0  0
  7 31  1  0  0  0  0
  8  9  1  0  0  0  0
  8 32  1  0  0  0  0
  9 17  2  0  0  0  0
  9 10  1  0  0  0  0
 10 14  2  0  0  0  0
 10 11  1  0  0  0  0
 11 33  1  0  0  0  0
 11 51  2  0  0  0  0
 12 13  2  0  0  0  0
 12 18  1  0  0  0  0
 12 51  1  0  0  0  0
 13 14  1  0  0  0  0
 13 34  1  0  0  0  0
 14 15  1  0  0  0  0
 15 16  2  0  0  0  0
 16 17  1  0  0  0  0
 16 35  1  0  0  0  0
 18 19  1  0  0  0  0
 18 36  1  0  0  0  0
 19 20  1  0  0  0  0
 19 37  1  0  0  0  0
 19 38  1  0  0  0  0
 20 21  1  0  0  0  0
 20 39  1  0  0  0  0
 20 40  1  0  0  0  0
 21 22  1  0  0  0  0
 21 41  1  0  0  0  0
 21 42  1  0  0  0  0
 22 43  1  0  0  0  0
 22 44  1  0  0  0  0
 22 53  1  0  0  0  0
 23 45  1  0  0  0  0
 23 46  1  0  0  0  0
 23 47  1  0  0  0  0
 23 53  1  0  0  0  0
 24 48  1  0  0  0  0
 24 49  1  0  0  0  0
 24 50  1  0  0  0  0
 24 53  1  0  0  0  0
 51 52  1  0  0  0  0
 53 54  1  0  0  0  0
M  CHG  2  51   1  53   1
M  END
$$$$
ZINC03815155
  -OEChem-08230709403D

 61 64  0     0  0  0  0  0  0999 V2000
   -1.9876    0.9754   -1.4828 C   0  0  0  0  0  0  0  0  0  0  0  0
   -0.9700    1.7492   -0.6848 C   0  0  0  0  0  0  0  0  0  0  0  0
   -0.0172    1.0758    0.0579 C   0  0  0  0  0  0  0  0  0  0  0  0
    0.9217    1.7819    0.7869 C   0  0  0  0  0  0  0  0  0  0  0  0
    0.9074    3.1631    0.7801 C   0  0  0  0  0  0  0  0  0  0  0  0
   -0.0515    3.8425    0.0400 C   0  0  0  0  0  0  0  0  0  0  0  0
   -0.9935    3.1299   -0.6914 C   0  0  0  0  0  0  0  0  0  0  0  0
   -0.0691    5.2402    0.0313 N   0  0  0  0  0  0  0  0  0  0  0  0
    1.1117    5.9450    0.1283 C   0  0  0  0  0  0  0  0  0  0  0  0
    1.1105    7.3549    0.2380 C   0  0  0  0  0  0  0  0  0  0  0  0
   -0.0649    8.1095    0.2667 C   0  0  0  0  0  0  0  0  0  0  0  0
    1.1493   10.0761    0.4689 C   0  0  0  0  0  0  0  0  0  0  0  0
    2.3633    9.4141    0.4546 C   0  0  0  0  0  0  0  0  0  0  0  0
    2.3618    8.0193    0.3396 C   0  0  0  0  0  0  0  0  0  0  0  0
    3.4849    7.2909    0.3171 N   0  0  0  0  0  0  0  0  0  0  0  0
    3.4244    5.9834    0.2078 C   0  0  0  0  0  0  0  0  0  0  0  0
    2.2834    5.3200    0.1159 N   0  0  0  0  0  0  0  0  0  0  0  0
    1.1330   11.4602    0.5829 N   0  0  0  0  0  0  0  0  0  0  0  0
    2.3924   12.2016    0.6862 C   0  0  0  0  0  0  0  0  0  0  0  0
    2.0954   13.6981    0.8001 C   0  0  0  0  0  0  0  0  0  0  0  0
    3.4106   14.4724    0.9079 C   0  0  0  0  0  0  0  0  0  0  0  0
    2.5220   16.4222   -0.2206 C   0  0  0  0  0  0  0  0  0  0  0  0
    2.1679   17.8999   -0.0381 C   0  0  0  0  0  0  0  0  0  0  0  0
    3.9858   18.1405    1.5417 C   0  0  0  0  0  0  0  0  0  0  0  0
    4.3399   16.6627    1.3593 C   0  0  0  0  0  0  0  0  0  0  0  0
    3.0972   20.0903    0.4132 C   0  0  0  0  0  0  0  0  0  0  0  0
   -2.8658    0.7862   -0.8656 H   0  0  0  0  0  0  0  0  0  0  0  0
   -2.2777    1.5538   -2.3600 H   0  0  0  0  0  0  0  0  0  0  0  0
   -1.5552    0.0264   -1.8001 H   0  0  0  0  0  0  0  0  0  0  0  0
   -0.0039   -0.0041    0.0648 H   0  0  0  0  0  0  0  0  0  0  0  0
    1.6673    1.2530    1.3619 H   0  0  0  0  0  0  0  0  0  0  0  0
    1.6409    3.7141    1.3501 H   0  0  0  0  0  0  0  0  0  0  0  0
   -1.7403    3.6551   -1.2683 H   0  0  0  0  0  0  0  0  0  0  0  0
   -0.9121    5.7142   -0.0430 H   0  0  0  0  0  0  0  0  0  0  0  0
   -1.0238    7.6180    0.1945 H   0  0  0  0  0  0  0  0  0  0  0  0
    3.2915    9.9610    0.5300 H   0  0  0  0  0  0  0  0  0  0  0  0
    4.3482    5.4242    0.1926 H   0  0  0  0  0  0  0  0  0  0  0  0
    0.2878   11.9360    0.5942 H   0  0  0  0  0  0  0  0  0  0  0  0
    2.9372   11.8709    1.5704 H   0  0  0  0  0  0  0  0  0  0  0  0
    2.9962   12.0176   -0.2025 H   0  0  0  0  0  0  0  0  0  0  0  0
    1.5505   14.0288   -0.0842 H   0  0  0  0  0  0  0  0  0  0  0  0
    1.4916   13.8821    1.6888 H   0  0  0  0  0  0  0  0  0  0  0  0
    3.9554   14.1417    1.7922 H   0  0  0  0  0  0  0  0  0  0  0  0
    4.0144   14.2884    0.0193 H   0  0  0  0  0  0  0  0  0  0  0  0
    3.2311   16.3168   -1.0416 H   0  0  0  0  0  0  0  0  0  0  0  0
    1.6177   15.8567   -0.4458 H   0  0  0  0  0  0  0  0  0  0  0  0
    1.4381   18.0026    0.7650 H   0  0  0  0  0  0  0  0  0  0  0  0
    1.7467   18.2900   -0.9647 H   0  0  0  0  0  0  0  0  0  0  0  0
    3.2767   18.2458    2.3628 H   0  0  0  0  0  0  0  0  0  0  0  0
    4.8900   18.7059    1.7673 H   0  0  0  0  0  0  0  0  0  0  0  0
    4.7611   16.2726    2.2859 H   0  0  0  0  0  0  0  0  0  0  0  0
    5.0697   16.5601    0.5562 H   0  0  0  0  0  0  0  0  0  0  0  0
    4.0246   20.6315    0.6003 H   0  0  0  0  0  0  0  0  0  0  0  0
    2.6513   20.4440   -0.5164 H   0  0  0  0  0  0  0  0  0  0  0  0
    2.4041   20.2614    1.2369 H   0  0  0  0  0  0  0  0  0  0  0  0
   -0.0768    9.4624    0.3778 N   0  3  0  0  0  0  0  0  0  0  0  0
   -0.9531    9.9973    0.3930 H   0  0  0  0  0  0  0  0  0  0  0  0
    3.1071   15.9136    1.0380 N   0  3  0  0  0  0  0  0  0  0  0  0
    2.4293   16.0445    1.7980 H   0  0  0  0  0  0  0  0  0  0  0  0
    3.4009   18.6491    0.2833 N   0  3  0  0  0  0  0  0  0  0  0  0
    4.0788   18.5182   -0.4767 H   0  0  0  0  0  0  0  0  0  0  0  0
  1  2  1  0  0  0  0
  1 27  1  0  0  0  0
  1 28  1  0  0  0  0
  1 29  1  0  0  0  0
  2  7  2  0  0  0  0
  2  3  1  0  0  0  0
  3  4  2  0  0  0  0
  3 30  1  0  0  0  0
  4  5  1  0  0  0  0
  4 31  1  0  0  0  0
  5  6  2  0  0  0  0
  5 32  1  0  0  0  0
  6  7  1  0  0  0  0
  6  8  1  0  0  0  0
  7 33  1  0  0  0  0
  8  9  1  0  0  0  0
  8 34  1  0  0  0  0
  9 17  2  0  0  0  0
  9 10  1  0  0  0  0
 10 14  2  0  0  0  0
 10 11  1  0  0  0  0
 11 35  1  0  0  0  0
 11 56  2  0  0  0  0
 12 13  2  0  0  0  0
 12 18  1  0  0  0  0
 12 56  1  0  0  0  0
 13 14  1  0  0  0  0
 13 36  1  0  0  0  0
 14 15  1  0  0  0  0
 15 16  2  0  0  0  0
 16 17  1  0  0  0  0
 16 37  1  0  0  0  0
 18 19  1  0  0  0  0
 18 38  1  0  0  0  0
 19 20  1  0  0  0  0
 19 39  1  0  0  0  0
 19 40  1  0  0  0  0
 20 21  1  0  0  0  0
 20 41  1  0  0  0  0
 20 42  1  0  0  0  0
 21 43  1  0  0  0  0
 21 44  1  0  0  0  0
 21 58  1  0  0  0  0
 22 23  1  0  0  0  0
 22 45  1  0  0  0  0
 22 46  1  0  0  0  0
 22 58  1  0  0  0  0
 23 47  1  0  0  0  0
 23 48  1  0  0  0  0
 23 60  1  0  0  0  0
 24 25  1  0  0  0  0
 24 49  1  0  0  0  0
 24 50  1  0  0  0  0
 24 60  1  0  0  0  0
 25 51  1  0  0  0  0
 25 52  1  0  0  0  0
 25 58  1  0  0  0  0
 26 53  1  0  0  0  0
 26 54  1  0  0  0  0
 26 55  1  0  0  0  0
 26 60  1  0  0  0  0
 56 57  1  0  0  0  0
 58 59  1  0  0  0  0
 60 61  1  0  0  0  0
M  CHG  3  56   1  58   1  60   1
M  END
$$$$
ZINC03815156
  -OEChem-08230709403D

 32 35  0     0  0  0  0  0  0999 V2000
   -4.7048    1.4963    0.4458 C   0  0  0  0  0  0  0  0  0  0  0  0
   -5.5620    0.4094    0.5239 C   0  0  0  0  0  0  0  0  0  0  0  0
   -5.0688   -0.8768    0.4758 C   0  0  0  0  0  0  0  0  0  0  0  0
   -3.7011   -1.0942    0.3471 C   0  0  0  0  0  0  0  0  0  0  0  0
   -2.8341    0.0070    0.2682 C   0  0  0  0  0  0  0  0  0  0  0  0
   -3.3465    1.3015    0.3185 C   0  0  0  0  0  0  0  0  0  0  0  0
   -1.4765   -0.5457    0.1457 C   0  0  0  0  0  0  0  0  0  0  0  0
   -1.6105   -1.9433    0.1502 C   0  0  0  0  0  0  0  0  0  0  0  0
   -2.9430   -2.2510    0.2740 N   0  0  0  0  0  0  0  0  0  0  0  0
   -3.3026   -3.1513    0.3058 H   0  0  0  0  0  0  0  0  0  0  0  0
   -0.5094   -2.6868    0.0466 N   0  0  0  0  0  0  0  0  0  0  0  0
    0.6760   -2.1250   -0.0623 C   0  0  0  0  0  0  0  0  0  0  0  0
    0.8442   -0.8167   -0.0752 N   0  0  0  0  0  0  0  0  0  0  0  0
   -0.1966    0.0076    0.0229 C   0  0  0  0  0  0  0  0  0  0  0  0
   -0.0167    1.3803    0.0096 N   0  0  0  0  0  0  0  0  0  0  0  0
    1.2506    1.9167   -0.2352 C   0  0  0  0  0  0  0  0  0  0  0  0
    2.1139    1.2860   -1.1226 C   0  0  0  0  0  0  0  0  0  0  0  0
    3.3654    1.8180   -1.3627 C   0  0  0  0  0  0  0  0  0  0  0  0
    3.7605    2.9775   -0.7210 C   0  0  0  0  0  0  0  0  0  0  0  0
    2.9036    3.6087    0.1635 C   0  0  0  0  0  0  0  0  0  0  0  0
    1.6473    3.0841    0.4037 C   0  0  0  0  0  0  0  0  0  0  0  0
    3.4037    5.0644    0.9663 Cl  0  0  0  0  0  0  0  0  0  0  0  0
   -5.1031    2.4994    0.4846 H   0  0  0  0  0  0  0  0  0  0  0  0
   -6.6251    0.5719    0.6232 H   0  0  0  0  0  0  0  0  0  0  0  0
   -5.7451   -1.7166    0.5370 H   0  0  0  0  0  0  0  0  0  0  0  0
   -2.6811    2.1500    0.2583 H   0  0  0  0  0  0  0  0  0  0  0  0
    1.5454   -2.7605   -0.1442 H   0  0  0  0  0  0  0  0  0  0  0  0
   -0.7709    1.9698    0.1663 H   0  0  0  0  0  0  0  0  0  0  0  0
    1.8065    0.3802   -1.6240 H   0  0  0  0  0  0  0  0  0  0  0  0
    4.0363    1.3280   -2.0527 H   0  0  0  0  0  0  0  0  0  0  0  0
    4.7397    3.3916   -0.9109 H   0  0  0  0  0  0  0  0  0  0  0  0
    0.9768    3.5793    1.0904 H   0  0  0  0  0  0  0  0  0  0  0  0
  1  6  2  0  0  0  0
  1  2  1  0  0  0  0
  1 23  1  0  0  0  0
  2  3  2  0  0  0  0
  2 24  1  0  0  0  0
  3  4  1  0  0  0  0
  3 25  1  0  0  0  0
  4  9  1  0  0  0  0
  4  5  2  0  0  0  0
  5  6  1  0  0  0  0
  5  7  1  0  0  0  0
  6 26  1  0  0  0  0
  7 14  2  0  0  0  0
  7  8  1  0  0  0  0
  8  9  1  0  0  0  0
  8 11  2  0  0  0  0
  9 10  1  0  0  0  0
 11 12  1  0  0  0  0
 12 13  2  0  0  0  0
 12 27  1  0  0  0  0
 13 14  1  0  0  0  0
 14 15  1  0  0  0  0
 15 16  1  0  0  0  0
 15 28  1  0  0  0  0
 16 21  2  0  0  0  0
 16 17  1  0  0  0  0
 17 18  2  0  0  0  0
 17 29  1  0  0  0  0
 18 19  1  0  0  0  0
 18 30  1  0  0  0  0
 19 20  2  0  0  0  0
 19 31  1  0  0  0  0
 20 21  1  0  0  0  0
 20 22  1  0  0  0  0
 21 32  1  0  0  0  0
M  END
$$$$
ZINC03815157
  -OEChem-08230709403D

 46 49  0     0  0  0  0  0  0999 V2000
    0.6581    5.2570   -1.6094 C   0  0  0  0  0  0  0  0  0  0  0  0
    1.3481    3.4024   -0.2133 C   0  0  0  0  0  0  0  0  0  0  0  0
    1.3960    1.8752   -0.1239 C   0  0  0  0  0  0  0  0  0  0  0  0
    0.0267    1.3423   -0.1525 N   0  0  0  0  0  0  0  0  0  0  0  0
   -0.6632    1.7366   -1.3886 C   0  0  0  0  0  0  0  0  0  0  0  0
   -0.7111    3.2638   -1.4780 C   0  0  0  0  0  0  0  0  0  0  0  0
    0.0268   -0.0422   -0.0008 C   0  0  0  0  0  0  0  0  0  0  0  0
   -1.1783   -0.7242   -0.0026 C   0  0  0  0  0  0  0  0  0  0  0  0
   -1.1543   -2.1117    0.1504 C   0  0  0  0  0  0  0  0  0  0  0  0
    0.0981   -2.7613    0.3006 C   0  0  0  0  0  0  0  0  0  0  0  0
    1.2629   -1.9840    0.2894 C   0  0  0  0  0  0  0  0  0  0  0  0
    0.1139   -4.0931    0.4465 N   0  0  0  0  0  0  0  0  0  0  0  0
   -0.9996   -4.7831    0.4510 C   0  0  0  0  0  0  0  0  0  0  0  0
   -2.2015   -4.2451    0.3166 N   0  0  0  0  0  0  0  0  0  0  0  0
   -2.3593   -2.9354    0.1636 C   0  0  0  0  0  0  0  0  0  0  0  0
   -3.6125   -2.3755    0.0236 N   0  0  0  0  0  0  0  0  0  0  0  0
   -4.7383   -3.1979   -0.0761 C   0  0  0  0  0  0  0  0  0  0  0  0
   -5.9572   -2.7751    0.4398 C   0  0  0  0  0  0  0  0  0  0  0  0
   -7.0678   -3.5895    0.3394 C   0  0  0  0  0  0  0  0  0  0  0  0
   -6.9683   -4.8250   -0.2738 C   0  0  0  0  0  0  0  0  0  0  0  0
   -5.7564   -5.2493   -0.7891 C   0  0  0  0  0  0  0  0  0  0  0  0
   -4.6422   -4.4368   -0.6961 C   0  0  0  0  0  0  0  0  0  0  0  0
   -5.6259   -6.9394   -1.6271 Br  0  0  0  0  0  0  0  0  0  0  0  0
    1.6858    5.6178   -1.6524 H   0  0  0  0  0  0  0  0  0  0  0  0
    0.1413    5.5214   -2.5320 H   0  0  0  0  0  0  0  0  0  0  0  0
    0.1472    5.7152   -0.7626 H   0  0  0  0  0  0  0  0  0  0  0  0
    0.8093    3.8002    0.6466 H   0  0  0  0  0  0  0  0  0  0  0  0
    2.3636    3.7982   -0.2211 H   0  0  0  0  0  0  0  0  0  0  0  0
    1.8816    1.5804    0.8063 H   0  0  0  0  0  0  0  0  0  0  0  0
    1.9582    1.4786   -0.9693 H   0  0  0  0  0  0  0  0  0  0  0  0
   -0.1244    1.3387   -2.2486 H   0  0  0  0  0  0  0  0  0  0  0  0
   -1.6787    1.3408   -1.3804 H   0  0  0  0  0  0  0  0  0  0  0  0
   -1.2732    3.6601   -0.6324 H   0  0  0  0  0  0  0  0  0  0  0  0
   -1.1969    3.5589   -2.4081 H   0  0  0  0  0  0  0  0  0  0  0  0
   -2.1131   -0.1962   -0.1197 H   0  0  0  0  0  0  0  0  0  0  0  0
    2.2277   -2.4561    0.4021 H   0  0  0  0  0  0  0  0  0  0  0  0
   -0.9331   -5.8543    0.5718 H   0  0  0  0  0  0  0  0  0  0  0  0
   -3.7123   -1.4111   -0.0056 H   0  0  0  0  0  0  0  0  0  0  0  0
   -6.0358   -1.8105    0.9191 H   0  0  0  0  0  0  0  0  0  0  0  0
   -8.0154   -3.2609    0.7400 H   0  0  0  0  0  0  0  0  0  0  0  0
   -7.8386   -5.4600   -0.3509 H   0  0  0  0  0  0  0  0  0  0  0  0
   -3.6971   -4.7666   -1.1017 H   0  0  0  0  0  0  0  0  0  0  0  0
    0.6721    3.7851   -1.4707 N   0  3  0  0  0  0  0  0  0  0  0  0
    1.1856    3.3802   -2.2623 H   0  0  0  0  0  0  0  0  0  0  0  0
    1.2570   -0.6352    0.1359 N   0  3  0  0  0  0  0  0  0  0  0  0
    2.1259   -0.0882    0.1228 H   0  0  0  0  0  0  0  0  0  0  0  0
  1 24  1  0  0  0  0
  1 25  1  0  0  0  0
  1 26  1  0  0  0  0
  1 43  1  0  0  0  0
  2  3  1  0  0  0  0
  2 27  1  0  0  0  0
  2 28  1  0  0  0  0
  2 43  1  0  0  0  0
  3  4  1  0  0  0  0
  3 29  1  0  0  0  0
  3 30  1  0  0  0  0
  4  5  1  0  0  0  0
  4  7  1  0  0  0  0
  5  6  1  0  0  0  0
  5 31  1  0  0  0  0
  5 32  1  0  0  0  0
  6 33  1  0  0  0  0
  6 34  1  0  0  0  0
  6 43  1  0  0  0  0
  7  8  2  0  0  0  0
  7 45  1  0  0  0  0
  8  9  1  0  0  0  0
  8 35  1  0  0  0  0
  9 15  2  0  0  0  0
  9 10  1  0  0  0  0
 10 11  1  0  0  0  0
 10 12  2  0  0  0  0
 11 36  1  0  0  0  0
 11 45  2  0  0  0  0
 12 13  1  0  0  0  0
 13 14  2  0  0  0  0
 13 37  1  0  0  0  0
 14 15  1  0  0  0  0
 15 16  1  0  0  0  0
 16 17  1  0  0  0  0
 16 38  1  0  0  0  0
 17 22  2  0  0  0  0
 17 18  1  0  0  0  0
 18 19  2  0  0  0  0
 18 39  1  0  0  0  0
 19 20  1  0  0  0  0
 19 40  1  0  0  0  0
 20 21  2  0  0  0  0
 20 41  1  0  0  0  0
 21 22  1  0  0  0  0
 21 23  1  0  0  0  0
 22 42  1  0  0  0  0
 43 44  1  0  0  0  0
 45 46  1  0  0  0  0
M  CHG  2  43   1  45   1
M  END
$$$$
ZINC03815158
  -OEChem-08230709403D

 41 44  0     0  0  0  0  0  0999 V2000
    5.9413    3.2594    0.0268 C   0  0  0  0  0  0  0  0  0  0  0  0
    4.7438    4.0386    0.0538 O   0  0  0  0  0  0  0  0  0  0  0  0
    3.5655    3.3599    0.0503 C   0  0  0  0  0  0  0  0  0  0  0  0
    3.5727    1.9942    0.0218 C   0  0  0  0  0  0  0  0  0  0  0  0
    2.3601    1.2945    0.0177 C   0  0  0  0  0  0  0  0  0  0  0  0
    1.1343    2.0049    0.0427 C   0  0  0  0  0  0  0  0  0  0  0  0
    1.1505    3.4046    0.0722 C   0  0  0  0  0  0  0  0  0  0  0  0
    2.3568    4.0695    0.0755 C   0  0  0  0  0  0  0  0  0  0  0  0
    2.3754    5.4275    0.1041 O   0  0  0  0  0  0  0  0  0  0  0  0
    1.1111    6.0933    0.1288 C   0  0  0  0  0  0  0  0  0  0  0  0
   -0.0139    1.3097    0.0387 N   0  0  0  0  0  0  0  0  0  0  0  0
    0.0028   -0.0017    0.0121 C   0  0  0  0  0  0  0  0  0  0  0  0
    1.1224   -0.7070   -0.0124 N   0  0  0  0  0  0  0  0  0  0  0  0
    2.3119   -0.1196   -0.0109 C   0  0  0  0  0  0  0  0  0  0  0  0
    3.4718   -0.8678   -0.0362 N   0  0  0  0  0  0  0  0  0  0  0  0
    3.4074   -2.2577    0.0622 C   0  0  0  0  0  0  0  0  0  0  0  0
    2.3318   -2.8737    0.6684 C   0  0  0  0  0  0  0  0  0  0  0  0
    2.2515   -4.1925    0.7649 N   0  0  0  0  0  0  0  0  0  0  0  0
    3.1817   -4.9981    0.3086 C   0  0  0  0  0  0  0  0  0  0  0  0
    4.3224   -4.4751   -0.3213 C   0  0  0  0  0  0  0  0  0  0  0  0
    4.4446   -3.0677   -0.4511 C   0  0  0  0  0  0  0  0  0  0  0  0
    5.5750   -2.5257   -1.0758 C   0  0  0  0  0  0  0  0  0  0  0  0
    6.5431   -3.3588   -1.5510 C   0  0  0  0  0  0  0  0  0  0  0  0
    6.4255   -4.7415   -1.4243 C   0  0  0  0  0  0  0  0  0  0  0  0
    5.3402   -5.3024   -0.8227 C   0  0  0  0  0  0  0  0  0  0  0  0
    5.9736    2.6122    0.9032 H   0  0  0  0  0  0  0  0  0  0  0  0
    5.9575    2.6493   -0.8763 H   0  0  0  0  0  0  0  0  0  0  0  0
    6.8065    3.9225    0.0328 H   0  0  0  0  0  0  0  0  0  0  0  0
    4.5093    1.4568    0.0029 H   0  0  0  0  0  0  0  0  0  0  0  0
    0.2238    3.9590    0.0913 H   0  0  0  0  0  0  0  0  0  0  0  0
    0.5427    5.8268   -0.7622 H   0  0  0  0  0  0  0  0  0  0  0  0
    0.5577    5.7892    1.0173 H   0  0  0  0  0  0  0  0  0  0  0  0
    1.2687    7.1716    0.1503 H   0  0  0  0  0  0  0  0  0  0  0  0
   -0.9394   -0.5296    0.0096 H   0  0  0  0  0  0  0  0  0  0  0  0
    4.3315   -0.4270   -0.1224 H   0  0  0  0  0  0  0  0  0  0  0  0
    1.5338   -2.2664    1.0693 H   0  0  0  0  0  0  0  0  0  0  0  0
    3.0693   -6.0667    0.4176 H   0  0  0  0  0  0  0  0  0  0  0  0
    5.6788   -1.4558   -1.1797 H   0  0  0  0  0  0  0  0  0  0  0  0
    7.4148   -2.9410   -2.0327 H   0  0  0  0  0  0  0  0  0  0  0  0
    7.2076   -5.3787   -1.8099 H   0  0  0  0  0  0  0  0  0  0  0  0
    5.2627   -6.3758   -0.7321 H   0  0  0  0  0  0  0  0  0  0  0  0
  1  2  1  0  0  0  0
  1 26  1  0  0  0  0
  1 27  1  0  0  0  0
  1 28  1  0  0  0  0
  2  3  1  0  0  0  0
  3  8  2  0  0  0  0
  3  4  1  0  0  0  0
  4  5  2  0  0  0  0
  4 29  1  0  0  0  0
  5 14  1  0  0  0  0
  5  6  1  0  0  0  0
  6  7  2  0  0  0  0
  6 11  1  0  0  0  0
  7  8  1  0  0  0  0
  7 30  1  0  0  0  0
  8  9  1  0  0  0  0
  9 10  1  0  0  0  0
 10 31  1  0  0  0  0
 10 32  1  0  0  0  0
 10 33  1  0  0  0  0
 11 12  2  0  0  0  0
 12 13  1  0  0  0  0
 12 34  1  0  0  0  0
 13 14  2  0  0  0  0
 14 15  1  0  0  0  0
 15 16  1  0  0  0  0
 15 35  1  0  0  0  0
 16 21  2  0  0  0  0
 16 17  1  0  0  0  0
 17 18  2  0  0  0  0
 17 36  1  0  0  0  0
 18 19  1  0  0  0  0
 19 20  2  0  0  0  0
 19 37  1  0  0  0  0
 20 25  1  0  0  0  0
 20 21  1  0  0  0  0
 21 22  1  0  0  0  0
 22 23  2  0  0  0  0
 22 38  1  0  0  0  0
 23 24  1  0  0  0  0
 23 39  1  0  0  0  0
 24 25  2  0  0  0  0
 24 40  1  0  0  0  0
 25 41  1  0  0  0  0
M  END
$$$$
ZINC03815159
  -OEChem-08230709403D

 30 32  0     0  0  0  0  0  0999 V2000
   -6.0209    2.6413    0.3627 C   0  0  0  0  0  0  0  0  0  0  0  0
   -4.8630    3.3880    0.4613 C   0  0  0  0  0  0  0  0  0  0  0  0
   -3.6721    2.8918   -0.0534 C   0  0  0  0  0  0  0  0  0  0  0  0
   -3.6507    1.6477   -0.6711 C   0  0  0  0  0  0  0  0  0  0  0  0
   -4.8112    0.9034   -0.7618 C   0  0  0  0  0  0  0  0  0  0  0  0
   -5.9959    1.4011   -0.2478 C   0  0  0  0  0  0  0  0  0  0  0  0
   -4.7825   -0.7932   -1.5966 Br  0  0  0  0  0  0  0  0  0  0  0  0
   -2.4989    3.6452    0.0450 N   0  0  0  0  0  0  0  0  0  0  0  0
   -1.2816    3.0110    0.1921 C   0  0  0  0  0  0  0  0  0  0  0  0
   -0.0716    3.7467    0.1765 C   0  0  0  0  0  0  0  0  0  0  0  0
   -0.0506    5.1363    0.0142 C   0  0  0  0  0  0  0  0  0  0  0  0
    1.1596    5.7983    0.0079 C   0  0  0  0  0  0  0  0  0  0  0  0
    2.3583    5.0921    0.1618 C   0  0  0  0  0  0  0  0  0  0  0  0
    2.3584    3.7387    0.3211 C   0  0  0  0  0  0  0  0  0  0  0  0
    1.1447    3.0380    0.3318 C   0  0  0  0  0  0  0  0  0  0  0  0
    1.0982    1.7055    0.4863 N   0  0  0  0  0  0  0  0  0  0  0  0
   -0.0525    1.0763    0.4928 C   0  0  0  0  0  0  0  0  0  0  0  0
   -1.2132    1.6955    0.3459 N   0  0  0  0  0  0  0  0  0  0  0  0
    3.8660    5.9526    0.1503 Cl  0  0  0  0  0  0  0  0  0  0  0  0
    1.1891    7.1866   -0.1532 N   0  0  0  0  0  0  0  0  0  0  0  0
   -6.9470    3.0269    0.7628 H   0  0  0  0  0  0  0  0  0  0  0  0
   -4.8836    4.3566    0.9384 H   0  0  0  0  0  0  0  0  0  0  0  0
   -2.7272    1.2611   -1.0762 H   0  0  0  0  0  0  0  0  0  0  0  0
   -6.9028    0.8197   -0.3242 H   0  0  0  0  0  0  0  0  0  0  0  0
   -2.5400    4.6137    0.0099 H   0  0  0  0  0  0  0  0  0  0  0  0
   -0.9730    5.6853   -0.1052 H   0  0  0  0  0  0  0  0  0  0  0  0
    3.2914    3.2076    0.4391 H   0  0  0  0  0  0  0  0  0  0  0  0
   -0.0528    0.0037    0.6193 H   0  0  0  0  0  0  0  0  0  0  0  0
    0.3609    7.6802   -0.2599 H   0  0  0  0  0  0  0  0  0  0  0  0
    2.0378    7.6563   -0.1583 H   0  0  0  0  0  0  0  0  0  0  0  0
  1  6  2  0  0  0  0
  1  2  1  0  0  0  0
  1 21  1  0  0  0  0
  2  3  2  0  0  0  0
  2 22  1  0  0  0  0
  3  4  1  0  0  0  0
  3  8  1  0  0  0  0
  4  5  2  0  0  0  0
  4 23  1  0  0  0  0
  5  6  1  0  0  0  0
  5  7  1  0  0  0  0
  6 24  1  0  0  0  0
  8  9  1  0  0  0  0
  8 25  1  0  0  0  0
  9 18  2  0  0  0  0
  9 10  1  0  0  0  0
 10 15  2  0  0  0  0
 10 11  1  0  0  0  0
 11 12  2  0  0  0  0
 11 26  1  0  0  0  0
 12 13  1  0  0  0  0
 12 20  1  0  0  0  0
 13 14  2  0  0  0  0
 13 19  1  0  0  0  0
 14 15  1  0  0  0  0
 14 27  1  0  0  0  0
 15 16  1  0  0  0  0
 16 17  2  0  0  0  0
 17 18  1  0  0  0  0
 17 28  1  0  0  0  0
 20 29  1  0  0  0  0
 20 30  1  0  0  0  0
M  END
$$$$
ZINC03815160
  -OEChem-08230709403D

 40 43  0     0  0  0  0  0  0999 V2000
   -5.7897    4.7992    0.6069 C   0  0  0  0  0  0  0  0  0  0  0  0
   -5.0484    4.8470    1.7727 C   0  0  0  0  0  0  0  0  0  0  0  0
   -3.6975    5.1356    1.7215 C   0  0  0  0  0  0  0  0  0  0  0  0
   -3.0880    5.3769    0.5044 C   0  0  0  0  0  0  0  0  0  0  0  0
   -3.8305    5.3347   -0.6608 C   0  0  0  0  0  0  0  0  0  0  0  0
   -5.1802    5.0405   -0.6101 C   0  0  0  0  0  0  0  0  0  0  0  0
   -1.6154    5.6920    0.4486 C   0  0  0  0  0  0  0  0  0  0  0  0
   -0.8549    4.4480    0.3055 N   0  0  0  0  0  0  0  0  0  0  0  0
    0.5391    4.4864    0.2315 C   0  0  0  0  0  0  0  0  0  0  0  0
    1.4283    3.3376    0.0890 C   0  0  0  0  0  0  0  0  0  0  0  0
    2.7407    3.8503    0.0633 C   0  0  0  0  0  0  0  0  0  0  0  0
    2.6372    5.2028    0.1842 N   0  0  0  0  0  0  0  0  0  0  0  0
    3.4060    5.8420    0.2032 H   0  0  0  0  0  0  0  0  0  0  0  0
    1.2874    5.5584    0.2776 N   0  0  0  0  0  0  0  0  0  0  0  0
    3.7569    2.9981   -0.0674 N   0  0  0  0  0  0  0  0  0  0  0  0
    3.5396    1.7047   -0.1654 C   0  0  0  0  0  0  0  0  0  0  0  0
    2.3272    1.1806   -0.1413 N   0  0  0  0  0  0  0  0  0  0  0  0
    1.2489    1.9483   -0.0143 C   0  0  0  0  0  0  0  0  0  0  0  0
   -0.0169    1.3937    0.0097 N   0  0  0  0  0  0  0  0  0  0  0  0
   -0.1843    0.0241   -0.2149 C   0  0  0  0  0  0  0  0  0  0  0  0
    0.6379   -0.6388   -1.1176 C   0  0  0  0  0  0  0  0  0  0  0  0
    0.4704   -1.9917   -1.3377 C   0  0  0  0  0  0  0  0  0  0  0  0
   -0.5145   -2.6875   -0.6609 C   0  0  0  0  0  0  0  0  0  0  0  0
   -1.3354   -2.0308    0.2391 C   0  0  0  0  0  0  0  0  0  0  0  0
   -1.1689   -0.6776    0.4679 C   0  0  0  0  0  0  0  0  0  0  0  0
   -2.5701   -2.9084    1.0870 Cl  0  0  0  0  0  0  0  0  0  0  0  0
   -6.8450    4.5730    0.6469 H   0  0  0  0  0  0  0  0  0  0  0  0
   -5.5246    4.6585    2.7236 H   0  0  0  0  0  0  0  0  0  0  0  0
   -3.1183    5.1729    2.6323 H   0  0  0  0  0  0  0  0  0  0  0  0
   -3.3552    5.5275   -1.6113 H   0  0  0  0  0  0  0  0  0  0  0  0
   -5.7593    5.0028   -1.5209 H   0  0  0  0  0  0  0  0  0  0  0  0
   -1.3167    6.1967    1.3673 H   0  0  0  0  0  0  0  0  0  0  0  0
   -1.4147    6.3406   -0.4041 H   0  0  0  0  0  0  0  0  0  0  0  0
   -1.3197    3.5977    0.2621 H   0  0  0  0  0  0  0  0  0  0  0  0
    4.3873    1.0439   -0.2702 H   0  0  0  0  0  0  0  0  0  0  0  0
   -0.7894    1.9555    0.1785 H   0  0  0  0  0  0  0  0  0  0  0  0
    1.4072   -0.0963   -1.6471 H   0  0  0  0  0  0  0  0  0  0  0  0
    1.1097   -2.5071   -2.0392 H   0  0  0  0  0  0  0  0  0  0  0  0
   -0.6430   -3.7456   -0.8347 H   0  0  0  0  0  0  0  0  0  0  0  0
   -1.8064   -0.1662    1.1739 H   0  0  0  0  0  0  0  0  0  0  0  0
  1  6  2  0  0  0  0
  1  2  1  0  0  0  0
  1 27  1  0  0  0  0
  2  3  2  0  0  0  0
  2 28  1  0  0  0  0
  3  4  1  0  0  0  0
  3 29  1  0  0  0  0
  4  5  2  0  0  0  0
  4  7  1  0  0  0  0
  5  6  1  0  0  0  0
  5 30  1  0  0  0  0
  6 31  1  0  0  0  0
  7  8  1  0  0  0  0
  7 32  1  0  0  0  0
  7 33  1  0  0  0  0
  8  9  1  0  0  0  0
  8 34  1  0  0  0  0
  9 14  2  0  0  0  0
  9 10  1  0  0  0  0
 10 18  2  0  0  0  0
 10 11  1  0  0  0  0
 11 12  1  0  0  0  0
 11 15  2  0  0  0  0
 12 13  1  0  0  0  0
 12 14  1  0  0  0  0
 15 16  1  0  0  0  0
 16 17  2  0  0  0  0
 16 35  1  0  0  0  0
 17 18  1  0  0  0  0
 18 19  1  0  0  0  0
 19 20  1  0  0  0  0
 19 36  1  0  0  0  0
 20 25  2  0  0  0  0
 20 21  1  0  0  0  0
 21 22  2  0  0  0  0
 21 37  1  0  0  0  0
 22 23  1  0  0  0  0
 22 38  1  0  0  0  0
 23 24  2  0  0  0  0
 23 39  1  0  0  0  0
 24 25  1  0  0  0  0
 24 26  1  0  0  0  0
 25 40  1  0  0  0  0
M  END
$$$$
ZINC03815161
  -OEChem-08230709403D

 44 47  0     0  0  0  0  0  0999 V2000
   -7.8178    4.4957   -0.5856 C   0  0  0  0  0  0  0  0  0  0  0  0
   -7.1136    4.5268    0.6574 O   0  0  0  0  0  0  0  0  0  0  0  0
   -5.7851    4.8090    0.6070 C   0  0  0  0  0  0  0  0  0  0  0  0
   -5.0399    4.8555    1.7762 C   0  0  0  0  0  0  0  0  0  0  0  0
   -3.6895    5.1422    1.7222 C   0  0  0  0  0  0  0  0  0  0  0  0
   -3.0808    5.3825    0.5043 C   0  0  0  0  0  0  0  0  0  0  0  0
   -3.8225    5.3422   -0.6619 C   0  0  0  0  0  0  0  0  0  0  0  0
   -5.1719    5.0504   -0.6138 C   0  0  0  0  0  0  0  0  0  0  0  0
   -1.6076    5.6949    0.4484 C   0  0  0  0  0  0  0  0  0  0  0  0
   -0.8494    4.4496    0.3049 N   0  0  0  0  0  0  0  0  0  0  0  0
    0.5447    4.4854    0.2308 C   0  0  0  0  0  0  0  0  0  0  0  0
    1.4318    3.3351    0.0880 C   0  0  0  0  0  0  0  0  0  0  0  0
    2.7450    3.8455    0.0617 C   0  0  0  0  0  0  0  0  0  0  0  0
    2.6441    5.1980    0.1836 N   0  0  0  0  0  0  0  0  0  0  0  0
    3.4142    5.8357    0.2038 H   0  0  0  0  0  0  0  0  0  0  0  0
    1.2949    5.5561    0.2762 N   0  0  0  0  0  0  0  0  0  0  0  0
    3.7597    2.9914   -0.0699 N   0  0  0  0  0  0  0  0  0  0  0  0
    3.5400    1.6985   -0.1681 C   0  0  0  0  0  0  0  0  0  0  0  0
    2.3267    1.1765   -0.1432 N   0  0  0  0  0  0  0  0  0  0  0  0
    1.2499    1.9461   -0.0153 C   0  0  0  0  0  0  0  0  0  0  0  0
   -0.0169    1.3937    0.0097 N   0  0  0  0  0  0  0  0  0  0  0  0
   -0.1868    0.0244   -0.2149 C   0  0  0  0  0  0  0  0  0  0  0  0
    0.6338   -0.6400   -1.1178 C   0  0  0  0  0  0  0  0  0  0  0  0
    0.4642   -1.9927   -1.3375 C   0  0  0  0  0  0  0  0  0  0  0  0
   -0.5215   -2.6868   -0.6600 C   0  0  0  0  0  0  0  0  0  0  0  0
   -1.3409   -2.0286    0.2402 C   0  0  0  0  0  0  0  0  0  0  0  0
   -1.1725   -0.6755    0.4683 C   0  0  0  0  0  0  0  0  0  0  0  0
   -2.5766   -2.9041    1.0890 Cl  0  0  0  0  0  0  0  0  0  0  0  0
   -8.8662    4.2597   -0.4034 H   0  0  0  0  0  0  0  0  0  0  0  0
   -7.7434    5.4693   -1.0699 H   0  0  0  0  0  0  0  0  0  0  0  0
   -7.3810    3.7342   -1.2318 H   0  0  0  0  0  0  0  0  0  0  0  0
   -5.5150    4.6683    2.7278 H   0  0  0  0  0  0  0  0  0  0  0  0
   -3.1089    5.1782    2.6321 H   0  0  0  0  0  0  0  0  0  0  0  0
   -3.3456    5.5349   -1.6115 H   0  0  0  0  0  0  0  0  0  0  0  0
   -5.7500    5.0147   -1.5254 H   0  0  0  0  0  0  0  0  0  0  0  0
   -1.3079    6.1989    1.3672 H   0  0  0  0  0  0  0  0  0  0  0  0
   -1.4058    6.3434   -0.4042 H   0  0  0  0  0  0  0  0  0  0  0  0
   -1.3157    3.6001    0.2614 H   0  0  0  0  0  0  0  0  0  0  0  0
    4.3865    1.0362   -0.2740 H   0  0  0  0  0  0  0  0  0  0  0  0
   -0.7883    1.9568    0.1791 H   0  0  0  0  0  0  0  0  0  0  0  0
    1.4037   -0.0988   -1.6478 H   0  0  0  0  0  0  0  0  0  0  0  0
    1.1023   -2.5093   -2.0391 H   0  0  0  0  0  0  0  0  0  0  0  0
   -0.6518   -3.7448   -0.8334 H   0  0  0  0  0  0  0  0  0  0  0  0
   -1.8092   -0.1628    1.1741 H   0  0  0  0  0  0  0  0  0  0  0  0
  1  2  1  0  0  0  0
  1 29  1  0  0  0  0
  1 30  1  0  0  0  0
  1 31  1  0  0  0  0
  2  3  1  0  0  0  0
  3  8  2  0  0  0  0
  3  4  1  0  0  0  0
  4  5  2  0  0  0  0
  4 32  1  0  0  0  0
  5  6  1  0  0  0  0
  5 33  1  0  0  0  0
  6  7  2  0  0  0  0
  6  9  1  0  0  0  0
  7  8  1  0  0  0  0
  7 34  1  0  0  0  0
  8 35  1  0  0  0  0
  9 10  1  0  0  0  0
  9 36  1  0  0  0  0
  9 37  1  0  0  0  0
 10 11  1  0  0  0  0
 10 38  1  0  0  0  0
 11 16  2  0  0  0  0
 11 12  1  0  0  0  0
 12 20  2  0  0  0  0
 12 13  1  0  0  0  0
 13 14  1  0  0  0  0
 13 17  2  0  0  0  0
 14 15  1  0  0  0  0
 14 16  1  0  0  0  0
 17 18  1  0  0  0  0
 18 19  2  0  0  0  0
 18 39  1  0  0  0  0
 19 20  1  0  0  0  0
 20 21  1  0  0  0  0
 21 22  1  0  0  0  0
 21 40  1  0  0  0  0
 22 27  2  0  0  0  0
 22 23  1  0  0  0  0
 23 24  2  0  0  0  0
 23 41  1  0  0  0  0
 24 25  1  0  0  0  0
 24 42  1  0  0  0  0
 25 26  2  0  0  0  0
 25 43  1  0  0  0  0
 26 27  1  0  0  0  0
 26 28  1  0  0  0  0
 27 44  1  0  0  0  0
M  END
$$$$
ZINC03815162
  -OEChem-08230709403D

 33 35  0     0  0  0  0  0  0999 V2000
   -0.6753    8.3927    0.4404 C   0  0  0  0  0  0  0  0  0  0  0  0
    0.6253    7.7809    0.1569 N   0  0  0  0  0  0  0  0  0  0  0  0
    0.7399    6.3949    0.0741 C   0  0  0  0  0  0  0  0  0  0  0  0
   -0.3923    5.5940    0.2635 C   0  0  0  0  0  0  0  0  0  0  0  0
   -0.3075    4.2374    0.1884 C   0  0  0  0  0  0  0  0  0  0  0  0
    0.9253    3.6323   -0.0870 C   0  0  0  0  0  0  0  0  0  0  0  0
    2.0793    4.4336   -0.2752 C   0  0  0  0  0  0  0  0  0  0  0  0
    1.9692    5.8259   -0.1935 C   0  0  0  0  0  0  0  0  0  0  0  0
    3.2495    3.8289   -0.5322 N   0  0  0  0  0  0  0  0  0  0  0  0
    3.3206    2.5205   -0.6021 C   0  0  0  0  0  0  0  0  0  0  0  0
    2.2721    1.7328   -0.4281 N   0  0  0  0  0  0  0  0  0  0  0  0
    1.0680    2.2274   -0.1691 C   0  0  0  0  0  0  0  0  0  0  0  0
   -0.0169    1.3936    0.0097 N   0  0  0  0  0  0  0  0  0  0  0  0
    0.1641    0.0079    0.0396 C   0  0  0  0  0  0  0  0  0  0  0  0
    1.3333   -0.5303    0.5628 C   0  0  0  0  0  0  0  0  0  0  0  0
    1.5095   -1.8996    0.5911 C   0  0  0  0  0  0  0  0  0  0  0  0
    0.5237   -2.7357    0.0994 C   0  0  0  0  0  0  0  0  0  0  0  0
   -0.6420   -2.2035   -0.4224 C   0  0  0  0  0  0  0  0  0  0  0  0
   -0.8267   -0.8340   -0.4483 C   0  0  0  0  0  0  0  0  0  0  0  0
   -1.9871   -3.3510   -1.0929 Br  0  0  0  0  0  0  0  0  0  0  0  0
   -0.5687    9.4772    0.4664 H   0  0  0  0  0  0  0  0  0  0  0  0
   -1.3847    8.1160   -0.3394 H   0  0  0  0  0  0  0  0  0  0  0  0
   -1.0400    8.0403    1.4052 H   0  0  0  0  0  0  0  0  0  0  0  0
    1.4067    8.3407    0.0268 H   0  0  0  0  0  0  0  0  0  0  0  0
   -1.3449    6.0581    0.4722 H   0  0  0  0  0  0  0  0  0  0  0  0
   -1.1884    3.6303    0.3361 H   0  0  0  0  0  0  0  0  0  0  0  0
    2.8383    6.4504   -0.3389 H   0  0  0  0  0  0  0  0  0  0  0  0
    4.2780    2.0664   -0.8106 H   0  0  0  0  0  0  0  0  0  0  0  0
   -0.9056    1.7689    0.1106 H   0  0  0  0  0  0  0  0  0  0  0  0
    2.1039    0.1218    0.9467 H   0  0  0  0  0  0  0  0  0  0  0  0
    2.4181   -2.3182    0.9980 H   0  0  0  0  0  0  0  0  0  0  0  0
    0.6640   -3.8063    0.1230 H   0  0  0  0  0  0  0  0  0  0  0  0
   -1.7386   -0.4189   -0.8515 H   0  0  0  0  0  0  0  0  0  0  0  0
  1  2  1  0  0  0  0
  1 21  1  0  0  0  0
  1 22  1  0  0  0  0
  1 23  1  0  0  0  0
  2  3  1  0  0  0  0
  2 24  1  0  0  0  0
  3  8  2  0  0  0  0
  3  4  1  0  0  0  0
  4  5  2  0  0  0  0
  4 25  1  0  0  0  0
  5  6  1  0  0  0  0
  5 26  1  0  0  0  0
  6 12  2  0  0  0  0
  6  7  1  0  0  0  0
  7  8  1  0  0  0  0
  7  9  2  0  0  0  0
  8 27  1  0  0  0  0
  9 10  1  0  0  0  0
 10 11  2  0  0  0  0
 10 28  1  0  0  0  0
 11 12  1  0  0  0  0
 12 13  1  0  0  0  0
 13 14  1  0  0  0  0
 13 29  1  0  0  0  0
 14 19  2  0  0  0  0
 14 15  1  0  0  0  0
 15 16  2  0  0  0  0
 15 30  1  0  0  0  0
 16 17  1  0  0  0  0
 16 31  1  0  0  0  0
 17 18  2  0  0  0  0
 17 32  1  0  0  0  0
 18 19  1  0  0  0  0
 18 20  1  0  0  0  0
 19 33  1  0  0  0  0
M  END
$$$$
ZINC03815163
  -OEChem-08230709403D

 31 33  0     0  0  0  0  0  0999 V2000
    2.1576    5.6966    0.3943 C   0  0  0  0  0  0  0  0  0  0  0  0
    2.2602    4.3225    0.4909 C   0  0  0  0  0  0  0  0  0  0  0  0
    3.3215    3.6622   -0.1146 C   0  0  0  0  0  0  0  0  0  0  0  0
    4.2799    4.3869   -0.8116 C   0  0  0  0  0  0  0  0  0  0  0  0
    4.1693    5.7608   -0.9084 C   0  0  0  0  0  0  0  0  0  0  0  0
    3.1101    6.4152   -0.3040 C   0  0  0  0  0  0  0  0  0  0  0  0
    5.4699    6.7485   -1.8618 Br  0  0  0  0  0  0  0  0  0  0  0  0
    3.4281    2.2717   -0.0180 N   0  0  0  0  0  0  0  0  0  0  0  0
    2.2914    1.4919   -0.0148 C   0  0  0  0  0  0  0  0  0  0  0  0
    2.3670    0.0967    0.2030 C   0  0  0  0  0  0  0  0  0  0  0  0
    3.5749   -0.5691    0.4254 C   0  0  0  0  0  0  0  0  0  0  0  0
    3.5830   -1.8689    0.6220 N   0  0  0  0  0  0  0  0  0  0  0  0
    2.4714   -2.6007    0.6198 C   0  0  0  0  0  0  0  0  0  0  0  0
    1.2297   -2.0296    0.4088 C   0  0  0  0  0  0  0  0  0  0  0  0
    1.1579   -0.6486    0.1936 C   0  0  0  0  0  0  0  0  0  0  0  0
    0.0031   -0.0057   -0.0199 N   0  0  0  0  0  0  0  0  0  0  0  0
   -0.0055    1.2929   -0.2168 C   0  0  0  0  0  0  0  0  0  0  0  0
    1.0938    2.0290   -0.2171 N   0  0  0  0  0  0  0  0  0  0  0  0
    2.5604   -3.9699    0.8350 N   0  0  0  0  0  0  0  0  0  0  0  0
    3.7788   -4.5505    1.0451 N   0  0  0  0  0  0  0  0  0  0  0  0
    1.3324    6.2103    0.8651 H   0  0  0  0  0  0  0  0  0  0  0  0
    1.5156    3.7620    1.0367 H   0  0  0  0  0  0  0  0  0  0  0  0
    5.1086    3.8769   -1.2801 H   0  0  0  0  0  0  0  0  0  0  0  0
    3.0277    7.4896   -0.3777 H   0  0  0  0  0  0  0  0  0  0  0  0
    4.3020    1.8556    0.0467 H   0  0  0  0  0  0  0  0  0  0  0  0
    4.5023   -0.0157    0.4358 H   0  0  0  0  0  0  0  0  0  0  0  0
    0.3358   -2.6356    0.4097 H   0  0  0  0  0  0  0  0  0  0  0  0
   -0.9528    1.7814   -0.3908 H   0  0  0  0  0  0  0  0  0  0  0  0
    1.7573   -4.5139    0.8360 H   0  0  0  0  0  0  0  0  0  0  0  0
    4.2560   -4.1186    1.8222 H   0  0  0  0  0  0  0  0  0  0  0  0
    3.6860   -5.5453    1.1856 H   0  0  0  0  0  0  0  0  0  0  0  0
  1  6  2  0  0  0  0
  1  2  1  0  0  0  0
  1 21  1  0  0  0  0
  2  3  2  0  0  0  0
  2 22  1  0  0  0  0
  3  4  1  0  0  0  0
  3  8  1  0  0  0  0
  4  5  2  0  0  0  0
  4 23  1  0  0  0  0
  5  6  1  0  0  0  0
  5  7  1  0  0  0  0
  6 24  1  0  0  0  0
  8  9  1  0  0  0  0
  8 25  1  0  0  0  0
  9 18  2  0  0  0  0
  9 10  1  0  0  0  0
 10 15  2  0  0  0  0
 10 11  1  0  0  0  0
 11 12  2  0  0  0  0
 11 26  1  0  0  0  0
 12 13  1  0  0  0  0
 13 14  2  0  0  0  0
 13 19  1  0  0  0  0
 14 15  1  0  0  0  0
 14 27  1  0  0  0  0
 15 16  1  0  0  0  0
 16 17  2  0  0  0  0
 17 18  1  0  0  0  0
 17 28  1  0  0  0  0
 19 20  1  0  0  0  0
 19 29  1  0  0  0  0
 20 30  1  0  0  0  0
 20 31  1  0  0  0  0
M  END
$$$$
ZINC03815164
  -OEChem-08230709403D

 46 49  0     0  0  0  0  0  0999 V2000
   -1.9873    0.9754   -1.4832 C   0  0  0  0  0  0  0  0  0  0  0  0
   -0.9700    1.7492   -0.6848 C   0  0  0  0  0  0  0  0  0  0  0  0
   -0.0172    1.0758    0.0579 C   0  0  0  0  0  0  0  0  0  0  0  0
    0.9217    1.7819    0.7869 C   0  0  0  0  0  0  0  0  0  0  0  0
    0.9074    3.1631    0.7801 C   0  0  0  0  0  0  0  0  0  0  0  0
   -0.0515    3.8425    0.0400 C   0  0  0  0  0  0  0  0  0  0  0  0
   -0.9935    3.1299   -0.6914 C   0  0  0  0  0  0  0  0  0  0  0  0
   -0.0691    5.2402    0.0313 N   0  0  0  0  0  0  0  0  0  0  0  0
    1.1117    5.9450    0.1283 C   0  0  0  0  0  0  0  0  0  0  0  0
    1.1105    7.3549    0.2380 C   0  0  0  0  0  0  0  0  0  0  0  0
   -0.0648    8.1096    0.2659 C   0  0  0  0  0  0  0  0  0  0  0  0
    1.1494   10.0763    0.4673 C   0  0  0  0  0  0  0  0  0  0  0  0
    2.3634    9.4142    0.4533 C   0  0  0  0  0  0  0  0  0  0  0  0
    2.3618    8.0193    0.3391 C   0  0  0  0  0  0  0  0  0  0  0  0
    3.4849    7.2909    0.3167 N   0  0  0  0  0  0  0  0  0  0  0  0
    3.4244    5.9834    0.2078 C   0  0  0  0  0  0  0  0  0  0  0  0
    2.2834    5.3200    0.1159 N   0  0  0  0  0  0  0  0  0  0  0  0
    1.1331   11.4605    0.5800 N   0  0  0  0  0  0  0  0  0  0  0  0
    2.3925   12.2019    0.6822 C   0  0  0  0  0  0  0  0  0  0  0  0
    2.0955   13.6986    0.7948 C   0  0  0  0  0  0  0  0  0  0  0  0
    3.3910   14.4612    0.9000 C   0  0  0  0  0  0  0  0  0  0  0  0
    3.7821   15.4711    0.0995 C   0  0  0  0  0  0  0  0  0  0  0  0
    5.0125   15.8746    0.5433 N   0  0  0  0  0  0  0  0  0  0  0  0
    5.5714   16.6084    0.1570 H   0  0  0  0  0  0  0  0  0  0  0  0
    5.3307   15.0967    1.6003 C   0  0  0  0  0  0  0  0  0  0  0  0
    4.3541   14.2571    1.8110 N   0  0  0  0  0  0  0  0  0  0  0  0
   -2.8656    0.7859   -0.8662 H   0  0  0  0  0  0  0  0  0  0  0  0
   -2.2773    1.5540   -2.3603 H   0  0  0  0  0  0  0  0  0  0  0  0
   -1.5546    0.0266   -1.8006 H   0  0  0  0  0  0  0  0  0  0  0  0
   -0.0039   -0.0041    0.0648 H   0  0  0  0  0  0  0  0  0  0  0  0
    1.6673    1.2530    1.3619 H   0  0  0  0  0  0  0  0  0  0  0  0
    1.6409    3.7141    1.3501 H   0  0  0  0  0  0  0  0  0  0  0  0
   -1.7402    3.6551   -1.2683 H   0  0  0  0  0  0  0  0  0  0  0  0
   -0.9121    5.7142   -0.0430 H   0  0  0  0  0  0  0  0  0  0  0  0
   -1.0238    7.6181    0.1933 H   0  0  0  0  0  0  0  0  0  0  0  0
    3.2916    9.9611    0.5290 H   0  0  0  0  0  0  0  0  0  0  0  0
    4.3482    5.4242    0.1929 H   0  0  0  0  0  0  0  0  0  0  0  0
    0.2879   11.9363    0.5910 H   0  0  0  0  0  0  0  0  0  0  0  0
    2.9375   11.8721    1.5667 H   0  0  0  0  0  0  0  0  0  0  0  0
    2.9961   12.0171   -0.2064 H   0  0  0  0  0  0  0  0  0  0  0  0
    1.5505   14.0284   -0.0896 H   0  0  0  0  0  0  0  0  0  0  0  0
    1.4919   13.8834    1.6835 H   0  0  0  0  0  0  0  0  0  0  0  0
    3.2310   15.8832   -0.7329 H   0  0  0  0  0  0  0  0  0  0  0  0
    6.2408   15.1614    2.1782 H   0  0  0  0  0  0  0  0  0  0  0  0
   -0.0768    9.4626    0.3761 N   0  3  0  0  0  0  0  0  0  0  0  0
   -0.9530    9.9975    0.3904 H   0  0  0  0  0  0  0  0  0  0  0  0
  1  2  1  0  0  0  0
  1 27  1  0  0  0  0
  1 28  1  0  0  0  0
  1 29  1  0  0  0  0
  2  7  2  0  0  0  0
  2  3  1  0  0  0  0
  3  4  2  0  0  0  0
  3 30  1  0  0  0  0
  4  5  1  0  0  0  0
  4 31  1  0  0  0  0
  5  6  2  0  0  0  0
  5 32  1  0  0  0  0
  6  7  1  0  0  0  0
  6  8  1  0  0  0  0
  7 33  1  0  0  0  0
  8  9  1  0  0  0  0
  8 34  1  0  0  0  0
  9 17  2  0  0  0  0
  9 10  1  0  0  0  0
 10 14  2  0  0  0  0
 10 11  1  0  0  0  0
 11 35  1  0  0  0  0
 11 45  2  0  0  0  0
 12 13  2  0  0  0  0
 12 18  1  0  0  0  0
 12 45  1  0  0  0  0
 13 14  1  0  0  0  0
 13 36  1  0  0  0  0
 14 15  1  0  0  0  0
 15 16  2  0  0  0  0
 16 17  1  0  0  0  0
 16 37  1  0  0  0  0
 18 19  1  0  0  0  0
 18 38  1  0  0  0  0
 19 20  1  0  0  0  0
 19 39  1  0  0  0  0
 19 40  1  0  0  0  0
 20 21  1  0  0  0  0
 20 41  1  0  0  0  0
 20 42  1  0  0  0  0
 21 26  1  0  0  0  0
 21 22  2  0  0  0  0
 22 23  1  0  0  0  0
 22 43  1  0  0  0  0
 23 24  1  0  0  0  0
 23 25  1  0  0  0  0
 25 26  2  0  0  0  0
 25 44  1  0  0  0  0
 45 46  1  0  0  0  0
M  CHG  1  45   1
M  END
$$$$
ZINC03815164
  -OEChem-08230709403D

 46 49  0     0  0  0  0  0  0999 V2000
   -1.9873    0.9754   -1.4832 C   0  0  0  0  0  0  0  0  0  0  0  0
   -0.9700    1.7492   -0.6848 C   0  0  0  0  0  0  0  0  0  0  0  0
   -0.0172    1.0758    0.0579 C   0  0  0  0  0  0  0  0  0  0  0  0
    0.9217    1.7819    0.7869 C   0  0  0  0  0  0  0  0  0  0  0  0
    0.9074    3.1631    0.7801 C   0  0  0  0  0  0  0  0  0  0  0  0
   -0.0515    3.8425    0.0400 C   0  0  0  0  0  0  0  0  0  0  0  0
   -0.9935    3.1299   -0.6914 C   0  0  0  0  0  0  0  0  0  0  0  0
   -0.0691    5.2402    0.0313 N   0  0  0  0  0  0  0  0  0  0  0  0
    1.1117    5.9450    0.1283 C   0  0  0  0  0  0  0  0  0  0  0  0
    1.1105    7.3549    0.2380 C   0  0  0  0  0  0  0  0  0  0  0  0
   -0.0648    8.1096    0.2659 C   0  0  0  0  0  0  0  0  0  0  0  0
    1.1494   10.0763    0.4673 C   0  0  0  0  0  0  0  0  0  0  0  0
    2.3634    9.4142    0.4533 C   0  0  0  0  0  0  0  0  0  0  0  0
    2.3618    8.0193    0.3391 C   0  0  0  0  0  0  0  0  0  0  0  0
    3.4849    7.2909    0.3167 N   0  0  0  0  0  0  0  0  0  0  0  0
    3.4244    5.9834    0.2078 C   0  0  0  0  0  0  0  0  0  0  0  0
    2.2834    5.3200    0.1159 N   0  0  0  0  0  0  0  0  0  0  0  0
    1.1331   11.4605    0.5800 N   0  0  0  0  0  0  0  0  0  0  0  0
    2.3925   12.2019    0.6822 C   0  0  0  0  0  0  0  0  0  0  0  0
    2.0955   13.6986    0.7948 C   0  0  0  0  0  0  0  0  0  0  0  0
    3.3910   14.4612    0.9000 C   0  0  0  0  0  0  0  0  0  0  0  0
    3.7821   15.4711    0.0995 C   0  0  0  0  0  0  0  0  0  0  0  0
    5.0125   15.8746    0.5433 N   0  0  0  0  0  0  0  0  0  0  0  0
    5.5714   16.6084    0.1570 H   0  0  0  0  0  0  0  0  0  0  0  0
    5.3307   15.0967    1.6003 C   0  0  0  0  0  0  0  0  0  0  0  0
    4.3541   14.2571    1.8110 N   0  0  0  0  0  0  0  0  0  0  0  0
   -2.8656    0.7859   -0.8662 H   0  0  0  0  0  0  0  0  0  0  0  0
   -2.2773    1.5540   -2.3603 H   0  0  0  0  0  0  0  0  0  0  0  0
   -1.5546    0.0266   -1.8006 H   0  0  0  0  0  0  0  0  0  0  0  0
   -0.0039   -0.0041    0.0648 H   0  0  0  0  0  0  0  0  0  0  0  0
    1.6673    1.2530    1.3619 H   0  0  0  0  0  0  0  0  0  0  0  0
    1.6409    3.7141    1.3501 H   0  0  0  0  0  0  0  0  0  0  0  0
   -1.7402    3.6551   -1.2683 H   0  0  0  0  0  0  0  0  0  0  0  0
   -0.9121    5.7142   -0.0430 H   0  0  0  0  0  0  0  0  0  0  0  0
   -1.0238    7.6181    0.1933 H   0  0  0  0  0  0  0  0  0  0  0  0
    3.2916    9.9611    0.5290 H   0  0  0  0  0  0  0  0  0  0  0  0
    4.3482    5.4242    0.1929 H   0  0  0  0  0  0  0  0  0  0  0  0
    0.2879   11.9363    0.5910 H   0  0  0  0  0  0  0  0  0  0  0  0
    2.9375   11.8721    1.5667 H   0  0  0  0  0  0  0  0  0  0  0  0
    2.9961   12.0171   -0.2064 H   0  0  0  0  0  0  0  0  0  0  0  0
    1.5505   14.0284   -0.0896 H   0  0  0  0  0  0  0  0  0  0  0  0
    1.4919   13.8834    1.6835 H   0  0  0  0  0  0  0  0  0  0  0  0
    3.2310   15.8832   -0.7329 H   0  0  0  0  0  0  0  0  0  0  0  0
    6.2408   15.1614    2.1782 H   0  0  0  0  0  0  0  0  0  0  0  0
   -0.0768    9.4626    0.3761 N   0  3  0  0  0  0  0  0  0  0  0  0
   -0.9530    9.9975    0.3904 H   0  0  0  0  0  0  0  0  0  0  0  0
  1  2  1  0  0  0  0
  1 27  1  0  0  0  0
  1 28  1  0  0  0  0
  1 29  1  0  0  0  0
  2  7  2  0  0  0  0
  2  3  1  0  0  0  0
  3  4  2  0  0  0  0
  3 30  1  0  0  0  0
  4  5  1  0  0  0  0
  4 31  1  0  0  0  0
  5  6  2  0  0  0  0
  5 32  1  0  0  0  0
  6  7  1  0  0  0  0
  6  8  1  0  0  0  0
  7 33  1  0  0  0  0
  8  9  1  0  0  0  0
  8 34  1  0  0  0  0
  9 17  2  0  0  0  0
  9 10  1  0  0  0  0
 10 14  2  0  0  0  0
 10 11  1  0  0  0  0
 11 35  1  0  0  0  0
 11 45  2  0  0  0  0
 12 13  2  0  0  0  0
 12 18  1  0  0  0  0
 12 45  1  0  0  0  0
 13 14  1  0  0  0  0
 13 36  1  0  0  0  0
 14 15  1  0  0  0  0
 15 16  2  0  0  0  0
 16 17  1  0  0  0  0
 16 37  1  0  0  0  0
 18 19  1  0  0  0  0
 18 38  1  0  0  0  0
 19 20  1  0  0  0  0
 19 39  1  0  0  0  0
 19 40  1  0  0  0  0
 20 21  1  0  0  0  0
 20 41  1  0  0  0  0
 20 42  1  0  0  0  0
 21 26  1  0  0  0  0
 21 22  2  0  0  0  0
 22 23  1  0  0  0  0
 22 43  1  0  0  0  0
 23 24  1  0  0  0  0
 23 25  1  0  0  0  0
 25 26  2  0  0  0  0
 25 44  1  0  0  0  0
 45 46  1  0  0  0  0
M  CHG  1  45   1
M  END
$$$$
ZINC03815164
  -OEChem-08230709403D

 47 50  0     0  0  0  0  0  0999 V2000
   -1.9873    0.9754   -1.4832 C   0  0  0  0  0  0  0  0  0  0  0  0
   -0.9700    1.7492   -0.6848 C   0  0  0  0  0  0  0  0  0  0  0  0
   -0.0172    1.0758    0.0579 C   0  0  0  0  0  0  0  0  0  0  0  0
    0.9217    1.7819    0.7869 C   0  0  0  0  0  0  0  0  0  0  0  0
    0.9074    3.1631    0.7801 C   0  0  0  0  0  0  0  0  0  0  0  0
   -0.0515    3.8425    0.0400 C   0  0  0  0  0  0  0  0  0  0  0  0
   -0.9935    3.1299   -0.6914 C   0  0  0  0  0  0  0  0  0  0  0  0
   -0.0691    5.2402    0.0313 N   0  0  0  0  0  0  0  0  0  0  0  0
    1.1117    5.9450    0.1283 C   0  0  0  0  0  0  0  0  0  0  0  0
    1.1105    7.3549    0.2380 C   0  0  0  0  0  0  0  0  0  0  0  0
   -0.0648    8.1096    0.2659 C   0  0  0  0  0  0  0  0  0  0  0  0
    1.1494   10.0763    0.4673 C   0  0  0  0  0  0  0  0  0  0  0  0
    2.3634    9.4142    0.4533 C   0  0  0  0  0  0  0  0  0  0  0  0
    2.3618    8.0193    0.3391 C   0  0  0  0  0  0  0  0  0  0  0  0
    3.4849    7.2909    0.3167 N   0  0  0  0  0  0  0  0  0  0  0  0
    3.4244    5.9834    0.2078 C   0  0  0  0  0  0  0  0  0  0  0  0
    2.2834    5.3200    0.1159 N   0  0  0  0  0  0  0  0  0  0  0  0
    1.1331   11.4605    0.5800 N   0  0  0  0  0  0  0  0  0  0  0  0
    2.3925   12.2019    0.6822 C   0  0  0  0  0  0  0  0  0  0  0  0
    2.0955   13.6986    0.7948 C   0  0  0  0  0  0  0  0  0  0  0  0
    3.3910   14.4612    0.9000 C   0  0  0  0  0  0  0  0  0  0  0  0
    3.7821   15.4711    0.0995 C   0  0  0  0  0  0  0  0  0  0  0  0
    5.0125   15.8746    0.5433 N   0  0  0  0  0  0  0  0  0  0  0  0
    5.5714   16.6084    0.1570 H   0  0  0  0  0  0  0  0  0  0  0  0
    5.3307   15.0967    1.6003 C   0  0  0  0  0  0  0  0  0  0  0  0
   -2.8656    0.7859   -0.8662 H   0  0  0  0  0  0  0  0  0  0  0  0
   -2.2773    1.5540   -2.3603 H   0  0  0  0  0  0  0  0  0  0  0  0
   -1.5546    0.0266   -1.8006 H   0  0  0  0  0  0  0  0  0  0  0  0
   -0.0039   -0.0041    0.0648 H   0  0  0  0  0  0  0  0  0  0  0  0
    1.6673    1.2530    1.3619 H   0  0  0  0  0  0  0  0  0  0  0  0
    1.6409    3.7141    1.3501 H   0  0  0  0  0  0  0  0  0  0  0  0
   -1.7402    3.6551   -1.2683 H   0  0  0  0  0  0  0  0  0  0  0  0
   -0.9121    5.7142   -0.0430 H   0  0  0  0  0  0  0  0  0  0  0  0
   -1.0238    7.6181    0.1933 H   0  0  0  0  0  0  0  0  0  0  0  0
    3.2916    9.9611    0.5290 H   0  0  0  0  0  0  0  0  0  0  0  0
    4.3482    5.4242    0.1929 H   0  0  0  0  0  0  0  0  0  0  0  0
    0.2879   11.9363    0.5910 H   0  0  0  0  0  0  0  0  0  0  0  0
    2.9375   11.8721    1.5667 H   0  0  0  0  0  0  0  0  0  0  0  0
    2.9961   12.0171   -0.2064 H   0  0  0  0  0  0  0  0  0  0  0  0
    1.5505   14.0284   -0.0896 H   0  0  0  0  0  0  0  0  0  0  0  0
    1.4919   13.8834    1.6835 H   0  0  0  0  0  0  0  0  0  0  0  0
    3.2310   15.8832   -0.7329 H   0  0  0  0  0  0  0  0  0  0  0  0
    6.2408   15.1614    2.1782 H   0  0  0  0  0  0  0  0  0  0  0  0
   -0.0768    9.4626    0.3761 N   0  3  0  0  0  0  0  0  0  0  0  0
   -0.9530    9.9975    0.3904 H   0  0  0  0  0  0  0  0  0  0  0  0
    4.3541   14.2580    1.8100 N   0  3  0  0  0  0  0  0  0  0  0  0
    4.3272   13.5525    2.5555 H   0  0  0  0  0  0  0  0  0  0  0  0
  1  2  1  0  0  0  0
  1 26  1  0  0  0  0
  1 27  1  0  0  0  0
  1 28  1  0  0  0  0
  2  7  2  0  0  0  0
  2  3  1  0  0  0  0
  3  4  2  0  0  0  0
  3 29  1  0  0  0  0
  4  5  1  0  0  0  0
  4 30  1  0  0  0  0
  5  6  2  0  0  0  0
  5 31  1  0  0  0  0
  6  7  1  0  0  0  0
  6  8  1  0  0  0  0
  7 32  1  0  0  0  0
  8  9  1  0  0  0  0
  8 33  1  0  0  0  0
  9 17  2  0  0  0  0
  9 10  1  0  0  0  0
 10 14  2  0  0  0  0
 10 11  1  0  0  0  0
 11 34  1  0  0  0  0
 11 44  2  0  0  0  0
 12 13  2  0  0  0  0
 12 18  1  0  0  0  0
 12 44  1  0  0  0  0
 13 14  1  0  0  0  0
 13 35  1  0  0  0  0
 14 15  1  0  0  0  0
 15 16  2  0  0  0  0
 16 17  1  0  0  0  0
 16 36  1  0  0  0  0
 18 19  1  0  0  0  0
 18 37  1  0  0  0  0
 19 20  1  0  0  0  0
 19 38  1  0  0  0  0
 19 39  1  0  0  0  0
 20 21  1  0  0  0  0
 20 40  1  0  0  0  0
 20 41  1  0  0  0  0
 21 22  2  0  0  0  0
 21 46  1  0  0  0  0
 22 23  1  0  0  0  0
 22 42  1  0  0  0  0
 23 24  1  0  0  0  0
 23 25  1  0  0  0  0
 25 43  1  0  0  0  0
 25 46  2  0  0  0  0
 44 45  1  0  0  0  0
 46 47  1  0  0  0  0
M  CHG  2  44   1  46   1
M  END
$$$$
ZINC03815165
  -OEChem-08230709403D

 51 53  0     0  0  0  0  0  0999 V2000
   -0.0526  -10.8259    1.3642 C   0  0  0  0  0  0  0  0  0  0  0  0
   -1.2529   -9.0512    2.4922 C   0  0  0  0  0  0  0  0  0  0  0  0
    0.8302   -8.5713    1.3551 C   0  0  0  0  0  0  0  0  0  0  0  0
    0.4559   -7.1103    1.0976 C   0  0  0  0  0  0  0  0  0  0  0  0
    1.7226   -6.2521    1.0953 C   0  0  0  0  0  0  0  0  0  0  0  0
    1.3484   -4.7911    0.8377 C   0  0  0  0  0  0  0  0  0  0  0  0
    2.5612   -3.9694    0.8356 N   0  0  0  0  0  0  0  0  0  0  0  0
    2.4720   -2.6003    0.6204 C   0  0  0  0  0  0  0  0  0  0  0  0
    1.2299   -2.0292    0.4098 C   0  0  0  0  0  0  0  0  0  0  0  0
    1.1580   -0.6486    0.1946 C   0  0  0  0  0  0  0  0  0  0  0  0
    2.3673    0.0969    0.2036 C   0  0  0  0  0  0  0  0  0  0  0  0
    3.5750   -0.5685    0.4254 C   0  0  0  0  0  0  0  0  0  0  0  0
    2.2915    1.4922   -0.0143 C   0  0  0  0  0  0  0  0  0  0  0  0
    1.0937    2.0291   -0.2162 N   0  0  0  0  0  0  0  0  0  0  0  0
   -0.0056    1.2930   -0.2154 C   0  0  0  0  0  0  0  0  0  0  0  0
    0.0030   -0.0056   -0.0184 N   0  0  0  0  0  0  0  0  0  0  0  0
    3.4280    2.2722   -0.0180 N   0  0  0  0  0  0  0  0  0  0  0  0
    3.3212    3.6627   -0.1146 C   0  0  0  0  0  0  0  0  0  0  0  0
    2.2594    4.3230    0.4911 C   0  0  0  0  0  0  0  0  0  0  0  0
    2.1566    5.6966    0.3945 C   0  0  0  0  0  0  0  0  0  0  0  0
    3.1093    6.4157   -0.3040 C   0  0  0  0  0  0  0  0  0  0  0  0
    4.1680    5.7616   -0.9086 C   0  0  0  0  0  0  0  0  0  0  0  0
    4.2791    4.3874   -0.8114 C   0  0  0  0  0  0  0  0  0  0  0  0
    5.4681    6.7494   -1.8625 Br  0  0  0  0  0  0  0  0  0  0  0  0
    0.5291  -11.0591    2.2560 H   0  0  0  0  0  0  0  0  0  0  0  0
   -0.9710  -11.4129    1.3657 H   0  0  0  0  0  0  0  0  0  0  0  0
    0.5314  -11.0671    0.4761 H   0  0  0  0  0  0  0  0  0  0  0  0
   -1.5415   -8.0023    2.4241 H   0  0  0  0  0  0  0  0  0  0  0  0
   -2.1459   -9.6759    2.4697 H   0  0  0  0  0  0  0  0  0  0  0  0
   -0.7147   -9.2201    3.4249 H   0  0  0  0  0  0  0  0  0  0  0  0
    1.5025   -8.9179    0.5703 H   0  0  0  0  0  0  0  0  0  0  0  0
    1.3269   -8.6541    2.3219 H   0  0  0  0  0  0  0  0  0  0  0  0
   -0.2164   -6.7636    1.8823 H   0  0  0  0  0  0  0  0  0  0  0  0
   -0.0407   -7.0275    0.1308 H   0  0  0  0  0  0  0  0  0  0  0  0
    2.3949   -6.5988    0.3105 H   0  0  0  0  0  0  0  0  0  0  0  0
    2.2193   -6.3349    2.0620 H   0  0  0  0  0  0  0  0  0  0  0  0
    0.6760   -4.4445    1.6225 H   0  0  0  0  0  0  0  0  0  0  0  0
    0.8517   -4.7083   -0.1290 H   0  0  0  0  0  0  0  0  0  0  0  0
    3.4266   -4.3816    0.9845 H   0  0  0  0  0  0  0  0  0  0  0  0
    0.3360   -2.6352    0.4111 H   0  0  0  0  0  0  0  0  0  0  0  0
    4.5024   -0.0151    0.4350 H   0  0  0  0  0  0  0  0  0  0  0  0
   -0.9530    1.7815   -0.3890 H   0  0  0  0  0  0  0  0  0  0  0  0
    4.3019    1.8563    0.0464 H   0  0  0  0  0  0  0  0  0  0  0  0
    1.5149    3.7624    1.0368 H   0  0  0  0  0  0  0  0  0  0  0  0
    1.3313    6.2102    0.8653 H   0  0  0  0  0  0  0  0  0  0  0  0
    3.0268    7.4900   -0.3774 H   0  0  0  0  0  0  0  0  0  0  0  0
    5.1079    3.8775   -1.2799 H   0  0  0  0  0  0  0  0  0  0  0  0
   -0.4004   -9.3896    1.3331 N   0  3  0  0  0  0  0  0  0  0  0  0
   -0.9180   -9.1905    0.4690 H   0  0  0  0  0  0  0  0  0  0  0  0
    3.6583   -1.9074    0.6355 N   0  3  0  0  0  0  0  0  0  0  0  0
    4.5576   -2.3758    0.7966 H   0  0  0  0  0  0  0  0  0  0  0  0
  1 25  1  0  0  0  0
  1 26  1  0  0  0  0
  1 27  1  0  0  0  0
  1 48  1  0  0  0  0
  2 28  1  0  0  0  0
  2 29  1  0  0  0  0
  2 30  1  0  0  0  0
  2 48  1  0  0  0  0
  3  4  1  0  0  0  0
  3 31  1  0  0  0  0
  3 32  1  0  0  0  0
  3 48  1  0  0  0  0
  4  5  1  0  0  0  0
  4 33  1  0  0  0  0
  4 34  1  0  0  0  0
  5  6  1  0  0  0  0
  5 35  1  0  0  0  0
  5 36  1  0  0  0  0
  6  7  1  0  0  0  0
  6 37  1  0  0  0  0
  6 38  1  0  0  0  0
  7  8  1  0  0  0  0
  7 39  1  0  0  0  0
  8  9  2  0  0  0  0
  8 50  1  0  0  0  0
  9 10  1  0  0  0  0
  9 40  1  0  0  0  0
 10 16  2  0  0  0  0
 10 11  1  0  0  0  0
 11 12  1  0  0  0  0
 11 13  2  0  0  0  0
 12 41  1  0  0  0  0
 12 50  2  0  0  0  0
 13 14  1  0  0  0  0
 13 17  1  0  0  0  0
 14 15  2  0  0  0  0
 15 16  1  0  0  0  0
 15 42  1  0  0  0  0
 17 18  1  0  0  0  0
 17 43  1  0  0  0  0
 18 23  2  0  0  0  0
 18 19  1  0  0  0  0
 19 20  2  0  0  0  0
 19 44  1  0  0  0  0
 20 21  1  0  0  0  0
 20 45  1  0  0  0  0
 21 22  2  0  0  0  0
 21 46  1  0  0  0  0
 22 23  1  0  0  0  0
 22 24  1  0  0  0  0
 23 47  1  0  0  0  0
 48 49  1  0  0  0  0
 50 51  1  0  0  0  0
M  CHG  2  48   1  50   1
M  END
$$$$
ZINC03815166
  -OEChem-08230709403D

 56 59  0     1  0  0  0  0  0999 V2000
   -0.5553   -1.3598    4.6837 C   0  0  0  0  0  0  0  0  0  0  0  0
   -0.1755   -3.4506    3.5230 C   0  0  0  0  0  0  0  0  0  0  0  0
   -0.7231   -1.4524    2.2700 C   0  0  0  0  0  0  0  0  0  0  0  0
   -0.3606    0.0242    2.0993 C   0  0  0  0  0  0  0  0  0  0  0  0
   -0.5284   -0.0684   -0.3144 C   0  0  0  0  0  0  0  0  0  0  0  0
   -0.9082    2.0224    0.8462 C   0  0  0  0  0  0  0  0  0  0  0  0
   -1.8109    2.5593   -0.2344 C   0  0  0  0  0  0  0  0  0  0  0  0
   -1.4444    2.9214   -1.4720 C   0  0  0  0  0  0  0  0  0  0  0  0
   -2.5346    3.3593   -2.1777 N   0  0  0  0  0  0  0  0  0  0  0  0
   -2.5153    3.6708   -3.0961 H   0  0  0  0  0  0  0  0  0  0  0  0
   -3.6621    3.2968   -1.3863 C   0  0  0  0  0  0  0  0  0  0  0  0
   -3.2563    2.7907   -0.1286 C   0  0  0  0  0  0  0  0  0  0  0  0
   -4.1792    2.6118    0.8918 C   0  0  0  0  0  0  0  0  0  0  0  0
   -5.5167    2.9359    0.6685 C   0  0  0  0  0  0  0  0  0  0  0  0
   -5.9260    3.4441   -0.5931 C   0  0  0  0  0  0  0  0  0  0  0  0
   -4.9873    3.6194   -1.6116 C   0  0  0  0  0  0  0  0  0  0  0  0
   -7.2235    3.7458   -0.7738 N   0  0  0  0  0  0  0  0  0  0  0  0
   -8.0886    3.5731    0.1958 C   0  0  0  0  0  0  0  0  0  0  0  0
   -7.7534    3.1027    1.3873 N   0  0  0  0  0  0  0  0  0  0  0  0
   -6.5017    2.7727    1.6752 C   0  0  0  0  0  0  0  0  0  0  0  0
   -6.1669    2.2843    2.9209 N   0  0  0  0  0  0  0  0  0  0  0  0
   -7.1680    2.0171    3.8590 C   0  0  0  0  0  0  0  0  0  0  0  0
   -8.3997    1.5274    3.4425 C   0  0  0  0  0  0  0  0  0  0  0  0
   -9.3867    1.2639    4.3715 C   0  0  0  0  0  0  0  0  0  0  0  0
   -9.1506    1.4864    5.7158 C   0  0  0  0  0  0  0  0  0  0  0  0
   -7.9253    1.9740    6.1345 C   0  0  0  0  0  0  0  0  0  0  0  0
   -6.9317    2.2352    5.2100 C   0  0  0  0  0  0  0  0  0  0  0  0
   -7.6073    2.2760    7.9740 Br  0  0  0  0  0  0  0  0  0  0  0  0
   -1.6242   -1.5533    4.7738 H   0  0  0  0  0  0  0  0  0  0  0  0
   -0.0368   -1.7751    5.5478 H   0  0  0  0  0  0  0  0  0  0  0  0
   -0.3832   -0.2844    4.6389 H   0  0  0  0  0  0  0  0  0  0  0  0
    0.2727   -3.8951    2.6344 H   0  0  0  0  0  0  0  0  0  0  0  0
    0.3350   -3.8215    4.4118 H   0  0  0  0  0  0  0  0  0  0  0  0
   -1.2307   -3.7197    3.5711 H   0  0  0  0  0  0  0  0  0  0  0  0
   -1.8018   -1.5500    2.3919 H   0  0  0  0  0  0  0  0  0  0  0  0
   -0.4053   -2.0088    1.3882 H   0  0  0  0  0  0  0  0  0  0  0  0
    0.7182    0.1217    1.9773 H   0  0  0  0  0  0  0  0  0  0  0  0
   -0.6783    0.5806    2.9810 H   0  0  0  0  0  0  0  0  0  0  0  0
   -0.7005   -1.1438   -0.2696 H   0  0  0  0  0  0  0  0  0  0  0  0
    0.5405    0.1251   -0.4046 H   0  0  0  0  0  0  0  0  0  0  0  0
   -1.0469    0.3469   -1.1786 H   0  0  0  0  0  0  0  0  0  0  0  0
   -1.1921    2.4555    1.8054 H   0  0  0  0  0  0  0  0  0  0  0  0
    0.1252    2.2855    0.6204 H   0  0  0  0  0  0  0  0  0  0  0  0
   -0.4367    2.8730   -1.8577 H   0  0  0  0  0  0  0  0  0  0  0  0
   -3.8646    2.2248    1.8498 H   0  0  0  0  0  0  0  0  0  0  0  0
   -5.2954    4.0052   -2.5721 H   0  0  0  0  0  0  0  0  0  0  0  0
   -9.1226    3.8267    0.0146 H   0  0  0  0  0  0  0  0  0  0  0  0
   -5.2367    2.1261    3.1459 H   0  0  0  0  0  0  0  0  0  0  0  0
   -8.5851    1.3532    2.3928 H   0  0  0  0  0  0  0  0  0  0  0  0
  -10.3442    0.8832    4.0479 H   0  0  0  0  0  0  0  0  0  0  0  0
   -9.9241    1.2788    6.4404 H   0  0  0  0  0  0  0  0  0  0  0  0
   -5.9738    2.6116    5.5375 H   0  0  0  0  0  0  0  0  0  0  0  0
   -0.0176   -1.9825    3.4557 N   0  3  0  0  0  0  0  0  0  0  0  0
    0.9812   -1.7577    3.3777 H   0  0  0  0  0  0  0  0  0  0  0  0
   -1.0661    0.5543    0.9135 N   0  3  2  0  0  0  0  0  0  0  0  0
   -2.0649    0.3295    0.9915 H   0  0  0  0  0  0  0  0  0  0  0  0
  1 29  1  0  0  0  0
  1 30  1  0  0  0  0
  1 31  1  0  0  0  0
  1 53  1  0  0  0  0
  2 32  1  0  0  0  0
  2 33  1  0  0  0  0
  2 34  1  0  0  0  0
  2 53  1  0  0  0  0
  3  4  1  0  0  0  0
  3 35  1  0  0  0  0
  3 36  1  0  0  0  0
  3 53  1  0  0  0  0
  4 37  1  0  0  0  0
  4 38  1  0  0  0  0
  4 55  1  0  0  0  0
  5 39  1  0  0  0  0
  5 40  1  0  0  0  0
  5 41  1  0  0  0  0
  5 55  1  0  0  0  0
  6  7  1  0  0  0  0
  6 42  1  0  0  0  0
  6 43  1  0  0  0  0
  6 55  1  0  0  0  0
  7 12  1  0  0  0  0
  7  8  2  0  0  0  0
  8  9  1  0  0  0  0
  8 44  1  0  0  0  0
  9 10  1  0  0  0  0
  9 11  1  0  0  0  0
 11 16  2  0  0  0  0
 11 12  1  0  0  0  0
 12 13  2  0  0  0  0
 13 14  1  0  0  0  0
 13 45  1  0  0  0  0
 14 20  2  0  0  0  0
 14 15  1  0  0  0  0
 15 16  1  0  0  0  0
 15 17  2  0  0  0  0
 16 46  1  0  0  0  0
 17 18  1  0  0  0  0
 18 19  2  0  0  0  0
 18 47  1  0  0  0  0
 19 20  1  0  0  0  0
 20 21  1  0  0  0  0
 21 22  1  0  0  0  0
 21 48  1  0  0  0  0
 22 27  2  0  0  0  0
 22 23  1  0  0  0  0
 23 24  2  0  0  0  0
 23 49  1  0  0  0  0
 24 25  1  0  0  0  0
 24 50  1  0  0  0  0
 25 26  2  0  0  0  0
 25 51  1  0  0  0  0
 26 27  1  0  0  0  0
 26 28  1  0  0  0  0
 27 52  1  0  0  0  0
 53 54  1  0  0  0  0
 55 56  1  0  0  0  0
M  CHG  2  53   1  55   1
M  END
$$$$
ZINC03815167
  -OEChem-08230709403D

 39 42  0     0  0  0  0  0  0999 V2000
   -3.8242   -4.2273    0.0608 C   0  0  0  0  0  0  0  0  0  0  0  0
   -2.9671   -2.9599    0.0508 C   0  0  0  0  0  0  0  0  0  0  0  0
   -1.5627   -3.3218   -0.1562 N   0  0  0  0  0  0  0  0  0  0  0  0
   -0.5844   -2.3258   -0.2028 C   0  0  0  0  0  0  0  0  0  0  0  0
   -0.9348   -0.9916   -0.0545 C   0  0  0  0  0  0  0  0  0  0  0  0
    0.0427   -0.0200   -0.1034 C   0  0  0  0  0  0  0  0  0  0  0  0
    1.3989   -0.3309   -0.3003 C   0  0  0  0  0  0  0  0  0  0  0  0
    1.7284   -1.6981   -0.4485 C   0  0  0  0  0  0  0  0  0  0  0  0
    0.7557   -2.6624   -0.3996 C   0  0  0  0  0  0  0  0  0  0  0  0
    1.0999   -3.9607   -0.5449 F   0  0  0  0  0  0  0  0  0  0  0  0
    2.3228    0.8193   -0.3280 C   0  0  0  0  0  0  0  0  0  0  0  0
    1.7383    2.0804   -0.1551 C   0  0  0  0  0  0  0  0  0  0  0  0
    0.0088    1.7492    0.0391 S   0  0  0  0  0  0  0  0  0  0  0  0
    2.5123    3.2321   -0.1632 C   0  0  0  0  0  0  0  0  0  0  0  0
    3.8278    3.1078   -0.3399 N   0  0  0  0  0  0  0  0  0  0  0  0
    4.3631    1.9117   -0.5015 C   0  0  0  0  0  0  0  0  0  0  0  0
    3.6639    0.8044   -0.4994 N   0  0  0  0  0  0  0  0  0  0  0  0
    1.9321    4.4806    0.0085 N   0  0  0  0  0  0  0  0  0  0  0  0
    2.7384    5.6173    0.1133 C   0  0  0  0  0  0  0  0  0  0  0  0
    2.2888    6.8373   -0.3766 C   0  0  0  0  0  0  0  0  0  0  0  0
    3.0876    7.9588   -0.2717 C   0  0  0  0  0  0  0  0  0  0  0  0
    4.3341    7.8692    0.3206 C   0  0  0  0  0  0  0  0  0  0  0  0
    4.7851    6.6562    0.8100 C   0  0  0  0  0  0  0  0  0  0  0  0
    3.9884    5.5311    0.7124 C   0  0  0  0  0  0  0  0  0  0  0  0
    6.4898    6.5394    1.6201 Br  0  0  0  0  0  0  0  0  0  0  0  0
   -3.7190   -4.7446   -0.8928 H   0  0  0  0  0  0  0  0  0  0  0  0
   -3.4950   -4.8821    0.8676 H   0  0  0  0  0  0  0  0  0  0  0  0
   -4.8691   -3.9581    0.2148 H   0  0  0  0  0  0  0  0  0  0  0  0
   -3.0723   -2.4426    1.0044 H   0  0  0  0  0  0  0  0  0  0  0  0
   -3.2963   -2.3051   -0.7560 H   0  0  0  0  0  0  0  0  0  0  0  0
   -1.3121   -4.2530   -0.2608 H   0  0  0  0  0  0  0  0  0  0  0  0
   -1.9676   -0.7153    0.0988 H   0  0  0  0  0  0  0  0  0  0  0  0
    2.7580   -1.9855   -0.6023 H   0  0  0  0  0  0  0  0  0  0  0  0
    5.4316    1.8431   -0.6428 H   0  0  0  0  0  0  0  0  0  0  0  0
    0.9669    4.5646    0.0559 H   0  0  0  0  0  0  0  0  0  0  0  0
    1.3156    6.9084   -0.8393 H   0  0  0  0  0  0  0  0  0  0  0  0
    2.7383    8.9072   -0.6525 H   0  0  0  0  0  0  0  0  0  0  0  0
    4.9566    8.7480    0.4016 H   0  0  0  0  0  0  0  0  0  0  0  0
    4.3388    4.5853    1.0985 H   0  0  0  0  0  0  0  0  0  0  0  0
  1  2  1  0  0  0  0
  1 26  1  0  0  0  0
  1 27  1  0  0  0  0
  1 28  1  0  0  0  0
  2  3  1  0  0  0  0
  2 29  1  0  0  0  0
  2 30  1  0  0  0  0
  3  4  1  0  0  0  0
  3 31  1  0  0  0  0
  4  9  2  0  0  0  0
  4  5  1  0  0  0  0
  5  6  2  0  0  0  0
  5 32  1  0  0  0  0
  6 13  1  0  0  0  0
  6  7  1  0  0  0  0
  7  8  2  0  0  0  0
  7 11  1  0  0  0  0
  8  9  1  0  0  0  0
  8 33  1  0  0  0  0
  9 10  1  0  0  0  0
 11 17  2  0  0  0  0
 11 12  1  0  0  0  0
 12 13  1  0  0  0  0
 12 14  2  0  0  0  0
 14 15  1  0  0  0  0
 14 18  1  0  0  0  0
 15 16  2  0  0  0  0
 16 17  1  0  0  0  0
 16 34  1  0  0  0  0
 18 19  1  0  0  0  0
 18 35  1  0  0  0  0
 19 24  2  0  0  0  0
 19 20  1  0  0  0  0
 20 21  2  0  0  0  0
 20 36  1  0  0  0  0
 21 22  1  0  0  0  0
 21 37  1  0  0  0  0
 22 23  2  0  0  0  0
 22 38  1  0  0  0  0
 23 24  1  0  0  0  0
 23 25  1  0  0  0  0
 24 39  1  0  0  0  0
M  END
$$$$
ZINC03815169
  -OEChem-08230709403D

 41 44  0     0  0  0  0  0  0999 V2000
   -1.8558   -0.4590   -0.6163 C   0  0  0  0  0  0  0  0  0  0  0  0
   -1.9885    0.9098   -0.2281 O   0  0  0  0  0  0  0  0  0  0  0  0
   -0.9541    1.7390   -0.5274 C   0  0  0  0  0  0  0  0  0  0  0  0
    0.1658    1.2440   -1.1815 C   0  0  0  0  0  0  0  0  0  0  0  0
    1.2158    2.0869   -1.4921 C   0  0  0  0  0  0  0  0  0  0  0  0
    1.1575    3.4234   -1.1473 C   0  0  0  0  0  0  0  0  0  0  0  0
    0.0416    3.9234   -0.4873 C   0  0  0  0  0  0  0  0  0  0  0  0
   -1.0146    3.0777   -0.1750 C   0  0  0  0  0  0  0  0  0  0  0  0
   -0.0175    5.2747   -0.1382 N   0  0  0  0  0  0  0  0  0  0  0  0
    1.1572    5.9740    0.1482 C   0  0  0  0  0  0  0  0  0  0  0  0
    1.2675    7.4051    0.4136 C   0  0  0  0  0  0  0  0  0  0  0  0
    2.6325    7.6626    0.6499 C   0  0  0  0  0  0  0  0  0  0  0  0
    3.2836    6.4722    0.5333 N   0  0  0  0  0  0  0  0  0  0  0  0
    4.2684    6.3386    0.6447 H   0  0  0  0  0  0  0  0  0  0  0  0
    2.3597    5.4654    0.2334 N   0  0  0  0  0  0  0  0  0  0  0  0
    3.0092    8.9118    0.9215 N   0  0  0  0  0  0  0  0  0  0  0  0
    2.1249    9.8842    0.9680 C   0  0  0  0  0  0  0  0  0  0  0  0
    0.8362    9.6882    0.7536 N   0  0  0  0  0  0  0  0  0  0  0  0
    0.3624    8.4776    0.4739 C   0  0  0  0  0  0  0  0  0  0  0  0
   -0.9871    8.2793    0.2498 N   0  0  0  0  0  0  0  0  0  0  0  0
   -1.8562    9.3732    0.2043 C   0  0  0  0  0  0  0  0  0  0  0  0
   -1.4131   10.5943   -0.2886 C   0  0  0  0  0  0  0  0  0  0  0  0
   -2.2738   11.6732   -0.3329 C   0  0  0  0  0  0  0  0  0  0  0  0
   -3.5761   11.5399    0.1127 C   0  0  0  0  0  0  0  0  0  0  0  0
   -4.0214   10.3252    0.6038 C   0  0  0  0  0  0  0  0  0  0  0  0
   -3.1659    9.2401    0.6462 C   0  0  0  0  0  0  0  0  0  0  0  0
   -5.6573   10.1622    1.1615 Cl  0  0  0  0  0  0  0  0  0  0  0  0
   -1.7351   -0.5200   -1.6978 H   0  0  0  0  0  0  0  0  0  0  0  0
   -0.9827   -0.8921   -0.1282 H   0  0  0  0  0  0  0  0  0  0  0  0
   -2.7485   -1.0092   -0.3188 H   0  0  0  0  0  0  0  0  0  0  0  0
    0.2145    0.1996   -1.4521 H   0  0  0  0  0  0  0  0  0  0  0  0
    2.0839    1.7000   -2.0050 H   0  0  0  0  0  0  0  0  0  0  0  0
    1.9795    4.0801   -1.3912 H   0  0  0  0  0  0  0  0  0  0  0  0
   -1.8832    3.4635    0.3379 H   0  0  0  0  0  0  0  0  0  0  0  0
   -0.8743    5.7273   -0.0946 H   0  0  0  0  0  0  0  0  0  0  0  0
    2.4664   10.8842    1.1911 H   0  0  0  0  0  0  0  0  0  0  0  0
   -1.3310    7.3811    0.1240 H   0  0  0  0  0  0  0  0  0  0  0  0
   -0.3961   10.6997   -0.6365 H   0  0  0  0  0  0  0  0  0  0  0  0
   -1.9295   12.6224   -0.7163 H   0  0  0  0  0  0  0  0  0  0  0  0
   -4.2471   12.3854    0.0769 H   0  0  0  0  0  0  0  0  0  0  0  0
   -3.5146    8.2911    1.0258 H   0  0  0  0  0  0  0  0  0  0  0  0
  1  2  1  0  0  0  0
  1 28  1  0  0  0  0
  1 29  1  0  0  0  0
  1 30  1  0  0  0  0
  2  3  1  0  0  0  0
  3  8  2  0  0  0  0
  3  4  1  0  0  0  0
  4  5  2  0  0  0  0
  4 31  1  0  0  0  0
  5  6  1  0  0  0  0
  5 32  1  0  0  0  0
  6  7  2  0  0  0  0
  6 33  1  0  0  0  0
  7  8  1  0  0  0  0
  7  9  1  0  0  0  0
  8 34  1  0  0  0  0
  9 10  1  0  0  0  0
  9 35  1  0  0  0  0
 10 15  2  0  0  0  0
 10 11  1  0  0  0  0
 11 19  2  0  0  0  0
 11 12  1  0  0  0  0
 12 13  1  0  0  0  0
 12 16  2  0  0  0  0
 13 14  1  0  0  0  0
 13 15  1  0  0  0  0
 16 17  1  0  0  0  0
 17 18  2  0  0  0  0
 17 36  1  0  0  0  0
 18 19  1  0  0  0  0
 19 20  1  0  0  0  0
 20 21  1  0  0  0  0
 20 37  1  0  0  0  0
 21 26  2  0  0  0  0
 21 22  1  0  0  0  0
 22 23  2  0  0  0  0
 22 38  1  0  0  0  0
 23 24  1  0  0  0  0
 23 39  1  0  0  0  0
 24 25  2  0  0  0  0
 24 40  1  0  0  0  0
 25 26  1  0  0  0  0
 25 27  1  0  0  0  0
 26 41  1  0  0  0  0
M  END
$$$$
ZINC03815171
  -OEChem-08230709403D

 44 47  0     0  0  0  0  0  0999 V2000
   -1.0009    0.7554   -0.5880 C   0  0  0  0  0  0  0  0  0  0  0  0
   -1.6258    1.2601    0.5938 O   0  0  0  0  0  0  0  0  0  0  0  0
   -2.8387    0.7410    0.9201 C   0  0  0  0  0  0  0  0  0  0  0  0
   -3.4155   -0.2341    0.1192 C   0  0  0  0  0  0  0  0  0  0  0  0
   -4.6484   -0.7600    0.4530 C   0  0  0  0  0  0  0  0  0  0  0  0
   -5.3074   -0.3158    1.5846 C   0  0  0  0  0  0  0  0  0  0  0  0
   -4.7346    0.6553    2.3845 C   0  0  0  0  0  0  0  0  0  0  0  0
   -3.4994    1.1811    2.0576 C   0  0  0  0  0  0  0  0  0  0  0  0
   -5.4554    1.1368    3.6173 C   0  0  0  0  0  0  0  0  0  0  0  0
   -5.0675    0.3111    4.7636 N   0  0  0  0  0  0  0  0  0  0  0  0
   -5.6093    0.5683    6.0246 C   0  0  0  0  0  0  0  0  0  0  0  0
   -5.3254   -0.1673    7.2530 C   0  0  0  0  0  0  0  0  0  0  0  0
   -6.0886    0.4430    8.2684 C   0  0  0  0  0  0  0  0  0  0  0  0
   -6.7813    1.4589    7.6832 N   0  0  0  0  0  0  0  0  0  0  0  0
   -7.4146    2.0731    8.1541 H   0  0  0  0  0  0  0  0  0  0  0  0
   -6.4688    1.5092    6.3205 N   0  0  0  0  0  0  0  0  0  0  0  0
   -6.0075   -0.0417    9.5072 N   0  0  0  0  0  0  0  0  0  0  0  0
   -5.2390   -1.0751    9.7743 C   0  0  0  0  0  0  0  0  0  0  0  0
   -4.5044   -1.6752    8.8549 N   0  0  0  0  0  0  0  0  0  0  0  0
   -4.5131   -1.2622    7.5909 C   0  0  0  0  0  0  0  0  0  0  0  0
   -3.7418   -1.8942    6.6338 N   0  0  0  0  0  0  0  0  0  0  0  0
   -3.0337   -3.0543    6.9609 C   0  0  0  0  0  0  0  0  0  0  0  0
   -3.5734   -3.9701    7.8555 C   0  0  0  0  0  0  0  0  0  0  0  0
   -2.8722   -5.1155    8.1767 C   0  0  0  0  0  0  0  0  0  0  0  0
   -1.6335   -5.3521    7.6091 C   0  0  0  0  0  0  0  0  0  0  0  0
   -1.0926   -4.4423    6.7176 C   0  0  0  0  0  0  0  0  0  0  0  0
   -1.7922   -3.2964    6.3881 C   0  0  0  0  0  0  0  0  0  0  0  0
    0.4624   -4.7438    6.0070 Cl  0  0  0  0  0  0  0  0  0  0  0  0
   -0.8420   -0.3180   -0.4849 H   0  0  0  0  0  0  0  0  0  0  0  0
   -0.0417    1.2525   -0.7324 H   0  0  0  0  0  0  0  0  0  0  0  0
   -1.6424    0.9467   -1.4483 H   0  0  0  0  0  0  0  0  0  0  0  0
   -2.9009   -0.5819   -0.7643 H   0  0  0  0  0  0  0  0  0  0  0  0
   -5.0978   -1.5191   -0.1702 H   0  0  0  0  0  0  0  0  0  0  0  0
   -6.2712   -0.7285    1.8441 H   0  0  0  0  0  0  0  0  0  0  0  0
   -3.0505    1.9369    2.6851 H   0  0  0  0  0  0  0  0  0  0  0  0
   -5.1892    2.1758    3.8113 H   0  0  0  0  0  0  0  0  0  0  0  0
   -6.5316    1.0603    3.4621 H   0  0  0  0  0  0  0  0  0  0  0  0
   -4.4342   -0.4143    4.6466 H   0  0  0  0  0  0  0  0  0  0  0  0
   -5.2015   -1.4437   10.7888 H   0  0  0  0  0  0  0  0  0  0  0  0
   -3.6918   -1.5327    5.7350 H   0  0  0  0  0  0  0  0  0  0  0  0
   -4.5405   -3.7862    8.2997 H   0  0  0  0  0  0  0  0  0  0  0  0
   -3.2917   -5.8277    8.8718 H   0  0  0  0  0  0  0  0  0  0  0  0
   -1.0874   -6.2490    7.8617 H   0  0  0  0  0  0  0  0  0  0  0  0
   -1.3719   -2.5886    5.6890 H   0  0  0  0  0  0  0  0  0  0  0  0
  1  2  1  0  0  0  0
  1 29  1  0  0  0  0
  1 30  1  0  0  0  0
  1 31  1  0  0  0  0
  2  3  1  0  0  0  0
  3  8  2  0  0  0  0
  3  4  1  0  0  0  0
  4  5  2  0  0  0  0
  4 32  1  0  0  0  0
  5  6  1  0  0  0  0
  5 33  1  0  0  0  0
  6  7  2  0  0  0  0
  6 34  1  0  0  0  0
  7  8  1  0  0  0  0
  7  9  1  0  0  0  0
  8 35  1  0  0  0  0
  9 10  1  0  0  0  0
  9 36  1  0  0  0  0
  9 37  1  0  0  0  0
 10 11  1  0  0  0  0
 10 38  1  0  0  0  0
 11 16  2  0  0  0  0
 11 12  1  0  0  0  0
 12 20  2  0  0  0  0
 12 13  1  0  0  0  0
 13 14  1  0  0  0  0
 13 17  2  0  0  0  0
 14 15  1  0  0  0  0
 14 16  1  0  0  0  0
 17 18  1  0  0  0  0
 18 19  2  0  0  0  0
 18 39  1  0  0  0  0
 19 20  1  0  0  0  0
 20 21  1  0  0  0  0
 21 22  1  0  0  0  0
 21 40  1  0  0  0  0
 22 27  2  0  0  0  0
 22 23  1  0  0  0  0
 23 24  2  0  0  0  0
 23 41  1  0  0  0  0
 24 25  1  0  0  0  0
 24 42  1  0  0  0  0
 25 26  2  0  0  0  0
 25 43  1  0  0  0  0
 26 27  1  0  0  0  0
 26 28  1  0  0  0  0
 27 44  1  0  0  0  0
M  END
$$$$
ZINC03815172
  -OEChem-08230709403D

 48 50  0     1  0  0  0  0  0999 V2000
   -6.1817    2.6630   -1.1252 C   0  0  0  0  0  0  0  0  0  0  0  0
   -6.7851    1.4931   -3.1574 C   0  0  0  0  0  0  0  0  0  0  0  0
   -5.1107    0.5626   -1.6764 C   0  0  0  0  0  0  0  0  0  0  0  0
   -4.8227    0.2232   -0.2126 C   0  0  0  0  0  0  0  0  0  0  0  0
   -3.5888   -0.5619   -0.1270 N   0  0  3  0  0  0  0  0  0  0  0  0
   -3.6443   -2.0240   -0.1999 C   0  0  0  0  0  0  0  0  0  0  0  0
   -2.3630    0.0818    0.0237 C   0  0  0  0  0  0  0  0  0  0  0  0
   -1.1975   -0.6654   -0.0016 C   0  0  0  0  0  0  0  0  0  0  0  0
    0.0199    0.0007    0.1514 C   0  0  0  0  0  0  0  0  0  0  0  0
    0.0114    1.4088    0.3255 C   0  0  0  0  0  0  0  0  0  0  0  0
   -1.2200    2.0755    0.3424 C   0  0  0  0  0  0  0  0  0  0  0  0
    1.1832    2.0418    0.4722 N   0  0  0  0  0  0  0  0  0  0  0  0
    2.3130    1.3791    0.4558 C   0  0  0  0  0  0  0  0  0  0  0  0
    2.3968    0.0675    0.2981 N   0  0  0  0  0  0  0  0  0  0  0  0
    1.3108   -0.6806    0.1421 C   0  0  0  0  0  0  0  0  0  0  0  0
    1.3992   -2.0476   -0.0228 N   0  0  0  0  0  0  0  0  0  0  0  0
    2.6510   -2.6575   -0.1435 C   0  0  0  0  0  0  0  0  0  0  0  0
    2.8501   -3.9416    0.3485 C   0  0  0  0  0  0  0  0  0  0  0  0
    4.0878   -4.5418    0.2275 C   0  0  0  0  0  0  0  0  0  0  0  0
    5.1289   -3.8668   -0.3832 C   0  0  0  0  0  0  0  0  0  0  0  0
    4.9344   -2.5882   -0.8748 C   0  0  0  0  0  0  0  0  0  0  0  0
    3.6967   -1.9836   -0.7606 C   0  0  0  0  0  0  0  0  0  0  0  0
    6.3609   -1.6700   -1.7100 Br  0  0  0  0  0  0  0  0  0  0  0  0
   -5.3834    3.2111   -1.6255 H   0  0  0  0  0  0  0  0  0  0  0  0
   -7.1124    3.2251   -1.2030 H   0  0  0  0  0  0  0  0  0  0  0  0
   -5.9260    2.5273   -0.0743 H   0  0  0  0  0  0  0  0  0  0  0  0
   -6.9681    0.5068   -3.5839 H   0  0  0  0  0  0  0  0  0  0  0  0
   -7.7030    2.0800   -3.1921 H   0  0  0  0  0  0  0  0  0  0  0  0
   -6.0086    1.9988   -3.7313 H   0  0  0  0  0  0  0  0  0  0  0  0
   -4.2825    1.1418   -2.0848 H   0  0  0  0  0  0  0  0  0  0  0  0
   -5.2260   -0.3588   -2.2471 H   0  0  0  0  0  0  0  0  0  0  0  0
   -5.6509   -0.3559    0.1958 H   0  0  0  0  0  0  0  0  0  0  0  0
   -4.7074    1.1446    0.3582 H   0  0  0  0  0  0  0  0  0  0  0  0
   -3.7590   -2.4337    0.8036 H   0  0  0  0  0  0  0  0  0  0  0  0
   -4.4927   -2.3252   -0.8144 H   0  0  0  0  0  0  0  0  0  0  0  0
   -2.7226   -2.4010   -0.6432 H   0  0  0  0  0  0  0  0  0  0  0  0
   -1.2293   -1.7366   -0.1359 H   0  0  0  0  0  0  0  0  0  0  0  0
   -1.2516    3.1470    0.4735 H   0  0  0  0  0  0  0  0  0  0  0  0
    3.2304    1.9358    0.5779 H   0  0  0  0  0  0  0  0  0  0  0  0
    0.5925   -2.5854   -0.0548 H   0  0  0  0  0  0  0  0  0  0  0  0
    2.0377   -4.4696    0.8256 H   0  0  0  0  0  0  0  0  0  0  0  0
    4.2428   -5.5399    0.6098 H   0  0  0  0  0  0  0  0  0  0  0  0
    6.0958   -4.3388   -0.4768 H   0  0  0  0  0  0  0  0  0  0  0  0
    3.5441   -0.9870   -1.1477 H   0  0  0  0  0  0  0  0  0  0  0  0
   -6.3685    1.3356   -1.7480 N   0  3  0  0  0  0  0  0  0  0  0  0
   -7.1013    0.8282   -1.2383 H   0  0  0  0  0  0  0  0  0  0  0  0
   -2.4116    1.4433    0.1898 N   0  3  0  0  0  0  0  0  0  0  0  0
   -3.3012    1.9560    0.1983 H   0  0  0  0  0  0  0  0  0  0  0  0
  1 24  1  0  0  0  0
  1 25  1  0  0  0  0
  1 26  1  0  0  0  0
  1 45  1  0  0  0  0
  2 27  1  0  0  0  0
  2 28  1  0  0  0  0
  2 29  1  0  0  0  0
  2 45  1  0  0  0  0
  3  4  1  0  0  0  0
  3 30  1  0  0  0  0
  3 31  1  0  0  0  0
  3 45  1  0  0  0  0
  4  5  1  0  0  0  0
  4 32  1  0  0  0  0
  4 33  1  0  0  0  0
  5  6  1  0  0  0  0
  5  7  1  0  0  0  0
  6 34  1  0  0  0  0
  6 35  1  0  0  0  0
  6 36  1  0  0  0  0
  7  8  2  0  0  0  0
  7 47  1  0  0  0  0
  8  9  1  0  0  0  0
  8 37  1  0  0  0  0
  9 15  2  0  0  0  0
  9 10  1  0  0  0  0
 10 11  1  0  0  0  0
 10 12  2  0  0  0  0
 11 38  1  0  0  0  0
 11 47  2  0  0  0  0
 12 13  1  0  0  0  0
 13 14  2  0  0  0  0
 13 39  1  0  0  0  0
 14 15  1  0  0  0  0
 15 16  1  0  0  0  0
 16 17  1  0  0  0  0
 16 40  1  0  0  0  0
 17 22  2  0  0  0  0
 17 18  1  0  0  0  0
 18 19  2  0  0  0  0
 18 41  1  0  0  0  0
 19 20  1  0  0  0  0
 19 42  1  0  0  0  0
 20 21  2  0  0  0  0
 20 43  1  0  0  0  0
 21 22  1  0  0  0  0
 21 23  1  0  0  0  0
 22 44  1  0  0  0  0
 45 46  1  0  0  0  0
 47 48  1  0  0  0  0
M  CHG  2  45   1  47   1
M  END
$$$$
ZINC03815173
  -OEChem-08230709403D

 54 56  0     0  0  0  0  0  0999 V2000
    0.4650  -11.0058    2.9589 C   0  0  0  0  0  0  0  0  0  0  0  0
   -1.2277  -11.7177    1.3807 C   0  0  0  0  0  0  0  0  0  0  0  0
   -0.4365   -9.4294    1.3574 C   0  0  0  0  0  0  0  0  0  0  0  0
    0.8302   -8.5713    1.3551 C   0  0  0  0  0  0  0  0  0  0  0  0
    0.4559   -7.1103    1.0976 C   0  0  0  0  0  0  0  0  0  0  0  0
    1.7226   -6.2521    1.0953 C   0  0  0  0  0  0  0  0  0  0  0  0
    1.3484   -4.7911    0.8377 C   0  0  0  0  0  0  0  0  0  0  0  0
    2.5612   -3.9694    0.8356 N   0  0  0  0  0  0  0  0  0  0  0  0
    2.4720   -2.6003    0.6204 C   0  0  0  0  0  0  0  0  0  0  0  0
    1.2299   -2.0292    0.4098 C   0  0  0  0  0  0  0  0  0  0  0  0
    1.1580   -0.6486    0.1946 C   0  0  0  0  0  0  0  0  0  0  0  0
    2.3673    0.0969    0.2036 C   0  0  0  0  0  0  0  0  0  0  0  0
    3.5750   -0.5685    0.4254 C   0  0  0  0  0  0  0  0  0  0  0  0
    2.2915    1.4922   -0.0143 C   0  0  0  0  0  0  0  0  0  0  0  0
    1.0937    2.0291   -0.2162 N   0  0  0  0  0  0  0  0  0  0  0  0
   -0.0056    1.2930   -0.2154 C   0  0  0  0  0  0  0  0  0  0  0  0
    0.0030   -0.0056   -0.0184 N   0  0  0  0  0  0  0  0  0  0  0  0
    3.4280    2.2722   -0.0180 N   0  0  0  0  0  0  0  0  0  0  0  0
    3.3212    3.6627   -0.1146 C   0  0  0  0  0  0  0  0  0  0  0  0
    2.2594    4.3230    0.4911 C   0  0  0  0  0  0  0  0  0  0  0  0
    2.1566    5.6966    0.3945 C   0  0  0  0  0  0  0  0  0  0  0  0
    3.1093    6.4157   -0.3040 C   0  0  0  0  0  0  0  0  0  0  0  0
    4.1680    5.7616   -0.9086 C   0  0  0  0  0  0  0  0  0  0  0  0
    4.2791    4.3874   -0.8114 C   0  0  0  0  0  0  0  0  0  0  0  0
    5.4681    6.7494   -1.8625 Br  0  0  0  0  0  0  0  0  0  0  0  0
   -0.2829  -10.7023    3.6914 H   0  0  0  0  0  0  0  0  0  0  0  0
    0.7227  -12.0533    3.1155 H   0  0  0  0  0  0  0  0  0  0  0  0
    1.3575  -10.3908    3.0746 H   0  0  0  0  0  0  0  0  0  0  0  0
   -1.5658  -11.6202    0.3491 H   0  0  0  0  0  0  0  0  0  0  0  0
   -0.9340  -12.7500    1.5708 H   0  0  0  0  0  0  0  0  0  0  0  0
   -2.0369  -11.4399    2.0560 H   0  0  0  0  0  0  0  0  0  0  0  0
   -1.1088   -9.0828    2.1422 H   0  0  0  0  0  0  0  0  0  0  0  0
   -0.9332   -9.3466    0.3907 H   0  0  0  0  0  0  0  0  0  0  0  0
    1.5025   -8.9179    0.5703 H   0  0  0  0  0  0  0  0  0  0  0  0
    1.3269   -8.6541    2.3219 H   0  0  0  0  0  0  0  0  0  0  0  0
   -0.2164   -6.7636    1.8823 H   0  0  0  0  0  0  0  0  0  0  0  0
   -0.0407   -7.0275    0.1308 H   0  0  0  0  0  0  0  0  0  0  0  0
    2.3949   -6.5988    0.3105 H   0  0  0  0  0  0  0  0  0  0  0  0
    2.2193   -6.3349    2.0620 H   0  0  0  0  0  0  0  0  0  0  0  0
    0.6760   -4.4445    1.6225 H   0  0  0  0  0  0  0  0  0  0  0  0
    0.8517   -4.7083   -0.1290 H   0  0  0  0  0  0  0  0  0  0  0  0
    3.4266   -4.3816    0.9845 H   0  0  0  0  0  0  0  0  0  0  0  0
    0.3360   -2.6352    0.4111 H   0  0  0  0  0  0  0  0  0  0  0  0
    4.5024   -0.0151    0.4350 H   0  0  0  0  0  0  0  0  0  0  0  0
   -0.9530    1.7815   -0.3890 H   0  0  0  0  0  0  0  0  0  0  0  0
    4.3019    1.8563    0.0464 H   0  0  0  0  0  0  0  0  0  0  0  0
    1.5149    3.7624    1.0368 H   0  0  0  0  0  0  0  0  0  0  0  0
    1.3313    6.2102    0.8653 H   0  0  0  0  0  0  0  0  0  0  0  0
    3.0268    7.4900   -0.3774 H   0  0  0  0  0  0  0  0  0  0  0  0
    5.1079    3.8775   -1.2799 H   0  0  0  0  0  0  0  0  0  0  0  0
   -0.0567  -10.8395    1.5860 N   0  3  0  0  0  0  0  0  0  0  0  0
    0.6770  -11.1000    0.9166 H   0  0  0  0  0  0  0  0  0  0  0  0
    3.6583   -1.9074    0.6355 N   0  3  0  0  0  0  0  0  0  0  0  0
    4.5576   -2.3758    0.7966 H   0  0  0  0  0  0  0  0  0  0  0  0
  1 26  1  0  0  0  0
  1 27  1  0  0  0  0
  1 28  1  0  0  0  0
  1 51  1  0  0  0  0
  2 29  1  0  0  0  0
  2 30  1  0  0  0  0
  2 31  1  0  0  0  0
  2 51  1  0  0  0  0
  3  4  1  0  0  0  0
  3 32  1  0  0  0  0
  3 33  1  0  0  0  0
  3 51  1  0  0  0  0
  4  5  1  0  0  0  0
  4 34  1  0  0  0  0
  4 35  1  0  0  0  0
  5  6  1  0  0  0  0
  5 36  1  0  0  0  0
  5 37  1  0  0  0  0
  6  7  1  0  0  0  0
  6 38  1  0  0  0  0
  6 39  1  0  0  0  0
  7  8  1  0  0  0  0
  7 40  1  0  0  0  0
  7 41  1  0  0  0  0
  8  9  1  0  0  0  0
  8 42  1  0  0  0  0
  9 10  2  0  0  0  0
  9 53  1  0  0  0  0
 10 11  1  0  0  0  0
 10 43  1  0  0  0  0
 11 17  2  0  0  0  0
 11 12  1  0  0  0  0
 12 13  1  0  0  0  0
 12 14  2  0  0  0  0
 13 44  1  0  0  0  0
 13 53  2  0  0  0  0
 14 15  1  0  0  0  0
 14 18  1  0  0  0  0
 15 16  2  0  0  0  0
 16 17  1  0  0  0  0
 16 45  1  0  0  0  0
 18 19  1  0  0  0  0
 18 46  1  0  0  0  0
 19 24  2  0  0  0  0
 19 20  1  0  0  0  0
 20 21  2  0  0  0  0
 20 47  1  0  0  0  0
 21 22  1  0  0  0  0
 21 48  1  0  0  0  0
 22 23  2  0  0  0  0
 22 49  1  0  0  0  0
 23 24  1  0  0  0  0
 23 25  1  0  0  0  0
 24 50  1  0  0  0  0
 51 52  1  0  0  0  0
 53 54  1  0  0  0  0
M  CHG  2  51   1  53   1
M  END
$$$$
ZINC03815174
  -OEChem-08230709403D

 55 59  0     0  0  0  0  0  0999 V2000
   -6.1715    5.8881    0.4752 C   0  0  0  0  0  0  0  0  0  0  0  0
   -4.9417    5.2657    0.5656 C   0  0  0  0  0  0  0  0  0  0  0  0
   -3.8283    5.8400   -0.0342 C   0  0  0  0  0  0  0  0  0  0  0  0
   -3.9542    7.0422   -0.7186 C   0  0  0  0  0  0  0  0  0  0  0  0
   -5.1881    7.6572   -0.8099 C   0  0  0  0  0  0  0  0  0  0  0  0
   -6.2953    7.0819   -0.2110 C   0  0  0  0  0  0  0  0  0  0  0  0
   -5.3628    9.2902   -1.7473 Br  0  0  0  0  0  0  0  0  0  0  0  0
   -2.5826    5.2123    0.0556 N   0  0  0  0  0  0  0  0  0  0  0  0
   -2.5014    3.8356    0.0419 C   0  0  0  0  0  0  0  0  0  0  0  0
   -1.2632    3.1770    0.2533 C   0  0  0  0  0  0  0  0  0  0  0  0
   -0.0852    3.8865    0.4824 C   0  0  0  0  0  0  0  0  0  0  0  0
    1.0991    3.1920    0.6832 C   0  0  0  0  0  0  0  0  0  0  0  0
    2.4819    3.6086    0.9440 C   0  0  0  0  0  0  0  0  0  0  0  0
    3.2149    2.4916    1.0541 C   0  0  0  0  0  0  0  0  0  0  0  0
    2.4204    1.3876    0.8860 N   0  0  0  0  0  0  0  0  0  0  0  0
    1.1176    1.7772    0.6568 C   0  0  0  0  0  0  0  0  0  0  0  0
   -0.0484    1.0704    0.4295 C   0  0  0  0  0  0  0  0  0  0  0  0
   -1.2455    1.7574    0.2198 C   0  0  0  0  0  0  0  0  0  0  0  0
   -2.4011    1.1053    0.0027 N   0  0  0  0  0  0  0  0  0  0  0  0
   -3.5151    1.7695   -0.1859 C   0  0  0  0  0  0  0  0  0  0  0  0
   -3.5787    3.0923   -0.1697 N   0  0  0  0  0  0  0  0  0  0  0  0
    2.8860   -0.0003    0.9416 C   0  0  0  0  0  0  0  0  0  0  0  0
    3.1886   -0.4939   -0.4746 C   0  0  0  0  0  0  0  0  0  0  0  0
    3.6749   -1.9434   -0.4165 C   0  0  0  0  0  0  0  0  0  0  0  0
    2.7368   -2.4994   -2.5793 C   0  0  0  0  0  0  0  0  0  0  0  0
    3.0920   -2.9387   -4.0023 C   0  0  0  0  0  0  0  0  0  0  0  0
    3.7895   -4.1861   -3.9506 O   0  0  0  0  0  0  0  0  0  0  0  0
    4.9915   -4.1420   -3.1770 C   0  0  0  0  0  0  0  0  0  0  0  0
    4.6556   -3.7150   -1.7457 C   0  0  0  0  0  0  0  0  0  0  0  0
   -7.0374    5.4417    0.9414 H   0  0  0  0  0  0  0  0  0  0  0  0
   -4.8461    4.3331    1.1018 H   0  0  0  0  0  0  0  0  0  0  0  0
   -3.0894    7.4937   -1.1819 H   0  0  0  0  0  0  0  0  0  0  0  0
   -7.2579    7.5667   -0.2795 H   0  0  0  0  0  0  0  0  0  0  0  0
   -1.7751    5.7451    0.1276 H   0  0  0  0  0  0  0  0  0  0  0  0
   -0.0943    4.9663    0.5032 H   0  0  0  0  0  0  0  0  0  0  0  0
    2.8411    4.6234    1.0308 H   0  0  0  0  0  0  0  0  0  0  0  0
    4.2772    2.4655    1.2471 H   0  0  0  0  0  0  0  0  0  0  0  0
   -0.0325   -0.0093    0.4097 H   0  0  0  0  0  0  0  0  0  0  0  0
   -4.4231    1.2124   -0.3632 H   0  0  0  0  0  0  0  0  0  0  0  0
    3.7908   -0.0560    1.5469 H   0  0  0  0  0  0  0  0  0  0  0  0
    2.1121   -0.6256    1.3867 H   0  0  0  0  0  0  0  0  0  0  0  0
    2.2838   -0.4382   -1.0798 H   0  0  0  0  0  0  0  0  0  0  0  0
    3.9626    0.1314   -0.9197 H   0  0  0  0  0  0  0  0  0  0  0  0
    4.5797   -1.9991    0.1888 H   0  0  0  0  0  0  0  0  0  0  0  0
    2.9010   -2.5687    0.0286 H   0  0  0  0  0  0  0  0  0  0  0  0
    2.0580   -3.2261   -2.1329 H   0  0  0  0  0  0  0  0  0  0  0  0
    2.2557   -1.5218   -2.6096 H   0  0  0  0  0  0  0  0  0  0  0  0
    3.7275   -2.1853   -4.4678 H   0  0  0  0  0  0  0  0  0  0  0  0
    2.1791   -3.0560   -4.5862 H   0  0  0  0  0  0  0  0  0  0  0  0
    5.6823   -3.4237   -3.6185 H   0  0  0  0  0  0  0  0  0  0  0  0
    5.4521   -5.1299   -3.1635 H   0  0  0  0  0  0  0  0  0  0  0  0
    5.5751   -3.6247   -1.1675 H   0  0  0  0  0  0  0  0  0  0  0  0
    4.0075   -4.4611   -1.2859 H   0  0  0  0  0  0  0  0  0  0  0  0
    3.9822   -2.4002   -1.7892 N   0  3  0  0  0  0  0  0  0  0  0  0
    4.6076   -1.7191   -2.2354 H   0  0  0  0  0  0  0  0  0  0  0  0
  1  6  2  0  0  0  0
  1  2  1  0  0  0  0
  1 30  1  0  0  0  0
  2  3  2  0  0  0  0
  2 31  1  0  0  0  0
  3  4  1  0  0  0  0
  3  8  1  0  0  0  0
  4  5  2  0  0  0  0
  4 32  1  0  0  0  0
  5  6  1  0  0  0  0
  5  7  1  0  0  0  0
  6 33  1  0  0  0  0
  8  9  1  0  0  0  0
  8 34  1  0  0  0  0
  9 21  2  0  0  0  0
  9 10  1  0  0  0  0
 10 18  2  0  0  0  0
 10 11  1  0  0  0  0
 11 12  2  0  0  0  0
 11 35  1  0  0  0  0
 12 16  1  0  0  0  0
 12 13  1  0  0  0  0
 13 14  2  0  0  0  0
 13 36  1  0  0  0  0
 14 15  1  0  0  0  0
 14 37  1  0  0  0  0
 15 16  1  0  0  0  0
 15 22  1  0  0  0  0
 16 17  2  0  0  0  0
 17 18  1  0  0  0  0
 17 38  1  0  0  0  0
 18 19  1  0  0  0  0
 19 20  2  0  0  0  0
 20 21  1  0  0  0  0
 20 39  1  0  0  0  0
 22 23  1  0  0  0  0
 22 40  1  0  0  0  0
 22 41  1  0  0  0  0
 23 24  1  0  0  0  0
 23 42  1  0  0  0  0
 23 43  1  0  0  0  0
 24 44  1  0  0  0  0
 24 45  1  0  0  0  0
 24 54  1  0  0  0  0
 25 26  1  0  0  0  0
 25 46  1  0  0  0  0
 25 47  1  0  0  0  0
 25 54  1  0  0  0  0
 26 27  1  0  0  0  0
 26 48  1  0  0  0  0
 26 49  1  0  0  0  0
 27 28  1  0  0  0  0
 28 29  1  0  0  0  0
 28 50  1  0  0  0  0
 28 51  1  0  0  0  0
 29 52  1  0  0  0  0
 29 53  1  0  0  0  0
 29 54  1  0  0  0  0
 54 55  1  0  0  0  0
M  CHG  1  54   1
M  END
$$$$
ZINC03815175
  -OEChem-08230709403D

 48 50  0     0  0  0  0  0  0999 V2000
   -0.3822   -9.3279    1.5895 C   0  0  0  0  0  0  0  0  0  0  0  0
    1.6048   -9.0582    0.2325 C   0  0  0  0  0  0  0  0  0  0  0  0
    0.4559   -7.1103    1.0976 C   0  0  0  0  0  0  0  0  0  0  0  0
    1.7226   -6.2521    1.0953 C   0  0  0  0  0  0  0  0  0  0  0  0
    1.3484   -4.7911    0.8377 C   0  0  0  0  0  0  0  0  0  0  0  0
    2.5612   -3.9694    0.8356 N   0  0  0  0  0  0  0  0  0  0  0  0
    2.4720   -2.6003    0.6204 C   0  0  0  0  0  0  0  0  0  0  0  0
    1.2299   -2.0292    0.4098 C   0  0  0  0  0  0  0  0  0  0  0  0
    1.1580   -0.6486    0.1946 C   0  0  0  0  0  0  0  0  0  0  0  0
    2.3673    0.0969    0.2036 C   0  0  0  0  0  0  0  0  0  0  0  0
    3.5750   -0.5685    0.4254 C   0  0  0  0  0  0  0  0  0  0  0  0
    2.2915    1.4922   -0.0143 C   0  0  0  0  0  0  0  0  0  0  0  0
    1.0937    2.0291   -0.2162 N   0  0  0  0  0  0  0  0  0  0  0  0
   -0.0056    1.2930   -0.2154 C   0  0  0  0  0  0  0  0  0  0  0  0
    0.0030   -0.0056   -0.0184 N   0  0  0  0  0  0  0  0  0  0  0  0
    3.4280    2.2722   -0.0180 N   0  0  0  0  0  0  0  0  0  0  0  0
    3.3212    3.6627   -0.1146 C   0  0  0  0  0  0  0  0  0  0  0  0
    2.2594    4.3230    0.4911 C   0  0  0  0  0  0  0  0  0  0  0  0
    2.1566    5.6966    0.3945 C   0  0  0  0  0  0  0  0  0  0  0  0
    3.1093    6.4157   -0.3040 C   0  0  0  0  0  0  0  0  0  0  0  0
    4.1680    5.7616   -0.9086 C   0  0  0  0  0  0  0  0  0  0  0  0
    4.2791    4.3874   -0.8114 C   0  0  0  0  0  0  0  0  0  0  0  0
    5.4681    6.7494   -1.8625 Br  0  0  0  0  0  0  0  0  0  0  0  0
   -1.0364   -9.2830    0.7188 H   0  0  0  0  0  0  0  0  0  0  0  0
   -0.0876  -10.3618    1.7697 H   0  0  0  0  0  0  0  0  0  0  0  0
   -0.9113   -8.9437    2.4617 H   0  0  0  0  0  0  0  0  0  0  0  0
    2.5203   -8.4779    0.1181 H   0  0  0  0  0  0  0  0  0  0  0  0
    1.8573  -10.0978    0.4414 H   0  0  0  0  0  0  0  0  0  0  0  0
    1.0226   -9.0035   -0.6874 H   0  0  0  0  0  0  0  0  0  0  0  0
   -0.2164   -6.7636    1.8823 H   0  0  0  0  0  0  0  0  0  0  0  0
   -0.0407   -7.0275    0.1308 H   0  0  0  0  0  0  0  0  0  0  0  0
    2.3949   -6.5988    0.3105 H   0  0  0  0  0  0  0  0  0  0  0  0
    2.2193   -6.3349    2.0620 H   0  0  0  0  0  0  0  0  0  0  0  0
    0.6760   -4.4445    1.6225 H   0  0  0  0  0  0  0  0  0  0  0  0
    0.8517   -4.7083   -0.1290 H   0  0  0  0  0  0  0  0  0  0  0  0
    3.4266   -4.3816    0.9845 H   0  0  0  0  0  0  0  0  0  0  0  0
    0.3360   -2.6352    0.4111 H   0  0  0  0  0  0  0  0  0  0  0  0
    4.5024   -0.0151    0.4350 H   0  0  0  0  0  0  0  0  0  0  0  0
   -0.9530    1.7815   -0.3890 H   0  0  0  0  0  0  0  0  0  0  0  0
    4.3019    1.8563    0.0464 H   0  0  0  0  0  0  0  0  0  0  0  0
    1.5149    3.7624    1.0368 H   0  0  0  0  0  0  0  0  0  0  0  0
    1.3313    6.2102    0.8653 H   0  0  0  0  0  0  0  0  0  0  0  0
    3.0268    7.4900   -0.3774 H   0  0  0  0  0  0  0  0  0  0  0  0
    5.1079    3.8775   -1.2799 H   0  0  0  0  0  0  0  0  0  0  0  0
    0.8315   -8.5139    1.3685 N   0  3  0  0  0  0  0  0  0  0  0  0
    1.4133   -8.5462    2.2139 H   0  0  0  0  0  0  0  0  0  0  0  0
    3.6583   -1.9074    0.6355 N   0  3  0  0  0  0  0  0  0  0  0  0
    4.5576   -2.3758    0.7966 H   0  0  0  0  0  0  0  0  0  0  0  0
  1 24  1  0  0  0  0
  1 25  1  0  0  0  0
  1 26  1  0  0  0  0
  1 45  1  0  0  0  0
  2 27  1  0  0  0  0
  2 28  1  0  0  0  0
  2 29  1  0  0  0  0
  2 45  1  0  0  0  0
  3  4  1  0  0  0  0
  3 30  1  0  0  0  0
  3 31  1  0  0  0  0
  3 45  1  0  0  0  0
  4  5  1  0  0  0  0
  4 32  1  0  0  0  0
  4 33  1  0  0  0  0
  5  6  1  0  0  0  0
  5 34  1  0  0  0  0
  5 35  1  0  0  0  0
  6  7  1  0  0  0  0
  6 36  1  0  0  0  0
  7  8  2  0  0  0  0
  7 47  1  0  0  0  0
  8  9  1  0  0  0  0
  8 37  1  0  0  0  0
  9 15  2  0  0  0  0
  9 10  1  0  0  0  0
 10 11  1  0  0  0  0
 10 12  2  0  0  0  0
 11 38  1  0  0  0  0
 11 47  2  0  0  0  0
 12 13  1  0  0  0  0
 12 16  1  0  0  0  0
 13 14  2  0  0  0  0
 14 15  1  0  0  0  0
 14 39  1  0  0  0  0
 16 17  1  0  0  0  0
 16 40  1  0  0  0  0
 17 22  2  0  0  0  0
 17 18  1  0  0  0  0
 18 19  2  0  0  0  0
 18 41  1  0  0  0  0
 19 20  1  0  0  0  0
 19 42  1  0  0  0  0
 20 21  2  0  0  0  0
 20 43  1  0  0  0  0
 21 22  1  0  0  0  0
 21 23  1  0  0  0  0
 22 44  1  0  0  0  0
 45 46  1  0  0  0  0
 47 48  1  0  0  0  0
M  CHG  2  45   1  47   1
M  END
$$$$
ZINC03815176
  -OEChem-08230709403D

 33 35  0     0  0  0  0  0  0999 V2000
    2.1259    9.7741   -0.2114 C   0  0  0  0  0  0  0  0  0  0  0  0
    0.7879   10.3641   -0.2994 N   0  0  0  0  0  0  0  0  0  0  0  0
   -0.3375    9.5437   -0.2815 C   0  0  0  0  0  0  0  0  0  0  0  0
   -0.1750    8.1724   -0.1797 C   0  0  0  0  0  0  0  0  0  0  0  0
   -1.3170    7.3694   -0.1637 C   0  0  0  0  0  0  0  0  0  0  0  0
   -2.5900    7.9897   -0.2515 C   0  0  0  0  0  0  0  0  0  0  0  0
   -2.6511    9.3852   -0.3514 C   0  0  0  0  0  0  0  0  0  0  0  0
   -3.6818    7.2133   -0.2346 N   0  0  0  0  0  0  0  0  0  0  0  0
   -3.5803    5.9107   -0.1393 C   0  0  0  0  0  0  0  0  0  0  0  0
   -2.4278    5.2645   -0.0595 N   0  0  0  0  0  0  0  0  0  0  0  0
   -1.2696    5.9142   -0.0596 C   0  0  0  0  0  0  0  0  0  0  0  0
   -0.0691    5.2401    0.0295 N   0  0  0  0  0  0  0  0  0  0  0  0
   -0.0492    3.8426    0.0113 C   0  0  0  0  0  0  0  0  0  0  0  0
   -0.9944    3.1426   -0.7277 C   0  0  0  0  0  0  0  0  0  0  0  0
   -0.9722    1.7618   -0.7432 C   0  0  0  0  0  0  0  0  0  0  0  0
   -0.0107    1.0761   -0.0237 C   0  0  0  0  0  0  0  0  0  0  0  0
    0.9283    1.7698    0.7176 C   0  0  0  0  0  0  0  0  0  0  0  0
    0.9156    3.1507    0.7325 C   0  0  0  0  0  0  0  0  0  0  0  0
    2.2183    9.2207    0.7231 H   0  0  0  0  0  0  0  0  0  0  0  0
    2.2804    9.0969   -1.0515 H   0  0  0  0  0  0  0  0  0  0  0  0
    2.8747   10.5657   -0.2404 H   0  0  0  0  0  0  0  0  0  0  0  0
    0.6857   11.3261   -0.3700 H   0  0  0  0  0  0  0  0  0  0  0  0
    0.8103    7.7349   -0.1145 H   0  0  0  0  0  0  0  0  0  0  0  0
   -3.6088    9.8798   -0.4194 H   0  0  0  0  0  0  0  0  0  0  0  0
   -4.4905    5.3295   -0.1299 H   0  0  0  0  0  0  0  0  0  0  0  0
    0.7612    5.7360    0.1047 H   0  0  0  0  0  0  0  0  0  0  0  0
   -1.7461    3.6775   -1.2893 H   0  0  0  0  0  0  0  0  0  0  0  0
   -1.7068    1.2169   -1.3175 H   0  0  0  0  0  0  0  0  0  0  0  0
    0.0043   -0.0037   -0.0372 H   0  0  0  0  0  0  0  0  0  0  0  0
    1.6751    1.2312    1.2819 H   0  0  0  0  0  0  0  0  0  0  0  0
    1.6517    3.6920    1.3083 H   0  0  0  0  0  0  0  0  0  0  0  0
   -1.5505   10.1798   -0.3683 N   0  3  0  0  0  0  0  0  0  0  0  0
   -1.6218   11.2014   -0.4422 H   0  0  0  0  0  0  0  0  0  0  0  0
  1  2  1  0  0  0  0
  1 19  1  0  0  0  0
  1 20  1  0  0  0  0
  1 21  1  0  0  0  0
  2  3  1  0  0  0  0
  2 22  1  0  0  0  0
  3  4  2  0  0  0  0
  3 32  1  0  0  0  0
  4  5  1  0  0  0  0
  4 23  1  0  0  0  0
  5 11  2  0  0  0  0
  5  6  1  0  0  0  0
  6  7  1  0  0  0  0
  6  8  2  0  0  0  0
  7 24  1  0  0  0  0
  7 32  2  0  0  0  0
  8  9  1  0  0  0  0
  9 10  2  0  0  0  0
  9 25  1  0  0  0  0
 10 11  1  0  0  0  0
 11 12  1  0  0  0  0
 12 13  1  0  0  0  0
 12 26  1  0  0  0  0
 13 18  2  0  0  0  0
 13 14  1  0  0  0  0
 14 15  2  0  0  0  0
 14 27  1  0  0  0  0
 15 16  1  0  0  0  0
 15 28  1  0  0  0  0
 16 17  2  0  0  0  0
 16 29  1  0  0  0  0
 17 18  1  0  0  0  0
 17 30  1  0  0  0  0
 18 31  1  0  0  0  0
 32 33  1  0  0  0  0
M  CHG  1  32   1
M  END
$$$$
ZINC03815177
  -OEChem-08230709403D

 53 55  0     0  0  0  0  0  0999 V2000
   -0.7343    6.9530    2.6860 C   0  0  0  0  0  0  0  0  0  0  0  0
   -0.3361    5.6412    2.5170 C   0  0  0  0  0  0  0  0  0  0  0  0
    0.7594    5.3469    1.7154 C   0  0  0  0  0  0  0  0  0  0  0  0
    1.4546    6.3741    1.0900 C   0  0  0  0  0  0  0  0  0  0  0  0
    1.0487    7.6840    1.2595 C   0  0  0  0  0  0  0  0  0  0  0  0
   -0.0437    7.9732    2.0587 C   0  0  0  0  0  0  0  0  0  0  0  0
    1.9903    9.0831    0.4042 Br  0  0  0  0  0  0  0  0  0  0  0  0
    1.1649    4.0203    1.5429 N   0  0  0  0  0  0  0  0  0  0  0  0
    0.2266    3.0109    1.5150 C   0  0  0  0  0  0  0  0  0  0  0  0
    0.6196    1.6538    1.4539 C   0  0  0  0  0  0  0  0  0  0  0  0
    1.9582    1.2556    1.4193 C   0  0  0  0  0  0  0  0  0  0  0  0
    1.3384   -0.9786    1.3359 C   0  0  0  0  0  0  0  0  0  0  0  0
   -0.0117   -0.6809    1.3671 C   0  0  0  0  0  0  0  0  0  0  0  0
   -0.3978    0.6630    1.4276 C   0  0  0  0  0  0  0  0  0  0  0  0
   -1.6790    1.0500    1.4611 N   0  0  0  0  0  0  0  0  0  0  0  0
   -1.9842    2.3263    1.5173 C   0  0  0  0  0  0  0  0  0  0  0  0
   -1.0726    3.2847    1.5436 N   0  0  0  0  0  0  0  0  0  0  0  0
    1.7386   -2.3072    1.2758 N   0  0  0  0  0  0  0  0  0  0  0  0
    0.7349   -3.3740    1.2462 C   0  0  0  0  0  0  0  0  0  0  0  0
    1.4361   -4.7323    1.1806 C   0  0  0  0  0  0  0  0  0  0  0  0
   -0.1446   -5.9026   -0.2316 C   0  0  0  0  0  0  0  0  0  0  0  0
   -1.3517   -6.8423   -0.2020 C   0  0  0  0  0  0  0  0  0  0  0  0
   -2.3821   -6.2689    0.6052 O   0  0  0  0  0  0  0  0  0  0  0  0
    0.9974   -7.0853    1.5459 C   0  0  0  0  0  0  0  0  0  0  0  0
    1.1147   -7.1070    3.0713 C   0  0  0  0  0  0  0  0  0  0  0  0
   -0.1892   -7.0261    3.6504 O   0  0  0  0  0  0  0  0  0  0  0  0
   -1.5861    7.1820    3.3092 H   0  0  0  0  0  0  0  0  0  0  0  0
   -0.8763    4.8449    3.0074 H   0  0  0  0  0  0  0  0  0  0  0  0
    2.3093    6.1490    0.4694 H   0  0  0  0  0  0  0  0  0  0  0  0
   -0.3570    8.9980    2.1928 H   0  0  0  0  0  0  0  0  0  0  0  0
    2.1066    3.8101    1.4429 H   0  0  0  0  0  0  0  0  0  0  0  0
    2.7428    1.9975    1.4390 H   0  0  0  0  0  0  0  0  0  0  0  0
   -0.7514   -1.4675    1.3449 H   0  0  0  0  0  0  0  0  0  0  0  0
   -3.0270    2.6063    1.5385 H   0  0  0  0  0  0  0  0  0  0  0  0
    2.6827   -2.5288    1.2535 H   0  0  0  0  0  0  0  0  0  0  0  0
    0.1243   -3.3234    2.1477 H   0  0  0  0  0  0  0  0  0  0  0  0
    0.0992   -3.2505    0.3694 H   0  0  0  0  0  0  0  0  0  0  0  0
    2.0663   -4.7733    0.2923 H   0  0  0  0  0  0  0  0  0  0  0  0
    2.0522   -4.8664    2.0697 H   0  0  0  0  0  0  0  0  0  0  0  0
   -0.4611   -4.9152   -0.5676 H   0  0  0  0  0  0  0  0  0  0  0  0
    0.6058   -6.2965   -0.9171 H   0  0  0  0  0  0  0  0  0  0  0  0
   -1.7235   -6.9883   -1.2162 H   0  0  0  0  0  0  0  0  0  0  0  0
   -1.0538   -7.8032    0.2176 H   0  0  0  0  0  0  0  0  0  0  0  0
   -3.1797   -6.8119    0.6690 H   0  0  0  0  0  0  0  0  0  0  0  0
    0.3471   -7.8970    1.2199 H   0  0  0  0  0  0  0  0  0  0  0  0
    1.9857   -7.2116    1.1037 H   0  0  0  0  0  0  0  0  0  0  0  0
    1.5950   -8.0336    3.3856 H   0  0  0  0  0  0  0  0  0  0  0  0
    1.7124   -6.2576    3.4019 H   0  0  0  0  0  0  0  0  0  0  0  0
   -0.1913   -7.0348    4.6173 H   0  0  0  0  0  0  0  0  0  0  0  0
    2.3456   -0.0441    1.3606 N   0  3  0  0  0  0  0  0  0  0  0  0
    3.3360   -0.3139    1.3359 H   0  0  0  0  0  0  0  0  0  0  0  0
    0.4083   -5.7935    1.1348 N   0  3  0  0  0  0  0  0  0  0  0  0
   -0.3502   -5.5515    1.7832 H   0  0  0  0  0  0  0  0  0  0  0  0
  1  6  2  0  0  0  0
  1  2  1  0  0  0  0
  1 27  1  0  0  0  0
  2  3  2  0  0  0  0
  2 28  1  0  0  0  0
  3  4  1  0  0  0  0
  3  8  1  0  0  0  0
  4  5  2  0  0  0  0
  4 29  1  0  0  0  0
  5  6  1  0  0  0  0
  5  7  1  0  0  0  0
  6 30  1  0  0  0  0
  8  9  1  0  0  0  0
  8 31  1  0  0  0  0
  9 17  2  0  0  0  0
  9 10  1  0  0  0  0
 10 14  2  0  0  0  0
 10 11  1  0  0  0  0
 11 32  1  0  0  0  0
 11 50  2  0  0  0  0
 12 13  2  0  0  0  0
 12 18  1  0  0  0  0
 12 50  1  0  0  0  0
 13 14  1  0  0  0  0
 13 33  1  0  0  0  0
 14 15  1  0  0  0  0
 15 16  2  0  0  0  0
 16 17  1  0  0  0  0
 16 34  1  0  0  0  0
 18 19  1  0  0  0  0
 18 35  1  0  0  0  0
 19 20  1  0  0  0  0
 19 36  1  0  0  0  0
 19 37  1  0  0  0  0
 20 38  1  0  0  0  0
 20 39  1  0  0  0  0
 20 52  1  0  0  0  0
 21 22  1  0  0  0  0
 21 40  1  0  0  0  0
 21 41  1  0  0  0  0
 21 52  1  0  0  0  0
 22 23  1  0  0  0  0
 22 42  1  0  0  0  0
 22 43  1  0  0  0  0
 23 44  1  0  0  0  0
 24 25  1  0  0  0  0
 24 45  1  0  0  0  0
 24 46  1  0  0  0  0
 24 52  1  0  0  0  0
 25 26  1  0  0  0  0
 25 47  1  0  0  0  0
 25 48  1  0  0  0  0
 26 49  1  0  0  0  0
 50 51  1  0  0  0  0
 52 53  1  0  0  0  0
M  CHG  2  50   1  52   1
M  END
$$$$
ZINC03815178
  -OEChem-08230709403D

 56 59  0     0  0  0  0  0  0999 V2000
   -1.9876    0.9754   -1.4828 C   0  0  0  0  0  0  0  0  0  0  0  0
   -0.9700    1.7492   -0.6848 C   0  0  0  0  0  0  0  0  0  0  0  0
   -0.0172    1.0758    0.0579 C   0  0  0  0  0  0  0  0  0  0  0  0
    0.9217    1.7819    0.7869 C   0  0  0  0  0  0  0  0  0  0  0  0
    0.9074    3.1631    0.7801 C   0  0  0  0  0  0  0  0  0  0  0  0
   -0.0515    3.8425    0.0400 C   0  0  0  0  0  0  0  0  0  0  0  0
   -0.9935    3.1299   -0.6914 C   0  0  0  0  0  0  0  0  0  0  0  0
   -0.0691    5.2402    0.0313 N   0  0  0  0  0  0  0  0  0  0  0  0
    1.1117    5.9450    0.1283 C   0  0  0  0  0  0  0  0  0  0  0  0
    1.1105    7.3549    0.2380 C   0  0  0  0  0  0  0  0  0  0  0  0
   -0.0649    8.1095    0.2667 C   0  0  0  0  0  0  0  0  0  0  0  0
    1.1493   10.0761    0.4689 C   0  0  0  0  0  0  0  0  0  0  0  0
    2.3633    9.4141    0.4546 C   0  0  0  0  0  0  0  0  0  0  0  0
    2.3618    8.0193    0.3396 C   0  0  0  0  0  0  0  0  0  0  0  0
    3.4849    7.2909    0.3171 N   0  0  0  0  0  0  0  0  0  0  0  0
    3.4244    5.9834    0.2078 C   0  0  0  0  0  0  0  0  0  0  0  0
    2.2834    5.3200    0.1159 N   0  0  0  0  0  0  0  0  0  0  0  0
    1.1330   11.4602    0.5829 N   0  0  0  0  0  0  0  0  0  0  0  0
    2.3924   12.2016    0.6862 C   0  0  0  0  0  0  0  0  0  0  0  0
    2.0954   13.6981    0.8001 C   0  0  0  0  0  0  0  0  0  0  0  0
    3.4106   14.4724    0.9079 C   0  0  0  0  0  0  0  0  0  0  0  0
    2.5253   16.4232   -0.2225 C   0  0  0  0  0  0  0  0  0  0  0  0
    2.1902   17.9063   -0.0442 C   0  0  0  0  0  0  0  0  0  0  0  0
    3.3767   18.6178    0.3184 O   0  0  0  0  0  0  0  0  0  0  0  0
    3.9870   18.1438    1.5218 C   0  0  0  0  0  0  0  0  0  0  0  0
    4.3404   16.6630    1.3594 C   0  0  0  0  0  0  0  0  0  0  0  0
   -2.8658    0.7862   -0.8656 H   0  0  0  0  0  0  0  0  0  0  0  0
   -2.2777    1.5538   -2.3600 H   0  0  0  0  0  0  0  0  0  0  0  0
   -1.5552    0.0264   -1.8001 H   0  0  0  0  0  0  0  0  0  0  0  0
   -0.0039   -0.0041    0.0648 H   0  0  0  0  0  0  0  0  0  0  0  0
    1.6673    1.2530    1.3619 H   0  0  0  0  0  0  0  0  0  0  0  0
    1.6409    3.7141    1.3501 H   0  0  0  0  0  0  0  0  0  0  0  0
   -1.7403    3.6551   -1.2683 H   0  0  0  0  0  0  0  0  0  0  0  0
   -0.9121    5.7142   -0.0430 H   0  0  0  0  0  0  0  0  0  0  0  0
   -1.0238    7.6180    0.1945 H   0  0  0  0  0  0  0  0  0  0  0  0
    3.2915    9.9610    0.5300 H   0  0  0  0  0  0  0  0  0  0  0  0
    4.3482    5.4242    0.1926 H   0  0  0  0  0  0  0  0  0  0  0  0
    0.2878   11.9360    0.5942 H   0  0  0  0  0  0  0  0  0  0  0  0
    2.9372   11.8709    1.5704 H   0  0  0  0  0  0  0  0  0  0  0  0
    2.9962   12.0176   -0.2025 H   0  0  0  0  0  0  0  0  0  0  0  0
    1.5505   14.0288   -0.0842 H   0  0  0  0  0  0  0  0  0  0  0  0
    1.4916   13.8821    1.6888 H   0  0  0  0  0  0  0  0  0  0  0  0
    3.9554   14.1417    1.7922 H   0  0  0  0  0  0  0  0  0  0  0  0
    4.0144   14.2884    0.0193 H   0  0  0  0  0  0  0  0  0  0  0  0
    3.2314   16.3058   -1.0445 H   0  0  0  0  0  0  0  0  0  0  0  0
    1.6136   15.8680   -0.4429 H   0  0  0  0  0  0  0  0  0  0  0  0
    1.4437   18.0189    0.7420 H   0  0  0  0  0  0  0  0  0  0  0  0
    1.7978   18.3058   -0.9794 H   0  0  0  0  0  0  0  0  0  0  0  0
    3.2928   18.2632    2.3536 H   0  0  0  0  0  0  0  0  0  0  0  0
    4.8942   18.7149    1.7192 H   0  0  0  0  0  0  0  0  0  0  0  0
    4.7536   16.2828    2.2937 H   0  0  0  0  0  0  0  0  0  0  0  0
    5.0755   16.5495    0.5627 H   0  0  0  0  0  0  0  0  0  0  0  0
   -0.0768    9.4624    0.3778 N   0  3  0  0  0  0  0  0  0  0  0  0
   -0.9531    9.9973    0.3930 H   0  0  0  0  0  0  0  0  0  0  0  0
    3.1077   15.9142    1.0373 N   0  3  0  0  0  0  0  0  0  0  0  0
    2.4289   16.0458    1.7964 H   0  0  0  0  0  0  0  0  0  0  0  0
  1  2  1  0  0  0  0
  1 27  1  0  0  0  0
  1 28  1  0  0  0  0
  1 29  1  0  0  0  0
  2  7  2  0  0  0  0
  2  3  1  0  0  0  0
  3  4  2  0  0  0  0
  3 30  1  0  0  0  0
  4  5  1  0  0  0  0
  4 31  1  0  0  0  0
  5  6  2  0  0  0  0
  5 32  1  0  0  0  0
  6  7  1  0  0  0  0
  6  8  1  0  0  0  0
  7 33  1  0  0  0  0
  8  9  1  0  0  0  0
  8 34  1  0  0  0  0
  9 17  2  0  0  0  0
  9 10  1  0  0  0  0
 10 14  2  0  0  0  0
 10 11  1  0  0  0  0
 11 35  1  0  0  0  0
 11 53  2  0  0  0  0
 12 13  2  0  0  0  0
 12 18  1  0  0  0  0
 12 53  1  0  0  0  0
 13 14  1  0  0  0  0
 13 36  1  0  0  0  0
 14 15  1  0  0  0  0
 15 16  2  0  0  0  0
 16 17  1  0  0  0  0
 16 37  1  0  0  0  0
 18 19  1  0  0  0  0
 18 38  1  0  0  0  0
 19 20  1  0  0  0  0
 19 39  1  0  0  0  0
 19 40  1  0  0  0  0
 20 21  1  0  0  0  0
 20 41  1  0  0  0  0
 20 42  1  0  0  0  0
 21 43  1  0  0  0  0
 21 44  1  0  0  0  0
 21 55  1  0  0  0  0
 22 23  1  0  0  0  0
 22 45  1  0  0  0  0
 22 46  1  0  0  0  0
 22 55  1  0  0  0  0
 23 24  1  0  0  0  0
 23 47  1  0  0  0  0
 23 48  1  0  0  0  0
 24 25  1  0  0  0  0
 25 26  1  0  0  0  0
 25 49  1  0  0  0  0
 25 50  1  0  0  0  0
 26 51  1  0  0  0  0
 26 52  1  0  0  0  0
 26 55  1  0  0  0  0
 53 54  1  0  0  0  0
 55 56  1  0  0  0  0
M  CHG  2  53   1  55   1
M  END
$$$$
ZINC03815179
  -OEChem-08230709403D

 33 36  0     0  0  0  0  0  0999 V2000
   -9.9562    1.1299   -0.2086 C   0  0  0  0  0  0  0  0  0  0  0  0
   -9.6976    2.3443    0.4002 C   0  0  0  0  0  0  0  0  0  0  0  0
   -8.4003    2.8080    0.4962 C   0  0  0  0  0  0  0  0  0  0  0  0
   -7.3545    2.0529   -0.0196 C   0  0  0  0  0  0  0  0  0  0  0  0
   -7.6185    0.8359   -0.6353 C   0  0  0  0  0  0  0  0  0  0  0  0
   -8.9176    0.3760   -0.7236 C   0  0  0  0  0  0  0  0  0  0  0  0
   -6.0405    2.5194    0.0754 N   0  0  0  0  0  0  0  0  0  0  0  0
   -4.9941    1.6202    0.2188 C   0  0  0  0  0  0  0  0  0  0  0  0
   -3.6746    2.0536    0.2003 C   0  0  0  0  0  0  0  0  0  0  0  0
   -2.6176    1.1472    0.3454 C   0  0  0  0  0  0  0  0  0  0  0  0
   -1.2599    1.7250    0.3037 C   0  0  0  0  0  0  0  0  0  0  0  0
   -0.0320    1.0379    0.4319 C   0  0  0  0  0  0  0  0  0  0  0  0
    1.1622    1.7209    0.3785 C   0  0  0  0  0  0  0  0  0  0  0  0
    1.1931    3.1027    0.2032 C   0  0  0  0  0  0  0  0  0  0  0  0
    0.0068    3.7969    0.0811 C   0  0  0  0  0  0  0  0  0  0  0  0
   -1.1940    3.1174    0.1339 C   0  0  0  0  0  0  0  0  0  0  0  0
   -2.8894    3.6316    0.0210 S   0  0  0  0  0  0  0  0  0  0  0  0
    2.3651    1.0155    0.5020 N   0  0  0  0  0  0  0  0  0  0  0  0
   -2.9650   -0.1503    0.5011 N   0  0  0  0  0  0  0  0  0  0  0  0
   -4.2198   -0.5233    0.5137 C   0  0  0  0  0  0  0  0  0  0  0  0
   -5.2285    0.3183    0.3782 N   0  0  0  0  0  0  0  0  0  0  0  0
  -10.9717    0.7697   -0.2824 H   0  0  0  0  0  0  0  0  0  0  0  0
  -10.5110    2.9307    0.8014 H   0  0  0  0  0  0  0  0  0  0  0  0
   -8.1990    3.7566    0.9715 H   0  0  0  0  0  0  0  0  0  0  0  0
   -6.8082    0.2484   -1.0411 H   0  0  0  0  0  0  0  0  0  0  0  0
   -9.1232   -0.5717   -1.1991 H   0  0  0  0  0  0  0  0  0  0  0  0
   -5.8603    3.4718    0.0410 H   0  0  0  0  0  0  0  0  0  0  0  0
   -0.0300   -0.0334    0.5686 H   0  0  0  0  0  0  0  0  0  0  0  0
    2.1371    3.6259    0.1635 H   0  0  0  0  0  0  0  0  0  0  0  0
    0.0175    4.8683   -0.0548 H   0  0  0  0  0  0  0  0  0  0  0  0
    2.3527    0.0533    0.6240 H   0  0  0  0  0  0  0  0  0  0  0  0
    3.2109    1.4889    0.4655 H   0  0  0  0  0  0  0  0  0  0  0  0
   -4.4413   -1.5725    0.6417 H   0  0  0  0  0  0  0  0  0  0  0  0
  1  6  2  0  0  0  0
  1  2  1  0  0  0  0
  1 22  1  0  0  0  0
  2  3  2  0  0  0  0
  2 23  1  0  0  0  0
  3  4  1  0  0  0  0
  3 24  1  0  0  0  0
  4  5  2  0  0  0  0
  4  7  1  0  0  0  0
  5  6  1  0  0  0  0
  5 25  1  0  0  0  0
  6 26  1  0  0  0  0
  7  8  1  0  0  0  0
  7 27  1  0  0  0  0
  8 21  2  0  0  0  0
  8  9  1  0  0  0  0
  9 17  1  0  0  0  0
  9 10  2  0  0  0  0
 10 11  1  0  0  0  0
 10 19  1  0  0  0  0
 11 16  2  0  0  0  0
 11 12  1  0  0  0  0
 12 13  2  0  0  0  0
 12 28  1  0  0  0  0
 13 14  1  0  0  0  0
 13 18  1  0  0  0  0
 14 15  2  0  0  0  0
 14 29  1  0  0  0  0
 15 16  1  0  0  0  0
 15 30  1  0  0  0  0
 16 17  1  0  0  0  0
 18 31  1  0  0  0  0
 18 32  1  0  0  0  0
 19 20  2  0  0  0  0
 20 21  1  0  0  0  0
 20 33  1  0  0  0  0
M  END
$$$$
ZINC03815180
  -OEChem-08230709403D

 39 42  0     0  0  0  0  0  0999 V2000
    2.9488    3.9719   -1.6292 C   0  0  0  0  0  0  0  0  0  0  0  0
    3.9509    3.2254   -0.7868 C   0  0  0  0  0  0  0  0  0  0  0  0
    5.3540    3.5718   -0.5926 C   0  0  0  0  0  0  0  0  0  0  0  0
    5.8909    2.5939    0.2679 C   0  0  0  0  0  0  0  0  0  0  0  0
    4.8827    1.7219    0.5765 N   0  0  0  0  0  0  0  0  0  0  0  0
    4.9723    0.9502    1.1572 H   0  0  0  0  0  0  0  0  0  0  0  0
    3.7216    2.1009   -0.0625 C   0  0  0  0  0  0  0  0  0  0  0  0
    2.4257    1.3953    0.0318 C   0  0  0  0  0  0  0  0  0  0  0  0
    1.2478    2.1167    0.2320 C   0  0  0  0  0  0  0  0  0  0  0  0
    0.0418    1.4523    0.3182 C   0  0  0  0  0  0  0  0  0  0  0  0
   -0.0015    0.0738    0.2071 C   0  0  0  0  0  0  0  0  0  0  0  0
    1.1626   -0.6473    0.0095 C   0  0  0  0  0  0  0  0  0  0  0  0
    2.3751    0.0049   -0.0789 C   0  0  0  0  0  0  0  0  0  0  0  0
    7.1755    2.6822    0.6077 N   0  0  0  0  0  0  0  0  0  0  0  0
    7.9268    3.6608    0.1500 C   0  0  0  0  0  0  0  0  0  0  0  0
    7.4653    4.5979   -0.6580 N   0  0  0  0  0  0  0  0  0  0  0  0
    6.1959    4.5970   -1.0548 C   0  0  0  0  0  0  0  0  0  0  0  0
    5.7168    5.5807   -1.9019 N   0  0  0  0  0  0  0  0  0  0  0  0
    6.5361    6.6553   -2.2590 C   0  0  0  0  0  0  0  0  0  0  0  0
    6.4139    7.2366   -3.5150 C   0  0  0  0  0  0  0  0  0  0  0  0
    7.2246    8.2981   -3.8653 C   0  0  0  0  0  0  0  0  0  0  0  0
    8.1576    8.7836   -2.9675 C   0  0  0  0  0  0  0  0  0  0  0  0
    8.2825    8.2075   -1.7155 C   0  0  0  0  0  0  0  0  0  0  0  0
    7.4701    7.1479   -1.3570 C   0  0  0  0  0  0  0  0  0  0  0  0
    9.4551    8.8203   -0.5917 Cl  0  0  0  0  0  0  0  0  0  0  0  0
    2.4524    4.7270   -1.0196 H   0  0  0  0  0  0  0  0  0  0  0  0
    3.4617    4.4558   -2.4604 H   0  0  0  0  0  0  0  0  0  0  0  0
    2.2076    3.2731   -2.0168 H   0  0  0  0  0  0  0  0  0  0  0  0
    1.2803    3.1927    0.3185 H   0  0  0  0  0  0  0  0  0  0  0  0
   -0.8709    2.0097    0.4683 H   0  0  0  0  0  0  0  0  0  0  0  0
   -0.9482   -0.4415    0.2753 H   0  0  0  0  0  0  0  0  0  0  0  0
    1.1220   -1.7232   -0.0760 H   0  0  0  0  0  0  0  0  0  0  0  0
    3.2830   -0.5592   -0.2332 H   0  0  0  0  0  0  0  0  0  0  0  0
    8.9642    3.6995    0.4479 H   0  0  0  0  0  0  0  0  0  0  0  0
    4.8124    5.5245   -2.2478 H   0  0  0  0  0  0  0  0  0  0  0  0
    5.6856    6.8582   -4.2170 H   0  0  0  0  0  0  0  0  0  0  0  0
    7.1297    8.7499   -4.8417 H   0  0  0  0  0  0  0  0  0  0  0  0
    8.7899    9.6144   -3.2439 H   0  0  0  0  0  0  0  0  0  0  0  0
    7.5643    6.7014   -0.3782 H   0  0  0  0  0  0  0  0  0  0  0  0
  1  2  1  0  0  0  0
  1 26  1  0  0  0  0
  1 27  1  0  0  0  0
  1 28  1  0  0  0  0
  2  7  2  0  0  0  0
  2  3  1  0  0  0  0
  3 17  2  0  0  0  0
  3  4  1  0  0  0  0
  4  5  1  0  0  0  0
  4 14  2  0  0  0  0
  5  6  1  0  0  0  0
  5  7  1  0  0  0  0
  7  8  1  0  0  0  0
  8 13  2  0  0  0  0
  8  9  1  0  0  0  0
  9 10  2  0  0  0  0
  9 29  1  0  0  0  0
 10 11  1  0  0  0  0
 10 30  1  0  0  0  0
 11 12  2  0  0  0  0
 11 31  1  0  0  0  0
 12 13  1  0  0  0  0
 12 32  1  0  0  0  0
 13 33  1  0  0  0  0
 14 15  1  0  0  0  0
 15 16  2  0  0  0  0
 15 34  1  0  0  0  0
 16 17  1  0  0  0  0
 17 18  1  0  0  0  0
 18 19  1  0  0  0  0
 18 35  1  0  0  0  0
 19 24  2  0  0  0  0
 19 20  1  0  0  0  0
 20 21  2  0  0  0  0
 20 36  1  0  0  0  0
 21 22  1  0  0  0  0
 21 37  1  0  0  0  0
 22 23  2  0  0  0  0
 22 38  1  0  0  0  0
 23 24  1  0  0  0  0
 23 25  1  0  0  0  0
 24 39  1  0  0  0  0
M  END
$$$$
ZINC03815181
  -OEChem-08230709403D

 35 37  0     0  0  0  0  0  0999 V2000
   -5.8142   -3.0901   -0.3493 C   0  0  0  0  0  0  0  0  0  0  0  0
   -5.3147   -4.4223   -0.4832 O   0  0  0  0  0  0  0  0  0  0  0  0
   -3.9641   -4.5800   -0.4637 C   0  0  0  0  0  0  0  0  0  0  0  0
   -3.1582   -3.4861   -0.3209 C   0  0  0  0  0  0  0  0  0  0  0  0
   -1.7682   -3.6479   -0.2948 C   0  0  0  0  0  0  0  0  0  0  0  0
   -1.2049   -4.9411   -0.4286 C   0  0  0  0  0  0  0  0  0  0  0  0
   -2.0494   -6.0481   -0.5743 C   0  0  0  0  0  0  0  0  0  0  0  0
   -3.4143   -5.8630   -0.5908 C   0  0  0  0  0  0  0  0  0  0  0  0
   -4.2363   -6.9354   -0.7321 O   0  0  0  0  0  0  0  0  0  0  0  0
   -3.6156   -8.2164   -0.8575 C   0  0  0  0  0  0  0  0  0  0  0  0
    0.1315   -5.0680   -0.4064 N   0  0  0  0  0  0  0  0  0  0  0  0
    0.8978   -4.0121   -0.2685 C   0  0  0  0  0  0  0  0  0  0  0  0
    0.4174   -2.7854   -0.1450 N   0  0  0  0  0  0  0  0  0  0  0  0
   -0.8885   -2.5477   -0.1540 C   0  0  0  0  0  0  0  0  0  0  0  0
   -1.5106   -0.9076    0.0122 S   0  0  0  0  0  0  0  0  0  0  0  0
    0.0013   -0.0030   -0.0114 C   0  0  0  0  0  0  0  0  0  0  0  0
    0.6231    0.3452    1.1817 C   0  0  0  0  0  0  0  0  0  0  0  0
    1.8075    1.0545    1.1603 C   0  0  0  0  0  0  0  0  0  0  0  0
    2.3759    1.4188   -0.0467 C   0  0  0  0  0  0  0  0  0  0  0  0
    1.7599    1.0739   -1.2371 C   0  0  0  0  0  0  0  0  0  0  0  0
    0.5740    0.3639   -1.2225 C   0  0  0  0  0  0  0  0  0  0  0  0
    2.4771    1.5334   -2.7498 Cl  0  0  0  0  0  0  0  0  0  0  0  0
   -5.4842   -2.6722    0.6018 H   0  0  0  0  0  0  0  0  0  0  0  0
   -5.4358   -2.4763   -1.1667 H   0  0  0  0  0  0  0  0  0  0  0  0
   -6.9037   -3.1058   -0.3808 H   0  0  0  0  0  0  0  0  0  0  0  0
   -3.5917   -2.5016   -0.2241 H   0  0  0  0  0  0  0  0  0  0  0  0
   -1.6338   -7.0400   -0.6736 H   0  0  0  0  0  0  0  0  0  0  0  0
   -2.9712   -8.2235   -1.7366 H   0  0  0  0  0  0  0  0  0  0  0  0
   -3.0191   -8.4198    0.0318 H   0  0  0  0  0  0  0  0  0  0  0  0
   -4.3831   -8.9832   -0.9634 H   0  0  0  0  0  0  0  0  0  0  0  0
    1.9688   -4.1504   -0.2548 H   0  0  0  0  0  0  0  0  0  0  0  0
    0.1799    0.0616    2.1249 H   0  0  0  0  0  0  0  0  0  0  0  0
    2.2910    1.3248    2.0875 H   0  0  0  0  0  0  0  0  0  0  0  0
    3.3026    1.9732   -0.0604 H   0  0  0  0  0  0  0  0  0  0  0  0
    0.0956    0.0910   -2.1515 H   0  0  0  0  0  0  0  0  0  0  0  0
  1  2  1  0  0  0  0
  1 23  1  0  0  0  0
  1 24  1  0  0  0  0
  1 25  1  0  0  0  0
  2  3  1  0  0  0  0
  3  8  2  0  0  0  0
  3  4  1  0  0  0  0
  4  5  2  0  0  0  0
  4 26  1  0  0  0  0
  5 14  1  0  0  0  0
  5  6  1  0  0  0  0
  6  7  2  0  0  0  0
  6 11  1  0  0  0  0
  7  8  1  0  0  0  0
  7 27  1  0  0  0  0
  8  9  1  0  0  0  0
  9 10  1  0  0  0  0
 10 28  1  0  0  0  0
 10 29  1  0  0  0  0
 10 30  1  0  0  0  0
 11 12  2  0  0  0  0
 12 13  1  0  0  0  0
 12 31  1  0  0  0  0
 13 14  2  0  0  0  0
 14 15  1  0  0  0  0
 15 16  1  0  0  0  0
 16 21  2  0  0  0  0
 16 17  1  0  0  0  0
 17 18  2  0  0  0  0
 17 32  1  0  0  0  0
 18 19  1  0  0  0  0
 18 33  1  0  0  0  0
 19 20  2  0  0  0  0
 19 34  1  0  0  0  0
 20 21  1  0  0  0  0
 20 22  1  0  0  0  0
 21 35  1  0  0  0  0
M  END
$$$$
ZINC03815183
  -OEChem-08230709403D

 32 34  0     0  0  0  0  0  0999 V2000
   -2.6793    7.7005    0.2363 C   0  0  0  0  0  0  0  0  0  0  0  0
   -1.3782    7.1096    0.2313 O   0  0  0  0  0  0  0  0  0  0  0  0
   -1.3128    5.7628    0.0601 C   0  0  0  0  0  0  0  0  0  0  0  0
   -2.4898    5.0278   -0.1002 C   0  0  0  0  0  0  0  0  0  0  0  0
   -2.4550    3.6773   -0.2735 C   0  0  0  0  0  0  0  0  0  0  0  0
   -1.2232    3.0089   -0.2924 C   0  0  0  0  0  0  0  0  0  0  0  0
   -0.0264    3.7488   -0.1304 C   0  0  0  0  0  0  0  0  0  0  0  0
   -0.0858    5.1354    0.0458 C   0  0  0  0  0  0  0  0  0  0  0  0
    1.2031    3.0464   -0.1539 C   0  0  0  0  0  0  0  0  0  0  0  0
    1.1705    1.7317   -0.3263 N   0  0  0  0  0  0  0  0  0  0  0  0
    0.0267    1.0823   -0.4736 C   0  0  0  0  0  0  0  0  0  0  0  0
   -1.1404    1.6808   -0.4653 N   0  0  0  0  0  0  0  0  0  0  0  0
    2.4027    3.7118   -0.0018 N   0  0  0  0  0  0  0  0  0  0  0  0
    3.5960    2.9896    0.0885 C   0  0  0  0  0  0  0  0  0  0  0  0
    4.7730    3.5233   -0.4215 C   0  0  0  0  0  0  0  0  0  0  0  0
    5.9505    2.8076   -0.3310 C   0  0  0  0  0  0  0  0  0  0  0  0
    5.9594    1.5605    0.2665 C   0  0  0  0  0  0  0  0  0  0  0  0
    4.7893    1.0256    0.7755 C   0  0  0  0  0  0  0  0  0  0  0  0
    3.6087    1.7395    0.6931 C   0  0  0  0  0  0  0  0  0  0  0  0
    4.8071   -0.6799    1.5921 Br  0  0  0  0  0  0  0  0  0  0  0  0
   -2.5889    8.7771    0.3810 H   0  0  0  0  0  0  0  0  0  0  0  0
   -3.1722    7.5020   -0.7154 H   0  0  0  0  0  0  0  0  0  0  0  0
   -3.2693    7.2732    1.0471 H   0  0  0  0  0  0  0  0  0  0  0  0
   -3.4416    5.5380   -0.0860 H   0  0  0  0  0  0  0  0  0  0  0  0
   -3.3739    3.1231   -0.3957 H   0  0  0  0  0  0  0  0  0  0  0  0
    0.8211    5.7086    0.1699 H   0  0  0  0  0  0  0  0  0  0  0  0
    0.0560    0.0116   -0.6114 H   0  0  0  0  0  0  0  0  0  0  0  0
    2.4176    4.6807    0.0424 H   0  0  0  0  0  0  0  0  0  0  0  0
    4.7670    4.4971   -0.8886 H   0  0  0  0  0  0  0  0  0  0  0  0
    6.8656    3.2225   -0.7270 H   0  0  0  0  0  0  0  0  0  0  0  0
    6.8818    1.0030    0.3363 H   0  0  0  0  0  0  0  0  0  0  0  0
    2.6963    1.3237    1.0944 H   0  0  0  0  0  0  0  0  0  0  0  0
  1  2  1  0  0  0  0
  1 21  1  0  0  0  0
  1 22  1  0  0  0  0
  1 23  1  0  0  0  0
  2  3  1  0  0  0  0
  3  8  2  0  0  0  0
  3  4  1  0  0  0  0
  4  5  2  0  0  0  0
  4 24  1  0  0  0  0
  5  6  1  0  0  0  0
  5 25  1  0  0  0  0
  6 12  2  0  0  0  0
  6  7  1  0  0  0  0
  7  8  1  0  0  0  0
  7  9  2  0  0  0  0
  8 26  1  0  0  0  0
  9 10  1  0  0  0  0
  9 13  1  0  0  0  0
 10 11  2  0  0  0  0
 11 12  1  0  0  0  0
 11 27  1  0  0  0  0
 13 14  1  0  0  0  0
 13 28  1  0  0  0  0
 14 19  2  0  0  0  0
 14 15  1  0  0  0  0
 15 16  2  0  0  0  0
 15 29  1  0  0  0  0
 16 17  1  0  0  0  0
 16 30  1  0  0  0  0
 17 18  2  0  0  0  0
 17 31  1  0  0  0  0
 18 19  1  0  0  0  0
 18 20  1  0  0  0  0
 19 32  1  0  0  0  0
M  END
$$$$
ZINC03815184
  -OEChem-08230709403D

 43 46  0     1  0  0  0  0  0999 V2000
   -2.4475    2.7849    4.7574 C   0  0  0  0  0  0  0  0  0  0  0  0
   -1.8740    2.3824    3.5119 O   0  0  0  0  0  0  0  0  0  0  0  0
   -0.7572    1.6085    3.5680 C   0  0  0  0  0  0  0  0  0  0  0  0
   -0.2434    1.2510    4.7821 C   0  0  0  0  0  0  0  0  0  0  0  0
    0.9096    0.4591    4.8410 C   0  0  0  0  0  0  0  0  0  0  0  0
    1.5330    0.0290    3.6435 C   0  0  0  0  0  0  0  0  0  0  0  0
    0.9861    0.4026    2.4100 C   0  0  0  0  0  0  0  0  0  0  0  0
   -0.1490    1.1823    2.3791 C   0  0  0  0  0  0  0  0  0  0  0  0
   -0.6816    1.5467    1.1837 O   0  0  0  0  0  0  0  0  0  0  0  0
   -0.0127    1.0858    0.0080 C   0  0  0  0  0  0  0  0  0  0  0  0
    2.6376   -0.7291    3.7278 N   0  0  0  0  0  0  0  0  0  0  0  0
    3.1272   -1.0630    4.8980 C   0  0  0  0  0  0  0  0  0  0  0  0
    2.5794   -0.6844    6.0420 N   0  0  0  0  0  0  0  0  0  0  0  0
    1.4861    0.0661    6.0723 C   0  0  0  0  0  0  0  0  0  0  0  0
    0.9262    0.4536    7.2721 N   0  0  0  0  0  0  0  0  0  0  0  0
    1.5394    0.0361    8.5354 C   0  0  2  0  0  0  0  0  0  0  0  0
    2.5157   -0.4409    8.4490 H   0  0  0  0  0  0  0  0  0  0  0  0
    0.6074   -0.4568    9.6441 C   0  0  0  0  0  0  0  0  0  0  0  0
    1.2860    0.9090    9.7661 C   0  0  1  0  0  0  0  0  0  0  0  0
    0.6634    1.7941    9.6358 H   0  0  0  0  0  0  0  0  0  0  0  0
    2.4051    1.0431   10.7664 C   0  0  0  0  0  0  0  0  0  0  0  0
    2.8987   -0.0787   11.4058 C   0  0  0  0  0  0  0  0  0  0  0  0
    3.9279    0.0438   12.3205 C   0  0  0  0  0  0  0  0  0  0  0  0
    4.4580    1.2891   12.6019 C   0  0  0  0  0  0  0  0  0  0  0  0
    3.9608    2.4115   11.9664 C   0  0  0  0  0  0  0  0  0  0  0  0
    2.9343    2.2886   11.0488 C   0  0  0  0  0  0  0  0  0  0  0  0
   -1.7178    3.3642    5.3231 H   0  0  0  0  0  0  0  0  0  0  0  0
   -3.3304    3.3961    4.5702 H   0  0  0  0  0  0  0  0  0  0  0  0
   -2.7318    1.9013    5.3289 H   0  0  0  0  0  0  0  0  0  0  0  0
   -0.7219    1.5812    5.6923 H   0  0  0  0  0  0  0  0  0  0  0  0
    1.4510    0.0821    1.4894 H   0  0  0  0  0  0  0  0  0  0  0  0
    0.0021   -0.0041    0.0020 H   0  0  0  0  0  0  0  0  0  0  0  0
    1.0099    1.4631    0.0003 H   0  0  0  0  0  0  0  0  0  0  0  0
   -0.5399    1.4469   -0.8751 H   0  0  0  0  0  0  0  0  0  0  0  0
    4.0173   -1.6739    4.9295 H   0  0  0  0  0  0  0  0  0  0  0  0
    0.1265    1.0026    7.2792 H   0  0  0  0  0  0  0  0  0  0  0  0
   -0.4620   -0.4705    9.4336 H   0  0  0  0  0  0  0  0  0  0  0  0
    0.9704   -1.2584   10.2873 H   0  0  0  0  0  0  0  0  0  0  0  0
    2.4823   -1.0512   11.1885 H   0  0  0  0  0  0  0  0  0  0  0  0
    4.3161   -0.8331   12.8173 H   0  0  0  0  0  0  0  0  0  0  0  0
    5.2603    1.3851   13.3185 H   0  0  0  0  0  0  0  0  0  0  0  0
    4.3747    3.3845   12.1864 H   0  0  0  0  0  0  0  0  0  0  0  0
    2.5458    3.1655   10.5523 H   0  0  0  0  0  0  0  0  0  0  0  0
  1  2  1  0  0  0  0
  1 27  1  0  0  0  0
  1 28  1  0  0  0  0
  1 29  1  0  0  0  0
  2  3  1  0  0  0  0
  3  8  2  0  0  0  0
  3  4  1  0  0  0  0
  4  5  2  0  0  0  0
  4 30  1  0  0  0  0
  5 14  1  0  0  0  0
  5  6  1  0  0  0  0
  6  7  2  0  0  0  0
  6 11  1  0  0  0  0
  7  8  1  0  0  0  0
  7 31  1  0  0  0  0
  8  9  1  0  0  0  0
  9 10  1  0  0  0  0
 10 32  1  0  0  0  0
 10 33  1  0  0  0  0
 10 34  1  0  0  0  0
 11 12  2  0  0  0  0
 12 13  1  0  0  0  0
 12 35  1  0  0  0  0
 13 14  2  0  0  0  0
 14 15  1  0  0  0  0
 15 16  1  0  0  0  0
 15 36  1  0  0  0  0
 16 17  1  0  0  0  0
 16 19  1  0  0  0  0
 16 18  1  0  0  0  0
 18 19  1  0  0  0  0
 18 37  1  0  0  0  0
 18 38  1  0  0  0  0
 19 20  1  0  0  0  0
 19 21  1  0  0  0  0
 21 26  2  0  0  0  0
 21 22  1  0  0  0  0
 22 23  2  0  0  0  0
 22 39  1  0  0  0  0
 23 24  1  0  0  0  0
 23 40  1  0  0  0  0
 24 25  2  0  0  0  0
 24 41  1  0  0  0  0
 25 26  1  0  0  0  0
 25 42  1  0  0  0  0
 26 43  1  0  0  0  0
M  END
$$$$
ZINC03815185
  -OEChem-08230709403D

 25 27  0     0  0  0  0  0  0999 V2000
   -2.2820    5.5827   -0.2466 C   0  0  0  0  0  0  0  0  0  0  0  0
   -2.2849    4.2061   -0.3597 C   0  0  0  0  0  0  0  0  0  0  0  0
   -1.2161    3.4678    0.1322 C   0  0  0  0  0  0  0  0  0  0  0  0
   -0.1497    4.1165    0.7419 C   0  0  0  0  0  0  0  0  0  0  0  0
   -0.1506    5.4942    0.8476 C   0  0  0  0  0  0  0  0  0  0  0  0
   -1.2171    6.2264    0.3558 C   0  0  0  0  0  0  0  0  0  0  0  0
    1.3033    6.3794    1.6714 Br  0  0  0  0  0  0  0  0  0  0  0  0
   -1.2163    2.0747    0.0191 N   0  0  0  0  0  0  0  0  0  0  0  0
   -0.0210    1.3927   -0.1484 C   0  0  0  0  0  0  0  0  0  0  0  0
    0.0129    0.0090   -0.1483 C   0  0  0  0  0  0  0  0  0  0  0  0
    1.2258   -0.6913   -0.3240 C   0  0  0  0  0  0  0  0  0  0  0  0
    1.1200   -2.0931   -0.3029 C   0  0  0  0  0  0  0  0  0  0  0  0
   -0.0793   -2.6789   -0.1241 C   0  0  0  0  0  0  0  0  0  0  0  0
   -1.1842   -1.2856    0.0330 S   0  0  0  0  0  0  0  0  0  0  0  0
    2.3288    0.0807   -0.4890 N   0  0  0  0  0  0  0  0  0  0  0  0
    2.2541    1.3861   -0.4828 C   0  0  0  0  0  0  0  0  0  0  0  0
    1.1249    2.0529   -0.3193 N   0  0  0  0  0  0  0  0  0  0  0  0
   -3.1129    6.1570   -0.6291 H   0  0  0  0  0  0  0  0  0  0  0  0
   -3.1172    3.7042   -0.8305 H   0  0  0  0  0  0  0  0  0  0  0  0
    0.6808    3.5450    1.1294 H   0  0  0  0  0  0  0  0  0  0  0  0
   -1.2177    7.3028    0.4432 H   0  0  0  0  0  0  0  0  0  0  0  0
   -2.0527    1.5850    0.0579 H   0  0  0  0  0  0  0  0  0  0  0  0
    2.0031   -2.7018   -0.4301 H   0  0  0  0  0  0  0  0  0  0  0  0
   -0.3146   -3.7322   -0.0850 H   0  0  0  0  0  0  0  0  0  0  0  0
    3.1650    1.9502   -0.6187 H   0  0  0  0  0  0  0  0  0  0  0  0
  1  6  2  0  0  0  0
  1  2  1  0  0  0  0
  1 18  1  0  0  0  0
  2  3  2  0  0  0  0
  2 19  1  0  0  0  0
  3  4  1  0  0  0  0
  3  8  1  0  0  0  0
  4  5  2  0  0  0  0
  4 20  1  0  0  0  0
  5  6  1  0  0  0  0
  5  7  1  0  0  0  0
  6 21  1  0  0  0  0
  8  9  1  0  0  0  0
  8 22  1  0  0  0  0
  9 17  2  0  0  0  0
  9 10  1  0  0  0  0
 10 14  1  0  0  0  0
 10 11  2  0  0  0  0
 11 12  1  0  0  0  0
 11 15  1  0  0  0  0
 12 13  2  0  0  0  0
 12 23  1  0  0  0  0
 13 14  1  0  0  0  0
 13 24  1  0  0  0  0
 15 16  2  0  0  0  0
 16 17  1  0  0  0  0
 16 25  1  0  0  0  0
M  END
$$$$
ZINC03815186
  -OEChem-08230709403D

 36 39  0     0  0  0  0  0  0999 V2000
  -10.8314    3.1718    0.9560 C   0  0  0  0  0  0  0  0  0  0  0  0
   -9.6970    2.3517    0.3980 C   0  0  0  0  0  0  0  0  0  0  0  0
   -9.9567    1.1367   -0.2098 C   0  0  0  0  0  0  0  0  0  0  0  0
   -8.9188    0.3815   -0.7239 C   0  0  0  0  0  0  0  0  0  0  0  0
   -7.6191    0.8404   -0.6358 C   0  0  0  0  0  0  0  0  0  0  0  0
   -7.3542    2.0576   -0.0213 C   0  0  0  0  0  0  0  0  0  0  0  0
   -8.3995    2.8141    0.4938 C   0  0  0  0  0  0  0  0  0  0  0  0
   -6.0397    2.5229    0.0735 N   0  0  0  0  0  0  0  0  0  0  0  0
   -4.9942    1.6230    0.2179 C   0  0  0  0  0  0  0  0  0  0  0  0
   -3.6744    2.0552    0.1993 C   0  0  0  0  0  0  0  0  0  0  0  0
   -2.6183    1.1480    0.3454 C   0  0  0  0  0  0  0  0  0  0  0  0
   -1.2601    1.7246    0.3038 C   0  0  0  0  0  0  0  0  0  0  0  0
   -0.0321    1.0382    0.4319 C   0  0  0  0  0  0  0  0  0  0  0  0
    1.1573    1.7177    0.3787 C   0  0  0  0  0  0  0  0  0  0  0  0
    1.1929    3.0937    0.2032 C   0  0  0  0  0  0  0  0  0  0  0  0
    0.0093    3.7936    0.0800 C   0  0  0  0  0  0  0  0  0  0  0  0
   -1.1932    3.1173    0.1330 C   0  0  0  0  0  0  0  0  0  0  0  0
   -2.8880    3.6325    0.0191 S   0  0  0  0  0  0  0  0  0  0  0  0
    2.4276    0.9694    0.5105 N   0  3  0  0  0  0  0  0  0  0  0  0
    2.4096   -0.2387    0.6646 O   0  0  0  0  0  0  0  0  0  0  0  0
    3.4909    1.5618    0.4648 O   0  5  0  0  0  0  0  0  0  0  0  0
   -2.9668   -0.1489    0.5028 N   0  0  0  0  0  0  0  0  0  0  0  0
   -4.2219   -0.5209    0.5151 C   0  0  0  0  0  0  0  0  0  0  0  0
   -5.2298    0.3214    0.3787 N   0  0  0  0  0  0  0  0  0  0  0  0
  -11.2073    3.8442    0.1848 H   0  0  0  0  0  0  0  0  0  0  0  0
  -11.6329    2.5090    1.2822 H   0  0  0  0  0  0  0  0  0  0  0  0
  -10.4747    3.7555    1.8046 H   0  0  0  0  0  0  0  0  0  0  0  0
  -10.9725    0.7773   -0.2834 H   0  0  0  0  0  0  0  0  0  0  0  0
   -9.1251   -0.5666   -1.1982 H   0  0  0  0  0  0  0  0  0  0  0  0
   -6.8092    0.2517   -1.0408 H   0  0  0  0  0  0  0  0  0  0  0  0
   -8.1974    3.7631    0.9682 H   0  0  0  0  0  0  0  0  0  0  0  0
   -5.8586    3.4752    0.0382 H   0  0  0  0  0  0  0  0  0  0  0  0
   -0.0301   -0.0331    0.5687 H   0  0  0  0  0  0  0  0  0  0  0  0
    2.1390    3.6131    0.1635 H   0  0  0  0  0  0  0  0  0  0  0  0
    0.0240    4.8648   -0.0566 H   0  0  0  0  0  0  0  0  0  0  0  0
   -4.4444   -1.5699    0.6438 H   0  0  0  0  0  0  0  0  0  0  0  0
  1  2  1  0  0  0  0
  1 25  1  0  0  0  0
  1 26  1  0  0  0  0
  1 27  1  0  0  0  0
  2  7  2  0  0  0  0
  2  3  1  0  0  0  0
  3  4  2  0  0  0  0
  3 28  1  0  0  0  0
  4  5  1  0  0  0  0
  4 29  1  0  0  0  0
  5  6  2  0  0  0  0
  5 30  1  0  0  0  0
  6  7  1  0  0  0  0
  6  8  1  0  0  0  0
  7 31  1  0  0  0  0
  8  9  1  0  0  0  0
  8 32  1  0  0  0  0
  9 24  2  0  0  0  0
  9 10  1  0  0  0  0
 10 18  1  0  0  0  0
 10 11  2  0  0  0  0
 11 12  1  0  0  0  0
 11 22  1  0  0  0  0
 12 17  2  0  0  0  0
 12 13  1  0  0  0  0
 13 14  2  0  0  0  0
 13 33  1  0  0  0  0
 14 15  1  0  0  0  0
 14 19  1  0  0  0  0
 15 16  2  0  0  0  0
 15 34  1  0  0  0  0
 16 17  1  0  0  0  0
 16 35  1  0  0  0  0
 17 18  1  0  0  0  0
 19 20  2  0  0  0  0
 19 21  1  0  0  0  0
 22 23  2  0  0  0  0
 23 24  1  0  0  0  0
 23 36  1  0  0  0  0
M  CHG  2  19   1  21  -1
M  END
$$$$
ZINC03815187
  -OEChem-08230709403D

 36 38  0     0  0  0  0  0  0999 V2000
    3.5885    3.1981    0.0410 C   0  0  0  0  0  0  0  0  0  0  0  0
    2.3207    3.9123   -0.1283 N   0  0  0  0  0  0  0  0  0  0  0  0
    2.3166    5.3675   -0.2970 C   0  0  0  0  0  0  0  0  0  0  0  0
    1.1189    3.2076   -0.1289 C   0  0  0  0  0  0  0  0  0  0  0  0
    1.1314    1.8174    0.0328 C   0  0  0  0  0  0  0  0  0  0  0  0
   -0.0287    1.1050    0.0351 C   0  0  0  0  0  0  0  0  0  0  0  0
   -1.2514    1.7676   -0.1311 C   0  0  0  0  0  0  0  0  0  0  0  0
   -1.2760    3.1759   -0.2898 C   0  0  0  0  0  0  0  0  0  0  0  0
   -0.0719    3.8881   -0.2895 C   0  0  0  0  0  0  0  0  0  0  0  0
   -2.4610    3.7872   -0.4420 N   0  0  0  0  0  0  0  0  0  0  0  0
   -3.5736    3.0914   -0.4380 C   0  0  0  0  0  0  0  0  0  0  0  0
   -3.5996    1.7772   -0.2882 N   0  0  0  0  0  0  0  0  0  0  0  0
   -2.4846    1.0747   -0.1303 C   0  0  0  0  0  0  0  0  0  0  0  0
   -2.5269   -0.2958    0.0249 N   0  0  0  0  0  0  0  0  0  0  0  0
   -3.7577   -0.9486    0.1387 C   0  0  0  0  0  0  0  0  0  0  0  0
   -3.9138   -2.2330   -0.3676 C   0  0  0  0  0  0  0  0  0  0  0  0
   -5.1307   -2.8758   -0.2534 C   0  0  0  0  0  0  0  0  0  0  0  0
   -6.1937   -2.2428    0.3644 C   0  0  0  0  0  0  0  0  0  0  0  0
   -6.0421   -0.9637    0.8698 C   0  0  0  0  0  0  0  0  0  0  0  0
   -4.8253   -0.3170    0.7629 C   0  0  0  0  0  0  0  0  0  0  0  0
   -7.4986   -0.1028    1.7143 Br  0  0  0  0  0  0  0  0  0  0  0  0
    3.9726    2.9031   -0.9356 H   0  0  0  0  0  0  0  0  0  0  0  0
    4.3100    3.8502    0.5332 H   0  0  0  0  0  0  0  0  0  0  0  0
    3.4264    2.3096    0.6512 H   0  0  0  0  0  0  0  0  0  0  0  0
    2.2460    5.8463    0.6796 H   0  0  0  0  0  0  0  0  0  0  0  0
    3.2383    5.6789   -0.7885 H   0  0  0  0  0  0  0  0  0  0  0  0
    1.4624    5.6601   -0.9077 H   0  0  0  0  0  0  0  0  0  0  0  0
    2.0731    1.3034    0.1570 H   0  0  0  0  0  0  0  0  0  0  0  0
   -0.0059    0.0325    0.1600 H   0  0  0  0  0  0  0  0  0  0  0  0
   -0.0735    4.9608   -0.4141 H   0  0  0  0  0  0  0  0  0  0  0  0
   -4.5099    3.6150   -0.5629 H   0  0  0  0  0  0  0  0  0  0  0  0
   -1.7026   -0.8062    0.0551 H   0  0  0  0  0  0  0  0  0  0  0  0
   -3.0842   -2.7282   -0.8503 H   0  0  0  0  0  0  0  0  0  0  0  0
   -5.2522   -3.8742   -0.6469 H   0  0  0  0  0  0  0  0  0  0  0  0
   -7.1441   -2.7480    0.4530 H   0  0  0  0  0  0  0  0  0  0  0  0
   -4.7059    0.6797    1.1614 H   0  0  0  0  0  0  0  0  0  0  0  0
  1  2  1  0  0  0  0
  1 22  1  0  0  0  0
  1 23  1  0  0  0  0
  1 24  1  0  0  0  0
  2  3  1  0  0  0  0
  2  4  1  0  0  0  0
  3 25  1  0  0  0  0
  3 26  1  0  0  0  0
  3 27  1  0  0  0  0
  4  9  2  0  0  0  0
  4  5  1  0  0  0  0
  5  6  2  0  0  0  0
  5 28  1  0  0  0  0
  6  7  1  0  0  0  0
  6 29  1  0  0  0  0
  7 13  2  0  0  0  0
  7  8  1  0  0  0  0
  8  9  1  0  0  0  0
  8 10  2  0  0  0  0
  9 30  1  0  0  0  0
 10 11  1  0  0  0  0
 11 12  2  0  0  0  0
 11 31  1  0  0  0  0
 12 13  1  0  0  0  0
 13 14  1  0  0  0  0
 14 15  1  0  0  0  0
 14 32  1  0  0  0  0
 15 20  2  0  0  0  0
 15 16  1  0  0  0  0
 16 17  2  0  0  0  0
 16 33  1  0  0  0  0
 17 18  1  0  0  0  0
 17 34  1  0  0  0  0
 18 19  2  0  0  0  0
 18 35  1  0  0  0  0
 19 20  1  0  0  0  0
 19 21  1  0  0  0  0
 20 36  1  0  0  0  0
M  END
$$$$
ZINC03815188
  -OEChem-08230709403D

 42 45  0     1  0  0  0  0  0999 V2000
    1.3862    8.8607    9.9799 C   0  0  0  0  0  0  0  0  0  0  0  0
    1.0196    7.9468    9.0112 C   0  0  0  0  0  0  0  0  0  0  0  0
    0.2719    6.8293    9.3598 C   0  0  0  0  0  0  0  0  0  0  0  0
   -0.1095    6.6372   10.6816 C   0  0  0  0  0  0  0  0  0  0  0  0
    0.2640    7.5527   11.6467 C   0  0  0  0  0  0  0  0  0  0  0  0
    1.0095    8.6647   11.2956 C   0  0  0  0  0  0  0  0  0  0  0  0
   -0.2498    7.2900   13.4474 Br  0  0  0  0  0  0  0  0  0  0  0  0
   -0.1009    5.9031    8.3815 N   0  0  0  0  0  0  0  0  0  0  0  0
    0.7531    5.6233    7.3361 C   0  0  0  0  0  0  0  0  0  0  0  0
    0.3470    4.7800    6.2692 C   0  0  0  0  0  0  0  0  0  0  0  0
   -0.9205    4.2053    6.2333 C   0  0  0  0  0  0  0  0  0  0  0  0
   -1.2685    3.3867    5.1645 C   0  0  0  0  0  0  0  0  0  0  0  0
   -2.4808    2.6441    4.8200 C   0  0  0  0  0  0  0  0  0  0  0  0
   -2.2687    2.0385    3.6886 N   0  0  0  0  0  0  0  0  0  0  0  0
   -0.9761    2.3068    3.2288 N   0  0  0  0  0  0  0  0  0  0  0  0
   -0.3443    3.1384    4.1212 C   0  0  0  0  0  0  0  0  0  0  0  0
    0.9163    3.7085    4.1546 C   0  0  0  0  0  0  0  0  0  0  0  0
    1.2750    4.5310    5.2224 C   0  0  0  0  0  0  0  0  0  0  0  0
    2.4901    5.1033    5.2911 N   0  0  0  0  0  0  0  0  0  0  0  0
    2.8069    5.8738    6.3028 C   0  0  0  0  0  0  0  0  0  0  0  0
    1.9758    6.1344    7.3005 N   0  0  0  0  0  0  0  0  0  0  0  0
   -0.3908    1.7888    1.9898 C   0  0  2  0  0  0  0  0  0  0  0  0
    0.6890    1.9364    2.0085 H   0  0  0  0  0  0  0  0  0  0  0  0
   -0.9866    2.5341    0.7938 C   0  0  0  0  0  0  0  0  0  0  0  0
   -0.2867    2.0816   -0.4893 C   0  0  0  0  0  0  0  0  0  0  0  0
   -0.8432    2.7777   -1.6064 O   0  0  0  0  0  0  0  0  0  0  0  0
   -0.6789    0.3940    1.8736 O   0  0  0  0  0  0  0  0  0  0  0  0
    1.9676    9.7296    9.7091 H   0  0  0  0  0  0  0  0  0  0  0  0
    1.3144    8.1008    7.9837 H   0  0  0  0  0  0  0  0  0  0  0  0
   -0.6944    5.7714   10.9552 H   0  0  0  0  0  0  0  0  0  0  0  0
    1.2972    9.3810   12.0509 H   0  0  0  0  0  0  0  0  0  0  0  0
   -0.9605    5.4572    8.4383 H   0  0  0  0  0  0  0  0  0  0  0  0
   -1.6268    4.3932    7.0284 H   0  0  0  0  0  0  0  0  0  0  0  0
   -3.3917    2.6095    5.3991 H   0  0  0  0  0  0  0  0  0  0  0  0
    1.6195    3.5169    3.3576 H   0  0  0  0  0  0  0  0  0  0  0  0
    3.7917    6.3167    6.3240 H   0  0  0  0  0  0  0  0  0  0  0  0
   -0.8445    3.6066    0.9264 H   0  0  0  0  0  0  0  0  0  0  0  0
   -2.0520    2.3148    0.7231 H   0  0  0  0  0  0  0  0  0  0  0  0
   -0.4289    1.0091   -0.6220 H   0  0  0  0  0  0  0  0  0  0  0  0
    0.7787    2.3009   -0.4187 H   0  0  0  0  0  0  0  0  0  0  0  0
   -0.4461    2.5401   -2.4554 H   0  0  0  0  0  0  0  0  0  0  0  0
   -1.6235    0.1881    1.8508 H   0  0  0  0  0  0  0  0  0  0  0  0
  1  6  2  0  0  0  0
  1  2  1  0  0  0  0
  1 28  1  0  0  0  0
  2  3  2  0  0  0  0
  2 29  1  0  0  0  0
  3  4  1  0  0  0  0
  3  8  1  0  0  0  0
  4  5  2  0  0  0  0
  4 30  1  0  0  0  0
  5  6  1  0  0  0  0
  5  7  1  0  0  0  0
  6 31  1  0  0  0  0
  8  9  1  0  0  0  0
  8 32  1  0  0  0  0
  9 21  2  0  0  0  0
  9 10  1  0  0  0  0
 10 18  2  0  0  0  0
 10 11  1  0  0  0  0
 11 12  2  0  0  0  0
 11 33  1  0  0  0  0
 12 16  1  0  0  0  0
 12 13  1  0  0  0  0
 13 14  2  0  0  0  0
 13 34  1  0  0  0  0
 14 15  1  0  0  0  0
 15 16  1  0  0  0  0
 15 22  1  0  0  0  0
 16 17  2  0  0  0  0
 17 18  1  0  0  0  0
 17 35  1  0  0  0  0
 18 19  1  0  0  0  0
 19 20  2  0  0  0  0
 20 21  1  0  0  0  0
 20 36  1  0  0  0  0
 22 23  1  0  0  0  0
 22 24  1  0  0  0  0
 22 27  1  0  0  0  0
 24 25  1  0  0  0  0
 24 37  1  0  0  0  0
 24 38  1  0  0  0  0
 25 26  1  0  0  0  0
 25 39  1  0  0  0  0
 25 40  1  0  0  0  0
 26 41  1  0  0  0  0
 27 42  1  0  0  0  0
M  END
$$$$
ZINC03815189
  -OEChem-08230709403D

 36 38  0     0  0  0  0  0  0999 V2000
   -7.4905   -1.8876    2.4733 C   0  0  0  0  0  0  0  0  0  0  0  0
   -6.6019   -1.0612    1.6759 O   0  0  0  0  0  0  0  0  0  0  0  0
   -5.4155   -1.5961    1.3303 C   0  0  0  0  0  0  0  0  0  0  0  0
   -5.1305   -2.7226    1.6855 O   0  0  0  0  0  0  0  0  0  0  0  0
   -4.5441   -0.8819    0.5906 N   0  0  0  0  0  0  0  0  0  0  0  0
   -3.2729   -1.3989    0.3136 C   0  0  0  0  0  0  0  0  0  0  0  0
   -3.1164   -2.7700    0.0893 C   0  0  0  0  0  0  0  0  0  0  0  0
   -1.8920   -3.3003   -0.1822 C   0  0  0  0  0  0  0  0  0  0  0  0
   -0.7675   -2.4651   -0.2392 C   0  0  0  0  0  0  0  0  0  0  0  0
   -0.9183   -1.0759   -0.0076 C   0  0  0  0  0  0  0  0  0  0  0  0
   -2.1859   -0.5506    0.2640 C   0  0  0  0  0  0  0  0  0  0  0  0
    0.2353   -0.2569   -0.0763 C   0  0  0  0  0  0  0  0  0  0  0  0
    1.3986   -0.8344   -0.3445 N   0  0  0  0  0  0  0  0  0  0  0  0
    1.4917   -2.1387   -0.5493 C   0  0  0  0  0  0  0  0  0  0  0  0
    0.4576   -2.9444   -0.5028 N   0  0  0  0  0  0  0  0  0  0  0  0
    0.1518    1.1043    0.1359 N   0  0  0  0  0  0  0  0  0  0  0  0
    1.3152    1.8781    0.1748 C   0  0  0  0  0  0  0  0  0  0  0  0
    1.2944    3.1898   -0.2830 C   0  0  0  0  0  0  0  0  0  0  0  0
    2.4452    3.9520   -0.2433 C   0  0  0  0  0  0  0  0  0  0  0  0
    3.6180    3.4114    0.2514 C   0  0  0  0  0  0  0  0  0  0  0  0
    3.6426    2.1056    0.7082 C   0  0  0  0  0  0  0  0  0  0  0  0
    2.4927    1.3394    0.6765 C   0  0  0  0  0  0  0  0  0  0  0  0
    5.2487    1.3714    1.3844 Br  0  0  0  0  0  0  0  0  0  0  0  0
   -8.4086   -1.3382    2.6812 H   0  0  0  0  0  0  0  0  0  0  0  0
   -7.7287   -2.7990    1.9249 H   0  0  0  0  0  0  0  0  0  0  0  0
   -7.0011   -2.1460    3.4123 H   0  0  0  0  0  0  0  0  0  0  0  0
   -4.7978   -0.0097    0.2502 H   0  0  0  0  0  0  0  0  0  0  0  0
   -3.9793   -3.4181    0.1324 H   0  0  0  0  0  0  0  0  0  0  0  0
   -1.7874   -4.3616   -0.3528 H   0  0  0  0  0  0  0  0  0  0  0  0
   -2.3118    0.5078    0.4379 H   0  0  0  0  0  0  0  0  0  0  0  0
    2.4631   -2.5587   -0.7642 H   0  0  0  0  0  0  0  0  0  0  0  0
   -0.7144    1.5246    0.2539 H   0  0  0  0  0  0  0  0  0  0  0  0
    0.3791    3.6128   -0.6699 H   0  0  0  0  0  0  0  0  0  0  0  0
    2.4293    4.9717   -0.5988 H   0  0  0  0  0  0  0  0  0  0  0  0
    4.5166    4.0098    0.2816 H   0  0  0  0  0  0  0  0  0  0  0  0
    2.5110    0.3216    1.0373 H   0  0  0  0  0  0  0  0  0  0  0  0
  1  2  1  0  0  0  0
  1 24  1  0  0  0  0
  1 25  1  0  0  0  0
  1 26  1  0  0  0  0
  2  3  1  0  0  0  0
  3  4  2  0  0  0  0
  3  5  1  0  0  0  0
  5  6  1  0  0  0  0
  5 27  1  0  0  0  0
  6 11  2  0  0  0  0
  6  7  1  0  0  0  0
  7  8  2  0  0  0  0
  7 28  1  0  0  0  0
  8  9  1  0  0  0  0
  8 29  1  0  0  0  0
  9 15  2  0  0  0  0
  9 10  1  0  0  0  0
 10 11  1  0  0  0  0
 10 12  2  0  0  0  0
 11 30  1  0  0  0  0
 12 13  1  0  0  0  0
 12 16  1  0  0  0  0
 13 14  2  0  0  0  0
 14 15  1  0  0  0  0
 14 31  1  0  0  0  0
 16 17  1  0  0  0  0
 16 32  1  0  0  0  0
 17 22  2  0  0  0  0
 17 18  1  0  0  0  0
 18 19  2  0  0  0  0
 18 33  1  0  0  0  0
 19 20  1  0  0  0  0
 19 34  1  0  0  0  0
 20 21  2  0  0  0  0
 20 35  1  0  0  0  0
 21 22  1  0  0  0  0
 21 23  1  0  0  0  0
 22 36  1  0  0  0  0
M  END
$$$$
ZINC03815190
  -OEChem-08230709403D

 36 38  0     0  0  0  0  0  0999 V2000
    0.0286    1.5401    0.0873 C   0  0  0  0  0  0  0  0  0  0  0  0
    0.0714    0.0112    0.0497 C   0  0  0  0  0  0  0  0  0  0  0  0
    0.6167   -0.4933    1.3124 N   0  0  0  0  0  0  0  0  0  0  0  0
    0.7530   -1.8651    1.5138 C   0  0  0  0  0  0  0  0  0  0  0  0
    0.3611   -2.7549    0.5069 C   0  0  0  0  0  0  0  0  0  0  0  0
    0.4892   -4.0996    0.6760 C   0  0  0  0  0  0  0  0  0  0  0  0
    1.0074   -4.6030    1.8759 C   0  0  0  0  0  0  0  0  0  0  0  0
    1.4023   -3.7109    2.9043 C   0  0  0  0  0  0  0  0  0  0  0  0
    1.2678   -2.3325    2.7067 C   0  0  0  0  0  0  0  0  0  0  0  0
    1.8961   -4.2187    4.0442 N   0  0  0  0  0  0  0  0  0  0  0  0
    2.0095   -5.5167    4.1997 C   0  0  0  0  0  0  0  0  0  0  0  0
    1.6539   -6.3866    3.2685 N   0  0  0  0  0  0  0  0  0  0  0  0
    1.1541   -5.9912    2.1042 C   0  0  0  0  0  0  0  0  0  0  0  0
    0.7870   -6.9099    1.1423 N   0  0  0  0  0  0  0  0  0  0  0  0
    1.0464   -8.2693    1.3391 C   0  0  0  0  0  0  0  0  0  0  0  0
    0.1772   -9.2250    0.8277 C   0  0  0  0  0  0  0  0  0  0  0  0
    0.4359  -10.5672    1.0236 C   0  0  0  0  0  0  0  0  0  0  0  0
    1.5590  -10.9611    1.7280 C   0  0  0  0  0  0  0  0  0  0  0  0
    2.4271  -10.0123    2.2384 C   0  0  0  0  0  0  0  0  0  0  0  0
    2.1765   -8.6675    2.0411 C   0  0  0  0  0  0  0  0  0  0  0  0
    3.9616  -10.5562    3.2003 Br  0  0  0  0  0  0  0  0  0  0  0  0
    1.0373    1.9284    0.2283 H   0  0  0  0  0  0  0  0  0  0  0  0
   -0.3771    1.9154   -0.8522 H   0  0  0  0  0  0  0  0  0  0  0  0
   -0.6047    1.8657    0.9124 H   0  0  0  0  0  0  0  0  0  0  0  0
   -0.9373   -0.3772   -0.0913 H   0  0  0  0  0  0  0  0  0  0  0  0
    0.7047   -0.3145   -0.7754 H   0  0  0  0  0  0  0  0  0  0  0  0
    0.8829    0.1279    2.0083 H   0  0  0  0  0  0  0  0  0  0  0  0
   -0.0435   -2.3698   -0.4174 H   0  0  0  0  0  0  0  0  0  0  0  0
    0.1869   -4.7760   -0.1098 H   0  0  0  0  0  0  0  0  0  0  0  0
    1.5639   -1.6399    3.4807 H   0  0  0  0  0  0  0  0  0  0  0  0
    2.4109   -5.8917    5.1296 H   0  0  0  0  0  0  0  0  0  0  0  0
    0.3489   -6.6124    0.3296 H   0  0  0  0  0  0  0  0  0  0  0  0
   -0.7003   -8.9184    0.2778 H   0  0  0  0  0  0  0  0  0  0  0  0
   -0.2394  -11.3103    0.6259 H   0  0  0  0  0  0  0  0  0  0  0  0
    1.7589  -12.0115    1.8798 H   0  0  0  0  0  0  0  0  0  0  0  0
    2.8564   -7.9272    2.4360 H   0  0  0  0  0  0  0  0  0  0  0  0
  1  2  1  0  0  0  0
  1 22  1  0  0  0  0
  1 23  1  0  0  0  0
  1 24  1  0  0  0  0
  2  3  1  0  0  0  0
  2 25  1  0  0  0  0
  2 26  1  0  0  0  0
  3  4  1  0  0  0  0
  3 27  1  0  0  0  0
  4  9  2  0  0  0  0
  4  5  1  0  0  0  0
  5  6  2  0  0  0  0
  5 28  1  0  0  0  0
  6  7  1  0  0  0  0
  6 29  1  0  0  0  0
  7 13  2  0  0  0  0
  7  8  1  0  0  0  0
  8  9  1  0  0  0  0
  8 10  2  0  0  0  0
  9 30  1  0  0  0  0
 10 11  1  0  0  0  0
 11 12  2  0  0  0  0
 11 31  1  0  0  0  0
 12 13  1  0  0  0  0
 13 14  1  0  0  0  0
 14 15  1  0  0  0  0
 14 32  1  0  0  0  0
 15 20  2  0  0  0  0
 15 16  1  0  0  0  0
 16 17  2  0  0  0  0
 16 33  1  0  0  0  0
 17 18  1  0  0  0  0
 17 34  1  0  0  0  0
 18 19  2  0  0  0  0
 18 35  1  0  0  0  0
 19 20  1  0  0  0  0
 19 21  1  0  0  0  0
 20 36  1  0  0  0  0
M  END
$$$$
ZINC03815191
  -OEChem-08230709403D

 44 46  0     0  0  0  0  0  0999 V2000
    2.1577    5.6966    0.3942 C   0  0  0  0  0  0  0  0  0  0  0  0
    2.2603    4.3225    0.4909 C   0  0  0  0  0  0  0  0  0  0  0  0
    3.3215    3.6622   -0.1150 C   0  0  0  0  0  0  0  0  0  0  0  0
    4.2797    4.3869   -0.8123 C   0  0  0  0  0  0  0  0  0  0  0  0
    4.1688    5.7608   -0.9094 C   0  0  0  0  0  0  0  0  0  0  0  0
    3.1100    6.4152   -0.3043 C   0  0  0  0  0  0  0  0  0  0  0  0
    5.4687    6.7483   -1.8638 Br  0  0  0  0  0  0  0  0  0  0  0  0
    3.4281    2.2717   -0.0184 N   0  0  0  0  0  0  0  0  0  0  0  0
    2.2914    1.4919   -0.0144 C   0  0  0  0  0  0  0  0  0  0  0  0
    2.3671    0.0967    0.2035 C   0  0  0  0  0  0  0  0  0  0  0  0
    3.5751   -0.5691    0.4250 C   0  0  0  0  0  0  0  0  0  0  0  0
    2.4717   -2.6006    0.6204 C   0  0  0  0  0  0  0  0  0  0  0  0
    1.2299   -2.0296    0.4098 C   0  0  0  0  0  0  0  0  0  0  0  0
    1.1580   -0.6486    0.1945 C   0  0  0  0  0  0  0  0  0  0  0  0
    0.0031   -0.0057   -0.0186 N   0  0  0  0  0  0  0  0  0  0  0  0
   -0.0056    1.2929   -0.2155 C   0  0  0  0  0  0  0  0  0  0  0  0
    1.0937    2.0290   -0.2163 N   0  0  0  0  0  0  0  0  0  0  0  0
    2.5608   -3.9699    0.8351 N   0  0  0  0  0  0  0  0  0  0  0  0
    1.3637   -4.8075    0.7283 C   0  0  0  0  0  0  0  0  0  0  0  0
    1.2139   -5.3018   -0.7119 C   0  0  0  0  0  0  0  0  0  0  0  0
    2.3076   -6.1623   -1.0364 O   0  0  0  0  0  0  0  0  0  0  0  0
    3.8520   -4.5765    1.1684 C   0  0  0  0  0  0  0  0  0  0  0  0
    4.0345   -4.5851    2.6874 C   0  0  0  0  0  0  0  0  0  0  0  0
    3.0523   -5.4369    3.2804 O   0  0  0  0  0  0  0  0  0  0  0  0
    1.3327    6.2103    0.8653 H   0  0  0  0  0  0  0  0  0  0  0  0
    1.5159    3.7620    1.0368 H   0  0  0  0  0  0  0  0  0  0  0  0
    5.1084    3.8769   -1.2807 H   0  0  0  0  0  0  0  0  0  0  0  0
    3.0277    7.4896   -0.3778 H   0  0  0  0  0  0  0  0  0  0  0  0
    4.3020    1.8556    0.0458 H   0  0  0  0  0  0  0  0  0  0  0  0
    4.5026   -0.0158    0.4344 H   0  0  0  0  0  0  0  0  0  0  0  0
    0.3359   -2.6355    0.4117 H   0  0  0  0  0  0  0  0  0  0  0  0
   -0.9530    1.7814   -0.3892 H   0  0  0  0  0  0  0  0  0  0  0  0
    1.4575   -5.6625    1.3979 H   0  0  0  0  0  0  0  0  0  0  0  0
    0.4859   -4.2238    1.0052 H   0  0  0  0  0  0  0  0  0  0  0  0
    0.2775   -5.8507   -0.8122 H   0  0  0  0  0  0  0  0  0  0  0  0
    1.2093   -4.4486   -1.3902 H   0  0  0  0  0  0  0  0  0  0  0  0
    2.2779   -6.5138   -1.9368 H   0  0  0  0  0  0  0  0  0  0  0  0
    3.8804   -5.5996    0.7932 H   0  0  0  0  0  0  0  0  0  0  0  0
    4.6542   -3.9988    0.7093 H   0  0  0  0  0  0  0  0  0  0  0  0
    5.0306   -4.9542    2.9316 H   0  0  0  0  0  0  0  0  0  0  0  0
    3.9177   -3.5724    3.0731 H   0  0  0  0  0  0  0  0  0  0  0  0
    3.1084   -5.4905    4.2443 H   0  0  0  0  0  0  0  0  0  0  0  0
    3.6583   -1.9077    0.6351 N   0  3  0  0  0  0  0  0  0  0  0  0
    4.5576   -2.3762    0.7959 H   0  0  0  0  0  0  0  0  0  0  0  0
  1  6  2  0  0  0  0
  1  2  1  0  0  0  0
  1 25  1  0  0  0  0
  2  3  2  0  0  0  0
  2 26  1  0  0  0  0
  3  4  1  0  0  0  0
  3  8  1  0  0  0  0
  4  5  2  0  0  0  0
  4 27  1  0  0  0  0
  5  6  1  0  0  0  0
  5  7  1  0  0  0  0
  6 28  1  0  0  0  0
  8  9  1  0  0  0  0
  8 29  1  0  0  0  0
  9 17  2  0  0  0  0
  9 10  1  0  0  0  0
 10 14  2  0  0  0  0
 10 11  1  0  0  0  0
 11 30  1  0  0  0  0
 11 43  2  0  0  0  0
 12 13  2  0  0  0  0
 12 18  1  0  0  0  0
 12 43  1  0  0  0  0
 13 14  1  0  0  0  0
 13 31  1  0  0  0  0
 14 15  1  0  0  0  0
 15 16  2  0  0  0  0
 16 17  1  0  0  0  0
 16 32  1  0  0  0  0
 18 19  1  0  0  0  0
 18 22  1  0  0  0  0
 19 20  1  0  0  0  0
 19 33  1  0  0  0  0
 19 34  1  0  0  0  0
 20 21  1  0  0  0  0
 20 35  1  0  0  0  0
 20 36  1  0  0  0  0
 21 37  1  0  0  0  0
 22 23  1  0  0  0  0
 22 38  1  0  0  0  0
 22 39  1  0  0  0  0
 23 24  1  0  0  0  0
 23 40  1  0  0  0  0
 23 41  1  0  0  0  0
 24 42  1  0  0  0  0
 43 44  1  0  0  0  0
M  CHG  1  43   1
M  END
$$$$
ZINC03815192
  -OEChem-08230709403D

 33 36  0     0  0  0  0  0  0999 V2000
   -9.6974    2.3519    0.3976 C   0  0  0  0  0  0  0  0  0  0  0  0
   -8.3992    2.8141    0.4934 C   0  0  0  0  0  0  0  0  0  0  0  0
   -7.3542    2.0575   -0.0212 C   0  0  0  0  0  0  0  0  0  0  0  0
   -7.6188    0.8401   -0.6357 C   0  0  0  0  0  0  0  0  0  0  0  0
   -8.9191    0.3813   -0.7245 C   0  0  0  0  0  0  0  0  0  0  0  0
   -9.9577    1.1378   -0.2101 C   0  0  0  0  0  0  0  0  0  0  0  0
   -9.2805   -1.2785   -1.5554 Br  0  0  0  0  0  0  0  0  0  0  0  0
   -6.0397    2.5229    0.0738 N   0  0  0  0  0  0  0  0  0  0  0  0
   -4.9942    1.6230    0.2189 C   0  0  0  0  0  0  0  0  0  0  0  0
   -3.6744    2.0552    0.2006 C   0  0  0  0  0  0  0  0  0  0  0  0
   -2.6183    1.1479    0.3465 C   0  0  0  0  0  0  0  0  0  0  0  0
   -1.2601    1.7244    0.3043 C   0  0  0  0  0  0  0  0  0  0  0  0
   -0.0321    1.0380    0.4326 C   0  0  0  0  0  0  0  0  0  0  0  0
    1.1572    1.7174    0.3793 C   0  0  0  0  0  0  0  0  0  0  0  0
    1.1929    3.0935    0.2040 C   0  0  0  0  0  0  0  0  0  0  0  0
    0.0094    3.7934    0.0812 C   0  0  0  0  0  0  0  0  0  0  0  0
   -1.1932    3.1172    0.1341 C   0  0  0  0  0  0  0  0  0  0  0  0
   -2.8880    3.6325    0.0205 S   0  0  0  0  0  0  0  0  0  0  0  0
    2.4276    0.9690    0.5109 N   0  3  0  0  0  0  0  0  0  0  0  0
    2.4095   -0.2391    0.6648 O   0  0  0  0  0  0  0  0  0  0  0  0
    3.4909    1.5613    0.4652 O   0  5  0  0  0  0  0  0  0  0  0  0
   -2.9669   -0.1491    0.5033 N   0  0  0  0  0  0  0  0  0  0  0  0
   -4.2220   -0.5210    0.5153 C   0  0  0  0  0  0  0  0  0  0  0  0
   -5.2299    0.3214    0.3791 N   0  0  0  0  0  0  0  0  0  0  0  0
  -10.5101    2.9400    0.7977 H   0  0  0  0  0  0  0  0  0  0  0  0
   -8.1969    3.7627    0.9683 H   0  0  0  0  0  0  0  0  0  0  0  0
   -6.8089    0.2514   -1.0405 H   0  0  0  0  0  0  0  0  0  0  0  0
  -10.9736    0.7790   -0.2840 H   0  0  0  0  0  0  0  0  0  0  0  0
   -5.8586    3.4752    0.0383 H   0  0  0  0  0  0  0  0  0  0  0  0
   -0.0302   -0.0333    0.5696 H   0  0  0  0  0  0  0  0  0  0  0  0
    2.1390    3.6128    0.1644 H   0  0  0  0  0  0  0  0  0  0  0  0
    0.0241    4.8647   -0.0553 H   0  0  0  0  0  0  0  0  0  0  0  0
   -4.4445   -1.5700    0.6435 H   0  0  0  0  0  0  0  0  0  0  0  0
  1  6  2  0  0  0  0
  1  2  1  0  0  0  0
  1 25  1  0  0  0  0
  2  3  2  0  0  0  0
  2 26  1  0  0  0  0
  3  4  1  0  0  0  0
  3  8  1  0  0  0  0
  4  5  2  0  0  0  0
  4 27  1  0  0  0  0
  5  6  1  0  0  0  0
  5  7  1  0  0  0  0
  6 28  1  0  0  0  0
  8  9  1  0  0  0  0
  8 29  1  0  0  0  0
  9 24  2  0  0  0  0
  9 10  1  0  0  0  0
 10 18  1  0  0  0  0
 10 11  2  0  0  0  0
 11 12  1  0  0  0  0
 11 22  1  0  0  0  0
 12 17  2  0  0  0  0
 12 13  1  0  0  0  0
 13 14  2  0  0  0  0
 13 30  1  0  0  0  0
 14 15  1  0  0  0  0
 14 19  1  0  0  0  0
 15 16  2  0  0  0  0
 15 31  1  0  0  0  0
 16 17  1  0  0  0  0
 16 32  1  0  0  0  0
 17 18  1  0  0  0  0
 19 20  2  0  0  0  0
 19 21  1  0  0  0  0
 22 23  2  0  0  0  0
 23 24  1  0  0  0  0
 23 33  1  0  0  0  0
M  CHG  2  19   1  21  -1
M  END
$$$$
ZINC03815193
  -OEChem-08230709403D

 35 38  0     0  0  0  0  0  0999 V2000
    9.5785    7.3698   -0.6261 C   0  0  0  0  0  0  0  0  0  0  0  0
    8.2709    6.8038   -0.5177 O   0  0  0  0  0  0  0  0  0  0  0  0
    7.2215    7.6684   -0.5244 C   0  0  0  0  0  0  0  0  0  0  0  0
    7.4423    9.0316   -0.6331 C   0  0  0  0  0  0  0  0  0  0  0  0
    6.3596    9.8986   -0.6386 C   0  0  0  0  0  0  0  0  0  0  0  0
    5.0742    9.4331   -0.5385 C   0  0  0  0  0  0  0  0  0  0  0  0
    4.8136    8.0481   -0.4262 C   0  0  0  0  0  0  0  0  0  0  0  0
    5.9255    7.1919   -0.4230 C   0  0  0  0  0  0  0  0  0  0  0  0
    5.2333    5.5646   -0.2703 S   0  0  0  0  0  0  0  0  0  0  0  0
    3.5155    5.9941   -0.2114 C   0  0  0  0  0  0  0  0  0  0  0  0
    3.4971    7.3909   -0.3104 C   0  0  0  0  0  0  0  0  0  0  0  0
    2.2766    7.9718   -0.2878 N   0  0  0  0  0  0  0  0  0  0  0  0
    1.1839    7.2585   -0.1793 C   0  0  0  0  0  0  0  0  0  0  0  0
    1.1832    5.9410   -0.0910 N   0  0  0  0  0  0  0  0  0  0  0  0
    2.3353    5.2713   -0.0980 C   0  0  0  0  0  0  0  0  0  0  0  0
    2.3548    3.8878   -0.0005 N   0  0  0  0  0  0  0  0  0  0  0  0
    1.1686    3.1870    0.2342 C   0  0  0  0  0  0  0  0  0  0  0  0
    0.9771    1.9330   -0.3325 C   0  0  0  0  0  0  0  0  0  0  0  0
   -0.1961    1.2431   -0.0993 C   0  0  0  0  0  0  0  0  0  0  0  0
   -1.1826    1.8010    0.6932 C   0  0  0  0  0  0  0  0  0  0  0  0
   -0.9934    3.0473    1.2636 C   0  0  0  0  0  0  0  0  0  0  0  0
    0.1786    3.7429    1.0340 C   0  0  0  0  0  0  0  0  0  0  0  0
   -2.3428    3.8029    2.3518 Br  0  0  0  0  0  0  0  0  0  0  0  0
    9.7518    8.0470    0.2103 H   0  0  0  0  0  0  0  0  0  0  0  0
   10.3220    6.5729   -0.6083 H   0  0  0  0  0  0  0  0  0  0  0  0
    9.6593    7.9212   -1.5628 H   0  0  0  0  0  0  0  0  0  0  0  0
    8.4485    9.4159   -0.7124 H   0  0  0  0  0  0  0  0  0  0  0  0
    6.5328   10.9613   -0.7230 H   0  0  0  0  0  0  0  0  0  0  0  0
    4.2512   10.1323   -0.5459 H   0  0  0  0  0  0  0  0  0  0  0  0
    0.2347    7.7736   -0.1663 H   0  0  0  0  0  0  0  0  0  0  0  0
    3.1917    3.4066   -0.0951 H   0  0  0  0  0  0  0  0  0  0  0  0
    1.7453    1.4980   -0.9546 H   0  0  0  0  0  0  0  0  0  0  0  0
   -0.3454    0.2684   -0.5400 H   0  0  0  0  0  0  0  0  0  0  0  0
   -2.1010    1.2610    0.8706 H   0  0  0  0  0  0  0  0  0  0  0  0
    0.3242    4.7176    1.4757 H   0  0  0  0  0  0  0  0  0  0  0  0
  1  2  1  0  0  0  0
  1 24  1  0  0  0  0
  1 25  1  0  0  0  0
  1 26  1  0  0  0  0
  2  3  1  0  0  0  0
  3  8  2  0  0  0  0
  3  4  1  0  0  0  0
  4  5  2  0  0  0  0
  4 27  1  0  0  0  0
  5  6  1  0  0  0  0
  5 28  1  0  0  0  0
  6  7  2  0  0  0  0
  6 29  1  0  0  0  0
  7 11  1  0  0  0  0
  7  8  1  0  0  0  0
  8  9  1  0  0  0  0
  9 10  1  0  0  0  0
 10 15  2  0  0  0  0
 10 11  1  0  0  0  0
 11 12  2  0  0  0  0
 12 13  1  0  0  0  0
 13 14  2  0  0  0  0
 13 30  1  0  0  0  0
 14 15  1  0  0  0  0
 15 16  1  0  0  0  0
 16 17  1  0  0  0  0
 16 31  1  0  0  0  0
 17 22  2  0  0  0  0
 17 18  1  0  0  0  0
 18 19  2  0  0  0  0
 18 32  1  0  0  0  0
 19 20  1  0  0  0  0
 19 33  1  0  0  0  0
 20 21  2  0  0  0  0
 20 34  1  0  0  0  0
 21 22  1  0  0  0  0
 21 23  1  0  0  0  0
 22 35  1  0  0  0  0
M  END
$$$$
ZINC03815194
  -OEChem-08230709403D

 40 43  0     0  0  0  0  0  0999 V2000
   -2.2008   -2.7571    1.2890 C   0  0  0  0  0  0  0  0  0  0  0  0
   -1.0921   -2.0455    0.5573 C   0  0  0  0  0  0  0  0  0  0  0  0
   -0.0401   -2.7688    0.0252 C   0  0  0  0  0  0  0  0  0  0  0  0
    0.9791   -2.1198   -0.6469 C   0  0  0  0  0  0  0  0  0  0  0  0
    0.9470   -0.7467   -0.7936 C   0  0  0  0  0  0  0  0  0  0  0  0
   -0.1054   -0.0169   -0.2563 C   0  0  0  0  0  0  0  0  0  0  0  0
   -1.1279   -0.6722    0.4184 C   0  0  0  0  0  0  0  0  0  0  0  0
   -0.1388    1.3733   -0.3991 N   0  0  0  0  0  0  0  0  0  0  0  0
   -1.3514    2.0284   -0.5036 C   0  0  0  0  0  0  0  0  0  0  0  0
   -1.4131    3.4320   -0.5139 C   0  0  0  0  0  0  0  0  0  0  0  0
   -2.6745    4.0491   -0.6270 C   0  0  0  0  0  0  0  0  0  0  0  0
   -2.4573    5.3934   -0.6195 N   0  0  0  0  0  0  0  0  0  0  0  0
   -3.1671    6.0941   -0.6924 H   0  0  0  0  0  0  0  0  0  0  0  0
   -1.0861    5.6412   -0.4939 N   0  0  0  0  0  0  0  0  0  0  0  0
   -0.4317    4.5098   -0.4351 C   0  0  0  0  0  0  0  0  0  0  0  0
    0.9521    4.3605   -0.3189 N   0  0  0  0  0  0  0  0  0  0  0  0
    1.7826    5.4825   -0.3721 C   0  0  0  0  0  0  0  0  0  0  0  0
    3.0439    5.4434    0.2098 C   0  0  0  0  0  0  0  0  0  0  0  0
    3.8629    6.5538    0.1552 C   0  0  0  0  0  0  0  0  0  0  0  0
    3.4296    7.7045   -0.4776 C   0  0  0  0  0  0  0  0  0  0  0  0
    2.1744    7.7474   -1.0588 C   0  0  0  0  0  0  0  0  0  0  0  0
    1.3516    6.6376   -1.0118 C   0  0  0  0  0  0  0  0  0  0  0  0
    1.6348    9.1942   -1.8521 Cl  0  0  0  0  0  0  0  0  0  0  0  0
   -3.7582    3.2772   -0.7096 N   0  0  0  0  0  0  0  0  0  0  0  0
   -3.6515    1.9668   -0.6910 C   0  0  0  0  0  0  0  0  0  0  0  0
   -2.4892    1.3462   -0.5913 N   0  0  0  0  0  0  0  0  0  0  0  0
   -2.9846   -3.0314    0.5830 H   0  0  0  0  0  0  0  0  0  0  0  0
   -1.8058   -3.6568    1.7609 H   0  0  0  0  0  0  0  0  0  0  0  0
   -2.6140   -2.0979    2.0525 H   0  0  0  0  0  0  0  0  0  0  0  0
   -0.0149   -3.8429    0.1346 H   0  0  0  0  0  0  0  0  0  0  0  0
    1.7992   -2.6875   -1.0612 H   0  0  0  0  0  0  0  0  0  0  0  0
    1.7414   -0.2408   -1.3222 H   0  0  0  0  0  0  0  0  0  0  0  0
   -1.9500   -0.1081    0.8335 H   0  0  0  0  0  0  0  0  0  0  0  0
    0.6892    1.8778   -0.4289 H   0  0  0  0  0  0  0  0  0  0  0  0
    1.3365    3.4777   -0.2012 H   0  0  0  0  0  0  0  0  0  0  0  0
    3.3832    4.5454    0.7046 H   0  0  0  0  0  0  0  0  0  0  0  0
    4.8434    6.5234    0.6071 H   0  0  0  0  0  0  0  0  0  0  0  0
    4.0723    8.5715   -0.5188 H   0  0  0  0  0  0  0  0  0  0  0  0
    0.3735    6.6699   -1.4686 H   0  0  0  0  0  0  0  0  0  0  0  0
   -4.5511    1.3731   -0.7595 H   0  0  0  0  0  0  0  0  0  0  0  0
  1  2  1  0  0  0  0
  1 27  1  0  0  0  0
  1 28  1  0  0  0  0
  1 29  1  0  0  0  0
  2  7  2  0  0  0  0
  2  3  1  0  0  0  0
  3  4  2  0  0  0  0
  3 30  1  0  0  0  0
  4  5  1  0  0  0  0
  4 31  1  0  0  0  0
  5  6  2  0  0  0  0
  5 32  1  0  0  0  0
  6  7  1  0  0  0  0
  6  8  1  0  0  0  0
  7 33  1  0  0  0  0
  8  9  1  0  0  0  0
  8 34  1  0  0  0  0
  9 26  2  0  0  0  0
  9 10  1  0  0  0  0
 10 15  1  0  0  0  0
 10 11  2  0  0  0  0
 11 12  1  0  0  0  0
 11 24  1  0  0  0  0
 12 13  1  0  0  0  0
 12 14  1  0  0  0  0
 14 15  2  0  0  0  0
 15 16  1  0  0  0  0
 16 17  1  0  0  0  0
 16 35  1  0  0  0  0
 17 22  2  0  0  0  0
 17 18  1  0  0  0  0
 18 19  2  0  0  0  0
 18 36  1  0  0  0  0
 19 20  1  0  0  0  0
 19 37  1  0  0  0  0
 20 21  2  0  0  0  0
 20 38  1  0  0  0  0
 21 22  1  0  0  0  0
 21 23  1  0  0  0  0
 22 39  1  0  0  0  0
 24 25  2  0  0  0  0
 25 26  1  0  0  0  0
 25 40  1  0  0  0  0
M  END
$$$$
ZINC03815194
  -OEChem-08230709403D

 40 43  0     0  0  0  0  0  0999 V2000
   -2.2008   -2.7571    1.2890 C   0  0  0  0  0  0  0  0  0  0  0  0
   -1.0921   -2.0455    0.5573 C   0  0  0  0  0  0  0  0  0  0  0  0
   -0.0401   -2.7688    0.0252 C   0  0  0  0  0  0  0  0  0  0  0  0
    0.9791   -2.1198   -0.6469 C   0  0  0  0  0  0  0  0  0  0  0  0
    0.9470   -0.7467   -0.7936 C   0  0  0  0  0  0  0  0  0  0  0  0
   -0.1054   -0.0169   -0.2563 C   0  0  0  0  0  0  0  0  0  0  0  0
   -1.1279   -0.6722    0.4184 C   0  0  0  0  0  0  0  0  0  0  0  0
   -0.1388    1.3733   -0.3991 N   0  0  0  0  0  0  0  0  0  0  0  0
   -1.3514    2.0284   -0.5036 C   0  0  0  0  0  0  0  0  0  0  0  0
   -1.4131    3.4320   -0.5139 C   0  0  0  0  0  0  0  0  0  0  0  0
   -2.6745    4.0491   -0.6270 C   0  0  0  0  0  0  0  0  0  0  0  0
   -2.4573    5.3934   -0.6195 N   0  0  0  0  0  0  0  0  0  0  0  0
   -3.1671    6.0941   -0.6924 H   0  0  0  0  0  0  0  0  0  0  0  0
   -1.0861    5.6412   -0.4939 N   0  0  0  0  0  0  0  0  0  0  0  0
   -0.4317    4.5098   -0.4351 C   0  0  0  0  0  0  0  0  0  0  0  0
    0.9521    4.3605   -0.3189 N   0  0  0  0  0  0  0  0  0  0  0  0
    1.7826    5.4825   -0.3721 C   0  0  0  0  0  0  0  0  0  0  0  0
    3.0439    5.4434    0.2098 C   0  0  0  0  0  0  0  0  0  0  0  0
    3.8629    6.5538    0.1552 C   0  0  0  0  0  0  0  0  0  0  0  0
    3.4296    7.7045   -0.4776 C   0  0  0  0  0  0  0  0  0  0  0  0
    2.1744    7.7474   -1.0588 C   0  0  0  0  0  0  0  0  0  0  0  0
    1.3516    6.6376   -1.0118 C   0  0  0  0  0  0  0  0  0  0  0  0
    1.6348    9.1942   -1.8521 Cl  0  0  0  0  0  0  0  0  0  0  0  0
   -3.7582    3.2772   -0.7096 N   0  0  0  0  0  0  0  0  0  0  0  0
   -3.6515    1.9668   -0.6910 C   0  0  0  0  0  0  0  0  0  0  0  0
   -2.4892    1.3462   -0.5913 N   0  0  0  0  0  0  0  0  0  0  0  0
   -2.9846   -3.0314    0.5830 H   0  0  0  0  0  0  0  0  0  0  0  0
   -1.8058   -3.6568    1.7609 H   0  0  0  0  0  0  0  0  0  0  0  0
   -2.6140   -2.0979    2.0525 H   0  0  0  0  0  0  0  0  0  0  0  0
   -0.0149   -3.8429    0.1346 H   0  0  0  0  0  0  0  0  0  0  0  0
    1.7992   -2.6875   -1.0612 H   0  0  0  0  0  0  0  0  0  0  0  0
    1.7414   -0.2408   -1.3222 H   0  0  0  0  0  0  0  0  0  0  0  0
   -1.9500   -0.1081    0.8335 H   0  0  0  0  0  0  0  0  0  0  0  0
    0.6892    1.8778   -0.4289 H   0  0  0  0  0  0  0  0  0  0  0  0
    1.3365    3.4777   -0.2012 H   0  0  0  0  0  0  0  0  0  0  0  0
    3.3832    4.5454    0.7046 H   0  0  0  0  0  0  0  0  0  0  0  0
    4.8434    6.5234    0.6071 H   0  0  0  0  0  0  0  0  0  0  0  0
    4.0723    8.5715   -0.5188 H   0  0  0  0  0  0  0  0  0  0  0  0
    0.3735    6.6699   -1.4686 H   0  0  0  0  0  0  0  0  0  0  0  0
   -4.5511    1.3731   -0.7595 H   0  0  0  0  0  0  0  0  0  0  0  0
  1  2  1  0  0  0  0
  1 27  1  0  0  0  0
  1 28  1  0  0  0  0
  1 29  1  0  0  0  0
  2  7  2  0  0  0  0
  2  3  1  0  0  0  0
  3  4  2  0  0  0  0
  3 30  1  0  0  0  0
  4  5  1  0  0  0  0
  4 31  1  0  0  0  0
  5  6  2  0  0  0  0
  5 32  1  0  0  0  0
  6  7  1  0  0  0  0
  6  8  1  0  0  0  0
  7 33  1  0  0  0  0
  8  9  1  0  0  0  0
  8 34  1  0  0  0  0
  9 26  2  0  0  0  0
  9 10  1  0  0  0  0
 10 15  1  0  0  0  0
 10 11  2  0  0  0  0
 11 12  1  0  0  0  0
 11 24  1  0  0  0  0
 12 13  1  0  0  0  0
 12 14  1  0  0  0  0
 14 15  2  0  0  0  0
 15 16  1  0  0  0  0
 16 17  1  0  0  0  0
 16 35  1  0  0  0  0
 17 22  2  0  0  0  0
 17 18  1  0  0  0  0
 18 19  2  0  0  0  0
 18 36  1  0  0  0  0
 19 20  1  0  0  0  0
 19 37  1  0  0  0  0
 20 21  2  0  0  0  0
 20 38  1  0  0  0  0
 21 22  1  0  0  0  0
 21 23  1  0  0  0  0
 22 39  1  0  0  0  0
 24 25  2  0  0  0  0
 25 26  1  0  0  0  0
 25 40  1  0  0  0  0
M  END
$$$$
ZINC03815195
  -OEChem-08230709403D

 37 40  0     0  0  0  0  0  0999 V2000
    2.1743    1.4249   -0.3564 C   0  0  0  0  0  0  0  0  0  0  0  0
    2.1853    0.0484   -0.4694 C   0  0  0  0  0  0  0  0  0  0  0  0
    1.2766   -0.7141    0.2537 C   0  0  0  0  0  0  0  0  0  0  0  0
    0.3591   -0.0890    1.0889 C   0  0  0  0  0  0  0  0  0  0  0  0
    0.3532    1.2886    1.1976 C   0  0  0  0  0  0  0  0  0  0  0  0
    1.2604    2.0448    0.4754 C   0  0  0  0  0  0  0  0  0  0  0  0
   -0.7925    2.0715    2.2407 Cl  0  0  0  0  0  0  0  0  0  0  0  0
    1.2852   -2.1065    0.1409 N   0  0  0  0  0  0  0  0  0  0  0  0
    2.4738   -2.7755   -0.1599 C   0  0  0  0  0  0  0  0  0  0  0  0
    2.6185   -4.2045   -0.4202 C   0  0  0  0  0  0  0  0  0  0  0  0
    3.9863   -4.4266   -0.6754 C   0  0  0  0  0  0  0  0  0  0  0  0
    4.6069   -3.2186   -0.5738 N   0  0  0  0  0  0  0  0  0  0  0  0
    5.5861   -3.0593   -0.6999 H   0  0  0  0  0  0  0  0  0  0  0  0
    3.6608   -2.2353   -0.2655 N   0  0  0  0  0  0  0  0  0  0  0  0
    4.3924   -5.6667   -0.9465 N   0  0  0  0  0  0  0  0  0  0  0  0
    3.5340   -6.6626   -0.9752 C   0  0  0  0  0  0  0  0  0  0  0  0
    2.2438   -6.5001   -0.7428 N   0  0  0  0  0  0  0  0  0  0  0  0
    1.7417   -5.3011   -0.4623 C   0  0  0  0  0  0  0  0  0  0  0  0
    0.3908   -5.1378   -0.2193 N   0  0  0  0  0  0  0  0  0  0  0  0
   -0.4481   -6.2543   -0.1571 C   0  0  0  0  0  0  0  0  0  0  0  0
    0.0361   -7.4626    0.3284 C   0  0  0  0  0  0  0  0  0  0  0  0
   -0.7950   -8.5637    0.3892 C   0  0  0  0  0  0  0  0  0  0  0  0
   -2.1083   -8.4651   -0.0325 C   0  0  0  0  0  0  0  0  0  0  0  0
   -2.5941   -7.2635   -0.5166 C   0  0  0  0  0  0  0  0  0  0  0  0
   -1.7688   -6.1564   -0.5750 C   0  0  0  0  0  0  0  0  0  0  0  0
   -4.3910   -7.1337   -1.0914 Br  0  0  0  0  0  0  0  0  0  0  0  0
    2.8836    2.0176   -0.9150 H   0  0  0  0  0  0  0  0  0  0  0  0
    2.8999   -0.4348   -1.1192 H   0  0  0  0  0  0  0  0  0  0  0  0
   -0.3484   -0.6789    1.6526 H   0  0  0  0  0  0  0  0  0  0  0  0
    1.2541    3.1213    0.5618 H   0  0  0  0  0  0  0  0  0  0  0  0
    0.4656   -2.6087    0.2715 H   0  0  0  0  0  0  0  0  0  0  0  0
    3.8989   -7.6543   -1.1984 H   0  0  0  0  0  0  0  0  0  0  0  0
    0.0249   -4.2485   -0.0919 H   0  0  0  0  0  0  0  0  0  0  0  0
    1.0617   -7.5408    0.6577 H   0  0  0  0  0  0  0  0  0  0  0  0
   -0.4189   -9.5031    0.7669 H   0  0  0  0  0  0  0  0  0  0  0  0
   -2.7563   -9.3278    0.0165 H   0  0  0  0  0  0  0  0  0  0  0  0
   -2.1493   -5.2174   -0.9491 H   0  0  0  0  0  0  0  0  0  0  0  0
  1  6  2  0  0  0  0
  1  2  1  0  0  0  0
  1 27  1  0  0  0  0
  2  3  2  0  0  0  0
  2 28  1  0  0  0  0
  3  4  1  0  0  0  0
  3  8  1  0  0  0  0
  4  5  2  0  0  0  0
  4 29  1  0  0  0  0
  5  6  1  0  0  0  0
  5  7  1  0  0  0  0
  6 30  1  0  0  0  0
  8  9  1  0  0  0  0
  8 31  1  0  0  0  0
  9 14  2  0  0  0  0
  9 10  1  0  0  0  0
 10 18  2  0  0  0  0
 10 11  1  0  0  0  0
 11 12  1  0  0  0  0
 11 15  2  0  0  0  0
 12 13  1  0  0  0  0
 12 14  1  0  0  0  0
 15 16  1  0  0  0  0
 16 17  2  0  0  0  0
 16 32  1  0  0  0  0
 17 18  1  0  0  0  0
 18 19  1  0  0  0  0
 19 20  1  0  0  0  0
 19 33  1  0  0  0  0
 20 25  2  0  0  0  0
 20 21  1  0  0  0  0
 21 22  2  0  0  0  0
 21 34  1  0  0  0  0
 22 23  1  0  0  0  0
 22 35  1  0  0  0  0
 23 24  2  0  0  0  0
 23 36  1  0  0  0  0
 24 25  1  0  0  0  0
 24 26  1  0  0  0  0
 25 37  1  0  0  0  0
M  END
$$$$
ZINC03815196
  -OEChem-08230709403D

 31 33  0     0  0  0  0  0  0999 V2000
   -2.6124    7.7349    0.2462 C   0  0  0  0  0  0  0  0  0  0  0  0
   -1.3224    7.0408    0.2265 N   0  0  0  0  0  0  0  0  0  0  0  0
   -1.2774    5.6683    0.0507 C   0  0  0  0  0  0  0  0  0  0  0  0
   -2.4216    5.0046   -0.0978 N   0  0  0  0  0  0  0  0  0  0  0  0
   -2.4446    3.6992   -0.2681 C   0  0  0  0  0  0  0  0  0  0  0  0
   -1.2204    3.0058   -0.2908 C   0  0  0  0  0  0  0  0  0  0  0  0
   -0.0264    3.7485   -0.1293 C   0  0  0  0  0  0  0  0  0  0  0  0
   -0.1014    5.0686    0.0371 N   0  0  0  0  0  0  0  0  0  0  0  0
    1.2046    3.0459   -0.1528 C   0  0  0  0  0  0  0  0  0  0  0  0
    1.1703    1.7321   -0.3248 N   0  0  0  0  0  0  0  0  0  0  0  0
    0.0264    1.0823   -0.4716 C   0  0  0  0  0  0  0  0  0  0  0  0
   -1.1413    1.6816   -0.4634 N   0  0  0  0  0  0  0  0  0  0  0  0
    2.4048    3.7111   -0.0014 N   0  0  0  0  0  0  0  0  0  0  0  0
    3.5977    2.9885    0.0883 C   0  0  0  0  0  0  0  0  0  0  0  0
    3.6103    1.7378    0.6928 C   0  0  0  0  0  0  0  0  0  0  0  0
    4.7899    1.0246    0.7759 C   0  0  0  0  0  0  0  0  0  0  0  0
    5.9598    1.5583    0.2669 C   0  0  0  0  0  0  0  0  0  0  0  0
    5.9519    2.8054   -0.3308 C   0  0  0  0  0  0  0  0  0  0  0  0
    4.7748    3.5219   -0.4216 C   0  0  0  0  0  0  0  0  0  0  0  0
   -3.1261    7.5738   -0.7016 H   0  0  0  0  0  0  0  0  0  0  0  0
   -3.2223    7.3450    1.0610 H   0  0  0  0  0  0  0  0  0  0  0  0
   -2.4484    8.8024    0.3937 H   0  0  0  0  0  0  0  0  0  0  0  0
   -0.4997    7.5429    0.3365 H   0  0  0  0  0  0  0  0  0  0  0  0
   -3.3804    3.1733   -0.3871 H   0  0  0  0  0  0  0  0  0  0  0  0
    0.0555    0.0114   -0.6086 H   0  0  0  0  0  0  0  0  0  0  0  0
    2.4202    4.6800    0.0427 H   0  0  0  0  0  0  0  0  0  0  0  0
    2.6978    1.3221    1.0939 H   0  0  0  0  0  0  0  0  0  0  0  0
    4.7997    0.0508    1.2427 H   0  0  0  0  0  0  0  0  0  0  0  0
    6.8817    1.0001    0.3366 H   0  0  0  0  0  0  0  0  0  0  0  0
    6.8672    3.2193   -0.7273 H   0  0  0  0  0  0  0  0  0  0  0  0
    4.7693    4.4959   -0.8881 H   0  0  0  0  0  0  0  0  0  0  0  0
  1  2  1  0  0  0  0
  1 20  1  0  0  0  0
  1 21  1  0  0  0  0
  1 22  1  0  0  0  0
  2  3  1  0  0  0  0
  2 23  1  0  0  0  0
  3  8  2  0  0  0  0
  3  4  1  0  0  0  0
  4  5  2  0  0  0  0
  5  6  1  0  0  0  0
  5 24  1  0  0  0  0
  6 12  2  0  0  0  0
  6  7  1  0  0  0  0
  7  8  1  0  0  0  0
  7  9  2  0  0  0  0
  9 10  1  0  0  0  0
  9 13  1  0  0  0  0
 10 11  2  0  0  0  0
 11 12  1  0  0  0  0
 11 25  1  0  0  0  0
 13 14  1  0  0  0  0
 13 26  1  0  0  0  0
 14 19  2  0  0  0  0
 14 15  1  0  0  0  0
 15 16  2  0  0  0  0
 15 27  1  0  0  0  0
 16 17  1  0  0  0  0
 16 28  1  0  0  0  0
 17 18  2  0  0  0  0
 17 29  1  0  0  0  0
 18 19  1  0  0  0  0
 18 30  1  0  0  0  0
 19 31  1  0  0  0  0
M  END
$$$$
ZINC03815197
  -OEChem-08230709403D

 27 29  0     0  0  0  0  0  0999 V2000
    2.1589    5.6967    0.3937 C   0  0  0  0  0  0  0  0  0  0  0  0
    2.2611    4.3226    0.4908 C   0  0  0  0  0  0  0  0  0  0  0  0
    3.3220    3.6618   -0.1148 C   0  0  0  0  0  0  0  0  0  0  0  0
    4.2807    4.3860   -0.8119 C   0  0  0  0  0  0  0  0  0  0  0  0
    4.1703    5.7599   -0.9095 C   0  0  0  0  0  0  0  0  0  0  0  0
    3.1115    6.4148   -0.3050 C   0  0  0  0  0  0  0  0  0  0  0  0
    5.4713    6.7468   -1.8631 Br  0  0  0  0  0  0  0  0  0  0  0  0
    3.4279    2.2713   -0.0182 N   0  0  0  0  0  0  0  0  0  0  0  0
    2.2909    1.4922   -0.0132 C   0  0  0  0  0  0  0  0  0  0  0  0
    2.3655    0.0964    0.2047 C   0  0  0  0  0  0  0  0  0  0  0  0
    3.5715   -0.5732    0.4257 C   0  0  0  0  0  0  0  0  0  0  0  0
    3.5705   -1.8739    0.6218 N   0  0  0  0  0  0  0  0  0  0  0  0
    2.4576   -2.5968    0.6200 C   0  0  0  0  0  0  0  0  0  0  0  0
    1.2307   -2.0312    0.4131 C   0  0  0  0  0  0  0  0  0  0  0  0
    1.1571   -0.6481    0.1972 C   0  0  0  0  0  0  0  0  0  0  0  0
    0.0029   -0.0053   -0.0145 N   0  0  0  0  0  0  0  0  0  0  0  0
   -0.0059    1.2933   -0.2116 C   0  0  0  0  0  0  0  0  0  0  0  0
    1.0933    2.0295   -0.2138 N   0  0  0  0  0  0  0  0  0  0  0  0
    2.5397   -3.9290    0.8290 F   0  0  0  0  0  0  0  0  0  0  0  0
    1.3340    6.2108    0.8646 H   0  0  0  0  0  0  0  0  0  0  0  0
    1.5164    3.7626    1.0369 H   0  0  0  0  0  0  0  0  0  0  0  0
    5.1093    3.8755   -1.2802 H   0  0  0  0  0  0  0  0  0  0  0  0
    3.0294    7.4891   -0.3791 H   0  0  0  0  0  0  0  0  0  0  0  0
    4.3016    1.8546    0.0453 H   0  0  0  0  0  0  0  0  0  0  0  0
    4.5017   -0.0247    0.4356 H   0  0  0  0  0  0  0  0  0  0  0  0
    0.3367   -2.6372    0.4155 H   0  0  0  0  0  0  0  0  0  0  0  0
   -0.9535    1.7818   -0.3843 H   0  0  0  0  0  0  0  0  0  0  0  0
  1  6  2  0  0  0  0
  1  2  1  0  0  0  0
  1 20  1  0  0  0  0
  2  3  2  0  0  0  0
  2 21  1  0  0  0  0
  3  4  1  0  0  0  0
  3  8  1  0  0  0  0
  4  5  2  0  0  0  0
  4 22  1  0  0  0  0
  5  6  1  0  0  0  0
  5  7  1  0  0  0  0
  6 23  1  0  0  0  0
  8  9  1  0  0  0  0
  8 24  1  0  0  0  0
  9 18  2  0  0  0  0
  9 10  1  0  0  0  0
 10 15  2  0  0  0  0
 10 11  1  0  0  0  0
 11 12  2  0  0  0  0
 11 25  1  0  0  0  0
 12 13  1  0  0  0  0
 13 14  2  0  0  0  0
 13 19  1  0  0  0  0
 14 15  1  0  0  0  0
 14 26  1  0  0  0  0
 15 16  1  0  0  0  0
 16 17  2  0  0  0  0
 17 18  1  0  0  0  0
 17 27  1  0  0  0  0
M  END
$$$$
ZINC03815198
  -OEChem-08230709403D

 41 43  0     0  0  0  0  0  0999 V2000
    2.1577    5.6966    0.3942 C   0  0  0  0  0  0  0  0  0  0  0  0
    2.2603    4.3225    0.4909 C   0  0  0  0  0  0  0  0  0  0  0  0
    3.3215    3.6622   -0.1150 C   0  0  0  0  0  0  0  0  0  0  0  0
    4.2797    4.3869   -0.8123 C   0  0  0  0  0  0  0  0  0  0  0  0
    4.1688    5.7608   -0.9094 C   0  0  0  0  0  0  0  0  0  0  0  0
    3.1100    6.4152   -0.3043 C   0  0  0  0  0  0  0  0  0  0  0  0
    5.4687    6.7483   -1.8638 Br  0  0  0  0  0  0  0  0  0  0  0  0
    3.4281    2.2717   -0.0184 N   0  0  0  0  0  0  0  0  0  0  0  0
    2.2914    1.4919   -0.0144 C   0  0  0  0  0  0  0  0  0  0  0  0
    2.3671    0.0967    0.2035 C   0  0  0  0  0  0  0  0  0  0  0  0
    3.5751   -0.5691    0.4250 C   0  0  0  0  0  0  0  0  0  0  0  0
    2.4717   -2.6006    0.6204 C   0  0  0  0  0  0  0  0  0  0  0  0
    1.2299   -2.0296    0.4098 C   0  0  0  0  0  0  0  0  0  0  0  0
    1.1580   -0.6486    0.1945 C   0  0  0  0  0  0  0  0  0  0  0  0
    0.0031   -0.0057   -0.0186 N   0  0  0  0  0  0  0  0  0  0  0  0
   -0.0056    1.2929   -0.2155 C   0  0  0  0  0  0  0  0  0  0  0  0
    1.0937    2.0290   -0.2163 N   0  0  0  0  0  0  0  0  0  0  0  0
    2.5608   -3.9699    0.8351 N   0  0  0  0  0  0  0  0  0  0  0  0
    1.3480   -4.7916    0.8367 C   0  0  0  0  0  0  0  0  0  0  0  0
    0.9984   -5.1877   -0.5993 C   0  0  0  0  0  0  0  0  0  0  0  0
    2.0257   -6.0310   -1.1242 O   0  0  0  0  0  0  0  0  0  0  0  0
    1.5872   -6.0524    1.6697 C   0  0  0  0  0  0  0  0  0  0  0  0
    2.5875   -6.8561    1.0408 O   0  0  0  0  0  0  0  0  0  0  0  0
    1.3327    6.2103    0.8653 H   0  0  0  0  0  0  0  0  0  0  0  0
    1.5159    3.7620    1.0368 H   0  0  0  0  0  0  0  0  0  0  0  0
    5.1084    3.8769   -1.2807 H   0  0  0  0  0  0  0  0  0  0  0  0
    3.0277    7.4896   -0.3778 H   0  0  0  0  0  0  0  0  0  0  0  0
    4.3020    1.8556    0.0458 H   0  0  0  0  0  0  0  0  0  0  0  0
    4.5026   -0.0158    0.4344 H   0  0  0  0  0  0  0  0  0  0  0  0
    0.3360   -2.6356    0.4110 H   0  0  0  0  0  0  0  0  0  0  0  0
   -0.9530    1.7814   -0.3892 H   0  0  0  0  0  0  0  0  0  0  0  0
    3.4261   -4.3821    0.9840 H   0  0  0  0  0  0  0  0  0  0  0  0
    0.5241   -4.2225    1.2673 H   0  0  0  0  0  0  0  0  0  0  0  0
    0.0491   -5.7233   -0.6076 H   0  0  0  0  0  0  0  0  0  0  0  0
    0.9152   -4.2911   -1.2135 H   0  0  0  0  0  0  0  0  0  0  0  0
    1.8699   -6.3214   -2.0333 H   0  0  0  0  0  0  0  0  0  0  0  0
    1.9224   -5.7703    2.6678 H   0  0  0  0  0  0  0  0  0  0  0  0
    0.6595   -6.6198    1.7447 H   0  0  0  0  0  0  0  0  0  0  0  0
    2.7907   -7.6738    1.5153 H   0  0  0  0  0  0  0  0  0  0  0  0
    3.6583   -1.9077    0.6351 N   0  3  0  0  0  0  0  0  0  0  0  0
    4.5576   -2.3762    0.7959 H   0  0  0  0  0  0  0  0  0  0  0  0
  1  6  2  0  0  0  0
  1  2  1  0  0  0  0
  1 24  1  0  0  0  0
  2  3  2  0  0  0  0
  2 25  1  0  0  0  0
  3  4  1  0  0  0  0
  3  8  1  0  0  0  0
  4  5  2  0  0  0  0
  4 26  1  0  0  0  0
  5  6  1  0  0  0  0
  5  7  1  0  0  0  0
  6 27  1  0  0  0  0
  8  9  1  0  0  0  0
  8 28  1  0  0  0  0
  9 17  2  0  0  0  0
  9 10  1  0  0  0  0
 10 14  2  0  0  0  0
 10 11  1  0  0  0  0
 11 29  1  0  0  0  0
 11 40  2  0  0  0  0
 12 13  2  0  0  0  0
 12 18  1  0  0  0  0
 12 40  1  0  0  0  0
 13 14  1  0  0  0  0
 13 30  1  0  0  0  0
 14 15  1  0  0  0  0
 15 16  2  0  0  0  0
 16 17  1  0  0  0  0
 16 31  1  0  0  0  0
 18 19  1  0  0  0  0
 18 32  1  0  0  0  0
 19 20  1  0  0  0  0
 19 22  1  0  0  0  0
 19 33  1  0  0  0  0
 20 21  1  0  0  0  0
 20 34  1  0  0  0  0
 20 35  1  0  0  0  0
 21 36  1  0  0  0  0
 22 23  1  0  0  0  0
 22 37  1  0  0  0  0
 22 38  1  0  0  0  0
 23 39  1  0  0  0  0
 40 41  1  0  0  0  0
M  CHG  1  40   1
M  END
$$$$
ZINC03815199
  -OEChem-08230709403D

 34 36  0     0  0  0  0  0  0999 V2000
    4.6758    5.0177    0.8432 C   0  0  0  0  0  0  0  0  0  0  0  0
    3.4641    5.7742    0.8807 O   0  0  0  0  0  0  0  0  0  0  0  0
    2.3067    5.0952    0.6725 C   0  0  0  0  0  0  0  0  0  0  0  0
    2.3459    3.7365    0.4394 C   0  0  0  0  0  0  0  0  0  0  0  0
    1.1511    3.0406    0.2249 C   0  0  0  0  0  0  0  0  0  0  0  0
   -0.0782    3.7453    0.2516 C   0  0  0  0  0  0  0  0  0  0  0  0
   -0.0862    5.1243    0.4910 C   0  0  0  0  0  0  0  0  0  0  0  0
    1.0895    5.7809    0.6972 C   0  0  0  0  0  0  0  0  0  0  0  0
    1.0774    7.2393    0.9502 N   0  3  0  0  0  0  0  0  0  0  0  0
    0.0207    7.8447    0.9730 O   0  0  0  0  0  0  0  0  0  0  0  0
    2.1241    7.8340    1.1355 O   0  5  0  0  0  0  0  0  0  0  0  0
   -1.2709    3.0156    0.0318 C   0  0  0  0  0  0  0  0  0  0  0  0
   -1.1761    1.7114   -0.1929 N   0  0  0  0  0  0  0  0  0  0  0  0
   -0.0053    1.0947   -0.2033 C   0  0  0  0  0  0  0  0  0  0  0  0
    1.1318    1.7187   -0.0063 N   0  0  0  0  0  0  0  0  0  0  0  0
   -2.4988    3.6448    0.0450 N   0  0  0  0  0  0  0  0  0  0  0  0
   -3.6716    2.8906   -0.0533 C   0  0  0  0  0  0  0  0  0  0  0  0
   -3.7416    1.6327    0.5326 C   0  0  0  0  0  0  0  0  0  0  0  0
   -4.9016    0.8901    0.4342 C   0  0  0  0  0  0  0  0  0  0  0  0
   -5.9935    1.3968   -0.2466 C   0  0  0  0  0  0  0  0  0  0  0  0
   -5.9276    2.6490   -0.8314 C   0  0  0  0  0  0  0  0  0  0  0  0
   -4.7712    3.3994   -0.7319 C   0  0  0  0  0  0  0  0  0  0  0  0
   -7.4235    3.3372   -1.7612 Br  0  0  0  0  0  0  0  0  0  0  0  0
    4.6465    4.2462    1.6126 H   0  0  0  0  0  0  0  0  0  0  0  0
    4.7824    4.5506   -0.1359 H   0  0  0  0  0  0  0  0  0  0  0  0
    5.5230    5.6793    1.0242 H   0  0  0  0  0  0  0  0  0  0  0  0
    3.2910    3.2140    0.4223 H   0  0  0  0  0  0  0  0  0  0  0  0
   -1.0205    5.6657    0.5119 H   0  0  0  0  0  0  0  0  0  0  0  0
    0.0154    0.0305   -0.3866 H   0  0  0  0  0  0  0  0  0  0  0  0
   -2.5482    4.6104    0.1226 H   0  0  0  0  0  0  0  0  0  0  0  0
   -2.8893    1.2360    1.0642 H   0  0  0  0  0  0  0  0  0  0  0  0
   -4.9563   -0.0876    0.8899 H   0  0  0  0  0  0  0  0  0  0  0  0
   -6.8996    0.8139   -0.3217 H   0  0  0  0  0  0  0  0  0  0  0  0
   -4.7215    4.3787   -1.1846 H   0  0  0  0  0  0  0  0  0  0  0  0
  1  2  1  0  0  0  0
  1 24  1  0  0  0  0
  1 25  1  0  0  0  0
  1 26  1  0  0  0  0
  2  3  1  0  0  0  0
  3  8  2  0  0  0  0
  3  4  1  0  0  0  0
  4  5  2  0  0  0  0
  4 27  1  0  0  0  0
  5 15  1  0  0  0  0
  5  6  1  0  0  0  0
  6  7  2  0  0  0  0
  6 12  1  0  0  0  0
  7  8  1  0  0  0  0
  7 28  1  0  0  0  0
  8  9  1  0  0  0  0
  9 10  2  0  0  0  0
  9 11  1  0  0  0  0
 12 13  2  0  0  0  0
 12 16  1  0  0  0  0
 13 14  1  0  0  0  0
 14 15  2  0  0  0  0
 14 29  1  0  0  0  0
 16 17  1  0  0  0  0
 16 30  1  0  0  0  0
 17 22  2  0  0  0  0
 17 18  1  0  0  0  0
 18 19  2  0  0  0  0
 18 31  1  0  0  0  0
 19 20  1  0  0  0  0
 19 32  1  0  0  0  0
 20 21  2  0  0  0  0
 20 33  1  0  0  0  0
 21 22  1  0  0  0  0
 21 23  1  0  0  0  0
 22 34  1  0  0  0  0
M  CHG  2   9   1  11  -1
M  END
$$$$
ZINC03815200
  -OEChem-08230709403D

 31 34  0     0  0  0  0  0  0999 V2000
    5.9504    2.8063   -0.3331 C   0  0  0  0  0  0  0  0  0  0  0  0
    4.7729    3.5229   -0.4222 C   0  0  0  0  0  0  0  0  0  0  0  0
    3.5963    2.9894    0.0879 C   0  0  0  0  0  0  0  0  0  0  0  0
    3.6088    1.7383    0.6916 C   0  0  0  0  0  0  0  0  0  0  0  0
    4.7889    1.0242    0.7729 C   0  0  0  0  0  0  0  0  0  0  0  0
    5.9593    1.5592    0.2634 C   0  0  0  0  0  0  0  0  0  0  0  0
    4.8065   -0.6820    1.5879 Br  0  0  0  0  0  0  0  0  0  0  0  0
    2.4033    3.7122   -0.0009 N   0  0  0  0  0  0  0  0  0  0  0  0
    1.2029    3.0473   -0.1526 C   0  0  0  0  0  0  0  0  0  0  0  0
   -0.0251    3.7501   -0.1277 C   0  0  0  0  0  0  0  0  0  0  0  0
   -0.0815    5.1373    0.0525 C   0  0  0  0  0  0  0  0  0  0  0  0
   -1.2915    5.7712    0.0693 C   0  0  0  0  0  0  0  0  0  0  0  0
   -2.4823    5.0447   -0.0939 C   0  0  0  0  0  0  0  0  0  0  0  0
   -2.4520    3.6793   -0.2728 C   0  0  0  0  0  0  0  0  0  0  0  0
   -1.2222    3.0104   -0.2911 C   0  0  0  0  0  0  0  0  0  0  0  0
   -1.1405    1.6819   -0.4652 N   0  0  0  0  0  0  0  0  0  0  0  0
    0.0264    1.0828   -0.4736 C   0  0  0  0  0  0  0  0  0  0  0  0
    1.1700    1.7325   -0.3262 N   0  0  0  0  0  0  0  0  0  0  0  0
   -3.5308    5.9167   -0.0381 O   0  0  0  0  0  0  0  0  0  0  0  0
   -3.0070    7.1115    0.5701 C   0  0  0  0  0  0  0  0  0  0  0  0
   -1.6093    7.0906    0.2266 O   0  0  0  0  0  0  0  0  0  0  0  0
    6.8654    3.2210   -0.7297 H   0  0  0  0  0  0  0  0  0  0  0  0
    4.7670    4.4971   -0.8884 H   0  0  0  0  0  0  0  0  0  0  0  0
    2.6966    1.3228    1.0935 H   0  0  0  0  0  0  0  0  0  0  0  0
    6.8815    1.0014    0.3324 H   0  0  0  0  0  0  0  0  0  0  0  0
    2.4187    4.6811    0.0442 H   0  0  0  0  0  0  0  0  0  0  0  0
    0.8289    5.7046    0.1775 H   0  0  0  0  0  0  0  0  0  0  0  0
   -3.3720    3.1276   -0.3981 H   0  0  0  0  0  0  0  0  0  0  0  0
    0.0555    0.0120   -0.6113 H   0  0  0  0  0  0  0  0  0  0  0  0
   -3.1354    7.0778    1.6520 H   0  0  0  0  0  0  0  0  0  0  0  0
   -3.4899    7.9956    0.1540 H   0  0  0  0  0  0  0  0  0  0  0  0
  1  6  2  0  0  0  0
  1  2  1  0  0  0  0
  1 22  1  0  0  0  0
  2  3  2  0  0  0  0
  2 23  1  0  0  0  0
  3  4  1  0  0  0  0
  3  8  1  0  0  0  0
  4  5  2  0  0  0  0
  4 24  1  0  0  0  0
  5  6  1  0  0  0  0
  5  7  1  0  0  0  0
  6 25  1  0  0  0  0
  8  9  1  0  0  0  0
  8 26  1  0  0  0  0
  9 18  2  0  0  0  0
  9 10  1  0  0  0  0
 10 15  2  0  0  0  0
 10 11  1  0  0  0  0
 11 12  2  0  0  0  0
 11 27  1  0  0  0  0
 12 21  1  0  0  0  0
 12 13  1  0  0  0  0
 13 14  2  0  0  0  0
 13 19  1  0  0  0  0
 14 15  1  0  0  0  0
 14 28  1  0  0  0  0
 15 16  1  0  0  0  0
 16 17  2  0  0  0  0
 17 18  1  0  0  0  0
 17 29  1  0  0  0  0
 19 20  1  0  0  0  0
 20 21  1  0  0  0  0
 20 30  1  0  0  0  0
 20 31  1  0  0  0  0
M  END
$$$$
ZINC03815201
  -OEChem-08230709403D

 38 40  0     1  0  0  0  0  0999 V2000
    1.3641   -4.8071    0.7293 C   0  0  0  0  0  0  0  0  0  0  0  0
    2.5612   -3.9694    0.8356 N   0  0  3  0  0  0  0  0  0  0  0  0
    3.8525   -4.5760    1.1688 C   0  0  0  0  0  0  0  0  0  0  0  0
    4.0326   -4.5839    2.6650 C   0  0  0  0  0  0  0  0  0  0  0  0
    3.1708   -4.1295    3.3796 O   0  0  0  0  0  0  0  0  0  0  0  0
    2.4720   -2.6003    0.6204 C   0  0  0  0  0  0  0  0  0  0  0  0
    1.2299   -2.0292    0.4098 C   0  0  0  0  0  0  0  0  0  0  0  0
    1.1580   -0.6486    0.1946 C   0  0  0  0  0  0  0  0  0  0  0  0
    2.3673    0.0969    0.2036 C   0  0  0  0  0  0  0  0  0  0  0  0
    3.5750   -0.5685    0.4254 C   0  0  0  0  0  0  0  0  0  0  0  0
    2.2915    1.4922   -0.0143 C   0  0  0  0  0  0  0  0  0  0  0  0
    1.0937    2.0291   -0.2162 N   0  0  0  0  0  0  0  0  0  0  0  0
   -0.0056    1.2930   -0.2154 C   0  0  0  0  0  0  0  0  0  0  0  0
    0.0030   -0.0056   -0.0184 N   0  0  0  0  0  0  0  0  0  0  0  0
    3.4280    2.2722   -0.0180 N   0  0  0  0  0  0  0  0  0  0  0  0
    3.3212    3.6627   -0.1146 C   0  0  0  0  0  0  0  0  0  0  0  0
    2.2594    4.3230    0.4911 C   0  0  0  0  0  0  0  0  0  0  0  0
    2.1566    5.6966    0.3945 C   0  0  0  0  0  0  0  0  0  0  0  0
    3.1093    6.4157   -0.3040 C   0  0  0  0  0  0  0  0  0  0  0  0
    4.1680    5.7616   -0.9086 C   0  0  0  0  0  0  0  0  0  0  0  0
    4.2791    4.3874   -0.8114 C   0  0  0  0  0  0  0  0  0  0  0  0
    5.4681    6.7494   -1.8625 Br  0  0  0  0  0  0  0  0  0  0  0  0
    1.2571   -5.1596   -0.2965 H   0  0  0  0  0  0  0  0  0  0  0  0
    1.4581   -5.6618    1.3992 H   0  0  0  0  0  0  0  0  0  0  0  0
    0.4863   -4.2233    1.0063 H   0  0  0  0  0  0  0  0  0  0  0  0
    3.8808   -5.5991    0.7940 H   0  0  0  0  0  0  0  0  0  0  0  0
    4.6546   -3.9984    0.7093 H   0  0  0  0  0  0  0  0  0  0  0  0
    0.3360   -2.6352    0.4111 H   0  0  0  0  0  0  0  0  0  0  0  0
    4.5024   -0.0151    0.4350 H   0  0  0  0  0  0  0  0  0  0  0  0
   -0.9530    1.7815   -0.3890 H   0  0  0  0  0  0  0  0  0  0  0  0
    4.3019    1.8563    0.0464 H   0  0  0  0  0  0  0  0  0  0  0  0
    1.5149    3.7624    1.0368 H   0  0  0  0  0  0  0  0  0  0  0  0
    1.3313    6.2102    0.8653 H   0  0  0  0  0  0  0  0  0  0  0  0
    3.0268    7.4900   -0.3774 H   0  0  0  0  0  0  0  0  0  0  0  0
    5.1079    3.8775   -1.2799 H   0  0  0  0  0  0  0  0  0  0  0  0
    5.1504   -5.0957    3.2037 O   0  5  0  0  0  0  0  0  0  0  0  0
    3.6583   -1.9074    0.6355 N   0  3  0  0  0  0  0  0  0  0  0  0
    4.5576   -2.3758    0.7966 H   0  0  0  0  0  0  0  0  0  0  0  0
  1  2  1  0  0  0  0
  1 23  1  0  0  0  0
  1 24  1  0  0  0  0
  1 25  1  0  0  0  0
  2  3  1  0  0  0  0
  2  6  1  0  0  0  0
  3  4  1  0  0  0  0
  3 26  1  0  0  0  0
  3 27  1  0  0  0  0
  4  5  2  0  0  0  0
  4 36  1  0  0  0  0
  6  7  2  0  0  0  0
  6 37  1  0  0  0  0
  7  8  1  0  0  0  0
  7 28  1  0  0  0  0
  8 14  2  0  0  0  0
  8  9  1  0  0  0  0
  9 10  1  0  0  0  0
  9 11  2  0  0  0  0
 10 29  1  0  0  0  0
 10 37  2  0  0  0  0
 11 12  1  0  0  0  0
 11 15  1  0  0  0  0
 12 13  2  0  0  0  0
 13 14  1  0  0  0  0
 13 30  1  0  0  0  0
 15 16  1  0  0  0  0
 15 31  1  0  0  0  0
 16 21  2  0  0  0  0
 16 17  1  0  0  0  0
 17 18  2  0  0  0  0
 17 32  1  0  0  0  0
 18 19  1  0  0  0  0
 18 33  1  0  0  0  0
 19 20  2  0  0  0  0
 19 34  1  0  0  0  0
 20 21  1  0  0  0  0
 20 22  1  0  0  0  0
 21 35  1  0  0  0  0
 37 38  1  0  0  0  0
M  CHG  2  36  -1  37   1
M  END
$$$$
ZINC03815202
  -OEChem-08230709403D

 31 33  0     0  0  0  0  0  0999 V2000
   -1.9932    0.9752   -1.4767 C   0  0  0  0  0  0  0  0  0  0  0  0
   -0.9727    1.7492   -0.6826 C   0  0  0  0  0  0  0  0  0  0  0  0
   -0.0171    1.0758    0.0566 C   0  0  0  0  0  0  0  0  0  0  0  0
    0.9243    1.7820    0.7824 C   0  0  0  0  0  0  0  0  0  0  0  0
    0.9100    3.1631    0.7757 C   0  0  0  0  0  0  0  0  0  0  0  0
   -0.0515    3.8425    0.0386 C   0  0  0  0  0  0  0  0  0  0  0  0
   -0.9959    3.1298   -0.6895 C   0  0  0  0  0  0  0  0  0  0  0  0
   -0.0691    5.2400    0.0299 N   0  0  0  0  0  0  0  0  0  0  0  0
    1.1134    5.9458    0.1271 C   0  0  0  0  0  0  0  0  0  0  0  0
    1.1201    7.4028    0.2403 C   0  0  0  0  0  0  0  0  0  0  0  0
    2.3761    8.0491    0.3409 C   0  0  0  0  0  0  0  0  0  0  0  0
    2.3947    9.4507    0.4562 C   0  0  0  0  0  0  0  0  0  0  0  0
    1.2446   10.0925    0.4707 N   0  0  0  0  0  0  0  0  0  0  0  0
    0.0841    9.4479    0.3795 C   0  0  0  0  0  0  0  0  0  0  0  0
    0.0081    8.1338    0.2690 N   0  0  0  0  0  0  0  0  0  0  0  0
   -1.0890   10.1829    0.4008 N   0  0  0  0  0  0  0  0  0  0  0  0
    3.4876    7.3057    0.3172 N   0  0  0  0  0  0  0  0  0  0  0  0
    3.4229    6.0012    0.2088 C   0  0  0  0  0  0  0  0  0  0  0  0
    2.2876    5.3277    0.1158 N   0  0  0  0  0  0  0  0  0  0  0  0
   -2.8692    0.7861   -0.8562 H   0  0  0  0  0  0  0  0  0  0  0  0
   -2.2866    1.5535   -2.3528 H   0  0  0  0  0  0  0  0  0  0  0  0
   -1.5620    0.0263   -1.7955 H   0  0  0  0  0  0  0  0  0  0  0  0
   -0.0035   -0.0041    0.0633 H   0  0  0  0  0  0  0  0  0  0  0  0
    1.6718    1.2531    1.3550 H   0  0  0  0  0  0  0  0  0  0  0  0
    1.6454    3.7142    1.3431 H   0  0  0  0  0  0  0  0  0  0  0  0
   -1.7449    3.6550   -1.2637 H   0  0  0  0  0  0  0  0  0  0  0  0
   -0.9121    5.7139   -0.0444 H   0  0  0  0  0  0  0  0  0  0  0  0
    3.3289    9.9874    0.5307 H   0  0  0  0  0  0  0  0  0  0  0  0
   -1.0546   11.1490    0.4810 H   0  0  0  0  0  0  0  0  0  0  0  0
   -1.9453    9.7318    0.3355 H   0  0  0  0  0  0  0  0  0  0  0  0
    4.3483    5.4446    0.1941 H   0  0  0  0  0  0  0  0  0  0  0  0
  1  2  1  0  0  0  0
  1 20  1  0  0  0  0
  1 21  1  0  0  0  0
  1 22  1  0  0  0  0
  2  7  2  0  0  0  0
  2  3  1  0  0  0  0
  3  4  2  0  0  0  0
  3 23  1  0  0  0  0
  4  5  1  0  0  0  0
  4 24  1  0  0  0  0
  5  6  2  0  0  0  0
  5 25  1  0  0  0  0
  6  7  1  0  0  0  0
  6  8  1  0  0  0  0
  7 26  1  0  0  0  0
  8  9  1  0  0  0  0
  8 27  1  0  0  0  0
  9 19  2  0  0  0  0
  9 10  1  0  0  0  0
 10 15  2  0  0  0  0
 10 11  1  0  0  0  0
 11 12  2  0  0  0  0
 11 17  1  0  0  0  0
 12 13  1  0  0  0  0
 12 28  1  0  0  0  0
 13 14  2  0  0  0  0
 14 15  1  0  0  0  0
 14 16  1  0  0  0  0
 16 29  1  0  0  0  0
 16 30  1  0  0  0  0
 17 18  2  0  0  0  0
 18 19  1  0  0  0  0
 18 31  1  0  0  0  0
M  END
$$$$
ZINC03815203
  -OEChem-08230709403D

 27 29  0     0  0  0  0  0  0999 V2000
   -2.4966    4.2013    0.4289 C   0  0  0  0  0  0  0  0  0  0  0  0
   -1.2881    3.5386    0.5193 C   0  0  0  0  0  0  0  0  0  0  0  0
   -0.1561    4.0760   -0.0801 C   0  0  0  0  0  0  0  0  0  0  0  0
   -0.2422    5.2818   -0.7645 C   0  0  0  0  0  0  0  0  0  0  0  0
   -1.4551    5.9374   -0.8554 C   0  0  0  0  0  0  0  0  0  0  0  0
   -2.5807    5.3988   -0.2569 C   0  0  0  0  0  0  0  0  0  0  0  0
   -1.5754    7.5759   -1.7917 Br  0  0  0  0  0  0  0  0  0  0  0  0
    1.0682    3.4078    0.0102 N   0  0  0  0  0  0  0  0  0  0  0  0
    1.1041    2.0283   -0.0034 C   0  0  0  0  0  0  0  0  0  0  0  0
    2.3210    1.3294    0.2086 C   0  0  0  0  0  0  0  0  0  0  0  0
    2.2851   -0.0846    0.1815 C   0  0  0  0  0  0  0  0  0  0  0  0
    3.4773   -0.7995    0.3891 C   0  0  0  0  0  0  0  0  0  0  0  0
    4.6234   -0.0889    0.6101 C   0  0  0  0  0  0  0  0  0  0  0  0
    4.5866    1.3052    0.6236 C   0  0  0  0  0  0  0  0  0  0  0  0
    3.4687    1.9664    0.4283 N   0  0  0  0  0  0  0  0  0  0  0  0
    6.0545    2.1882    0.9050 Cl  0  0  0  0  0  0  0  0  0  0  0  0
    1.1161   -0.7003   -0.0408 N   0  0  0  0  0  0  0  0  0  0  0  0
    0.0219   -0.0017   -0.2304 C   0  0  0  0  0  0  0  0  0  0  0  0
    0.0032    1.3216   -0.2145 N   0  0  0  0  0  0  0  0  0  0  0  0
   -3.3769    3.7836    0.8949 H   0  0  0  0  0  0  0  0  0  0  0  0
   -1.2234    2.6032    1.0552 H   0  0  0  0  0  0  0  0  0  0  0  0
    0.6369    5.7043   -1.2282 H   0  0  0  0  0  0  0  0  0  0  0  0
   -3.5268    5.9152   -0.3254 H   0  0  0  0  0  0  0  0  0  0  0  0
    1.8926    3.9138    0.0823 H   0  0  0  0  0  0  0  0  0  0  0  0
    3.4872   -1.8793    0.3749 H   0  0  0  0  0  0  0  0  0  0  0  0
    5.5571   -0.6064    0.7738 H   0  0  0  0  0  0  0  0  0  0  0  0
   -0.9037   -0.5293   -0.4074 H   0  0  0  0  0  0  0  0  0  0  0  0
  1  6  2  0  0  0  0
  1  2  1  0  0  0  0
  1 20  1  0  0  0  0
  2  3  2  0  0  0  0
  2 21  1  0  0  0  0
  3  4  1  0  0  0  0
  3  8  1  0  0  0  0
  4  5  2  0  0  0  0
  4 22  1  0  0  0  0
  5  6  1  0  0  0  0
  5  7  1  0  0  0  0
  6 23  1  0  0  0  0
  8  9  1  0  0  0  0
  8 24  1  0  0  0  0
  9 19  2  0  0  0  0
  9 10  1  0  0  0  0
 10 15  2  0  0  0  0
 10 11  1  0  0  0  0
 11 12  2  0  0  0  0
 11 17  1  0  0  0  0
 12 13  1  0  0  0  0
 12 25  1  0  0  0  0
 13 14  2  0  0  0  0
 13 26  1  0  0  0  0
 14 15  1  0  0  0  0
 14 16  1  0  0  0  0
 17 18  2  0  0  0  0
 18 19  1  0  0  0  0
 18 27  1  0  0  0  0
M  END
$$$$
ZINC03815204
  -OEChem-08230709403D

 35 38  0     0  0  0  0  0  0999 V2000
    6.6079    1.7441   -0.0691 C   0  0  0  0  0  0  0  0  0  0  0  0
    5.5152    1.9902   -0.8809 C   0  0  0  0  0  0  0  0  0  0  0  0
    4.9734    3.2576   -0.9477 C   0  0  0  0  0  0  0  0  0  0  0  0
    5.5291    4.2908   -0.1947 C   0  0  0  0  0  0  0  0  0  0  0  0
    6.6335    4.0380    0.6176 C   0  0  0  0  0  0  0  0  0  0  0  0
    7.1635    2.7654    0.6804 C   0  0  0  0  0  0  0  0  0  0  0  0
    4.9516    5.6546   -0.2621 C   0  0  0  0  0  0  0  0  0  0  0  0
    3.5471    6.0113   -0.0633 C   0  0  0  0  0  0  0  0  0  0  0  0
    3.4648    7.4078   -0.2197 C   0  0  0  0  0  0  0  0  0  0  0  0
    4.7251    7.8507   -0.4913 N   0  0  0  0  0  0  0  0  0  0  0  0
    4.9802    8.8042   -0.6518 H   0  0  0  0  0  0  0  0  0  0  0  0
    5.6061    6.7642   -0.5106 N   0  0  0  0  0  0  0  0  0  0  0  0
    2.2766    7.9965   -0.0866 N   0  0  0  0  0  0  0  0  0  0  0  0
    1.2030    7.2875    0.1853 C   0  0  0  0  0  0  0  0  0  0  0  0
    1.2335    5.9754    0.3355 N   0  0  0  0  0  0  0  0  0  0  0  0
    2.3725    5.2981    0.2270 C   0  0  0  0  0  0  0  0  0  0  0  0
    2.3990    3.9254    0.3902 N   0  0  0  0  0  0  0  0  0  0  0  0
    1.2021    3.2097    0.4854 C   0  0  0  0  0  0  0  0  0  0  0  0
    1.1515    1.8812    0.0817 C   0  0  0  0  0  0  0  0  0  0  0  0
   -0.0322    1.1765    0.1763 C   0  0  0  0  0  0  0  0  0  0  0  0
   -1.1686    1.7928    0.6674 C   0  0  0  0  0  0  0  0  0  0  0  0
   -1.1209    3.1143    1.0755 C   0  0  0  0  0  0  0  0  0  0  0  0
    0.0612    3.8251    0.9832 C   0  0  0  0  0  0  0  0  0  0  0  0
   -2.5483    3.8821    1.6975 Cl  0  0  0  0  0  0  0  0  0  0  0  0
    7.0286    0.7506   -0.0200 H   0  0  0  0  0  0  0  0  0  0  0  0
    5.0854    1.1889   -1.4638 H   0  0  0  0  0  0  0  0  0  0  0  0
    4.1202    3.4486   -1.5818 H   0  0  0  0  0  0  0  0  0  0  0  0
    7.0709    4.8357    1.1997 H   0  0  0  0  0  0  0  0  0  0  0  0
    8.0166    2.5674    1.3124 H   0  0  0  0  0  0  0  0  0  0  0  0
    0.2568    7.7984    0.2862 H   0  0  0  0  0  0  0  0  0  0  0  0
    3.2482    3.4591    0.4387 H   0  0  0  0  0  0  0  0  0  0  0  0
    2.0373    1.4001   -0.3062 H   0  0  0  0  0  0  0  0  0  0  0  0
   -0.0717    0.1439   -0.1378 H   0  0  0  0  0  0  0  0  0  0  0  0
   -2.0942    1.2406    0.7362 H   0  0  0  0  0  0  0  0  0  0  0  0
    0.0972    4.8577    1.2974 H   0  0  0  0  0  0  0  0  0  0  0  0
  1  6  2  0  0  0  0
  1  2  1  0  0  0  0
  1 25  1  0  0  0  0
  2  3  2  0  0  0  0
  2 26  1  0  0  0  0
  3  4  1  0  0  0  0
  3 27  1  0  0  0  0
  4  5  2  0  0  0  0
  4  7  1  0  0  0  0
  5  6  1  0  0  0  0
  5 28  1  0  0  0  0
  6 29  1  0  0  0  0
  7 12  2  0  0  0  0
  7  8  1  0  0  0  0
  8 16  2  0  0  0  0
  8  9  1  0  0  0  0
  9 10  1  0  0  0  0
  9 13  2  0  0  0  0
 10 11  1  0  0  0  0
 10 12  1  0  0  0  0
 13 14  1  0  0  0  0
 14 15  2  0  0  0  0
 14 30  1  0  0  0  0
 15 16  1  0  0  0  0
 16 17  1  0  0  0  0
 17 18  1  0  0  0  0
 17 31  1  0  0  0  0
 18 23  2  0  0  0  0
 18 19  1  0  0  0  0
 19 20  2  0  0  0  0
 19 32  1  0  0  0  0
 20 21  1  0  0  0  0
 20 33  1  0  0  0  0
 21 22  2  0  0  0  0
 21 34  1  0  0  0  0
 22 23  1  0  0  0  0
 22 24  1  0  0  0  0
 23 35  1  0  0  0  0
M  END
$$$$
ZINC03815205
  -OEChem-08230709403D

 39 42  0     0  0  0  0  0  0999 V2000
    8.9673   10.9756   -0.7257 C   0  0  0  0  0  0  0  0  0  0  0  0
    8.7355    9.5291   -0.7376 N   0  0  0  0  0  0  0  0  0  0  0  0
    9.8687    8.6065   -0.8426 C   0  0  0  0  0  0  0  0  0  0  0  0
    7.4353    9.0300   -0.6488 C   0  0  0  0  0  0  0  0  0  0  0  0
    6.3444    9.8980   -0.6723 C   0  0  0  0  0  0  0  0  0  0  0  0
    5.0701    9.4332   -0.5867 C   0  0  0  0  0  0  0  0  0  0  0  0
    4.8090    8.0489   -0.4703 C   0  0  0  0  0  0  0  0  0  0  0  0
    5.9220    7.1908   -0.4485 C   0  0  0  0  0  0  0  0  0  0  0  0
    7.2145    7.6643   -0.5359 C   0  0  0  0  0  0  0  0  0  0  0  0
    5.2269    5.5647   -0.2970 S   0  0  0  0  0  0  0  0  0  0  0  0
    3.5087    5.9953   -0.2624 C   0  0  0  0  0  0  0  0  0  0  0  0
    3.4916    7.3919   -0.3683 C   0  0  0  0  0  0  0  0  0  0  0  0
    2.2708    7.9729   -0.3651 N   0  0  0  0  0  0  0  0  0  0  0  0
    1.1767    7.2598   -0.2681 C   0  0  0  0  0  0  0  0  0  0  0  0
    1.1753    5.9430   -0.1726 N   0  0  0  0  0  0  0  0  0  0  0  0
    2.3280    5.2735   -0.1612 C   0  0  0  0  0  0  0  0  0  0  0  0
    2.3464    3.8901   -0.0568 N   0  0  0  0  0  0  0  0  0  0  0  0
    1.1571    3.1901    0.1637 C   0  0  0  0  0  0  0  0  0  0  0  0
    0.9719    1.9357   -0.4045 C   0  0  0  0  0  0  0  0  0  0  0  0
   -0.2044    1.2465   -0.1853 C   0  0  0  0  0  0  0  0  0  0  0  0
   -1.2005    1.8057    0.5943 C   0  0  0  0  0  0  0  0  0  0  0  0
   -1.0175    3.0520    1.1665 C   0  0  0  0  0  0  0  0  0  0  0  0
    0.1576    3.7469    0.9509 C   0  0  0  0  0  0  0  0  0  0  0  0
   -2.3795    3.8087    2.2381 Br  0  0  0  0  0  0  0  0  0  0  0  0
    9.1027   11.3134    0.3017 H   0  0  0  0  0  0  0  0  0  0  0  0
    9.8620   11.2049   -1.3045 H   0  0  0  0  0  0  0  0  0  0  0  0
    8.1097   11.4846   -1.1655 H   0  0  0  0  0  0  0  0  0  0  0  0
    9.5140    7.5815   -0.7340 H   0  0  0  0  0  0  0  0  0  0  0  0
   10.3447    8.7250   -1.8160 H   0  0  0  0  0  0  0  0  0  0  0  0
   10.5904    8.8265   -0.0560 H   0  0  0  0  0  0  0  0  0  0  0  0
    6.5154   10.9607   -0.7605 H   0  0  0  0  0  0  0  0  0  0  0  0
    4.2460   10.1309   -0.6076 H   0  0  0  0  0  0  0  0  0  0  0  0
    8.0482    6.9780   -0.5159 H   0  0  0  0  0  0  0  0  0  0  0  0
    0.2273    7.7746   -0.2708 H   0  0  0  0  0  0  0  0  0  0  0  0
    3.1848    3.4088   -0.1369 H   0  0  0  0  0  0  0  0  0  0  0  0
    1.7475    1.5000   -1.0168 H   0  0  0  0  0  0  0  0  0  0  0  0
   -0.3485    0.2715   -0.6268 H   0  0  0  0  0  0  0  0  0  0  0  0
   -2.1213    1.2663    0.7605 H   0  0  0  0  0  0  0  0  0  0  0  0
    0.2983    4.7219    1.3937 H   0  0  0  0  0  0  0  0  0  0  0  0
  1  2  1  0  0  0  0
  1 25  1  0  0  0  0
  1 26  1  0  0  0  0
  1 27  1  0  0  0  0
  2  3  1  0  0  0  0
  2  4  1  0  0  0  0
  3 28  1  0  0  0  0
  3 29  1  0  0  0  0
  3 30  1  0  0  0  0
  4  9  2  0  0  0  0
  4  5  1  0  0  0  0
  5  6  2  0  0  0  0
  5 31  1  0  0  0  0
  6  7  1  0  0  0  0
  6 32  1  0  0  0  0
  7 12  1  0  0  0  0
  7  8  2  0  0  0  0
  8  9  1  0  0  0  0
  8 10  1  0  0  0  0
  9 33  1  0  0  0  0
 10 11  1  0  0  0  0
 11 16  2  0  0  0  0
 11 12  1  0  0  0  0
 12 13  2  0  0  0  0
 13 14  1  0  0  0  0
 14 15  2  0  0  0  0
 14 34  1  0  0  0  0
 15 16  1  0  0  0  0
 16 17  1  0  0  0  0
 17 18  1  0  0  0  0
 17 35  1  0  0  0  0
 18 23  2  0  0  0  0
 18 19  1  0  0  0  0
 19 20  2  0  0  0  0
 19 36  1  0  0  0  0
 20 21  1  0  0  0  0
 20 37  1  0  0  0  0
 21 22  2  0  0  0  0
 21 38  1  0  0  0  0
 22 23  1  0  0  0  0
 22 24  1  0  0  0  0
 23 39  1  0  0  0  0
M  END
$$$$
ZINC03815206
  -OEChem-08230709403D

 35 37  0     0  0  0  0  0  0999 V2000
   -5.9565   -1.0449   -0.1745 C   0  0  0  0  0  0  0  0  0  0  0  0
   -5.8953   -2.4677   -0.2922 O   0  0  0  0  0  0  0  0  0  0  0  0
   -4.6591   -3.0340   -0.2997 C   0  0  0  0  0  0  0  0  0  0  0  0
   -3.5524   -2.2404   -0.1976 C   0  0  0  0  0  0  0  0  0  0  0  0
   -2.2786   -2.8231   -0.2003 C   0  0  0  0  0  0  0  0  0  0  0  0
   -2.1454   -4.2293   -0.3197 C   0  0  0  0  0  0  0  0  0  0  0  0
   -3.2942   -5.0233   -0.4232 C   0  0  0  0  0  0  0  0  0  0  0  0
   -4.5350   -4.4261   -0.4128 C   0  0  0  0  0  0  0  0  0  0  0  0
   -5.6511   -5.1940   -0.5135 O   0  0  0  0  0  0  0  0  0  0  0  0
   -5.4593   -6.6056   -0.6264 C   0  0  0  0  0  0  0  0  0  0  0  0
   -0.9139   -4.7617   -0.3245 N   0  0  0  0  0  0  0  0  0  0  0  0
    0.1430   -3.9913   -0.2256 C   0  0  0  0  0  0  0  0  0  0  0  0
    0.0655   -2.6741   -0.1170 N   0  0  0  0  0  0  0  0  0  0  0  0
   -1.1014   -2.0476   -0.1021 C   0  0  0  0  0  0  0  0  0  0  0  0
   -1.1648   -0.7005    0.0099 O   0  0  0  0  0  0  0  0  0  0  0  0
    0.0029   -0.0055    0.0196 C   0  0  0  0  0  0  0  0  0  0  0  0
    0.6976    0.2026   -1.1637 C   0  0  0  0  0  0  0  0  0  0  0  0
    1.8846    0.9089   -1.1518 C   0  0  0  0  0  0  0  0  0  0  0  0
    2.3814    1.4089    0.0378 C   0  0  0  0  0  0  0  0  0  0  0  0
    1.6911    1.2031    1.2192 C   0  0  0  0  0  0  0  0  0  0  0  0
    0.5025    0.4967    1.2121 C   0  0  0  0  0  0  0  0  0  0  0  0
    2.3177    1.8322    2.7110 Cl  0  0  0  0  0  0  0  0  0  0  0  0
   -5.4302   -0.5881   -1.0127 H   0  0  0  0  0  0  0  0  0  0  0  0
   -6.9982   -0.7242   -0.1813 H   0  0  0  0  0  0  0  0  0  0  0  0
   -5.4876   -0.7371    0.7601 H   0  0  0  0  0  0  0  0  0  0  0  0
   -3.6589   -1.1692   -0.1111 H   0  0  0  0  0  0  0  0  0  0  0  0
   -3.2078   -6.0963   -0.5110 H   0  0  0  0  0  0  0  0  0  0  0  0
   -4.8730   -6.8223   -1.5194 H   0  0  0  0  0  0  0  0  0  0  0  0
   -4.9301   -6.9719    0.2533 H   0  0  0  0  0  0  0  0  0  0  0  0
   -6.4283   -7.0993   -0.6993 H   0  0  0  0  0  0  0  0  0  0  0  0
    1.1198   -4.4519   -0.2326 H   0  0  0  0  0  0  0  0  0  0  0  0
    0.3106   -0.1879   -2.0933 H   0  0  0  0  0  0  0  0  0  0  0  0
    2.4250    1.0711   -2.0727 H   0  0  0  0  0  0  0  0  0  0  0  0
    3.3095    1.9611    0.0447 H   0  0  0  0  0  0  0  0  0  0  0  0
   -0.0386    0.3398    2.1336 H   0  0  0  0  0  0  0  0  0  0  0  0
  1  2  1  0  0  0  0
  1 23  1  0  0  0  0
  1 24  1  0  0  0  0
  1 25  1  0  0  0  0
  2  3  1  0  0  0  0
  3  8  2  0  0  0  0
  3  4  1  0  0  0  0
  4  5  2  0  0  0  0
  4 26  1  0  0  0  0
  5 14  1  0  0  0  0
  5  6  1  0  0  0  0
  6  7  2  0  0  0  0
  6 11  1  0  0  0  0
  7  8  1  0  0  0  0
  7 27  1  0  0  0  0
  8  9  1  0  0  0  0
  9 10  1  0  0  0  0
 10 28  1  0  0  0  0
 10 29  1  0  0  0  0
 10 30  1  0  0  0  0
 11 12  2  0  0  0  0
 12 13  1  0  0  0  0
 12 31  1  0  0  0  0
 13 14  2  0  0  0  0
 14 15  1  0  0  0  0
 15 16  1  0  0  0  0
 16 21  2  0  0  0  0
 16 17  1  0  0  0  0
 17 18  2  0  0  0  0
 17 32  1  0  0  0  0
 18 19  1  0  0  0  0
 18 33  1  0  0  0  0
 19 20  2  0  0  0  0
 19 34  1  0  0  0  0
 20 21  1  0  0  0  0
 20 22  1  0  0  0  0
 21 35  1  0  0  0  0
M  END
$$$$
ZINC03815207
  -OEChem-08230709403D

 35 38  0     0  0  0  0  0  0999 V2000
   -4.2489    1.0312    0.7845 C   0  0  0  0  0  0  0  0  0  0  0  0
   -2.8558    0.7491    0.6376 O   0  0  0  0  0  0  0  0  0  0  0  0
   -2.5064   -0.5493    0.4470 C   0  0  0  0  0  0  0  0  0  0  0  0
   -3.4823   -1.5202    0.4041 C   0  0  0  0  0  0  0  0  0  0  0  0
   -3.1593   -2.8540    0.2117 C   0  0  0  0  0  0  0  0  0  0  0  0
   -1.8356   -3.2192    0.0600 C   0  0  0  0  0  0  0  0  0  0  0  0
   -0.8488   -2.2546    0.1012 C   0  0  0  0  0  0  0  0  0  0  0  0
   -1.1407   -0.8945    0.2944 C   0  0  0  0  0  0  0  0  0  0  0  0
    0.0208    0.0147    0.3143 C   0  0  0  0  0  0  0  0  0  0  0  0
    1.2736   -0.5865    0.1383 C   0  0  0  0  0  0  0  0  0  0  0  0
    0.9191   -2.3123   -0.0484 S   0  0  0  0  0  0  0  0  0  0  0  0
    2.4352    0.1727    0.1391 C   0  0  0  0  0  0  0  0  0  0  0  0
    2.3286    1.4902    0.3116 N   0  0  0  0  0  0  0  0  0  0  0  0
    1.1402    2.0412    0.4761 C   0  0  0  0  0  0  0  0  0  0  0  0
    0.0240    1.3564    0.4810 N   0  0  0  0  0  0  0  0  0  0  0  0
    3.6754   -0.4240   -0.0357 N   0  0  0  0  0  0  0  0  0  0  0  0
    4.8220    0.3672   -0.1479 C   0  0  0  0  0  0  0  0  0  0  0  0
    6.0381   -0.0963    0.3388 C   0  0  0  0  0  0  0  0  0  0  0  0
    7.1693    0.6876    0.2267 C   0  0  0  0  0  0  0  0  0  0  0  0
    7.0932    1.9332   -0.3693 C   0  0  0  0  0  0  0  0  0  0  0  0
    5.8842    2.3981   -0.8556 C   0  0  0  0  0  0  0  0  0  0  0  0
    4.7494    1.6160   -0.7512 C   0  0  0  0  0  0  0  0  0  0  0  0
    5.7858    4.1017   -1.6703 Br  0  0  0  0  0  0  0  0  0  0  0  0
   -4.7806    0.7134   -0.1124 H   0  0  0  0  0  0  0  0  0  0  0  0
   -4.6395    0.4930    1.6482 H   0  0  0  0  0  0  0  0  0  0  0  0
   -4.3894    2.1022    0.9299 H   0  0  0  0  0  0  0  0  0  0  0  0
   -4.5178   -1.2370    0.5222 H   0  0  0  0  0  0  0  0  0  0  0  0
   -3.9369   -3.6028    0.1810 H   0  0  0  0  0  0  0  0  0  0  0  0
   -1.5735   -4.2562   -0.0901 H   0  0  0  0  0  0  0  0  0  0  0  0
    1.0858    3.1111    0.6132 H   0  0  0  0  0  0  0  0  0  0  0  0
    3.7468   -1.3904   -0.0801 H   0  0  0  0  0  0  0  0  0  0  0  0
    6.0984   -1.0687    0.8048 H   0  0  0  0  0  0  0  0  0  0  0  0
    8.1147    0.3274    0.6046 H   0  0  0  0  0  0  0  0  0  0  0  0
    7.9796    2.5443   -0.4557 H   0  0  0  0  0  0  0  0  0  0  0  0
    3.8066    1.9772   -1.1348 H   0  0  0  0  0  0  0  0  0  0  0  0
  1  2  1  0  0  0  0
  1 24  1  0  0  0  0
  1 25  1  0  0  0  0
  1 26  1  0  0  0  0
  2  3  1  0  0  0  0
  3  8  2  0  0  0  0
  3  4  1  0  0  0  0
  4  5  2  0  0  0  0
  4 27  1  0  0  0  0
  5  6  1  0  0  0  0
  5 28  1  0  0  0  0
  6  7  2  0  0  0  0
  6 29  1  0  0  0  0
  7 11  1  0  0  0  0
  7  8  1  0  0  0  0
  8  9  1  0  0  0  0
  9 15  2  0  0  0  0
  9 10  1  0  0  0  0
 10 11  1  0  0  0  0
 10 12  2  0  0  0  0
 12 13  1  0  0  0  0
 12 16  1  0  0  0  0
 13 14  2  0  0  0  0
 14 15  1  0  0  0  0
 14 30  1  0  0  0  0
 16 17  1  0  0  0  0
 16 31  1  0  0  0  0
 17 22  2  0  0  0  0
 17 18  1  0  0  0  0
 18 19  2  0  0  0  0
 18 32  1  0  0  0  0
 19 20  1  0  0  0  0
 19 33  1  0  0  0  0
 20 21  2  0  0  0  0
 20 34  1  0  0  0  0
 21 22  1  0  0  0  0
 21 23  1  0  0  0  0
 22 35  1  0  0  0  0
M  END
$$$$
ZINC03815208
  -OEChem-08230709403D

 50 53  0     0  0  0  0  0  0999 V2000
    5.1019   -1.6924   -2.3538 C   0  0  0  0  0  0  0  0  0  0  0  0
    4.2047   -3.8683   -1.7854 C   0  0  0  0  0  0  0  0  0  0  0  0
    3.6743   -1.9443   -0.4144 C   0  0  0  0  0  0  0  0  0  0  0  0
    3.1883   -0.4948   -0.4732 C   0  0  0  0  0  0  0  0  0  0  0  0
    2.8861   -0.0003    0.9428 C   0  0  0  0  0  0  0  0  0  0  0  0
    2.4206    1.3876    0.8864 N   0  0  0  0  0  0  0  0  0  0  0  0
    3.2152    2.4916    1.0540 C   0  0  0  0  0  0  0  0  0  0  0  0
    2.4823    3.6087    0.9438 C   0  0  0  0  0  0  0  0  0  0  0  0
    1.0994    3.1921    0.6833 C   0  0  0  0  0  0  0  0  0  0  0  0
    1.1179    1.7773    0.6573 C   0  0  0  0  0  0  0  0  0  0  0  0
   -0.0482    1.0704    0.4302 C   0  0  0  0  0  0  0  0  0  0  0  0
   -1.2453    1.7575    0.2205 C   0  0  0  0  0  0  0  0  0  0  0  0
   -1.2630    3.1773    0.2542 C   0  0  0  0  0  0  0  0  0  0  0  0
   -0.0848    3.8867    0.4827 C   0  0  0  0  0  0  0  0  0  0  0  0
   -2.5010    3.8358    0.0436 C   0  0  0  0  0  0  0  0  0  0  0  0
   -3.5788    3.0924   -0.1671 N   0  0  0  0  0  0  0  0  0  0  0  0
   -3.5153    1.7699   -0.1830 C   0  0  0  0  0  0  0  0  0  0  0  0
   -2.4010    1.1055    0.0050 N   0  0  0  0  0  0  0  0  0  0  0  0
   -2.5821    5.2126    0.0570 N   0  0  0  0  0  0  0  0  0  0  0  0
   -3.8278    5.8402   -0.0320 C   0  0  0  0  0  0  0  0  0  0  0  0
   -4.9412    5.2659    0.5686 C   0  0  0  0  0  0  0  0  0  0  0  0
   -6.1707    5.8881    0.4790 C   0  0  0  0  0  0  0  0  0  0  0  0
   -6.2949    7.0823   -0.2073 C   0  0  0  0  0  0  0  0  0  0  0  0
   -5.1884    7.6574   -0.8068 C   0  0  0  0  0  0  0  0  0  0  0  0
   -3.9540    7.0421   -0.7162 C   0  0  0  0  0  0  0  0  0  0  0  0
   -5.3635    9.2904   -1.7441 Br  0  0  0  0  0  0  0  0  0  0  0  0
    5.9853   -1.8459   -1.7340 H   0  0  0  0  0  0  0  0  0  0  0  0
    5.2952   -2.0635   -3.3603 H   0  0  0  0  0  0  0  0  0  0  0  0
    4.8691   -0.6284   -2.3974 H   0  0  0  0  0  0  0  0  0  0  0  0
    3.3196   -4.3862   -1.4159 H   0  0  0  0  0  0  0  0  0  0  0  0
    4.4170   -4.1933   -2.8040 H   0  0  0  0  0  0  0  0  0  0  0  0
    5.0556   -4.1007   -1.1451 H   0  0  0  0  0  0  0  0  0  0  0  0
    4.5793   -1.9998    0.1907 H   0  0  0  0  0  0  0  0  0  0  0  0
    2.9004   -2.5693    0.0312 H   0  0  0  0  0  0  0  0  0  0  0  0
    2.2833   -0.4393   -1.0783 H   0  0  0  0  0  0  0  0  0  0  0  0
    3.9622    0.1301   -0.9189 H   0  0  0  0  0  0  0  0  0  0  0  0
    3.7910   -0.0558    1.5478 H   0  0  0  0  0  0  0  0  0  0  0  0
    2.1121   -0.6253    1.3884 H   0  0  0  0  0  0  0  0  0  0  0  0
    4.2775    2.4654    1.2469 H   0  0  0  0  0  0  0  0  0  0  0  0
    2.8417    4.6235    1.0303 H   0  0  0  0  0  0  0  0  0  0  0  0
   -0.0323   -0.0093    0.4107 H   0  0  0  0  0  0  0  0  0  0  0  0
   -0.0937    4.9665    0.5032 H   0  0  0  0  0  0  0  0  0  0  0  0
   -4.4235    1.2128   -0.3595 H   0  0  0  0  0  0  0  0  0  0  0  0
   -1.7746    5.7452    0.1282 H   0  0  0  0  0  0  0  0  0  0  0  0
   -4.8453    4.3333    1.1048 H   0  0  0  0  0  0  0  0  0  0  0  0
   -7.0363    5.4418    0.9458 H   0  0  0  0  0  0  0  0  0  0  0  0
   -7.2575    7.5672   -0.2753 H   0  0  0  0  0  0  0  0  0  0  0  0
   -3.0895    7.4936   -1.1801 H   0  0  0  0  0  0  0  0  0  0  0  0
    3.9415   -2.4139   -1.7902 N   0  3  0  0  0  0  0  0  0  0  0  0
    3.1170   -2.2261   -2.3727 H   0  0  0  0  0  0  0  0  0  0  0  0
  1 27  1  0  0  0  0
  1 28  1  0  0  0  0
  1 29  1  0  0  0  0
  1 49  1  0  0  0  0
  2 30  1  0  0  0  0
  2 31  1  0  0  0  0
  2 32  1  0  0  0  0
  2 49  1  0  0  0  0
  3  4  1  0  0  0  0
  3 33  1  0  0  0  0
  3 34  1  0  0  0  0
  3 49  1  0  0  0  0
  4  5  1  0  0  0  0
  4 35  1  0  0  0  0
  4 36  1  0  0  0  0
  5  6  1  0  0  0  0
  5 37  1  0  0  0  0
  5 38  1  0  0  0  0
  6 10  1  0  0  0  0
  6  7  1  0  0  0  0
  7  8  2  0  0  0  0
  7 39  1  0  0  0  0
  8  9  1  0  0  0  0
  8 40  1  0  0  0  0
  9 14  2  0  0  0  0
  9 10  1  0  0  0  0
 10 11  2  0  0  0  0
 11 12  1  0  0  0  0
 11 41  1  0  0  0  0
 12 18  2  0  0  0  0
 12 13  1  0  0  0  0
 13 14  1  0  0  0  0
 13 15  2  0  0  0  0
 14 42  1  0  0  0  0
 15 16  1  0  0  0  0
 15 19  1  0  0  0  0
 16 17  2  0  0  0  0
 17 18  1  0  0  0  0
 17 43  1  0  0  0  0
 19 20  1  0  0  0  0
 19 44  1  0  0  0  0
 20 25  2  0  0  0  0
 20 21  1  0  0  0  0
 21 22  2  0  0  0  0
 21 45  1  0  0  0  0
 22 23  1  0  0  0  0
 22 46  1  0  0  0  0
 23 24  2  0  0  0  0
 23 47  1  0  0  0  0
 24 25  1  0  0  0  0
 24 26  1  0  0  0  0
 25 48  1  0  0  0  0
 49 50  1  0  0  0  0
M  CHG  1  49   1
M  END
$$$$
ZINC03815209
  -OEChem-08230709403D

 46 49  0     0  0  0  0  0  0999 V2000
   -0.9110    1.6081   -1.8504 C   0  0  0  0  0  0  0  0  0  0  0  0
   -2.9276    1.6379   -0.5107 C   0  0  0  0  0  0  0  0  0  0  0  0
   -0.7622    1.5007    0.5639 C   0  0  0  0  0  0  0  0  0  0  0  0
   -1.2609    2.1580    1.8524 C   0  0  0  0  0  0  0  0  0  0  0  0
   -0.5108    1.6273    2.9934 N   0  0  0  0  0  0  0  0  0  0  0  0
   -0.8925    0.6004    3.8026 C   0  0  0  0  0  0  0  0  0  0  0  0
    0.0089    0.3853    4.7141 N   0  0  0  0  0  0  0  0  0  0  0  0
    1.0336    1.2676    4.5626 C   0  0  0  0  0  0  0  0  0  0  0  0
    0.7126    2.0803    3.4513 C   0  0  0  0  0  0  0  0  0  0  0  0
    1.5675    3.0823    3.0411 C   0  0  0  0  0  0  0  0  0  0  0  0
    2.7626    3.2965    3.7319 C   0  0  0  0  0  0  0  0  0  0  0  0
    3.0879    2.4820    4.8486 C   0  0  0  0  0  0  0  0  0  0  0  0
    2.2187    1.4711    5.2566 C   0  0  0  0  0  0  0  0  0  0  0  0
    4.3105    2.7306    5.5227 C   0  0  0  0  0  0  0  0  0  0  0  0
    5.0853    3.7096    5.0760 N   0  0  0  0  0  0  0  0  0  0  0  0
    4.7401    4.4432    4.0293 C   0  0  0  0  0  0  0  0  0  0  0  0
    3.6238    4.2611    3.3662 N   0  0  0  0  0  0  0  0  0  0  0  0
    4.6835    1.9746    6.6145 N   0  0  0  0  0  0  0  0  0  0  0  0
    5.8311    2.3107    7.3382 C   0  0  0  0  0  0  0  0  0  0  0  0
    6.1805    3.6445    7.5092 C   0  0  0  0  0  0  0  0  0  0  0  0
    7.3148    3.9737    8.2245 C   0  0  0  0  0  0  0  0  0  0  0  0
    8.1032    2.9776    8.7709 C   0  0  0  0  0  0  0  0  0  0  0  0
    7.7585    1.6482    8.6028 C   0  0  0  0  0  0  0  0  0  0  0  0
    6.6213    1.3124    7.8927 C   0  0  0  0  0  0  0  0  0  0  0  0
    8.8397    0.2898    9.3525 Br  0  0  0  0  0  0  0  0  0  0  0  0
   -0.9121    0.5196   -1.9072 H   0  0  0  0  0  0  0  0  0  0  0  0
   -1.4874    2.0159   -2.6808 H   0  0  0  0  0  0  0  0  0  0  0  0
    0.1144    1.9738   -1.9057 H   0  0  0  0  0  0  0  0  0  0  0  0
   -3.3684    2.0252    0.4079 H   0  0  0  0  0  0  0  0  0  0  0  0
   -3.4613    2.0451   -1.3695 H   0  0  0  0  0  0  0  0  0  0  0  0
   -3.0018    0.5505   -0.5190 H   0  0  0  0  0  0  0  0  0  0  0  0
   -0.9094    0.4224    0.6256 H   0  0  0  0  0  0  0  0  0  0  0  0
    0.2983    1.7158    0.4332 H   0  0  0  0  0  0  0  0  0  0  0  0
   -1.1138    3.2363    1.7907 H   0  0  0  0  0  0  0  0  0  0  0  0
   -2.3215    1.9429    1.9831 H   0  0  0  0  0  0  0  0  0  0  0  0
   -1.8115    0.0426    3.6998 H   0  0  0  0  0  0  0  0  0  0  0  0
    1.3140    3.6980    2.1908 H   0  0  0  0  0  0  0  0  0  0  0  0
    2.4653    0.8514    6.1061 H   0  0  0  0  0  0  0  0  0  0  0  0
    5.4085    5.2279    3.7072 H   0  0  0  0  0  0  0  0  0  0  0  0
    4.1493    1.2097    6.8801 H   0  0  0  0  0  0  0  0  0  0  0  0
    5.5656    4.4232    7.0826 H   0  0  0  0  0  0  0  0  0  0  0  0
    7.5864    5.0105    8.3578 H   0  0  0  0  0  0  0  0  0  0  0  0
    8.9897    3.2378    9.3303 H   0  0  0  0  0  0  0  0  0  0  0  0
    6.3500    0.2748    7.7654 H   0  0  0  0  0  0  0  0  0  0  0  0
   -1.5132    2.0615   -0.5790 N   0  3  0  0  0  0  0  0  0  0  0  0
   -1.4695    3.0864   -0.5361 H   0  0  0  0  0  0  0  0  0  0  0  0
  1 26  1  0  0  0  0
  1 27  1  0  0  0  0
  1 28  1  0  0  0  0
  1 45  1  0  0  0  0
  2 29  1  0  0  0  0
  2 30  1  0  0  0  0
  2 31  1  0  0  0  0
  2 45  1  0  0  0  0
  3  4  1  0  0  0  0
  3 32  1  0  0  0  0
  3 33  1  0  0  0  0
  3 45  1  0  0  0  0
  4  5  1  0  0  0  0
  4 34  1  0  0  0  0
  4 35  1  0  0  0  0
  5  9  1  0  0  0  0
  5  6  1  0  0  0  0
  6  7  2  0  0  0  0
  6 36  1  0  0  0  0
  7  8  1  0  0  0  0
  8 13  2  0  0  0  0
  8  9  1  0  0  0  0
  9 10  2  0  0  0  0
 10 11  1  0  0  0  0
 10 37  1  0  0  0  0
 11 17  2  0  0  0  0
 11 12  1  0  0  0  0
 12 13  1  0  0  0  0
 12 14  2  0  0  0  0
 13 38  1  0  0  0  0
 14 15  1  0  0  0  0
 14 18  1  0  0  0  0
 15 16  2  0  0  0  0
 16 17  1  0  0  0  0
 16 39  1  0  0  0  0
 18 19  1  0  0  0  0
 18 40  1  0  0  0  0
 19 24  2  0  0  0  0
 19 20  1  0  0  0  0
 20 21  2  0  0  0  0
 20 41  1  0  0  0  0
 21 22  1  0  0  0  0
 21 42  1  0  0  0  0
 22 23  2  0  0  0  0
 22 43  1  0  0  0  0
 23 24  1  0  0  0  0
 23 25  1  0  0  0  0
 24 44  1  0  0  0  0
 45 46  1  0  0  0  0
M  CHG  1  45   1
M  END
$$$$
ZINC03815212
  -OEChem-08230709403D

 30 32  0     0  0  0  0  0  0999 V2000
   -6.0202    2.6407    0.3615 C   0  0  0  0  0  0  0  0  0  0  0  0
   -4.8623    3.3873    0.4605 C   0  0  0  0  0  0  0  0  0  0  0  0
   -3.6714    2.8913   -0.0542 C   0  0  0  0  0  0  0  0  0  0  0  0
   -3.6498    1.6473   -0.6720 C   0  0  0  0  0  0  0  0  0  0  0  0
   -4.8106    0.9034   -0.7640 C   0  0  0  0  0  0  0  0  0  0  0  0
   -5.9952    1.4008   -0.2496 C   0  0  0  0  0  0  0  0  0  0  0  0
   -4.7819   -0.7928   -1.5994 Br  0  0  0  0  0  0  0  0  0  0  0  0
   -2.4982    3.6449    0.0442 N   0  0  0  0  0  0  0  0  0  0  0  0
   -1.2817    3.0112    0.1911 C   0  0  0  0  0  0  0  0  0  0  0  0
   -0.0717    3.7468    0.1756 C   0  0  0  0  0  0  0  0  0  0  0  0
   -0.0485    5.1366    0.0129 C   0  0  0  0  0  0  0  0  0  0  0  0
    1.1470    5.7923    0.0064 C   0  0  0  0  0  0  0  0  0  0  0  0
    2.3448    5.0971    0.1601 C   0  0  0  0  0  0  0  0  0  0  0  0
    2.3553    3.7421    0.3202 C   0  0  0  0  0  0  0  0  0  0  0  0
    1.1443    3.0377    0.3315 C   0  0  0  0  0  0  0  0  0  0  0  0
    1.0984    1.7059    0.4864 N   0  0  0  0  0  0  0  0  0  0  0  0
   -0.0525    1.0764    0.4929 C   0  0  0  0  0  0  0  0  0  0  0  0
   -1.2130    1.6955    0.3459 N   0  0  0  0  0  0  0  0  0  0  0  0
    3.8464    5.9681    0.1475 Cl  0  0  0  0  0  0  0  0  0  0  0  0
    1.1727    7.2623   -0.1656 N   0  3  0  0  0  0  0  0  0  0  0  0
    0.1304    7.8780   -0.3001 O   0  0  0  0  0  0  0  0  0  0  0  0
    2.2361    7.8561   -0.1726 O   0  5  0  0  0  0  0  0  0  0  0  0
   -6.9464    3.0262    0.7616 H   0  0  0  0  0  0  0  0  0  0  0  0
   -4.8829    4.3558    0.9380 H   0  0  0  0  0  0  0  0  0  0  0  0
   -2.7263    1.2606   -1.0769 H   0  0  0  0  0  0  0  0  0  0  0  0
   -6.9021    0.8193   -0.3259 H   0  0  0  0  0  0  0  0  0  0  0  0
   -2.5395    4.6134    0.0091 H   0  0  0  0  0  0  0  0  0  0  0  0
   -0.9707    5.6857   -0.1071 H   0  0  0  0  0  0  0  0  0  0  0  0
    3.2911    3.2160    0.4378 H   0  0  0  0  0  0  0  0  0  0  0  0
   -0.0528    0.0038    0.6195 H   0  0  0  0  0  0  0  0  0  0  0  0
  1  6  2  0  0  0  0
  1  2  1  0  0  0  0
  1 23  1  0  0  0  0
  2  3  2  0  0  0  0
  2 24  1  0  0  0  0
  3  4  1  0  0  0  0
  3  8  1  0  0  0  0
  4  5  2  0  0  0  0
  4 25  1  0  0  0  0
  5  6  1  0  0  0  0
  5  7  1  0  0  0  0
  6 26  1  0  0  0  0
  8  9  1  0  0  0  0
  8 27  1  0  0  0  0
  9 18  2  0  0  0  0
  9 10  1  0  0  0  0
 10 15  2  0  0  0  0
 10 11  1  0  0  0  0
 11 12  2  0  0  0  0
 11 28  1  0  0  0  0
 12 13  1  0  0  0  0
 12 20  1  0  0  0  0
 13 14  2  0  0  0  0
 13 19  1  0  0  0  0
 14 15  1  0  0  0  0
 14 29  1  0  0  0  0
 15 16  1  0  0  0  0
 16 17  2  0  0  0  0
 17 18  1  0  0  0  0
 17 30  1  0  0  0  0
 20 21  2  0  0  0  0
 20 22  1  0  0  0  0
M  CHG  2  20   1  22  -1
M  END
$$$$
ZINC03815213
  -OEChem-08230709403D

 36 39  0     0  0  0  0  0  0999 V2000
    0.7503    2.6595   -2.2976 C   0  0  0  0  0  0  0  0  0  0  0  0
    0.2968    3.8704   -1.8140 C   0  0  0  0  0  0  0  0  0  0  0  0
    0.3353    4.1324   -0.4453 C   0  0  0  0  0  0  0  0  0  0  0  0
    0.8274    3.1673    0.4309 C   0  0  0  0  0  0  0  0  0  0  0  0
    1.2754    1.9534   -0.0627 C   0  0  0  0  0  0  0  0  0  0  0  0
    1.2335    1.7005   -1.4273 C   0  0  0  0  0  0  0  0  0  0  0  0
    1.7556    1.0093    0.7887 O   0  0  0  0  0  0  0  0  0  0  0  0
   -0.1463    5.4340    0.0764 C   0  0  0  0  0  0  0  0  0  0  0  0
   -1.3840    6.1147   -0.3029 C   0  0  0  0  0  0  0  0  0  0  0  0
   -1.4257    7.3092    0.4407 C   0  0  0  0  0  0  0  0  0  0  0  0
   -0.2978    7.3387    1.2058 N   0  0  0  0  0  0  0  0  0  0  0  0
   -0.0483    8.0714    1.8390 H   0  0  0  0  0  0  0  0  0  0  0  0
    0.4564    6.1849    0.9676 N   0  0  0  0  0  0  0  0  0  0  0  0
   -2.4666    8.1257    0.2798 N   0  0  0  0  0  0  0  0  0  0  0  0
   -3.4350    7.8218   -0.5564 C   0  0  0  0  0  0  0  0  0  0  0  0
   -3.4367    6.7125   -1.2737 N   0  0  0  0  0  0  0  0  0  0  0  0
   -2.4421    5.8347   -1.1830 C   0  0  0  0  0  0  0  0  0  0  0  0
   -2.4491    4.6756   -1.9366 N   0  0  0  0  0  0  0  0  0  0  0  0
   -3.4446    4.4720   -2.8965 C   0  0  0  0  0  0  0  0  0  0  0  0
   -3.9019    3.1875   -3.1635 C   0  0  0  0  0  0  0  0  0  0  0  0
   -4.8858    2.9892   -4.1119 C   0  0  0  0  0  0  0  0  0  0  0  0
   -5.4164    4.0673   -4.7963 C   0  0  0  0  0  0  0  0  0  0  0  0
   -4.9639    5.3483   -4.5329 C   0  0  0  0  0  0  0  0  0  0  0  0
   -3.9825    5.5538   -3.5811 C   0  0  0  0  0  0  0  0  0  0  0  0
   -5.6337    6.6989   -5.3936 Cl  0  0  0  0  0  0  0  0  0  0  0  0
    0.7241    2.4595   -3.3586 H   0  0  0  0  0  0  0  0  0  0  0  0
   -0.0843    4.6159   -2.4962 H   0  0  0  0  0  0  0  0  0  0  0  0
    0.8598    3.3654    1.4921 H   0  0  0  0  0  0  0  0  0  0  0  0
    1.5836    0.7534   -1.8103 H   0  0  0  0  0  0  0  0  0  0  0  0
    2.7074    1.0710    0.9481 H   0  0  0  0  0  0  0  0  0  0  0  0
   -4.2631    8.5071   -0.6608 H   0  0  0  0  0  0  0  0  0  0  0  0
   -1.7632    4.0036   -1.7992 H   0  0  0  0  0  0  0  0  0  0  0  0
   -3.4880    2.3447   -2.6299 H   0  0  0  0  0  0  0  0  0  0  0  0
   -5.2416    1.9908   -4.3192 H   0  0  0  0  0  0  0  0  0  0  0  0
   -6.1858    3.9094   -5.5375 H   0  0  0  0  0  0  0  0  0  0  0  0
   -3.6321    6.5539   -3.3730 H   0  0  0  0  0  0  0  0  0  0  0  0
  1  6  2  0  0  0  0
  1  2  1  0  0  0  0
  1 26  1  0  0  0  0
  2  3  2  0  0  0  0
  2 27  1  0  0  0  0
  3  4  1  0  0  0  0
  3  8  1  0  0  0  0
  4  5  2  0  0  0  0
  4 28  1  0  0  0  0
  5  6  1  0  0  0  0
  5  7  1  0  0  0  0
  6 29  1  0  0  0  0
  7 30  1  0  0  0  0
  8 13  2  0  0  0  0
  8  9  1  0  0  0  0
  9 17  2  0  0  0  0
  9 10  1  0  0  0  0
 10 11  1  0  0  0  0
 10 14  2  0  0  0  0
 11 12  1  0  0  0  0
 11 13  1  0  0  0  0
 14 15  1  0  0  0  0
 15 16  2  0  0  0  0
 15 31  1  0  0  0  0
 16 17  1  0  0  0  0
 17 18  1  0  0  0  0
 18 19  1  0  0  0  0
 18 32  1  0  0  0  0
 19 24  2  0  0  0  0
 19 20  1  0  0  0  0
 20 21  2  0  0  0  0
 20 33  1  0  0  0  0
 21 22  1  0  0  0  0
 21 34  1  0  0  0  0
 22 23  2  0  0  0  0
 22 35  1  0  0  0  0
 23 24  1  0  0  0  0
 23 25  1  0  0  0  0
 24 36  1  0  0  0  0
M  END
$$$$
ZINC03815214
  -OEChem-08230709403D

 40 43  0     0  0  0  0  0  0999 V2000
   -5.0485    4.8474    1.7735 C   0  0  0  0  0  0  0  0  0  0  0  0
   -3.6973    5.1357    1.7214 C   0  0  0  0  0  0  0  0  0  0  0  0
   -3.0880    5.3769    0.5044 C   0  0  0  0  0  0  0  0  0  0  0  0
   -3.8304    5.3348   -0.6609 C   0  0  0  0  0  0  0  0  0  0  0  0
   -5.1812    5.0413   -0.6099 C   0  0  0  0  0  0  0  0  0  0  0  0
   -5.7907    4.8003    0.6088 C   0  0  0  0  0  0  0  0  0  0  0  0
   -6.1129    4.9823   -2.0735 Cl  0  0  0  0  0  0  0  0  0  0  0  0
   -1.6154    5.6920    0.4486 C   0  0  0  0  0  0  0  0  0  0  0  0
   -0.8549    4.4480    0.3055 N   0  0  0  0  0  0  0  0  0  0  0  0
    0.5391    4.4864    0.2315 C   0  0  0  0  0  0  0  0  0  0  0  0
    1.4283    3.3376    0.0890 C   0  0  0  0  0  0  0  0  0  0  0  0
    2.7407    3.8503    0.0633 C   0  0  0  0  0  0  0  0  0  0  0  0
    2.6372    5.2028    0.1842 N   0  0  0  0  0  0  0  0  0  0  0  0
    3.4060    5.8420    0.2032 H   0  0  0  0  0  0  0  0  0  0  0  0
    1.2874    5.5584    0.2776 N   0  0  0  0  0  0  0  0  0  0  0  0
    3.7569    2.9981   -0.0674 N   0  0  0  0  0  0  0  0  0  0  0  0
    3.5396    1.7047   -0.1654 C   0  0  0  0  0  0  0  0  0  0  0  0
    2.3272    1.1806   -0.1413 N   0  0  0  0  0  0  0  0  0  0  0  0
    1.2489    1.9483   -0.0143 C   0  0  0  0  0  0  0  0  0  0  0  0
   -0.0169    1.3937    0.0097 N   0  0  0  0  0  0  0  0  0  0  0  0
   -0.1843    0.0241   -0.2149 C   0  0  0  0  0  0  0  0  0  0  0  0
    0.6379   -0.6388   -1.1176 C   0  0  0  0  0  0  0  0  0  0  0  0
    0.4704   -1.9917   -1.3377 C   0  0  0  0  0  0  0  0  0  0  0  0
   -0.5145   -2.6875   -0.6609 C   0  0  0  0  0  0  0  0  0  0  0  0
   -1.3354   -2.0308    0.2391 C   0  0  0  0  0  0  0  0  0  0  0  0
   -1.1689   -0.6776    0.4679 C   0  0  0  0  0  0  0  0  0  0  0  0
   -2.5701   -2.9084    1.0870 Cl  0  0  0  0  0  0  0  0  0  0  0  0
   -5.5242    4.6594    2.7247 H   0  0  0  0  0  0  0  0  0  0  0  0
   -3.1177    5.1727    2.6320 H   0  0  0  0  0  0  0  0  0  0  0  0
   -3.3550    5.5273   -1.6114 H   0  0  0  0  0  0  0  0  0  0  0  0
   -6.8463    4.5758    0.6497 H   0  0  0  0  0  0  0  0  0  0  0  0
   -1.3167    6.1967    1.3673 H   0  0  0  0  0  0  0  0  0  0  0  0
   -1.4147    6.3406   -0.4041 H   0  0  0  0  0  0  0  0  0  0  0  0
   -1.3197    3.5977    0.2621 H   0  0  0  0  0  0  0  0  0  0  0  0
    4.3873    1.0439   -0.2702 H   0  0  0  0  0  0  0  0  0  0  0  0
   -0.7894    1.9555    0.1785 H   0  0  0  0  0  0  0  0  0  0  0  0
    1.4072   -0.0963   -1.6471 H   0  0  0  0  0  0  0  0  0  0  0  0
    1.1097   -2.5071   -2.0392 H   0  0  0  0  0  0  0  0  0  0  0  0
   -0.6430   -3.7456   -0.8347 H   0  0  0  0  0  0  0  0  0  0  0  0
   -1.8064   -0.1662    1.1739 H   0  0  0  0  0  0  0  0  0  0  0  0
  1  6  2  0  0  0  0
  1  2  1  0  0  0  0
  1 28  1  0  0  0  0
  2  3  2  0  0  0  0
  2 29  1  0  0  0  0
  3  4  1  0  0  0  0
  3  8  1  0  0  0  0
  4  5  2  0  0  0  0
  4 30  1  0  0  0  0
  5  6  1  0  0  0  0
  5  7  1  0  0  0  0
  6 31  1  0  0  0  0
  8  9  1  0  0  0  0
  8 32  1  0  0  0  0
  8 33  1  0  0  0  0
  9 10  1  0  0  0  0
  9 34  1  0  0  0  0
 10 15  2  0  0  0  0
 10 11  1  0  0  0  0
 11 19  2  0  0  0  0
 11 12  1  0  0  0  0
 12 13  1  0  0  0  0
 12 16  2  0  0  0  0
 13 14  1  0  0  0  0
 13 15  1  0  0  0  0
 16 17  1  0  0  0  0
 17 18  2  0  0  0  0
 17 35  1  0  0  0  0
 18 19  1  0  0  0  0
 19 20  1  0  0  0  0
 20 21  1  0  0  0  0
 20 36  1  0  0  0  0
 21 26  2  0  0  0  0
 21 22  1  0  0  0  0
 22 23  2  0  0  0  0
 22 37  1  0  0  0  0
 23 24  1  0  0  0  0
 23 38  1  0  0  0  0
 24 25  2  0  0  0  0
 24 39  1  0  0  0  0
 25 26  1  0  0  0  0
 25 27  1  0  0  0  0
 26 40  1  0  0  0  0
M  END
$$$$
ZINC03815217
  -OEChem-08230709403D

 61 64  0     1  0  0  0  0  0999 V2000
   -0.1744   -0.3296   -5.0539 C   0  0  0  0  0  0  0  0  0  0  0  0
   -0.6241    1.7874   -6.1395 C   0  0  0  0  0  0  0  0  0  0  0  0
   -0.7766    1.6061   -3.7298 C   0  0  0  0  0  0  0  0  0  0  0  0
   -0.0366    1.0992   -2.4903 C   0  0  0  0  0  0  0  0  0  0  0  0
   -0.7527    1.5927   -1.2315 C   0  0  0  0  0  0  0  0  0  0  0  0
   -0.0127    1.0858    0.0080 C   0  0  0  0  0  0  0  0  0  0  0  0
   -0.6816    1.5467    1.1837 O   0  0  0  0  0  0  0  0  0  0  0  0
   -0.1485    1.1819    2.3803 C   0  0  0  0  0  0  0  0  0  0  0  0
    0.9772    0.4087    2.4107 C   0  0  0  0  0  0  0  0  0  0  0  0
    1.5272    0.0330    3.6421 C   0  0  0  0  0  0  0  0  0  0  0  0
    0.9147    0.4557    4.8478 C   0  0  0  0  0  0  0  0  0  0  0  0
   -0.2386    1.2478    4.7932 C   0  0  0  0  0  0  0  0  0  0  0  0
   -0.7569    1.6083    3.5690 C   0  0  0  0  0  0  0  0  0  0  0  0
   -1.8725    2.3814    3.5130 O   0  0  0  0  0  0  0  0  0  0  0  0
   -2.4461    2.7839    4.7585 C   0  0  0  0  0  0  0  0  0  0  0  0
    1.4625    0.0819    6.0149 N   0  0  0  0  0  0  0  0  0  0  0  0
    2.5437   -0.6603    6.0345 C   0  0  0  0  0  0  0  0  0  0  0  0
    3.1501   -1.0780    4.9345 N   0  0  0  0  0  0  0  0  0  0  0  0
    2.6919   -0.7664    3.7294 C   0  0  0  0  0  0  0  0  0  0  0  0
    3.3335   -1.2095    2.5914 N   0  0  0  0  0  0  0  0  0  0  0  0
    4.5379   -2.0360    2.7043 C   0  0  2  0  0  0  0  0  0  0  0  0
    4.7740   -2.3880    3.7085 H   0  0  0  0  0  0  0  0  0  0  0  0
    5.7097   -1.7073    1.7772 C   0  0  0  0  0  0  0  0  0  0  0  0
    4.8706   -2.9633    1.5337 C   0  0  2  0  0  0  0  0  0  0  0  0
    5.3257   -3.9257    1.7676 H   0  0  0  0  0  0  0  0  0  0  0  0
    3.9345   -2.9565    0.3528 C   0  0  0  0  0  0  0  0  0  0  0  0
    3.7195   -1.7870   -0.3522 C   0  0  0  0  0  0  0  0  0  0  0  0
    2.8645   -1.7819   -1.4384 C   0  0  0  0  0  0  0  0  0  0  0  0
    2.2167   -2.9441   -1.8135 C   0  0  0  0  0  0  0  0  0  0  0  0
    2.4273   -4.1123   -1.1051 C   0  0  0  0  0  0  0  0  0  0  0  0
    3.2863   -4.1185   -0.0221 C   0  0  0  0  0  0  0  0  0  0  0  0
   -1.2210   -0.6294   -5.1070 H   0  0  0  0  0  0  0  0  0  0  0  0
    0.3426   -0.6536   -5.9571 H   0  0  0  0  0  0  0  0  0  0  0  0
    0.2918   -0.7907   -4.1831 H   0  0  0  0  0  0  0  0  0  0  0  0
   -0.4848    2.8654   -6.0580 H   0  0  0  0  0  0  0  0  0  0  0  0
   -0.0975    1.4185   -7.0197 H   0  0  0  0  0  0  0  0  0  0  0  0
   -1.6870    1.5643   -6.2320 H   0  0  0  0  0  0  0  0  0  0  0  0
   -1.7991    1.2288   -3.7221 H   0  0  0  0  0  0  0  0  0  0  0  0
   -0.7913    2.6960   -3.7239 H   0  0  0  0  0  0  0  0  0  0  0  0
    0.9860    1.4765   -2.4981 H   0  0  0  0  0  0  0  0  0  0  0  0
   -0.0218    0.0093   -2.4963 H   0  0  0  0  0  0  0  0  0  0  0  0
   -1.7753    1.2154   -1.2238 H   0  0  0  0  0  0  0  0  0  0  0  0
   -0.7675    2.6825   -1.2255 H   0  0  0  0  0  0  0  0  0  0  0  0
    0.0021   -0.0041    0.0020 H   0  0  0  0  0  0  0  0  0  0  0  0
    1.0099    1.4631    0.0003 H   0  0  0  0  0  0  0  0  0  0  0  0
    1.4409    0.0890    1.4892 H   0  0  0  0  0  0  0  0  0  0  0  0
   -0.7161    1.5768    5.7043 H   0  0  0  0  0  0  0  0  0  0  0  0
   -2.7304    1.9003    5.3300 H   0  0  0  0  0  0  0  0  0  0  0  0
   -1.7164    3.3632    5.3242 H   0  0  0  0  0  0  0  0  0  0  0  0
   -3.3290    3.3951    4.5712 H   0  0  0  0  0  0  0  0  0  0  0  0
    2.9581   -0.9429    6.9910 H   0  0  0  0  0  0  0  0  0  0  0  0
    2.9873   -0.9739    1.7165 H   0  0  0  0  0  0  0  0  0  0  0  0
    5.5846   -0.8761    1.0832 H   0  0  0  0  0  0  0  0  0  0  0  0
    6.7168   -1.8430    2.1714 H   0  0  0  0  0  0  0  0  0  0  0  0
    4.2224   -0.8781   -0.0566 H   0  0  0  0  0  0  0  0  0  0  0  0
    2.6997   -0.8692   -1.9916 H   0  0  0  0  0  0  0  0  0  0  0  0
    1.5458   -2.9392   -2.6598 H   0  0  0  0  0  0  0  0  0  0  0  0
    1.9209   -5.0201   -1.3979 H   0  0  0  0  0  0  0  0  0  0  0  0
    3.4508   -5.0312    0.5314 H   0  0  0  0  0  0  0  0  0  0  0  0
   -0.0613    1.1394   -4.9362 N   0  3  0  0  0  0  0  0  0  0  0  0
    0.9306    1.3920   -4.8545 H   0  0  0  0  0  0  0  0  0  0  0  0
  1 32  1  0  0  0  0
  1 33  1  0  0  0  0
  1 34  1  0  0  0  0
  1 60  1  0  0  0  0
  2 35  1  0  0  0  0
  2 36  1  0  0  0  0
  2 37  1  0  0  0  0
  2 60  1  0  0  0  0
  3  4  1  0  0  0  0
  3 38  1  0  0  0  0
  3 39  1  0  0  0  0
  3 60  1  0  0  0  0
  4  5  1  0  0  0  0
  4 40  1  0  0  0  0
  4 41  1  0  0  0  0
  5  6  1  0  0  0  0
  5 42  1  0  0  0  0
  5 43  1  0  0  0  0
  6  7  1  0  0  0  0
  6 44  1  0  0  0  0
  6 45  1  0  0  0  0
  7  8  1  0  0  0  0
  8 13  2  0  0  0  0
  8  9  1  0  0  0  0
  9 10  2  0  0  0  0
  9 46  1  0  0  0  0
 10 19  1  0  0  0  0
 10 11  1  0  0  0  0
 11 12  2  0  0  0  0
 11 16  1  0  0  0  0
 12 13  1  0  0  0  0
 12 47  1  0  0  0  0
 13 14  1  0  0  0  0
 14 15  1  0  0  0  0
 15 48  1  0  0  0  0
 15 49  1  0  0  0  0
 15 50  1  0  0  0  0
 16 17  2  0  0  0  0
 17 18  1  0  0  0  0
 17 51  1  0  0  0  0
 18 19  2  0  0  0  0
 19 20  1  0  0  0  0
 20 21  1  0  0  0  0
 20 52  1  0  0  0  0
 21 22  1  0  0  0  0
 21 24  1  0  0  0  0
 21 23  1  0  0  0  0
 23 24  1  0  0  0  0
 23 53  1  0  0  0  0
 23 54  1  0  0  0  0
 24 25  1  0  0  0  0
 24 26  1  0  0  0  0
 26 31  2  0  0  0  0
 26 27  1  0  0  0  0
 27 28  2  0  0  0  0
 27 55  1  0  0  0  0
 28 29  1  0  0  0  0
 28 56  1  0  0  0  0
 29 30  2  0  0  0  0
 29 57  1  0  0  0  0
 30 31  1  0  0  0  0
 30 58  1  0  0  0  0
 31 59  1  0  0  0  0
 60 61  1  0  0  0  0
M  CHG  1  60   1
M  END
$$$$
ZINC03815218
  -OEChem-08230709403D

 37 39  0     0  0  0  0  0  0999 V2000
    5.9053    6.6902   -0.3366 C   0  0  0  0  0  0  0  0  0  0  0  0
    4.6686    5.8296   -0.3057 C   0  0  0  0  0  0  0  0  0  0  0  0
    4.7261    4.6723   -0.6636 O   0  0  0  0  0  0  0  0  0  0  0  0
    3.4987    6.3461    0.1198 N   0  0  0  0  0  0  0  0  0  0  0  0
    2.3785    5.5225    0.2513 C   0  0  0  0  0  0  0  0  0  0  0  0
    2.5452    4.1870    0.5586 C   0  0  0  0  0  0  0  0  0  0  0  0
    1.4200    3.3660    0.6897 C   0  0  0  0  0  0  0  0  0  0  0  0
    0.1290    3.9206    0.5041 C   0  0  0  0  0  0  0  0  0  0  0  0
   -0.0089    5.2785    0.1927 C   0  0  0  0  0  0  0  0  0  0  0  0
    1.1000    6.0596    0.0698 C   0  0  0  0  0  0  0  0  0  0  0  0
    0.9501    7.4949   -0.2596 N   0  3  0  0  0  0  0  0  0  0  0  0
   -0.1589    7.9961   -0.3078 O   0  0  0  0  0  0  0  0  0  0  0  0
    1.9359    8.1748   -0.4824 O   0  5  0  0  0  0  0  0  0  0  0  0
   -0.9908    3.0664    0.6435 C   0  0  0  0  0  0  0  0  0  0  0  0
   -0.7741    1.7903    0.9355 N   0  0  0  0  0  0  0  0  0  0  0  0
    0.4504    1.3178    1.1047 C   0  0  0  0  0  0  0  0  0  0  0  0
    1.5248    2.0616    0.9880 N   0  0  0  0  0  0  0  0  0  0  0  0
   -2.2734    3.5465    0.4751 N   0  0  0  0  0  0  0  0  0  0  0  0
   -3.3586    2.6660    0.5032 C   0  0  0  0  0  0  0  0  0  0  0  0
   -4.5837    3.0868    1.0055 C   0  0  0  0  0  0  0  0  0  0  0  0
   -5.6543    2.2150    1.0316 C   0  0  0  0  0  0  0  0  0  0  0  0
   -5.5085    0.9239    0.5580 C   0  0  0  0  0  0  0  0  0  0  0  0
   -4.2902    0.5012    0.0566 C   0  0  0  0  0  0  0  0  0  0  0  0
   -3.2161    1.3705    0.0238 C   0  0  0  0  0  0  0  0  0  0  0  0
   -4.0964   -1.2649   -0.5908 Br  0  0  0  0  0  0  0  0  0  0  0  0
    5.6603    7.6913    0.0183 H   0  0  0  0  0  0  0  0  0  0  0  0
    6.6684    6.2530    0.3073 H   0  0  0  0  0  0  0  0  0  0  0  0
    6.2817    6.7488   -1.3579 H   0  0  0  0  0  0  0  0  0  0  0  0
    3.4348    7.2898    0.3348 H   0  0  0  0  0  0  0  0  0  0  0  0
    3.5357    3.7796    0.6973 H   0  0  0  0  0  0  0  0  0  0  0  0
   -0.9909    5.7049    0.0501 H   0  0  0  0  0  0  0  0  0  0  0  0
    0.5709    0.2718    1.3452 H   0  0  0  0  0  0  0  0  0  0  0  0
   -2.4219    4.4951    0.3372 H   0  0  0  0  0  0  0  0  0  0  0  0
   -4.6986    4.0949    1.3755 H   0  0  0  0  0  0  0  0  0  0  0  0
   -6.6067    2.5420    1.4220 H   0  0  0  0  0  0  0  0  0  0  0  0
   -6.3475    0.2442    0.5793 H   0  0  0  0  0  0  0  0  0  0  0  0
   -2.2663    1.0416   -0.3714 H   0  0  0  0  0  0  0  0  0  0  0  0
  1  2  1  0  0  0  0
  1 26  1  0  0  0  0
  1 27  1  0  0  0  0
  1 28  1  0  0  0  0
  2  3  2  0  0  0  0
  2  4  1  0  0  0  0
  4  5  1  0  0  0  0
  4 29  1  0  0  0  0
  5 10  2  0  0  0  0
  5  6  1  0  0  0  0
  6  7  2  0  0  0  0
  6 30  1  0  0  0  0
  7 17  1  0  0  0  0
  7  8  1  0  0  0  0
  8  9  2  0  0  0  0
  8 14  1  0  0  0  0
  9 10  1  0  0  0  0
  9 31  1  0  0  0  0
 10 11  1  0  0  0  0
 11 12  2  0  0  0  0
 11 13  1  0  0  0  0
 14 15  2  0  0  0  0
 14 18  1  0  0  0  0
 15 16  1  0  0  0  0
 16 17  2  0  0  0  0
 16 32  1  0  0  0  0
 18 19  1  0  0  0  0
 18 33  1  0  0  0  0
 19 24  2  0  0  0  0
 19 20  1  0  0  0  0
 20 21  2  0  0  0  0
 20 34  1  0  0  0  0
 21 22  1  0  0  0  0
 21 35  1  0  0  0  0
 22 23  2  0  0  0  0
 22 36  1  0  0  0  0
 23 24  1  0  0  0  0
 23 25  1  0  0  0  0
 24 37  1  0  0  0  0
M  CHG  2  11   1  13  -1
M  END
$$$$
ZINC03815219
  -OEChem-08230709403D

 45 48  0     0  0  0  0  0  0999 V2000
   10.7513    3.8988    0.5956 C   0  0  0  0  0  0  0  0  0  0  0  0
    9.9607    2.7148    0.9412 N   0  0  0  0  0  0  0  0  0  0  0  0
   10.6194    1.5321    1.5012 C   0  0  0  0  0  0  0  0  0  0  0  0
    8.5761    2.7137    0.7365 C   0  0  0  0  0  0  0  0  0  0  0  0
    7.9517    3.8348    0.2058 C   0  0  0  0  0  0  0  0  0  0  0  0
    6.5858    3.8338    0.0038 C   0  0  0  0  0  0  0  0  0  0  0  0
    5.8363    2.7113    0.3315 C   0  0  0  0  0  0  0  0  0  0  0  0
    6.4600    1.5922    0.8677 C   0  0  0  0  0  0  0  0  0  0  0  0
    7.8267    1.5912    1.0638 C   0  0  0  0  0  0  0  0  0  0  0  0
    4.4514    2.7102    0.1267 N   0  0  0  0  0  0  0  0  0  0  0  0
    3.7844    1.5102   -0.1287 C   0  0  0  0  0  0  0  0  0  0  0  0
    2.3404    1.3335   -0.2499 C   0  0  0  0  0  0  0  0  0  0  0  0
    2.1267   -0.0353   -0.5072 C   0  0  0  0  0  0  0  0  0  0  0  0
    3.3531   -0.6266   -0.5364 N   0  0  0  0  0  0  0  0  0  0  0  0
    3.5224   -1.5986   -0.6991 H   0  0  0  0  0  0  0  0  0  0  0  0
    4.3391    0.3380   -0.3032 N   0  0  0  0  0  0  0  0  0  0  0  0
    0.8758   -0.4684   -0.6621 N   0  0  0  0  0  0  0  0  0  0  0  0
   -0.1382    0.3648   -0.5766 C   0  0  0  0  0  0  0  0  0  0  0  0
    0.0159    1.6548   -0.3370 N   0  0  0  0  0  0  0  0  0  0  0  0
    1.2246    2.1827   -0.1678 C   0  0  0  0  0  0  0  0  0  0  0  0
    1.3791    3.5334    0.0822 N   0  0  0  0  0  0  0  0  0  0  0  0
    0.2548    4.3427    0.2690 C   0  0  0  0  0  0  0  0  0  0  0  0
   -0.8879    3.8206    0.8623 C   0  0  0  0  0  0  0  0  0  0  0  0
   -1.9971    4.6224    1.0461 C   0  0  0  0  0  0  0  0  0  0  0  0
   -1.9717    5.9443    0.6409 C   0  0  0  0  0  0  0  0  0  0  0  0
   -0.8353    6.4682    0.0500 C   0  0  0  0  0  0  0  0  0  0  0  0
    0.2797    5.6717   -0.1328 C   0  0  0  0  0  0  0  0  0  0  0  0
   -0.8079    8.1284   -0.4566 Cl  0  0  0  0  0  0  0  0  0  0  0  0
   10.3988    4.7526    1.1742 H   0  0  0  0  0  0  0  0  0  0  0  0
   11.8011    3.7139    0.8234 H   0  0  0  0  0  0  0  0  0  0  0  0
   10.6422    4.1107   -0.4680 H   0  0  0  0  0  0  0  0  0  0  0  0
   10.9232    0.8681    0.6919 H   0  0  0  0  0  0  0  0  0  0  0  0
   11.4981    1.8398    2.0680 H   0  0  0  0  0  0  0  0  0  0  0  0
    9.9269    1.0084    2.1602 H   0  0  0  0  0  0  0  0  0  0  0  0
    8.5346    4.7075   -0.0494 H   0  0  0  0  0  0  0  0  0  0  0  0
    6.1003    4.7056   -0.4093 H   0  0  0  0  0  0  0  0  0  0  0  0
    5.8766    0.7210    1.1267 H   0  0  0  0  0  0  0  0  0  0  0  0
    8.3124    0.7191    1.4762 H   0  0  0  0  0  0  0  0  0  0  0  0
    3.9552    3.5429    0.1622 H   0  0  0  0  0  0  0  0  0  0  0  0
   -1.1381   -0.0215   -0.7079 H   0  0  0  0  0  0  0  0  0  0  0  0
    2.2678    3.9196    0.1279 H   0  0  0  0  0  0  0  0  0  0  0  0
   -0.9088    2.7884    1.1791 H   0  0  0  0  0  0  0  0  0  0  0  0
   -2.8853    4.2166    1.5073 H   0  0  0  0  0  0  0  0  0  0  0  0
   -2.8405    6.5692    0.7862 H   0  0  0  0  0  0  0  0  0  0  0  0
    1.1680    6.0818   -0.5902 H   0  0  0  0  0  0  0  0  0  0  0  0
  1  2  1  0  0  0  0
  1 29  1  0  0  0  0
  1 30  1  0  0  0  0
  1 31  1  0  0  0  0
  2  3  1  0  0  0  0
  2  4  1  0  0  0  0
  3 32  1  0  0  0  0
  3 33  1  0  0  0  0
  3 34  1  0  0  0  0
  4  9  2  0  0  0  0
  4  5  1  0  0  0  0
  5  6  2  0  0  0  0
  5 35  1  0  0  0  0
  6  7  1  0  0  0  0
  6 36  1  0  0  0  0
  7  8  2  0  0  0  0
  7 10  1  0  0  0  0
  8  9  1  0  0  0  0
  8 37  1  0  0  0  0
  9 38  1  0  0  0  0
 10 11  1  0  0  0  0
 10 39  1  0  0  0  0
 11 16  2  0  0  0  0
 11 12  1  0  0  0  0
 12 20  2  0  0  0  0
 12 13  1  0  0  0  0
 13 14  1  0  0  0  0
 13 17  2  0  0  0  0
 14 15  1  0  0  0  0
 14 16  1  0  0  0  0
 17 18  1  0  0  0  0
 18 19  2  0  0  0  0
 18 40  1  0  0  0  0
 19 20  1  0  0  0  0
 20 21  1  0  0  0  0
 21 22  1  0  0  0  0
 21 41  1  0  0  0  0
 22 27  2  0  0  0  0
 22 23  1  0  0  0  0
 23 24  2  0  0  0  0
 23 42  1  0  0  0  0
 24 25  1  0  0  0  0
 24 43  1  0  0  0  0
 25 26  2  0  0  0  0
 25 44  1  0  0  0  0
 26 27  1  0  0  0  0
 26 28  1  0  0  0  0
 27 45  1  0  0  0  0
M  END
$$$$
ZINC03815222
  -OEChem-08230709403D

 31 34  0     0  0  0  0  0  0999 V2000
    5.9838    2.9506    0.2748 C   0  0  0  0  0  0  0  0  0  0  0  0
    4.8053    3.6655    0.1853 C   0  0  0  0  0  0  0  0  0  0  0  0
    3.5930    2.9945    0.0890 C   0  0  0  0  0  0  0  0  0  0  0  0
    3.5694    1.6056    0.0883 C   0  0  0  0  0  0  0  0  0  0  0  0
    4.7520    0.8962    0.1738 C   0  0  0  0  0  0  0  0  0  0  0  0
    5.9581    1.5684    0.2692 C   0  0  0  0  0  0  0  0  0  0  0  0
    4.7222   -0.9945    0.1671 Br  0  0  0  0  0  0  0  0  0  0  0  0
    2.3988    3.7153   -0.0013 N   0  0  0  0  0  0  0  0  0  0  0  0
    1.2415    3.2066    0.5546 C   0  0  0  0  0  0  0  0  0  0  0  0
    0.0018    3.8576    0.3692 C   0  0  0  0  0  0  0  0  0  0  0  0
   -1.1496    3.2879    0.9632 C   0  0  0  0  0  0  0  0  0  0  0  0
   -2.3983    3.9102    0.7978 C   0  0  0  0  0  0  0  0  0  0  0  0
   -2.5055    5.0528    0.0724 C   0  0  0  0  0  0  0  0  0  0  0  0
   -1.3754    5.6366   -0.5268 C   0  0  0  0  0  0  0  0  0  0  0  0
   -0.1180    5.0400   -0.3797 C   0  0  0  0  0  0  0  0  0  0  0  0
    0.7674    5.8343   -1.0690 N   0  0  0  0  0  0  0  0  0  0  0  0
    1.7517    5.6831   -1.1600 H   0  0  0  0  0  0  0  0  0  0  0  0
    0.0579    6.8637   -1.6044 C   0  0  0  0  0  0  0  0  0  0  0  0
   -1.1986    6.7481   -1.2866 N   0  0  0  0  0  0  0  0  0  0  0  0
   -1.0147    2.1558    1.6693 N   0  0  0  0  0  0  0  0  0  0  0  0
    0.1634    1.5960    1.8135 C   0  0  0  0  0  0  0  0  0  0  0  0
    1.2654    2.0931    1.2764 N   0  0  0  0  0  0  0  0  0  0  0  0
    6.9266    3.4722    0.3497 H   0  0  0  0  0  0  0  0  0  0  0  0
    4.8265    4.7453    0.1898 H   0  0  0  0  0  0  0  0  0  0  0  0
    2.6280    1.0808    0.0176 H   0  0  0  0  0  0  0  0  0  0  0  0
    6.8810    1.0119    0.3397 H   0  0  0  0  0  0  0  0  0  0  0  0
    2.3829    4.5728   -0.4544 H   0  0  0  0  0  0  0  0  0  0  0  0
   -3.2782    3.4768    1.2500 H   0  0  0  0  0  0  0  0  0  0  0  0
   -3.4722    5.5195   -0.0463 H   0  0  0  0  0  0  0  0  0  0  0  0
    0.4753    7.6590   -2.2041 H   0  0  0  0  0  0  0  0  0  0  0  0
    0.2358    0.6872    2.3925 H   0  0  0  0  0  0  0  0  0  0  0  0
  1  6  2  0  0  0  0
  1  2  1  0  0  0  0
  1 23  1  0  0  0  0
  2  3  2  0  0  0  0
  2 24  1  0  0  0  0
  3  4  1  0  0  0  0
  3  8  1  0  0  0  0
  4  5  2  0  0  0  0
  4 25  1  0  0  0  0
  5  6  1  0  0  0  0
  5  7  1  0  0  0  0
  6 26  1  0  0  0  0
  8  9  1  0  0  0  0
  8 27  1  0  0  0  0
  9 22  2  0  0  0  0
  9 10  1  0  0  0  0
 10 15  2  0  0  0  0
 10 11  1  0  0  0  0
 11 12  2  0  0  0  0
 11 20  1  0  0  0  0
 12 13  1  0  0  0  0
 12 28  1  0  0  0  0
 13 14  2  0  0  0  0
 13 29  1  0  0  0  0
 14 19  1  0  0  0  0
 14 15  1  0  0  0  0
 15 16  1  0  0  0  0
 16 17  1  0  0  0  0
 16 18  1  0  0  0  0
 18 19  2  0  0  0  0
 18 30  1  0  0  0  0
 20 21  2  0  0  0  0
 21 22  1  0  0  0  0
 21 31  1  0  0  0  0
M  END
$$$$
ZINC03815222
  -OEChem-08230709403D

 31 34  0     0  0  0  0  0  0999 V2000
    5.9838    2.9506    0.2748 C   0  0  0  0  0  0  0  0  0  0  0  0
    4.8053    3.6655    0.1853 C   0  0  0  0  0  0  0  0  0  0  0  0
    3.5930    2.9945    0.0890 C   0  0  0  0  0  0  0  0  0  0  0  0
    3.5694    1.6056    0.0883 C   0  0  0  0  0  0  0  0  0  0  0  0
    4.7520    0.8962    0.1738 C   0  0  0  0  0  0  0  0  0  0  0  0
    5.9581    1.5684    0.2692 C   0  0  0  0  0  0  0  0  0  0  0  0
    4.7222   -0.9945    0.1671 Br  0  0  0  0  0  0  0  0  0  0  0  0
    2.3988    3.7153   -0.0013 N   0  0  0  0  0  0  0  0  0  0  0  0
    1.2415    3.2066    0.5546 C   0  0  0  0  0  0  0  0  0  0  0  0
    0.0018    3.8576    0.3692 C   0  0  0  0  0  0  0  0  0  0  0  0
   -1.1496    3.2879    0.9632 C   0  0  0  0  0  0  0  0  0  0  0  0
   -2.3983    3.9102    0.7978 C   0  0  0  0  0  0  0  0  0  0  0  0
   -2.5055    5.0528    0.0724 C   0  0  0  0  0  0  0  0  0  0  0  0
   -1.3754    5.6366   -0.5268 C   0  0  0  0  0  0  0  0  0  0  0  0
   -0.1180    5.0400   -0.3797 C   0  0  0  0  0  0  0  0  0  0  0  0
    0.7674    5.8343   -1.0690 N   0  0  0  0  0  0  0  0  0  0  0  0
    1.7517    5.6831   -1.1600 H   0  0  0  0  0  0  0  0  0  0  0  0
    0.0579    6.8637   -1.6044 C   0  0  0  0  0  0  0  0  0  0  0  0
   -1.1986    6.7481   -1.2866 N   0  0  0  0  0  0  0  0  0  0  0  0
   -1.0147    2.1558    1.6693 N   0  0  0  0  0  0  0  0  0  0  0  0
    0.1634    1.5960    1.8135 C   0  0  0  0  0  0  0  0  0  0  0  0
    1.2654    2.0931    1.2764 N   0  0  0  0  0  0  0  0  0  0  0  0
    6.9266    3.4722    0.3497 H   0  0  0  0  0  0  0  0  0  0  0  0
    4.8265    4.7453    0.1898 H   0  0  0  0  0  0  0  0  0  0  0  0
    2.6280    1.0808    0.0176 H   0  0  0  0  0  0  0  0  0  0  0  0
    6.8810    1.0119    0.3397 H   0  0  0  0  0  0  0  0  0  0  0  0
    2.3829    4.5728   -0.4544 H   0  0  0  0  0  0  0  0  0  0  0  0
   -3.2782    3.4768    1.2500 H   0  0  0  0  0  0  0  0  0  0  0  0
   -3.4722    5.5195   -0.0463 H   0  0  0  0  0  0  0  0  0  0  0  0
    0.4753    7.6590   -2.2041 H   0  0  0  0  0  0  0  0  0  0  0  0
    0.2358    0.6872    2.3925 H   0  0  0  0  0  0  0  0  0  0  0  0
  1  6  2  0  0  0  0
  1  2  1  0  0  0  0
  1 23  1  0  0  0  0
  2  3  2  0  0  0  0
  2 24  1  0  0  0  0
  3  4  1  0  0  0  0
  3  8  1  0  0  0  0
  4  5  2  0  0  0  0
  4 25  1  0  0  0  0
  5  6  1  0  0  0  0
  5  7  1  0  0  0  0
  6 26  1  0  0  0  0
  8  9  1  0  0  0  0
  8 27  1  0  0  0  0
  9 22  2  0  0  0  0
  9 10  1  0  0  0  0
 10 15  2  0  0  0  0
 10 11  1  0  0  0  0
 11 12  2  0  0  0  0
 11 20  1  0  0  0  0
 12 13  1  0  0  0  0
 12 28  1  0  0  0  0
 13 14  2  0  0  0  0
 13 29  1  0  0  0  0
 14 19  1  0  0  0  0
 14 15  1  0  0  0  0
 15 16  1  0  0  0  0
 16 17  1  0  0  0  0
 16 18  1  0  0  0  0
 18 19  2  0  0  0  0
 18 30  1  0  0  0  0
 20 21  2  0  0  0  0
 21 22  1  0  0  0  0
 21 31  1  0  0  0  0
M  END
$$$$
ZINC03815223
  -OEChem-08230709403D

 45 48  0     0  0  0  0  0  0999 V2000
   -3.8390    7.9998    7.4838 C   0  0  0  0  0  0  0  0  0  0  0  0
   -3.2868    8.9285    6.4944 N   0  0  0  0  0  0  0  0  0  0  0  0
   -2.7444    8.4396    5.3328 C   0  0  0  0  0  0  0  0  0  0  0  0
   -2.2079    9.3208    4.3691 C   0  0  0  0  0  0  0  0  0  0  0  0
   -2.2258   10.7164    4.5933 C   0  0  0  0  0  0  0  0  0  0  0  0
   -2.7695   11.1950    5.7550 C   0  0  0  0  0  0  0  0  0  0  0  0
   -3.3170   10.2535    6.7341 C   0  0  0  0  0  0  0  0  0  0  0  0
   -3.8026   10.6709    7.7704 O   0  0  0  0  0  0  0  0  0  0  0  0
   -2.8033   12.6524    6.0196 C   0  0  0  0  0  0  0  0  0  0  0  0
   -1.7424   13.2687    6.6843 C   0  0  0  0  0  0  0  0  0  0  0  0
   -1.7781   14.6284    6.9240 C   0  0  0  0  0  0  0  0  0  0  0  0
   -2.8671   15.3773    6.5156 C   0  0  0  0  0  0  0  0  0  0  0  0
   -3.9242   14.7718    5.8605 C   0  0  0  0  0  0  0  0  0  0  0  0
   -3.8988   13.4137    5.6103 C   0  0  0  0  0  0  0  0  0  0  0  0
   -5.2270   12.6554    4.7891 Cl  0  0  0  0  0  0  0  0  0  0  0  0
   -0.3781   12.3293    7.2039 Cl  0  0  0  0  0  0  0  0  0  0  0  0
   -1.6623    8.7799    3.1952 C   0  0  0  0  0  0  0  0  0  0  0  0
   -1.6678    7.4690    3.0417 N   0  0  0  0  0  0  0  0  0  0  0  0
   -2.1863    6.6702    3.9680 C   0  0  0  0  0  0  0  0  0  0  0  0
   -2.7120    7.1338    5.0914 N   0  0  0  0  0  0  0  0  0  0  0  0
   -2.1714    5.3052    3.7538 N   0  0  0  0  0  0  0  0  0  0  0  0
   -1.7307    4.7946    2.5293 C   0  0  0  0  0  0  0  0  0  0  0  0
   -1.9630    5.5024    1.3562 C   0  0  0  0  0  0  0  0  0  0  0  0
   -1.5272    4.9980    0.1466 C   0  0  0  0  0  0  0  0  0  0  0  0
   -0.8546    3.7914    0.0999 C   0  0  0  0  0  0  0  0  0  0  0  0
   -0.6244    3.0776    1.2675 C   0  0  0  0  0  0  0  0  0  0  0  0
   -1.0602    3.5803    2.4836 C   0  0  0  0  0  0  0  0  0  0  0  0
    0.0329    1.8891    1.2194 O   0  0  0  0  0  0  0  0  0  0  0  0
    0.4531    1.4318   -0.0676 C   0  0  0  0  0  0  0  0  0  0  0  0
   -3.0568    7.7078    8.1844 H   0  0  0  0  0  0  0  0  0  0  0  0
   -4.6495    8.4866    8.0263 H   0  0  0  0  0  0  0  0  0  0  0  0
   -4.2218    7.1141    6.9767 H   0  0  0  0  0  0  0  0  0  0  0  0
   -1.8168   11.3948    3.8592 H   0  0  0  0  0  0  0  0  0  0  0  0
   -0.9558   15.1074    7.4347 H   0  0  0  0  0  0  0  0  0  0  0  0
   -2.8922   16.4395    6.7094 H   0  0  0  0  0  0  0  0  0  0  0  0
   -4.7715   15.3621    5.5443 H   0  0  0  0  0  0  0  0  0  0  0  0
   -1.2424    9.4223    2.4353 H   0  0  0  0  0  0  0  0  0  0  0  0
   -2.4666    4.7013    4.4530 H   0  0  0  0  0  0  0  0  0  0  0  0
   -2.4850    6.4473    1.3903 H   0  0  0  0  0  0  0  0  0  0  0  0
   -1.7083    5.5496   -0.7641 H   0  0  0  0  0  0  0  0  0  0  0  0
   -0.5111    3.4017   -0.8469 H   0  0  0  0  0  0  0  0  0  0  0  0
   -0.8779    3.0284    3.3938 H   0  0  0  0  0  0  0  0  0  0  0  0
    0.9638    0.4744    0.0360 H   0  0  0  0  0  0  0  0  0  0  0  0
    1.1335    2.1608   -0.5079 H   0  0  0  0  0  0  0  0  0  0  0  0
   -0.4173    1.3114   -0.7124 H   0  0  0  0  0  0  0  0  0  0  0  0
  1  2  1  0  0  0  0
  1 30  1  0  0  0  0
  1 31  1  0  0  0  0
  1 32  1  0  0  0  0
  2  7  1  0  0  0  0
  2  3  1  0  0  0  0
  3 20  2  0  0  0  0
  3  4  1  0  0  0  0
  4  5  1  0  0  0  0
  4 17  2  0  0  0  0
  5  6  2  0  0  0  0
  5 33  1  0  0  0  0
  6  7  1  0  0  0  0
  6  9  1  0  0  0  0
  7  8  2  0  0  0  0
  9 14  2  0  0  0  0
  9 10  1  0  0  0  0
 10 11  2  0  0  0  0
 10 16  1  0  0  0  0
 11 12  1  0  0  0  0
 11 34  1  0  0  0  0
 12 13  2  0  0  0  0
 12 35  1  0  0  0  0
 13 14  1  0  0  0  0
 13 36  1  0  0  0  0
 14 15  1  0  0  0  0
 17 18  1  0  0  0  0
 17 37  1  0  0  0  0
 18 19  2  0  0  0  0
 19 20  1  0  0  0  0
 19 21  1  0  0  0  0
 21 22  1  0  0  0  0
 21 38  1  0  0  0  0
 22 27  2  0  0  0  0
 22 23  1  0  0  0  0
 23 24  2  0  0  0  0
 23 39  1  0  0  0  0
 24 25  1  0  0  0  0
 24 40  1  0  0  0  0
 25 26  2  0  0  0  0
 25 41  1  0  0  0  0
 26 27  1  0  0  0  0
 26 28  1  0  0  0  0
 27 42  1  0  0  0  0
 28 29  1  0  0  0  0
 29 43  1  0  0  0  0
 29 44  1  0  0  0  0
 29 45  1  0  0  0  0
M  END
$$$$
ZINC03815225
  -OEChem-08230709403D

 34 37  0     0  0  0  0  0  0999 V2000
    4.1301   -0.7526    0.6907 C   0  0  0  0  0  0  0  0  0  0  0  0
    3.2981   -1.8540    0.8207 C   0  0  0  0  0  0  0  0  0  0  0  0
    1.9292   -1.7108    0.7473 C   0  0  0  0  0  0  0  0  0  0  0  0
    1.3705   -0.4532    0.5412 C   0  0  0  0  0  0  0  0  0  0  0  0
    2.2136    0.6604    0.4104 C   0  0  0  0  0  0  0  0  0  0  0  0
    3.5956    0.5011    0.4861 C   0  0  0  0  0  0  0  0  0  0  0  0
    1.3364    1.8269    0.2058 C   0  0  0  0  0  0  0  0  0  0  0  0
    0.0204    1.3445    0.2261 C   0  0  0  0  0  0  0  0  0  0  0  0
    0.0600   -0.0235    0.4281 N   0  0  0  0  0  0  0  0  0  0  0  0
   -0.7190   -0.5989    0.4823 H   0  0  0  0  0  0  0  0  0  0  0  0
   -1.0362    2.2357    0.0602 C   0  0  0  0  0  0  0  0  0  0  0  0
   -0.7875    3.5785   -0.1318 C   0  0  0  0  0  0  0  0  0  0  0  0
    0.5105    4.0599   -0.1522 C   0  0  0  0  0  0  0  0  0  0  0  0
    1.5780    3.1915    0.0155 C   0  0  0  0  0  0  0  0  0  0  0  0
    2.8862    3.6760   -0.0049 N   0  0  0  0  0  0  0  0  0  0  0  0
    3.7044    3.4318   -1.1106 C   0  0  0  0  0  0  0  0  0  0  0  0
    3.1816    2.8153   -2.2409 C   0  0  0  0  0  0  0  0  0  0  0  0
    3.9915    2.5795   -3.3342 C   0  0  0  0  0  0  0  0  0  0  0  0
    5.3243    2.9471   -3.3017 C   0  0  0  0  0  0  0  0  0  0  0  0
    5.8498    3.5565   -2.1761 C   0  0  0  0  0  0  0  0  0  0  0  0
    5.0434    3.7996   -1.0804 C   0  0  0  0  0  0  0  0  0  0  0  0
    7.6731    4.0565   -2.1368 Br  0  0  0  0  0  0  0  0  0  0  0  0
    5.2012   -0.8776    0.7497 H   0  0  0  0  0  0  0  0  0  0  0  0
    3.7262   -2.8326    0.9805 H   0  0  0  0  0  0  0  0  0  0  0  0
    1.2899   -2.5752    0.8495 H   0  0  0  0  0  0  0  0  0  0  0  0
    4.2459    1.3574    0.3848 H   0  0  0  0  0  0  0  0  0  0  0  0
   -2.0537    1.8740    0.0795 H   0  0  0  0  0  0  0  0  0  0  0  0
   -1.6134    4.2618   -0.2640 H   0  0  0  0  0  0  0  0  0  0  0  0
    0.6918    5.1143   -0.2994 H   0  0  0  0  0  0  0  0  0  0  0  0
    3.2276    4.1825    0.7486 H   0  0  0  0  0  0  0  0  0  0  0  0
    2.1419    2.5241   -2.2657 H   0  0  0  0  0  0  0  0  0  0  0  0
    3.5847    2.1034   -4.2141 H   0  0  0  0  0  0  0  0  0  0  0  0
    5.9565    2.7578   -4.1567 H   0  0  0  0  0  0  0  0  0  0  0  0
    5.4539    4.2746   -0.2016 H   0  0  0  0  0  0  0  0  0  0  0  0
  1  6  2  0  0  0  0
  1  2  1  0  0  0  0
  1 23  1  0  0  0  0
  2  3  2  0  0  0  0
  2 24  1  0  0  0  0
  3  4  1  0  0  0  0
  3 25  1  0  0  0  0
  4  9  1  0  0  0  0
  4  5  2  0  0  0  0
  5  6  1  0  0  0  0
  5  7  1  0  0  0  0
  6 26  1  0  0  0  0
  7 14  2  0  0  0  0
  7  8  1  0  0  0  0
  8  9  1  0  0  0  0
  8 11  2  0  0  0  0
  9 10  1  0  0  0  0
 11 12  1  0  0  0  0
 11 27  1  0  0  0  0
 12 13  2  0  0  0  0
 12 28  1  0  0  0  0
 13 14  1  0  0  0  0
 13 29  1  0  0  0  0
 14 15  1  0  0  0  0
 15 16  1  0  0  0  0
 15 30  1  0  0  0  0
 16 21  2  0  0  0  0
 16 17  1  0  0  0  0
 17 18  2  0  0  0  0
 17 31  1  0  0  0  0
 18 19  1  0  0  0  0
 18 32  1  0  0  0  0
 19 20  2  0  0  0  0
 19 33  1  0  0  0  0
 20 21  1  0  0  0  0
 20 22  1  0  0  0  0
 21 34  1  0  0  0  0
M  END
$$$$
ZINC03815227
  -OEChem-08230709403D

 27 29  0     0  0  0  0  0  0999 V2000
    0.2180    9.4317    0.4311 C   0  0  0  0  0  0  0  0  0  0  0  0
    0.2318    8.0540    0.5289 C   0  0  0  0  0  0  0  0  0  0  0  0
    1.2481    7.3260   -0.0765 C   0  0  0  0  0  0  0  0  0  0  0  0
    2.2510    7.9870   -0.7746 C   0  0  0  0  0  0  0  0  0  0  0  0
    2.2286    9.3650   -0.8733 C   0  0  0  0  0  0  0  0  0  0  0  0
    1.2143   10.0868   -0.2686 C   0  0  0  0  0  0  0  0  0  0  0  0
    3.5890   10.2658   -1.8291 Br  0  0  0  0  0  0  0  0  0  0  0  0
    1.2649    5.9319    0.0212 N   0  0  0  0  0  0  0  0  0  0  0  0
    0.0793    5.2261    0.0229 C   0  0  0  0  0  0  0  0  0  0  0  0
    0.0667    3.8238    0.2427 C   0  0  0  0  0  0  0  0  0  0  0  0
   -1.1848    3.1636    0.2311 C   0  0  0  0  0  0  0  0  0  0  0  0
   -1.2223    1.7747    0.4407 C   0  0  0  0  0  0  0  0  0  0  0  0
   -0.0393    1.1250    0.6586 C   0  0  0  0  0  0  0  0  0  0  0  0
    1.1568    1.8387    0.6571 C   0  0  0  0  0  0  0  0  0  0  0  0
    1.1851    3.1351    0.4550 N   0  0  0  0  0  0  0  0  0  0  0  0
   -2.2955    3.8811    0.0155 N   0  0  0  0  0  0  0  0  0  0  0  0
   -2.2228    5.1762   -0.1818 C   0  0  0  0  0  0  0  0  0  0  0  0
   -1.0775    5.8396   -0.1806 N   0  0  0  0  0  0  0  0  0  0  0  0
   -0.5719    9.9980    0.9021 H   0  0  0  0  0  0  0  0  0  0  0  0
   -0.5471    7.5431    1.0755 H   0  0  0  0  0  0  0  0  0  0  0  0
    3.0450    7.4242   -1.2427 H   0  0  0  0  0  0  0  0  0  0  0  0
    1.2013   11.1642   -0.3432 H   0  0  0  0  0  0  0  0  0  0  0  0
    2.1101    5.4605    0.0879 H   0  0  0  0  0  0  0  0  0  0  0  0
   -2.1588    1.2368    0.4340 H   0  0  0  0  0  0  0  0  0  0  0  0
   -0.0319    0.0583    0.8275 H   0  0  0  0  0  0  0  0  0  0  0  0
    2.0844    1.3119    0.8261 H   0  0  0  0  0  0  0  0  0  0  0  0
   -3.1373    5.7248   -0.3523 H   0  0  0  0  0  0  0  0  0  0  0  0
  1  6  2  0  0  0  0
  1  2  1  0  0  0  0
  1 19  1  0  0  0  0
  2  3  2  0  0  0  0
  2 20  1  0  0  0  0
  3  4  1  0  0  0  0
  3  8  1  0  0  0  0
  4  5  2  0  0  0  0
  4 21  1  0  0  0  0
  5  6  1  0  0  0  0
  5  7  1  0  0  0  0
  6 22  1  0  0  0  0
  8  9  1  0  0  0  0
  8 23  1  0  0  0  0
  9 18  2  0  0  0  0
  9 10  1  0  0  0  0
 10 15  2  0  0  0  0
 10 11  1  0  0  0  0
 11 12  2  0  0  0  0
 11 16  1  0  0  0  0
 12 13  1  0  0  0  0
 12 24  1  0  0  0  0
 13 14  2  0  0  0  0
 13 25  1  0  0  0  0
 14 15  1  0  0  0  0
 14 26  1  0  0  0  0
 16 17  2  0  0  0  0
 17 18  1  0  0  0  0
 17 27  1  0  0  0  0
M  END
$$$$
ZINC03815228
  -OEChem-08230709403D

 43 45  0     0  0  0  0  0  0999 V2000
   10.9293    7.0472    0.5842 C   0  0  0  0  0  0  0  0  0  0  0  0
   11.8945    5.3463   -0.8434 C   0  0  0  0  0  0  0  0  0  0  0  0
    9.5009    5.4093   -0.4833 C   0  0  0  0  0  0  0  0  0  0  0  0
    8.2860    6.3392   -0.4854 C   0  0  0  0  0  0  0  0  0  0  0  0
    7.0618    5.5436   -0.3650 N   0  0  0  0  0  0  0  0  0  0  0  0
    5.8277    6.1708   -0.3446 C   0  0  0  0  0  0  0  0  0  0  0  0
    5.7831    7.4979   -0.4361 N   0  0  0  0  0  0  0  0  0  0  0  0
    4.6406    8.1522   -0.4224 C   0  0  0  0  0  0  0  0  0  0  0  0
    3.4482    7.4139   -0.3077 C   0  0  0  0  0  0  0  0  0  0  0  0
    3.5393    6.0050   -0.2074 C   0  0  0  0  0  0  0  0  0  0  0  0
    4.7410    5.4294   -0.2348 N   0  0  0  0  0  0  0  0  0  0  0  0
    2.3353    5.2648   -0.0976 C   0  0  0  0  0  0  0  0  0  0  0  0
    1.1907    5.9331   -0.0852 N   0  0  0  0  0  0  0  0  0  0  0  0
    1.1582    7.2532   -0.1771 C   0  0  0  0  0  0  0  0  0  0  0  0
    2.2403    7.9882   -0.2853 N   0  0  0  0  0  0  0  0  0  0  0  0
    2.3547    3.8878   -0.0005 N   0  0  0  0  0  0  0  0  0  0  0  0
    1.1558    3.1697   -0.0090 C   0  0  0  0  0  0  0  0  0  0  0  0
    1.0435    1.9936    0.7223 C   0  0  0  0  0  0  0  0  0  0  0  0
   -0.1422    1.2859    0.7117 C   0  0  0  0  0  0  0  0  0  0  0  0
   -1.2160    1.7435   -0.0299 C   0  0  0  0  0  0  0  0  0  0  0  0
   -1.1098    2.9171   -0.7551 C   0  0  0  0  0  0  0  0  0  0  0  0
    0.0743    3.6300   -0.7486 C   0  0  0  0  0  0  0  0  0  0  0  0
   -2.5833    3.5419   -1.7622 Br  0  0  0  0  0  0  0  0  0  0  0  0
   11.0097    6.4138    1.4676 H   0  0  0  0  0  0  0  0  0  0  0  0
   11.8449    7.6272    0.4685 H   0  0  0  0  0  0  0  0  0  0  0  0
   10.0825    7.7239    0.6981 H   0  0  0  0  0  0  0  0  0  0  0  0
   11.7492    4.7864   -1.7673 H   0  0  0  0  0  0  0  0  0  0  0  0
   12.7896    5.9624   -0.9288 H   0  0  0  0  0  0  0  0  0  0  0  0
   12.0098    4.6512   -0.0117 H   0  0  0  0  0  0  0  0  0  0  0  0
    9.5248    4.8447    0.4487 H   0  0  0  0  0  0  0  0  0  0  0  0
    9.4318    4.7194   -1.3244 H   0  0  0  0  0  0  0  0  0  0  0  0
    8.2621    6.9038   -1.4175 H   0  0  0  0  0  0  0  0  0  0  0  0
    8.3551    7.0292    0.3557 H   0  0  0  0  0  0  0  0  0  0  0  0
    7.1159    4.5773   -0.2995 H   0  0  0  0  0  0  0  0  0  0  0  0
    4.6191    9.2294   -0.4971 H   0  0  0  0  0  0  0  0  0  0  0  0
    0.1982    7.7477   -0.1620 H   0  0  0  0  0  0  0  0  0  0  0  0
    3.2005    3.4187    0.0736 H   0  0  0  0  0  0  0  0  0  0  0  0
    1.8828    1.6334    1.2987 H   0  0  0  0  0  0  0  0  0  0  0  0
   -0.2295    0.3715    1.2797 H   0  0  0  0  0  0  0  0  0  0  0  0
   -2.1409    1.1859   -0.0397 H   0  0  0  0  0  0  0  0  0  0  0  0
    0.1584    4.5436   -1.3184 H   0  0  0  0  0  0  0  0  0  0  0  0
   10.7255    6.2245   -0.6267 N   0  3  0  0  0  0  0  0  0  0  0  0
   10.6199    6.8453   -1.4378 H   0  0  0  0  0  0  0  0  0  0  0  0
  1 24  1  0  0  0  0
  1 25  1  0  0  0  0
  1 26  1  0  0  0  0
  1 42  1  0  0  0  0
  2 27  1  0  0  0  0
  2 28  1  0  0  0  0
  2 29  1  0  0  0  0
  2 42  1  0  0  0  0
  3  4  1  0  0  0  0
  3 30  1  0  0  0  0
  3 31  1  0  0  0  0
  3 42  1  0  0  0  0
  4  5  1  0  0  0  0
  4 32  1  0  0  0  0
  4 33  1  0  0  0  0
  5  6  1  0  0  0  0
  5 34  1  0  0  0  0
  6 11  2  0  0  0  0
  6  7  1  0  0  0  0
  7  8  2  0  0  0  0
  8  9  1  0  0  0  0
  8 35  1  0  0  0  0
  9 15  2  0  0  0  0
  9 10  1  0  0  0  0
 10 11  1  0  0  0  0
 10 12  2  0  0  0  0
 12 13  1  0  0  0  0
 12 16  1  0  0  0  0
 13 14  2  0  0  0  0
 14 15  1  0  0  0  0
 14 36  1  0  0  0  0
 16 17  1  0  0  0  0
 16 37  1  0  0  0  0
 17 22  2  0  0  0  0
 17 18  1  0  0  0  0
 18 19  2  0  0  0  0
 18 38  1  0  0  0  0
 19 20  1  0  0  0  0
 19 39  1  0  0  0  0
 20 21  2  0  0  0  0
 20 40  1  0  0  0  0
 21 22  1  0  0  0  0
 21 23  1  0  0  0  0
 22 41  1  0  0  0  0
 42 43  1  0  0  0  0
M  CHG  1  42   1
M  END
$$$$
ZINC03815229
  -OEChem-08230709403D

 27 29  0     0  0  0  0  0  0999 V2000
   -1.1127    2.9193   -0.7405 C   0  0  0  0  0  0  0  0  0  0  0  0
    0.0715    3.6304   -0.7391 C   0  0  0  0  0  0  0  0  0  0  0  0
    1.1560    3.1698   -0.0036 C   0  0  0  0  0  0  0  0  0  0  0  0
    1.0460    1.9945    0.7286 C   0  0  0  0  0  0  0  0  0  0  0  0
   -0.1412    1.2877    0.7231 C   0  0  0  0  0  0  0  0  0  0  0  0
   -1.2214    1.7529   -0.0063 C   0  0  0  0  0  0  0  0  0  0  0  0
   -0.2926   -0.3125    1.7194 Br  0  0  0  0  0  0  0  0  0  0  0  0
    2.3554    3.8876   -0.0000 N   0  0  0  0  0  0  0  0  0  0  0  0
    2.3361    5.2624   -0.0965 C   0  0  0  0  0  0  0  0  0  0  0  0
    3.5372    6.0016   -0.2121 C   0  0  0  0  0  0  0  0  0  0  0  0
    4.7986    5.4012   -0.2355 C   0  0  0  0  0  0  0  0  0  0  0  0
    5.8754    6.1484   -0.3460 N   0  0  0  0  0  0  0  0  0  0  0  0
    5.8228    7.4695   -0.4364 C   0  0  0  0  0  0  0  0  0  0  0  0
    4.6394    8.1465   -0.4221 C   0  0  0  0  0  0  0  0  0  0  0  0
    3.4476    7.4142   -0.3075 C   0  0  0  0  0  0  0  0  0  0  0  0
    2.2399    7.9885   -0.2843 N   0  0  0  0  0  0  0  0  0  0  0  0
    1.1578    7.2519   -0.1747 C   0  0  0  0  0  0  0  0  0  0  0  0
    1.1897    5.9320   -0.0892 N   0  0  0  0  0  0  0  0  0  0  0  0
   -1.9561    3.2773   -1.3122 H   0  0  0  0  0  0  0  0  0  0  0  0
    0.1539    4.5441   -1.3090 H   0  0  0  0  0  0  0  0  0  0  0  0
    1.8874    1.6338    1.3017 H   0  0  0  0  0  0  0  0  0  0  0  0
   -2.1499    1.2012   -0.0057 H   0  0  0  0  0  0  0  0  0  0  0  0
    3.2014    3.4182    0.0704 H   0  0  0  0  0  0  0  0  0  0  0  0
    4.8891    4.3274   -0.1638 H   0  0  0  0  0  0  0  0  0  0  0  0
    6.7442    8.0261   -0.5243 H   0  0  0  0  0  0  0  0  0  0  0  0
    4.6194    9.2237   -0.4978 H   0  0  0  0  0  0  0  0  0  0  0  0
    0.1977    7.7461   -0.1588 H   0  0  0  0  0  0  0  0  0  0  0  0
  1  6  2  0  0  0  0
  1  2  1  0  0  0  0
  1 19  1  0  0  0  0
  2  3  2  0  0  0  0
  2 20  1  0  0  0  0
  3  4  1  0  0  0  0
  3  8  1  0  0  0  0
  4  5  2  0  0  0  0
  4 21  1  0  0  0  0
  5  6  1  0  0  0  0
  5  7  1  0  0  0  0
  6 22  1  0  0  0  0
  8  9  1  0  0  0  0
  8 23  1  0  0  0  0
  9 18  2  0  0  0  0
  9 10  1  0  0  0  0
 10 15  2  0  0  0  0
 10 11  1  0  0  0  0
 11 12  2  0  0  0  0
 11 24  1  0  0  0  0
 12 13  1  0  0  0  0
 13 14  2  0  0  0  0
 13 25  1  0  0  0  0
 14 15  1  0  0  0  0
 14 26  1  0  0  0  0
 15 16  1  0  0  0  0
 16 17  2  0  0  0  0
 17 18  1  0  0  0  0
 17 27  1  0  0  0  0
M  END
$$$$
ZINC03815230
  -OEChem-08230709403D

 37 40  0     0  0  0  0  0  0999 V2000
    0.7495    2.6530   -2.2933 C   0  0  0  0  0  0  0  0  0  0  0  0
    0.2984    3.8657   -1.8126 C   0  0  0  0  0  0  0  0  0  0  0  0
    0.3375    4.1279   -0.4442 C   0  0  0  0  0  0  0  0  0  0  0  0
    0.8274    3.1602    0.4319 C   0  0  0  0  0  0  0  0  0  0  0  0
    1.2703    1.9494   -0.0596 C   0  0  0  0  0  0  0  0  0  0  0  0
    1.2291    1.6947   -1.4189 C   0  0  0  0  0  0  0  0  0  0  0  0
    1.7902    0.9208    0.8692 N   0  3  0  0  0  0  0  0  0  0  0  0
    2.1812   -0.1486    0.4366 O   0  0  0  0  0  0  0  0  0  0  0  0
    1.8270    1.1438    2.0660 O   0  5  0  0  0  0  0  0  0  0  0  0
   -0.1404    5.4306    0.0778 C   0  0  0  0  0  0  0  0  0  0  0  0
   -1.3763    6.1149   -0.3012 C   0  0  0  0  0  0  0  0  0  0  0  0
   -1.4149    7.3090    0.4432 C   0  0  0  0  0  0  0  0  0  0  0  0
   -0.2871    7.3350    1.2085 N   0  0  0  0  0  0  0  0  0  0  0  0
   -0.0360    8.0664    1.8426 H   0  0  0  0  0  0  0  0  0  0  0  0
    0.4645    6.1797    0.9691 N   0  0  0  0  0  0  0  0  0  0  0  0
   -2.4539    8.1281    0.2831 N   0  0  0  0  0  0  0  0  0  0  0  0
   -3.4227    7.8275   -0.5539 C   0  0  0  0  0  0  0  0  0  0  0  0
   -3.4272    6.7188   -1.2719 N   0  0  0  0  0  0  0  0  0  0  0  0
   -2.4349    5.8383   -1.1817 C   0  0  0  0  0  0  0  0  0  0  0  0
   -2.4448    4.6797   -1.9361 N   0  0  0  0  0  0  0  0  0  0  0  0
   -3.4407    4.4795   -2.8963 C   0  0  0  0  0  0  0  0  0  0  0  0
   -3.9014    3.1964   -3.1643 C   0  0  0  0  0  0  0  0  0  0  0  0
   -4.8856    3.0013   -4.1130 C   0  0  0  0  0  0  0  0  0  0  0  0
   -5.4133    4.0814   -4.7967 C   0  0  0  0  0  0  0  0  0  0  0  0
   -4.9574    5.3610   -4.5324 C   0  0  0  0  0  0  0  0  0  0  0  0
   -3.9757    5.5631   -3.5803 C   0  0  0  0  0  0  0  0  0  0  0  0
   -5.6235    6.7140   -5.3922 Cl  0  0  0  0  0  0  0  0  0  0  0  0
    0.7241    2.4505   -3.3538 H   0  0  0  0  0  0  0  0  0  0  0  0
   -0.0800    4.6116   -2.4958 H   0  0  0  0  0  0  0  0  0  0  0  0
    0.8603    3.3581    1.4931 H   0  0  0  0  0  0  0  0  0  0  0  0
    1.5769    0.7455   -1.7991 H   0  0  0  0  0  0  0  0  0  0  0  0
   -4.2488    8.5153   -0.6582 H   0  0  0  0  0  0  0  0  0  0  0  0
   -1.7607    4.0058   -1.7991 H   0  0  0  0  0  0  0  0  0  0  0  0
   -3.4898    2.3521   -2.6312 H   0  0  0  0  0  0  0  0  0  0  0  0
   -5.2440    2.0040   -4.3211 H   0  0  0  0  0  0  0  0  0  0  0  0
   -6.1830    3.9259   -5.5382 H   0  0  0  0  0  0  0  0  0  0  0  0
   -3.6227    6.5622   -3.3714 H   0  0  0  0  0  0  0  0  0  0  0  0
  1  6  2  0  0  0  0
  1  2  1  0  0  0  0
  1 28  1  0  0  0  0
  2  3  2  0  0  0  0
  2 29  1  0  0  0  0
  3  4  1  0  0  0  0
  3 10  1  0  0  0  0
  4  5  2  0  0  0  0
  4 30  1  0  0  0  0
  5  6  1  0  0  0  0
  5  7  1  0  0  0  0
  6 31  1  0  0  0  0
  7  8  2  0  0  0  0
  7  9  1  0  0  0  0
 10 15  2  0  0  0  0
 10 11  1  0  0  0  0
 11 19  2  0  0  0  0
 11 12  1  0  0  0  0
 12 13  1  0  0  0  0
 12 16  2  0  0  0  0
 13 14  1  0  0  0  0
 13 15  1  0  0  0  0
 16 17  1  0  0  0  0
 17 18  2  0  0  0  0
 17 32  1  0  0  0  0
 18 19  1  0  0  0  0
 19 20  1  0  0  0  0
 20 21  1  0  0  0  0
 20 33  1  0  0  0  0
 21 26  2  0  0  0  0
 21 22  1  0  0  0  0
 22 23  2  0  0  0  0
 22 34  1  0  0  0  0
 23 24  1  0  0  0  0
 23 35  1  0  0  0  0
 24 25  2  0  0  0  0
 24 36  1  0  0  0  0
 25 26  1  0  0  0  0
 25 27  1  0  0  0  0
 26 37  1  0  0  0  0
M  CHG  2   7   1   9  -1
M  END
$$$$
ZINC03815231
  -OEChem-08230709403D

 33 35  0     0  0  0  0  0  0999 V2000
   -0.0127    1.0858    0.0080 C   0  0  0  0  0  0  0  0  0  0  0  0
   -0.6816    1.5467    1.1837 O   0  0  0  0  0  0  0  0  0  0  0  0
   -1.9730    1.1636    1.3480 C   0  0  0  0  0  0  0  0  0  0  0  0
   -2.5887    0.3680    0.4006 C   0  0  0  0  0  0  0  0  0  0  0  0
   -3.9117   -0.0275    0.5718 C   0  0  0  0  0  0  0  0  0  0  0  0
   -4.6318    0.3754    1.6840 C   0  0  0  0  0  0  0  0  0  0  0  0
   -4.0336    1.1794    2.6464 C   0  0  0  0  0  0  0  0  0  0  0  0
   -2.6938    1.5768    2.4770 C   0  0  0  0  0  0  0  0  0  0  0  0
   -2.0767    2.4271    3.5045 C   0  0  0  0  0  0  0  0  0  0  0  0
   -0.9193    2.8003    3.4077 O   0  0  0  0  0  0  0  0  0  0  0  0
   -2.9087    2.8088    4.6537 C   0  0  0  0  0  0  0  0  0  0  0  0
   -4.1950    2.3681    4.7174 C   0  0  0  0  0  0  0  0  0  0  0  0
   -4.7391    1.5863    3.7573 N   0  0  0  0  0  0  0  0  0  0  0  0
   -5.6897    1.2925    3.8577 H   0  0  0  0  0  0  0  0  0  0  0  0
   -2.3543    3.6643    5.7305 C   0  0  0  0  0  0  0  0  0  0  0  0
   -1.1355    3.3395    6.3244 C   0  0  0  0  0  0  0  0  0  0  0  0
   -0.6215    4.1416    7.3227 C   0  0  0  0  0  0  0  0  0  0  0  0
   -1.3177    5.2610    7.7419 C   0  0  0  0  0  0  0  0  0  0  0  0
   -2.5309    5.5860    7.1599 C   0  0  0  0  0  0  0  0  0  0  0  0
   -3.0524    4.7927    6.1563 C   0  0  0  0  0  0  0  0  0  0  0  0
   -3.3985    6.9922    7.6923 Cl  0  0  0  0  0  0  0  0  0  0  0  0
   -4.5040   -0.8134   -0.3633 O   0  0  0  0  0  0  0  0  0  0  0  0
    0.0021   -0.0041    0.0020 H   0  0  0  0  0  0  0  0  0  0  0  0
    1.0099    1.4631    0.0003 H   0  0  0  0  0  0  0  0  0  0  0  0
   -0.5399    1.4469   -0.8751 H   0  0  0  0  0  0  0  0  0  0  0  0
   -2.0404    0.0495   -0.4736 H   0  0  0  0  0  0  0  0  0  0  0  0
   -5.6590    0.0640    1.8036 H   0  0  0  0  0  0  0  0  0  0  0  0
   -4.8021    2.6524    5.5641 H   0  0  0  0  0  0  0  0  0  0  0  0
   -0.5928    2.4635    6.0013 H   0  0  0  0  0  0  0  0  0  0  0  0
    0.3244    3.8926    7.7805 H   0  0  0  0  0  0  0  0  0  0  0  0
   -0.9135    5.8835    8.5265 H   0  0  0  0  0  0  0  0  0  0  0  0
   -3.9990    5.0467    5.7026 H   0  0  0  0  0  0  0  0  0  0  0  0
   -4.9446   -0.3208   -1.0692 H   0  0  0  0  0  0  0  0  0  0  0  0
  1  2  1  0  0  0  0
  1 23  1  0  0  0  0
  1 24  1  0  0  0  0
  1 25  1  0  0  0  0
  2  3  1  0  0  0  0
  3  8  2  0  0  0  0
  3  4  1  0  0  0  0
  4  5  2  0  0  0  0
  4 26  1  0  0  0  0
  5  6  1  0  0  0  0
  5 22  1  0  0  0  0
  6  7  2  0  0  0  0
  6 27  1  0  0  0  0
  7 13  1  0  0  0  0
  7  8  1  0  0  0  0
  8  9  1  0  0  0  0
  9 10  2  0  0  0  0
  9 11  1  0  0  0  0
 11 12  2  0  0  0  0
 11 15  1  0  0  0  0
 12 13  1  0  0  0  0
 12 28  1  0  0  0  0
 13 14  1  0  0  0  0
 15 20  2  0  0  0  0
 15 16  1  0  0  0  0
 16 17  2  0  0  0  0
 16 29  1  0  0  0  0
 17 18  1  0  0  0  0
 17 30  1  0  0  0  0
 18 19  2  0  0  0  0
 18 31  1  0  0  0  0
 19 20  1  0  0  0  0
 19 21  1  0  0  0  0
 20 32  1  0  0  0  0
 22 33  1  0  0  0  0
M  END
$$$$
ZINC03815232
  -OEChem-08230709403D

 31 33  0     0  0  0  0  0  0999 V2000
   -1.0375   -2.0231    1.1041 C   0  0  0  0  0  0  0  0  0  0  0  0
   -1.1244   -0.6138    0.8842 O   0  0  0  0  0  0  0  0  0  0  0  0
    0.0384    0.0470    0.6580 C   0  0  0  0  0  0  0  0  0  0  0  0
    0.0072    1.4100    0.4398 C   0  0  0  0  0  0  0  0  0  0  0  0
    1.2160    2.0773    0.2080 C   0  0  0  0  0  0  0  0  0  0  0  0
    2.4145    1.3152    0.2093 C   0  0  0  0  0  0  0  0  0  0  0  0
    2.3449   -0.0603    0.4402 C   0  0  0  0  0  0  0  0  0  0  0  0
    1.1802   -0.6332    0.6522 N   0  0  0  0  0  0  0  0  0  0  0  0
    3.6346    1.9916   -0.0248 C   0  0  0  0  0  0  0  0  0  0  0  0
    3.5923    3.3023   -0.2333 N   0  0  0  0  0  0  0  0  0  0  0  0
    2.4498    3.9694   -0.2254 C   0  0  0  0  0  0  0  0  0  0  0  0
    1.2875    3.3953   -0.0143 N   0  0  0  0  0  0  0  0  0  0  0  0
    4.8325    1.3099   -0.0364 N   0  0  0  0  0  0  0  0  0  0  0  0
    6.0356    2.0127   -0.1491 C   0  0  0  0  0  0  0  0  0  0  0  0
    6.1720    3.2596    0.4483 C   0  0  0  0  0  0  0  0  0  0  0  0
    7.3618    3.9514    0.3357 C   0  0  0  0  0  0  0  0  0  0  0  0
    8.4176    3.4045   -0.3704 C   0  0  0  0  0  0  0  0  0  0  0  0
    8.2856    2.1630   -0.9667 C   0  0  0  0  0  0  0  0  0  0  0  0
    7.0989    1.4634   -0.8536 C   0  0  0  0  0  0  0  0  0  0  0  0
    9.7323    1.4195   -1.9311 Br  0  0  0  0  0  0  0  0  0  0  0  0
   -2.0360   -2.4269    1.2718 H   0  0  0  0  0  0  0  0  0  0  0  0
   -0.5945   -2.5006    0.2302 H   0  0  0  0  0  0  0  0  0  0  0  0
   -0.4158   -2.2167    1.9783 H   0  0  0  0  0  0  0  0  0  0  0  0
   -0.9290    1.9486    0.4436 H   0  0  0  0  0  0  0  0  0  0  0  0
    3.2473   -0.6536    0.4443 H   0  0  0  0  0  0  0  0  0  0  0  0
    2.4740    5.0348   -0.4009 H   0  0  0  0  0  0  0  0  0  0  0  0
    4.8407    0.3424    0.0336 H   0  0  0  0  0  0  0  0  0  0  0  0
    5.3481    3.6876    1.0000 H   0  0  0  0  0  0  0  0  0  0  0  0
    7.4680    4.9207    0.8001 H   0  0  0  0  0  0  0  0  0  0  0  0
    9.3472    3.9474   -0.4563 H   0  0  0  0  0  0  0  0  0  0  0  0
    6.9975    0.4924   -1.3153 H   0  0  0  0  0  0  0  0  0  0  0  0
  1  2  1  0  0  0  0
  1 21  1  0  0  0  0
  1 22  1  0  0  0  0
  1 23  1  0  0  0  0
  2  3  1  0  0  0  0
  3  8  2  0  0  0  0
  3  4  1  0  0  0  0
  4  5  2  0  0  0  0
  4 24  1  0  0  0  0
  5 12  1  0  0  0  0
  5  6  1  0  0  0  0
  6  7  2  0  0  0  0
  6  9  1  0  0  0  0
  7  8  1  0  0  0  0
  7 25  1  0  0  0  0
  9 10  2  0  0  0  0
  9 13  1  0  0  0  0
 10 11  1  0  0  0  0
 11 12  2  0  0  0  0
 11 26  1  0  0  0  0
 13 14  1  0  0  0  0
 13 27  1  0  0  0  0
 14 19  2  0  0  0  0
 14 15  1  0  0  0  0
 15 16  2  0  0  0  0
 15 28  1  0  0  0  0
 16 17  1  0  0  0  0
 16 29  1  0  0  0  0
 17 18  2  0  0  0  0
 17 30  1  0  0  0  0
 18 19  1  0  0  0  0
 18 20  1  0  0  0  0
 19 31  1  0  0  0  0
M  END
$$$$
ZINC03815233
  -OEChem-08230709403D

 46 49  0     0  0  0  0  0  0999 V2000
   -7.5442    6.1162   -2.0743 C   0  0  0  0  0  0  0  0  0  0  0  0
   -7.0868    4.3683   -3.6861 C   0  0  0  0  0  0  0  0  0  0  0  0
   -5.2939    5.2579   -2.3235 C   0  0  0  0  0  0  0  0  0  0  0  0
   -4.9060    5.6072   -0.8853 C   0  0  0  0  0  0  0  0  0  0  0  0
   -3.4779    5.9291   -0.8291 N   0  0  0  0  0  0  0  0  0  0  0  0
   -2.4669    5.0280   -0.6000 C   0  0  0  0  0  0  0  0  0  0  0  0
   -2.4492    3.6628   -0.3711 C   0  0  0  0  0  0  0  0  0  0  0  0
   -1.2330    3.0119   -0.1671 C   0  0  0  0  0  0  0  0  0  0  0  0
   -0.0191    3.7505   -0.1962 C   0  0  0  0  0  0  0  0  0  0  0  0
   -0.0394    5.1228   -0.4272 C   0  0  0  0  0  0  0  0  0  0  0  0
   -1.2577    5.7630   -0.6289 C   0  0  0  0  0  0  0  0  0  0  0  0
   -1.6317    7.1527   -0.8902 C   0  0  0  0  0  0  0  0  0  0  0  0
   -2.9269    7.2027   -0.9992 N   0  0  0  0  0  0  0  0  0  0  0  0
    1.1960    3.0481    0.0151 C   0  0  0  0  0  0  0  0  0  0  0  0
    1.1356    1.7411    0.2284 N   0  0  0  0  0  0  0  0  0  0  0  0
   -0.0204    1.0947    0.2466 C   0  0  0  0  0  0  0  0  0  0  0  0
   -1.1736    1.6864    0.0531 N   0  0  0  0  0  0  0  0  0  0  0  0
    2.4066    3.7072   -0.0015 N   0  0  0  0  0  0  0  0  0  0  0  0
    3.5984    2.9823    0.0883 C   0  0  0  0  0  0  0  0  0  0  0  0
    3.7001    1.7330   -0.5110 C   0  0  0  0  0  0  0  0  0  0  0  0
    4.8788    1.0193   -0.4212 C   0  0  0  0  0  0  0  0  0  0  0  0
    5.9579    1.5465    0.2646 C   0  0  0  0  0  0  0  0  0  0  0  0
    5.8606    2.7905    0.8624 C   0  0  0  0  0  0  0  0  0  0  0  0
    4.6851    3.5119    0.7719 C   0  0  0  0  0  0  0  0  0  0  0  0
    7.3391    3.5072    1.7983 Br  0  0  0  0  0  0  0  0  0  0  0  0
   -7.3341    6.9015   -2.8004 H   0  0  0  0  0  0  0  0  0  0  0  0
   -8.5999    5.8493   -2.1229 H   0  0  0  0  0  0  0  0  0  0  0  0
   -7.3057    6.4742   -1.0727 H   0  0  0  0  0  0  0  0  0  0  0  0
   -6.5158    3.4555   -3.8564 H   0  0  0  0  0  0  0  0  0  0  0  0
   -8.1522    4.1384   -3.7006 H   0  0  0  0  0  0  0  0  0  0  0  0
   -6.8601    5.0903   -4.4706 H   0  0  0  0  0  0  0  0  0  0  0  0
   -5.0875    6.1090   -2.9724 H   0  0  0  0  0  0  0  0  0  0  0  0
   -4.7141    4.3974   -2.6574 H   0  0  0  0  0  0  0  0  0  0  0  0
   -5.1124    4.7561   -0.2364 H   0  0  0  0  0  0  0  0  0  0  0  0
   -5.4858    6.4677   -0.5514 H   0  0  0  0  0  0  0  0  0  0  0  0
   -3.3734    3.1044   -0.3502 H   0  0  0  0  0  0  0  0  0  0  0  0
    0.8822    5.6853   -0.4499 H   0  0  0  0  0  0  0  0  0  0  0  0
   -0.9533    7.9886   -0.9772 H   0  0  0  0  0  0  0  0  0  0  0  0
   -0.0118    0.0296    0.4249 H   0  0  0  0  0  0  0  0  0  0  0  0
    2.4315    4.6741   -0.0754 H   0  0  0  0  0  0  0  0  0  0  0  0
    2.8579    1.3203   -1.0465 H   0  0  0  0  0  0  0  0  0  0  0  0
    4.9583    0.0483   -0.8873 H   0  0  0  0  0  0  0  0  0  0  0  0
    6.8786    0.9862    0.3333 H   0  0  0  0  0  0  0  0  0  0  0  0
    4.6105    4.4845    1.2353 H   0  0  0  0  0  0  0  0  0  0  0  0
   -6.7313    4.9153   -2.3598 N   0  3  0  0  0  0  0  0  0  0  0  0
   -6.9230    4.2048   -1.6438 H   0  0  0  0  0  0  0  0  0  0  0  0
  1 26  1  0  0  0  0
  1 27  1  0  0  0  0
  1 28  1  0  0  0  0
  1 45  1  0  0  0  0
  2 29  1  0  0  0  0
  2 30  1  0  0  0  0
  2 31  1  0  0  0  0
  2 45  1  0  0  0  0
  3  4  1  0  0  0  0
  3 32  1  0  0  0  0
  3 33  1  0  0  0  0
  3 45  1  0  0  0  0
  4  5  1  0  0  0  0
  4 34  1  0  0  0  0
  4 35  1  0  0  0  0
  5 13  1  0  0  0  0
  5  6  1  0  0  0  0
  6 11  2  0  0  0  0
  6  7  1  0  0  0  0
  7  8  2  0  0  0  0
  7 36  1  0  0  0  0
  8 17  1  0  0  0  0
  8  9  1  0  0  0  0
  9 10  2  0  0  0  0
  9 14  1  0  0  0  0
 10 11  1  0  0  0  0
 10 37  1  0  0  0  0
 11 12  1  0  0  0  0
 12 13  2  0  0  0  0
 12 38  1  0  0  0  0
 14 15  2  0  0  0  0
 14 18  1  0  0  0  0
 15 16  1  0  0  0  0
 16 17  2  0  0  0  0
 16 39  1  0  0  0  0
 18 19  1  0  0  0  0
 18 40  1  0  0  0  0
 19 24  2  0  0  0  0
 19 20  1  0  0  0  0
 20 21  2  0  0  0  0
 20 41  1  0  0  0  0
 21 22  1  0  0  0  0
 21 42  1  0  0  0  0
 22 23  2  0  0  0  0
 22 43  1  0  0  0  0
 23 24  1  0  0  0  0
 23 25  1  0  0  0  0
 24 44  1  0  0  0  0
 45 46  1  0  0  0  0
M  CHG  1  45   1
M  END
$$$$
ZINC03815234
  -OEChem-08230709403D

 27 30  0     0  0  0  0  0  0999 V2000
   -4.0106   -3.9070    0.4026 C   0  0  0  0  0  0  0  0  0  0  0  0
   -3.0557   -2.9140    0.5036 C   0  0  0  0  0  0  0  0  0  0  0  0
   -3.2811   -1.6735   -0.0793 C   0  0  0  0  0  0  0  0  0  0  0  0
   -4.4692   -1.4338   -0.7579 C   0  0  0  0  0  0  0  0  0  0  0  0
   -5.4184   -2.4327   -0.8595 C   0  0  0  0  0  0  0  0  0  0  0  0
   -5.1901   -3.6676   -0.2778 C   0  0  0  0  0  0  0  0  0  0  0  0
   -7.0338   -2.1100   -1.7880 Br  0  0  0  0  0  0  0  0  0  0  0  0
   -2.3169   -0.6668    0.0218 N   0  0  0  0  0  0  0  0  0  0  0  0
   -0.9688   -0.9940    0.0114 C   0  0  0  0  0  0  0  0  0  0  0  0
   -0.0011   -0.0257    0.2294 C   0  0  0  0  0  0  0  0  0  0  0  0
    1.3661   -0.3551    0.2198 C   0  0  0  0  0  0  0  0  0  0  0  0
    2.2759    0.7544    0.4627 C   0  0  0  0  0  0  0  0  0  0  0  0
    1.7280    2.0159    0.6785 C   0  0  0  0  0  0  0  0  0  0  0  0
   -0.0294    1.7140    0.5547 S   0  0  0  0  0  0  0  0  0  0  0  0
    2.5850    3.0079    0.8980 N   0  0  0  0  0  0  0  0  0  0  0  0
    3.8793    2.8187    0.9125 C   0  0  0  0  0  0  0  0  0  0  0  0
    4.0221    1.1185    0.5987 S   0  0  0  0  0  0  0  0  0  0  0  0
    1.6589   -1.6582   -0.0129 N   0  0  0  0  0  0  0  0  0  0  0  0
    0.7161   -2.5427   -0.2142 C   0  0  0  0  0  0  0  0  0  0  0  0
   -0.5715   -2.2476   -0.2080 N   0  0  0  0  0  0  0  0  0  0  0  0
   -3.8358   -4.8714    0.8561 H   0  0  0  0  0  0  0  0  0  0  0  0
   -2.1346   -3.1021    1.0351 H   0  0  0  0  0  0  0  0  0  0  0  0
   -4.6494   -0.4689   -1.2084 H   0  0  0  0  0  0  0  0  0  0  0  0
   -5.9350   -4.4457   -0.3552 H   0  0  0  0  0  0  0  0  0  0  0  0
   -2.5903    0.2606    0.0991 H   0  0  0  0  0  0  0  0  0  0  0  0
    4.6642    3.5416    1.0790 H   0  0  0  0  0  0  0  0  0  0  0  0
    1.0056   -3.5674   -0.3945 H   0  0  0  0  0  0  0  0  0  0  0  0
  1  6  2  0  0  0  0
  1  2  1  0  0  0  0
  1 21  1  0  0  0  0
  2  3  2  0  0  0  0
  2 22  1  0  0  0  0
  3  4  1  0  0  0  0
  3  8  1  0  0  0  0
  4  5  2  0  0  0  0
  4 23  1  0  0  0  0
  5  6  1  0  0  0  0
  5  7  1  0  0  0  0
  6 24  1  0  0  0  0
  8  9  1  0  0  0  0
  8 25  1  0  0  0  0
  9 20  2  0  0  0  0
  9 10  1  0  0  0  0
 10 14  1  0  0  0  0
 10 11  2  0  0  0  0
 11 12  1  0  0  0  0
 11 18  1  0  0  0  0
 12 17  1  0  0  0  0
 12 13  2  0  0  0  0
 13 14  1  0  0  0  0
 13 15  1  0  0  0  0
 15 16  2  0  0  0  0
 16 17  1  0  0  0  0
 16 26  1  0  0  0  0
 18 19  2  0  0  0  0
 19 20  1  0  0  0  0
 19 27  1  0  0  0  0
M  END
$$$$
ZINC03815235
  -OEChem-08230709403D

 35 37  0     0  0  0  0  0  0999 V2000
    3.3964    7.4823   -0.8312 C   0  0  0  0  0  0  0  0  0  0  0  0
    3.4747    5.9805   -0.7336 C   0  0  0  0  0  0  0  0  0  0  0  0
    4.4535    5.3961   -1.1476 O   0  0  0  0  0  0  0  0  0  0  0  0
    2.4570    5.2868   -0.1863 N   0  0  0  0  0  0  0  0  0  0  0  0
    2.4845    3.8905   -0.1854 C   0  0  0  0  0  0  0  0  0  0  0  0
    3.7008    3.2225   -0.0076 C   0  0  0  0  0  0  0  0  0  0  0  0
    3.7555    1.8620   -0.0026 C   0  0  0  0  0  0  0  0  0  0  0  0
    2.5816    1.1189   -0.1773 C   0  0  0  0  0  0  0  0  0  0  0  0
    1.3441    1.7855   -0.3586 C   0  0  0  0  0  0  0  0  0  0  0  0
    1.3114    3.1846   -0.3594 C   0  0  0  0  0  0  0  0  0  0  0  0
    0.2336    1.0504   -0.5234 N   0  0  0  0  0  0  0  0  0  0  0  0
    0.2965   -0.2602   -0.5162 C   0  0  0  0  0  0  0  0  0  0  0  0
    1.4282   -0.9254   -0.3509 N   0  0  0  0  0  0  0  0  0  0  0  0
    2.5840   -0.2961   -0.1797 C   0  0  0  0  0  0  0  0  0  0  0  0
    3.7568   -1.0027   -0.0089 N   0  0  0  0  0  0  0  0  0  0  0  0
    3.7241   -2.3962    0.0960 C   0  0  0  0  0  0  0  0  0  0  0  0
    4.7813   -3.1558   -0.3897 C   0  0  0  0  0  0  0  0  0  0  0  0
    4.7464   -4.5322   -0.2848 C   0  0  0  0  0  0  0  0  0  0  0  0
    3.6609   -5.1554    0.3034 C   0  0  0  0  0  0  0  0  0  0  0  0
    2.6063   -4.4023    0.7882 C   0  0  0  0  0  0  0  0  0  0  0  0
    2.6377   -3.0240    0.6909 C   0  0  0  0  0  0  0  0  0  0  0  0
    1.1246   -5.2592    1.5922 Br  0  0  0  0  0  0  0  0  0  0  0  0
    2.4507    7.8248   -0.4113 H   0  0  0  0  0  0  0  0  0  0  0  0
    4.2226    7.9260   -0.2757 H   0  0  0  0  0  0  0  0  0  0  0  0
    3.4594    7.7822   -1.8773 H   0  0  0  0  0  0  0  0  0  0  0  0
    1.7054    5.7573    0.2069 H   0  0  0  0  0  0  0  0  0  0  0  0
    4.6077    3.7931    0.1277 H   0  0  0  0  0  0  0  0  0  0  0  0
    4.7007    1.3580    0.1352 H   0  0  0  0  0  0  0  0  0  0  0  0
    0.3763    3.7074   -0.4960 H   0  0  0  0  0  0  0  0  0  0  0  0
   -0.6164   -0.8212   -0.6516 H   0  0  0  0  0  0  0  0  0  0  0  0
    4.6038   -0.5325    0.0383 H   0  0  0  0  0  0  0  0  0  0  0  0
    5.6294   -2.6701   -0.8492 H   0  0  0  0  0  0  0  0  0  0  0  0
    5.5680   -5.1229   -0.6622 H   0  0  0  0  0  0  0  0  0  0  0  0
    3.6365   -6.2320    0.3848 H   0  0  0  0  0  0  0  0  0  0  0  0
    1.8166   -2.4361    1.0738 H   0  0  0  0  0  0  0  0  0  0  0  0
  1  2  1  0  0  0  0
  1 23  1  0  0  0  0
  1 24  1  0  0  0  0
  1 25  1  0  0  0  0
  2  3  2  0  0  0  0
  2  4  1  0  0  0  0
  4  5  1  0  0  0  0
  4 26  1  0  0  0  0
  5 10  2  0  0  0  0
  5  6  1  0  0  0  0
  6  7  2  0  0  0  0
  6 27  1  0  0  0  0
  7  8  1  0  0  0  0
  7 28  1  0  0  0  0
  8 14  2  0  0  0  0
  8  9  1  0  0  0  0
  9 10  1  0  0  0  0
  9 11  2  0  0  0  0
 10 29  1  0  0  0  0
 11 12  1  0  0  0  0
 12 13  2  0  0  0  0
 12 30  1  0  0  0  0
 13 14  1  0  0  0  0
 14 15  1  0  0  0  0
 15 16  1  0  0  0  0
 15 31  1  0  0  0  0
 16 21  2  0  0  0  0
 16 17  1  0  0  0  0
 17 18  2  0  0  0  0
 17 32  1  0  0  0  0
 18 19  1  0  0  0  0
 18 33  1  0  0  0  0
 19 20  2  0  0  0  0
 19 34  1  0  0  0  0
 20 21  1  0  0  0  0
 20 22  1  0  0  0  0
 21 35  1  0  0  0  0
M  END
$$$$
ZINC03815236
  -OEChem-08230709403D

 27 29  0     0  0  0  0  0  0999 V2000
    3.9977   -4.5625    0.2270 C   0  0  0  0  0  0  0  0  0  0  0  0
    2.7669   -3.9473    0.3481 C   0  0  0  0  0  0  0  0  0  0  0  0
    2.5832   -2.6614   -0.1438 C   0  0  0  0  0  0  0  0  0  0  0  0
    3.6371   -2.0000   -0.7616 C   0  0  0  0  0  0  0  0  0  0  0  0
    4.8671   -2.6190   -0.8753 C   0  0  0  0  0  0  0  0  0  0  0  0
    5.0465   -3.9002   -0.3835 C   0  0  0  0  0  0  0  0  0  0  0  0
    6.3047   -1.7177   -1.7101 Br  0  0  0  0  0  0  0  0  0  0  0  0
    1.3389   -2.0364   -0.0226 N   0  0  0  0  0  0  0  0  0  0  0  0
    1.2673   -0.6692    0.1454 C   0  0  0  0  0  0  0  0  0  0  0  0
    0.0200    0.0001    0.1538 C   0  0  0  0  0  0  0  0  0  0  0  0
   -1.2027   -0.6621   -0.0033 C   0  0  0  0  0  0  0  0  0  0  0  0
   -2.3530    0.0763    0.0201 C   0  0  0  0  0  0  0  0  0  0  0  0
   -2.3343    1.3905    0.1869 N   0  0  0  0  0  0  0  0  0  0  0  0
   -1.2224    2.0719    0.3441 C   0  0  0  0  0  0  0  0  0  0  0  0
    0.0117    1.4064    0.3300 C   0  0  0  0  0  0  0  0  0  0  0  0
    1.1806    2.0425    0.4814 N   0  0  0  0  0  0  0  0  0  0  0  0
    2.3079    1.3711    0.4650 C   0  0  0  0  0  0  0  0  0  0  0  0
    2.3653    0.0584    0.3035 N   0  0  0  0  0  0  0  0  0  0  0  0
   -3.8785   -0.7294   -0.1732 Cl  0  0  0  0  0  0  0  0  0  0  0  0
    4.1408   -5.5624    0.6095 H   0  0  0  0  0  0  0  0  0  0  0  0
    1.9483   -4.4655    0.8252 H   0  0  0  0  0  0  0  0  0  0  0  0
    3.4962   -1.0019   -1.1491 H   0  0  0  0  0  0  0  0  0  0  0  0
    6.0076   -4.3838   -0.4772 H   0  0  0  0  0  0  0  0  0  0  0  0
    0.5257   -2.5641   -0.0566 H   0  0  0  0  0  0  0  0  0  0  0  0
   -1.2369   -1.7329   -0.1396 H   0  0  0  0  0  0  0  0  0  0  0  0
   -1.2582    3.1431    0.4770 H   0  0  0  0  0  0  0  0  0  0  0  0
    3.2326    1.9150    0.5895 H   0  0  0  0  0  0  0  0  0  0  0  0
  1  6  2  0  0  0  0
  1  2  1  0  0  0  0
  1 20  1  0  0  0  0
  2  3  2  0  0  0  0
  2 21  1  0  0  0  0
  3  4  1  0  0  0  0
  3  8  1  0  0  0  0
  4  5  2  0  0  0  0
  4 22  1  0  0  0  0
  5  6  1  0  0  0  0
  5  7  1  0  0  0  0
  6 23  1  0  0  0  0
  8  9  1  0  0  0  0
  8 24  1  0  0  0  0
  9 18  2  0  0  0  0
  9 10  1  0  0  0  0
 10 15  2  0  0  0  0
 10 11  1  0  0  0  0
 11 12  2  0  0  0  0
 11 25  1  0  0  0  0
 12 13  1  0  0  0  0
 12 19  1  0  0  0  0
 13 14  2  0  0  0  0
 14 15  1  0  0  0  0
 14 26  1  0  0  0  0
 15 16  1  0  0  0  0
 16 17  2  0  0  0  0
 17 18  1  0  0  0  0
 17 27  1  0  0  0  0
M  END
$$$$
ZINC03815237
  -OEChem-08230709403D

 48 50  0     1  0  0  0  0  0999 V2000
    6.4419   -4.3614    2.5405 C   0  0  0  0  0  0  0  0  0  0  0  0
    5.4409   -5.4341    4.4667 C   0  0  0  0  0  0  0  0  0  0  0  0
    4.0353   -4.5840    2.6878 C   0  0  0  0  0  0  0  0  0  0  0  0
    3.8525   -4.5760    1.1688 C   0  0  0  0  0  0  0  0  0  0  0  0
    2.5612   -3.9694    0.8356 N   0  0  3  0  0  0  0  0  0  0  0  0
    1.3641   -4.8071    0.7293 C   0  0  0  0  0  0  0  0  0  0  0  0
    2.4720   -2.6003    0.6204 C   0  0  0  0  0  0  0  0  0  0  0  0
    1.2299   -2.0292    0.4098 C   0  0  0  0  0  0  0  0  0  0  0  0
    1.1580   -0.6486    0.1946 C   0  0  0  0  0  0  0  0  0  0  0  0
    2.3673    0.0969    0.2036 C   0  0  0  0  0  0  0  0  0  0  0  0
    3.5750   -0.5685    0.4254 C   0  0  0  0  0  0  0  0  0  0  0  0
    2.2915    1.4922   -0.0143 C   0  0  0  0  0  0  0  0  0  0  0  0
    1.0937    2.0291   -0.2162 N   0  0  0  0  0  0  0  0  0  0  0  0
   -0.0056    1.2930   -0.2154 C   0  0  0  0  0  0  0  0  0  0  0  0
    0.0030   -0.0056   -0.0184 N   0  0  0  0  0  0  0  0  0  0  0  0
    3.4280    2.2722   -0.0180 N   0  0  0  0  0  0  0  0  0  0  0  0
    3.3212    3.6627   -0.1146 C   0  0  0  0  0  0  0  0  0  0  0  0
    2.2594    4.3230    0.4911 C   0  0  0  0  0  0  0  0  0  0  0  0
    2.1566    5.6966    0.3945 C   0  0  0  0  0  0  0  0  0  0  0  0
    3.1093    6.4157   -0.3040 C   0  0  0  0  0  0  0  0  0  0  0  0
    4.1680    5.7616   -0.9086 C   0  0  0  0  0  0  0  0  0  0  0  0
    4.2791    4.3874   -0.8114 C   0  0  0  0  0  0  0  0  0  0  0  0
    5.4681    6.7494   -1.8625 Br  0  0  0  0  0  0  0  0  0  0  0  0
    6.3877   -3.3771    3.0055 H   0  0  0  0  0  0  0  0  0  0  0  0
    7.3885   -4.8348    2.8011 H   0  0  0  0  0  0  0  0  0  0  0  0
    6.3743   -4.2560    1.4577 H   0  0  0  0  0  0  0  0  0  0  0  0
    4.6456   -6.1086    4.7841 H   0  0  0  0  0  0  0  0  0  0  0  0
    6.4088   -5.8847    4.6864 H   0  0  0  0  0  0  0  0  0  0  0  0
    5.3505   -4.4886    5.0014 H   0  0  0  0  0  0  0  0  0  0  0  0
    4.0070   -3.5608    3.0626 H   0  0  0  0  0  0  0  0  0  0  0  0
    3.2332   -5.1616    3.1473 H   0  0  0  0  0  0  0  0  0  0  0  0
    3.8808   -5.5991    0.7940 H   0  0  0  0  0  0  0  0  0  0  0  0
    4.6546   -3.9984    0.7093 H   0  0  0  0  0  0  0  0  0  0  0  0
    1.2571   -5.1596   -0.2965 H   0  0  0  0  0  0  0  0  0  0  0  0
    1.4581   -5.6618    1.3992 H   0  0  0  0  0  0  0  0  0  0  0  0
    0.4863   -4.2233    1.0063 H   0  0  0  0  0  0  0  0  0  0  0  0
    0.3360   -2.6352    0.4111 H   0  0  0  0  0  0  0  0  0  0  0  0
    4.5024   -0.0151    0.4350 H   0  0  0  0  0  0  0  0  0  0  0  0
   -0.9530    1.7815   -0.3890 H   0  0  0  0  0  0  0  0  0  0  0  0
    4.3019    1.8563    0.0464 H   0  0  0  0  0  0  0  0  0  0  0  0
    1.5149    3.7624    1.0368 H   0  0  0  0  0  0  0  0  0  0  0  0
    1.3313    6.2102    0.8653 H   0  0  0  0  0  0  0  0  0  0  0  0
    3.0268    7.4900   -0.3774 H   0  0  0  0  0  0  0  0  0  0  0  0
    5.1079    3.8775   -1.2799 H   0  0  0  0  0  0  0  0  0  0  0  0
    5.3316   -5.2176    3.0087 N   0  3  0  0  0  0  0  0  0  0  0  0
    5.3864   -6.1252    2.5317 H   0  0  0  0  0  0  0  0  0  0  0  0
    3.6583   -1.9074    0.6355 N   0  3  0  0  0  0  0  0  0  0  0  0
    4.5576   -2.3758    0.7966 H   0  0  0  0  0  0  0  0  0  0  0  0
  1 24  1  0  0  0  0
  1 25  1  0  0  0  0
  1 26  1  0  0  0  0
  1 45  1  0  0  0  0
  2 27  1  0  0  0  0
  2 28  1  0  0  0  0
  2 29  1  0  0  0  0
  2 45  1  0  0  0  0
  3  4  1  0  0  0  0
  3 30  1  0  0  0  0
  3 31  1  0  0  0  0
  3 45  1  0  0  0  0
  4  5  1  0  0  0  0
  4 32  1  0  0  0  0
  4 33  1  0  0  0  0
  5  6  1  0  0  0  0
  5  7  1  0  0  0  0
  6 34  1  0  0  0  0
  6 35  1  0  0  0  0
  6 36  1  0  0  0  0
  7  8  2  0  0  0  0
  7 47  1  0  0  0  0
  8  9  1  0  0  0  0
  8 37  1  0  0  0  0
  9 15  2  0  0  0  0
  9 10  1  0  0  0  0
 10 11  1  0  0  0  0
 10 12  2  0  0  0  0
 11 38  1  0  0  0  0
 11 47  2  0  0  0  0
 12 13  1  0  0  0  0
 12 16  1  0  0  0  0
 13 14  2  0  0  0  0
 14 15  1  0  0  0  0
 14 39  1  0  0  0  0
 16 17  1  0  0  0  0
 16 40  1  0  0  0  0
 17 22  2  0  0  0  0
 17 18  1  0  0  0  0
 18 19  2  0  0  0  0
 18 41  1  0  0  0  0
 19 20  1  0  0  0  0
 19 42  1  0  0  0  0
 20 21  2  0  0  0  0
 20 43  1  0  0  0  0
 21 22  1  0  0  0  0
 21 23  1  0  0  0  0
 22 44  1  0  0  0  0
 45 46  1  0  0  0  0
 47 48  1  0  0  0  0
M  CHG  2  45   1  47   1
M  END
$$$$
ZINC03815238
  -OEChem-08230709403D

 33 35  0     0  0  0  0  0  0999 V2000
   -1.9873    0.9754   -1.4832 C   0  0  0  0  0  0  0  0  0  0  0  0
   -0.9700    1.7492   -0.6848 C   0  0  0  0  0  0  0  0  0  0  0  0
   -0.0172    1.0758    0.0579 C   0  0  0  0  0  0  0  0  0  0  0  0
    0.9217    1.7819    0.7869 C   0  0  0  0  0  0  0  0  0  0  0  0
    0.9074    3.1631    0.7801 C   0  0  0  0  0  0  0  0  0  0  0  0
   -0.0515    3.8425    0.0400 C   0  0  0  0  0  0  0  0  0  0  0  0
   -0.9935    3.1299   -0.6914 C   0  0  0  0  0  0  0  0  0  0  0  0
   -0.0691    5.2402    0.0313 N   0  0  0  0  0  0  0  0  0  0  0  0
    1.1117    5.9450    0.1283 C   0  0  0  0  0  0  0  0  0  0  0  0
    1.1105    7.3549    0.2380 C   0  0  0  0  0  0  0  0  0  0  0  0
   -0.0648    8.1096    0.2659 C   0  0  0  0  0  0  0  0  0  0  0  0
    1.1494   10.0763    0.4673 C   0  0  0  0  0  0  0  0  0  0  0  0
    2.3634    9.4142    0.4533 C   0  0  0  0  0  0  0  0  0  0  0  0
    2.3618    8.0193    0.3391 C   0  0  0  0  0  0  0  0  0  0  0  0
    3.4849    7.2909    0.3167 N   0  0  0  0  0  0  0  0  0  0  0  0
    3.4244    5.9834    0.2078 C   0  0  0  0  0  0  0  0  0  0  0  0
    2.2834    5.3200    0.1159 N   0  0  0  0  0  0  0  0  0  0  0  0
    1.1331   11.4605    0.5800 N   0  0  0  0  0  0  0  0  0  0  0  0
   -2.8656    0.7859   -0.8662 H   0  0  0  0  0  0  0  0  0  0  0  0
   -2.2773    1.5540   -2.3603 H   0  0  0  0  0  0  0  0  0  0  0  0
   -1.5546    0.0266   -1.8006 H   0  0  0  0  0  0  0  0  0  0  0  0
   -0.0039   -0.0041    0.0648 H   0  0  0  0  0  0  0  0  0  0  0  0
    1.6673    1.2530    1.3619 H   0  0  0  0  0  0  0  0  0  0  0  0
    1.6409    3.7141    1.3501 H   0  0  0  0  0  0  0  0  0  0  0  0
   -1.7402    3.6551   -1.2683 H   0  0  0  0  0  0  0  0  0  0  0  0
   -0.9121    5.7142   -0.0430 H   0  0  0  0  0  0  0  0  0  0  0  0
   -1.0238    7.6181    0.1933 H   0  0  0  0  0  0  0  0  0  0  0  0
    3.2916    9.9611    0.5290 H   0  0  0  0  0  0  0  0  0  0  0  0
    4.3482    5.4242    0.1922 H   0  0  0  0  0  0  0  0  0  0  0  0
    1.9670   11.9514    0.6477 H   0  0  0  0  0  0  0  0  0  0  0  0
    0.2879   11.9363    0.5910 H   0  0  0  0  0  0  0  0  0  0  0  0
   -0.0768    9.4626    0.3761 N   0  3  0  0  0  0  0  0  0  0  0  0
   -0.9530    9.9975    0.3904 H   0  0  0  0  0  0  0  0  0  0  0  0
  1  2  1  0  0  0  0
  1 19  1  0  0  0  0
  1 20  1  0  0  0  0
  1 21  1  0  0  0  0
  2  7  2  0  0  0  0
  2  3  1  0  0  0  0
  3  4  2  0  0  0  0
  3 22  1  0  0  0  0
  4  5  1  0  0  0  0
  4 23  1  0  0  0  0
  5  6  2  0  0  0  0
  5 24  1  0  0  0  0
  6  7  1  0  0  0  0
  6  8  1  0  0  0  0
  7 25  1  0  0  0  0
  8  9  1  0  0  0  0
  8 26  1  0  0  0  0
  9 17  2  0  0  0  0
  9 10  1  0  0  0  0
 10 14  2  0  0  0  0
 10 11  1  0  0  0  0
 11 27  1  0  0  0  0
 11 32  2  0  0  0  0
 12 13  2  0  0  0  0
 12 18  1  0  0  0  0
 12 32  1  0  0  0  0
 13 14  1  0  0  0  0
 13 28  1  0  0  0  0
 14 15  1  0  0  0  0
 15 16  2  0  0  0  0
 16 17  1  0  0  0  0
 16 29  1  0  0  0  0
 18 30  1  0  0  0  0
 18 31  1  0  0  0  0
 32 33  1  0  0  0  0
M  CHG  1  32   1
M  END
$$$$
ZINC03815239
  -OEChem-08230709403D

 47 50  0     0  0  0  0  0  0999 V2000
    0.3767    0.9992    0.3418 C   0  0  0  0  0  0  0  0  0  0  0  0
    1.3678    3.1979    0.5570 C   0  0  0  0  0  0  0  0  0  0  0  0
   -0.6607    2.9052   -0.7322 C   0  0  0  0  0  0  0  0  0  0  0  0
   -1.1260    4.3430   -0.4929 C   0  0  0  0  0  0  0  0  0  0  0  0
   -1.8994    4.8047   -1.6482 N   0  0  0  0  0  0  0  0  0  0  0  0
   -1.3924    5.5267   -2.6970 C   0  0  0  0  0  0  0  0  0  0  0  0
   -2.3593    5.7864   -3.5886 C   0  0  0  0  0  0  0  0  0  0  0  0
   -3.5955    5.1906   -3.0684 C   0  0  0  0  0  0  0  0  0  0  0  0
   -3.2469    4.5826   -1.8390 C   0  0  0  0  0  0  0  0  0  0  0  0
   -4.2062    3.9260   -1.0910 C   0  0  0  0  0  0  0  0  0  0  0  0
   -5.5224    3.8642   -1.5525 C   0  0  0  0  0  0  0  0  0  0  0  0
   -5.8702    4.4751   -2.7867 C   0  0  0  0  0  0  0  0  0  0  0  0
   -4.8997    5.1356   -3.5387 C   0  0  0  0  0  0  0  0  0  0  0  0
   -7.2181    4.3900   -3.2186 C   0  0  0  0  0  0  0  0  0  0  0  0
   -8.0837    3.7446   -2.4489 N   0  0  0  0  0  0  0  0  0  0  0  0
   -7.7132    3.1896   -1.3052 C   0  0  0  0  0  0  0  0  0  0  0  0
   -6.4834    3.2354   -0.8537 N   0  0  0  0  0  0  0  0  0  0  0  0
   -7.6182    4.9637   -4.4074 N   0  0  0  0  0  0  0  0  0  0  0  0
   -8.9713    4.9739   -4.7579 C   0  0  0  0  0  0  0  0  0  0  0  0
   -9.9435    5.1235   -3.7766 C   0  0  0  0  0  0  0  0  0  0  0  0
  -11.2794    5.1338   -4.1257 C   0  0  0  0  0  0  0  0  0  0  0  0
  -11.6507    4.9954   -5.4507 C   0  0  0  0  0  0  0  0  0  0  0  0
  -10.6855    4.8467   -6.4307 C   0  0  0  0  0  0  0  0  0  0  0  0
   -9.3465    4.8405   -6.0882 C   0  0  0  0  0  0  0  0  0  0  0  0
  -11.1985    4.6585   -8.2411 Br  0  0  0  0  0  0  0  0  0  0  0  0
    0.9522    0.6829    1.2117 H   0  0  0  0  0  0  0  0  0  0  0  0
   -0.5698    0.4591    0.3164 H   0  0  0  0  0  0  0  0  0  0  0  0
    0.9418    0.7850   -0.5653 H   0  0  0  0  0  0  0  0  0  0  0  0
    1.9992    3.0074   -0.3108 H   0  0  0  0  0  0  0  0  0  0  0  0
    1.1450    4.2631    0.6175 H   0  0  0  0  0  0  0  0  0  0  0  0
    1.8889    2.8837    1.4614 H   0  0  0  0  0  0  0  0  0  0  0  0
   -0.0366    2.8692   -1.6251 H   0  0  0  0  0  0  0  0  0  0  0  0
   -1.5288    2.2605   -0.8695 H   0  0  0  0  0  0  0  0  0  0  0  0
   -1.7501    4.3790    0.4000 H   0  0  0  0  0  0  0  0  0  0  0  0
   -0.2579    4.9877   -0.3556 H   0  0  0  0  0  0  0  0  0  0  0  0
   -0.3628    5.8384   -2.7928 H   0  0  0  0  0  0  0  0  0  0  0  0
   -2.2501    6.3346   -4.5127 H   0  0  0  0  0  0  0  0  0  0  0  0
   -3.9386    3.4628   -0.1528 H   0  0  0  0  0  0  0  0  0  0  0  0
   -5.1608    5.6012   -4.4775 H   0  0  0  0  0  0  0  0  0  0  0  0
   -8.4590    2.6757   -0.7168 H   0  0  0  0  0  0  0  0  0  0  0  0
   -6.9606    5.3599   -5.0002 H   0  0  0  0  0  0  0  0  0  0  0  0
   -9.6545    5.2313   -2.7415 H   0  0  0  0  0  0  0  0  0  0  0  0
  -12.0352    5.2504   -3.3631 H   0  0  0  0  0  0  0  0  0  0  0  0
  -12.6963    5.0038   -5.7209 H   0  0  0  0  0  0  0  0  0  0  0  0
   -8.5931    4.7282   -6.8539 H   0  0  0  0  0  0  0  0  0  0  0  0
    0.0992    2.4470    0.4499 N   0  3  0  0  0  0  0  0  0  0  0  0
   -0.4613    2.6171    1.2931 H   0  0  0  0  0  0  0  0  0  0  0  0
  1 26  1  0  0  0  0
  1 27  1  0  0  0  0
  1 28  1  0  0  0  0
  1 46  1  0  0  0  0
  2 29  1  0  0  0  0
  2 30  1  0  0  0  0
  2 31  1  0  0  0  0
  2 46  1  0  0  0  0
  3  4  1  0  0  0  0
  3 32  1  0  0  0  0
  3 33  1  0  0  0  0
  3 46  1  0  0  0  0
  4  5  1  0  0  0  0
  4 34  1  0  0  0  0
  4 35  1  0  0  0  0
  5  9  1  0  0  0  0
  5  6  1  0  0  0  0
  6  7  2  0  0  0  0
  6 36  1  0  0  0  0
  7  8  1  0  0  0  0
  7 37  1  0  0  0  0
  8 13  2  0  0  0  0
  8  9  1  0  0  0  0
  9 10  2  0  0  0  0
 10 11  1  0  0  0  0
 10 38  1  0  0  0  0
 11 17  2  0  0  0  0
 11 12  1  0  0  0  0
 12 13  1  0  0  0  0
 12 14  2  0  0  0  0
 13 39  1  0  0  0  0
 14 15  1  0  0  0  0
 14 18  1  0  0  0  0
 15 16  2  0  0  0  0
 16 17  1  0  0  0  0
 16 40  1  0  0  0  0
 18 19  1  0  0  0  0
 18 41  1  0  0  0  0
 19 24  2  0  0  0  0
 19 20  1  0  0  0  0
 20 21  2  0  0  0  0
 20 42  1  0  0  0  0
 21 22  1  0  0  0  0
 21 43  1  0  0  0  0
 22 23  2  0  0  0  0
 22 44  1  0  0  0  0
 23 24  1  0  0  0  0
 23 25  1  0  0  0  0
 24 45  1  0  0  0  0
 46 47  1  0  0  0  0
M  CHG  1  46   1
M  END
$$$$
ZINC03815240
  -OEChem-08230709403D

 63 66  0     0  0  0  0  0  0999 V2000
    4.3966   -4.7837   -2.5468 C   0  0  0  0  0  0  0  0  0  0  0  0
    2.8964   -4.6021   -2.7861 C   0  0  0  0  0  0  0  0  0  0  0  0
    2.4461   -6.8910   -2.1372 C   0  0  0  0  0  0  0  0  0  0  0  0
    1.8425   -7.2999   -3.4823 C   0  0  0  0  0  0  0  0  0  0  0  0
    2.4154   -5.1324   -0.4731 C   0  0  0  0  0  0  0  0  0  0  0  0
    1.8626   -3.7372   -0.1755 C   0  0  0  0  0  0  0  0  0  0  0  0
    0.4386   -3.7538   -0.2937 O   0  0  0  0  0  0  0  0  0  0  0  0
   -0.2140   -2.5840   -0.0593 C   0  0  0  0  0  0  0  0  0  0  0  0
   -1.5967   -2.5300   -0.1569 C   0  0  0  0  0  0  0  0  0  0  0  0
   -2.2601   -1.3423    0.0800 C   0  0  0  0  0  0  0  0  0  0  0  0
   -1.5427   -0.2019    0.4166 C   0  0  0  0  0  0  0  0  0  0  0  0
   -0.1586   -0.2569    0.5145 C   0  0  0  0  0  0  0  0  0  0  0  0
    0.5033   -1.4453    0.2768 C   0  0  0  0  0  0  0  0  0  0  0  0
   -2.2146    1.0029    0.6565 N   0  0  0  0  0  0  0  0  0  0  0  0
   -3.4618    0.9918    1.2505 C   0  0  0  0  0  0  0  0  0  0  0  0
   -3.9572   -0.1650    1.6772 N   0  0  0  0  0  0  0  0  0  0  0  0
   -5.1437   -0.2299    2.2512 C   0  0  0  0  0  0  0  0  0  0  0  0
   -5.8809    0.9543    2.4052 C   0  0  0  0  0  0  0  0  0  0  0  0
   -7.1573    0.9487    3.0126 C   0  0  0  0  0  0  0  0  0  0  0  0
   -7.8369    2.1304    3.1401 C   0  0  0  0  0  0  0  0  0  0  0  0
   -7.2276    3.3671    2.6461 C   0  0  0  0  0  0  0  0  0  0  0  0
   -7.8250    4.4230    2.7559 O   0  0  0  0  0  0  0  0  0  0  0  0
   -6.0096    3.3430    2.0714 N   0  0  0  0  0  0  0  0  0  0  0  0
   -5.3213    2.1634    1.9394 C   0  0  0  0  0  0  0  0  0  0  0  0
   -4.1173    2.1350    1.3785 N   0  0  0  0  0  0  0  0  0  0  0  0
   -5.4137    4.5888    1.5828 C   0  0  0  0  0  0  0  0  0  0  0  0
   -9.1768    2.1577    3.7717 C   0  0  0  0  0  0  0  0  0  0  0  0
  -10.3226    1.9980    2.9915 C   0  0  0  0  0  0  0  0  0  0  0  0
  -11.5685    2.0201    3.5872 C   0  0  0  0  0  0  0  0  0  0  0  0
  -11.6824    2.2097    4.9527 C   0  0  0  0  0  0  0  0  0  0  0  0
  -10.5507    2.3740    5.7310 C   0  0  0  0  0  0  0  0  0  0  0  0
   -9.2987    2.3491    5.1486 C   0  0  0  0  0  0  0  0  0  0  0  0
   -7.8797    2.5560    6.1271 Cl  0  0  0  0  0  0  0  0  0  0  0  0
  -10.1822    1.7665    1.2768 Cl  0  0  0  0  0  0  0  0  0  0  0  0
    4.9531   -4.1230   -3.2115 H   0  0  0  0  0  0  0  0  0  0  0  0
    4.6315   -4.5389   -1.5110 H   0  0  0  0  0  0  0  0  0  0  0  0
    4.6739   -5.8185   -2.7475 H   0  0  0  0  0  0  0  0  0  0  0  0
    2.6589   -4.8621   -3.8177 H   0  0  0  0  0  0  0  0  0  0  0  0
    2.6219   -3.5637   -2.6008 H   0  0  0  0  0  0  0  0  0  0  0  0
    3.5263   -7.0339   -2.1651 H   0  0  0  0  0  0  0  0  0  0  0  0
    2.0186   -7.5058   -1.3452 H   0  0  0  0  0  0  0  0  0  0  0  0
    2.0860   -8.3423   -3.6879 H   0  0  0  0  0  0  0  0  0  0  0  0
    0.7598   -7.1800   -3.4463 H   0  0  0  0  0  0  0  0  0  0  0  0
    2.2519   -6.6689   -4.2712 H   0  0  0  0  0  0  0  0  0  0  0  0
    3.4910   -5.1423   -0.2968 H   0  0  0  0  0  0  0  0  0  0  0  0
    1.9336   -5.8608    0.1791 H   0  0  0  0  0  0  0  0  0  0  0  0
    2.2779   -3.0226   -0.8861 H   0  0  0  0  0  0  0  0  0  0  0  0
    2.1397   -3.4450    0.8374 H   0  0  0  0  0  0  0  0  0  0  0  0
   -2.1544   -3.4170   -0.4187 H   0  0  0  0  0  0  0  0  0  0  0  0
   -3.3362   -1.2993   -0.0007 H   0  0  0  0  0  0  0  0  0  0  0  0
    0.4000    0.6295    0.7766 H   0  0  0  0  0  0  0  0  0  0  0  0
    1.5798   -1.4882    0.3529 H   0  0  0  0  0  0  0  0  0  0  0  0
   -1.8044    1.8453    0.4058 H   0  0  0  0  0  0  0  0  0  0  0  0
   -5.5388   -1.1742    2.5955 H   0  0  0  0  0  0  0  0  0  0  0  0
   -7.5900    0.0261    3.3703 H   0  0  0  0  0  0  0  0  0  0  0  0
   -5.7018    4.7463    0.5434 H   0  0  0  0  0  0  0  0  0  0  0  0
   -5.7679    5.4230    2.1883 H   0  0  0  0  0  0  0  0  0  0  0  0
   -4.3278    4.5242    1.6530 H   0  0  0  0  0  0  0  0  0  0  0  0
  -12.4560    1.8924    2.9851 H   0  0  0  0  0  0  0  0  0  0  0  0
  -12.6591    2.2300    5.4131 H   0  0  0  0  0  0  0  0  0  0  0  0
  -10.6465    2.5224    6.7965 H   0  0  0  0  0  0  0  0  0  0  0  0
    2.1179   -5.4728   -1.8803 N   0  3  0  0  0  0  0  0  0  0  0  0
    1.1169   -5.3253   -2.0547 H   0  0  0  0  0  0  0  0  0  0  0  0
  1  2  1  0  0  0  0
  1 35  1  0  0  0  0
  1 36  1  0  0  0  0
  1 37  1  0  0  0  0
  2 38  1  0  0  0  0
  2 39  1  0  0  0  0
  2 62  1  0  0  0  0
  3  4  1  0  0  0  0
  3 40  1  0  0  0  0
  3 41  1  0  0  0  0
  3 62  1  0  0  0  0
  4 42  1  0  0  0  0
  4 43  1  0  0  0  0
  4 44  1  0  0  0  0
  5  6  1  0  0  0  0
  5 45  1  0  0  0  0
  5 46  1  0  0  0  0
  5 62  1  0  0  0  0
  6  7  1  0  0  0  0
  6 47  1  0  0  0  0
  6 48  1  0  0  0  0
  7  8  1  0  0  0  0
  8 13  2  0  0  0  0
  8  9  1  0  0  0  0
  9 10  2  0  0  0  0
  9 49  1  0  0  0  0
 10 11  1  0  0  0  0
 10 50  1  0  0  0  0
 11 12  2  0  0  0  0
 11 14  1  0  0  0  0
 12 13  1  0  0  0  0
 12 51  1  0  0  0  0
 13 52  1  0  0  0  0
 14 15  1  0  0  0  0
 14 53  1  0  0  0  0
 15 25  2  0  0  0  0
 15 16  1  0  0  0  0
 16 17  2  0  0  0  0
 17 18  1  0  0  0  0
 17 54  1  0  0  0  0
 18 24  2  0  0  0  0
 18 19  1  0  0  0  0
 19 20  2  0  0  0  0
 19 55  1  0  0  0  0
 20 21  1  0  0  0  0
 20 27  1  0  0  0  0
 21 22  2  0  0  0  0
 21 23  1  0  0  0  0
 23 24  1  0  0  0  0
 23 26  1  0  0  0  0
 24 25  1  0  0  0  0
 26 56  1  0  0  0  0
 26 57  1  0  0  0  0
 26 58  1  0  0  0  0
 27 32  2  0  0  0  0
 27 28  1  0  0  0  0
 28 29  2  0  0  0  0
 28 34  1  0  0  0  0
 29 30  1  0  0  0  0
 29 59  1  0  0  0  0
 30 31  2  0  0  0  0
 30 60  1  0  0  0  0
 31 32  1  0  0  0  0
 31 61  1  0  0  0  0
 32 33  1  0  0  0  0
 62 63  1  0  0  0  0
M  CHG  1  62   1
M  END
$$$$
ZINC03815241
  -OEChem-08230709403D

 30 33  0     0  0  0  0  0  0999 V2000
    5.2369   -2.7064    0.2288 C   0  0  0  0  0  0  0  0  0  0  0  0
    3.9987   -2.1063    0.3499 C   0  0  0  0  0  0  0  0  0  0  0  0
    3.7989   -0.8232   -0.1432 C   0  0  0  0  0  0  0  0  0  0  0  0
    4.8444   -0.1494   -0.7618 C   0  0  0  0  0  0  0  0  0  0  0  0
    6.0819   -0.7533   -0.8756 C   0  0  0  0  0  0  0  0  0  0  0  0
    6.2772   -2.0317   -0.3826 C   0  0  0  0  0  0  0  0  0  0  0  0
    7.5080    0.1650   -1.7115 Br  0  0  0  0  0  0  0  0  0  0  0  0
    2.5469   -0.2136   -0.0224 N   0  0  0  0  0  0  0  0  0  0  0  0
    2.4583    1.1530    0.1448 C   0  0  0  0  0  0  0  0  0  0  0  0
    1.2016    1.8048    0.1523 C   0  0  0  0  0  0  0  0  0  0  0  0
    0.0019    1.1044   -0.0085 C   0  0  0  0  0  0  0  0  0  0  0  0
   -1.1763    1.7924    0.0025 C   0  0  0  0  0  0  0  0  0  0  0  0
   -1.2511    3.2010    0.1818 C   0  0  0  0  0  0  0  0  0  0  0  0
   -0.0406    3.8950    0.3425 C   0  0  0  0  0  0  0  0  0  0  0  0
    1.1712    3.2132    0.3289 C   0  0  0  0  0  0  0  0  0  0  0  0
    2.3418    3.8619    0.4809 N   0  0  0  0  0  0  0  0  0  0  0  0
    3.4748    3.2045    0.4652 C   0  0  0  0  0  0  0  0  0  0  0  0
    3.5483    1.8920    0.3039 N   0  0  0  0  0  0  0  0  0  0  0  0
   -2.5078    3.6958    0.1690 N   0  0  0  0  0  0  0  0  0  0  0  0
   -3.5565    2.9428   -0.0063 C   0  0  0  0  0  0  0  0  0  0  0  0
   -2.8880    1.3486   -0.1649 S   0  0  0  0  0  0  0  0  0  0  0  0
    5.3923   -3.7042    0.6118 H   0  0  0  0  0  0  0  0  0  0  0  0
    3.1867   -2.6340    0.8280 H   0  0  0  0  0  0  0  0  0  0  0  0
    4.6910    0.8466   -1.1502 H   0  0  0  0  0  0  0  0  0  0  0  0
    7.2443   -2.5034   -0.4760 H   0  0  0  0  0  0  0  0  0  0  0  0
    1.7403   -0.7514   -0.0562 H   0  0  0  0  0  0  0  0  0  0  0  0
    0.0082    0.0330   -0.1442 H   0  0  0  0  0  0  0  0  0  0  0  0
   -0.0512    4.9664    0.4780 H   0  0  0  0  0  0  0  0  0  0  0  0
    4.3929    3.7594    0.5902 H   0  0  0  0  0  0  0  0  0  0  0  0
   -4.5947    3.2387   -0.0365 H   0  0  0  0  0  0  0  0  0  0  0  0
  1  6  2  0  0  0  0
  1  2  1  0  0  0  0
  1 22  1  0  0  0  0
  2  3  2  0  0  0  0
  2 23  1  0  0  0  0
  3  4  1  0  0  0  0
  3  8  1  0  0  0  0
  4  5  2  0  0  0  0
  4 24  1  0  0  0  0
  5  6  1  0  0  0  0
  5  7  1  0  0  0  0
  6 25  1  0  0  0  0
  8  9  1  0  0  0  0
  8 26  1  0  0  0  0
  9 18  2  0  0  0  0
  9 10  1  0  0  0  0
 10 15  2  0  0  0  0
 10 11  1  0  0  0  0
 11 12  2  0  0  0  0
 11 27  1  0  0  0  0
 12 21  1  0  0  0  0
 12 13  1  0  0  0  0
 13 14  2  0  0  0  0
 13 19  1  0  0  0  0
 14 15  1  0  0  0  0
 14 28  1  0  0  0  0
 15 16  1  0  0  0  0
 16 17  2  0  0  0  0
 17 18  1  0  0  0  0
 17 29  1  0  0  0  0
 19 20  2  0  0  0  0
 20 21  1  0  0  0  0
 20 30  1  0  0  0  0
M  END
$$$$
ZINC03815242
  -OEChem-08230709403D

 27 29  0     0  0  0  0  0  0999 V2000
   -2.4966    4.2017    0.4275 C   0  0  0  0  0  0  0  0  0  0  0  0
   -1.2880    3.5390    0.5183 C   0  0  0  0  0  0  0  0  0  0  0  0
   -0.1560    4.0761   -0.0810 C   0  0  0  0  0  0  0  0  0  0  0  0
   -0.2419    5.2817   -0.7658 C   0  0  0  0  0  0  0  0  0  0  0  0
   -1.4548    5.9371   -0.8576 C   0  0  0  0  0  0  0  0  0  0  0  0
   -2.5806    5.3988   -0.2591 C   0  0  0  0  0  0  0  0  0  0  0  0
   -1.5751    7.5747   -1.7955 Br  0  0  0  0  0  0  0  0  0  0  0  0
    1.0683    3.4080    0.0097 N   0  0  0  0  0  0  0  0  0  0  0  0
    1.1041    2.0282   -0.0029 C   0  0  0  0  0  0  0  0  0  0  0  0
    2.3208    1.3295    0.2095 C   0  0  0  0  0  0  0  0  0  0  0  0
    2.2851   -0.0842    0.1829 C   0  0  0  0  0  0  0  0  0  0  0  0
    3.4774   -0.7995    0.3910 C   0  0  0  0  0  0  0  0  0  0  0  0
    4.6235   -0.0899    0.6116 C   0  0  0  0  0  0  0  0  0  0  0  0
    4.5873    1.3058    0.6253 C   0  0  0  0  0  0  0  0  0  0  0  0
    3.4687    1.9673    0.4293 N   0  0  0  0  0  0  0  0  0  0  0  0
    5.7296    1.9929    0.8448 F   0  0  0  0  0  0  0  0  0  0  0  0
    1.1163   -0.7002   -0.0395 N   0  0  0  0  0  0  0  0  0  0  0  0
    0.0220   -0.0019   -0.2296 C   0  0  0  0  0  0  0  0  0  0  0  0
    0.0033    1.3215   -0.2141 N   0  0  0  0  0  0  0  0  0  0  0  0
   -3.3768    3.7844    0.8937 H   0  0  0  0  0  0  0  0  0  0  0  0
   -1.2235    2.6038    1.0546 H   0  0  0  0  0  0  0  0  0  0  0  0
    0.6374    5.7042   -1.2291 H   0  0  0  0  0  0  0  0  0  0  0  0
   -3.5267    5.9150   -0.3282 H   0  0  0  0  0  0  0  0  0  0  0  0
    1.8928    3.9139    0.0815 H   0  0  0  0  0  0  0  0  0  0  0  0
    3.4867   -1.8793    0.3777 H   0  0  0  0  0  0  0  0  0  0  0  0
    5.5569   -0.6080    0.7753 H   0  0  0  0  0  0  0  0  0  0  0  0
   -0.9035   -0.5296   -0.4066 H   0  0  0  0  0  0  0  0  0  0  0  0
  1  6  2  0  0  0  0
  1  2  1  0  0  0  0
  1 20  1  0  0  0  0
  2  3  2  0  0  0  0
  2 21  1  0  0  0  0
  3  4  1  0  0  0  0
  3  8  1  0  0  0  0
  4  5  2  0  0  0  0
  4 22  1  0  0  0  0
  5  6  1  0  0  0  0
  5  7  1  0  0  0  0
  6 23  1  0  0  0  0
  8  9  1  0  0  0  0
  8 24  1  0  0  0  0
  9 19  2  0  0  0  0
  9 10  1  0  0  0  0
 10 15  2  0  0  0  0
 10 11  1  0  0  0  0
 11 12  2  0  0  0  0
 11 17  1  0  0  0  0
 12 13  1  0  0  0  0
 12 25  1  0  0  0  0
 13 14  2  0  0  0  0
 13 26  1  0  0  0  0
 14 15  1  0  0  0  0
 14 16  1  0  0  0  0
 17 18  2  0  0  0  0
 18 19  1  0  0  0  0
 18 27  1  0  0  0  0
M  END
$$$$
ZINC03815243
  -OEChem-08230709403D

 45 47  0     0  0  0  0  0  0999 V2000
    0.8398   -8.5067    1.1044 C   0  0  0  0  0  0  0  0  0  0  0  0
   -0.3605   -6.7321    2.2324 C   0  0  0  0  0  0  0  0  0  0  0  0
    1.7226   -6.2521    1.0953 C   0  0  0  0  0  0  0  0  0  0  0  0
    1.3484   -4.7911    0.8377 C   0  0  0  0  0  0  0  0  0  0  0  0
    2.5612   -3.9694    0.8356 N   0  0  0  0  0  0  0  0  0  0  0  0
    2.4720   -2.6003    0.6204 C   0  0  0  0  0  0  0  0  0  0  0  0
    1.2299   -2.0292    0.4098 C   0  0  0  0  0  0  0  0  0  0  0  0
    1.1580   -0.6486    0.1946 C   0  0  0  0  0  0  0  0  0  0  0  0
    2.3673    0.0969    0.2036 C   0  0  0  0  0  0  0  0  0  0  0  0
    3.5750   -0.5685    0.4254 C   0  0  0  0  0  0  0  0  0  0  0  0
    2.2915    1.4922   -0.0143 C   0  0  0  0  0  0  0  0  0  0  0  0
    1.0937    2.0291   -0.2162 N   0  0  0  0  0  0  0  0  0  0  0  0
   -0.0056    1.2930   -0.2154 C   0  0  0  0  0  0  0  0  0  0  0  0
    0.0030   -0.0056   -0.0184 N   0  0  0  0  0  0  0  0  0  0  0  0
    3.4280    2.2722   -0.0180 N   0  0  0  0  0  0  0  0  0  0  0  0
    3.3212    3.6627   -0.1146 C   0  0  0  0  0  0  0  0  0  0  0  0
    2.2594    4.3230    0.4911 C   0  0  0  0  0  0  0  0  0  0  0  0
    2.1566    5.6966    0.3945 C   0  0  0  0  0  0  0  0  0  0  0  0
    3.1093    6.4157   -0.3040 C   0  0  0  0  0  0  0  0  0  0  0  0
    4.1680    5.7616   -0.9086 C   0  0  0  0  0  0  0  0  0  0  0  0
    4.2791    4.3874   -0.8114 C   0  0  0  0  0  0  0  0  0  0  0  0
    5.4681    6.7494   -1.8625 Br  0  0  0  0  0  0  0  0  0  0  0  0
    1.4215   -8.7399    1.9962 H   0  0  0  0  0  0  0  0  0  0  0  0
   -0.0786   -9.0938    1.1058 H   0  0  0  0  0  0  0  0  0  0  0  0
    1.4239   -8.7480    0.2162 H   0  0  0  0  0  0  0  0  0  0  0  0
   -0.6491   -5.6832    2.1643 H   0  0  0  0  0  0  0  0  0  0  0  0
   -1.2534   -7.3568    2.2099 H   0  0  0  0  0  0  0  0  0  0  0  0
    0.1777   -6.9010    3.1650 H   0  0  0  0  0  0  0  0  0  0  0  0
    2.3949   -6.5988    0.3105 H   0  0  0  0  0  0  0  0  0  0  0  0
    2.2193   -6.3349    2.0620 H   0  0  0  0  0  0  0  0  0  0  0  0
    0.6760   -4.4445    1.6225 H   0  0  0  0  0  0  0  0  0  0  0  0
    0.8517   -4.7083   -0.1290 H   0  0  0  0  0  0  0  0  0  0  0  0
    3.4266   -4.3816    0.9845 H   0  0  0  0  0  0  0  0  0  0  0  0
    0.3360   -2.6352    0.4111 H   0  0  0  0  0  0  0  0  0  0  0  0
    4.5024   -0.0151    0.4350 H   0  0  0  0  0  0  0  0  0  0  0  0
   -0.9530    1.7815   -0.3890 H   0  0  0  0  0  0  0  0  0  0  0  0
    4.3019    1.8563    0.0464 H   0  0  0  0  0  0  0  0  0  0  0  0
    1.5149    3.7624    1.0368 H   0  0  0  0  0  0  0  0  0  0  0  0
    1.3313    6.2102    0.8653 H   0  0  0  0  0  0  0  0  0  0  0  0
    3.0268    7.4900   -0.3774 H   0  0  0  0  0  0  0  0  0  0  0  0
    5.1079    3.8775   -1.2799 H   0  0  0  0  0  0  0  0  0  0  0  0
    0.4919   -7.0705    1.0733 N   0  3  0  0  0  0  0  0  0  0  0  0
   -0.0257   -6.8714    0.2092 H   0  0  0  0  0  0  0  0  0  0  0  0
    3.6583   -1.9074    0.6355 N   0  3  0  0  0  0  0  0  0  0  0  0
    4.5576   -2.3758    0.7966 H   0  0  0  0  0  0  0  0  0  0  0  0
  1 23  1  0  0  0  0
  1 24  1  0  0  0  0
  1 25  1  0  0  0  0
  1 42  1  0  0  0  0
  2 26  1  0  0  0  0
  2 27  1  0  0  0  0
  2 28  1  0  0  0  0
  2 42  1  0  0  0  0
  3  4  1  0  0  0  0
  3 29  1  0  0  0  0
  3 30  1  0  0  0  0
  3 42  1  0  0  0  0
  4  5  1  0  0  0  0
  4 31  1  0  0  0  0
  4 32  1  0  0  0  0
  5  6  1  0  0  0  0
  5 33  1  0  0  0  0
  6  7  2  0  0  0  0
  6 44  1  0  0  0  0
  7  8  1  0  0  0  0
  7 34  1  0  0  0  0
  8 14  2  0  0  0  0
  8  9  1  0  0  0  0
  9 10  1  0  0  0  0
  9 11  2  0  0  0  0
 10 35  1  0  0  0  0
 10 44  2  0  0  0  0
 11 12  1  0  0  0  0
 11 15  1  0  0  0  0
 12 13  2  0  0  0  0
 13 14  1  0  0  0  0
 13 36  1  0  0  0  0
 15 16  1  0  0  0  0
 15 37  1  0  0  0  0
 16 21  2  0  0  0  0
 16 17  1  0  0  0  0
 17 18  2  0  0  0  0
 17 38  1  0  0  0  0
 18 19  1  0  0  0  0
 18 39  1  0  0  0  0
 19 20  2  0  0  0  0
 19 40  1  0  0  0  0
 20 21  1  0  0  0  0
 20 22  1  0  0  0  0
 21 41  1  0  0  0  0
 42 43  1  0  0  0  0
 44 45  1  0  0  0  0
M  CHG  2  42   1  44   1
M  END
$$$$
ZINC03815244
  -OEChem-08230709403D

 36 39  0     0  0  0  0  0  0999 V2000
    3.5643   -0.8448    0.3440 C   0  0  0  0  0  0  0  0  0  0  0  0
    2.3659   -0.1687    0.4645 C   0  0  0  0  0  0  0  0  0  0  0  0
    1.2163   -0.6859   -0.1187 C   0  0  0  0  0  0  0  0  0  0  0  0
    1.2746   -1.8851   -0.8174 C   0  0  0  0  0  0  0  0  0  0  0  0
    2.4774   -2.5543   -0.9385 C   0  0  0  0  0  0  0  0  0  0  0  0
    3.6208   -2.0357   -0.3560 C   0  0  0  0  0  0  0  0  0  0  0  0
    2.5598   -4.1838   -1.8943 Br  0  0  0  0  0  0  0  0  0  0  0  0
    0.0021   -0.0041    0.0020 N   0  0  0  0  0  0  0  0  0  0  0  0
   -0.0166    1.3800    0.0108 C   0  0  0  0  0  0  0  0  0  0  0  0
   -1.2084    2.0812    0.2525 C   0  0  0  0  0  0  0  0  0  0  0  0
   -2.5872    1.7147    0.5437 C   0  0  0  0  0  0  0  0  0  0  0  0
   -3.2810    2.8603    0.6893 C   0  0  0  0  0  0  0  0  0  0  0  0
   -2.4420    3.9278    0.5170 N   0  0  0  0  0  0  0  0  0  0  0  0
   -2.7084    4.8589    0.5729 H   0  0  0  0  0  0  0  0  0  0  0  0
   -1.1720    3.4895    0.2547 C   0  0  0  0  0  0  0  0  0  0  0  0
   -0.0107    4.0969    0.0175 N   0  0  0  0  0  0  0  0  0  0  0  0
    1.0803    3.3980   -0.2087 C   0  0  0  0  0  0  0  0  0  0  0  0
    1.0927    2.0772   -0.2150 N   0  0  0  0  0  0  0  0  0  0  0  0
   -4.7601    2.9114    0.9951 C   0  0  0  0  0  0  0  0  0  0  0  0
   -5.3688    1.5385    0.6890 C   0  0  0  0  0  0  0  0  0  0  0  0
   -4.5366    0.4472    1.3684 C   0  0  0  0  0  0  0  0  0  0  0  0
   -3.1782    0.3339    0.6654 C   0  0  0  0  0  0  0  0  0  0  0  0
    4.4583   -0.4429    0.7974 H   0  0  0  0  0  0  0  0  0  0  0  0
    2.3228    0.7616    1.0115 H   0  0  0  0  0  0  0  0  0  0  0  0
    0.3817   -2.2920   -1.2686 H   0  0  0  0  0  0  0  0  0  0  0  0
    4.5590   -2.5627   -0.4481 H   0  0  0  0  0  0  0  0  0  0  0  0
   -0.8275   -0.5008    0.0797 H   0  0  0  0  0  0  0  0  0  0  0  0
    2.0038    3.9256   -0.3965 H   0  0  0  0  0  0  0  0  0  0  0  0
   -4.9081    3.1509    2.0481 H   0  0  0  0  0  0  0  0  0  0  0  0
   -5.2364    3.6698    0.3738 H   0  0  0  0  0  0  0  0  0  0  0  0
   -5.3722    1.3748   -0.3886 H   0  0  0  0  0  0  0  0  0  0  0  0
   -6.3913    1.5026    1.0650 H   0  0  0  0  0  0  0  0  0  0  0  0
   -5.0617   -0.5056    1.3011 H   0  0  0  0  0  0  0  0  0  0  0  0
   -4.3836    0.7051    2.4163 H   0  0  0  0  0  0  0  0  0  0  0  0
   -3.3142   -0.0952   -0.3273 H   0  0  0  0  0  0  0  0  0  0  0  0
   -2.5132   -0.2987    1.2533 H   0  0  0  0  0  0  0  0  0  0  0  0
  1  6  2  0  0  0  0
  1  2  1  0  0  0  0
  1 23  1  0  0  0  0
  2  3  2  0  0  0  0
  2 24  1  0  0  0  0
  3  4  1  0  0  0  0
  3  8  1  0  0  0  0
  4  5  2  0  0  0  0
  4 25  1  0  0  0  0
  5  6  1  0  0  0  0
  5  7  1  0  0  0  0
  6 26  1  0  0  0  0
  8  9  1  0  0  0  0
  8 27  1  0  0  0  0
  9 18  2  0  0  0  0
  9 10  1  0  0  0  0
 10 15  2  0  0  0  0
 10 11  1  0  0  0  0
 11 22  1  0  0  0  0
 11 12  2  0  0  0  0
 12 13  1  0  0  0  0
 12 19  1  0  0  0  0
 13 14  1  0  0  0  0
 13 15  1  0  0  0  0
 15 16  1  0  0  0  0
 16 17  2  0  0  0  0
 17 18  1  0  0  0  0
 17 28  1  0  0  0  0
 19 20  1  0  0  0  0
 19 29  1  0  0  0  0
 19 30  1  0  0  0  0
 20 21  1  0  0  0  0
 20 31  1  0  0  0  0
 20 32  1  0  0  0  0
 21 22  1  0  0  0  0
 21 33  1  0  0  0  0
 21 34  1  0  0  0  0
 22 35  1  0  0  0  0
 22 36  1  0  0  0  0
M  END
$$$$
ZINC03815245
  -OEChem-08230709403D

 36 39  0     0  0  0  0  0  0999 V2000
   -0.9754    1.7510   -0.6883 C   0  0  0  0  0  0  0  0  0  0  0  0
   -0.0161    1.0757    0.0444 C   0  0  0  0  0  0  0  0  0  0  0  0
    0.9221    1.7801    0.7762 C   0  0  0  0  0  0  0  0  0  0  0  0
    0.9112    3.1613    0.7685 C   0  0  0  0  0  0  0  0  0  0  0  0
   -0.0510    3.8425    0.0341 C   0  0  0  0  0  0  0  0  0  0  0  0
   -0.9958    3.1316   -0.6954 C   0  0  0  0  0  0  0  0  0  0  0  0
   -0.0691    5.2400    0.0295 N   0  0  0  0  0  0  0  0  0  0  0  0
    1.1191    5.9493    0.1257 C   0  0  0  0  0  0  0  0  0  0  0  0
    1.1154    7.3337    0.2378 C   0  0  0  0  0  0  0  0  0  0  0  0
    2.3140    8.0505    0.3355 C   0  0  0  0  0  0  0  0  0  0  0  0
    2.1832    9.5164    0.4500 C   0  0  0  0  0  0  0  0  0  0  0  0
    3.2259   10.4635    0.5603 C   0  0  0  0  0  0  0  0  0  0  0  0
    2.9442   11.8074    0.6600 C   0  0  0  0  0  0  0  0  0  0  0  0
    1.6298   12.2689    0.6540 C   0  0  0  0  0  0  0  0  0  0  0  0
    0.5940   11.3634    0.5468 C   0  0  0  0  0  0  0  0  0  0  0  0
    0.8703   10.0143    0.4470 C   0  0  0  0  0  0  0  0  0  0  0  0
   -0.1516    8.5705    0.2962 S   0  0  0  0  0  0  0  0  0  0  0  0
    3.9957   12.7252    0.7687 N   0  0  0  0  0  0  0  0  0  0  0  0
    3.4491    7.3160    0.3130 N   0  0  0  0  0  0  0  0  0  0  0  0
    3.4150    6.0118    0.2058 C   0  0  0  0  0  0  0  0  0  0  0  0
    2.2934    5.3198    0.1186 N   0  0  0  0  0  0  0  0  0  0  0  0
    1.9615    1.0401    1.5780 C   0  0  0  0  0  0  0  0  0  0  0  0
    1.7746   -0.3379    1.4250 F   0  0  0  0  0  0  0  0  0  0  0  0
    3.2375    1.3908    1.1241 F   0  0  0  0  0  0  0  0  0  0  0  0
    1.8374    1.3803    2.9293 F   0  0  0  0  0  0  0  0  0  0  0  0
   -1.7095    1.1977   -1.2552 H   0  0  0  0  0  0  0  0  0  0  0  0
   -0.0026   -0.0042    0.0486 H   0  0  0  0  0  0  0  0  0  0  0  0
    1.6468    3.7109    1.3370 H   0  0  0  0  0  0  0  0  0  0  0  0
   -1.7455    3.6582   -1.2672 H   0  0  0  0  0  0  0  0  0  0  0  0
   -0.9125    5.7139   -0.0411 H   0  0  0  0  0  0  0  0  0  0  0  0
    4.2531   10.1301    0.5672 H   0  0  0  0  0  0  0  0  0  0  0  0
    1.4232   13.3261    0.7322 H   0  0  0  0  0  0  0  0  0  0  0  0
   -0.4292   11.7088    0.5414 H   0  0  0  0  0  0  0  0  0  0  0  0
    3.8062   13.6738    0.8391 H   0  0  0  0  0  0  0  0  0  0  0  0
    4.9139   12.4124    0.7737 H   0  0  0  0  0  0  0  0  0  0  0  0
    4.3514    5.4738    0.1931 H   0  0  0  0  0  0  0  0  0  0  0  0
  1  6  2  0  0  0  0
  1  2  1  0  0  0  0
  1 26  1  0  0  0  0
  2  3  2  0  0  0  0
  2 27  1  0  0  0  0
  3  4  1  0  0  0  0
  3 22  1  0  0  0  0
  4  5  2  0  0  0  0
  4 28  1  0  0  0  0
  5  6  1  0  0  0  0
  5  7  1  0  0  0  0
  6 29  1  0  0  0  0
  7  8  1  0  0  0  0
  7 30  1  0  0  0  0
  8 21  2  0  0  0  0
  8  9  1  0  0  0  0
  9 17  1  0  0  0  0
  9 10  2  0  0  0  0
 10 11  1  0  0  0  0
 10 19  1  0  0  0  0
 11 16  2  0  0  0  0
 11 12  1  0  0  0  0
 12 13  2  0  0  0  0
 12 31  1  0  0  0  0
 13 14  1  0  0  0  0
 13 18  1  0  0  0  0
 14 15  2  0  0  0  0
 14 32  1  0  0  0  0
 15 16  1  0  0  0  0
 15 33  1  0  0  0  0
 16 17  1  0  0  0  0
 18 34  1  0  0  0  0
 18 35  1  0  0  0  0
 19 20  2  0  0  0  0
 20 21  1  0  0  0  0
 20 36  1  0  0  0  0
 22 23  1  0  0  0  0
 22 24  1  0  0  0  0
 22 25  1  0  0  0  0
M  END
$$$$
ZINC03815246
  -OEChem-08230709403D

 33 36  0     0  0  0  0  0  0999 V2000
   -0.1959    1.2428   -0.0986 C   0  0  0  0  0  0  0  0  0  0  0  0
    0.9776    1.9330   -0.3319 C   0  0  0  0  0  0  0  0  0  0  0  0
    1.1690    3.1867    0.2347 C   0  0  0  0  0  0  0  0  0  0  0  0
    0.1787    3.7427    1.0347 C   0  0  0  0  0  0  0  0  0  0  0  0
   -0.9929    3.0473    1.2642 C   0  0  0  0  0  0  0  0  0  0  0  0
   -1.1823    1.8007    0.6933 C   0  0  0  0  0  0  0  0  0  0  0  0
   -2.3421    3.8025    2.3530 Br  0  0  0  0  0  0  0  0  0  0  0  0
    2.3552    3.8876   -0.0000 N   0  0  0  0  0  0  0  0  0  0  0  0
    2.3357    5.2711   -0.0971 C   0  0  0  0  0  0  0  0  0  0  0  0
    3.5161    5.9941   -0.2105 C   0  0  0  0  0  0  0  0  0  0  0  0
    3.4978    7.3904   -0.3090 C   0  0  0  0  0  0  0  0  0  0  0  0
    4.8143    8.0478   -0.4249 C   0  0  0  0  0  0  0  0  0  0  0  0
    5.0756    9.4315   -0.5376 C   0  0  0  0  0  0  0  0  0  0  0  0
    6.3621    9.8939   -0.6384 C   0  0  0  0  0  0  0  0  0  0  0  0
    7.4424    9.0230   -0.6334 C   0  0  0  0  0  0  0  0  0  0  0  0
    7.2196    7.6650   -0.5240 C   0  0  0  0  0  0  0  0  0  0  0  0
    5.9270    7.1905   -0.4221 C   0  0  0  0  0  0  0  0  0  0  0  0
    5.2337    5.5636   -0.2698 S   0  0  0  0  0  0  0  0  0  0  0  0
    8.8228    9.5460   -0.7435 N   0  3  0  0  0  0  0  0  0  0  0  0
    9.0138   10.7451   -0.8389 O   0  0  0  0  0  0  0  0  0  0  0  0
    9.7675    8.7773   -0.7386 O   0  5  0  0  0  0  0  0  0  0  0  0
    2.2770    7.9714   -0.2869 N   0  0  0  0  0  0  0  0  0  0  0  0
    1.1844    7.2583   -0.1792 C   0  0  0  0  0  0  0  0  0  0  0  0
    1.1837    5.9407   -0.0896 N   0  0  0  0  0  0  0  0  0  0  0  0
   -0.3449    0.2680   -0.5390 H   0  0  0  0  0  0  0  0  0  0  0  0
    1.7459    1.4981   -0.9540 H   0  0  0  0  0  0  0  0  0  0  0  0
    0.3243    4.7175    1.4764 H   0  0  0  0  0  0  0  0  0  0  0  0
   -2.1009    1.2610    0.8702 H   0  0  0  0  0  0  0  0  0  0  0  0
    3.1921    3.4065   -0.0950 H   0  0  0  0  0  0  0  0  0  0  0  0
    4.2536   10.1321   -0.5441 H   0  0  0  0  0  0  0  0  0  0  0  0
    6.5382   10.9560   -0.7236 H   0  0  0  0  0  0  0  0  0  0  0  0
    8.0522    6.9771   -0.5183 H   0  0  0  0  0  0  0  0  0  0  0  0
    0.2353    7.7734   -0.1668 H   0  0  0  0  0  0  0  0  0  0  0  0
  1  6  2  0  0  0  0
  1  2  1  0  0  0  0
  1 25  1  0  0  0  0
  2  3  2  0  0  0  0
  2 26  1  0  0  0  0
  3  4  1  0  0  0  0
  3  8  1  0  0  0  0
  4  5  2  0  0  0  0
  4 27  1  0  0  0  0
  5  6  1  0  0  0  0
  5  7  1  0  0  0  0
  6 28  1  0  0  0  0
  8  9  1  0  0  0  0
  8 29  1  0  0  0  0
  9 24  2  0  0  0  0
  9 10  1  0  0  0  0
 10 18  1  0  0  0  0
 10 11  2  0  0  0  0
 11 12  1  0  0  0  0
 11 22  1  0  0  0  0
 12 17  2  0  0  0  0
 12 13  1  0  0  0  0
 13 14  2  0  0  0  0
 13 30  1  0  0  0  0
 14 15  1  0  0  0  0
 14 31  1  0  0  0  0
 15 16  2  0  0  0  0
 15 19  1  0  0  0  0
 16 17  1  0  0  0  0
 16 32  1  0  0  0  0
 17 18  1  0  0  0  0
 19 20  2  0  0  0  0
 19 21  1  0  0  0  0
 22 23  2  0  0  0  0
 23 24  1  0  0  0  0
 23 33  1  0  0  0  0
M  CHG  2  19   1  21  -1
M  END
$$$$
ZINC03815247
  -OEChem-08230709403D

 27 29  0     0  0  0  0  0  0999 V2000
   -1.2726   -2.0540    0.2353 C   0  0  0  0  0  0  0  0  0  0  0  0
   -1.1335   -0.6986    0.4621 C   0  0  0  0  0  0  0  0  0  0  0  0
   -0.1596    0.0218   -0.2175 C   0  0  0  0  0  0  0  0  0  0  0  0
    0.6684   -0.6228   -1.1277 C   0  0  0  0  0  0  0  0  0  0  0  0
    0.5274   -1.9798   -1.3467 C   0  0  0  0  0  0  0  0  0  0  0  0
   -0.4442   -2.6942   -0.6675 C   0  0  0  0  0  0  0  0  0  0  0  0
    1.6581   -2.8602   -2.5805 Br  0  0  0  0  0  0  0  0  0  0  0  0
   -0.0169    1.3935    0.0097 N   0  0  0  0  0  0  0  0  0  0  0  0
    1.2321    1.9757   -0.0473 C   0  0  0  0  0  0  0  0  0  0  0  0
    1.3883    3.3785    0.0582 C   0  0  0  0  0  0  0  0  0  0  0  0
    0.3108    4.2566    0.2235 C   0  0  0  0  0  0  0  0  0  0  0  0
    0.5677    5.5948    0.3145 C   0  0  0  0  0  0  0  0  0  0  0  0
    1.8004    6.0740    0.2501 N   0  0  0  0  0  0  0  0  0  0  0  0
    2.8552    5.3067    0.0961 C   0  0  0  0  0  0  0  0  0  0  0  0
    2.6975    3.9170   -0.0072 C   0  0  0  0  0  0  0  0  0  0  0  0
    3.7304    3.0795   -0.1656 N   0  0  0  0  0  0  0  0  0  0  0  0
    3.5272    1.7862   -0.2579 C   0  0  0  0  0  0  0  0  0  0  0  0
    2.3242    1.2373   -0.1972 N   0  0  0  0  0  0  0  0  0  0  0  0
   -2.0298   -2.6143    0.7636 H   0  0  0  0  0  0  0  0  0  0  0  0
   -1.7812   -0.1994    1.1676 H   0  0  0  0  0  0  0  0  0  0  0  0
    1.4239   -0.0648   -1.6608 H   0  0  0  0  0  0  0  0  0  0  0  0
   -0.5556   -3.7539   -0.8435 H   0  0  0  0  0  0  0  0  0  0  0  0
   -0.7968    1.9368    0.2035 H   0  0  0  0  0  0  0  0  0  0  0  0
   -0.7014    3.8841    0.2774 H   0  0  0  0  0  0  0  0  0  0  0  0
   -0.2567    6.2807    0.4421 H   0  0  0  0  0  0  0  0  0  0  0  0
    3.8413    5.7447    0.0496 H   0  0  0  0  0  0  0  0  0  0  0  0
    4.3823    1.1389   -0.3851 H   0  0  0  0  0  0  0  0  0  0  0  0
  1  6  2  0  0  0  0
  1  2  1  0  0  0  0
  1 19  1  0  0  0  0
  2  3  2  0  0  0  0
  2 20  1  0  0  0  0
  3  4  1  0  0  0  0
  3  8  1  0  0  0  0
  4  5  2  0  0  0  0
  4 21  1  0  0  0  0
  5  6  1  0  0  0  0
  5  7  1  0  0  0  0
  6 22  1  0  0  0  0
  8  9  1  0  0  0  0
  8 23  1  0  0  0  0
  9 18  2  0  0  0  0
  9 10  1  0  0  0  0
 10 15  2  0  0  0  0
 10 11  1  0  0  0  0
 11 12  2  0  0  0  0
 11 24  1  0  0  0  0
 12 13  1  0  0  0  0
 12 25  1  0  0  0  0
 13 14  2  0  0  0  0
 14 15  1  0  0  0  0
 14 26  1  0  0  0  0
 15 16  1  0  0  0  0
 16 17  2  0  0  0  0
 17 18  1  0  0  0  0
 17 27  1  0  0  0  0
M  END
$$$$
ZINC03815248
  -OEChem-08230709403D

 32 34  0     0  0  0  0  0  0999 V2000
   -0.9826    6.2998    0.0326 C   0  0  0  0  0  0  0  0  0  0  0  0
    0.2324    5.4968    0.1920 N   0  0  0  0  0  0  0  0  0  0  0  0
    0.1548    4.1143    0.1823 C   0  0  0  0  0  0  0  0  0  0  0  0
   -1.0939    3.5009    0.0194 C   0  0  0  0  0  0  0  0  0  0  0  0
   -1.1837    2.1389    0.0022 C   0  0  0  0  0  0  0  0  0  0  0  0
   -0.0034    1.3955    0.1623 C   0  0  0  0  0  0  0  0  0  0  0  0
    1.2299    2.0732    0.3237 C   0  0  0  0  0  0  0  0  0  0  0  0
    1.2596    3.4061    0.3272 N   0  0  0  0  0  0  0  0  0  0  0  0
    2.3453    1.3432    0.4701 N   0  0  0  0  0  0  0  0  0  0  0  0
    2.2907    0.0314    0.4624 C   0  0  0  0  0  0  0  0  0  0  0  0
    1.1626   -0.6417    0.3147 N   0  0  0  0  0  0  0  0  0  0  0  0
    0.0000   -0.0172    0.1627 C   0  0  0  0  0  0  0  0  0  0  0  0
   -1.1716   -0.7287    0.0088 N   0  0  0  0  0  0  0  0  0  0  0  0
   -1.1339   -2.1214   -0.1045 C   0  0  0  0  0  0  0  0  0  0  0  0
   -2.1749   -2.8895    0.4020 C   0  0  0  0  0  0  0  0  0  0  0  0
   -2.1352   -4.2651    0.2883 C   0  0  0  0  0  0  0  0  0  0  0  0
   -1.0607   -4.8789   -0.3292 C   0  0  0  0  0  0  0  0  0  0  0  0
   -0.0222   -4.1173   -0.8349 C   0  0  0  0  0  0  0  0  0  0  0  0
   -0.0585   -2.7397   -0.7288 C   0  0  0  0  0  0  0  0  0  0  0  0
    1.4445   -4.9615   -1.6788 Br  0  0  0  0  0  0  0  0  0  0  0  0
   -1.6787    6.0694    0.8391 H   0  0  0  0  0  0  0  0  0  0  0  0
   -0.7254    7.3585    0.0659 H   0  0  0  0  0  0  0  0  0  0  0  0
   -1.4476    6.0688   -0.9258 H   0  0  0  0  0  0  0  0  0  0  0  0
    1.0911    5.9337    0.3043 H   0  0  0  0  0  0  0  0  0  0  0  0
   -1.9824    4.1038   -0.0971 H   0  0  0  0  0  0  0  0  0  0  0  0
   -2.1364    1.6469   -0.1271 H   0  0  0  0  0  0  0  0  0  0  0  0
    3.2096   -0.5232    0.5826 H   0  0  0  0  0  0  0  0  0  0  0  0
   -2.0218   -0.2625   -0.0207 H   0  0  0  0  0  0  0  0  0  0  0  0
   -3.0143   -2.4111    0.8847 H   0  0  0  0  0  0  0  0  0  0  0  0
   -2.9445   -4.8624    0.6816 H   0  0  0  0  0  0  0  0  0  0  0  0
   -1.0324   -5.9549   -0.4171 H   0  0  0  0  0  0  0  0  0  0  0  0
    0.7503   -2.1452   -1.1272 H   0  0  0  0  0  0  0  0  0  0  0  0
  1  2  1  0  0  0  0
  1 21  1  0  0  0  0
  1 22  1  0  0  0  0
  1 23  1  0  0  0  0
  2  3  1  0  0  0  0
  2 24  1  0  0  0  0
  3  8  2  0  0  0  0
  3  4  1  0  0  0  0
  4  5  2  0  0  0  0
  4 25  1  0  0  0  0
  5  6  1  0  0  0  0
  5 26  1  0  0  0  0
  6 12  2  0  0  0  0
  6  7  1  0  0  0  0
  7  8  1  0  0  0  0
  7  9  2  0  0  0  0
  9 10  1  0  0  0  0
 10 11  2  0  0  0  0
 10 27  1  0  0  0  0
 11 12  1  0  0  0  0
 12 13  1  0  0  0  0
 13 14  1  0  0  0  0
 13 28  1  0  0  0  0
 14 19  2  0  0  0  0
 14 15  1  0  0  0  0
 15 16  2  0  0  0  0
 15 29  1  0  0  0  0
 16 17  1  0  0  0  0
 16 30  1  0  0  0  0
 17 18  2  0  0  0  0
 17 31  1  0  0  0  0
 18 19  1  0  0  0  0
 18 20  1  0  0  0  0
 19 32  1  0  0  0  0
M  END
$$$$
ZINC03815249
  -OEChem-08230709403D

 36 39  0     0  0  0  0  0  0999 V2000
    4.8791    1.0198   -0.4205 C   0  0  0  0  0  0  0  0  0  0  0  0
    3.7001    1.7338   -0.5109 C   0  0  0  0  0  0  0  0  0  0  0  0
    3.5982    2.9827    0.0883 C   0  0  0  0  0  0  0  0  0  0  0  0
    4.6851    3.5125    0.7721 C   0  0  0  0  0  0  0  0  0  0  0  0
    5.8601    2.7913    0.8630 C   0  0  0  0  0  0  0  0  0  0  0  0
    5.9577    1.5469    0.2651 C   0  0  0  0  0  0  0  0  0  0  0  0
    7.3386    3.5081    1.7991 Br  0  0  0  0  0  0  0  0  0  0  0  0
    2.4064    3.7075   -0.0015 N   0  0  0  0  0  0  0  0  0  0  0  0
    1.1958    3.0481    0.0150 C   0  0  0  0  0  0  0  0  0  0  0  0
   -0.0194    3.7504   -0.1963 C   0  0  0  0  0  0  0  0  0  0  0  0
   -0.0398    5.1230   -0.4272 C   0  0  0  0  0  0  0  0  0  0  0  0
   -1.2577    5.7631   -0.6289 C   0  0  0  0  0  0  0  0  0  0  0  0
   -1.6320    7.1528   -0.8902 C   0  0  0  0  0  0  0  0  0  0  0  0
   -2.9271    7.2026   -0.9992 N   0  0  0  0  0  0  0  0  0  0  0  0
   -3.4782    5.9290   -0.8292 N   0  0  0  0  0  0  0  0  0  0  0  0
   -2.4672    5.0277   -0.6000 C   0  0  0  0  0  0  0  0  0  0  0  0
   -2.4495    3.6631   -0.3703 C   0  0  0  0  0  0  0  0  0  0  0  0
   -1.2330    3.0119   -0.1673 C   0  0  0  0  0  0  0  0  0  0  0  0
   -1.1736    1.6865    0.0529 N   0  0  0  0  0  0  0  0  0  0  0  0
   -0.0204    1.0947    0.2464 C   0  0  0  0  0  0  0  0  0  0  0  0
    1.1355    1.7411    0.2283 N   0  0  0  0  0  0  0  0  0  0  0  0
   -4.9062    5.6070   -0.8865 C   0  0  0  0  0  0  0  0  0  0  0  0
   -5.2874    5.2638   -2.3035 C   0  0  0  0  0  0  0  0  0  0  0  0
   -4.4519    5.2858   -3.1760 O   0  0  0  0  0  0  0  0  0  0  0  0
    4.9585    0.0487   -0.8863 H   0  0  0  0  0  0  0  0  0  0  0  0
    2.8580    1.3211   -1.0466 H   0  0  0  0  0  0  0  0  0  0  0  0
    4.6107    4.4855    1.2350 H   0  0  0  0  0  0  0  0  0  0  0  0
    6.8784    0.9867    0.3339 H   0  0  0  0  0  0  0  0  0  0  0  0
    2.4310    4.6743   -0.0754 H   0  0  0  0  0  0  0  0  0  0  0  0
    0.8819    5.6856   -0.4499 H   0  0  0  0  0  0  0  0  0  0  0  0
   -0.9537    7.9887   -0.9771 H   0  0  0  0  0  0  0  0  0  0  0  0
   -3.3737    3.1047   -0.3492 H   0  0  0  0  0  0  0  0  0  0  0  0
   -0.0118    0.0296    0.4247 H   0  0  0  0  0  0  0  0  0  0  0  0
   -5.1129    4.7555   -0.2382 H   0  0  0  0  0  0  0  0  0  0  0  0
   -5.4863    6.4673   -0.5524 H   0  0  0  0  0  0  0  0  0  0  0  0
   -6.5550    4.9335   -2.5962 O   0  5  0  0  0  0  0  0  0  0  0  0
  1  6  2  0  0  0  0
  1  2  1  0  0  0  0
  1 25  1  0  0  0  0
  2  3  2  0  0  0  0
  2 26  1  0  0  0  0
  3  4  1  0  0  0  0
  3  8  1  0  0  0  0
  4  5  2  0  0  0  0
  4 27  1  0  0  0  0
  5  6  1  0  0  0  0
  5  7  1  0  0  0  0
  6 28  1  0  0  0  0
  8  9  1  0  0  0  0
  8 29  1  0  0  0  0
  9 21  2  0  0  0  0
  9 10  1  0  0  0  0
 10 18  2  0  0  0  0
 10 11  1  0  0  0  0
 11 12  2  0  0  0  0
 11 30  1  0  0  0  0
 12 16  1  0  0  0  0
 12 13  1  0  0  0  0
 13 14  2  0  0  0  0
 13 31  1  0  0  0  0
 14 15  1  0  0  0  0
 15 16  1  0  0  0  0
 15 22  1  0  0  0  0
 16 17  2  0  0  0  0
 17 18  1  0  0  0  0
 17 32  1  0  0  0  0
 18 19  1  0  0  0  0
 19 20  2  0  0  0  0
 20 21  1  0  0  0  0
 20 33  1  0  0  0  0
 22 23  1  0  0  0  0
 22 34  1  0  0  0  0
 22 35  1  0  0  0  0
 23 24  2  0  0  0  0
 23 36  1  0  0  0  0
M  CHG  1  36  -1
M  END
$$$$
ZINC03815250
  -OEChem-08230709403D

 32 34  0     0  0  0  0  0  0999 V2000
    1.4833   -4.5170    0.0948 C   0  0  0  0  0  0  0  0  0  0  0  0
    1.7800   -3.1802   -0.0864 C   0  0  0  0  0  0  0  0  0  0  0  0
    3.0755   -2.7235    0.1193 C   0  0  0  0  0  0  0  0  0  0  0  0
    4.0705   -3.6143    0.5016 C   0  0  0  0  0  0  0  0  0  0  0  0
    3.7663   -4.9495    0.6858 C   0  0  0  0  0  0  0  0  0  0  0  0
    2.4741   -5.4007    0.4804 C   0  0  0  0  0  0  0  0  0  0  0  0
    5.1180   -6.1624    1.2126 Br  0  0  0  0  0  0  0  0  0  0  0  0
    3.3787   -1.3712   -0.0638 N   0  0  0  0  0  0  0  0  0  0  0  0
    2.4392   -0.4066    0.2375 C   0  0  0  0  0  0  0  0  0  0  0  0
    2.6823    0.9579   -0.0469 C   0  0  0  0  0  0  0  0  0  0  0  0
    3.8741    1.3902   -0.6419 C   0  0  0  0  0  0  0  0  0  0  0  0
    4.0607    2.7145   -0.8962 C   0  0  0  0  0  0  0  0  0  0  0  0
    3.0748    3.6530   -0.5702 C   0  0  0  0  0  0  0  0  0  0  0  0
    1.8900    3.2557    0.0171 C   0  0  0  0  0  0  0  0  0  0  0  0
    1.6774    1.8997    0.2873 C   0  0  0  0  0  0  0  0  0  0  0  0
    0.5442    1.4594    0.8563 N   0  0  0  0  0  0  0  0  0  0  0  0
    0.3741    0.1809    1.0967 C   0  0  0  0  0  0  0  0  0  0  0  0
    1.2837   -0.7339    0.8021 N   0  0  0  0  0  0  0  0  0  0  0  0
    3.2915    5.0024   -0.8408 N   0  0  0  0  0  0  0  0  0  0  0  0
    5.3219    3.1676   -1.5247 N   0  3  0  0  0  0  0  0  0  0  0  0
    6.1413    2.3501   -1.9041 O   0  0  0  0  0  0  0  0  0  0  0  0
    5.5404    4.3579   -1.6625 O   0  5  0  0  0  0  0  0  0  0  0  0
    0.4762   -4.8725   -0.0654 H   0  0  0  0  0  0  0  0  0  0  0  0
    1.0052   -2.4906   -0.3873 H   0  0  0  0  0  0  0  0  0  0  0  0
    5.0796   -3.2630    0.6583 H   0  0  0  0  0  0  0  0  0  0  0  0
    2.2394   -6.4455    0.6213 H   0  0  0  0  0  0  0  0  0  0  0  0
    4.2496   -1.1110   -0.4025 H   0  0  0  0  0  0  0  0  0  0  0  0
    4.6425    0.6757   -0.8977 H   0  0  0  0  0  0  0  0  0  0  0  0
    1.1337    3.9856    0.2655 H   0  0  0  0  0  0  0  0  0  0  0  0
   -0.5498   -0.1393    1.5553 H   0  0  0  0  0  0  0  0  0  0  0  0
    3.8838    5.2632   -1.5633 H   0  0  0  0  0  0  0  0  0  0  0  0
    2.8500    5.6812   -0.3067 H   0  0  0  0  0  0  0  0  0  0  0  0
  1  6  2  0  0  0  0
  1  2  1  0  0  0  0
  1 23  1  0  0  0  0
  2  3  2  0  0  0  0
  2 24  1  0  0  0  0
  3  4  1  0  0  0  0
  3  8  1  0  0  0  0
  4  5  2  0  0  0  0
  4 25  1  0  0  0  0
  5  6  1  0  0  0  0
  5  7  1  0  0  0  0
  6 26  1  0  0  0  0
  8  9  1  0  0  0  0
  8 27  1  0  0  0  0
  9 18  2  0  0  0  0
  9 10  1  0  0  0  0
 10 15  2  0  0  0  0
 10 11  1  0  0  0  0
 11 12  2  0  0  0  0
 11 28  1  0  0  0  0
 12 13  1  0  0  0  0
 12 20  1  0  0  0  0
 13 14  2  0  0  0  0
 13 19  1  0  0  0  0
 14 15  1  0  0  0  0
 14 29  1  0  0  0  0
 15 16  1  0  0  0  0
 16 17  2  0  0  0  0
 17 18  1  0  0  0  0
 17 30  1  0  0  0  0
 19 31  1  0  0  0  0
 19 32  1  0  0  0  0
 20 21  2  0  0  0  0
 20 22  1  0  0  0  0
M  CHG  2  20   1  22  -1
M  END
$$$$
ZINC03815251
  -OEChem-08230709403D

 32 34  0     0  0  0  0  0  0999 V2000
   -0.1214    1.1793   -0.1107 C   0  0  0  0  0  0  0  0  0  0  0  0
   -0.7814    1.6557    1.0639 O   0  0  0  0  0  0  0  0  0  0  0  0
   -2.0167    1.1520    1.3248 C   0  0  0  0  0  0  0  0  0  0  0  0
   -2.5806    0.2169    0.4537 C   0  0  0  0  0  0  0  0  0  0  0  0
   -3.8140   -0.3092    0.6928 C   0  0  0  0  0  0  0  0  0  0  0  0
   -4.5382    0.0981    1.8216 C   0  0  0  0  0  0  0  0  0  0  0  0
   -3.9740    1.0503    2.7053 C   0  0  0  0  0  0  0  0  0  0  0  0
   -2.7031    1.5731    2.4432 C   0  0  0  0  0  0  0  0  0  0  0  0
   -4.7290    1.4423    3.8376 C   0  0  0  0  0  0  0  0  0  0  0  0
   -5.9254    0.8971    4.0123 N   0  0  0  0  0  0  0  0  0  0  0  0
   -6.4121    0.0105    3.1586 C   0  0  0  0  0  0  0  0  0  0  0  0
   -5.7583   -0.3894    2.0941 N   0  0  0  0  0  0  0  0  0  0  0  0
   -4.2329    2.3658    4.7353 N   0  0  0  0  0  0  0  0  0  0  0  0
   -5.0379    2.8261    5.7811 C   0  0  0  0  0  0  0  0  0  0  0  0
   -6.4092    2.9539    5.5997 C   0  0  0  0  0  0  0  0  0  0  0  0
   -7.2024    3.4036    6.6369 C   0  0  0  0  0  0  0  0  0  0  0  0
   -6.6316    3.7368    7.8516 C   0  0  0  0  0  0  0  0  0  0  0  0
   -5.2661    3.6166    8.0336 C   0  0  0  0  0  0  0  0  0  0  0  0
   -4.4678    3.1621    7.0024 C   0  0  0  0  0  0  0  0  0  0  0  0
    0.0113    0.0998   -0.0404 H   0  0  0  0  0  0  0  0  0  0  0  0
    0.8527    1.6601   -0.2004 H   0  0  0  0  0  0  0  0  0  0  0  0
   -0.7249    1.4149   -0.9873 H   0  0  0  0  0  0  0  0  0  0  0  0
   -2.0284   -0.0970   -0.4198 H   0  0  0  0  0  0  0  0  0  0  0  0
   -4.2347   -1.0345    0.0120 H   0  0  0  0  0  0  0  0  0  0  0  0
   -2.2643    2.2999    3.1108 H   0  0  0  0  0  0  0  0  0  0  0  0
   -7.3919   -0.4027    3.3472 H   0  0  0  0  0  0  0  0  0  0  0  0
   -3.3256    2.6954    4.6404 H   0  0  0  0  0  0  0  0  0  0  0  0
   -6.8550    2.6978    4.6499 H   0  0  0  0  0  0  0  0  0  0  0  0
   -8.2691    3.4993    6.4978 H   0  0  0  0  0  0  0  0  0  0  0  0
   -7.2537    4.0921    8.6598 H   0  0  0  0  0  0  0  0  0  0  0  0
   -4.8234    3.8780    8.9834 H   0  0  0  0  0  0  0  0  0  0  0  0
   -3.4014    3.0685    7.1452 H   0  0  0  0  0  0  0  0  0  0  0  0
  1  2  1  0  0  0  0
  1 20  1  0  0  0  0
  1 21  1  0  0  0  0
  1 22  1  0  0  0  0
  2  3  1  0  0  0  0
  3  8  2  0  0  0  0
  3  4  1  0  0  0  0
  4  5  2  0  0  0  0
  4 23  1  0  0  0  0
  5  6  1  0  0  0  0
  5 24  1  0  0  0  0
  6 12  2  0  0  0  0
  6  7  1  0  0  0  0
  7  8  1  0  0  0  0
  7  9  2  0  0  0  0
  8 25  1  0  0  0  0
  9 10  1  0  0  0  0
  9 13  1  0  0  0  0
 10 11  2  0  0  0  0
 11 12  1  0  0  0  0
 11 26  1  0  0  0  0
 13 14  1  0  0  0  0
 13 27  1  0  0  0  0
 14 19  2  0  0  0  0
 14 15  1  0  0  0  0
 15 16  2  0  0  0  0
 15 28  1  0  0  0  0
 16 17  1  0  0  0  0
 16 29  1  0  0  0  0
 17 18  2  0  0  0  0
 17 30  1  0  0  0  0
 18 19  1  0  0  0  0
 18 31  1  0  0  0  0
 19 32  1  0  0  0  0
M  END
$$$$
ZINC03815253
  -OEChem-08230709403D

 36 38  0     0  0  0  0  0  0999 V2000
    3.4473   -0.5592   -6.1732 C   0  0  0  0  0  0  0  0  0  0  0  0
    4.6695   -1.2435   -6.4563 O   0  0  0  0  0  0  0  0  0  0  0  0
    5.4070   -1.6562   -5.3910 C   0  0  0  0  0  0  0  0  0  0  0  0
    4.9617   -1.4071   -4.1239 C   0  0  0  0  0  0  0  0  0  0  0  0
    5.7205   -1.8311   -3.0264 C   0  0  0  0  0  0  0  0  0  0  0  0
    6.9436   -2.5153   -3.2351 C   0  0  0  0  0  0  0  0  0  0  0  0
    7.3807   -2.7603   -4.5425 C   0  0  0  0  0  0  0  0  0  0  0  0
    6.6158   -2.3329   -5.6052 C   0  0  0  0  0  0  0  0  0  0  0  0
    7.0376   -2.5694   -6.8747 O   0  0  0  0  0  0  0  0  0  0  0  0
    7.6513   -2.9112   -2.1655 N   0  0  0  0  0  0  0  0  0  0  0  0
    7.2157   -2.6676   -0.9525 C   0  0  0  0  0  0  0  0  0  0  0  0
    6.0829   -2.0274   -0.7095 N   0  0  0  0  0  0  0  0  0  0  0  0
    5.3044   -1.5983   -1.6939 C   0  0  0  0  0  0  0  0  0  0  0  0
    4.1233   -0.9376   -1.4260 N   0  0  0  0  0  0  0  0  0  0  0  0
    3.7112   -0.7071   -0.0392 C   0  0  0  0  0  0  0  0  0  0  0  0
    2.3960    0.0285   -0.0217 C   0  0  0  0  0  0  0  0  0  0  0  0
    1.2084   -0.6789   -0.0136 C   0  0  0  0  0  0  0  0  0  0  0  0
    0.0021   -0.0041    0.0020 C   0  0  0  0  0  0  0  0  0  0  0  0
   -0.0167    1.3781    0.0096 C   0  0  0  0  0  0  0  0  0  0  0  0
    1.1709    2.0855    0.0021 C   0  0  0  0  0  0  0  0  0  0  0  0
    2.3773    1.4107   -0.0141 C   0  0  0  0  0  0  0  0  0  0  0  0
    2.9588   -0.2860   -7.1085 H   0  0  0  0  0  0  0  0  0  0  0  0
    2.7907   -1.2115   -5.5974 H   0  0  0  0  0  0  0  0  0  0  0  0
    3.6602    0.3417   -5.5978 H   0  0  0  0  0  0  0  0  0  0  0  0
    4.0290   -0.8849   -3.9695 H   0  0  0  0  0  0  0  0  0  0  0  0
    8.3111   -3.2804   -4.7164 H   0  0  0  0  0  0  0  0  0  0  0  0
    6.7284   -3.4088   -7.2419 H   0  0  0  0  0  0  0  0  0  0  0  0
    7.8104   -2.9998   -0.1144 H   0  0  0  0  0  0  0  0  0  0  0  0
    3.5657   -0.6257   -2.1559 H   0  0  0  0  0  0  0  0  0  0  0  0
    4.4679   -0.1107    0.4703 H   0  0  0  0  0  0  0  0  0  0  0  0
    3.5990   -1.6641    0.4703 H   0  0  0  0  0  0  0  0  0  0  0  0
    1.2231   -1.7587   -0.0199 H   0  0  0  0  0  0  0  0  0  0  0  0
   -0.9258   -0.5567    0.0079 H   0  0  0  0  0  0  0  0  0  0  0  0
   -0.9592    1.9054    0.0170 H   0  0  0  0  0  0  0  0  0  0  0  0
    1.1563    3.1654    0.0077 H   0  0  0  0  0  0  0  0  0  0  0  0
    3.3051    1.9634   -0.0207 H   0  0  0  0  0  0  0  0  0  0  0  0
  1  2  1  0  0  0  0
  1 22  1  0  0  0  0
  1 23  1  0  0  0  0
  1 24  1  0  0  0  0
  2  3  1  0  0  0  0
  3  8  2  0  0  0  0
  3  4  1  0  0  0  0
  4  5  2  0  0  0  0
  4 25  1  0  0  0  0
  5 13  1  0  0  0  0
  5  6  1  0  0  0  0
  6  7  2  0  0  0  0
  6 10  1  0  0  0  0
  7  8  1  0  0  0  0
  7 26  1  0  0  0  0
  8  9  1  0  0  0  0
  9 27  1  0  0  0  0
 10 11  2  0  0  0  0
 11 12  1  0  0  0  0
 11 28  1  0  0  0  0
 12 13  2  0  0  0  0
 13 14  1  0  0  0  0
 14 15  1  0  0  0  0
 14 29  1  0  0  0  0
 15 16  1  0  0  0  0
 15 30  1  0  0  0  0
 15 31  1  0  0  0  0
 16 21  2  0  0  0  0
 16 17  1  0  0  0  0
 17 18  2  0  0  0  0
 17 32  1  0  0  0  0
 18 19  1  0  0  0  0
 18 33  1  0  0  0  0
 19 20  2  0  0  0  0
 19 34  1  0  0  0  0
 20 21  1  0  0  0  0
 20 35  1  0  0  0  0
 21 36  1  0  0  0  0
M  END
$$$$
ZINC03815255
  -OEChem-08230709403D

 33 36  0     0  0  0  0  0  0999 V2000
   -0.0096    1.0762   -0.0269 C   0  0  0  0  0  0  0  0  0  0  0  0
    0.9277    1.7696    0.7168 C   0  0  0  0  0  0  0  0  0  0  0  0
    0.9141    3.1504    0.7333 C   0  0  0  0  0  0  0  0  0  0  0  0
   -0.0492    3.8427    0.0104 C   0  0  0  0  0  0  0  0  0  0  0  0
   -0.9924    3.1429   -0.7315 C   0  0  0  0  0  0  0  0  0  0  0  0
   -0.9697    1.7622   -0.7481 C   0  0  0  0  0  0  0  0  0  0  0  0
   -0.0691    5.2400    0.0290 N   0  0  0  0  0  0  0  0  0  0  0  0
   -1.2760    5.9177   -0.0610 C   0  0  0  0  0  0  0  0  0  0  0  0
   -1.3097    7.3027   -0.1592 C   0  0  0  0  0  0  0  0  0  0  0  0
   -2.5272    7.9877   -0.2506 C   0  0  0  0  0  0  0  0  0  0  0  0
   -2.4361    9.4577   -0.3496 C   0  0  0  0  0  0  0  0  0  0  0  0
   -3.5026   10.3785   -0.4515 C   0  0  0  0  0  0  0  0  0  0  0  0
   -3.2579   11.7246   -0.5360 C   0  0  0  0  0  0  0  0  0  0  0  0
   -1.9629   12.2229   -0.5242 C   0  0  0  0  0  0  0  0  0  0  0  0
   -0.8994   11.3483   -0.4256 C   0  0  0  0  0  0  0  0  0  0  0  0
   -1.1366    9.9908   -0.3400 C   0  0  0  0  0  0  0  0  0  0  0  0
   -0.0764    8.5738   -0.2034 S   0  0  0  0  0  0  0  0  0  0  0  0
   -4.3967   12.6644   -0.6413 N   0  3  0  0  0  0  0  0  0  0  0  0
   -4.1923   13.8628   -0.7166 O   0  0  0  0  0  0  0  0  0  0  0  0
   -5.5380   12.2394   -0.6527 O   0  5  0  0  0  0  0  0  0  0  0  0
   -3.6419    7.2225   -0.2369 N   0  0  0  0  0  0  0  0  0  0  0  0
   -3.5725    5.9186   -0.1433 C   0  0  0  0  0  0  0  0  0  0  0  0
   -2.4328    5.2565   -0.0610 N   0  0  0  0  0  0  0  0  0  0  0  0
    0.0056   -0.0036   -0.0411 H   0  0  0  0  0  0  0  0  0  0  0  0
    1.6736    1.2307    1.2822 H   0  0  0  0  0  0  0  0  0  0  0  0
    1.6487    3.6914    1.3113 H   0  0  0  0  0  0  0  0  0  0  0  0
   -1.7429    3.6780   -1.2943 H   0  0  0  0  0  0  0  0  0  0  0  0
   -1.7027    1.2175   -1.3246 H   0  0  0  0  0  0  0  0  0  0  0  0
    0.7611    5.7359    0.1049 H   0  0  0  0  0  0  0  0  0  0  0  0
   -4.5207   10.0184   -0.4633 H   0  0  0  0  0  0  0  0  0  0  0  0
   -1.7884   13.2866   -0.5913 H   0  0  0  0  0  0  0  0  0  0  0  0
    0.1131   11.7240   -0.4157 H   0  0  0  0  0  0  0  0  0  0  0  0
   -4.4941    5.3554   -0.1369 H   0  0  0  0  0  0  0  0  0  0  0  0
  1  6  2  0  0  0  0
  1  2  1  0  0  0  0
  1 24  1  0  0  0  0
  2  3  2  0  0  0  0
  2 25  1  0  0  0  0
  3  4  1  0  0  0  0
  3 26  1  0  0  0  0
  4  5  2  0  0  0  0
  4  7  1  0  0  0  0
  5  6  1  0  0  0  0
  5 27  1  0  0  0  0
  6 28  1  0  0  0  0
  7  8  1  0  0  0  0
  7 29  1  0  0  0  0
  8 23  2  0  0  0  0
  8  9  1  0  0  0  0
  9 17  1  0  0  0  0
  9 10  2  0  0  0  0
 10 11  1  0  0  0  0
 10 21  1  0  0  0  0
 11 16  2  0  0  0  0
 11 12  1  0  0  0  0
 12 13  2  0  0  0  0
 12 30  1  0  0  0  0
 13 14  1  0  0  0  0
 13 18  1  0  0  0  0
 14 15  2  0  0  0  0
 14 31  1  0  0  0  0
 15 16  1  0  0  0  0
 15 32  1  0  0  0  0
 16 17  1  0  0  0  0
 18 19  2  0  0  0  0
 18 20  1  0  0  0  0
 21 22  2  0  0  0  0
 22 23  1  0  0  0  0
 22 33  1  0  0  0  0
M  CHG  2  18   1  20  -1
M  END
$$$$
ZINC03815256
  -OEChem-08230709403D

 35 37  0     0  0  0  0  0  0999 V2000
   -0.0127    1.0858    0.0080 C   0  0  0  0  0  0  0  0  0  0  0  0
   -0.6816    1.5467    1.1837 O   0  0  0  0  0  0  0  0  0  0  0  0
   -0.7874    2.8920    1.3462 C   0  0  0  0  0  0  0  0  0  0  0  0
   -0.2469    3.7495    0.3851 C   0  0  0  0  0  0  0  0  0  0  0  0
   -0.3422    5.1016    0.5189 C   0  0  0  0  0  0  0  0  0  0  0  0
   -0.9814    5.6473    1.6406 C   0  0  0  0  0  0  0  0  0  0  0  0
   -1.5267    4.7830    2.6210 C   0  0  0  0  0  0  0  0  0  0  0  0
   -1.4220    3.3971    2.4604 C   0  0  0  0  0  0  0  0  0  0  0  0
   -2.1671    5.3632    3.7432 C   0  0  0  0  0  0  0  0  0  0  0  0
   -2.2232    6.6860    3.8179 N   0  0  0  0  0  0  0  0  0  0  0  0
   -1.6988    7.4542    2.8762 C   0  0  0  0  0  0  0  0  0  0  0  0
   -1.0946    6.9728    1.8163 N   0  0  0  0  0  0  0  0  0  0  0  0
   -2.7170    4.5739    4.7314 N   0  0  0  0  0  0  0  0  0  0  0  0
   -3.3749    5.1950    5.8837 C   0  0  0  0  0  0  0  0  0  0  0  0
   -3.8863    4.1213    6.8092 C   0  0  0  0  0  0  0  0  0  0  0  0
   -5.1650    3.6216    6.6483 C   0  0  0  0  0  0  0  0  0  0  0  0
   -5.6322    2.6329    7.4940 C   0  0  0  0  0  0  0  0  0  0  0  0
   -4.8246    2.1517    8.5074 C   0  0  0  0  0  0  0  0  0  0  0  0
   -3.5478    2.6555    8.6719 C   0  0  0  0  0  0  0  0  0  0  0  0
   -3.0786    3.6401    7.8226 C   0  0  0  0  0  0  0  0  0  0  0  0
    0.0021   -0.0041    0.0020 H   0  0  0  0  0  0  0  0  0  0  0  0
    1.0099    1.4631    0.0003 H   0  0  0  0  0  0  0  0  0  0  0  0
   -0.5399    1.4469   -0.8751 H   0  0  0  0  0  0  0  0  0  0  0  0
    0.2503    3.3342   -0.4791 H   0  0  0  0  0  0  0  0  0  0  0  0
    0.0776    5.7514   -0.2348 H   0  0  0  0  0  0  0  0  0  0  0  0
   -1.8342    2.7295    3.2026 H   0  0  0  0  0  0  0  0  0  0  0  0
   -1.7721    8.5262    2.9853 H   0  0  0  0  0  0  0  0  0  0  0  0
   -2.6682    3.6075    4.6636 H   0  0  0  0  0  0  0  0  0  0  0  0
   -2.6599    5.8228    6.4154 H   0  0  0  0  0  0  0  0  0  0  0  0
   -4.2094    5.8060    5.5398 H   0  0  0  0  0  0  0  0  0  0  0  0
   -5.7976    4.0007    5.8593 H   0  0  0  0  0  0  0  0  0  0  0  0
   -6.6296    2.2391    7.3653 H   0  0  0  0  0  0  0  0  0  0  0  0
   -5.1909    1.3820    9.1705 H   0  0  0  0  0  0  0  0  0  0  0  0
   -2.9168    2.2796    9.4637 H   0  0  0  0  0  0  0  0  0  0  0  0
   -2.0811    4.0337    7.9512 H   0  0  0  0  0  0  0  0  0  0  0  0
  1  2  1  0  0  0  0
  1 21  1  0  0  0  0
  1 22  1  0  0  0  0
  1 23  1  0  0  0  0
  2  3  1  0  0  0  0
  3  8  2  0  0  0  0
  3  4  1  0  0  0  0
  4  5  2  0  0  0  0
  4 24  1  0  0  0  0
  5  6  1  0  0  0  0
  5 25  1  0  0  0  0
  6 12  2  0  0  0  0
  6  7  1  0  0  0  0
  7  8  1  0  0  0  0
  7  9  2  0  0  0  0
  8 26  1  0  0  0  0
  9 10  1  0  0  0  0
  9 13  1  0  0  0  0
 10 11  2  0  0  0  0
 11 12  1  0  0  0  0
 11 27  1  0  0  0  0
 13 14  1  0  0  0  0
 13 28  1  0  0  0  0
 14 15  1  0  0  0  0
 14 29  1  0  0  0  0
 14 30  1  0  0  0  0
 15 20  2  0  0  0  0
 15 16  1  0  0  0  0
 16 17  2  0  0  0  0
 16 31  1  0  0  0  0
 17 18  1  0  0  0  0
 17 32  1  0  0  0  0
 18 19  2  0  0  0  0
 18 33  1  0  0  0  0
 19 20  1  0  0  0  0
 19 34  1  0  0  0  0
 20 35  1  0  0  0  0
M  END
$$$$
ZINC03815257
  -OEChem-08230709403D

 42 44  0     0  0  0  0  0  0999 V2000
   -0.0127    1.0858    0.0080 C   0  0  0  0  0  0  0  0  0  0  0  0
   -0.6816    1.5467    1.1837 O   0  0  0  0  0  0  0  0  0  0  0  0
   -0.7872    2.8898    1.3459 C   0  0  0  0  0  0  0  0  0  0  0  0
   -0.2616    3.7485    0.3995 C   0  0  0  0  0  0  0  0  0  0  0  0
   -0.3709    5.1255    0.5664 C   0  0  0  0  0  0  0  0  0  0  0  0
   -1.0048    5.6549    1.6780 C   0  0  0  0  0  0  0  0  0  0  0  0
   -1.5408    4.8096    2.6417 C   0  0  0  0  0  0  0  0  0  0  0  0
   -1.4354    3.4160    2.4719 C   0  0  0  0  0  0  0  0  0  0  0  0
   -2.0028    2.5367    3.5036 C   0  0  0  0  0  0  0  0  0  0  0  0
   -1.9360    1.3223    3.4086 O   0  0  0  0  0  0  0  0  0  0  0  0
   -2.6588    3.1781    4.6512 C   0  0  0  0  0  0  0  0  0  0  0  0
   -2.7087    4.5370    4.7128 C   0  0  0  0  0  0  0  0  0  0  0  0
   -2.1736    5.3238    3.7517 N   0  0  0  0  0  0  0  0  0  0  0  0
   -2.2712    6.7784    3.8966 C   0  0  0  0  0  0  0  0  0  0  0  0
   -3.4765    7.2786    3.1429 C   0  0  0  0  0  0  0  0  0  0  0  0
   -4.1816    6.4999    2.5459 O   0  0  0  0  0  0  0  0  0  0  0  0
   -3.7666    8.5891    3.1347 O   0  0  0  0  0  0  0  0  0  0  0  0
   -4.9425    8.9993    2.3880 C   0  0  0  0  0  0  0  0  0  0  0  0
   -3.2594    2.3554    5.7286 C   0  0  0  0  0  0  0  0  0  0  0  0
   -2.9517    2.6173    7.0630 C   0  0  0  0  0  0  0  0  0  0  0  0
   -3.5170    1.8519    8.0623 C   0  0  0  0  0  0  0  0  0  0  0  0
   -4.3802    0.8193    7.7422 C   0  0  0  0  0  0  0  0  0  0  0  0
   -4.6857    0.5508    6.4190 C   0  0  0  0  0  0  0  0  0  0  0  0
   -4.1291    1.3139    5.4109 C   0  0  0  0  0  0  0  0  0  0  0  0
   -5.7694   -0.7472    6.0259 Cl  0  0  0  0  0  0  0  0  0  0  0  0
    0.1499    5.9589   -0.3702 O   0  0  0  0  0  0  0  0  0  0  0  0
    0.0021   -0.0041    0.0020 H   0  0  0  0  0  0  0  0  0  0  0  0
    1.0099    1.4631    0.0003 H   0  0  0  0  0  0  0  0  0  0  0  0
   -0.5399    1.4469   -0.8751 H   0  0  0  0  0  0  0  0  0  0  0  0
    0.2351    3.3496   -0.4726 H   0  0  0  0  0  0  0  0  0  0  0  0
   -1.0829    6.7256    1.7958 H   0  0  0  0  0  0  0  0  0  0  0  0
   -3.1922    5.0030    5.5587 H   0  0  0  0  0  0  0  0  0  0  0  0
   -2.3714    7.0325    4.9519 H   0  0  0  0  0  0  0  0  0  0  0  0
   -1.3718    7.2447    3.4944 H   0  0  0  0  0  0  0  0  0  0  0  0
   -4.8243    8.7189    1.3414 H   0  0  0  0  0  0  0  0  0  0  0  0
   -5.8238    8.5067    2.7988 H   0  0  0  0  0  0  0  0  0  0  0  0
   -5.0620   10.0801    2.4635 H   0  0  0  0  0  0  0  0  0  0  0  0
   -2.2748    3.4205    7.3143 H   0  0  0  0  0  0  0  0  0  0  0  0
   -3.2816    2.0565    9.0962 H   0  0  0  0  0  0  0  0  0  0  0  0
   -4.8170    0.2203    8.5275 H   0  0  0  0  0  0  0  0  0  0  0  0
   -4.3678    1.1040    4.3787 H   0  0  0  0  0  0  0  0  0  0  0  0
   -0.4681    6.1921   -1.0765 H   0  0  0  0  0  0  0  0  0  0  0  0
  1  2  1  0  0  0  0
  1 27  1  0  0  0  0
  1 28  1  0  0  0  0
  1 29  1  0  0  0  0
  2  3  1  0  0  0  0
  3  8  2  0  0  0  0
  3  4  1  0  0  0  0
  4  5  2  0  0  0  0
  4 30  1  0  0  0  0
  5  6  1  0  0  0  0
  5 26  1  0  0  0  0
  6  7  2  0  0  0  0
  6 31  1  0  0  0  0
  7 13  1  0  0  0  0
  7  8  1  0  0  0  0
  8  9  1  0  0  0  0
  9 10  2  0  0  0  0
  9 11  1  0  0  0  0
 11 12  2  0  0  0  0
 11 19  1  0  0  0  0
 12 13  1  0  0  0  0
 12 32  1  0  0  0  0
 13 14  1  0  0  0  0
 14 15  1  0  0  0  0
 14 33  1  0  0  0  0
 14 34  1  0  0  0  0
 15 16  2  0  0  0  0
 15 17  1  0  0  0  0
 17 18  1  0  0  0  0
 18 35  1  0  0  0  0
 18 36  1  0  0  0  0
 18 37  1  0  0  0  0
 19 24  2  0  0  0  0
 19 20  1  0  0  0  0
 20 21  2  0  0  0  0
 20 38  1  0  0  0  0
 21 22  1  0  0  0  0
 21 39  1  0  0  0  0
 22 23  2  0  0  0  0
 22 40  1  0  0  0  0
 23 24  1  0  0  0  0
 23 25  1  0  0  0  0
 24 41  1  0  0  0  0
 26 42  1  0  0  0  0
M  END
$$$$
ZINC03815258
  -OEChem-08230709403D

 35 37  0     0  0  0  0  0  0999 V2000
    4.5661    5.9057    0.6806 C   0  0  0  0  0  0  0  0  0  0  0  0
    3.2035    6.3016    0.3161 N   0  0  0  0  0  0  0  0  0  0  0  0
    2.1995    5.3400    0.2251 C   0  0  0  0  0  0  0  0  0  0  0  0
    2.5129    4.0062    0.4000 C   0  0  0  0  0  0  0  0  0  0  0  0
    1.5014    3.0448    0.3085 C   0  0  0  0  0  0  0  0  0  0  0  0
    0.1724    3.4567    0.0374 C   0  0  0  0  0  0  0  0  0  0  0  0
   -0.1155    4.8159   -0.1358 C   0  0  0  0  0  0  0  0  0  0  0  0
    0.8843    5.7356   -0.0426 C   0  0  0  0  0  0  0  0  0  0  0  0
    0.5760    7.1717   -0.2263 N   0  3  0  0  0  0  0  0  0  0  0  0
   -0.4635    7.6322    0.2107 O   0  0  0  0  0  0  0  0  0  0  0  0
    1.3618    7.8929   -0.8144 O   0  5  0  0  0  0  0  0  0  0  0  0
   -0.8301    2.4620   -0.0489 C   0  0  0  0  0  0  0  0  0  0  0  0
   -0.4738    1.1953    0.1229 N   0  0  0  0  0  0  0  0  0  0  0  0
    0.7798    0.8579    0.3794 C   0  0  0  0  0  0  0  0  0  0  0  0
    1.7505    1.7357    0.4708 N   0  0  0  0  0  0  0  0  0  0  0  0
   -2.1423    2.7995   -0.3103 N   0  0  0  0  0  0  0  0  0  0  0  0
   -3.0968    1.7968   -0.5030 C   0  0  0  0  0  0  0  0  0  0  0  0
   -4.4117    2.0012   -0.1035 C   0  0  0  0  0  0  0  0  0  0  0  0
   -5.3526    1.0088   -0.2952 C   0  0  0  0  0  0  0  0  0  0  0  0
   -4.9878   -0.1878   -0.8845 C   0  0  0  0  0  0  0  0  0  0  0  0
   -3.6793   -0.3952   -1.2837 C   0  0  0  0  0  0  0  0  0  0  0  0
   -2.7341    0.5962   -1.0994 C   0  0  0  0  0  0  0  0  0  0  0  0
   -3.1856   -2.0333   -2.0891 Br  0  0  0  0  0  0  0  0  0  0  0  0
    4.9469    5.1961   -0.0539 H   0  0  0  0  0  0  0  0  0  0  0  0
    5.2073    6.7869    0.7009 H   0  0  0  0  0  0  0  0  0  0  0  0
    4.5577    5.4396    1.6658 H   0  0  0  0  0  0  0  0  0  0  0  0
    3.0003    7.2333    0.1382 H   0  0  0  0  0  0  0  0  0  0  0  0
    3.5303    3.7084    0.6063 H   0  0  0  0  0  0  0  0  0  0  0  0
   -1.1267    5.1337   -0.3428 H   0  0  0  0  0  0  0  0  0  0  0  0
    1.0151   -0.1873    0.5154 H   0  0  0  0  0  0  0  0  0  0  0  0
   -2.4023    3.7327   -0.3602 H   0  0  0  0  0  0  0  0  0  0  0  0
   -4.6976    2.9354    0.3568 H   0  0  0  0  0  0  0  0  0  0  0  0
   -6.3747    1.1676    0.0153 H   0  0  0  0  0  0  0  0  0  0  0  0
   -5.7258   -0.9620   -1.0339 H   0  0  0  0  0  0  0  0  0  0  0  0
   -1.7139    0.4360   -1.4154 H   0  0  0  0  0  0  0  0  0  0  0  0
  1  2  1  0  0  0  0
  1 24  1  0  0  0  0
  1 25  1  0  0  0  0
  1 26  1  0  0  0  0
  2  3  1  0  0  0  0
  2 27  1  0  0  0  0
  3  8  2  0  0  0  0
  3  4  1  0  0  0  0
  4  5  2  0  0  0  0
  4 28  1  0  0  0  0
  5 15  1  0  0  0  0
  5  6  1  0  0  0  0
  6  7  2  0  0  0  0
  6 12  1  0  0  0  0
  7  8  1  0  0  0  0
  7 29  1  0  0  0  0
  8  9  1  0  0  0  0
  9 10  2  0  0  0  0
  9 11  1  0  0  0  0
 12 13  2  0  0  0  0
 12 16  1  0  0  0  0
 13 14  1  0  0  0  0
 14 15  2  0  0  0  0
 14 30  1  0  0  0  0
 16 17  1  0  0  0  0
 16 31  1  0  0  0  0
 17 22  2  0  0  0  0
 17 18  1  0  0  0  0
 18 19  2  0  0  0  0
 18 32  1  0  0  0  0
 19 20  1  0  0  0  0
 19 33  1  0  0  0  0
 20 21  2  0  0  0  0
 20 34  1  0  0  0  0
 21 22  1  0  0  0  0
 21 23  1  0  0  0  0
 22 35  1  0  0  0  0
M  CHG  2   9   1  11  -1
M  END
$$$$
ZINC03815259
  -OEChem-08230709403D

 31 33  0     0  0  0  0  0  0999 V2000
   -0.9804    1.7552   -0.6840 C   0  0  0  0  0  0  0  0  0  0  0  0
   -0.9946    3.1367   -0.6920 C   0  0  0  0  0  0  0  0  0  0  0  0
   -0.0507    3.8460    0.0400 C   0  0  0  0  0  0  0  0  0  0  0  0
    0.9064    3.1648    0.7798 C   0  0  0  0  0  0  0  0  0  0  0  0
    0.9130    1.7791    0.7904 C   0  0  0  0  0  0  0  0  0  0  0  0
   -0.0289    1.0756    0.0522 C   0  0  0  0  0  0  0  0  0  0  0  0
    1.8444    1.1092    1.5188 O   0  0  0  0  0  0  0  0  0  0  0  0
   -0.0643    5.2438    0.0313 N   0  0  0  0  0  0  0  0  0  0  0  0
    1.1186    5.9452    0.1278 C   0  0  0  0  0  0  0  0  0  0  0  0
    1.1214    7.3550    0.2375 C   0  0  0  0  0  0  0  0  0  0  0  0
   -0.0517    8.1131    0.2658 C   0  0  0  0  0  0  0  0  0  0  0  0
    1.1683   10.0764    0.4658 C   0  0  0  0  0  0  0  0  0  0  0  0
    2.3804    9.4108    0.4513 C   0  0  0  0  0  0  0  0  0  0  0  0
    2.3747    8.0159    0.3376 C   0  0  0  0  0  0  0  0  0  0  0  0
    3.4958    7.2843    0.3147 N   0  0  0  0  0  0  0  0  0  0  0  0
    3.4314    5.9769    0.2064 C   0  0  0  0  0  0  0  0  0  0  0  0
    2.2885    5.3168    0.1150 N   0  0  0  0  0  0  0  0  0  0  0  0
    1.1561   11.4607    0.5780 N   0  0  0  0  0  0  0  0  0  0  0  0
   -1.7148    1.2054   -1.2539 H   0  0  0  0  0  0  0  0  0  0  0  0
   -1.7397    3.6654   -1.2679 H   0  0  0  0  0  0  0  0  0  0  0  0
    1.6414    3.7137    1.3498 H   0  0  0  0  0  0  0  0  0  0  0  0
   -0.0206   -0.0043    0.0567 H   0  0  0  0  0  0  0  0  0  0  0  0
    2.6586    0.9162    1.0340 H   0  0  0  0  0  0  0  0  0  0  0  0
   -0.9060    5.7202   -0.0427 H   0  0  0  0  0  0  0  0  0  0  0  0
   -1.0121    7.6244    0.1939 H   0  0  0  0  0  0  0  0  0  0  0  0
    3.3102    9.9551    0.5263 H   0  0  0  0  0  0  0  0  0  0  0  0
    4.3536    5.4151    0.1908 H   0  0  0  0  0  0  0  0  0  0  0  0
    1.9914   11.9492    0.6450 H   0  0  0  0  0  0  0  0  0  0  0  0
    0.3122   11.9389    0.5893 H   0  0  0  0  0  0  0  0  0  0  0  0
   -0.0597    9.4661    0.3755 N   0  3  0  0  0  0  0  0  0  0  0  0
   -0.9344   10.0036    0.3902 H   0  0  0  0  0  0  0  0  0  0  0  0
  1  6  2  0  0  0  0
  1  2  1  0  0  0  0
  1 19  1  0  0  0  0
  2  3  2  0  0  0  0
  2 20  1  0  0  0  0
  3  4  1  0  0  0  0
  3  8  1  0  0  0  0
  4  5  2  0  0  0  0
  4 21  1  0  0  0  0
  5  6  1  0  0  0  0
  5  7  1  0  0  0  0
  6 22  1  0  0  0  0
  7 23  1  0  0  0  0
  8  9  1  0  0  0  0
  8 24  1  0  0  0  0
  9 17  2  0  0  0  0
  9 10  1  0  0  0  0
 10 14  2  0  0  0  0
 10 11  1  0  0  0  0
 11 25  1  0  0  0  0
 11 30  2  0  0  0  0
 12 13  2  0  0  0  0
 12 18  1  0  0  0  0
 12 30  1  0  0  0  0
 13 14  1  0  0  0  0
 13 26  1  0  0  0  0
 14 15  1  0  0  0  0
 15 16  2  0  0  0  0
 16 17  1  0  0  0  0
 16 27  1  0  0  0  0
 18 28  1  0  0  0  0
 18 29  1  0  0  0  0
 30 31  1  0  0  0  0
M  CHG  1  30   1
M  END
$$$$
ZINC03815260
  -OEChem-08230709403D

 32 35  0     0  0  0  0  0  0999 V2000
   -3.2290    3.3727   -0.2364 C   0  0  0  0  0  0  0  0  0  0  0  0
   -2.6180    4.6030   -0.0429 C   0  0  0  0  0  0  0  0  0  0  0  0
   -1.2470    4.6981    0.0491 C   0  0  0  0  0  0  0  0  0  0  0  0
   -0.4605    3.5536   -0.0515 C   0  0  0  0  0  0  0  0  0  0  0  0
   -1.0806    2.3080   -0.2411 C   0  0  0  0  0  0  0  0  0  0  0  0
   -2.4692    2.2287   -0.3385 C   0  0  0  0  0  0  0  0  0  0  0  0
   -0.0016    1.3106   -0.3117 C   0  0  0  0  0  0  0  0  0  0  0  0
    1.1993    2.0141   -0.1518 C   0  0  0  0  0  0  0  0  0  0  0  0
    0.9058    3.3556    0.0028 N   0  0  0  0  0  0  0  0  0  0  0  0
    1.5638    4.0567    0.1308 H   0  0  0  0  0  0  0  0  0  0  0  0
    2.3961    1.2859   -0.1752 C   0  0  0  0  0  0  0  0  0  0  0  0
    2.3386   -0.0306   -0.3470 N   0  0  0  0  0  0  0  0  0  0  0  0
    1.1835   -0.6525   -0.4938 C   0  0  0  0  0  0  0  0  0  0  0  0
    0.0347   -0.0110   -0.4787 N   0  0  0  0  0  0  0  0  0  0  0  0
    3.6170    1.9266   -0.0217 N   0  0  0  0  0  0  0  0  0  0  0  0
    4.7930    1.1769    0.0690 C   0  0  0  0  0  0  0  0  0  0  0  0
    5.9824    1.6832   -0.4404 C   0  0  0  0  0  0  0  0  0  0  0  0
    7.1429    0.9405   -0.3490 C   0  0  0  0  0  0  0  0  0  0  0  0
    7.1228   -0.3062    0.2493 C   0  0  0  0  0  0  0  0  0  0  0  0
    5.9404   -0.8137    0.7577 C   0  0  0  0  0  0  0  0  0  0  0  0
    4.7764   -0.0732    0.6736 C   0  0  0  0  0  0  0  0  0  0  0  0
    5.9184   -2.5187    1.5754 Br  0  0  0  0  0  0  0  0  0  0  0  0
   -4.3049    3.3118   -0.3076 H   0  0  0  0  0  0  0  0  0  0  0  0
   -3.2228    5.4944    0.0359 H   0  0  0  0  0  0  0  0  0  0  0  0
   -0.7818    5.6610    0.1998 H   0  0  0  0  0  0  0  0  0  0  0  0
   -2.9478    1.2723   -0.4895 H   0  0  0  0  0  0  0  0  0  0  0  0
    1.1812   -1.7237   -0.6314 H   0  0  0  0  0  0  0  0  0  0  0  0
    3.6544    2.8948    0.0227 H   0  0  0  0  0  0  0  0  0  0  0  0
    5.9991    2.6567   -0.9078 H   0  0  0  0  0  0  0  0  0  0  0  0
    8.0675    1.3339   -0.7449 H   0  0  0  0  0  0  0  0  0  0  0  0
    8.0321   -0.8846    0.3201 H   0  0  0  0  0  0  0  0  0  0  0  0
    3.8543   -0.4679    1.0742 H   0  0  0  0  0  0  0  0  0  0  0  0
  1  6  2  0  0  0  0
  1  2  1  0  0  0  0
  1 23  1  0  0  0  0
  2  3  2  0  0  0  0
  2 24  1  0  0  0  0
  3  4  1  0  0  0  0
  3 25  1  0  0  0  0
  4  9  1  0  0  0  0
  4  5  2  0  0  0  0
  5  6  1  0  0  0  0
  5  7  1  0  0  0  0
  6 26  1  0  0  0  0
  7 14  2  0  0  0  0
  7  8  1  0  0  0  0
  8  9  1  0  0  0  0
  8 11  2  0  0  0  0
  9 10  1  0  0  0  0
 11 12  1  0  0  0  0
 11 15  1  0  0  0  0
 12 13  2  0  0  0  0
 13 14  1  0  0  0  0
 13 27  1  0  0  0  0
 15 16  1  0  0  0  0
 15 28  1  0  0  0  0
 16 21  2  0  0  0  0
 16 17  1  0  0  0  0
 17 18  2  0  0  0  0
 17 29  1  0  0  0  0
 18 19  1  0  0  0  0
 18 30  1  0  0  0  0
 19 20  2  0  0  0  0
 19 31  1  0  0  0  0
 20 21  1  0  0  0  0
 20 22  1  0  0  0  0
 21 32  1  0  0  0  0
M  END
$$$$
ZINC03815261
  -OEChem-08230709403D

 52 55  0     0  0  0  0  0  0999 V2000
    0.0685    1.0902    0.1116 C   0  0  0  0  0  0  0  0  0  0  0  0
   -0.4262    1.5833    1.3993 N   0  0  0  0  0  0  0  0  0  0  0  0
   -0.5385    2.9342    1.6114 C   0  0  0  0  0  0  0  0  0  0  0  0
   -1.0181    3.4258    2.8448 C   0  0  0  0  0  0  0  0  0  0  0  0
   -1.3769    2.5290    3.8769 C   0  0  0  0  0  0  0  0  0  0  0  0
   -1.2565    1.1829    3.6581 C   0  0  0  0  0  0  0  0  0  0  0  0
   -0.7608    0.7061    2.3651 C   0  0  0  0  0  0  0  0  0  0  0  0
   -0.6510   -0.4900    2.1618 O   0  0  0  0  0  0  0  0  0  0  0  0
   -1.6239    0.2172    4.7199 C   0  0  0  0  0  0  0  0  0  0  0  0
   -0.6659   -0.2109    5.6398 C   0  0  0  0  0  0  0  0  0  0  0  0
   -1.0162   -1.1072    6.6305 C   0  0  0  0  0  0  0  0  0  0  0  0
   -2.3108   -1.5889    6.7053 C   0  0  0  0  0  0  0  0  0  0  0  0
   -3.2639   -1.1726    5.7933 C   0  0  0  0  0  0  0  0  0  0  0  0
   -2.9280   -0.2726    4.8010 C   0  0  0  0  0  0  0  0  0  0  0  0
   -4.1254    0.2477    3.6568 Cl  0  0  0  0  0  0  0  0  0  0  0  0
    0.9613    0.3864    5.5428 Cl  0  0  0  0  0  0  0  0  0  0  0  0
   -1.1230    4.8140    3.0188 C   0  0  0  0  0  0  0  0  0  0  0  0
   -0.7738    5.6039    2.0208 N   0  0  0  0  0  0  0  0  0  0  0  0
   -0.3311    5.1056    0.8717 C   0  0  0  0  0  0  0  0  0  0  0  0
   -0.2145    3.8035    0.6608 N   0  0  0  0  0  0  0  0  0  0  0  0
    0.0210    5.9779   -0.1404 N   0  0  0  0  0  0  0  0  0  0  0  0
   -0.1997    7.3500    0.0111 C   0  0  0  0  0  0  0  0  0  0  0  0
   -1.3057    7.8032    0.7189 C   0  0  0  0  0  0  0  0  0  0  0  0
   -1.5173    9.1593    0.8720 C   0  0  0  0  0  0  0  0  0  0  0  0
   -0.6364   10.0658    0.3112 C   0  0  0  0  0  0  0  0  0  0  0  0
    0.4626    9.6181   -0.3989 C   0  0  0  0  0  0  0  0  0  0  0  0
    0.6834    8.2633   -0.5505 C   0  0  0  0  0  0  0  0  0  0  0  0
   -0.8742   11.5449    0.4746 C   0  0  0  0  0  0  0  0  0  0  0  0
   -1.7351   12.0540   -0.6832 C   0  0  0  0  0  0  0  0  0  0  0  0
   -1.9766   13.5557   -0.5173 C   0  0  0  0  0  0  0  0  0  0  0  0
   -2.8245   14.0572   -1.6577 C   0  0  0  0  0  0  0  0  0  0  0  0
   -3.1974   13.2920   -2.5152 O   0  0  0  0  0  0  0  0  0  0  0  0
    0.0950    0.0006    0.1257 H   0  0  0  0  0  0  0  0  0  0  0  0
    1.0729    1.4758   -0.0636 H   0  0  0  0  0  0  0  0  0  0  0  0
   -0.5942    1.4272   -0.6854 H   0  0  0  0  0  0  0  0  0  0  0  0
   -1.7408    2.9001    4.8236 H   0  0  0  0  0  0  0  0  0  0  0  0
   -0.2768   -1.4359    7.3458 H   0  0  0  0  0  0  0  0  0  0  0  0
   -2.5784   -2.2933    7.4789 H   0  0  0  0  0  0  0  0  0  0  0  0
   -4.2729   -1.5525    5.8572 H   0  0  0  0  0  0  0  0  0  0  0  0
   -1.4816    5.2275    3.9499 H   0  0  0  0  0  0  0  0  0  0  0  0
    0.4212    5.6382   -0.9561 H   0  0  0  0  0  0  0  0  0  0  0  0
   -1.9966    7.0958    1.1531 H   0  0  0  0  0  0  0  0  0  0  0  0
   -2.3744    9.5123    1.4263 H   0  0  0  0  0  0  0  0  0  0  0  0
    1.1490   10.3287   -0.8350 H   0  0  0  0  0  0  0  0  0  0  0  0
    1.5421    7.9142   -1.1049 H   0  0  0  0  0  0  0  0  0  0  0  0
   -1.3888   11.7282    1.4179 H   0  0  0  0  0  0  0  0  0  0  0  0
    0.0816   12.0688    0.4744 H   0  0  0  0  0  0  0  0  0  0  0  0
   -1.2205   11.8708   -1.6265 H   0  0  0  0  0  0  0  0  0  0  0  0
   -2.6909   11.5301   -0.6830 H   0  0  0  0  0  0  0  0  0  0  0  0
   -2.4911   13.7390    0.4260 H   0  0  0  0  0  0  0  0  0  0  0  0
   -1.0207   14.0796   -0.5175 H   0  0  0  0  0  0  0  0  0  0  0  0
   -3.1655   15.3539   -1.7209 O   0  5  0  0  0  0  0  0  0  0  0  0
  1  2  1  0  0  0  0
  1 33  1  0  0  0  0
  1 34  1  0  0  0  0
  1 35  1  0  0  0  0
  2  7  1  0  0  0  0
  2  3  1  0  0  0  0
  3 20  2  0  0  0  0
  3  4  1  0  0  0  0
  4  5  1  0  0  0  0
  4 17  2  0  0  0  0
  5  6  2  0  0  0  0
  5 36  1  0  0  0  0
  6  7  1  0  0  0  0
  6  9  1  0  0  0  0
  7  8  2  0  0  0  0
  9 14  2  0  0  0  0
  9 10  1  0  0  0  0
 10 11  2  0  0  0  0
 10 16  1  0  0  0  0
 11 12  1  0  0  0  0
 11 37  1  0  0  0  0
 12 13  2  0  0  0  0
 12 38  1  0  0  0  0
 13 14  1  0  0  0  0
 13 39  1  0  0  0  0
 14 15  1  0  0  0  0
 17 18  1  0  0  0  0
 17 40  1  0  0  0  0
 18 19  2  0  0  0  0
 19 20  1  0  0  0  0
 19 21  1  0  0  0  0
 21 22  1  0  0  0  0
 21 41  1  0  0  0  0
 22 27  2  0  0  0  0
 22 23  1  0  0  0  0
 23 24  2  0  0  0  0
 23 42  1  0  0  0  0
 24 25  1  0  0  0  0
 24 43  1  0  0  0  0
 25 26  2  0  0  0  0
 25 28  1  0  0  0  0
 26 27  1  0  0  0  0
 26 44  1  0  0  0  0
 27 45  1  0  0  0  0
 28 29  1  0  0  0  0
 28 46  1  0  0  0  0
 28 47  1  0  0  0  0
 29 30  1  0  0  0  0
 29 48  1  0  0  0  0
 29 49  1  0  0  0  0
 30 31  1  0  0  0  0
 30 50  1  0  0  0  0
 30 51  1  0  0  0  0
 31 32  2  0  0  0  0
 31 52  1  0  0  0  0
M  CHG  1  52  -1
M  END
$$$$
ZINC03815262
  -OEChem-08230709403D

 35 38  0     0  0  0  0  0  0999 V2000
    8.8451   10.9316   -0.8465 C   0  0  0  0  0  0  0  0  0  0  0  0
    8.7014    9.5141   -0.7371 O   0  0  0  0  0  0  0  0  0  0  0  0
    7.4365    9.0284   -0.6355 C   0  0  0  0  0  0  0  0  0  0  0  0
    6.3475    9.8962   -0.6404 C   0  0  0  0  0  0  0  0  0  0  0  0
    5.0734    9.4323   -0.5398 C   0  0  0  0  0  0  0  0  0  0  0  0
    4.8129    8.0480   -0.4266 C   0  0  0  0  0  0  0  0  0  0  0  0
    5.9258    7.1898   -0.4236 C   0  0  0  0  0  0  0  0  0  0  0  0
    7.2174    7.6641   -0.5259 C   0  0  0  0  0  0  0  0  0  0  0  0
    5.2324    5.5631   -0.2708 S   0  0  0  0  0  0  0  0  0  0  0  0
    3.5149    5.9938   -0.2113 C   0  0  0  0  0  0  0  0  0  0  0  0
    3.4967    7.3907   -0.3104 C   0  0  0  0  0  0  0  0  0  0  0  0
    2.2762    7.9719   -0.2883 N   0  0  0  0  0  0  0  0  0  0  0  0
    1.1833    7.2585   -0.1802 C   0  0  0  0  0  0  0  0  0  0  0  0
    1.1828    5.9413   -0.0910 N   0  0  0  0  0  0  0  0  0  0  0  0
    2.3353    5.2715   -0.0980 C   0  0  0  0  0  0  0  0  0  0  0  0
    2.3548    3.8878   -0.0005 N   0  0  0  0  0  0  0  0  0  0  0  0
    1.1686    3.1870    0.2342 C   0  0  0  0  0  0  0  0  0  0  0  0
    0.9770    1.9330   -0.3326 C   0  0  0  0  0  0  0  0  0  0  0  0
   -0.1962    1.2431   -0.0993 C   0  0  0  0  0  0  0  0  0  0  0  0
   -1.1826    1.8010    0.6932 C   0  0  0  0  0  0  0  0  0  0  0  0
   -0.9934    3.0473    1.2636 C   0  0  0  0  0  0  0  0  0  0  0  0
    0.1786    3.7429    1.0340 C   0  0  0  0  0  0  0  0  0  0  0  0
   -2.3427    3.8028    2.3519 Br  0  0  0  0  0  0  0  0  0  0  0  0
    9.9027   11.1850   -0.9205 H   0  0  0  0  0  0  0  0  0  0  0  0
    8.3244   11.2819   -1.7377 H   0  0  0  0  0  0  0  0  0  0  0  0
    8.4179   11.4093    0.0352 H   0  0  0  0  0  0  0  0  0  0  0  0
    6.5184   10.9592   -0.7262 H   0  0  0  0  0  0  0  0  0  0  0  0
    4.2498   10.1309   -0.5462 H   0  0  0  0  0  0  0  0  0  0  0  0
    8.0512    6.9777   -0.5202 H   0  0  0  0  0  0  0  0  0  0  0  0
    0.2341    7.7736   -0.1679 H   0  0  0  0  0  0  0  0  0  0  0  0
    3.1917    3.4066   -0.0951 H   0  0  0  0  0  0  0  0  0  0  0  0
    1.7453    1.4980   -0.9547 H   0  0  0  0  0  0  0  0  0  0  0  0
   -0.3454    0.2685   -0.5401 H   0  0  0  0  0  0  0  0  0  0  0  0
   -2.1010    1.2610    0.8706 H   0  0  0  0  0  0  0  0  0  0  0  0
    0.3243    4.7176    1.4757 H   0  0  0  0  0  0  0  0  0  0  0  0
  1  2  1  0  0  0  0
  1 24  1  0  0  0  0
  1 25  1  0  0  0  0
  1 26  1  0  0  0  0
  2  3  1  0  0  0  0
  3  8  2  0  0  0  0
  3  4  1  0  0  0  0
  4  5  2  0  0  0  0
  4 27  1  0  0  0  0
  5  6  1  0  0  0  0
  5 28  1  0  0  0  0
  6 11  1  0  0  0  0
  6  7  2  0  0  0  0
  7  8  1  0  0  0  0
  7  9  1  0  0  0  0
  8 29  1  0  0  0  0
  9 10  1  0  0  0  0
 10 15  2  0  0  0  0
 10 11  1  0  0  0  0
 11 12  2  0  0  0  0
 12 13  1  0  0  0  0
 13 14  2  0  0  0  0
 13 30  1  0  0  0  0
 14 15  1  0  0  0  0
 15 16  1  0  0  0  0
 16 17  1  0  0  0  0
 16 31  1  0  0  0  0
 17 22  2  0  0  0  0
 17 18  1  0  0  0  0
 18 19  2  0  0  0  0
 18 32  1  0  0  0  0
 19 20  1  0  0  0  0
 19 33  1  0  0  0  0
 20 21  2  0  0  0  0
 20 34  1  0  0  0  0
 21 22  1  0  0  0  0
 21 23  1  0  0  0  0
 22 35  1  0  0  0  0
M  END
$$$$
ZINC03815264
  -OEChem-08230709403D

 26 28  0     0  0  0  0  0  0999 V2000
   -1.1107    2.9202   -0.7519 C   0  0  0  0  0  0  0  0  0  0  0  0
    0.0733    3.6317   -0.7458 C   0  0  0  0  0  0  0  0  0  0  0  0
    1.1562    3.1695   -0.0089 C   0  0  0  0  0  0  0  0  0  0  0  0
    1.0448    1.9922    0.7201 C   0  0  0  0  0  0  0  0  0  0  0  0
   -0.1422    1.2851    0.7099 C   0  0  0  0  0  0  0  0  0  0  0  0
   -1.2207    1.7516   -0.0213 C   0  0  0  0  0  0  0  0  0  0  0  0
   -0.2958   -0.3173    1.7022 Br  0  0  0  0  0  0  0  0  0  0  0  0
    2.3552    3.8876   -0.0005 N   0  0  0  0  0  0  0  0  0  0  0  0
    2.3358    5.2638   -0.0975 C   0  0  0  0  0  0  0  0  0  0  0  0
    3.5727    6.0341   -0.2110 C   0  0  0  0  0  0  0  0  0  0  0  0
    3.4636    7.4428   -0.3109 C   0  0  0  0  0  0  0  0  0  0  0  0
    4.6476    8.1918   -0.4264 C   0  0  0  0  0  0  0  0  0  0  0  0
    5.7960    7.5450   -0.4409 N   0  0  0  0  0  0  0  0  0  0  0  0
    5.8525    6.2240   -0.3501 C   0  0  0  0  0  0  0  0  0  0  0  0
    4.7787    5.4726   -0.2402 N   0  0  0  0  0  0  0  0  0  0  0  0
    7.4081    5.4537   -0.3766 Cl  0  0  0  0  0  0  0  0  0  0  0  0
    2.2479    7.9990   -0.2869 N   0  0  0  0  0  0  0  0  0  0  0  0
    1.1713    7.2592   -0.1782 C   0  0  0  0  0  0  0  0  0  0  0  0
    1.1935    5.9395   -0.0858 N   0  0  0  0  0  0  0  0  0  0  0  0
   -1.9529    3.2796   -1.3245 H   0  0  0  0  0  0  0  0  0  0  0  0
    0.1570    4.5465   -1.3138 H   0  0  0  0  0  0  0  0  0  0  0  0
    1.8848    1.6304    1.2944 H   0  0  0  0  0  0  0  0  0  0  0  0
   -2.1490    1.1997   -0.0243 H   0  0  0  0  0  0  0  0  0  0  0  0
    3.2009    3.4185    0.0736 H   0  0  0  0  0  0  0  0  0  0  0  0
    4.6171    9.2688   -0.5010 H   0  0  0  0  0  0  0  0  0  0  0  0
    0.2119    7.7550   -0.1628 H   0  0  0  0  0  0  0  0  0  0  0  0
  1  6  2  0  0  0  0
  1  2  1  0  0  0  0
  1 20  1  0  0  0  0
  2  3  2  0  0  0  0
  2 21  1  0  0  0  0
  3  4  1  0  0  0  0
  3  8  1  0  0  0  0
  4  5  2  0  0  0  0
  4 22  1  0  0  0  0
  5  6  1  0  0  0  0
  5  7  1  0  0  0  0
  6 23  1  0  0  0  0
  8  9  1  0  0  0  0
  8 24  1  0  0  0  0
  9 19  2  0  0  0  0
  9 10  1  0  0  0  0
 10 15  2  0  0  0  0
 10 11  1  0  0  0  0
 11 12  2  0  0  0  0
 11 17  1  0  0  0  0
 12 13  1  0  0  0  0
 12 25  1  0  0  0  0
 13 14  2  0  0  0  0
 14 15  1  0  0  0  0
 14 16  1  0  0  0  0
 17 18  2  0  0  0  0
 18 19  1  0  0  0  0
 18 26  1  0  0  0  0
M  END
$$$$
ZINC03815265
  -OEChem-08230709403D

 37 40  0     0  0  0  0  0  0999 V2000
    0.1093    1.1111   -1.0131 C   0  0  0  0  0  0  0  0  0  0  0  0
    0.9634    1.7137   -0.1077 C   0  0  0  0  0  0  0  0  0  0  0  0
    0.9253    3.0822    0.0745 C   0  0  0  0  0  0  0  0  0  0  0  0
    0.0195    3.8519   -0.6441 C   0  0  0  0  0  0  0  0  0  0  0  0
   -0.8410    3.2428   -1.5486 C   0  0  0  0  0  0  0  0  0  0  0  0
   -0.7933    1.8746   -1.7305 C   0  0  0  0  0  0  0  0  0  0  0  0
   -0.0264    5.2365   -0.4572 N   0  0  0  0  0  0  0  0  0  0  0  0
   -1.2268    5.9109   -0.5785 C   0  0  0  0  0  0  0  0  0  0  0  0
   -1.2758    7.3131   -0.5045 C   0  0  0  0  0  0  0  0  0  0  0  0
   -2.5254    7.9504   -0.6350 C   0  0  0  0  0  0  0  0  0  0  0  0
   -2.2980    9.2888   -0.5278 N   0  0  0  0  0  0  0  0  0  0  0  0
   -2.9987   10.0003   -0.5807 H   0  0  0  0  0  0  0  0  0  0  0  0
   -0.9310    9.5129   -0.3321 N   0  0  0  0  0  0  0  0  0  0  0  0
   -0.2901    8.3724   -0.3119 C   0  0  0  0  0  0  0  0  0  0  0  0
    1.0849    8.2000   -0.1373 N   0  0  0  0  0  0  0  0  0  0  0  0
    1.9267    9.3134   -0.0805 C   0  0  0  0  0  0  0  0  0  0  0  0
    3.0992    9.2625    0.6637 C   0  0  0  0  0  0  0  0  0  0  0  0
    3.9297   10.3642    0.7178 C   0  0  0  0  0  0  0  0  0  0  0  0
    3.5963   11.5182    0.0323 C   0  0  0  0  0  0  0  0  0  0  0  0
    2.4298   11.5727   -0.7103 C   0  0  0  0  0  0  0  0  0  0  0  0
    1.5965   10.4715   -0.7724 C   0  0  0  0  0  0  0  0  0  0  0  0
    2.0157   13.0232   -1.5696 Cl  0  0  0  0  0  0  0  0  0  0  0  0
   -3.6096    7.1980   -0.8236 N   0  0  0  0  0  0  0  0  0  0  0  0
   -3.5146    5.8882   -0.8865 C   0  0  0  0  0  0  0  0  0  0  0  0
   -2.3634    5.2493   -0.7737 N   0  0  0  0  0  0  0  0  0  0  0  0
    0.1443    0.0413   -1.1570 H   0  0  0  0  0  0  0  0  0  0  0  0
    1.6641    1.1140    0.4542 H   0  0  0  0  0  0  0  0  0  0  0  0
    1.5954    3.5526    0.7788 H   0  0  0  0  0  0  0  0  0  0  0  0
   -1.5466    3.8384   -2.1087 H   0  0  0  0  0  0  0  0  0  0  0  0
   -1.4620    1.4004   -2.4336 H   0  0  0  0  0  0  0  0  0  0  0  0
    0.7842    5.7241   -0.2424 H   0  0  0  0  0  0  0  0  0  0  0  0
    1.4552    7.3073   -0.0554 H   0  0  0  0  0  0  0  0  0  0  0  0
    3.3604    8.3620    1.1997 H   0  0  0  0  0  0  0  0  0  0  0  0
    4.8412   10.3247    1.2958 H   0  0  0  0  0  0  0  0  0  0  0  0
    4.2478   12.3784    0.0763 H   0  0  0  0  0  0  0  0  0  0  0  0
    0.6883   10.5128   -1.3553 H   0  0  0  0  0  0  0  0  0  0  0  0
   -4.4142    5.3107   -1.0402 H   0  0  0  0  0  0  0  0  0  0  0  0
  1  6  2  0  0  0  0
  1  2  1  0  0  0  0
  1 26  1  0  0  0  0
  2  3  2  0  0  0  0
  2 27  1  0  0  0  0
  3  4  1  0  0  0  0
  3 28  1  0  0  0  0
  4  5  2  0  0  0  0
  4  7  1  0  0  0  0
  5  6  1  0  0  0  0
  5 29  1  0  0  0  0
  6 30  1  0  0  0  0
  7  8  1  0  0  0  0
  7 31  1  0  0  0  0
  8 25  2  0  0  0  0
  8  9  1  0  0  0  0
  9 14  1  0  0  0  0
  9 10  2  0  0  0  0
 10 11  1  0  0  0  0
 10 23  1  0  0  0  0
 11 12  1  0  0  0  0
 11 13  1  0  0  0  0
 13 14  2  0  0  0  0
 14 15  1  0  0  0  0
 15 16  1  0  0  0  0
 15 32  1  0  0  0  0
 16 21  2  0  0  0  0
 16 17  1  0  0  0  0
 17 18  2  0  0  0  0
 17 33  1  0  0  0  0
 18 19  1  0  0  0  0
 18 34  1  0  0  0  0
 19 20  2  0  0  0  0
 19 35  1  0  0  0  0
 20 21  1  0  0  0  0
 20 22  1  0  0  0  0
 21 36  1  0  0  0  0
 23 24  2  0  0  0  0
 24 25  1  0  0  0  0
 24 37  1  0  0  0  0
M  END
$$$$
ZINC03815265
  -OEChem-08230709403D

 37 40  0     0  0  0  0  0  0999 V2000
    0.1093    1.1111   -1.0131 C   0  0  0  0  0  0  0  0  0  0  0  0
    0.9634    1.7137   -0.1077 C   0  0  0  0  0  0  0  0  0  0  0  0
    0.9253    3.0822    0.0745 C   0  0  0  0  0  0  0  0  0  0  0  0
    0.0195    3.8519   -0.6441 C   0  0  0  0  0  0  0  0  0  0  0  0
   -0.8410    3.2428   -1.5486 C   0  0  0  0  0  0  0  0  0  0  0  0
   -0.7933    1.8746   -1.7305 C   0  0  0  0  0  0  0  0  0  0  0  0
   -0.0264    5.2365   -0.4572 N   0  0  0  0  0  0  0  0  0  0  0  0
   -1.2268    5.9109   -0.5785 C   0  0  0  0  0  0  0  0  0  0  0  0
   -1.2758    7.3131   -0.5045 C   0  0  0  0  0  0  0  0  0  0  0  0
   -2.5254    7.9504   -0.6350 C   0  0  0  0  0  0  0  0  0  0  0  0
   -2.2980    9.2888   -0.5278 N   0  0  0  0  0  0  0  0  0  0  0  0
   -2.9987   10.0003   -0.5807 H   0  0  0  0  0  0  0  0  0  0  0  0
   -0.9310    9.5129   -0.3321 N   0  0  0  0  0  0  0  0  0  0  0  0
   -0.2901    8.3724   -0.3119 C   0  0  0  0  0  0  0  0  0  0  0  0
    1.0849    8.2000   -0.1373 N   0  0  0  0  0  0  0  0  0  0  0  0
    1.9267    9.3134   -0.0805 C   0  0  0  0  0  0  0  0  0  0  0  0
    3.0992    9.2625    0.6637 C   0  0  0  0  0  0  0  0  0  0  0  0
    3.9297   10.3642    0.7178 C   0  0  0  0  0  0  0  0  0  0  0  0
    3.5963   11.5182    0.0323 C   0  0  0  0  0  0  0  0  0  0  0  0
    2.4298   11.5727   -0.7103 C   0  0  0  0  0  0  0  0  0  0  0  0
    1.5965   10.4715   -0.7724 C   0  0  0  0  0  0  0  0  0  0  0  0
    2.0157   13.0232   -1.5696 Cl  0  0  0  0  0  0  0  0  0  0  0  0
   -3.6096    7.1980   -0.8236 N   0  0  0  0  0  0  0  0  0  0  0  0
   -3.5146    5.8882   -0.8865 C   0  0  0  0  0  0  0  0  0  0  0  0
   -2.3634    5.2493   -0.7737 N   0  0  0  0  0  0  0  0  0  0  0  0
    0.1443    0.0413   -1.1570 H   0  0  0  0  0  0  0  0  0  0  0  0
    1.6641    1.1140    0.4542 H   0  0  0  0  0  0  0  0  0  0  0  0
    1.5954    3.5526    0.7788 H   0  0  0  0  0  0  0  0  0  0  0  0
   -1.5466    3.8384   -2.1087 H   0  0  0  0  0  0  0  0  0  0  0  0
   -1.4620    1.4004   -2.4336 H   0  0  0  0  0  0  0  0  0  0  0  0
    0.7842    5.7241   -0.2424 H   0  0  0  0  0  0  0  0  0  0  0  0
    1.4552    7.3073   -0.0554 H   0  0  0  0  0  0  0  0  0  0  0  0
    3.3604    8.3620    1.1997 H   0  0  0  0  0  0  0  0  0  0  0  0
    4.8412   10.3247    1.2958 H   0  0  0  0  0  0  0  0  0  0  0  0
    4.2478   12.3784    0.0763 H   0  0  0  0  0  0  0  0  0  0  0  0
    0.6883   10.5128   -1.3553 H   0  0  0  0  0  0  0  0  0  0  0  0
   -4.4142    5.3107   -1.0402 H   0  0  0  0  0  0  0  0  0  0  0  0
  1  6  2  0  0  0  0
  1  2  1  0  0  0  0
  1 26  1  0  0  0  0
  2  3  2  0  0  0  0
  2 27  1  0  0  0  0
  3  4  1  0  0  0  0
  3 28  1  0  0  0  0
  4  5  2  0  0  0  0
  4  7  1  0  0  0  0
  5  6  1  0  0  0  0
  5 29  1  0  0  0  0
  6 30  1  0  0  0  0
  7  8  1  0  0  0  0
  7 31  1  0  0  0  0
  8 25  2  0  0  0  0
  8  9  1  0  0  0  0
  9 14  1  0  0  0  0
  9 10  2  0  0  0  0
 10 11  1  0  0  0  0
 10 23  1  0  0  0  0
 11 12  1  0  0  0  0
 11 13  1  0  0  0  0
 13 14  2  0  0  0  0
 14 15  1  0  0  0  0
 15 16  1  0  0  0  0
 15 32  1  0  0  0  0
 16 21  2  0  0  0  0
 16 17  1  0  0  0  0
 17 18  2  0  0  0  0
 17 33  1  0  0  0  0
 18 19  1  0  0  0  0
 18 34  1  0  0  0  0
 19 20  2  0  0  0  0
 19 35  1  0  0  0  0
 20 21  1  0  0  0  0
 20 22  1  0  0  0  0
 21 36  1  0  0  0  0
 23 24  2  0  0  0  0
 24 25  1  0  0  0  0
 24 37  1  0  0  0  0
M  END
$$$$
ZINC03815266
  -OEChem-08230709403D

 36 38  0     0  0  0  0  0  0999 V2000
   -2.6449    7.8560    0.0996 C   0  0  0  0  0  0  0  0  0  0  0  0
   -1.3597    7.1621    0.2142 N   0  0  0  0  0  0  0  0  0  0  0  0
   -0.1174    7.9324    0.3111 C   0  0  0  0  0  0  0  0  0  0  0  0
   -1.3189    5.7653    0.2310 C   0  0  0  0  0  0  0  0  0  0  0  0
   -2.5070    5.0358    0.1201 C   0  0  0  0  0  0  0  0  0  0  0  0
   -2.4970    3.6743    0.1340 C   0  0  0  0  0  0  0  0  0  0  0  0
   -1.2817    2.9871    0.2609 C   0  0  0  0  0  0  0  0  0  0  0  0
   -0.0747    3.7196    0.3737 C   0  0  0  0  0  0  0  0  0  0  0  0
   -0.1067    5.1180    0.3573 C   0  0  0  0  0  0  0  0  0  0  0  0
    1.1372    2.9976    0.5002 C   0  0  0  0  0  0  0  0  0  0  0  0
    1.0794    1.6727    0.5065 N   0  0  0  0  0  0  0  0  0  0  0  0
   -0.0731    1.0308    0.3983 C   0  0  0  0  0  0  0  0  0  0  0  0
   -1.2244    1.6466    0.2734 N   0  0  0  0  0  0  0  0  0  0  0  0
    2.3456    3.6550    0.6133 N   0  0  0  0  0  0  0  0  0  0  0  0
    3.5177    2.9286    0.8421 C   0  0  0  0  0  0  0  0  0  0  0  0
    4.7190    3.3529    0.2880 C   0  0  0  0  0  0  0  0  0  0  0  0
    5.8755    2.6336    0.5161 C   0  0  0  0  0  0  0  0  0  0  0  0
    5.8393    1.4919    1.2957 C   0  0  0  0  0  0  0  0  0  0  0  0
    4.6450    1.0665    1.8497 C   0  0  0  0  0  0  0  0  0  0  0  0
    3.4848    1.7845    1.6286 C   0  0  0  0  0  0  0  0  0  0  0  0
    4.6011   -0.4945    2.9160 Br  0  0  0  0  0  0  0  0  0  0  0  0
   -3.0496    8.0379    1.0952 H   0  0  0  0  0  0  0  0  0  0  0  0
   -2.4999    8.8070   -0.4130 H   0  0  0  0  0  0  0  0  0  0  0  0
   -3.3413    7.2395   -0.4687 H   0  0  0  0  0  0  0  0  0  0  0  0
    0.7341    7.2521    0.2949 H   0  0  0  0  0  0  0  0  0  0  0  0
   -0.0494    8.6198   -0.5321 H   0  0  0  0  0  0  0  0  0  0  0  0
   -0.1126    8.4984    1.2426 H   0  0  0  0  0  0  0  0  0  0  0  0
   -3.4461    5.5601    0.0224 H   0  0  0  0  0  0  0  0  0  0  0  0
   -3.4230    3.1252    0.0477 H   0  0  0  0  0  0  0  0  0  0  0  0
    0.8083    5.6854    0.4425 H   0  0  0  0  0  0  0  0  0  0  0  0
   -0.0646   -0.0491    0.4090 H   0  0  0  0  0  0  0  0  0  0  0  0
    2.3815    4.6211    0.5340 H   0  0  0  0  0  0  0  0  0  0  0  0
    4.7483    4.2443   -0.3210 H   0  0  0  0  0  0  0  0  0  0  0  0
    6.8094    2.9632    0.0854 H   0  0  0  0  0  0  0  0  0  0  0  0
    6.7453    0.9314    1.4728 H   0  0  0  0  0  0  0  0  0  0  0  0
    2.5534    1.4546    2.0645 H   0  0  0  0  0  0  0  0  0  0  0  0
  1  2  1  0  0  0  0
  1 22  1  0  0  0  0
  1 23  1  0  0  0  0
  1 24  1  0  0  0  0
  2  3  1  0  0  0  0
  2  4  1  0  0  0  0
  3 25  1  0  0  0  0
  3 26  1  0  0  0  0
  3 27  1  0  0  0  0
  4  9  2  0  0  0  0
  4  5  1  0  0  0  0
  5  6  2  0  0  0  0
  5 28  1  0  0  0  0
  6  7  1  0  0  0  0
  6 29  1  0  0  0  0
  7 13  2  0  0  0  0
  7  8  1  0  0  0  0
  8  9  1  0  0  0  0
  8 10  2  0  0  0  0
  9 30  1  0  0  0  0
 10 11  1  0  0  0  0
 10 14  1  0  0  0  0
 11 12  2  0  0  0  0
 12 13  1  0  0  0  0
 12 31  1  0  0  0  0
 14 15  1  0  0  0  0
 14 32  1  0  0  0  0
 15 20  2  0  0  0  0
 15 16  1  0  0  0  0
 16 17  2  0  0  0  0
 16 33  1  0  0  0  0
 17 18  1  0  0  0  0
 17 34  1  0  0  0  0
 18 19  2  0  0  0  0
 18 35  1  0  0  0  0
 19 20  1  0  0  0  0
 19 21  1  0  0  0  0
 20 36  1  0  0  0  0
M  END
$$$$
ZINC03815267
  -OEChem-08230709403D

 45 48  0     1  0  0  0  0  0999 V2000
   -2.9001    3.3356   -1.2042 C   0  0  0  0  0  0  0  0  0  0  0  0
   -1.6465    2.5007   -1.1545 C   0  0  0  0  0  0  0  0  0  0  0  0
   -1.0366    2.2655   -2.1707 O   0  0  0  0  0  0  0  0  0  0  0  0
   -1.2074    2.0183    0.0187 O   0  0  0  0  0  0  0  0  0  0  0  0
   -0.0123    1.3697    0.0111 C   0  0  0  0  0  0  0  0  0  0  0  0
    0.0150    0.0041   -0.0230 C   0  0  0  0  0  0  0  0  0  0  0  0
    1.2447   -0.6645   -0.0368 C   0  0  0  0  0  0  0  0  0  0  0  0
    2.4522    0.0768   -0.0153 C   0  0  0  0  0  0  0  0  0  0  0  0
    2.4009    1.4754    0.0200 C   0  0  0  0  0  0  0  0  0  0  0  0
    1.1781    2.1096    0.0325 C   0  0  0  0  0  0  0  0  0  0  0  0
    1.1253    3.4665    0.0659 O   0  0  0  0  0  0  0  0  0  0  0  0
    2.3724    4.1640    0.0864 C   0  0  0  0  0  0  0  0  0  0  0  0
    3.6177   -0.5889   -0.0291 N   0  0  0  0  0  0  0  0  0  0  0  0
    3.6343   -1.9001   -0.0627 C   0  0  0  0  0  0  0  0  0  0  0  0
    2.5327   -2.6336   -0.0839 N   0  0  0  0  0  0  0  0  0  0  0  0
    1.3288   -2.0769   -0.0725 C   0  0  0  0  0  0  0  0  0  0  0  0
    0.1892   -2.8537   -0.0953 N   0  0  0  0  0  0  0  0  0  0  0  0
    0.2988   -4.3141   -0.1321 C   0  0  1  0  0  0  0  0  0  0  0  0
    1.3023   -4.7062   -0.2980 H   0  0  0  0  0  0  0  0  0  0  0  0
   -0.6307   -5.1156    0.7814 C   0  0  0  0  0  0  0  0  0  0  0  0
   -0.8731   -5.0957   -0.7291 C   0  0  1  0  0  0  0  0  0  0  0  0
   -0.6409   -6.0022   -1.2881 H   0  0  0  0  0  0  0  0  0  0  0  0
   -2.0520   -4.3044   -1.2343 C   0  0  0  0  0  0  0  0  0  0  0  0
   -2.7625   -3.4941   -0.3686 C   0  0  0  0  0  0  0  0  0  0  0  0
   -3.8412   -2.7648   -0.8329 C   0  0  0  0  0  0  0  0  0  0  0  0
   -4.2148   -2.8528   -2.1609 C   0  0  0  0  0  0  0  0  0  0  0  0
   -3.5074   -3.6672   -3.0254 C   0  0  0  0  0  0  0  0  0  0  0  0
   -2.4262   -4.3931   -2.5620 C   0  0  0  0  0  0  0  0  0  0  0  0
   -2.6418    4.3869   -1.0765 H   0  0  0  0  0  0  0  0  0  0  0  0
   -3.3913    3.1966   -2.1672 H   0  0  0  0  0  0  0  0  0  0  0  0
   -3.5739    3.0273   -0.4048 H   0  0  0  0  0  0  0  0  0  0  0  0
   -0.9077   -0.5568   -0.0389 H   0  0  0  0  0  0  0  0  0  0  0  0
    3.3134    2.0529    0.0370 H   0  0  0  0  0  0  0  0  0  0  0  0
    2.9427    3.9150   -0.8085 H   0  0  0  0  0  0  0  0  0  0  0  0
    2.1877    5.2379    0.1124 H   0  0  0  0  0  0  0  0  0  0  0  0
    2.9380    3.8711    0.9709 H   0  0  0  0  0  0  0  0  0  0  0  0
    4.5896   -2.4037   -0.0733 H   0  0  0  0  0  0  0  0  0  0  0  0
   -0.6848   -2.4330   -0.0869 H   0  0  0  0  0  0  0  0  0  0  0  0
   -0.2389   -6.0352    1.2162 H   0  0  0  0  0  0  0  0  0  0  0  0
   -1.3238   -4.5563    1.4098 H   0  0  0  0  0  0  0  0  0  0  0  0
   -2.4729   -3.4282    0.6698 H   0  0  0  0  0  0  0  0  0  0  0  0
   -4.3936   -2.1283   -0.1576 H   0  0  0  0  0  0  0  0  0  0  0  0
   -5.0592   -2.2851   -2.5231 H   0  0  0  0  0  0  0  0  0  0  0  0
   -3.7994   -3.7359   -4.0629 H   0  0  0  0  0  0  0  0  0  0  0  0
   -1.8735   -5.0293   -3.2375 H   0  0  0  0  0  0  0  0  0  0  0  0
  1  2  1  0  0  0  0
  1 29  1  0  0  0  0
  1 30  1  0  0  0  0
  1 31  1  0  0  0  0
  2  3  2  0  0  0  0
  2  4  1  0  0  0  0
  4  5  1  0  0  0  0
  5 10  2  0  0  0  0
  5  6  1  0  0  0  0
  6  7  2  0  0  0  0
  6 32  1  0  0  0  0
  7 16  1  0  0  0  0
  7  8  1  0  0  0  0
  8  9  2  0  0  0  0
  8 13  1  0  0  0  0
  9 10  1  0  0  0  0
  9 33  1  0  0  0  0
 10 11  1  0  0  0  0
 11 12  1  0  0  0  0
 12 34  1  0  0  0  0
 12 35  1  0  0  0  0
 12 36  1  0  0  0  0
 13 14  2  0  0  0  0
 14 15  1  0  0  0  0
 14 37  1  0  0  0  0
 15 16  2  0  0  0  0
 16 17  1  0  0  0  0
 17 18  1  0  0  0  0
 17 38  1  0  0  0  0
 18 19  1  0  0  0  0
 18 21  1  0  0  0  0
 18 20  1  0  0  0  0
 20 21  1  0  0  0  0
 20 39  1  0  0  0  0
 20 40  1  0  0  0  0
 21 22  1  0  0  0  0
 21 23  1  0  0  0  0
 23 28  2  0  0  0  0
 23 24  1  0  0  0  0
 24 25  2  0  0  0  0
 24 41  1  0  0  0  0
 25 26  1  0  0  0  0
 25 42  1  0  0  0  0
 26 27  2  0  0  0  0
 26 43  1  0  0  0  0
 27 28  1  0  0  0  0
 27 44  1  0  0  0  0
 28 45  1  0  0  0  0
M  END
$$$$
ZINC03815269
  -OEChem-08230709403D

 39 42  0     0  0  0  0  0  0999 V2000
    8.2597    0.3052    0.8737 C   0  0  0  0  0  0  0  0  0  0  0  0
    7.1366    0.4918    0.0101 O   0  0  0  0  0  0  0  0  0  0  0  0
    6.6077    1.7418   -0.0528 C   0  0  0  0  0  0  0  0  0  0  0  0
    5.5154    1.9914   -0.8726 C   0  0  0  0  0  0  0  0  0  0  0  0
    4.9763    3.2589   -0.9387 C   0  0  0  0  0  0  0  0  0  0  0  0
    5.5298    4.2906   -0.1814 C   0  0  0  0  0  0  0  0  0  0  0  0
    6.6307    4.0380    0.6362 C   0  0  0  0  0  0  0  0  0  0  0  0
    7.1612    2.7669    0.7025 C   0  0  0  0  0  0  0  0  0  0  0  0
    4.9528    5.6543   -0.2500 C   0  0  0  0  0  0  0  0  0  0  0  0
    3.5474    6.0110   -0.0574 C   0  0  0  0  0  0  0  0  0  0  0  0
    3.4651    7.4071   -0.2182 C   0  0  0  0  0  0  0  0  0  0  0  0
    4.7257    7.8494   -0.4889 N   0  0  0  0  0  0  0  0  0  0  0  0
    4.9800    8.8018   -0.6570 H   0  0  0  0  0  0  0  0  0  0  0  0
    5.6084    6.7641   -0.4951 N   0  0  0  0  0  0  0  0  0  0  0  0
    2.2772    7.9965   -0.0849 N   0  0  0  0  0  0  0  0  0  0  0  0
    1.2031    7.2878    0.1864 C   0  0  0  0  0  0  0  0  0  0  0  0
    1.2337    5.9763    0.3408 N   0  0  0  0  0  0  0  0  0  0  0  0
    2.3716    5.2977    0.2270 C   0  0  0  0  0  0  0  0  0  0  0  0
    2.3974    3.9251    0.3901 N   0  0  0  0  0  0  0  0  0  0  0  0
    1.2002    3.2105    0.4909 C   0  0  0  0  0  0  0  0  0  0  0  0
    1.1341    1.8966    0.0441 C   0  0  0  0  0  0  0  0  0  0  0  0
   -0.0499    1.1931    0.1444 C   0  0  0  0  0  0  0  0  0  0  0  0
   -1.1712    1.7964    0.6840 C   0  0  0  0  0  0  0  0  0  0  0  0
   -1.1079    3.1032    1.1349 C   0  0  0  0  0  0  0  0  0  0  0  0
    0.0745    3.8127    1.0373 C   0  0  0  0  0  0  0  0  0  0  0  0
   -2.5163    3.8543    1.8177 Cl  0  0  0  0  0  0  0  0  0  0  0  0
    8.5827   -0.7349    0.8303 H   0  0  0  0  0  0  0  0  0  0  0  0
    9.0759    0.9528    0.5534 H   0  0  0  0  0  0  0  0  0  0  0  0
    7.9773    0.5555    1.8963 H   0  0  0  0  0  0  0  0  0  0  0  0
    5.0872    1.1918   -1.4589 H   0  0  0  0  0  0  0  0  0  0  0  0
    4.1266    3.4523   -1.5766 H   0  0  0  0  0  0  0  0  0  0  0  0
    7.0644    4.8360    1.2206 H   0  0  0  0  0  0  0  0  0  0  0  0
    8.0109    2.5696    1.3393 H   0  0  0  0  0  0  0  0  0  0  0  0
    0.2573    7.7992    0.2874 H   0  0  0  0  0  0  0  0  0  0  0  0
    3.2463    3.4578    0.4347 H   0  0  0  0  0  0  0  0  0  0  0  0
    2.0079    1.4259   -0.3815 H   0  0  0  0  0  0  0  0  0  0  0  0
   -0.1015    0.1719   -0.2032 H   0  0  0  0  0  0  0  0  0  0  0  0
   -2.0972    1.2453    0.7571 H   0  0  0  0  0  0  0  0  0  0  0  0
    0.1226    4.8340    1.3851 H   0  0  0  0  0  0  0  0  0  0  0  0
  1  2  1  0  0  0  0
  1 27  1  0  0  0  0
  1 28  1  0  0  0  0
  1 29  1  0  0  0  0
  2  3  1  0  0  0  0
  3  8  2  0  0  0  0
  3  4  1  0  0  0  0
  4  5  2  0  0  0  0
  4 30  1  0  0  0  0
  5  6  1  0  0  0  0
  5 31  1  0  0  0  0
  6  7  2  0  0  0  0
  6  9  1  0  0  0  0
  7  8  1  0  0  0  0
  7 32  1  0  0  0  0
  8 33  1  0  0  0  0
  9 14  2  0  0  0  0
  9 10  1  0  0  0  0
 10 18  2  0  0  0  0
 10 11  1  0  0  0  0
 11 12  1  0  0  0  0
 11 15  2  0  0  0  0
 12 13  1  0  0  0  0
 12 14  1  0  0  0  0
 15 16  1  0  0  0  0
 16 17  2  0  0  0  0
 16 34  1  0  0  0  0
 17 18  1  0  0  0  0
 18 19  1  0  0  0  0
 19 20  1  0  0  0  0
 19 35  1  0  0  0  0
 20 25  2  0  0  0  0
 20 21  1  0  0  0  0
 21 22  2  0  0  0  0
 21 36  1  0  0  0  0
 22 23  1  0  0  0  0
 22 37  1  0  0  0  0
 23 24  2  0  0  0  0
 23 38  1  0  0  0  0
 24 25  1  0  0  0  0
 24 26  1  0  0  0  0
 25 39  1  0  0  0  0
M  END
$$$$
ZINC03815270
  -OEChem-08230709403D

 46 50  0     0  0  0  0  0  0999 V2000
    0.8652    1.3723    0.2735 C   0  0  0  0  0  0  0  0  0  0  0  0
   -0.3976    0.8118    0.1998 C   0  0  0  0  0  0  0  0  0  0  0  0
   -1.5114    1.6219    0.1184 C   0  0  0  0  0  0  0  0  0  0  0  0
   -1.3629    3.0093    0.1207 C   0  0  0  0  0  0  0  0  0  0  0  0
   -0.0866    3.5683    0.1952 C   0  0  0  0  0  0  0  0  0  0  0  0
    1.0195    2.7472    0.2714 C   0  0  0  0  0  0  0  0  0  0  0  0
   -2.5538    3.8843    0.0388 C   0  0  0  0  0  0  0  0  0  0  0  0
   -3.4881    3.9949   -1.0859 C   0  0  0  0  0  0  0  0  0  0  0  0
   -4.4547    4.9453   -0.7100 C   0  0  0  0  0  0  0  0  0  0  0  0
   -4.1420    5.3870    0.5478 N   0  0  0  0  0  0  0  0  0  0  0  0
   -4.6485    6.0481    1.0451 H   0  0  0  0  0  0  0  0  0  0  0  0
   -3.0096    4.7543    1.0080 C   0  0  0  0  0  0  0  0  0  0  0  0
   -2.3813    4.9740    2.3255 C   0  0  0  0  0  0  0  0  0  0  0  0
   -1.9629    3.8851    3.0938 C   0  0  0  0  0  0  0  0  0  0  0  0
   -1.3722    4.0980    4.3219 C   0  0  0  0  0  0  0  0  0  0  0  0
   -1.2032    5.3863    4.7979 C   0  0  0  0  0  0  0  0  0  0  0  0
   -1.6201    6.4696    4.0445 C   0  0  0  0  0  0  0  0  0  0  0  0
   -2.2075    6.2717    2.8123 C   0  0  0  0  0  0  0  0  0  0  0  0
   -5.4317    5.2316   -1.5698 N   0  0  0  0  0  0  0  0  0  0  0  0
   -5.4904    4.6396   -2.7434 C   0  0  0  0  0  0  0  0  0  0  0  0
   -4.6043    3.7426   -3.1353 N   0  0  0  0  0  0  0  0  0  0  0  0
   -3.5923    3.3899   -2.3471 C   0  0  0  0  0  0  0  0  0  0  0  0
   -2.6651    2.4495   -2.7614 N   0  0  0  0  0  0  0  0  0  0  0  0
   -2.8489    1.7722   -3.9702 C   0  0  0  0  0  0  0  0  0  0  0  0
   -1.7489    1.3878   -4.7270 C   0  0  0  0  0  0  0  0  0  0  0  0
   -1.9333    0.7183   -5.9206 C   0  0  0  0  0  0  0  0  0  0  0  0
   -3.2112    0.4296   -6.3633 C   0  0  0  0  0  0  0  0  0  0  0  0
   -4.3093    0.8104   -5.6122 C   0  0  0  0  0  0  0  0  0  0  0  0
   -4.1311    1.4770   -4.4143 C   0  0  0  0  0  0  0  0  0  0  0  0
   -5.9117    0.4453   -6.1716 Cl  0  0  0  0  0  0  0  0  0  0  0  0
    1.7342    0.7338    0.3333 H   0  0  0  0  0  0  0  0  0  0  0  0
   -0.5114   -0.2622    0.2015 H   0  0  0  0  0  0  0  0  0  0  0  0
   -2.4963    1.1832    0.0564 H   0  0  0  0  0  0  0  0  0  0  0  0
    0.0351    4.6415    0.1930 H   0  0  0  0  0  0  0  0  0  0  0  0
    2.0079    3.1787    0.3291 H   0  0  0  0  0  0  0  0  0  0  0  0
   -2.0979    2.8789    2.7253 H   0  0  0  0  0  0  0  0  0  0  0  0
   -1.0449    3.2572    4.9153 H   0  0  0  0  0  0  0  0  0  0  0  0
   -0.7435    5.5471    5.7619 H   0  0  0  0  0  0  0  0  0  0  0  0
   -1.4848    7.4724    4.4220 H   0  0  0  0  0  0  0  0  0  0  0  0
   -2.5321    7.1181    2.2252 H   0  0  0  0  0  0  0  0  0  0  0  0
   -6.2968    4.8978   -3.4137 H   0  0  0  0  0  0  0  0  0  0  0  0
   -1.8877    2.2606   -2.2130 H   0  0  0  0  0  0  0  0  0  0  0  0
   -0.7505    1.6128   -4.3822 H   0  0  0  0  0  0  0  0  0  0  0  0
   -1.0783    0.4195   -6.5089 H   0  0  0  0  0  0  0  0  0  0  0  0
   -3.3525   -0.0944   -7.2970 H   0  0  0  0  0  0  0  0  0  0  0  0
   -4.9880    1.7708   -3.8263 H   0  0  0  0  0  0  0  0  0  0  0  0
  1  6  2  0  0  0  0
  1  2  1  0  0  0  0
  1 31  1  0  0  0  0
  2  3  2  0  0  0  0
  2 32  1  0  0  0  0
  3  4  1  0  0  0  0
  3 33  1  0  0  0  0
  4  5  2  0  0  0  0
  4  7  1  0  0  0  0
  5  6  1  0  0  0  0
  5 34  1  0  0  0  0
  6 35  1  0  0  0  0
  7 12  2  0  0  0  0
  7  8  1  0  0  0  0
  8 22  2  0  0  0  0
  8  9  1  0  0  0  0
  9 10  1  0  0  0  0
  9 19  2  0  0  0  0
 10 11  1  0  0  0  0
 10 12  1  0  0  0  0
 12 13  1  0  0  0  0
 13 18  2  0  0  0  0
 13 14  1  0  0  0  0
 14 15  2  0  0  0  0
 14 36  1  0  0  0  0
 15 16  1  0  0  0  0
 15 37  1  0  0  0  0
 16 17  2  0  0  0  0
 16 38  1  0  0  0  0
 17 18  1  0  0  0  0
 17 39  1  0  0  0  0
 18 40  1  0  0  0  0
 19 20  1  0  0  0  0
 20 21  2  0  0  0  0
 20 41  1  0  0  0  0
 21 22  1  0  0  0  0
 22 23  1  0  0  0  0
 23 24  1  0  0  0  0
 23 42  1  0  0  0  0
 24 29  2  0  0  0  0
 24 25  1  0  0  0  0
 25 26  2  0  0  0  0
 25 43  1  0  0  0  0
 26 27  1  0  0  0  0
 26 44  1  0  0  0  0
 27 28  2  0  0  0  0
 27 45  1  0  0  0  0
 28 29  1  0  0  0  0
 28 30  1  0  0  0  0
 29 46  1  0  0  0  0
M  END
$$$$
ZINC03815272
  -OEChem-08230709403D

 44 46  0     0  0  0  0  0  0999 V2000
   -0.3774    1.3793   -0.3595 C   0  0  0  0  0  0  0  0  0  0  0  0
   -1.0848    1.9095    0.7631 O   0  0  0  0  0  0  0  0  0  0  0  0
   -1.9769    1.0866    1.3751 C   0  0  0  0  0  0  0  0  0  0  0  0
   -2.1666   -0.2100    0.8915 C   0  0  0  0  0  0  0  0  0  0  0  0
   -3.0494   -1.0586    1.4880 C   0  0  0  0  0  0  0  0  0  0  0  0
   -3.7900   -0.6269    2.5969 C   0  0  0  0  0  0  0  0  0  0  0  0
   -3.6061    0.6887    3.0883 C   0  0  0  0  0  0  0  0  0  0  0  0
   -2.6897    1.5414    2.4635 C   0  0  0  0  0  0  0  0  0  0  0  0
   -4.3680    1.0967    4.2103 C   0  0  0  0  0  0  0  0  0  0  0  0
   -5.2145    0.2255    4.7431 N   0  0  0  0  0  0  0  0  0  0  0  0
   -5.3527   -0.9945    4.2492 C   0  0  0  0  0  0  0  0  0  0  0  0
   -4.6742   -1.4264    3.2130 N   0  0  0  0  0  0  0  0  0  0  0  0
   -4.2331    2.3656    4.7351 N   0  0  0  0  0  0  0  0  0  0  0  0
   -5.0763    2.7887    5.7690 C   0  0  0  0  0  0  0  0  0  0  0  0
   -6.3862    2.3319    5.8269 C   0  0  0  0  0  0  0  0  0  0  0  0
   -7.2204    2.7466    6.8531 C   0  0  0  0  0  0  0  0  0  0  0  0
   -6.7485    3.6278    7.8187 C   0  0  0  0  0  0  0  0  0  0  0  0
   -5.4388    4.0888    7.7571 C   0  0  0  0  0  0  0  0  0  0  0  0
   -4.6043    3.6694    6.7329 C   0  0  0  0  0  0  0  0  0  0  0  0
   -4.9762    4.9514    8.7011 O   0  0  0  0  0  0  0  0  0  0  0  0
   -3.6202    5.3845    8.5756 C   0  0  0  0  0  0  0  0  0  0  0  0
   -7.5687    4.0391    8.8248 O   0  0  0  0  0  0  0  0  0  0  0  0
   -8.3395    5.2196    8.5919 C   0  0  0  0  0  0  0  0  0  0  0  0
   -8.5017    2.2947    6.9128 O   0  0  0  0  0  0  0  0  0  0  0  0
   -8.9194    1.3912    5.8876 C   0  0  0  0  0  0  0  0  0  0  0  0
    0.1956    0.5058   -0.0484 H   0  0  0  0  0  0  0  0  0  0  0  0
    0.3003    2.1370   -0.7529 H   0  0  0  0  0  0  0  0  0  0  0  0
   -1.0883    1.0905   -1.1337 H   0  0  0  0  0  0  0  0  0  0  0  0
   -1.6016   -0.5462    0.0347 H   0  0  0  0  0  0  0  0  0  0  0  0
   -3.1818   -2.0596    1.1048 H   0  0  0  0  0  0  0  0  0  0  0  0
   -2.5425    2.5465    2.8303 H   0  0  0  0  0  0  0  0  0  0  0  0
   -6.0557   -1.6651    4.7208 H   0  0  0  0  0  0  0  0  0  0  0  0
   -3.5538    2.9645    4.3875 H   0  0  0  0  0  0  0  0  0  0  0  0
   -6.7540    1.6503    5.0742 H   0  0  0  0  0  0  0  0  0  0  0  0
   -3.5865    4.0275    6.6849 H   0  0  0  0  0  0  0  0  0  0  0  0
   -3.3801    6.0676    9.3903 H   0  0  0  0  0  0  0  0  0  0  0  0
   -2.9573    4.5204    8.6186 H   0  0  0  0  0  0  0  0  0  0  0  0
   -3.4890    5.8960    7.6220 H   0  0  0  0  0  0  0  0  0  0  0  0
   -7.6705    6.0580    8.3982 H   0  0  0  0  0  0  0  0  0  0  0  0
   -8.9882    5.0657    7.7295 H   0  0  0  0  0  0  0  0  0  0  0  0
   -8.9479    5.4355    9.4702 H   0  0  0  0  0  0  0  0  0  0  0  0
   -8.2929    0.4995    5.9117 H   0  0  0  0  0  0  0  0  0  0  0  0
   -9.9592    1.1093    6.0532 H   0  0  0  0  0  0  0  0  0  0  0  0
   -8.8246    1.8755    4.9157 H   0  0  0  0  0  0  0  0  0  0  0  0
  1  2  1  0  0  0  0
  1 26  1  0  0  0  0
  1 27  1  0  0  0  0
  1 28  1  0  0  0  0
  2  3  1  0  0  0  0
  3  8  2  0  0  0  0
  3  4  1  0  0  0  0
  4  5  2  0  0  0  0
  4 29  1  0  0  0  0
  5  6  1  0  0  0  0
  5 30  1  0  0  0  0
  6 12  2  0  0  0  0
  6  7  1  0  0  0  0
  7  8  1  0  0  0  0
  7  9  2  0  0  0  0
  8 31  1  0  0  0  0
  9 10  1  0  0  0  0
  9 13  1  0  0  0  0
 10 11  2  0  0  0  0
 11 12  1  0  0  0  0
 11 32  1  0  0  0  0
 13 14  1  0  0  0  0
 13 33  1  0  0  0  0
 14 19  2  0  0  0  0
 14 15  1  0  0  0  0
 15 16  2  0  0  0  0
 15 34  1  0  0  0  0
 16 17  1  0  0  0  0
 16 24  1  0  0  0  0
 17 18  2  0  0  0  0
 17 22  1  0  0  0  0
 18 19  1  0  0  0  0
 18 20  1  0  0  0  0
 19 35  1  0  0  0  0
 20 21  1  0  0  0  0
 21 36  1  0  0  0  0
 21 37  1  0  0  0  0
 21 38  1  0  0  0  0
 22 23  1  0  0  0  0
 23 39  1  0  0  0  0
 23 40  1  0  0  0  0
 23 41  1  0  0  0  0
 24 25  1  0  0  0  0
 25 42  1  0  0  0  0
 25 43  1  0  0  0  0
 25 44  1  0  0  0  0
M  END
$$$$
ZINC03815273
  -OEChem-08230709403D

 39 41  0     0  0  0  0  0  0999 V2000
   -2.9544    4.0253   -1.2959 C   0  0  0  0  0  0  0  0  0  0  0  0
   -2.4991    3.6455    0.0438 N   0  0  0  0  0  0  0  0  0  0  0  0
   -3.2959    3.9240    1.1579 C   0  0  0  0  0  0  0  0  0  0  0  0
   -4.5669    4.4591    0.9884 C   0  0  0  0  0  0  0  0  0  0  0  0
   -5.3523    4.7328    2.0907 C   0  0  0  0  0  0  0  0  0  0  0  0
   -4.8756    4.4747    3.3629 C   0  0  0  0  0  0  0  0  0  0  0  0
   -3.6105    3.9413    3.5358 C   0  0  0  0  0  0  0  0  0  0  0  0
   -2.8212    3.6610    2.4361 C   0  0  0  0  0  0  0  0  0  0  0  0
   -3.0167    3.6177    5.1347 Cl  0  0  0  0  0  0  0  0  0  0  0  0
   -1.2829    3.0125    0.2058 C   0  0  0  0  0  0  0  0  0  0  0  0
   -0.0840    3.7575    0.3071 C   0  0  0  0  0  0  0  0  0  0  0  0
   -0.0740    5.1566    0.2485 C   0  0  0  0  0  0  0  0  0  0  0  0
    1.1101    5.8293    0.3507 C   0  0  0  0  0  0  0  0  0  0  0  0
    2.3172    5.1345    0.5138 C   0  0  0  0  0  0  0  0  0  0  0  0
    2.3342    3.7590    0.5745 C   0  0  0  0  0  0  0  0  0  0  0  0
    1.1315    3.0488    0.4718 C   0  0  0  0  0  0  0  0  0  0  0  0
    1.0942    1.7081    0.5246 N   0  0  0  0  0  0  0  0  0  0  0  0
   -0.0477    1.0702    0.4251 C   0  0  0  0  0  0  0  0  0  0  0  0
   -1.2064    1.6894    0.2653 N   0  0  0  0  0  0  0  0  0  0  0  0
    3.4822    5.8260    0.6136 O   0  0  0  0  0  0  0  0  0  0  0  0
    4.6782    5.0616    0.7789 C   0  0  0  0  0  0  0  0  0  0  0  0
    1.1187    7.1879    0.2942 O   0  0  0  0  0  0  0  0  0  0  0  0
   -0.1427    7.8382    0.1269 C   0  0  0  0  0  0  0  0  0  0  0  0
   -3.6060    3.2467   -1.6925 H   0  0  0  0  0  0  0  0  0  0  0  0
   -3.5037    4.9651   -1.2400 H   0  0  0  0  0  0  0  0  0  0  0  0
   -2.0924    4.1467   -1.9518 H   0  0  0  0  0  0  0  0  0  0  0  0
   -4.9402    4.6611   -0.0047 H   0  0  0  0  0  0  0  0  0  0  0  0
   -6.3402    5.1488    1.9590 H   0  0  0  0  0  0  0  0  0  0  0  0
   -5.4922    4.6894    4.2232 H   0  0  0  0  0  0  0  0  0  0  0  0
   -1.8352    3.2413    2.5710 H   0  0  0  0  0  0  0  0  0  0  0  0
   -0.9983    5.7010    0.1234 H   0  0  0  0  0  0  0  0  0  0  0  0
    3.2682    3.2316    0.7006 H   0  0  0  0  0  0  0  0  0  0  0  0
   -0.0414   -0.0088    0.4712 H   0  0  0  0  0  0  0  0  0  0  0  0
    4.6088    4.4714    1.6926 H   0  0  0  0  0  0  0  0  0  0  0  0
    4.8049    4.3959   -0.0749 H   0  0  0  0  0  0  0  0  0  0  0  0
    5.5332    5.7344    0.8450 H   0  0  0  0  0  0  0  0  0  0  0  0
   -0.6003    7.5091   -0.8061 H   0  0  0  0  0  0  0  0  0  0  0  0
   -0.7961    7.5839    0.9615 H   0  0  0  0  0  0  0  0  0  0  0  0
    0.0060    8.9176    0.0977 H   0  0  0  0  0  0  0  0  0  0  0  0
  1  2  1  0  0  0  0
  1 24  1  0  0  0  0
  1 25  1  0  0  0  0
  1 26  1  0  0  0  0
  2  3  1  0  0  0  0
  2 10  1  0  0  0  0
  3  8  2  0  0  0  0
  3  4  1  0  0  0  0
  4  5  2  0  0  0  0
  4 27  1  0  0  0  0
  5  6  1  0  0  0  0
  5 28  1  0  0  0  0
  6  7  2  0  0  0  0
  6 29  1  0  0  0  0
  7  8  1  0  0  0  0
  7  9  1  0  0  0  0
  8 30  1  0  0  0  0
 10 19  2  0  0  0  0
 10 11  1  0  0  0  0
 11 16  2  0  0  0  0
 11 12  1  0  0  0  0
 12 13  2  0  0  0  0
 12 31  1  0  0  0  0
 13 14  1  0  0  0  0
 13 22  1  0  0  0  0
 14 15  2  0  0  0  0
 14 20  1  0  0  0  0
 15 16  1  0  0  0  0
 15 32  1  0  0  0  0
 16 17  1  0  0  0  0
 17 18  2  0  0  0  0
 18 19  1  0  0  0  0
 18 33  1  0  0  0  0
 20 21  1  0  0  0  0
 21 34  1  0  0  0  0
 21 35  1  0  0  0  0
 21 36  1  0  0  0  0
 22 23  1  0  0  0  0
 23 37  1  0  0  0  0
 23 38  1  0  0  0  0
 23 39  1  0  0  0  0
M  END
$$$$
ZINC03815274
  -OEChem-08230709403D

 30 32  0     0  0  0  0  0  0999 V2000
   -0.0103    1.0762   -0.0255 C   0  0  0  0  0  0  0  0  0  0  0  0
    0.9256    1.7694    0.7201 C   0  0  0  0  0  0  0  0  0  0  0  0
    0.9125    3.1503    0.7362 C   0  0  0  0  0  0  0  0  0  0  0  0
   -0.0492    3.8426    0.0114 C   0  0  0  0  0  0  0  0  0  0  0  0
   -0.9913    3.1431   -0.7319 C   0  0  0  0  0  0  0  0  0  0  0  0
   -0.9691    1.7623   -0.7481 C   0  0  0  0  0  0  0  0  0  0  0  0
   -0.0691    5.2402    0.0304 N   0  0  0  0  0  0  0  0  0  0  0  0
   -1.2698    5.9144   -0.0587 C   0  0  0  0  0  0  0  0  0  0  0  0
   -1.3048    7.3253   -0.1588 C   0  0  0  0  0  0  0  0  0  0  0  0
   -0.1359    8.0966   -0.1722 C   0  0  0  0  0  0  0  0  0  0  0  0
   -0.2219    9.4517   -0.2705 C   0  0  0  0  0  0  0  0  0  0  0  0
   -1.4661   10.0866   -0.3592 C   0  0  0  0  0  0  0  0  0  0  0  0
   -2.6350    9.3516   -0.3484 C   0  0  0  0  0  0  0  0  0  0  0  0
   -2.5699    7.9579   -0.2476 C   0  0  0  0  0  0  0  0  0  0  0  0
   -3.6747    7.1956   -0.2331 N   0  0  0  0  0  0  0  0  0  0  0  0
   -3.5808    5.8905   -0.1384 C   0  0  0  0  0  0  0  0  0  0  0  0
   -2.4221    5.2563   -0.0583 N   0  0  0  0  0  0  0  0  0  0  0  0
   -1.5258   11.4749   -0.4598 N   0  0  0  0  0  0  0  0  0  0  0  0
    0.0048   -0.0036   -0.0398 H   0  0  0  0  0  0  0  0  0  0  0  0
    1.6700    1.2303    1.2872 H   0  0  0  0  0  0  0  0  0  0  0  0
    1.6465    3.6911    1.3151 H   0  0  0  0  0  0  0  0  0  0  0  0
   -1.7406    3.6784   -1.2962 H   0  0  0  0  0  0  0  0  0  0  0  0
   -1.7016    1.2178   -1.3256 H   0  0  0  0  0  0  0  0  0  0  0  0
    0.7612    5.7361    0.1062 H   0  0  0  0  0  0  0  0  0  0  0  0
    0.8300    7.6183   -0.1051 H   0  0  0  0  0  0  0  0  0  0  0  0
    0.6811   10.0441   -0.2806 H   0  0  0  0  0  0  0  0  0  0  0  0
   -3.5914    9.8485   -0.4175 H   0  0  0  0  0  0  0  0  0  0  0  0
   -4.4897    5.3072   -0.1296 H   0  0  0  0  0  0  0  0  0  0  0  0
   -0.7078   11.9962   -0.4682 H   0  0  0  0  0  0  0  0  0  0  0  0
   -2.3853   11.9202   -0.5215 H   0  0  0  0  0  0  0  0  0  0  0  0
  1  6  2  0  0  0  0
  1  2  1  0  0  0  0
  1 19  1  0  0  0  0
  2  3  2  0  0  0  0
  2 20  1  0  0  0  0
  3  4  1  0  0  0  0
  3 21  1  0  0  0  0
  4  5  2  0  0  0  0
  4  7  1  0  0  0  0
  5  6  1  0  0  0  0
  5 22  1  0  0  0  0
  6 23  1  0  0  0  0
  7  8  1  0  0  0  0
  7 24  1  0  0  0  0
  8 17  2  0  0  0  0
  8  9  1  0  0  0  0
  9 14  2  0  0  0  0
  9 10  1  0  0  0  0
 10 11  2  0  0  0  0
 10 25  1  0  0  0  0
 11 12  1  0  0  0  0
 11 26  1  0  0  0  0
 12 13  2  0  0  0  0
 12 18  1  0  0  0  0
 13 14  1  0  0  0  0
 13 27  1  0  0  0  0
 14 15  1  0  0  0  0
 15 16  2  0  0  0  0
 16 17  1  0  0  0  0
 16 28  1  0  0  0  0
 18 29  1  0  0  0  0
 18 30  1  0  0  0  0
M  END
$$$$
ZINC03815275
  -OEChem-08230709403D

 54 56  0     0  0  0  0  0  0999 V2000
    9.5402    4.3522    0.7971 C   0  0  0  0  0  0  0  0  0  0  0  0
    8.3469    3.4086    0.6338 C   0  0  0  0  0  0  0  0  0  0  0  0
    7.0657    4.2294    0.4737 C   0  0  0  0  0  0  0  0  0  0  0  0
    5.8725    3.2858    0.3104 C   0  0  0  0  0  0  0  0  0  0  0  0
    4.6759    4.0526    0.1608 O   0  0  0  0  0  0  0  0  0  0  0  0
    3.5154    3.3614    0.0039 C   0  0  0  0  0  0  0  0  0  0  0  0
    3.5385    1.9956   -0.0045 C   0  0  0  0  0  0  0  0  0  0  0  0
    2.3443    1.2830   -0.1660 C   0  0  0  0  0  0  0  0  0  0  0  0
    1.1206    1.9806   -0.3200 C   0  0  0  0  0  0  0  0  0  0  0  0
    1.1201    3.3807   -0.3075 C   0  0  0  0  0  0  0  0  0  0  0  0
    2.3085    4.0583   -0.1471 C   0  0  0  0  0  0  0  0  0  0  0  0
    2.3110    5.4167   -0.1347 O   0  0  0  0  0  0  0  0  0  0  0  0
    1.0496    6.0693   -0.2931 C   0  0  0  0  0  0  0  0  0  0  0  0
    1.2511    7.5854   -0.2533 C   0  0  0  0  0  0  0  0  0  0  0  0
   -0.0994    8.2840   -0.4230 C   0  0  0  0  0  0  0  0  0  0  0  0
    0.1021    9.8002   -0.3832 C   0  0  0  0  0  0  0  0  0  0  0  0
   -0.0100    1.2732   -0.4726 N   0  0  0  0  0  0  0  0  0  0  0  0
    0.0218   -0.0382   -0.4786 C   0  0  0  0  0  0  0  0  0  0  0  0
    1.1403   -0.7318   -0.3387 N   0  0  0  0  0  0  0  0  0  0  0  0
    2.3130   -0.1318   -0.1814 C   0  0  0  0  0  0  0  0  0  0  0  0
    3.4719   -0.8679   -0.0362 N   0  0  0  0  0  0  0  0  0  0  0  0
    3.4074   -2.2607    0.0624 C   0  0  0  0  0  0  0  0  0  0  0  0
    4.4332   -3.0433   -0.4528 C   0  0  0  0  0  0  0  0  0  0  0  0
    4.3671   -4.4190   -0.3535 C   0  0  0  0  0  0  0  0  0  0  0  0
    3.2815   -5.0185    0.2584 C   0  0  0  0  0  0  0  0  0  0  0  0
    2.2581   -4.2425    0.7730 C   0  0  0  0  0  0  0  0  0  0  0  0
    2.3205   -2.8649    0.6807 C   0  0  0  0  0  0  0  0  0  0  0  0
    0.7761   -5.0671    1.6093 Br  0  0  0  0  0  0  0  0  0  0  0  0
    9.6238    4.9880   -0.0843 H   0  0  0  0  0  0  0  0  0  0  0  0
    9.3939    4.9734    1.6807 H   0  0  0  0  0  0  0  0  0  0  0  0
   10.4529    3.7673    0.9112 H   0  0  0  0  0  0  0  0  0  0  0  0
    8.2632    2.7727    1.5151 H   0  0  0  0  0  0  0  0  0  0  0  0
    8.4932    2.7874   -0.2498 H   0  0  0  0  0  0  0  0  0  0  0  0
    7.1494    4.8653   -0.4077 H   0  0  0  0  0  0  0  0  0  0  0  0
    6.9194    4.8506    1.3573 H   0  0  0  0  0  0  0  0  0  0  0  0
    5.7888    2.6500    1.1917 H   0  0  0  0  0  0  0  0  0  0  0  0
    6.0188    2.6646   -0.5733 H   0  0  0  0  0  0  0  0  0  0  0  0
    4.4735    1.4680    0.1133 H   0  0  0  0  0  0  0  0  0  0  0  0
    0.1948    3.9253   -0.4232 H   0  0  0  0  0  0  0  0  0  0  0  0
    0.6117    5.7859   -1.2503 H   0  0  0  0  0  0  0  0  0  0  0  0
    0.3818    5.7702    0.5147 H   0  0  0  0  0  0  0  0  0  0  0  0
    1.6890    7.8687    0.7038 H   0  0  0  0  0  0  0  0  0  0  0  0
    1.9190    7.8845   -1.0612 H   0  0  0  0  0  0  0  0  0  0  0  0
   -0.5373    8.0007   -1.3801 H   0  0  0  0  0  0  0  0  0  0  0  0
   -0.7673    7.9849    0.3848 H   0  0  0  0  0  0  0  0  0  0  0  0
    0.5400   10.0835    0.5739 H   0  0  0  0  0  0  0  0  0  0  0  0
    0.7700   10.0993   -1.1911 H   0  0  0  0  0  0  0  0  0  0  0  0
   -0.8600   10.2979   -0.5041 H   0  0  0  0  0  0  0  0  0  0  0  0
   -0.9064   -0.5760   -0.6035 H   0  0  0  0  0  0  0  0  0  0  0  0
    4.3309   -0.4186   -0.0026 H   0  0  0  0  0  0  0  0  0  0  0  0
    5.2815   -2.5761   -0.9308 H   0  0  0  0  0  0  0  0  0  0  0  0
    5.1645   -5.0276   -0.7539 H   0  0  0  0  0  0  0  0  0  0  0  0
    3.2325   -6.0947    0.3350 H   0  0  0  0  0  0  0  0  0  0  0  0
    1.5236   -2.2591    1.0862 H   0  0  0  0  0  0  0  0  0  0  0  0
  1  2  1  0  0  0  0
  1 29  1  0  0  0  0
  1 30  1  0  0  0  0
  1 31  1  0  0  0  0
  2  3  1  0  0  0  0
  2 32  1  0  0  0  0
  2 33  1  0  0  0  0
  3  4  1  0  0  0  0
  3 34  1  0  0  0  0
  3 35  1  0  0  0  0
  4  5  1  0  0  0  0
  4 36  1  0  0  0  0
  4 37  1  0  0  0  0
  5  6  1  0  0  0  0
  6 11  2  0  0  0  0
  6  7  1  0  0  0  0
  7  8  2  0  0  0  0
  7 38  1  0  0  0  0
  8 20  1  0  0  0  0
  8  9  1  0  0  0  0
  9 10  2  0  0  0  0
  9 17  1  0  0  0  0
 10 11  1  0  0  0  0
 10 39  1  0  0  0  0
 11 12  1  0  0  0  0
 12 13  1  0  0  0  0
 13 14  1  0  0  0  0
 13 40  1  0  0  0  0
 13 41  1  0  0  0  0
 14 15  1  0  0  0  0
 14 42  1  0  0  0  0
 14 43  1  0  0  0  0
 15 16  1  0  0  0  0
 15 44  1  0  0  0  0
 15 45  1  0  0  0  0
 16 46  1  0  0  0  0
 16 47  1  0  0  0  0
 16 48  1  0  0  0  0
 17 18  2  0  0  0  0
 18 19  1  0  0  0  0
 18 49  1  0  0  0  0
 19 20  2  0  0  0  0
 20 21  1  0  0  0  0
 21 22  1  0  0  0  0
 21 50  1  0  0  0  0
 22 27  2  0  0  0  0
 22 23  1  0  0  0  0
 23 24  2  0  0  0  0
 23 51  1  0  0  0  0
 24 25  1  0  0  0  0
 24 52  1  0  0  0  0
 25 26  2  0  0  0  0
 25 53  1  0  0  0  0
 26 27  1  0  0  0  0
 26 28  1  0  0  0  0
 27 54  1  0  0  0  0
M  END
$$$$
ZINC03815276
  -OEChem-08230709403D

 30 32  0     0  0  0  0  0  0999 V2000
    3.6715   -4.5001   -0.8124 C   0  0  0  0  0  0  0  0  0  0  0  0
    3.9028   -3.1471   -0.6580 C   0  0  0  0  0  0  0  0  0  0  0  0
    2.8436   -2.2509   -0.7216 C   0  0  0  0  0  0  0  0  0  0  0  0
    1.5533   -2.7192   -0.9352 C   0  0  0  0  0  0  0  0  0  0  0  0
    1.3291   -4.0733   -1.0936 C   0  0  0  0  0  0  0  0  0  0  0  0
    2.3872   -4.9632   -1.0296 C   0  0  0  0  0  0  0  0  0  0  0  0
   -0.4258   -4.7120   -1.3909 Br  0  0  0  0  0  0  0  0  0  0  0  0
    3.0746   -0.8812   -0.5653 N   0  0  0  0  0  0  0  0  0  0  0  0
    2.1482   -0.0955    0.0894 C   0  0  0  0  0  0  0  0  0  0  0  0
    2.2796    1.3111    0.1165 C   0  0  0  0  0  0  0  0  0  0  0  0
    3.3473    1.9742   -0.5141 C   0  0  0  0  0  0  0  0  0  0  0  0
    3.4169    3.3537   -0.4508 C   0  0  0  0  0  0  0  0  0  0  0  0
    2.4470    4.0811    0.2272 C   0  0  0  0  0  0  0  0  0  0  0  0
    1.4023    3.4589    0.8464 C   0  0  0  0  0  0  0  0  0  0  0  0
    1.2965    2.0633    0.8044 C   0  0  0  0  0  0  0  0  0  0  0  0
    0.2856    1.4105    1.3990 N   0  0  0  0  0  0  0  0  0  0  0  0
    0.2141    0.1017    1.3413 C   0  0  0  0  0  0  0  0  0  0  0  0
    1.1094   -0.6408    0.7104 N   0  0  0  0  0  0  0  0  0  0  0  0
    4.3218    1.2510   -1.1936 N   0  0  0  0  0  0  0  0  0  0  0  0
    4.4950   -5.1971   -0.7630 H   0  0  0  0  0  0  0  0  0  0  0  0
    4.9065   -2.7862   -0.4884 H   0  0  0  0  0  0  0  0  0  0  0  0
    0.7269   -2.0253   -0.9807 H   0  0  0  0  0  0  0  0  0  0  0  0
    2.2090   -6.0217   -1.1492 H   0  0  0  0  0  0  0  0  0  0  0  0
    3.8862   -0.4830   -0.9170 H   0  0  0  0  0  0  0  0  0  0  0  0
    4.2333    3.8706   -0.9331 H   0  0  0  0  0  0  0  0  0  0  0  0
    2.5208    5.1580    0.2646 H   0  0  0  0  0  0  0  0  0  0  0  0
    0.6578    4.0422    1.3679 H   0  0  0  0  0  0  0  0  0  0  0  0
   -0.6128   -0.3917    1.8304 H   0  0  0  0  0  0  0  0  0  0  0  0
    4.0628    0.5947   -1.8592 H   0  0  0  0  0  0  0  0  0  0  0  0
    5.2604    1.4029   -1.0018 H   0  0  0  0  0  0  0  0  0  0  0  0
  1  6  2  0  0  0  0
  1  2  1  0  0  0  0
  1 20  1  0  0  0  0
  2  3  2  0  0  0  0
  2 21  1  0  0  0  0
  3  4  1  0  0  0  0
  3  8  1  0  0  0  0
  4  5  2  0  0  0  0
  4 22  1  0  0  0  0
  5  6  1  0  0  0  0
  5  7  1  0  0  0  0
  6 23  1  0  0  0  0
  8  9  1  0  0  0  0
  8 24  1  0  0  0  0
  9 18  2  0  0  0  0
  9 10  1  0  0  0  0
 10 15  2  0  0  0  0
 10 11  1  0  0  0  0
 11 12  2  0  0  0  0
 11 19  1  0  0  0  0
 12 13  1  0  0  0  0
 12 25  1  0  0  0  0
 13 14  2  0  0  0  0
 13 26  1  0  0  0  0
 14 15  1  0  0  0  0
 14 27  1  0  0  0  0
 15 16  1  0  0  0  0
 16 17  2  0  0  0  0
 17 18  1  0  0  0  0
 17 28  1  0  0  0  0
 19 29  1  0  0  0  0
 19 30  1  0  0  0  0
M  END
$$$$
ZINC03815277
  -OEChem-08230709403D

 39 42  0     0  0  0  0  0  0999 V2000
   -4.8476   -2.9093    0.4596 C   0  0  0  0  0  0  0  0  0  0  0  0
   -3.5591   -2.1373    0.3381 C   0  0  0  0  0  0  0  0  0  0  0  0
   -3.5358   -0.9377   -0.3494 C   0  0  0  0  0  0  0  0  0  0  0  0
   -2.3566   -0.2277   -0.4626 C   0  0  0  0  0  0  0  0  0  0  0  0
   -1.1932   -0.7199    0.1151 C   0  0  0  0  0  0  0  0  0  0  0  0
   -1.2190   -1.9278    0.8005 C   0  0  0  0  0  0  0  0  0  0  0  0
   -2.4025   -2.6304    0.9140 C   0  0  0  0  0  0  0  0  0  0  0  0
    0.0021   -0.0041    0.0020 N   0  0  0  0  0  0  0  0  0  0  0  0
   -0.0159    1.3799    0.0176 C   0  0  0  0  0  0  0  0  0  0  0  0
    1.1562    2.1167   -0.2147 C   0  0  0  0  0  0  0  0  0  0  0  0
    2.5461    1.7918   -0.5026 C   0  0  0  0  0  0  0  0  0  0  0  0
    3.2099    2.9577   -0.6249 C   0  0  0  0  0  0  0  0  0  0  0  0
    2.3423    3.9995   -0.4379 N   0  0  0  0  0  0  0  0  0  0  0  0
    2.5839    4.9381   -0.4771 H   0  0  0  0  0  0  0  0  0  0  0  0
    1.0837    3.5232   -0.1866 C   0  0  0  0  0  0  0  0  0  0  0  0
   -0.0937    4.0954    0.0585 N   0  0  0  0  0  0  0  0  0  0  0  0
   -1.1661    3.3641    0.2706 C   0  0  0  0  0  0  0  0  0  0  0  0
   -1.1448    2.0435    0.2475 N   0  0  0  0  0  0  0  0  0  0  0  0
    4.6881    3.0531   -0.9242 C   0  0  0  0  0  0  0  0  0  0  0  0
    5.3317    1.6912   -0.6410 C   0  0  0  0  0  0  0  0  0  0  0  0
    4.5307    0.5914   -1.3437 C   0  0  0  0  0  0  0  0  0  0  0  0
    3.1734    0.4294   -0.6482 C   0  0  0  0  0  0  0  0  0  0  0  0
   -4.9392   -3.5979   -0.3804 H   0  0  0  0  0  0  0  0  0  0  0  0
   -4.8471   -3.4726    1.3928 H   0  0  0  0  0  0  0  0  0  0  0  0
   -5.6885   -2.2158    0.4543 H   0  0  0  0  0  0  0  0  0  0  0  0
   -4.4406   -0.5557   -0.7986 H   0  0  0  0  0  0  0  0  0  0  0  0
   -2.3392    0.7093   -0.9994 H   0  0  0  0  0  0  0  0  0  0  0  0
   -0.3152   -2.3154    1.2470 H   0  0  0  0  0  0  0  0  0  0  0  0
   -2.4241   -3.5677    1.4500 H   0  0  0  0  0  0  0  0  0  0  0  0
    0.8441   -0.4772   -0.0874 H   0  0  0  0  0  0  0  0  0  0  0  0
   -2.1036    3.8637    0.4656 H   0  0  0  0  0  0  0  0  0  0  0  0
    5.1423    3.8122   -0.2874 H   0  0  0  0  0  0  0  0  0  0  0  0
    4.8333    3.3157   -1.9721 H   0  0  0  0  0  0  0  0  0  0  0  0
    5.3355    1.5077    0.4335 H   0  0  0  0  0  0  0  0  0  0  0  0
    6.3560    1.6890   -1.0135 H   0  0  0  0  0  0  0  0  0  0  0  0
    5.0804   -0.3485   -1.2922 H   0  0  0  0  0  0  0  0  0  0  0  0
    4.3744    0.8647   -2.3873 H   0  0  0  0  0  0  0  0  0  0  0  0
    3.3173   -0.0148    0.3368 H   0  0  0  0  0  0  0  0  0  0  0  0
    2.5271   -0.2090   -1.2504 H   0  0  0  0  0  0  0  0  0  0  0  0
  1  2  1  0  0  0  0
  1 23  1  0  0  0  0
  1 24  1  0  0  0  0
  1 25  1  0  0  0  0
  2  7  2  0  0  0  0
  2  3  1  0  0  0  0
  3  4  2  0  0  0  0
  3 26  1  0  0  0  0
  4  5  1  0  0  0  0
  4 27  1  0  0  0  0
  5  6  2  0  0  0  0
  5  8  1  0  0  0  0
  6  7  1  0  0  0  0
  6 28  1  0  0  0  0
  7 29  1  0  0  0  0
  8  9  1  0  0  0  0
  8 30  1  0  0  0  0
  9 18  2  0  0  0  0
  9 10  1  0  0  0  0
 10 15  2  0  0  0  0
 10 11  1  0  0  0  0
 11 22  1  0  0  0  0
 11 12  2  0  0  0  0
 12 13  1  0  0  0  0
 12 19  1  0  0  0  0
 13 14  1  0  0  0  0
 13 15  1  0  0  0  0
 15 16  1  0  0  0  0
 16 17  2  0  0  0  0
 17 18  1  0  0  0  0
 17 31  1  0  0  0  0
 19 20  1  0  0  0  0
 19 32  1  0  0  0  0
 19 33  1  0  0  0  0
 20 21  1  0  0  0  0
 20 34  1  0  0  0  0
 20 35  1  0  0  0  0
 21 22  1  0  0  0  0
 21 36  1  0  0  0  0
 21 37  1  0  0  0  0
 22 38  1  0  0  0  0
 22 39  1  0  0  0  0
M  END
$$$$
ZINC03815278
  -OEChem-08230709403D

 36 38  0     0  0  0  0  0  0999 V2000
    5.8724    3.2860    0.3106 C   0  0  0  0  0  0  0  0  0  0  0  0
    4.6758    4.0526    0.1605 O   0  0  0  0  0  0  0  0  0  0  0  0
    3.5154    3.3614    0.0034 C   0  0  0  0  0  0  0  0  0  0  0  0
    3.5385    1.9956   -0.0045 C   0  0  0  0  0  0  0  0  0  0  0  0
    2.3443    1.2830   -0.1661 C   0  0  0  0  0  0  0  0  0  0  0  0
    1.1206    1.9805   -0.3202 C   0  0  0  0  0  0  0  0  0  0  0  0
    1.1202    3.3805   -0.3091 C   0  0  0  0  0  0  0  0  0  0  0  0
    2.3086    4.0583   -0.1491 C   0  0  0  0  0  0  0  0  0  0  0  0
    2.3113    5.4167   -0.1384 O   0  0  0  0  0  0  0  0  0  0  0  0
    1.0500    6.0692   -0.2983 C   0  0  0  0  0  0  0  0  0  0  0  0
   -0.0099    1.2730   -0.4729 N   0  0  0  0  0  0  0  0  0  0  0  0
    0.0219   -0.0383   -0.4789 C   0  0  0  0  0  0  0  0  0  0  0  0
    1.1404   -0.7319   -0.3385 N   0  0  0  0  0  0  0  0  0  0  0  0
    2.3130   -0.1318   -0.1811 C   0  0  0  0  0  0  0  0  0  0  0  0
    3.4719   -0.8679   -0.0353 N   0  0  0  0  0  0  0  0  0  0  0  0
    3.4074   -2.2607    0.0638 C   0  0  0  0  0  0  0  0  0  0  0  0
    2.3201   -2.8646    0.6821 C   0  0  0  0  0  0  0  0  0  0  0  0
    2.2563   -4.2421    0.7735 C   0  0  0  0  0  0  0  0  0  0  0  0
    3.2795   -5.0190    0.2599 C   0  0  0  0  0  0  0  0  0  0  0  0
    4.3666   -4.4199   -0.3515 C   0  0  0  0  0  0  0  0  0  0  0  0
    4.4331   -3.0431   -0.4509 C   0  0  0  0  0  0  0  0  0  0  0  0
    5.7623   -5.4861   -1.0524 Br  0  0  0  0  0  0  0  0  0  0  0  0
    0.7727   -5.0657    1.6082 Br  0  0  0  0  0  0  0  0  0  0  0  0
    6.0189    2.6645   -0.5728 H   0  0  0  0  0  0  0  0  0  0  0  0
    6.7224    3.9583    0.4269 H   0  0  0  0  0  0  0  0  0  0  0  0
    5.7885    2.6504    1.1921 H   0  0  0  0  0  0  0  0  0  0  0  0
    4.4734    1.4680    0.1137 H   0  0  0  0  0  0  0  0  0  0  0  0
    0.1950    3.9252   -0.4260 H   0  0  0  0  0  0  0  0  0  0  0  0
    0.3818    5.7712    0.5096 H   0  0  0  0  0  0  0  0  0  0  0  0
    1.1937    7.1493   -0.2713 H   0  0  0  0  0  0  0  0  0  0  0  0
    0.6125    5.7847   -1.2553 H   0  0  0  0  0  0  0  0  0  0  0  0
   -0.9062   -0.5762   -0.6043 H   0  0  0  0  0  0  0  0  0  0  0  0
    4.3309   -0.4185   -0.0016 H   0  0  0  0  0  0  0  0  0  0  0  0
    1.5232   -2.2586    1.0871 H   0  0  0  0  0  0  0  0  0  0  0  0
    3.2295   -6.0952    0.3361 H   0  0  0  0  0  0  0  0  0  0  0  0
    5.2817   -2.5760   -0.9285 H   0  0  0  0  0  0  0  0  0  0  0  0
  1  2  1  0  0  0  0
  1 24  1  0  0  0  0
  1 25  1  0  0  0  0
  1 26  1  0  0  0  0
  2  3  1  0  0  0  0
  3  8  2  0  0  0  0
  3  4  1  0  0  0  0
  4  5  2  0  0  0  0
  4 27  1  0  0  0  0
  5 14  1  0  0  0  0
  5  6  1  0  0  0  0
  6  7  2  0  0  0  0
  6 11  1  0  0  0  0
  7  8  1  0  0  0  0
  7 28  1  0  0  0  0
  8  9  1  0  0  0  0
  9 10  1  0  0  0  0
 10 29  1  0  0  0  0
 10 30  1  0  0  0  0
 10 31  1  0  0  0  0
 11 12  2  0  0  0  0
 12 13  1  0  0  0  0
 12 32  1  0  0  0  0
 13 14  2  0  0  0  0
 14 15  1  0  0  0  0
 15 16  1  0  0  0  0
 15 33  1  0  0  0  0
 16 21  2  0  0  0  0
 16 17  1  0  0  0  0
 17 18  2  0  0  0  0
 17 34  1  0  0  0  0
 18 19  1  0  0  0  0
 18 23  1  0  0  0  0
 19 20  2  0  0  0  0
 19 35  1  0  0  0  0
 20 21  1  0  0  0  0
 20 22  1  0  0  0  0
 21 36  1  0  0  0  0
M  END
$$$$
ZINC03815279
  -OEChem-08230709403D

 52 55  0     0  0  0  0  0  0999 V2000
   -4.8546    1.1155    0.7125 C   0  0  0  0  0  0  0  0  0  0  0  0
   -3.5512    1.8477    0.5222 C   0  0  0  0  0  0  0  0  0  0  0  0
   -2.4394    1.1513    0.5104 N   0  0  0  0  0  0  0  0  0  0  0  0
   -1.2591    1.7620    0.3381 C   0  0  0  0  0  0  0  0  0  0  0  0
   -0.0430    1.0662    0.3222 C   0  0  0  0  0  0  0  0  0  0  0  0
    1.0859    1.7167    0.1550 N   0  0  0  0  0  0  0  0  0  0  0  0
    1.1391    3.0355    0.0007 C   0  0  0  0  0  0  0  0  0  0  0  0
   -0.0080    3.8094    0.0076 C   0  0  0  0  0  0  0  0  0  0  0  0
   -1.2395    3.1714    0.1818 C   0  0  0  0  0  0  0  0  0  0  0  0
   -2.4720    3.8680    0.2040 C   0  0  0  0  0  0  0  0  0  0  0  0
   -3.5825    3.1632    0.3753 N   0  0  0  0  0  0  0  0  0  0  0  0
   -2.5165    5.2387    0.0524 N   0  0  0  0  0  0  0  0  0  0  0  0
   -3.7487    5.8921   -0.0388 C   0  0  0  0  0  0  0  0  0  0  0  0
   -3.8951    7.1764    0.4706 C   0  0  0  0  0  0  0  0  0  0  0  0
   -5.1136    7.8195    0.3792 C   0  0  0  0  0  0  0  0  0  0  0  0
   -6.1882    7.1869   -0.2187 C   0  0  0  0  0  0  0  0  0  0  0  0
   -6.0464    5.9079   -0.7271 C   0  0  0  0  0  0  0  0  0  0  0  0
   -4.8278    5.2611   -0.6438 C   0  0  0  0  0  0  0  0  0  0  0  0
   -7.5188    5.0475   -1.5442 Br  0  0  0  0  0  0  0  0  0  0  0  0
    2.3761    3.6521   -0.1710 N   0  0  0  0  0  0  0  0  0  0  0  0
    2.4528    5.1050   -0.3425 C   0  0  0  0  0  0  0  0  0  0  0  0
    3.9152    5.5223   -0.5101 C   0  0  0  0  0  0  0  0  0  0  0  0
    3.3697    7.3939   -1.9476 C   0  0  0  0  0  0  0  0  0  0  0  0
    3.4185    8.9202   -2.0581 C   0  0  0  0  0  0  0  0  0  0  0  0
    4.7762    9.3574   -1.9535 O   0  0  0  0  0  0  0  0  0  0  0  0
    5.4131    8.9712   -0.7327 C   0  0  0  0  0  0  0  0  0  0  0  0
    5.3844    7.4455   -0.6088 C   0  0  0  0  0  0  0  0  0  0  0  0
   -5.2524    0.8234   -0.2593 H   0  0  0  0  0  0  0  0  0  0  0  0
   -4.6862    0.2254    1.3187 H   0  0  0  0  0  0  0  0  0  0  0  0
   -5.5678    1.7683    1.2159 H   0  0  0  0  0  0  0  0  0  0  0  0
   -0.0341   -0.0070    0.4430 H   0  0  0  0  0  0  0  0  0  0  0  0
    0.0469    4.8806   -0.1190 H   0  0  0  0  0  0  0  0  0  0  0  0
   -1.6927    5.7488    0.0090 H   0  0  0  0  0  0  0  0  0  0  0  0
   -3.0565    7.6712    0.9380 H   0  0  0  0  0  0  0  0  0  0  0  0
   -5.2274    8.8180    0.7748 H   0  0  0  0  0  0  0  0  0  0  0  0
   -7.1400    7.6923   -0.2891 H   0  0  0  0  0  0  0  0  0  0  0  0
   -4.7161    4.2645   -1.0448 H   0  0  0  0  0  0  0  0  0  0  0  0
    3.1868    3.1196   -0.1772 H   0  0  0  0  0  0  0  0  0  0  0  0
    1.8879    5.3968   -1.2279 H   0  0  0  0  0  0  0  0  0  0  0  0
    2.0329    5.5971    0.5348 H   0  0  0  0  0  0  0  0  0  0  0  0
    4.4801    5.2306    0.3753 H   0  0  0  0  0  0  0  0  0  0  0  0
    4.3351    5.0303   -1.3874 H   0  0  0  0  0  0  0  0  0  0  0  0
    3.9126    6.9511   -2.7826 H   0  0  0  0  0  0  0  0  0  0  0  0
    2.3322    7.0605   -1.9695 H   0  0  0  0  0  0  0  0  0  0  0  0
    2.8308    9.3623   -1.2536 H   0  0  0  0  0  0  0  0  0  0  0  0
    3.0096    9.2294   -3.0199 H   0  0  0  0  0  0  0  0  0  0  0  0
    4.8833    9.4148    0.1104 H   0  0  0  0  0  0  0  0  0  0  0  0
    6.4468    9.3168   -0.7363 H   0  0  0  0  0  0  0  0  0  0  0  0
    5.8176    7.1497    0.3467 H   0  0  0  0  0  0  0  0  0  0  0  0
    5.9596    7.0035   -1.4224 H   0  0  0  0  0  0  0  0  0  0  0  0
    3.9789    6.9920   -0.6621 N   0  3  0  0  0  0  0  0  0  0  0  0
    3.4572    7.4299    0.1063 H   0  0  0  0  0  0  0  0  0  0  0  0
  1  2  1  0  0  0  0
  1 28  1  0  0  0  0
  1 29  1  0  0  0  0
  1 30  1  0  0  0  0
  2 11  2  0  0  0  0
  2  3  1  0  0  0  0
  3  4  2  0  0  0  0
  4  9  1  0  0  0  0
  4  5  1  0  0  0  0
  5  6  2  0  0  0  0
  5 31  1  0  0  0  0
  6  7  1  0  0  0  0
  7  8  2  0  0  0  0
  7 20  1  0  0  0  0
  8  9  1  0  0  0  0
  8 32  1  0  0  0  0
  9 10  2  0  0  0  0
 10 11  1  0  0  0  0
 10 12  1  0  0  0  0
 12 13  1  0  0  0  0
 12 33  1  0  0  0  0
 13 18  2  0  0  0  0
 13 14  1  0  0  0  0
 14 15  2  0  0  0  0
 14 34  1  0  0  0  0
 15 16  1  0  0  0  0
 15 35  1  0  0  0  0
 16 17  2  0  0  0  0
 16 36  1  0  0  0  0
 17 18  1  0  0  0  0
 17 19  1  0  0  0  0
 18 37  1  0  0  0  0
 20 21  1  0  0  0  0
 20 38  1  0  0  0  0
 21 22  1  0  0  0  0
 21 39  1  0  0  0  0
 21 40  1  0  0  0  0
 22 41  1  0  0  0  0
 22 42  1  0  0  0  0
 22 51  1  0  0  0  0
 23 24  1  0  0  0  0
 23 43  1  0  0  0  0
 23 44  1  0  0  0  0
 23 51  1  0  0  0  0
 24 25  1  0  0  0  0
 24 45  1  0  0  0  0
 24 46  1  0  0  0  0
 25 26  1  0  0  0  0
 26 27  1  0  0  0  0
 26 47  1  0  0  0  0
 26 48  1  0  0  0  0
 27 49  1  0  0  0  0
 27 50  1  0  0  0  0
 27 51  1  0  0  0  0
 51 52  1  0  0  0  0
M  CHG  1  51   1
M  END
$$$$
ZINC03815280
  -OEChem-08230709403D

 32 34  0     0  0  0  0  0  0999 V2000
   -0.2824   12.1433   -0.4666 C   0  0  0  0  0  0  0  0  0  0  0  0
   -1.5257   11.4390   -0.4601 O   0  0  0  0  0  0  0  0  0  0  0  0
   -1.4672   10.0859   -0.3619 C   0  0  0  0  0  0  0  0  0  0  0  0
   -0.2242    9.4527   -0.2735 C   0  0  0  0  0  0  0  0  0  0  0  0
   -0.1367    8.0971   -0.1746 C   0  0  0  0  0  0  0  0  0  0  0  0
   -1.3048    7.3252   -0.1611 C   0  0  0  0  0  0  0  0  0  0  0  0
   -2.5698    7.9578   -0.2504 C   0  0  0  0  0  0  0  0  0  0  0  0
   -2.6344    9.3523   -0.3512 C   0  0  0  0  0  0  0  0  0  0  0  0
   -3.6742    7.1959   -0.2359 N   0  0  0  0  0  0  0  0  0  0  0  0
   -3.5805    5.8905   -0.1407 C   0  0  0  0  0  0  0  0  0  0  0  0
   -2.4221    5.2563   -0.0602 N   0  0  0  0  0  0  0  0  0  0  0  0
   -1.2696    5.9143   -0.0605 C   0  0  0  0  0  0  0  0  0  0  0  0
   -0.0691    5.2402    0.0290 N   0  0  0  0  0  0  0  0  0  0  0  0
   -0.0492    3.8426    0.0105 C   0  0  0  0  0  0  0  0  0  0  0  0
   -0.9912    3.1428   -0.7328 C   0  0  0  0  0  0  0  0  0  0  0  0
   -0.9690    1.7621   -0.7485 C   0  0  0  0  0  0  0  0  0  0  0  0
   -0.0103    1.0762   -0.0255 C   0  0  0  0  0  0  0  0  0  0  0  0
    0.9257    1.7696    0.7198 C   0  0  0  0  0  0  0  0  0  0  0  0
    0.9124    3.1505    0.7357 C   0  0  0  0  0  0  0  0  0  0  0  0
    0.2553   11.9398    0.4595 H   0  0  0  0  0  0  0  0  0  0  0  0
    0.3174   11.8138   -1.3149 H   0  0  0  0  0  0  0  0  0  0  0  0
   -0.4715   13.2136   -0.5492 H   0  0  0  0  0  0  0  0  0  0  0  0
    0.6782   10.0458   -0.2840 H   0  0  0  0  0  0  0  0  0  0  0  0
    0.8296    7.6196   -0.1072 H   0  0  0  0  0  0  0  0  0  0  0  0
   -3.5907    9.8495   -0.4203 H   0  0  0  0  0  0  0  0  0  0  0  0
   -4.4895    5.3074   -0.1323 H   0  0  0  0  0  0  0  0  0  0  0  0
    0.7611    5.7361    0.1048 H   0  0  0  0  0  0  0  0  0  0  0  0
   -1.7404    3.6779   -1.2974 H   0  0  0  0  0  0  0  0  0  0  0  0
   -1.7013    1.2174   -1.3259 H   0  0  0  0  0  0  0  0  0  0  0  0
    0.0046   -0.0037   -0.0392 H   0  0  0  0  0  0  0  0  0  0  0  0
    1.6703    1.2308    1.2869 H   0  0  0  0  0  0  0  0  0  0  0  0
    1.6462    3.6916    1.3146 H   0  0  0  0  0  0  0  0  0  0  0  0
  1  2  1  0  0  0  0
  1 20  1  0  0  0  0
  1 21  1  0  0  0  0
  1 22  1  0  0  0  0
  2  3  1  0  0  0  0
  3  8  2  0  0  0  0
  3  4  1  0  0  0  0
  4  5  2  0  0  0  0
  4 23  1  0  0  0  0
  5  6  1  0  0  0  0
  5 24  1  0  0  0  0
  6 12  2  0  0  0  0
  6  7  1  0  0  0  0
  7  8  1  0  0  0  0
  7  9  2  0  0  0  0
  8 25  1  0  0  0  0
  9 10  1  0  0  0  0
 10 11  2  0  0  0  0
 10 26  1  0  0  0  0
 11 12  1  0  0  0  0
 12 13  1  0  0  0  0
 13 14  1  0  0  0  0
 13 27  1  0  0  0  0
 14 19  2  0  0  0  0
 14 15  1  0  0  0  0
 15 16  2  0  0  0  0
 15 28  1  0  0  0  0
 16 17  1  0  0  0  0
 16 29  1  0  0  0  0
 17 18  2  0  0  0  0
 17 30  1  0  0  0  0
 18 19  1  0  0  0  0
 18 31  1  0  0  0  0
 19 32  1  0  0  0  0
M  END
$$$$
ZINC03815281
  -OEChem-08230709403D

 30 32  0     0  0  0  0  0  0999 V2000
    2.1570    5.6965    0.3939 C   0  0  0  0  0  0  0  0  0  0  0  0
    2.2600    4.3225    0.4909 C   0  0  0  0  0  0  0  0  0  0  0  0
    3.3216    3.6622   -0.1143 C   0  0  0  0  0  0  0  0  0  0  0  0
    4.2802    4.3869   -0.8109 C   0  0  0  0  0  0  0  0  0  0  0  0
    4.1691    5.7609   -0.9085 C   0  0  0  0  0  0  0  0  0  0  0  0
    3.1093    6.4153   -0.3044 C   0  0  0  0  0  0  0  0  0  0  0  0
    5.3630    6.6677   -1.7838 Cl  0  0  0  0  0  0  0  0  0  0  0  0
    3.4281    2.2717   -0.0177 N   0  0  0  0  0  0  0  0  0  0  0  0
    2.2915    1.4918   -0.0154 C   0  0  0  0  0  0  0  0  0  0  0  0
    2.3669    0.0966    0.2024 C   0  0  0  0  0  0  0  0  0  0  0  0
    3.5748   -0.5693    0.4242 C   0  0  0  0  0  0  0  0  0  0  0  0
    2.4710   -2.6007    0.6191 C   0  0  0  0  0  0  0  0  0  0  0  0
    1.2294   -2.0296    0.4078 C   0  0  0  0  0  0  0  0  0  0  0  0
    1.1577   -0.6486    0.1926 C   0  0  0  0  0  0  0  0  0  0  0  0
    0.0030   -0.0056   -0.0212 N   0  0  0  0  0  0  0  0  0  0  0  0
   -0.0054    1.2930   -0.2181 C   0  0  0  0  0  0  0  0  0  0  0  0
    1.0939    2.0290   -0.2180 N   0  0  0  0  0  0  0  0  0  0  0  0
    2.5599   -3.9700    0.8342 N   0  0  0  0  0  0  0  0  0  0  0  0
    1.3316    6.2100    0.8644 H   0  0  0  0  0  0  0  0  0  0  0  0
    1.5154    3.7619    1.0366 H   0  0  0  0  0  0  0  0  0  0  0  0
    5.1095    3.8769   -1.2785 H   0  0  0  0  0  0  0  0  0  0  0  0
    3.0266    7.4896   -0.3784 H   0  0  0  0  0  0  0  0  0  0  0  0
    4.3019    1.8557    0.0477 H   0  0  0  0  0  0  0  0  0  0  0  0
    4.5023   -0.0162    0.4339 H   0  0  0  0  0  0  0  0  0  0  0  0
    0.3354   -2.6355    0.4091 H   0  0  0  0  0  0  0  0  0  0  0  0
   -0.9527    1.7816   -0.3923 H   0  0  0  0  0  0  0  0  0  0  0  0
    1.7567   -4.5139    0.8350 H   0  0  0  0  0  0  0  0  0  0  0  0
    3.4251   -4.3823    0.9837 H   0  0  0  0  0  0  0  0  0  0  0  0
    3.6577   -1.9080    0.6342 N   0  3  0  0  0  0  0  0  0  0  0  0
    4.5569   -2.3767    0.7953 H   0  0  0  0  0  0  0  0  0  0  0  0
  1  6  2  0  0  0  0
  1  2  1  0  0  0  0
  1 19  1  0  0  0  0
  2  3  2  0  0  0  0
  2 20  1  0  0  0  0
  3  4  1  0  0  0  0
  3  8  1  0  0  0  0
  4  5  2  0  0  0  0
  4 21  1  0  0  0  0
  5  6  1  0  0  0  0
  5  7  1  0  0  0  0
  6 22  1  0  0  0  0
  8  9  1  0  0  0  0
  8 23  1  0  0  0  0
  9 17  2  0  0  0  0
  9 10  1  0  0  0  0
 10 14  2  0  0  0  0
 10 11  1  0  0  0  0
 11 24  1  0  0  0  0
 11 29  2  0  0  0  0
 12 13  2  0  0  0  0
 12 18  1  0  0  0  0
 12 29  1  0  0  0  0
 13 14  1  0  0  0  0
 13 25  1  0  0  0  0
 14 15  1  0  0  0  0
 15 16  2  0  0  0  0
 16 17  1  0  0  0  0
 16 26  1  0  0  0  0
 18 27  1  0  0  0  0
 18 28  1  0  0  0  0
 29 30  1  0  0  0  0
M  CHG  1  29   1
M  END
$$$$
ZINC03815282
  -OEChem-08230709403D

 27 29  0     0  0  0  0  0  0999 V2000
    3.9980   -4.5625    0.2270 C   0  0  0  0  0  0  0  0  0  0  0  0
    2.7672   -3.9474    0.3481 C   0  0  0  0  0  0  0  0  0  0  0  0
    2.5834   -2.6615   -0.1438 C   0  0  0  0  0  0  0  0  0  0  0  0
    3.6373   -2.0001   -0.7616 C   0  0  0  0  0  0  0  0  0  0  0  0
    4.8674   -2.6190   -0.8753 C   0  0  0  0  0  0  0  0  0  0  0  0
    5.0468   -3.9002   -0.3835 C   0  0  0  0  0  0  0  0  0  0  0  0
    6.3049   -1.7176   -1.7101 Br  0  0  0  0  0  0  0  0  0  0  0  0
    1.3391   -2.0365   -0.0226 N   0  0  0  0  0  0  0  0  0  0  0  0
    1.2674   -0.6692    0.1453 C   0  0  0  0  0  0  0  0  0  0  0  0
    0.0200    0.0001    0.1537 C   0  0  0  0  0  0  0  0  0  0  0  0
   -1.2023   -0.6622   -0.0032 C   0  0  0  0  0  0  0  0  0  0  0  0
   -2.3538    0.0768    0.0202 C   0  0  0  0  0  0  0  0  0  0  0  0
   -2.3344    1.3917    0.1866 N   0  0  0  0  0  0  0  0  0  0  0  0
   -1.2218    2.0724    0.3441 C   0  0  0  0  0  0  0  0  0  0  0  0
    0.0117    1.4066    0.3300 C   0  0  0  0  0  0  0  0  0  0  0  0
    1.1809    2.0427    0.4813 N   0  0  0  0  0  0  0  0  0  0  0  0
    2.3080    1.3712    0.4649 C   0  0  0  0  0  0  0  0  0  0  0  0
    2.3654    0.0583    0.3034 N   0  0  0  0  0  0  0  0  0  0  0  0
   -3.5412   -0.5501   -0.1297 F   0  0  0  0  0  0  0  0  0  0  0  0
    4.1412   -5.5624    0.6095 H   0  0  0  0  0  0  0  0  0  0  0  0
    1.9486   -4.4656    0.8252 H   0  0  0  0  0  0  0  0  0  0  0  0
    3.4964   -1.0019   -1.1491 H   0  0  0  0  0  0  0  0  0  0  0  0
    6.0079   -4.3837   -0.4772 H   0  0  0  0  0  0  0  0  0  0  0  0
    0.5259   -2.5642   -0.0566 H   0  0  0  0  0  0  0  0  0  0  0  0
   -1.2363   -1.7330   -0.1395 H   0  0  0  0  0  0  0  0  0  0  0  0
   -1.2570    3.1436    0.4771 H   0  0  0  0  0  0  0  0  0  0  0  0
    3.2327    1.9151    0.5893 H   0  0  0  0  0  0  0  0  0  0  0  0
  1  6  2  0  0  0  0
  1  2  1  0  0  0  0
  1 20  1  0  0  0  0
  2  3  2  0  0  0  0
  2 21  1  0  0  0  0
  3  4  1  0  0  0  0
  3  8  1  0  0  0  0
  4  5  2  0  0  0  0
  4 22  1  0  0  0  0
  5  6  1  0  0  0  0
  5  7  1  0  0  0  0
  6 23  1  0  0  0  0
  8  9  1  0  0  0  0
  8 24  1  0  0  0  0
  9 18  2  0  0  0  0
  9 10  1  0  0  0  0
 10 15  2  0  0  0  0
 10 11  1  0  0  0  0
 11 12  2  0  0  0  0
 11 25  1  0  0  0  0
 12 13  1  0  0  0  0
 12 19  1  0  0  0  0
 13 14  2  0  0  0  0
 14 15  1  0  0  0  0
 14 26  1  0  0  0  0
 15 16  1  0  0  0  0
 16 17  2  0  0  0  0
 17 18  1  0  0  0  0
 17 27  1  0  0  0  0
M  END
$$$$
ZINC03815283
  -OEChem-08230709403D

 36 38  0     0  0  0  0  0  0999 V2000
   -0.2208    7.8545    0.5229 C   0  0  0  0  0  0  0  0  0  0  0  0
    1.0287    7.2108    0.7807 O   0  0  0  0  0  0  0  0  0  0  0  0
    1.0342    5.8509    0.7802 C   0  0  0  0  0  0  0  0  0  0  0  0
   -0.1257    5.1708    0.5392 C   0  0  0  0  0  0  0  0  0  0  0  0
   -0.1211    3.7709    0.5384 C   0  0  0  0  0  0  0  0  0  0  0  0
    1.0840    3.0681    0.7870 C   0  0  0  0  0  0  0  0  0  0  0  0
    2.2612    3.7855    1.0316 C   0  0  0  0  0  0  0  0  0  0  0  0
    2.2301    5.1626    1.0273 C   0  0  0  0  0  0  0  0  0  0  0  0
    3.3708    5.8612    1.2648 O   0  0  0  0  0  0  0  0  0  0  0  0
    4.5569    5.1028    1.5098 C   0  0  0  0  0  0  0  0  0  0  0  0
    1.0609    1.7260    0.7801 N   0  0  0  0  0  0  0  0  0  0  0  0
   -0.0576    1.0814    0.5473 C   0  0  0  0  0  0  0  0  0  0  0  0
   -1.2050    1.6949    0.3050 N   0  0  0  0  0  0  0  0  0  0  0  0
   -1.2946    3.0185    0.2941 C   0  0  0  0  0  0  0  0  0  0  0  0
   -2.4992    3.6452    0.0455 N   0  0  0  0  0  0  0  0  0  0  0  0
   -3.6724    2.8910   -0.0529 C   0  0  0  0  0  0  0  0  0  0  0  0
   -3.7426    1.6333    0.5324 C   0  0  0  0  0  0  0  0  0  0  0  0
   -4.9043    0.8927    0.4372 C   0  0  0  0  0  0  0  0  0  0  0  0
   -5.9943    1.3976   -0.2483 C   0  0  0  0  0  0  0  0  0  0  0  0
   -5.9268    2.6469   -0.8369 C   0  0  0  0  0  0  0  0  0  0  0  0
   -4.7691    3.3955   -0.7414 C   0  0  0  0  0  0  0  0  0  0  0  0
   -4.6775    5.1043   -1.5461 Br  0  0  0  0  0  0  0  0  0  0  0  0
   -0.0853    8.9357    0.5523 H   0  0  0  0  0  0  0  0  0  0  0  0
   -0.5846    7.5605   -0.4616 H   0  0  0  0  0  0  0  0  0  0  0  0
   -0.9454    7.5584    1.2814 H   0  0  0  0  0  0  0  0  0  0  0  0
   -1.0418    5.7105    0.3499 H   0  0  0  0  0  0  0  0  0  0  0  0
    3.1869    3.2630    1.2225 H   0  0  0  0  0  0  0  0  0  0  0  0
    4.4108    4.4734    2.3876 H   0  0  0  0  0  0  0  0  0  0  0  0
    4.7723    4.4755    0.6448 H   0  0  0  0  0  0  0  0  0  0  0  0
    5.3923    5.7810    1.6839 H   0  0  0  0  0  0  0  0  0  0  0  0
   -0.0405    0.0015    0.5491 H   0  0  0  0  0  0  0  0  0  0  0  0
   -2.5318    4.6088   -0.0610 H   0  0  0  0  0  0  0  0  0  0  0  0
   -2.8906    1.2364    1.0645 H   0  0  0  0  0  0  0  0  0  0  0  0
   -4.9604   -0.0838    0.8951 H   0  0  0  0  0  0  0  0  0  0  0  0
   -6.9002    0.8145   -0.3244 H   0  0  0  0  0  0  0  0  0  0  0  0
   -6.7795    3.0379   -1.3721 H   0  0  0  0  0  0  0  0  0  0  0  0
  1  2  1  0  0  0  0
  1 23  1  0  0  0  0
  1 24  1  0  0  0  0
  1 25  1  0  0  0  0
  2  3  1  0  0  0  0
  3  8  2  0  0  0  0
  3  4  1  0  0  0  0
  4  5  2  0  0  0  0
  4 26  1  0  0  0  0
  5 14  1  0  0  0  0
  5  6  1  0  0  0  0
  6  7  2  0  0  0  0
  6 11  1  0  0  0  0
  7  8  1  0  0  0  0
  7 27  1  0  0  0  0
  8  9  1  0  0  0  0
  9 10  1  0  0  0  0
 10 28  1  0  0  0  0
 10 29  1  0  0  0  0
 10 30  1  0  0  0  0
 11 12  2  0  0  0  0
 12 13  1  0  0  0  0
 12 31  1  0  0  0  0
 13 14  2  0  0  0  0
 14 15  1  0  0  0  0
 15 16  1  0  0  0  0
 15 32  1  0  0  0  0
 16 21  2  0  0  0  0
 16 17  1  0  0  0  0
 17 18  2  0  0  0  0
 17 33  1  0  0  0  0
 18 19  1  0  0  0  0
 18 34  1  0  0  0  0
 19 20  2  0  0  0  0
 19 35  1  0  0  0  0
 20 21  1  0  0  0  0
 20 36  1  0  0  0  0
 21 22  1  0  0  0  0
M  END
$$$$
ZINC03815284
  -OEChem-08230709403D

 34 36  0     0  0  0  0  0  0999 V2000
    2.0341   -2.0912    2.1542 C   0  0  0  0  0  0  0  0  0  0  0  0
    1.4454   -1.7296    3.4051 O   0  0  0  0  0  0  0  0  0  0  0  0
    0.9174   -0.4811    3.5004 C   0  0  0  0  0  0  0  0  0  0  0  0
    0.9654    0.3783    2.4113 C   0  0  0  0  0  0  0  0  0  0  0  0
    0.4286    1.6479    2.5065 C   0  0  0  0  0  0  0  0  0  0  0  0
   -0.1571    2.0666    3.6857 C   0  0  0  0  0  0  0  0  0  0  0  0
   -0.2076    1.2111    4.7791 C   0  0  0  0  0  0  0  0  0  0  0  0
    0.3258   -0.0671    4.6832 C   0  0  0  0  0  0  0  0  0  0  0  0
   -0.8005    1.6344    5.9721 N   0  0  0  0  0  0  0  0  0  0  0  0
   -0.3183    1.1794    7.1808 C   0  0  0  0  0  0  0  0  0  0  0  0
   -0.9728    1.5005    8.3925 C   0  0  0  0  0  0  0  0  0  0  0  0
   -2.1279    2.2846    8.4426 C   0  0  0  0  0  0  0  0  0  0  0  0
   -2.2077    2.0994   10.7539 C   0  0  0  0  0  0  0  0  0  0  0  0
   -1.0691    1.3162   10.8036 C   0  0  0  0  0  0  0  0  0  0  0  0
   -0.4236    0.9996    9.6029 C   0  0  0  0  0  0  0  0  0  0  0  0
    0.6840    0.2493    9.5492 N   0  0  0  0  0  0  0  0  0  0  0  0
    1.2491   -0.0159    8.3936 C   0  0  0  0  0  0  0  0  0  0  0  0
    0.7712    0.4224    7.2404 N   0  0  0  0  0  0  0  0  0  0  0  0
   -2.8606    2.4225   11.9364 N   0  0  0  0  0  0  0  0  0  0  0  0
    2.8532   -1.4088    1.9273 H   0  0  0  0  0  0  0  0  0  0  0  0
    1.2820   -2.0304    1.3676 H   0  0  0  0  0  0  0  0  0  0  0  0
    2.4162   -3.1103    2.2135 H   0  0  0  0  0  0  0  0  0  0  0  0
    1.4225    0.0539    1.4882 H   0  0  0  0  0  0  0  0  0  0  0  0
    0.4666    2.3142    1.6574 H   0  0  0  0  0  0  0  0  0  0  0  0
   -0.5756    3.0596    3.7576 H   0  0  0  0  0  0  0  0  0  0  0  0
    0.2833   -0.7360    5.5300 H   0  0  0  0  0  0  0  0  0  0  0  0
   -1.5512    2.2482    5.9495 H   0  0  0  0  0  0  0  0  0  0  0  0
   -2.5573    2.6722    7.5305 H   0  0  0  0  0  0  0  0  0  0  0  0
   -0.6865    0.9572   11.7476 H   0  0  0  0  0  0  0  0  0  0  0  0
    2.1414   -0.6242    8.3839 H   0  0  0  0  0  0  0  0  0  0  0  0
   -3.6604    2.9710   11.9146 H   0  0  0  0  0  0  0  0  0  0  0  0
   -2.5169    2.0997   12.7841 H   0  0  0  0  0  0  0  0  0  0  0  0
   -2.7632    2.5987    9.6005 N   0  3  0  0  0  0  0  0  0  0  0  0
   -3.6115    3.1771    9.6136 H   0  0  0  0  0  0  0  0  0  0  0  0
  1  2  1  0  0  0  0
  1 20  1  0  0  0  0
  1 21  1  0  0  0  0
  1 22  1  0  0  0  0
  2  3  1  0  0  0  0
  3  8  2  0  0  0  0
  3  4  1  0  0  0  0
  4  5  2  0  0  0  0
  4 23  1  0  0  0  0
  5  6  1  0  0  0  0
  5 24  1  0  0  0  0
  6  7  2  0  0  0  0
  6 25  1  0  0  0  0
  7  8  1  0  0  0  0
  7  9  1  0  0  0  0
  8 26  1  0  0  0  0
  9 10  1  0  0  0  0
  9 27  1  0  0  0  0
 10 18  2  0  0  0  0
 10 11  1  0  0  0  0
 11 15  2  0  0  0  0
 11 12  1  0  0  0  0
 12 28  1  0  0  0  0
 12 33  2  0  0  0  0
 13 14  2  0  0  0  0
 13 19  1  0  0  0  0
 13 33  1  0  0  0  0
 14 15  1  0  0  0  0
 14 29  1  0  0  0  0
 15 16  1  0  0  0  0
 16 17  2  0  0  0  0
 17 18  1  0  0  0  0
 17 30  1  0  0  0  0
 19 31  1  0  0  0  0
 19 32  1  0  0  0  0
 33 34  1  0  0  0  0
M  CHG  1  33   1
M  END
$$$$
ZINC03815285
  -OEChem-08230709403D

 35 38  0     0  0  0  0  0  0999 V2000
    0.6995    6.2836    0.5331 C   0  0  0  0  0  0  0  0  0  0  0  0
   -0.0351    5.1707   -0.0735 N   0  0  0  0  0  0  0  0  0  0  0  0
    0.3892    3.8559   -0.0851 C   0  0  0  0  0  0  0  0  0  0  0  0
    1.5273    3.2334    0.4207 C   0  0  0  0  0  0  0  0  0  0  0  0
    1.6986    1.8759    0.2631 C   0  0  0  0  0  0  0  0  0  0  0  0
    0.7446    1.1161   -0.3979 C   0  0  0  0  0  0  0  0  0  0  0  0
   -0.3854    1.7133   -0.9107 C   0  0  0  0  0  0  0  0  0  0  0  0
   -0.5757    3.0857   -0.7541 C   0  0  0  0  0  0  0  0  0  0  0  0
   -1.6409    4.0140   -1.1635 C   0  0  0  0  0  0  0  0  0  0  0  0
   -1.2528    5.2839   -0.7169 C   0  0  0  0  0  0  0  0  0  0  0  0
   -2.1053    6.3635   -0.9830 C   0  0  0  0  0  0  0  0  0  0  0  0
   -3.2362    6.1361   -1.6428 N   0  0  0  0  0  0  0  0  0  0  0  0
   -3.5619    4.9218   -2.0451 C   0  0  0  0  0  0  0  0  0  0  0  0
   -2.7938    3.8778   -1.8178 N   0  0  0  0  0  0  0  0  0  0  0  0
   -1.7754    7.6448   -0.5655 N   0  0  0  0  0  0  0  0  0  0  0  0
   -2.5516    8.7336   -0.9718 C   0  0  0  0  0  0  0  0  0  0  0  0
   -1.9574    9.9715   -1.1842 C   0  0  0  0  0  0  0  0  0  0  0  0
   -2.7267   11.0455   -1.5861 C   0  0  0  0  0  0  0  0  0  0  0  0
   -4.0875   10.8905   -1.7774 C   0  0  0  0  0  0  0  0  0  0  0  0
   -4.6829    9.6594   -1.5669 C   0  0  0  0  0  0  0  0  0  0  0  0
   -3.9175    8.5793   -1.1697 C   0  0  0  0  0  0  0  0  0  0  0  0
   -6.5440    9.4526   -1.8304 Br  0  0  0  0  0  0  0  0  0  0  0  0
    1.1103    6.9186   -0.2519 H   0  0  0  0  0  0  0  0  0  0  0  0
    0.0233    6.8684    1.1567 H   0  0  0  0  0  0  0  0  0  0  0  0
    1.5115    5.8920    1.1457 H   0  0  0  0  0  0  0  0  0  0  0  0
    2.2765    3.8156    0.9367 H   0  0  0  0  0  0  0  0  0  0  0  0
    2.5837    1.3988    0.6574 H   0  0  0  0  0  0  0  0  0  0  0  0
    0.8908    0.0524   -0.5149 H   0  0  0  0  0  0  0  0  0  0  0  0
   -1.1240    1.1198   -1.4290 H   0  0  0  0  0  0  0  0  0  0  0  0
   -4.4903    4.7803   -2.5785 H   0  0  0  0  0  0  0  0  0  0  0  0
   -1.0061    7.7848    0.0085 H   0  0  0  0  0  0  0  0  0  0  0  0
   -0.8948   10.0937   -1.0348 H   0  0  0  0  0  0  0  0  0  0  0  0
   -2.2649   12.0077   -1.7516 H   0  0  0  0  0  0  0  0  0  0  0  0
   -4.6867   11.7321   -2.0921 H   0  0  0  0  0  0  0  0  0  0  0  0
   -4.3818    7.6174   -1.0094 H   0  0  0  0  0  0  0  0  0  0  0  0
  1  2  1  0  0  0  0
  1 23  1  0  0  0  0
  1 24  1  0  0  0  0
  1 25  1  0  0  0  0
  2 10  1  0  0  0  0
  2  3  1  0  0  0  0
  3  8  2  0  0  0  0
  3  4  1  0  0  0  0
  4  5  2  0  0  0  0
  4 26  1  0  0  0  0
  5  6  1  0  0  0  0
  5 27  1  0  0  0  0
  6  7  2  0  0  0  0
  6 28  1  0  0  0  0
  7  8  1  0  0  0  0
  7 29  1  0  0  0  0
  8  9  1  0  0  0  0
  9 14  2  0  0  0  0
  9 10  1  0  0  0  0
 10 11  2  0  0  0  0
 11 12  1  0  0  0  0
 11 15  1  0  0  0  0
 12 13  2  0  0  0  0
 13 14  1  0  0  0  0
 13 30  1  0  0  0  0
 15 16  1  0  0  0  0
 15 31  1  0  0  0  0
 16 21  2  0  0  0  0
 16 17  1  0  0  0  0
 17 18  2  0  0  0  0
 17 32  1  0  0  0  0
 18 19  1  0  0  0  0
 18 33  1  0  0  0  0
 19 20  2  0  0  0  0
 19 34  1  0  0  0  0
 20 21  1  0  0  0  0
 20 22  1  0  0  0  0
 21 35  1  0  0  0  0
M  END
$$$$
ZINC03815286
  -OEChem-08230709403D

 32 34  0     0  0  0  0  0  0999 V2000
    4.7299    3.8717    0.4439 C   0  0  0  0  0  0  0  0  0  0  0  0
    3.5378    3.0840    0.4672 O   0  0  0  0  0  0  0  0  0  0  0  0
    2.3593    3.7439    0.3190 C   0  0  0  0  0  0  0  0  0  0  0  0
    2.3441    5.1121    0.1561 C   0  0  0  0  0  0  0  0  0  0  0  0
    1.1436    5.7983    0.0035 C   0  0  0  0  0  0  0  0  0  0  0  0
   -0.0490    5.1364    0.0119 C   0  0  0  0  0  0  0  0  0  0  0  0
   -0.0710    3.7470    0.1755 C   0  0  0  0  0  0  0  0  0  0  0  0
    1.1438    3.0373    0.3313 C   0  0  0  0  0  0  0  0  0  0  0  0
    1.0981    1.7061    0.4863 N   0  0  0  0  0  0  0  0  0  0  0  0
   -0.0525    1.0764    0.4928 C   0  0  0  0  0  0  0  0  0  0  0  0
   -1.2132    1.6960    0.3458 N   0  0  0  0  0  0  0  0  0  0  0  0
   -1.2815    3.0111    0.1911 C   0  0  0  0  0  0  0  0  0  0  0  0
   -2.4984    3.6452    0.0438 N   0  0  0  0  0  0  0  0  0  0  0  0
   -3.6717    2.8919   -0.0545 C   0  0  0  0  0  0  0  0  0  0  0  0
   -4.8629    3.3884    0.4600 C   0  0  0  0  0  0  0  0  0  0  0  0
   -6.0205    2.6420    0.3615 C   0  0  0  0  0  0  0  0  0  0  0  0
   -5.9954    1.4011   -0.2485 C   0  0  0  0  0  0  0  0  0  0  0  0
   -4.8111    0.9033   -0.7620 C   0  0  0  0  0  0  0  0  0  0  0  0
   -3.6502    1.6480   -0.6717 C   0  0  0  0  0  0  0  0  0  0  0  0
   -4.7823   -0.7938   -1.5957 Br  0  0  0  0  0  0  0  0  0  0  0  0
    4.6991    4.6014    1.2530 H   0  0  0  0  0  0  0  0  0  0  0  0
    5.5965    3.2232    0.5723 H   0  0  0  0  0  0  0  0  0  0  0  0
    4.8033    4.3913   -0.5115 H   0  0  0  0  0  0  0  0  0  0  0  0
    3.2756    5.6585    0.1464 H   0  0  0  0  0  0  0  0  0  0  0  0
    1.1561    6.8707   -0.1231 H   0  0  0  0  0  0  0  0  0  0  0  0
   -0.9729    5.6828   -0.1078 H   0  0  0  0  0  0  0  0  0  0  0  0
   -0.0528    0.0039    0.6194 H   0  0  0  0  0  0  0  0  0  0  0  0
   -2.5395    4.6137    0.0084 H   0  0  0  0  0  0  0  0  0  0  0  0
   -4.8835    4.3572    0.9368 H   0  0  0  0  0  0  0  0  0  0  0  0
   -6.9467    3.0279    0.7610 H   0  0  0  0  0  0  0  0  0  0  0  0
   -6.9023    0.8196   -0.3244 H   0  0  0  0  0  0  0  0  0  0  0  0
   -2.7268    1.2612   -1.0766 H   0  0  0  0  0  0  0  0  0  0  0  0
  1  2  1  0  0  0  0
  1 21  1  0  0  0  0
  1 22  1  0  0  0  0
  1 23  1  0  0  0  0
  2  3  1  0  0  0  0
  3  8  2  0  0  0  0
  3  4  1  0  0  0  0
  4  5  2  0  0  0  0
  4 24  1  0  0  0  0
  5  6  1  0  0  0  0
  5 25  1  0  0  0  0
  6  7  2  0  0  0  0
  6 26  1  0  0  0  0
  7 12  1  0  0  0  0
  7  8  1  0  0  0  0
  8  9  1  0  0  0  0
  9 10  2  0  0  0  0
 10 11  1  0  0  0  0
 10 27  1  0  0  0  0
 11 12  2  0  0  0  0
 12 13  1  0  0  0  0
 13 14  1  0  0  0  0
 13 28  1  0  0  0  0
 14 19  2  0  0  0  0
 14 15  1  0  0  0  0
 15 16  2  0  0  0  0
 15 29  1  0  0  0  0
 16 17  1  0  0  0  0
 16 30  1  0  0  0  0
 17 18  2  0  0  0  0
 17 31  1  0  0  0  0
 18 19  1  0  0  0  0
 18 20  1  0  0  0  0
 19 32  1  0  0  0  0
M  END
$$$$
ZINC03815287
  -OEChem-08230709403D

 36 39  0     0  0  0  0  0  0999 V2000
   -6.9363    4.9522    0.8028 C   0  0  0  0  0  0  0  0  0  0  0  0
   -6.3450    6.1991    0.9358 C   0  0  0  0  0  0  0  0  0  0  0  0
   -4.9767    6.3396    0.8423 C   0  0  0  0  0  0  0  0  0  0  0  0
   -4.1763    5.2254    0.6122 C   0  0  0  0  0  0  0  0  0  0  0  0
   -4.7760    3.9642    0.4778 C   0  0  0  0  0  0  0  0  0  0  0  0
   -6.1598    3.8362    0.5754 C   0  0  0  0  0  0  0  0  0  0  0  0
   -3.6826    3.0036    0.2457 C   0  0  0  0  0  0  0  0  0  0  0  0
   -2.4921    3.7447    0.2546 C   0  0  0  0  0  0  0  0  0  0  0  0
   -2.8069    5.0739    0.4754 N   0  0  0  0  0  0  0  0  0  0  0  0
   -2.1611    5.7957    0.5275 H   0  0  0  0  0  0  0  0  0  0  0  0
   -1.2787    3.0920    0.0634 C   0  0  0  0  0  0  0  0  0  0  0  0
   -1.2507    1.7220   -0.1448 C   0  0  0  0  0  0  0  0  0  0  0  0
   -2.4308    0.9855   -0.1544 C   0  0  0  0  0  0  0  0  0  0  0  0
   -3.6464    1.6196    0.0401 C   0  0  0  0  0  0  0  0  0  0  0  0
   -4.8305    0.8818    0.0307 N   0  0  0  0  0  0  0  0  0  0  0  0
   -5.6981    0.9674   -1.0609 C   0  0  0  0  0  0  0  0  0  0  0  0
   -5.3278    1.6880   -2.1899 C   0  0  0  0  0  0  0  0  0  0  0  0
   -6.1855    1.7668   -3.2692 C   0  0  0  0  0  0  0  0  0  0  0  0
   -7.4164    1.1380   -3.2239 C   0  0  0  0  0  0  0  0  0  0  0  0
   -7.7910    0.4240   -2.0995 C   0  0  0  0  0  0  0  0  0  0  0  0
   -6.9351    0.3373   -1.0177 C   0  0  0  0  0  0  0  0  0  0  0  0
   -9.4755   -0.4333   -2.0425 Br  0  0  0  0  0  0  0  0  0  0  0  0
   -0.0285    1.0755   -0.3407 N   0  0  0  0  0  0  0  0  0  0  0  0
   -8.0093    4.8548    0.8780 H   0  0  0  0  0  0  0  0  0  0  0  0
   -6.9615    7.0677    1.1138 H   0  0  0  0  0  0  0  0  0  0  0  0
   -4.5260    7.3155    0.9473 H   0  0  0  0  0  0  0  0  0  0  0  0
   -6.6228    2.8660    0.4720 H   0  0  0  0  0  0  0  0  0  0  0  0
   -0.3568    3.6544    0.0735 H   0  0  0  0  0  0  0  0  0  0  0  0
   -2.3989   -0.0822   -0.3133 H   0  0  0  0  0  0  0  0  0  0  0  0
   -5.0513    0.3094    0.7820 H   0  0  0  0  0  0  0  0  0  0  0  0
   -4.3685    2.1828   -2.2246 H   0  0  0  0  0  0  0  0  0  0  0  0
   -5.8965    2.3239   -4.1481 H   0  0  0  0  0  0  0  0  0  0  0  0
   -8.0869    1.2048   -4.0679 H   0  0  0  0  0  0  0  0  0  0  0  0
   -7.2280   -0.2195   -0.1399 H   0  0  0  0  0  0  0  0  0  0  0  0
   -0.0046    0.1163   -0.4828 H   0  0  0  0  0  0  0  0  0  0  0  0
    0.7961    1.5863   -0.3387 H   0  0  0  0  0  0  0  0  0  0  0  0
  1  6  2  0  0  0  0
  1  2  1  0  0  0  0
  1 24  1  0  0  0  0
  2  3  2  0  0  0  0
  2 25  1  0  0  0  0
  3  4  1  0  0  0  0
  3 26  1  0  0  0  0
  4  9  1  0  0  0  0
  4  5  2  0  0  0  0
  5  6  1  0  0  0  0
  5  7  1  0  0  0  0
  6 27  1  0  0  0  0
  7 14  2  0  0  0  0
  7  8  1  0  0  0  0
  8  9  1  0  0  0  0
  8 11  2  0  0  0  0
  9 10  1  0  0  0  0
 11 12  1  0  0  0  0
 11 28  1  0  0  0  0
 12 13  2  0  0  0  0
 12 23  1  0  0  0  0
 13 14  1  0  0  0  0
 13 29  1  0  0  0  0
 14 15  1  0  0  0  0
 15 16  1  0  0  0  0
 15 30  1  0  0  0  0
 16 21  2  0  0  0  0
 16 17  1  0  0  0  0
 17 18  2  0  0  0  0
 17 31  1  0  0  0  0
 18 19  1  0  0  0  0
 18 32  1  0  0  0  0
 19 20  2  0  0  0  0
 19 33  1  0  0  0  0
 20 21  1  0  0  0  0
 20 22  1  0  0  0  0
 21 34  1  0  0  0  0
 23 35  1  0  0  0  0
 23 36  1  0  0  0  0
M  END
$$$$
ZINC03815288
  -OEChem-08230709403D

 42 45  0     0  0  0  0  0  0999 V2000
    0.8590   10.0323    0.4454 C   0  0  0  0  0  0  0  0  0  0  0  0
    2.1520    9.3435    0.4335 N   0  0  0  0  0  0  0  0  0  0  0  0
    2.1922    7.9764    0.3242 C   0  0  0  0  0  0  0  0  0  0  0  0
    3.4297    7.2973    0.3112 C   0  0  0  0  0  0  0  0  0  0  0  0
    4.6396    8.0215    0.4105 C   0  0  0  0  0  0  0  0  0  0  0  0
    4.5897    9.3854    0.5187 C   0  0  0  0  0  0  0  0  0  0  0  0
    3.2892   10.0588    0.5296 C   0  0  0  0  0  0  0  0  0  0  0  0
    3.2358   11.2720    0.6256 O   0  0  0  0  0  0  0  0  0  0  0  0
    5.8401   10.1731    0.6244 C   0  0  0  0  0  0  0  0  0  0  0  0
    6.3880   10.4532    1.8768 C   0  0  0  0  0  0  0  0  0  0  0  0
    7.5560   11.1847    1.9682 C   0  0  0  0  0  0  0  0  0  0  0  0
    8.1775   11.6472    0.8222 C   0  0  0  0  0  0  0  0  0  0  0  0
    7.6370   11.3770   -0.4221 C   0  0  0  0  0  0  0  0  0  0  0  0
    6.4718   10.6429   -0.5277 C   0  0  0  0  0  0  0  0  0  0  0  0
    5.7945   10.3060   -2.0902 Cl  0  0  0  0  0  0  0  0  0  0  0  0
    5.6064    9.8789    3.3166 Cl  0  0  0  0  0  0  0  0  0  0  0  0
    3.4266    5.8989    0.1984 C   0  0  0  0  0  0  0  0  0  0  0  0
    2.2669    5.2745    0.1139 N   0  0  0  0  0  0  0  0  0  0  0  0
    1.1213    5.9471    0.1244 C   0  0  0  0  0  0  0  0  0  0  0  0
    1.0737    7.2663    0.2291 N   0  0  0  0  0  0  0  0  0  0  0  0
   -0.0643    5.2439    0.0281 N   0  0  0  0  0  0  0  0  0  0  0  0
   -0.0425    3.8650   -0.2009 C   0  0  0  0  0  0  0  0  0  0  0  0
   -1.0219    3.0516    0.3562 C   0  0  0  0  0  0  0  0  0  0  0  0
   -0.9997    1.6892    0.1306 C   0  0  0  0  0  0  0  0  0  0  0  0
   -0.0044    1.1313   -0.6495 C   0  0  0  0  0  0  0  0  0  0  0  0
    0.9791    1.9380   -1.2044 C   0  0  0  0  0  0  0  0  0  0  0  0
    0.9576    3.3064   -0.9844 C   0  0  0  0  0  0  0  0  0  0  0  0
    1.9599    1.3872   -1.9669 O   0  0  0  0  0  0  0  0  0  0  0  0
    0.5036   10.1202    1.4720 H   0  0  0  0  0  0  0  0  0  0  0  0
    0.9731   11.0267    0.0140 H   0  0  0  0  0  0  0  0  0  0  0  0
    0.1384    9.4623   -0.1411 H   0  0  0  0  0  0  0  0  0  0  0  0
    5.5890    7.5068    0.4007 H   0  0  0  0  0  0  0  0  0  0  0  0
    7.9830   11.3994    2.9367 H   0  0  0  0  0  0  0  0  0  0  0  0
    9.0886   12.2219    0.8993 H   0  0  0  0  0  0  0  0  0  0  0  0
    8.1269   11.7413   -1.3130 H   0  0  0  0  0  0  0  0  0  0  0  0
    4.3535    5.3446    0.1854 H   0  0  0  0  0  0  0  0  0  0  0  0
   -0.9117    5.7071    0.1193 H   0  0  0  0  0  0  0  0  0  0  0  0
   -1.8007    3.4851    0.9661 H   0  0  0  0  0  0  0  0  0  0  0  0
   -1.7612    1.0585    0.5650 H   0  0  0  0  0  0  0  0  0  0  0  0
    0.0105    0.0656   -0.8237 H   0  0  0  0  0  0  0  0  0  0  0  0
    1.7198    3.9362   -1.4189 H   0  0  0  0  0  0  0  0  0  0  0  0
    1.7457    1.3391   -2.9087 H   0  0  0  0  0  0  0  0  0  0  0  0
  1  2  1  0  0  0  0
  1 29  1  0  0  0  0
  1 30  1  0  0  0  0
  1 31  1  0  0  0  0
  2  7  1  0  0  0  0
  2  3  1  0  0  0  0
  3 20  2  0  0  0  0
  3  4  1  0  0  0  0
  4  5  1  0  0  0  0
  4 17  2  0  0  0  0
  5  6  2  0  0  0  0
  5 32  1  0  0  0  0
  6  7  1  0  0  0  0
  6  9  1  0  0  0  0
  7  8  2  0  0  0  0
  9 14  2  0  0  0  0
  9 10  1  0  0  0  0
 10 11  2  0  0  0  0
 10 16  1  0  0  0  0
 11 12  1  0  0  0  0
 11 33  1  0  0  0  0
 12 13  2  0  0  0  0
 12 34  1  0  0  0  0
 13 14  1  0  0  0  0
 13 35  1  0  0  0  0
 14 15  1  0  0  0  0
 17 18  1  0  0  0  0
 17 36  1  0  0  0  0
 18 19  2  0  0  0  0
 19 20  1  0  0  0  0
 19 21  1  0  0  0  0
 21 22  1  0  0  0  0
 21 37  1  0  0  0  0
 22 27  2  0  0  0  0
 22 23  1  0  0  0  0
 23 24  2  0  0  0  0
 23 38  1  0  0  0  0
 24 25  1  0  0  0  0
 24 39  1  0  0  0  0
 25 26  2  0  0  0  0
 25 40  1  0  0  0  0
 26 27  1  0  0  0  0
 26 28  1  0  0  0  0
 27 41  1  0  0  0  0
 28 42  1  0  0  0  0
M  END
$$$$
ZINC03815289
  -OEChem-08230709403D

 73 76  0     0  0  0  0  0  0999 V2000
   -4.5476    1.9598   -6.0779 C   0  0  0  0  0  0  0  0  0  0  0  0
   -3.1554    1.3302   -5.9996 C   0  0  0  0  0  0  0  0  0  0  0  0
   -2.2965    1.8463   -7.1558 C   0  0  0  0  0  0  0  0  0  0  0  0
   -3.2778   -0.1919   -6.0951 C   0  0  0  0  0  0  0  0  0  0  0  0
   -2.5274    1.6906   -4.7260 N   0  0  0  0  0  0  0  0  0  0  0  0
   -3.1104    1.3372   -3.5634 C   0  0  0  0  0  0  0  0  0  0  0  0
   -4.1574    0.7194   -3.5715 O   0  0  0  0  0  0  0  0  0  0  0  0
   -2.5327    1.6688   -2.3917 N   0  0  0  0  0  0  0  0  0  0  0  0
   -3.1328    1.3050   -1.1949 C   0  0  0  0  0  0  0  0  0  0  0  0
   -2.5145    1.6602    0.0229 C   0  0  0  0  0  0  0  0  0  0  0  0
   -3.1075    1.2934    1.2205 C   0  0  0  0  0  0  0  0  0  0  0  0
   -4.3191    0.5850    1.1654 C   0  0  0  0  0  0  0  0  0  0  0  0
   -4.9944    0.1771    2.3285 C   0  0  0  0  0  0  0  0  0  0  0  0
   -6.1242   -0.4885    2.1986 N   0  0  0  0  0  0  0  0  0  0  0  0
   -6.6263   -0.7753    0.9994 C   0  0  0  0  0  0  0  0  0  0  0  0
   -6.0355   -0.4176   -0.1249 N   0  0  0  0  0  0  0  0  0  0  0  0
   -4.8825    0.2626   -0.0970 C   0  0  0  0  0  0  0  0  0  0  0  0
   -4.2670    0.6354   -1.2206 N   0  0  0  0  0  0  0  0  0  0  0  0
   -7.8150   -1.4767    0.9293 N   0  0  0  0  0  0  0  0  0  0  0  0
   -8.4959   -1.8890    2.1592 C   0  0  0  0  0  0  0  0  0  0  0  0
   -9.7785   -2.6436    1.8036 C   0  0  0  0  0  0  0  0  0  0  0  0
  -10.4896   -3.0741    3.0880 C   0  0  0  0  0  0  0  0  0  0  0  0
  -12.6921   -2.9089    2.0947 C   0  0  0  0  0  0  0  0  0  0  0  0
  -13.9253   -3.7171    1.6845 C   0  0  0  0  0  0  0  0  0  0  0  0
  -13.5403   -5.2394    3.5265 C   0  0  0  0  0  0  0  0  0  0  0  0
  -12.3071   -4.4312    3.9367 C   0  0  0  0  0  0  0  0  0  0  0  0
  -15.7428   -5.0741    2.5331 C   0  0  0  0  0  0  0  0  0  0  0  0
   -1.2380    2.4142    0.0210 C   0  0  0  0  0  0  0  0  0  0  0  0
   -1.2484    3.8090    0.0341 C   0  0  0  0  0  0  0  0  0  0  0  0
   -0.0556    4.5057    0.0264 C   0  0  0  0  0  0  0  0  0  0  0  0
    1.1473    3.8231    0.0117 C   0  0  0  0  0  0  0  0  0  0  0  0
    1.1644    2.4401    0.0040 C   0  0  0  0  0  0  0  0  0  0  0  0
   -0.0215    1.7317    0.0116 C   0  0  0  0  0  0  0  0  0  0  0  0
    0.0021   -0.0041    0.0020 Cl  0  0  0  0  0  0  0  0  0  0  0  0
   -2.7571    4.6675    0.0520 Cl  0  0  0  0  0  0  0  0  0  0  0  0
   -4.4604    3.0441   -6.0098 H   0  0  0  0  0  0  0  0  0  0  0  0
   -5.0148    1.6916   -7.0255 H   0  0  0  0  0  0  0  0  0  0  0  0
   -5.1595    1.5921   -5.2542 H   0  0  0  0  0  0  0  0  0  0  0  0
   -1.3046    1.3978   -7.1000 H   0  0  0  0  0  0  0  0  0  0  0  0
   -2.7637    1.5782   -8.1034 H   0  0  0  0  0  0  0  0  0  0  0  0
   -2.2092    2.9307   -7.0877 H   0  0  0  0  0  0  0  0  0  0  0  0
   -3.8897   -0.5596   -5.2714 H   0  0  0  0  0  0  0  0  0  0  0  0
   -3.7450   -0.4601   -7.0427 H   0  0  0  0  0  0  0  0  0  0  0  0
   -2.2859   -0.6404   -6.0393 H   0  0  0  0  0  0  0  0  0  0  0  0
   -1.6920    2.1835   -4.7195 H   0  0  0  0  0  0  0  0  0  0  0  0
   -1.6973    2.1617   -2.3852 H   0  0  0  0  0  0  0  0  0  0  0  0
   -2.6541    1.5480    2.1670 H   0  0  0  0  0  0  0  0  0  0  0  0
   -4.5967    0.4044    3.3065 H   0  0  0  0  0  0  0  0  0  0  0  0
   -8.1984   -1.6961    0.0657 H   0  0  0  0  0  0  0  0  0  0  0  0
   -7.8397   -2.5398    2.7371 H   0  0  0  0  0  0  0  0  0  0  0  0
   -8.7449   -1.0073    2.7496 H   0  0  0  0  0  0  0  0  0  0  0  0
  -10.4346   -1.9927    1.2257 H   0  0  0  0  0  0  0  0  0  0  0  0
   -9.5295   -3.5253    1.2131 H   0  0  0  0  0  0  0  0  0  0  0  0
   -9.8335   -3.7250    3.6659 H   0  0  0  0  0  0  0  0  0  0  0  0
  -10.7386   -2.1924    3.6785 H   0  0  0  0  0  0  0  0  0  0  0  0
  -12.9873   -2.1219    2.7887 H   0  0  0  0  0  0  0  0  0  0  0  0
  -12.2390   -2.4624    1.2096 H   0  0  0  0  0  0  0  0  0  0  0  0
  -13.6345   -4.4867    0.9696 H   0  0  0  0  0  0  0  0  0  0  0  0
  -14.6593   -3.0540    1.2265 H   0  0  0  0  0  0  0  0  0  0  0  0
  -13.2451   -6.0264    2.8325 H   0  0  0  0  0  0  0  0  0  0  0  0
  -13.9932   -5.6862    4.4116 H   0  0  0  0  0  0  0  0  0  0  0  0
  -11.5733   -5.0946    4.3945 H   0  0  0  0  0  0  0  0  0  0  0  0
  -12.5979   -3.6615    4.6516 H   0  0  0  0  0  0  0  0  0  0  0  0
  -16.1918   -5.4757    3.4416 H   0  0  0  0  0  0  0  0  0  0  0  0
  -16.4440   -4.3923    2.0520 H   0  0  0  0  0  0  0  0  0  0  0  0
  -15.5063   -5.8920    1.8525 H   0  0  0  0  0  0  0  0  0  0  0  0
   -0.0624    5.5856    0.0323 H   0  0  0  0  0  0  0  0  0  0  0  0
    2.0771    4.3724    0.0058 H   0  0  0  0  0  0  0  0  0  0  0  0
    2.1069    1.9129   -0.0075 H   0  0  0  0  0  0  0  0  0  0  0  0
  -11.7151   -3.8190    2.7284 N   0  3  0  0  0  0  0  0  0  0  0  0
  -11.4708   -4.5620    2.0633 H   0  0  0  0  0  0  0  0  0  0  0  0
  -14.5173   -4.3291    2.8925 N   0  3  0  0  0  0  0  0  0  0  0  0
  -14.7616   -3.5860    3.5576 H   0  0  0  0  0  0  0  0  0  0  0  0
  1  2  1  0  0  0  0
  1 36  1  0  0  0  0
  1 37  1  0  0  0  0
  1 38  1  0  0  0  0
  2  3  1  0  0  0  0
  2  4  1  0  0  0  0
  2  5  1  0  0  0  0
  3 39  1  0  0  0  0
  3 40  1  0  0  0  0
  3 41  1  0  0  0  0
  4 42  1  0  0  0  0
  4 43  1  0  0  0  0
  4 44  1  0  0  0  0
  5  6  1  0  0  0  0
  5 45  1  0  0  0  0
  6  7  2  0  0  0  0
  6  8  1  0  0  0  0
  8  9  1  0  0  0  0
  8 46  1  0  0  0  0
  9 18  2  0  0  0  0
  9 10  1  0  0  0  0
 10 11  2  0  0  0  0
 10 28  1  0  0  0  0
 11 12  1  0  0  0  0
 11 47  1  0  0  0  0
 12 17  2  0  0  0  0
 12 13  1  0  0  0  0
 13 14  2  0  0  0  0
 13 48  1  0  0  0  0
 14 15  1  0  0  0  0
 15 16  2  0  0  0  0
 15 19  1  0  0  0  0
 16 17  1  0  0  0  0
 17 18  1  0  0  0  0
 19 20  1  0  0  0  0
 19 49  1  0  0  0  0
 20 21  1  0  0  0  0
 20 50  1  0  0  0  0
 20 51  1  0  0  0  0
 21 22  1  0  0  0  0
 21 52  1  0  0  0  0
 21 53  1  0  0  0  0
 22 54  1  0  0  0  0
 22 55  1  0  0  0  0
 22 70  1  0  0  0  0
 23 24  1  0  0  0  0
 23 56  1  0  0  0  0
 23 57  1  0  0  0  0
 23 70  1  0  0  0  0
 24 58  1  0  0  0  0
 24 59  1  0  0  0  0
 24 72  1  0  0  0  0
 25 26  1  0  0  0  0
 25 60  1  0  0  0  0
 25 61  1  0  0  0  0
 25 72  1  0  0  0  0
 26 62  1  0  0  0  0
 26 63  1  0  0  0  0
 26 70  1  0  0  0  0
 27 64  1  0  0  0  0
 27 65  1  0  0  0  0
 27 66  1  0  0  0  0
 27 72  1  0  0  0  0
 28 33  2  0  0  0  0
 28 29  1  0  0  0  0
 29 30  2  0  0  0  0
 29 35  1  0  0  0  0
 30 31  1  0  0  0  0
 30 67  1  0  0  0  0
 31 32  2  0  0  0  0
 31 68  1  0  0  0  0
 32 33  1  0  0  0  0
 32 69  1  0  0  0  0
 33 34  1  0  0  0  0
 70 71  1  0  0  0  0
 72 73  1  0  0  0  0
M  CHG  2  70   1  72   1
M  END
$$$$
ZINC03815290
  -OEChem-08230709403D

 39 41  0     0  0  0  0  0  0999 V2000
   -2.9549    4.0261   -1.2937 C   0  0  0  0  0  0  0  0  0  0  0  0
   -2.4991    3.6455    0.0456 N   0  0  0  0  0  0  0  0  0  0  0  0
   -3.2955    3.9232    1.1601 C   0  0  0  0  0  0  0  0  0  0  0  0
   -4.5665    4.4585    0.9916 C   0  0  0  0  0  0  0  0  0  0  0  0
   -5.3513    4.7315    2.0944 C   0  0  0  0  0  0  0  0  0  0  0  0
   -4.8738    4.4728    3.3662 C   0  0  0  0  0  0  0  0  0  0  0  0
   -3.6088    3.9394    3.5381 C   0  0  0  0  0  0  0  0  0  0  0  0
   -2.8202    3.6595    2.4381 C   0  0  0  0  0  0  0  0  0  0  0  0
   -2.9607    3.5869    5.2793 Br  0  0  0  0  0  0  0  0  0  0  0  0
   -1.2828    3.0124    0.2067 C   0  0  0  0  0  0  0  0  0  0  0  0
   -0.0839    3.7573    0.3080 C   0  0  0  0  0  0  0  0  0  0  0  0
   -0.0739    5.1564    0.2504 C   0  0  0  0  0  0  0  0  0  0  0  0
    1.1103    5.8291    0.3526 C   0  0  0  0  0  0  0  0  0  0  0  0
    2.3174    5.1342    0.5148 C   0  0  0  0  0  0  0  0  0  0  0  0
    2.3344    3.7586    0.5749 C   0  0  0  0  0  0  0  0  0  0  0  0
    1.1317    3.0485    0.4723 C   0  0  0  0  0  0  0  0  0  0  0  0
    1.0943    1.7078    0.5246 N   0  0  0  0  0  0  0  0  0  0  0  0
   -0.0476    1.0699    0.4251 C   0  0  0  0  0  0  0  0  0  0  0  0
   -1.2063    1.6892    0.2654 N   0  0  0  0  0  0  0  0  0  0  0  0
    3.4825    5.8256    0.6141 O   0  0  0  0  0  0  0  0  0  0  0  0
    4.6786    5.0610    0.7784 C   0  0  0  0  0  0  0  0  0  0  0  0
    1.1188    7.1877    0.2969 O   0  0  0  0  0  0  0  0  0  0  0  0
   -0.1427    7.8381    0.1306 C   0  0  0  0  0  0  0  0  0  0  0  0
   -3.6067    3.2478   -1.6905 H   0  0  0  0  0  0  0  0  0  0  0  0
   -3.5042    4.9660   -1.2370 H   0  0  0  0  0  0  0  0  0  0  0  0
   -2.0931    4.1479   -1.9499 H   0  0  0  0  0  0  0  0  0  0  0  0
   -4.9402    4.6612   -0.0012 H   0  0  0  0  0  0  0  0  0  0  0  0
   -6.3395    5.1472    1.9636 H   0  0  0  0  0  0  0  0  0  0  0  0
   -5.4897    4.6872    4.2271 H   0  0  0  0  0  0  0  0  0  0  0  0
   -1.8343    3.2396    2.5723 H   0  0  0  0  0  0  0  0  0  0  0  0
   -0.9983    5.7010    0.1260 H   0  0  0  0  0  0  0  0  0  0  0  0
    3.2684    3.2312    0.7007 H   0  0  0  0  0  0  0  0  0  0  0  0
   -0.0415   -0.0091    0.4712 H   0  0  0  0  0  0  0  0  0  0  0  0
    4.6096    4.4705    1.6920 H   0  0  0  0  0  0  0  0  0  0  0  0
    4.8047    4.3956   -0.0756 H   0  0  0  0  0  0  0  0  0  0  0  0
    5.5337    5.7338    0.8443 H   0  0  0  0  0  0  0  0  0  0  0  0
   -0.6006    7.5096   -0.8024 H   0  0  0  0  0  0  0  0  0  0  0  0
   -0.7957    7.5833    0.9653 H   0  0  0  0  0  0  0  0  0  0  0  0
    0.0060    8.9175    0.1020 H   0  0  0  0  0  0  0  0  0  0  0  0
  1  2  1  0  0  0  0
  1 24  1  0  0  0  0
  1 25  1  0  0  0  0
  1 26  1  0  0  0  0
  2  3  1  0  0  0  0
  2 10  1  0  0  0  0
  3  8  2  0  0  0  0
  3  4  1  0  0  0  0
  4  5  2  0  0  0  0
  4 27  1  0  0  0  0
  5  6  1  0  0  0  0
  5 28  1  0  0  0  0
  6  7  2  0  0  0  0
  6 29  1  0  0  0  0
  7  8  1  0  0  0  0
  7  9  1  0  0  0  0
  8 30  1  0  0  0  0
 10 19  2  0  0  0  0
 10 11  1  0  0  0  0
 11 16  2  0  0  0  0
 11 12  1  0  0  0  0
 12 13  2  0  0  0  0
 12 31  1  0  0  0  0
 13 14  1  0  0  0  0
 13 22  1  0  0  0  0
 14 15  2  0  0  0  0
 14 20  1  0  0  0  0
 15 16  1  0  0  0  0
 15 32  1  0  0  0  0
 16 17  1  0  0  0  0
 17 18  2  0  0  0  0
 18 19  1  0  0  0  0
 18 33  1  0  0  0  0
 20 21  1  0  0  0  0
 21 34  1  0  0  0  0
 21 35  1  0  0  0  0
 21 36  1  0  0  0  0
 22 23  1  0  0  0  0
 23 37  1  0  0  0  0
 23 38  1  0  0  0  0
 23 39  1  0  0  0  0
M  END
$$$$
ZINC03815291
  -OEChem-08230709403D

 33 36  0     0  0  0  0  0  0999 V2000
   -0.1959    1.2428   -0.0987 C   0  0  0  0  0  0  0  0  0  0  0  0
    0.9777    1.9330   -0.3320 C   0  0  0  0  0  0  0  0  0  0  0  0
    1.1689    3.1868    0.2342 C   0  0  0  0  0  0  0  0  0  0  0  0
    0.1785    3.7430    1.0339 C   0  0  0  0  0  0  0  0  0  0  0  0
   -0.9932    3.0477    1.2634 C   0  0  0  0  0  0  0  0  0  0  0  0
   -1.1823    1.8008    0.6932 C   0  0  0  0  0  0  0  0  0  0  0  0
   -2.3425    3.8033    2.3517 Br  0  0  0  0  0  0  0  0  0  0  0  0
    2.3552    3.8876   -0.0005 N   0  0  0  0  0  0  0  0  0  0  0  0
    2.3357    5.2711   -0.0980 C   0  0  0  0  0  0  0  0  0  0  0  0
    3.5162    5.9940   -0.2114 C   0  0  0  0  0  0  0  0  0  0  0  0
    3.4977    7.3903   -0.3104 C   0  0  0  0  0  0  0  0  0  0  0  0
    4.8142    8.0478   -0.4262 C   0  0  0  0  0  0  0  0  0  0  0  0
    5.0754    9.4315   -0.5389 C   0  0  0  0  0  0  0  0  0  0  0  0
    6.3619    9.8940   -0.6392 C   0  0  0  0  0  0  0  0  0  0  0  0
    7.4422    9.0233   -0.6333 C   0  0  0  0  0  0  0  0  0  0  0  0
    7.2196    7.6652   -0.5244 C   0  0  0  0  0  0  0  0  0  0  0  0
    5.9270    7.1905   -0.4229 C   0  0  0  0  0  0  0  0  0  0  0  0
    5.2337    5.5637   -0.2703 S   0  0  0  0  0  0  0  0  0  0  0  0
    8.3609    6.7225   -0.5170 N   0  3  0  0  0  0  0  0  0  0  0  0
    9.4999    7.1445   -0.6067 O   0  0  0  0  0  0  0  0  0  0  0  0
    8.1609    5.5249   -0.4213 O   0  5  0  0  0  0  0  0  0  0  0  0
    2.2770    7.9714   -0.2878 N   0  0  0  0  0  0  0  0  0  0  0  0
    1.1845    7.2583   -0.1793 C   0  0  0  0  0  0  0  0  0  0  0  0
    1.1837    5.9406   -0.0910 N   0  0  0  0  0  0  0  0  0  0  0  0
   -0.3450    0.2680   -0.5391 H   0  0  0  0  0  0  0  0  0  0  0  0
    1.7460    1.4978   -0.9538 H   0  0  0  0  0  0  0  0  0  0  0  0
    0.3240    4.7179    1.4753 H   0  0  0  0  0  0  0  0  0  0  0  0
   -2.1006    1.2608    0.8706 H   0  0  0  0  0  0  0  0  0  0  0  0
    3.1921    3.4065   -0.0952 H   0  0  0  0  0  0  0  0  0  0  0  0
    4.2533   10.1319   -0.5465 H   0  0  0  0  0  0  0  0  0  0  0  0
    6.5379   10.9562   -0.7240 H   0  0  0  0  0  0  0  0  0  0  0  0
    8.4494    9.4050   -0.7128 H   0  0  0  0  0  0  0  0  0  0  0  0
    0.2353    7.7735   -0.1663 H   0  0  0  0  0  0  0  0  0  0  0  0
  1  6  2  0  0  0  0
  1  2  1  0  0  0  0
  1 25  1  0  0  0  0
  2  3  2  0  0  0  0
  2 26  1  0  0  0  0
  3  4  1  0  0  0  0
  3  8  1  0  0  0  0
  4  5  2  0  0  0  0
  4 27  1  0  0  0  0
  5  6  1  0  0  0  0
  5  7  1  0  0  0  0
  6 28  1  0  0  0  0
  8  9  1  0  0  0  0
  8 29  1  0  0  0  0
  9 24  2  0  0  0  0
  9 10  1  0  0  0  0
 10 18  1  0  0  0  0
 10 11  2  0  0  0  0
 11 12  1  0  0  0  0
 11 22  1  0  0  0  0
 12 17  2  0  0  0  0
 12 13  1  0  0  0  0
 13 14  2  0  0  0  0
 13 30  1  0  0  0  0
 14 15  1  0  0  0  0
 14 31  1  0  0  0  0
 15 16  2  0  0  0  0
 15 32  1  0  0  0  0
 16 17  1  0  0  0  0
 16 19  1  0  0  0  0
 17 18  1  0  0  0  0
 19 20  2  0  0  0  0
 19 21  1  0  0  0  0
 22 23  2  0  0  0  0
 23 24  1  0  0  0  0
 23 33  1  0  0  0  0
M  CHG  2  19   1  21  -1
M  END
$$$$
ZINC03815292
  -OEChem-08230709403D

 38 40  0     0  0  0  0  0  0999 V2000
    4.2819    5.6261    1.4087 C   0  0  0  0  0  0  0  0  0  0  0  0
    3.5537    5.8097    0.1462 N   0  0  0  0  0  0  0  0  0  0  0  0
    4.3812    5.4140   -1.0013 C   0  0  0  0  0  0  0  0  0  0  0  0
    2.3477    5.1088    0.1582 C   0  0  0  0  0  0  0  0  0  0  0  0
    2.3556    3.7396    0.3206 C   0  0  0  0  0  0  0  0  0  0  0  0
    1.1437    3.0389    0.3313 C   0  0  0  0  0  0  0  0  0  0  0  0
   -0.0735    3.7480    0.1755 C   0  0  0  0  0  0  0  0  0  0  0  0
   -0.0565    5.1388    0.0125 C   0  0  0  0  0  0  0  0  0  0  0  0
    1.1369    5.8051    0.0047 C   0  0  0  0  0  0  0  0  0  0  0  0
    1.1531    7.1948   -0.1582 N   0  0  0  0  0  0  0  0  0  0  0  0
   -1.2815    3.0118    0.1911 C   0  0  0  0  0  0  0  0  0  0  0  0
   -1.2128    1.6959    0.3458 N   0  0  0  0  0  0  0  0  0  0  0  0
   -0.0525    1.0764    0.4927 C   0  0  0  0  0  0  0  0  0  0  0  0
    1.0982    1.7062    0.4862 N   0  0  0  0  0  0  0  0  0  0  0  0
   -2.4996    3.6455    0.0442 N   0  0  0  0  0  0  0  0  0  0  0  0
   -3.6724    2.8914   -0.0542 C   0  0  0  0  0  0  0  0  0  0  0  0
   -4.8639    3.3870    0.4607 C   0  0  0  0  0  0  0  0  0  0  0  0
   -6.0211    2.6400    0.3617 C   0  0  0  0  0  0  0  0  0  0  0  0
   -5.9954    1.3998   -0.2496 C   0  0  0  0  0  0  0  0  0  0  0  0
   -4.8109    0.9031   -0.7639 C   0  0  0  0  0  0  0  0  0  0  0  0
   -3.6502    1.6478   -0.6718 C   0  0  0  0  0  0  0  0  0  0  0  0
   -4.7815   -0.7928   -1.5998 Br  0  0  0  0  0  0  0  0  0  0  0  0
    4.4947    4.5671    1.5547 H   0  0  0  0  0  0  0  0  0  0  0  0
    5.2181    6.1831    1.3724 H   0  0  0  0  0  0  0  0  0  0  0  0
    3.6733    5.9918    2.2357 H   0  0  0  0  0  0  0  0  0  0  0  0
    3.8447    5.6255   -1.9262 H   0  0  0  0  0  0  0  0  0  0  0  0
    5.3153    5.9755   -0.9864 H   0  0  0  0  0  0  0  0  0  0  0  0
    4.5975    4.3473   -0.9425 H   0  0  0  0  0  0  0  0  0  0  0  0
    3.2902    3.2114    0.4386 H   0  0  0  0  0  0  0  0  0  0  0  0
   -0.9821    5.6823   -0.1069 H   0  0  0  0  0  0  0  0  0  0  0  0
    0.3201    7.6803   -0.2648 H   0  0  0  0  0  0  0  0  0  0  0  0
    1.9972    7.6726   -0.1644 H   0  0  0  0  0  0  0  0  0  0  0  0
   -0.0528    0.0038    0.6191 H   0  0  0  0  0  0  0  0  0  0  0  0
   -2.5414    4.6140    0.0092 H   0  0  0  0  0  0  0  0  0  0  0  0
   -4.8850    4.3554    0.9382 H   0  0  0  0  0  0  0  0  0  0  0  0
   -6.9474    3.0251    0.7618 H   0  0  0  0  0  0  0  0  0  0  0  0
   -6.9020    0.8178   -0.3259 H   0  0  0  0  0  0  0  0  0  0  0  0
   -2.7265    1.2617   -1.0770 H   0  0  0  0  0  0  0  0  0  0  0  0
  1  2  1  0  0  0  0
  1 23  1  0  0  0  0
  1 24  1  0  0  0  0
  1 25  1  0  0  0  0
  2  3  1  0  0  0  0
  2  4  1  0  0  0  0
  3 26  1  0  0  0  0
  3 27  1  0  0  0  0
  3 28  1  0  0  0  0
  4  9  2  0  0  0  0
  4  5  1  0  0  0  0
  5  6  2  0  0  0  0
  5 29  1  0  0  0  0
  6 14  1  0  0  0  0
  6  7  1  0  0  0  0
  7  8  2  0  0  0  0
  7 11  1  0  0  0  0
  8  9  1  0  0  0  0
  8 30  1  0  0  0  0
  9 10  1  0  0  0  0
 10 31  1  0  0  0  0
 10 32  1  0  0  0  0
 11 12  2  0  0  0  0
 11 15  1  0  0  0  0
 12 13  1  0  0  0  0
 13 14  2  0  0  0  0
 13 33  1  0  0  0  0
 15 16  1  0  0  0  0
 15 34  1  0  0  0  0
 16 21  2  0  0  0  0
 16 17  1  0  0  0  0
 17 18  2  0  0  0  0
 17 35  1  0  0  0  0
 18 19  1  0  0  0  0
 18 36  1  0  0  0  0
 19 20  2  0  0  0  0
 19 37  1  0  0  0  0
 20 21  1  0  0  0  0
 20 22  1  0  0  0  0
 21 38  1  0  0  0  0
M  END
$$$$
ZINC03815293
  -OEChem-08230709403D

 27 29  0     0  0  0  0  0  0999 V2000
    4.0988    6.0826    0.3370 C   0  0  0  0  0  0  0  0  0  0  0  0
    3.2689    4.9827    0.4343 C   0  0  0  0  0  0  0  0  0  0  0  0
    1.9734    5.0452   -0.0632 C   0  0  0  0  0  0  0  0  0  0  0  0
    1.5180    6.2131   -0.6622 C   0  0  0  0  0  0  0  0  0  0  0  0
    2.3514    7.3118   -0.7518 C   0  0  0  0  0  0  0  0  0  0  0  0
    3.6417    7.2454   -0.2548 C   0  0  0  0  0  0  0  0  0  0  0  0
    1.7818    8.7743   -1.4936 Cl  0  0  0  0  0  0  0  0  0  0  0  0
    1.1321    3.9341    0.0334 N   0  0  0  0  0  0  0  0  0  0  0  0
   -0.2538    4.1064    0.0441 C   0  0  0  0  0  0  0  0  0  0  0  0
   -1.2563    3.0454    0.0241 C   0  0  0  0  0  0  0  0  0  0  0  0
   -1.2174    1.6414   -0.0089 C   0  0  0  0  0  0  0  0  0  0  0  0
   -2.3696    0.9783   -0.0133 N   0  0  0  0  0  0  0  0  0  0  0  0
   -3.5257    1.6180    0.0072 C   0  0  0  0  0  0  0  0  0  0  0  0
   -3.6117    2.9297    0.0328 N   0  0  0  0  0  0  0  0  0  0  0  0
   -2.5121    3.6834    0.0393 C   0  0  0  0  0  0  0  0  0  0  0  0
   -2.2727    5.0237    0.0636 N   0  0  0  0  0  0  0  0  0  0  0  0
   -2.9743    5.7362    0.0728 H   0  0  0  0  0  0  0  0  0  0  0  0
   -0.8918    5.2483    0.0737 N   0  0  0  0  0  0  0  0  0  0  0  0
   -0.0123    0.9669   -0.0304 N   0  0  0  0  0  0  0  0  0  0  0  0
    5.1061    6.0340    0.7234 H   0  0  0  0  0  0  0  0  0  0  0  0
    3.6269    4.0749    0.8971 H   0  0  0  0  0  0  0  0  0  0  0  0
    0.5127    6.2636   -1.0537 H   0  0  0  0  0  0  0  0  0  0  0  0
    4.2929    8.1038   -0.3299 H   0  0  0  0  0  0  0  0  0  0  0  0
    1.5106    3.0430    0.0932 H   0  0  0  0  0  0  0  0  0  0  0  0
   -4.4377    1.0394    0.0030 H   0  0  0  0  0  0  0  0  0  0  0  0
    0.0004   -0.0029   -0.0490 H   0  0  0  0  0  0  0  0  0  0  0  0
    0.8212    1.4630   -0.0309 H   0  0  0  0  0  0  0  0  0  0  0  0
  1  6  2  0  0  0  0
  1  2  1  0  0  0  0
  1 20  1  0  0  0  0
  2  3  2  0  0  0  0
  2 21  1  0  0  0  0
  3  4  1  0  0  0  0
  3  8  1  0  0  0  0
  4  5  2  0  0  0  0
  4 22  1  0  0  0  0
  5  6  1  0  0  0  0
  5  7  1  0  0  0  0
  6 23  1  0  0  0  0
  8  9  1  0  0  0  0
  8 24  1  0  0  0  0
  9 18  2  0  0  0  0
  9 10  1  0  0  0  0
 10 15  2  0  0  0  0
 10 11  1  0  0  0  0
 11 12  2  0  0  0  0
 11 19  1  0  0  0  0
 12 13  1  0  0  0  0
 13 14  2  0  0  0  0
 13 25  1  0  0  0  0
 14 15  1  0  0  0  0
 15 16  1  0  0  0  0
 16 17  1  0  0  0  0
 16 18  1  0  0  0  0
 19 26  1  0  0  0  0
 19 27  1  0  0  0  0
M  END
$$$$
ZINC03815293
  -OEChem-08230709403D

 27 29  0     0  0  0  0  0  0999 V2000
    4.0988    6.0826    0.3370 C   0  0  0  0  0  0  0  0  0  0  0  0
    3.2689    4.9827    0.4343 C   0  0  0  0  0  0  0  0  0  0  0  0
    1.9734    5.0452   -0.0632 C   0  0  0  0  0  0  0  0  0  0  0  0
    1.5180    6.2131   -0.6622 C   0  0  0  0  0  0  0  0  0  0  0  0
    2.3514    7.3118   -0.7518 C   0  0  0  0  0  0  0  0  0  0  0  0
    3.6417    7.2454   -0.2548 C   0  0  0  0  0  0  0  0  0  0  0  0
    1.7818    8.7743   -1.4936 Cl  0  0  0  0  0  0  0  0  0  0  0  0
    1.1321    3.9341    0.0334 N   0  0  0  0  0  0  0  0  0  0  0  0
   -0.2538    4.1064    0.0441 C   0  0  0  0  0  0  0  0  0  0  0  0
   -1.2563    3.0454    0.0241 C   0  0  0  0  0  0  0  0  0  0  0  0
   -1.2174    1.6414   -0.0089 C   0  0  0  0  0  0  0  0  0  0  0  0
   -2.3696    0.9783   -0.0133 N   0  0  0  0  0  0  0  0  0  0  0  0
   -3.5257    1.6180    0.0072 C   0  0  0  0  0  0  0  0  0  0  0  0
   -3.6117    2.9297    0.0328 N   0  0  0  0  0  0  0  0  0  0  0  0
   -2.5121    3.6834    0.0393 C   0  0  0  0  0  0  0  0  0  0  0  0
   -2.2727    5.0237    0.0636 N   0  0  0  0  0  0  0  0  0  0  0  0
   -2.9743    5.7362    0.0728 H   0  0  0  0  0  0  0  0  0  0  0  0
   -0.8918    5.2483    0.0737 N   0  0  0  0  0  0  0  0  0  0  0  0
   -0.0123    0.9669   -0.0304 N   0  0  0  0  0  0  0  0  0  0  0  0
    5.1061    6.0340    0.7234 H   0  0  0  0  0  0  0  0  0  0  0  0
    3.6269    4.0749    0.8971 H   0  0  0  0  0  0  0  0  0  0  0  0
    0.5127    6.2636   -1.0537 H   0  0  0  0  0  0  0  0  0  0  0  0
    4.2929    8.1038   -0.3299 H   0  0  0  0  0  0  0  0  0  0  0  0
    1.5106    3.0430    0.0932 H   0  0  0  0  0  0  0  0  0  0  0  0
   -4.4377    1.0394    0.0030 H   0  0  0  0  0  0  0  0  0  0  0  0
    0.0004   -0.0029   -0.0490 H   0  0  0  0  0  0  0  0  0  0  0  0
    0.8212    1.4630   -0.0309 H   0  0  0  0  0  0  0  0  0  0  0  0
  1  6  2  0  0  0  0
  1  2  1  0  0  0  0
  1 20  1  0  0  0  0
  2  3  2  0  0  0  0
  2 21  1  0  0  0  0
  3  4  1  0  0  0  0
  3  8  1  0  0  0  0
  4  5  2  0  0  0  0
  4 22  1  0  0  0  0
  5  6  1  0  0  0  0
  5  7  1  0  0  0  0
  6 23  1  0  0  0  0
  8  9  1  0  0  0  0
  8 24  1  0  0  0  0
  9 18  2  0  0  0  0
  9 10  1  0  0  0  0
 10 15  2  0  0  0  0
 10 11  1  0  0  0  0
 11 12  2  0  0  0  0
 11 19  1  0  0  0  0
 12 13  1  0  0  0  0
 13 14  2  0  0  0  0
 13 25  1  0  0  0  0
 14 15  1  0  0  0  0
 15 16  1  0  0  0  0
 16 17  1  0  0  0  0
 16 18  1  0  0  0  0
 19 26  1  0  0  0  0
 19 27  1  0  0  0  0
M  END
$$$$
ZINC03815294
  -OEChem-08230709403D

 41 43  0     0  0  0  0  0  0999 V2000
    1.0130    4.4233    4.5590 C   0  0  0  0  0  0  0  0  0  0  0  0
   -0.1574    3.6263    4.3662 O   0  0  0  0  0  0  0  0  0  0  0  0
   -0.3631    3.1229    3.1198 C   0  0  0  0  0  0  0  0  0  0  0  0
    0.5334    3.3909    2.1257 C   0  0  0  0  0  0  0  0  0  0  0  0
    0.3241    2.8727    0.8393 C   0  0  0  0  0  0  0  0  0  0  0  0
   -0.8148    2.0738    0.5758 C   0  0  0  0  0  0  0  0  0  0  0  0
   -1.7217    1.8125    1.6141 C   0  0  0  0  0  0  0  0  0  0  0  0
   -1.4935    2.3333    2.8676 C   0  0  0  0  0  0  0  0  0  0  0  0
   -2.3730    2.0790    3.8713 O   0  0  0  0  0  0  0  0  0  0  0  0
   -3.5051    1.2676    3.5518 C   0  0  0  0  0  0  0  0  0  0  0  0
   -1.0231    1.5790   -0.6533 N   0  0  0  0  0  0  0  0  0  0  0  0
   -0.1930    1.8009   -1.6402 C   0  0  0  0  0  0  0  0  0  0  0  0
    0.9615    2.5818   -1.4693 C   0  0  0  0  0  0  0  0  0  0  0  0
    1.2365    3.1342   -0.2092 C   0  0  0  0  0  0  0  0  0  0  0  0
    2.3609    3.9073    0.0004 N   0  0  0  0  0  0  0  0  0  0  0  0
    3.5582    3.3058    0.4009 C   0  0  0  0  0  0  0  0  0  0  0  0
    3.5868    1.9521    0.7118 C   0  0  0  0  0  0  0  0  0  0  0  0
    4.7713    1.3593    1.1019 C   0  0  0  0  0  0  0  0  0  0  0  0
    5.9279    2.1156    1.1944 C   0  0  0  0  0  0  0  0  0  0  0  0
    5.9006    3.4660    0.8901 C   0  0  0  0  0  0  0  0  0  0  0  0
    4.7193    4.0621    0.4939 C   0  0  0  0  0  0  0  0  0  0  0  0
    7.1610    4.2860    0.9908 C   0  0  0  0  0  0  0  0  0  0  0  0
    6.8850    5.6108    0.6360 F   0  0  0  0  0  0  0  0  0  0  0  0
    7.6402    4.2452    2.3045 F   0  0  0  0  0  0  0  0  0  0  0  0
    8.1279    3.7633    0.1253 F   0  0  0  0  0  0  0  0  0  0  0  0
    7.0844    1.5346    1.5817 F   0  0  0  0  0  0  0  0  0  0  0  0
    1.8485    2.8123   -2.5696 C   0  0  0  0  0  0  0  0  0  0  0  0
    2.5522    2.9952   -3.4425 N   0  0  0  0  0  0  0  0  0  0  0  0
    1.8984    3.8291    4.3332 H   0  0  0  0  0  0  0  0  0  0  0  0
    0.9770    5.2879    3.8962 H   0  0  0  0  0  0  0  0  0  0  0  0
    1.0562    4.7608    5.5945 H   0  0  0  0  0  0  0  0  0  0  0  0
    1.4015    4.0002    2.3293 H   0  0  0  0  0  0  0  0  0  0  0  0
   -2.5954    1.2048    1.4305 H   0  0  0  0  0  0  0  0  0  0  0  0
   -4.1248    1.1427    4.4397 H   0  0  0  0  0  0  0  0  0  0  0  0
   -4.0878    1.7498    2.7669 H   0  0  0  0  0  0  0  0  0  0  0  0
   -3.1661    0.2914    3.2050 H   0  0  0  0  0  0  0  0  0  0  0  0
   -0.4032    1.3769   -2.6109 H   0  0  0  0  0  0  0  0  0  0  0  0
    2.3205    4.8676   -0.1300 H   0  0  0  0  0  0  0  0  0  0  0  0
    2.6842    1.3630    0.6440 H   0  0  0  0  0  0  0  0  0  0  0  0
    4.7948    0.3060    1.3397 H   0  0  0  0  0  0  0  0  0  0  0  0
    4.6985    5.1156    0.2570 H   0  0  0  0  0  0  0  0  0  0  0  0
  1  2  1  0  0  0  0
  1 29  1  0  0  0  0
  1 30  1  0  0  0  0
  1 31  1  0  0  0  0
  2  3  1  0  0  0  0
  3  8  2  0  0  0  0
  3  4  1  0  0  0  0
  4  5  2  0  0  0  0
  4 32  1  0  0  0  0
  5 14  1  0  0  0  0
  5  6  1  0  0  0  0
  6  7  2  0  0  0  0
  6 11  1  0  0  0  0
  7  8  1  0  0  0  0
  7 33  1  0  0  0  0
  8  9  1  0  0  0  0
  9 10  1  0  0  0  0
 10 34  1  0  0  0  0
 10 35  1  0  0  0  0
 10 36  1  0  0  0  0
 11 12  2  0  0  0  0
 12 13  1  0  0  0  0
 12 37  1  0  0  0  0
 13 14  2  0  0  0  0
 13 27  1  0  0  0  0
 14 15  1  0  0  0  0
 15 16  1  0  0  0  0
 15 38  1  0  0  0  0
 16 21  2  0  0  0  0
 16 17  1  0  0  0  0
 17 18  2  0  0  0  0
 17 39  1  0  0  0  0
 18 19  1  0  0  0  0
 18 40  1  0  0  0  0
 19 20  2  0  0  0  0
 19 26  1  0  0  0  0
 20 21  1  0  0  0  0
 20 22  1  0  0  0  0
 21 41  1  0  0  0  0
 22 23  1  0  0  0  0
 22 24  1  0  0  0  0
 22 25  1  0  0  0  0
 27 28  3  0  0  0  0
M  END
$$$$
ZINC03815295
  -OEChem-08230709403D

 36 38  0     0  0  0  0  0  0999 V2000
   -2.2712    6.7784    3.8966 C   0  0  0  0  0  0  0  0  0  0  0  0
   -2.1736    5.3238    3.7517 N   0  0  0  0  0  0  0  0  0  0  0  0
   -2.7087    4.5370    4.7128 C   0  0  0  0  0  0  0  0  0  0  0  0
   -2.6588    3.1781    4.6512 C   0  0  0  0  0  0  0  0  0  0  0  0
   -2.0028    2.5367    3.5036 C   0  0  0  0  0  0  0  0  0  0  0  0
   -1.9360    1.3223    3.4086 O   0  0  0  0  0  0  0  0  0  0  0  0
   -1.4354    3.4160    2.4719 C   0  0  0  0  0  0  0  0  0  0  0  0
   -1.5408    4.8096    2.6417 C   0  0  0  0  0  0  0  0  0  0  0  0
   -1.0048    5.6549    1.6780 C   0  0  0  0  0  0  0  0  0  0  0  0
   -0.3709    5.1255    0.5664 C   0  0  0  0  0  0  0  0  0  0  0  0
   -0.2616    3.7485    0.3995 C   0  0  0  0  0  0  0  0  0  0  0  0
   -0.7872    2.8898    1.3459 C   0  0  0  0  0  0  0  0  0  0  0  0
   -0.6816    1.5467    1.1837 O   0  0  0  0  0  0  0  0  0  0  0  0
   -0.0127    1.0858    0.0080 C   0  0  0  0  0  0  0  0  0  0  0  0
    0.1499    5.9589   -0.3702 O   0  0  0  0  0  0  0  0  0  0  0  0
   -3.2594    2.3554    5.7286 C   0  0  0  0  0  0  0  0  0  0  0  0
   -4.1340    1.3170    5.4110 C   0  0  0  0  0  0  0  0  0  0  0  0
   -4.6865    0.5512    6.4171 C   0  0  0  0  0  0  0  0  0  0  0  0
   -4.3823    0.8180    7.7400 C   0  0  0  0  0  0  0  0  0  0  0  0
   -3.5189    1.8509    8.0621 C   0  0  0  0  0  0  0  0  0  0  0  0
   -2.9563    2.6208    7.0626 C   0  0  0  0  0  0  0  0  0  0  0  0
   -3.1428    2.1794    9.7248 Cl  0  0  0  0  0  0  0  0  0  0  0  0
   -3.1900    7.1295    3.4270 H   0  0  0  0  0  0  0  0  0  0  0  0
   -2.2819    7.0382    4.9552 H   0  0  0  0  0  0  0  0  0  0  0  0
   -1.4142    7.2497    3.4156 H   0  0  0  0  0  0  0  0  0  0  0  0
   -3.1922    5.0030    5.5587 H   0  0  0  0  0  0  0  0  0  0  0  0
   -1.0829    6.7256    1.7958 H   0  0  0  0  0  0  0  0  0  0  0  0
    0.2351    3.3496   -0.4726 H   0  0  0  0  0  0  0  0  0  0  0  0
    0.0021   -0.0041    0.0020 H   0  0  0  0  0  0  0  0  0  0  0  0
    1.0099    1.4631    0.0003 H   0  0  0  0  0  0  0  0  0  0  0  0
   -0.5399    1.4469   -0.8751 H   0  0  0  0  0  0  0  0  0  0  0  0
   -0.4681    6.1921   -1.0765 H   0  0  0  0  0  0  0  0  0  0  0  0
   -4.3756    1.1100    4.3790 H   0  0  0  0  0  0  0  0  0  0  0  0
   -5.3614   -0.2554    6.1715 H   0  0  0  0  0  0  0  0  0  0  0  0
   -4.8204    0.2185    8.5243 H   0  0  0  0  0  0  0  0  0  0  0  0
   -2.2826    3.4265    7.3145 H   0  0  0  0  0  0  0  0  0  0  0  0
  1  2  1  0  0  0  0
  1 23  1  0  0  0  0
  1 24  1  0  0  0  0
  1 25  1  0  0  0  0
  2  8  1  0  0  0  0
  2  3  1  0  0  0  0
  3  4  2  0  0  0  0
  3 26  1  0  0  0  0
  4  5  1  0  0  0  0
  4 16  1  0  0  0  0
  5  6  2  0  0  0  0
  5  7  1  0  0  0  0
  7 12  2  0  0  0  0
  7  8  1  0  0  0  0
  8  9  2  0  0  0  0
  9 10  1  0  0  0  0
  9 27  1  0  0  0  0
 10 11  2  0  0  0  0
 10 15  1  0  0  0  0
 11 12  1  0  0  0  0
 11 28  1  0  0  0  0
 12 13  1  0  0  0  0
 13 14  1  0  0  0  0
 14 29  1  0  0  0  0
 14 30  1  0  0  0  0
 14 31  1  0  0  0  0
 15 32  1  0  0  0  0
 16 21  2  0  0  0  0
 16 17  1  0  0  0  0
 17 18  2  0  0  0  0
 17 33  1  0  0  0  0
 18 19  1  0  0  0  0
 18 34  1  0  0  0  0
 19 20  2  0  0  0  0
 19 35  1  0  0  0  0
 20 21  1  0  0  0  0
 20 22  1  0  0  0  0
 21 36  1  0  0  0  0
M  END
$$$$
ZINC03815296
  -OEChem-08230709403D

 32 34  0     0  0  0  0  0  0999 V2000
    4.3515   -1.6234    0.1549 C   0  0  0  0  0  0  0  0  0  0  0  0
    3.7504   -0.2548   -0.0370 C   0  0  0  0  0  0  0  0  0  0  0  0
    4.4171    0.9084   -0.1177 C   0  0  0  0  0  0  0  0  0  0  0  0
    3.5316    1.9403   -0.2923 N   0  0  0  0  0  0  0  0  0  0  0  0
    3.7765    2.8750   -0.3777 H   0  0  0  0  0  0  0  0  0  0  0  0
    2.2520    1.4583   -0.3288 C   0  0  0  0  0  0  0  0  0  0  0  0
    2.3299    0.0620   -0.1707 C   0  0  0  0  0  0  0  0  0  0  0  0
    1.1408   -0.6828   -0.1722 C   0  0  0  0  0  0  0  0  0  0  0  0
   -0.0102   -0.0336   -0.3235 N   0  0  0  0  0  0  0  0  0  0  0  0
   -0.0377    1.2787   -0.4689 C   0  0  0  0  0  0  0  0  0  0  0  0
    1.0515    2.0166   -0.4736 N   0  0  0  0  0  0  0  0  0  0  0  0
    1.1649   -2.0584   -0.0197 N   0  0  0  0  0  0  0  0  0  0  0  0
   -0.0327   -2.7700    0.0939 C   0  0  0  0  0  0  0  0  0  0  0  0
   -1.1297   -2.1908    0.7188 C   0  0  0  0  0  0  0  0  0  0  0  0
   -2.3146   -2.8947    0.8246 C   0  0  0  0  0  0  0  0  0  0  0  0
   -2.4049   -4.1798    0.3193 C   0  0  0  0  0  0  0  0  0  0  0  0
   -1.3118   -4.7615   -0.2987 C   0  0  0  0  0  0  0  0  0  0  0  0
   -0.1264   -4.0599   -0.4128 C   0  0  0  0  0  0  0  0  0  0  0  0
   -1.4297   -6.3737   -0.9317 Cl  0  0  0  0  0  0  0  0  0  0  0  0
   -3.6882   -2.1688    1.5991 Cl  0  0  0  0  0  0  0  0  0  0  0  0
    5.9142    1.0568   -0.0300 C   0  0  0  0  0  0  0  0  0  0  0  0
    4.5674   -2.0651   -0.8179 H   0  0  0  0  0  0  0  0  0  0  0  0
    5.2747   -1.5376    0.7280 H   0  0  0  0  0  0  0  0  0  0  0  0
    3.6471   -2.2573    0.6935 H   0  0  0  0  0  0  0  0  0  0  0  0
   -0.9935    1.7658   -0.5934 H   0  0  0  0  0  0  0  0  0  0  0  0
    2.0129   -2.5285    0.0084 H   0  0  0  0  0  0  0  0  0  0  0  0
   -1.0582   -1.1896    1.1176 H   0  0  0  0  0  0  0  0  0  0  0  0
   -3.3303   -4.7297    0.4071 H   0  0  0  0  0  0  0  0  0  0  0  0
    0.7262   -4.5140   -0.8958 H   0  0  0  0  0  0  0  0  0  0  0  0
    6.3459    0.9814   -1.0281 H   0  0  0  0  0  0  0  0  0  0  0  0
    6.1584    2.0286    0.3990 H   0  0  0  0  0  0  0  0  0  0  0  0
    6.3211    0.2678    0.6024 H   0  0  0  0  0  0  0  0  0  0  0  0
  1  2  1  0  0  0  0
  1 22  1  0  0  0  0
  1 23  1  0  0  0  0
  1 24  1  0  0  0  0
  2  7  1  0  0  0  0
  2  3  2  0  0  0  0
  3  4  1  0  0  0  0
  3 21  1  0  0  0  0
  4  5  1  0  0  0  0
  4  6  1  0  0  0  0
  6 11  2  0  0  0  0
  6  7  1  0  0  0  0
  7  8  2  0  0  0  0
  8  9  1  0  0  0  0
  8 12  1  0  0  0  0
  9 10  2  0  0  0  0
 10 11  1  0  0  0  0
 10 25  1  0  0  0  0
 12 13  1  0  0  0  0
 12 26  1  0  0  0  0
 13 18  2  0  0  0  0
 13 14  1  0  0  0  0
 14 15  2  0  0  0  0
 14 27  1  0  0  0  0
 15 16  1  0  0  0  0
 15 20  1  0  0  0  0
 16 17  2  0  0  0  0
 16 28  1  0  0  0  0
 17 18  1  0  0  0  0
 17 19  1  0  0  0  0
 18 29  1  0  0  0  0
 21 30  1  0  0  0  0
 21 31  1  0  0  0  0
 21 32  1  0  0  0  0
M  END
$$$$
ZINC03815297
  -OEChem-08230709403D

 42 44  0     0  0  0  0  0  0999 V2000
   -2.5139    0.9796    0.0192 C   0  0  0  0  0  0  0  0  0  0  0  0
   -1.2192    1.7508    0.0173 C   0  0  0  0  0  0  0  0  0  0  0  0
   -0.0126    1.0758    0.0080 C   0  0  0  0  0  0  0  0  0  0  0  0
    1.1748    1.7831    0.0004 C   0  0  0  0  0  0  0  0  0  0  0  0
    1.1561    3.1655    0.0076 C   0  0  0  0  0  0  0  0  0  0  0  0
   -0.0501    3.8402    0.0223 C   0  0  0  0  0  0  0  0  0  0  0  0
   -1.2379    3.1327    0.0299 C   0  0  0  0  0  0  0  0  0  0  0  0
   -0.0705    5.3471    0.0297 C   0  0  0  0  0  0  0  0  0  0  0  0
   -0.0904    5.8419   -1.3491 N   0  0  0  0  0  0  0  0  0  0  0  0
   -0.1112    7.1993   -1.5946 C   0  0  0  0  0  0  0  0  0  0  0  0
   -0.1305    7.6978   -2.9189 C   0  0  0  0  0  0  0  0  0  0  0  0
   -0.1286    6.8464   -4.0308 C   0  0  0  0  0  0  0  0  0  0  0  0
   -0.1473    7.3772   -5.2889 C   0  0  0  0  0  0  0  0  0  0  0  0
   -0.1685    8.7661   -5.4803 C   0  0  0  0  0  0  0  0  0  0  0  0
   -0.1709    9.6245   -4.4037 C   0  0  0  0  0  0  0  0  0  0  0  0
   -0.1519    9.1020   -3.1044 C   0  0  0  0  0  0  0  0  0  0  0  0
   -0.1529    9.8954   -2.0217 N   0  0  0  0  0  0  0  0  0  0  0  0
   -0.1344    9.3767   -0.8171 C   0  0  0  0  0  0  0  0  0  0  0  0
   -0.1192    8.0718   -0.5955 N   0  0  0  0  0  0  0  0  0  0  0  0
   -0.1873    9.2703   -6.7416 O   0  0  0  0  0  0  0  0  0  0  0  0
   -0.2089   10.6932   -6.8713 C   0  0  0  0  0  0  0  0  0  0  0  0
   -0.1454    6.5497   -6.3680 O   0  0  0  0  0  0  0  0  0  0  0  0
   -0.1234    5.1447   -6.1080 C   0  0  0  0  0  0  0  0  0  0  0  0
   -2.8212    0.7881    1.0473 H   0  0  0  0  0  0  0  0  0  0  0  0
   -3.2839    1.5611   -0.4878 H   0  0  0  0  0  0  0  0  0  0  0  0
   -2.3731    0.0319   -0.5005 H   0  0  0  0  0  0  0  0  0  0  0  0
    0.0021   -0.0041    0.0020 H   0  0  0  0  0  0  0  0  0  0  0  0
    2.1173    1.2559   -0.0114 H   0  0  0  0  0  0  0  0  0  0  0  0
    2.0839    3.7182    0.0014 H   0  0  0  0  0  0  0  0  0  0  0  0
   -2.1804    3.6599    0.0410 H   0  0  0  0  0  0  0  0  0  0  0  0
   -0.9604    5.6958    0.5537 H   0  0  0  0  0  0  0  0  0  0  0  0
    0.8193    5.7200    0.5368 H   0  0  0  0  0  0  0  0  0  0  0  0
   -0.0889    5.2151   -2.0894 H   0  0  0  0  0  0  0  0  0  0  0  0
   -0.1122    5.7753   -3.8939 H   0  0  0  0  0  0  0  0  0  0  0  0
   -0.1876   10.6930   -4.5600 H   0  0  0  0  0  0  0  0  0  0  0  0
   -0.1358   10.0442    0.0319 H   0  0  0  0  0  0  0  0  0  0  0  0
   -1.1002   11.0889   -6.3843 H   0  0  0  0  0  0  0  0  0  0  0  0
    0.6795   11.1144   -6.4007 H   0  0  0  0  0  0  0  0  0  0  0  0
   -0.2225   10.9617   -7.9276 H   0  0  0  0  0  0  0  0  0  0  0  0
    0.7753    4.8935   -5.5446 H   0  0  0  0  0  0  0  0  0  0  0  0
   -1.0044    4.8685   -5.5286 H   0  0  0  0  0  0  0  0  0  0  0  0
   -0.1242    4.6004   -7.0523 H   0  0  0  0  0  0  0  0  0  0  0  0
  1  2  1  0  0  0  0
  1 24  1  0  0  0  0
  1 25  1  0  0  0  0
  1 26  1  0  0  0  0
  2  7  2  0  0  0  0
  2  3  1  0  0  0  0
  3  4  2  0  0  0  0
  3 27  1  0  0  0  0
  4  5  1  0  0  0  0
  4 28  1  0  0  0  0
  5  6  2  0  0  0  0
  5 29  1  0  0  0  0
  6  7  1  0  0  0  0
  6  8  1  0  0  0  0
  7 30  1  0  0  0  0
  8  9  1  0  0  0  0
  8 31  1  0  0  0  0
  8 32  1  0  0  0  0
  9 10  1  0  0  0  0
  9 33  1  0  0  0  0
 10 19  2  0  0  0  0
 10 11  1  0  0  0  0
 11 16  2  0  0  0  0
 11 12  1  0  0  0  0
 12 13  2  0  0  0  0
 12 34  1  0  0  0  0
 13 14  1  0  0  0  0
 13 22  1  0  0  0  0
 14 15  2  0  0  0  0
 14 20  1  0  0  0  0
 15 16  1  0  0  0  0
 15 35  1  0  0  0  0
 16 17  1  0  0  0  0
 17 18  2  0  0  0  0
 18 19  1  0  0  0  0
 18 36  1  0  0  0  0
 20 21  1  0  0  0  0
 21 37  1  0  0  0  0
 21 38  1  0  0  0  0
 21 39  1  0  0  0  0
 22 23  1  0  0  0  0
 23 40  1  0  0  0  0
 23 41  1  0  0  0  0
 23 42  1  0  0  0  0
M  END
$$$$
ZINC03815298
  -OEChem-08230709403D

 38 40  0     0  0  0  0  0  0999 V2000
    1.0126    4.4238    4.5586 C   0  0  0  0  0  0  0  0  0  0  0  0
   -0.1575    3.6265    4.3660 O   0  0  0  0  0  0  0  0  0  0  0  0
   -0.3631    3.1229    3.1197 C   0  0  0  0  0  0  0  0  0  0  0  0
    0.5336    3.3906    2.1256 C   0  0  0  0  0  0  0  0  0  0  0  0
    0.3243    2.8725    0.8392 C   0  0  0  0  0  0  0  0  0  0  0  0
   -0.8147    2.0736    0.5757 C   0  0  0  0  0  0  0  0  0  0  0  0
   -1.7216    1.8123    1.6140 C   0  0  0  0  0  0  0  0  0  0  0  0
   -1.4932    2.3330    2.8676 C   0  0  0  0  0  0  0  0  0  0  0  0
   -2.3725    2.0782    3.8714 O   0  0  0  0  0  0  0  0  0  0  0  0
   -3.5043    1.2664    3.5520 C   0  0  0  0  0  0  0  0  0  0  0  0
   -1.0230    1.5789   -0.6534 N   0  0  0  0  0  0  0  0  0  0  0  0
   -0.1929    1.8010   -1.6403 C   0  0  0  0  0  0  0  0  0  0  0  0
    0.9615    2.5819   -1.4694 C   0  0  0  0  0  0  0  0  0  0  0  0
    1.2366    3.1342   -0.2092 C   0  0  0  0  0  0  0  0  0  0  0  0
    2.3612    3.9073    0.0004 N   0  0  0  0  0  0  0  0  0  0  0  0
    3.5575    3.3063    0.4005 C   0  0  0  0  0  0  0  0  0  0  0  0
    3.5864    1.9523    0.7115 C   0  0  0  0  0  0  0  0  0  0  0  0
    4.7711    1.3598    1.1016 C   0  0  0  0  0  0  0  0  0  0  0  0
    5.9263    2.1144    1.1936 C   0  0  0  0  0  0  0  0  0  0  0  0
    5.9005    3.4643    0.8898 C   0  0  0  0  0  0  0  0  0  0  0  0
    4.7188    4.0622    0.4937 C   0  0  0  0  0  0  0  0  0  0  0  0
    7.3532    4.4076    1.0069 Cl  0  0  0  0  0  0  0  0  0  0  0  0
    1.8485    2.8126   -2.5697 C   0  0  0  0  0  0  0  0  0  0  0  0
    2.5522    2.9955   -3.4425 N   0  0  0  0  0  0  0  0  0  0  0  0
    1.0557    4.7615    5.5941 H   0  0  0  0  0  0  0  0  0  0  0  0
    1.8982    3.8298    4.3330 H   0  0  0  0  0  0  0  0  0  0  0  0
    0.9764    5.2883    3.8957 H   0  0  0  0  0  0  0  0  0  0  0  0
    1.4017    3.9999    2.3292 H   0  0  0  0  0  0  0  0  0  0  0  0
   -2.5953    1.2046    1.4304 H   0  0  0  0  0  0  0  0  0  0  0  0
   -3.1651    0.2904    3.2050 H   0  0  0  0  0  0  0  0  0  0  0  0
   -4.1238    1.1412    4.4400 H   0  0  0  0  0  0  0  0  0  0  0  0
   -4.0874    1.7485    2.7673 H   0  0  0  0  0  0  0  0  0  0  0  0
   -0.4032    1.3771   -2.6111 H   0  0  0  0  0  0  0  0  0  0  0  0
    2.3208    4.8676   -0.1300 H   0  0  0  0  0  0  0  0  0  0  0  0
    2.6838    1.3630    0.6446 H   0  0  0  0  0  0  0  0  0  0  0  0
    4.7946    0.3065    1.3393 H   0  0  0  0  0  0  0  0  0  0  0  0
    6.8507    1.6492    1.5029 H   0  0  0  0  0  0  0  0  0  0  0  0
    4.6986    5.1158    0.2573 H   0  0  0  0  0  0  0  0  0  0  0  0
  1  2  1  0  0  0  0
  1 25  1  0  0  0  0
  1 26  1  0  0  0  0
  1 27  1  0  0  0  0
  2  3  1  0  0  0  0
  3  8  2  0  0  0  0
  3  4  1  0  0  0  0
  4  5  2  0  0  0  0
  4 28  1  0  0  0  0
  5 14  1  0  0  0  0
  5  6  1  0  0  0  0
  6  7  2  0  0  0  0
  6 11  1  0  0  0  0
  7  8  1  0  0  0  0
  7 29  1  0  0  0  0
  8  9  1  0  0  0  0
  9 10  1  0  0  0  0
 10 30  1  0  0  0  0
 10 31  1  0  0  0  0
 10 32  1  0  0  0  0
 11 12  2  0  0  0  0
 12 13  1  0  0  0  0
 12 33  1  0  0  0  0
 13 14  2  0  0  0  0
 13 23  1  0  0  0  0
 14 15  1  0  0  0  0
 15 16  1  0  0  0  0
 15 34  1  0  0  0  0
 16 21  2  0  0  0  0
 16 17  1  0  0  0  0
 17 18  2  0  0  0  0
 17 35  1  0  0  0  0
 18 19  1  0  0  0  0
 18 36  1  0  0  0  0
 19 20  2  0  0  0  0
 19 37  1  0  0  0  0
 20 21  1  0  0  0  0
 20 22  1  0  0  0  0
 21 38  1  0  0  0  0
 23 24  3  0  0  0  0
M  END
$$$$
ZINC03815299
  -OEChem-08230709403D

 43 46  0     0  0  0  0  0  0999 V2000
    0.0695    1.0902    0.1128 C   0  0  0  0  0  0  0  0  0  0  0  0
   -0.4234    1.5836    1.4011 N   0  0  0  0  0  0  0  0  0  0  0  0
   -0.5357    2.9345    1.6130 C   0  0  0  0  0  0  0  0  0  0  0  0
   -1.0136    3.4263    2.8471 C   0  0  0  0  0  0  0  0  0  0  0  0
   -1.3712    2.5296    3.8797 C   0  0  0  0  0  0  0  0  0  0  0  0
   -1.2509    1.1835    3.6609 C   0  0  0  0  0  0  0  0  0  0  0  0
   -0.7566    0.7065    2.3675 C   0  0  0  0  0  0  0  0  0  0  0  0
   -0.6465   -0.4896    2.1646 O   0  0  0  0  0  0  0  0  0  0  0  0
   -1.6171    0.2179    4.7234 C   0  0  0  0  0  0  0  0  0  0  0  0
   -0.6581   -0.2099    5.6423 C   0  0  0  0  0  0  0  0  0  0  0  0
   -1.0070   -1.1072    6.6326 C   0  0  0  0  0  0  0  0  0  0  0  0
   -2.3015   -1.5886    6.7091 C   0  0  0  0  0  0  0  0  0  0  0  0
   -3.2558   -1.1722    5.7984 C   0  0  0  0  0  0  0  0  0  0  0  0
   -2.9211   -0.2719    4.8059 C   0  0  0  0  0  0  0  0  0  0  0  0
   -4.1199    0.2486    3.6632 Cl  0  0  0  0  0  0  0  0  0  0  0  0
    0.9686    0.3884    5.5442 Cl  0  0  0  0  0  0  0  0  0  0  0  0
   -1.1184    4.8145    3.0209 C   0  0  0  0  0  0  0  0  0  0  0  0
   -0.7703    5.6043    2.0224 N   0  0  0  0  0  0  0  0  0  0  0  0
   -0.3288    5.1057    0.8729 C   0  0  0  0  0  0  0  0  0  0  0  0
   -0.2122    3.8036    0.6621 N   0  0  0  0  0  0  0  0  0  0  0  0
    0.0221    5.9779   -0.1397 N   0  0  0  0  0  0  0  0  0  0  0  0
   -0.1985    7.3504    0.0118 C   0  0  0  0  0  0  0  0  0  0  0  0
   -1.3062    7.8023    0.7201 C   0  0  0  0  0  0  0  0  0  0  0  0
   -1.5263    9.1577    0.8769 C   0  0  0  0  0  0  0  0  0  0  0  0
   -0.6538   10.0721    0.3226 C   0  0  0  0  0  0  0  0  0  0  0  0
    0.4589    9.6289   -0.3951 C   0  0  0  0  0  0  0  0  0  0  0  0
    0.6840    8.2603   -0.5489 C   0  0  0  0  0  0  0  0  0  0  0  0
    1.3944   10.6055   -0.9900 C   0  0  0  0  0  0  0  0  0  0  0  0
    2.3615   10.2176   -1.6144 O   0  0  0  0  0  0  0  0  0  0  0  0
    0.0962    0.0006    0.1271 H   0  0  0  0  0  0  0  0  0  0  0  0
    1.0736    1.4760   -0.0639 H   0  0  0  0  0  0  0  0  0  0  0  0
   -0.5944    1.4270   -0.6834 H   0  0  0  0  0  0  0  0  0  0  0  0
   -1.7342    2.9008    4.8267 H   0  0  0  0  0  0  0  0  0  0  0  0
   -0.2666   -1.4366    7.3465 H   0  0  0  0  0  0  0  0  0  0  0  0
   -2.5683   -2.2930    7.4831 H   0  0  0  0  0  0  0  0  0  0  0  0
   -4.2647   -1.5521    5.8634 H   0  0  0  0  0  0  0  0  0  0  0  0
   -1.4761    5.2281    3.9523 H   0  0  0  0  0  0  0  0  0  0  0  0
    0.4216    5.6381   -0.9558 H   0  0  0  0  0  0  0  0  0  0  0  0
   -1.9951    7.0917    1.1524 H   0  0  0  0  0  0  0  0  0  0  0  0
   -2.3864    9.5026    1.4317 H   0  0  0  0  0  0  0  0  0  0  0  0
   -0.8318   11.1304    0.4436 H   0  0  0  0  0  0  0  0  0  0  0  0
    1.5427    7.9114   -1.1033 H   0  0  0  0  0  0  0  0  0  0  0  0
    1.1749   11.9261   -0.8401 O   0  5  0  0  0  0  0  0  0  0  0  0
  1  2  1  0  0  0  0
  1 30  1  0  0  0  0
  1 31  1  0  0  0  0
  1 32  1  0  0  0  0
  2  7  1  0  0  0  0
  2  3  1  0  0  0  0
  3 20  2  0  0  0  0
  3  4  1  0  0  0  0
  4  5  1  0  0  0  0
  4 17  2  0  0  0  0
  5  6  2  0  0  0  0
  5 33  1  0  0  0  0
  6  7  1  0  0  0  0
  6  9  1  0  0  0  0
  7  8  2  0  0  0  0
  9 14  2  0  0  0  0
  9 10  1  0  0  0  0
 10 11  2  0  0  0  0
 10 16  1  0  0  0  0
 11 12  1  0  0  0  0
 11 34  1  0  0  0  0
 12 13  2  0  0  0  0
 12 35  1  0  0  0  0
 13 14  1  0  0  0  0
 13 36  1  0  0  0  0
 14 15  1  0  0  0  0
 17 18  1  0  0  0  0
 17 37  1  0  0  0  0
 18 19  2  0  0  0  0
 19 20  1  0  0  0  0
 19 21  1  0  0  0  0
 21 22  1  0  0  0  0
 21 38  1  0  0  0  0
 22 27  2  0  0  0  0
 22 23  1  0  0  0  0
 23 24  2  0  0  0  0
 23 39  1  0  0  0  0
 24 25  1  0  0  0  0
 24 40  1  0  0  0  0
 25 26  2  0  0  0  0
 25 41  1  0  0  0  0
 26 27  1  0  0  0  0
 26 28  1  0  0  0  0
 27 42  1  0  0  0  0
 28 29  2  0  0  0  0
 28 43  1  0  0  0  0
M  CHG  1  43  -1
M  END
$$$$
ZINC03815300
  -OEChem-08230709403D

 38 40  0     0  0  0  0  0  0999 V2000
    1.0135    4.4224    4.5595 C   0  0  0  0  0  0  0  0  0  0  0  0
   -0.1567    3.6251    4.3669 O   0  0  0  0  0  0  0  0  0  0  0  0
   -0.3625    3.1219    3.1204 C   0  0  0  0  0  0  0  0  0  0  0  0
    0.5340    3.3899    2.1263 C   0  0  0  0  0  0  0  0  0  0  0  0
    0.3244    2.8722    0.8397 C   0  0  0  0  0  0  0  0  0  0  0  0
   -0.8146    2.0734    0.5762 C   0  0  0  0  0  0  0  0  0  0  0  0
   -1.7213    1.8118    1.6146 C   0  0  0  0  0  0  0  0  0  0  0  0
   -1.4927    2.3321    2.8683 C   0  0  0  0  0  0  0  0  0  0  0  0
   -2.3718    2.0770    3.8722 O   0  0  0  0  0  0  0  0  0  0  0  0
   -3.5037    1.2653    3.5527 C   0  0  0  0  0  0  0  0  0  0  0  0
   -1.0234    1.5795   -0.6531 N   0  0  0  0  0  0  0  0  0  0  0  0
   -0.1933    1.8016   -1.6400 C   0  0  0  0  0  0  0  0  0  0  0  0
    0.9612    2.5824   -1.4690 C   0  0  0  0  0  0  0  0  0  0  0  0
    1.2365    3.1342   -0.2088 C   0  0  0  0  0  0  0  0  0  0  0  0
    2.3612    3.9073    0.0009 N   0  0  0  0  0  0  0  0  0  0  0  0
    3.5576    3.3062    0.4006 C   0  0  0  0  0  0  0  0  0  0  0  0
    3.5866    1.9521    0.7112 C   0  0  0  0  0  0  0  0  0  0  0  0
    4.7713    1.3597    1.1013 C   0  0  0  0  0  0  0  0  0  0  0  0
    5.9265    2.1145    1.1933 C   0  0  0  0  0  0  0  0  0  0  0  0
    5.9005    3.4642    0.8899 C   0  0  0  0  0  0  0  0  0  0  0  0
    4.7190    4.0620    0.4938 C   0  0  0  0  0  0  0  0  0  0  0  0
    7.4826    4.4920    1.0180 Br  0  0  0  0  0  0  0  0  0  0  0  0
    1.8480    2.8134   -2.5694 C   0  0  0  0  0  0  0  0  0  0  0  0
    2.5515    2.9966   -3.4424 N   0  0  0  0  0  0  0  0  0  0  0  0
    1.0568    4.7598    5.5951 H   0  0  0  0  0  0  0  0  0  0  0  0
    1.8991    3.8285    4.3336 H   0  0  0  0  0  0  0  0  0  0  0  0
    0.9771    5.2871    3.8969 H   0  0  0  0  0  0  0  0  0  0  0  0
    1.4022    3.9992    2.3300 H   0  0  0  0  0  0  0  0  0  0  0  0
   -2.5950    1.2041    1.4310 H   0  0  0  0  0  0  0  0  0  0  0  0
   -3.1645    0.2894    3.2054 H   0  0  0  0  0  0  0  0  0  0  0  0
   -4.1230    1.1398    4.4408 H   0  0  0  0  0  0  0  0  0  0  0  0
   -4.0868    1.7477    2.7683 H   0  0  0  0  0  0  0  0  0  0  0  0
   -0.4035    1.3776   -2.6108 H   0  0  0  0  0  0  0  0  0  0  0  0
    2.3208    4.8676   -0.1292 H   0  0  0  0  0  0  0  0  0  0  0  0
    2.6842    1.3626    0.6436 H   0  0  0  0  0  0  0  0  0  0  0  0
    4.7950    0.3065    1.3391 H   0  0  0  0  0  0  0  0  0  0  0  0
    6.8509    1.6494    1.5023 H   0  0  0  0  0  0  0  0  0  0  0  0
    4.6988    5.1156    0.2574 H   0  0  0  0  0  0  0  0  0  0  0  0
  1  2  1  0  0  0  0
  1 25  1  0  0  0  0
  1 26  1  0  0  0  0
  1 27  1  0  0  0  0
  2  3  1  0  0  0  0
  3  8  2  0  0  0  0
  3  4  1  0  0  0  0
  4  5  2  0  0  0  0
  4 28  1  0  0  0  0
  5 14  1  0  0  0  0
  5  6  1  0  0  0  0
  6  7  2  0  0  0  0
  6 11  1  0  0  0  0
  7  8  1  0  0  0  0
  7 29  1  0  0  0  0
  8  9  1  0  0  0  0
  9 10  1  0  0  0  0
 10 30  1  0  0  0  0
 10 31  1  0  0  0  0
 10 32  1  0  0  0  0
 11 12  2  0  0  0  0
 12 13  1  0  0  0  0
 12 33  1  0  0  0  0
 13 14  2  0  0  0  0
 13 23  1  0  0  0  0
 14 15  1  0  0  0  0
 15 16  1  0  0  0  0
 15 34  1  0  0  0  0
 16 21  2  0  0  0  0
 16 17  1  0  0  0  0
 17 18  2  0  0  0  0
 17 35  1  0  0  0  0
 18 19  1  0  0  0  0
 18 36  1  0  0  0  0
 19 20  2  0  0  0  0
 19 37  1  0  0  0  0
 20 21  1  0  0  0  0
 20 22  1  0  0  0  0
 21 38  1  0  0  0  0
 23 24  3  0  0  0  0
M  END
$$$$
ZINC03815301
  -OEChem-08230709403D

 34 37  0     0  0  0  0  0  0999 V2000
    7.3318    9.9397   -0.0102 C   0  0  0  0  0  0  0  0  0  0  0  0
    6.6406    9.8221   -1.2016 C   0  0  0  0  0  0  0  0  0  0  0  0
    5.2811    9.5721   -1.1902 C   0  0  0  0  0  0  0  0  0  0  0  0
    4.6127    9.4401    0.0126 C   0  0  0  0  0  0  0  0  0  0  0  0
    5.3028    9.5633    1.2040 C   0  0  0  0  0  0  0  0  0  0  0  0
    6.6634    9.8077    1.1925 C   0  0  0  0  0  0  0  0  0  0  0  0
    3.1305    9.1680    0.0250 C   0  0  0  0  0  0  0  0  0  0  0  0
    2.8996    7.7214    0.0185 N   0  0  0  0  0  0  0  0  0  0  0  0
    1.6049    7.2261    0.0278 C   0  0  0  0  0  0  0  0  0  0  0  0
    1.3653    5.8580    0.0214 C   0  0  0  0  0  0  0  0  0  0  0  0
    0.0585    5.3566    0.0308 C   0  0  0  0  0  0  0  0  0  0  0  0
   -0.0700    3.8862    0.0237 C   0  0  0  0  0  0  0  0  0  0  0  0
   -1.2626    3.1289    0.0301 C   0  0  0  0  0  0  0  0  0  0  0  0
   -1.2204    1.7588    0.0174 C   0  0  0  0  0  0  0  0  0  0  0  0
   -0.0126    1.0758    0.0080 C   0  0  0  0  0  0  0  0  0  0  0  0
    1.1702    1.7877    0.0005 C   0  0  0  0  0  0  0  0  0  0  0  0
    1.1371    3.1680    0.0083 C   0  0  0  0  0  0  0  0  0  0  0  0
    2.3972    4.4181    0.0035 S   0  0  0  0  0  0  0  0  0  0  0  0
   -0.9311    6.2780    0.0458 N   0  0  0  0  0  0  0  0  0  0  0  0
   -0.6686    7.5604    0.0510 C   0  0  0  0  0  0  0  0  0  0  0  0
    0.5581    8.0501    0.0427 N   0  0  0  0  0  0  0  0  0  0  0  0
    8.3941   10.1343   -0.0192 H   0  0  0  0  0  0  0  0  0  0  0  0
    7.1629    9.9252   -2.1413 H   0  0  0  0  0  0  0  0  0  0  0  0
    4.7412    9.4803   -2.1210 H   0  0  0  0  0  0  0  0  0  0  0  0
    4.7798    9.4646    2.1437 H   0  0  0  0  0  0  0  0  0  0  0  0
    7.2034    9.8992    2.1233 H   0  0  0  0  0  0  0  0  0  0  0  0
    2.6720    9.6131   -0.8580 H   0  0  0  0  0  0  0  0  0  0  0  0
    2.6889    9.6024    0.9218 H   0  0  0  0  0  0  0  0  0  0  0  0
    3.6526    7.1100    0.0077 H   0  0  0  0  0  0  0  0  0  0  0  0
   -2.2169    3.6344    0.0420 H   0  0  0  0  0  0  0  0  0  0  0  0
   -2.1448    1.2003    0.0183 H   0  0  0  0  0  0  0  0  0  0  0  0
    0.0021   -0.0041    0.0020 H   0  0  0  0  0  0  0  0  0  0  0  0
    2.1166    1.2676   -0.0117 H   0  0  0  0  0  0  0  0  0  0  0  0
   -1.4970    8.2532    0.0630 H   0  0  0  0  0  0  0  0  0  0  0  0
  1  6  2  0  0  0  0
  1  2  1  0  0  0  0
  1 22  1  0  0  0  0
  2  3  2  0  0  0  0
  2 23  1  0  0  0  0
  3  4  1  0  0  0  0
  3 24  1  0  0  0  0
  4  5  2  0  0  0  0
  4  7  1  0  0  0  0
  5  6  1  0  0  0  0
  5 25  1  0  0  0  0
  6 26  1  0  0  0  0
  7  8  1  0  0  0  0
  7 27  1  0  0  0  0
  7 28  1  0  0  0  0
  8  9  1  0  0  0  0
  8 29  1  0  0  0  0
  9 21  2  0  0  0  0
  9 10  1  0  0  0  0
 10 18  1  0  0  0  0
 10 11  2  0  0  0  0
 11 12  1  0  0  0  0
 11 19  1  0  0  0  0
 12 17  2  0  0  0  0
 12 13  1  0  0  0  0
 13 14  2  0  0  0  0
 13 30  1  0  0  0  0
 14 15  1  0  0  0  0
 14 31  1  0  0  0  0
 15 16  2  0  0  0  0
 15 32  1  0  0  0  0
 16 17  1  0  0  0  0
 16 33  1  0  0  0  0
 17 18  1  0  0  0  0
 19 20  2  0  0  0  0
 20 21  1  0  0  0  0
 20 34  1  0  0  0  0
M  END
$$$$
ZINC03815302
  -OEChem-08230709403D

 44 47  0     0  0  0  0  0  0999 V2000
   -0.2303    0.9301    0.1276 C   0  0  0  0  0  0  0  0  0  0  0  0
   -0.7905    1.6082    1.3795 C   0  0  0  0  0  0  0  0  0  0  0  0
   -2.1926    1.2228    1.5577 N   0  0  0  0  0  0  0  0  0  0  0  0
   -3.1832    1.9813    0.9868 C   0  0  0  0  0  0  0  0  0  0  0  0
   -4.5390    1.6210    1.1448 C   0  0  0  0  0  0  0  0  0  0  0  0
   -4.8881    0.4799    1.9026 C   0  0  0  0  0  0  0  0  0  0  0  0
   -3.8931   -0.2679    2.4729 C   0  0  0  0  0  0  0  0  0  0  0  0
   -2.4965    0.1305    2.2849 C   0  0  0  0  0  0  0  0  0  0  0  0
   -1.6050   -0.5294    2.7885 O   0  0  0  0  0  0  0  0  0  0  0  0
   -4.2264   -1.4693    3.2733 C   0  0  0  0  0  0  0  0  0  0  0  0
   -4.4384   -1.3586    4.6481 C   0  0  0  0  0  0  0  0  0  0  0  0
   -4.7549   -2.4814    5.3875 C   0  0  0  0  0  0  0  0  0  0  0  0
   -4.8501   -3.7156    4.7701 C   0  0  0  0  0  0  0  0  0  0  0  0
   -4.6351   -3.8332    3.4087 C   0  0  0  0  0  0  0  0  0  0  0  0
   -4.3240   -2.7172    2.6567 C   0  0  0  0  0  0  0  0  0  0  0  0
   -4.0545   -2.8669    0.9483 Cl  0  0  0  0  0  0  0  0  0  0  0  0
   -4.3117    0.1881    5.4261 Cl  0  0  0  0  0  0  0  0  0  0  0  0
   -5.5207    2.4204    0.5401 C   0  0  0  0  0  0  0  0  0  0  0  0
   -5.1367    3.4741   -0.1560 N   0  0  0  0  0  0  0  0  0  0  0  0
   -3.8507    3.7801   -0.2875 C   0  0  0  0  0  0  0  0  0  0  0  0
   -2.8888    3.0566    0.2647 N   0  0  0  0  0  0  0  0  0  0  0  0
   -3.5041    4.8945   -1.0272 N   0  0  0  0  0  0  0  0  0  0  0  0
   -4.4879    5.6099   -1.7162 C   0  0  0  0  0  0  0  0  0  0  0  0
   -5.5746    4.9439   -2.2683 C   0  0  0  0  0  0  0  0  0  0  0  0
   -6.5475    5.6543   -2.9437 C   0  0  0  0  0  0  0  0  0  0  0  0
   -6.4352    7.0259   -3.0796 C   0  0  0  0  0  0  0  0  0  0  0  0
   -5.3517    7.6914   -2.5360 C   0  0  0  0  0  0  0  0  0  0  0  0
   -4.3780    6.9877   -1.8549 C   0  0  0  0  0  0  0  0  0  0  0  0
   -0.2982   -0.1520    0.2393 H   0  0  0  0  0  0  0  0  0  0  0  0
    0.8129    1.2169   -0.0049 H   0  0  0  0  0  0  0  0  0  0  0  0
   -0.8064    1.2424   -0.7434 H   0  0  0  0  0  0  0  0  0  0  0  0
   -0.2143    1.2960    2.2505 H   0  0  0  0  0  0  0  0  0  0  0  0
   -0.7225    2.6904    1.2679 H   0  0  0  0  0  0  0  0  0  0  0  0
   -5.9240    0.2021    2.0295 H   0  0  0  0  0  0  0  0  0  0  0  0
   -4.9243   -2.3963    6.4507 H   0  0  0  0  0  0  0  0  0  0  0  0
   -5.0931   -4.5913    5.3536 H   0  0  0  0  0  0  0  0  0  0  0  0
   -4.7109   -4.7997    2.9327 H   0  0  0  0  0  0  0  0  0  0  0  0
   -6.5683    2.1789    0.6423 H   0  0  0  0  0  0  0  0  0  0  0  0
   -2.5781    5.1804   -1.0685 H   0  0  0  0  0  0  0  0  0  0  0  0
   -5.6608    3.8722   -2.1661 H   0  0  0  0  0  0  0  0  0  0  0  0
   -7.3948    5.1376   -3.3698 H   0  0  0  0  0  0  0  0  0  0  0  0
   -7.1953    7.5786   -3.6118 H   0  0  0  0  0  0  0  0  0  0  0  0
   -5.2670    8.7626   -2.6439 H   0  0  0  0  0  0  0  0  0  0  0  0
   -3.5319    7.5079   -1.4309 H   0  0  0  0  0  0  0  0  0  0  0  0
  1  2  1  0  0  0  0
  1 29  1  0  0  0  0
  1 30  1  0  0  0  0
  1 31  1  0  0  0  0
  2  3  1  0  0  0  0
  2 32  1  0  0  0  0
  2 33  1  0  0  0  0
  3  8  1  0  0  0  0
  3  4  1  0  0  0  0
  4 21  2  0  0  0  0
  4  5  1  0  0  0  0
  5  6  1  0  0  0  0
  5 18  2  0  0  0  0
  6  7  2  0  0  0  0
  6 34  1  0  0  0  0
  7  8  1  0  0  0  0
  7 10  1  0  0  0  0
  8  9  2  0  0  0  0
 10 15  2  0  0  0  0
 10 11  1  0  0  0  0
 11 12  2  0  0  0  0
 11 17  1  0  0  0  0
 12 13  1  0  0  0  0
 12 35  1  0  0  0  0
 13 14  2  0  0  0  0
 13 36  1  0  0  0  0
 14 15  1  0  0  0  0
 14 37  1  0  0  0  0
 15 16  1  0  0  0  0
 18 19  1  0  0  0  0
 18 38  1  0  0  0  0
 19 20  2  0  0  0  0
 20 21  1  0  0  0  0
 20 22  1  0  0  0  0
 22 23  1  0  0  0  0
 22 39  1  0  0  0  0
 23 28  2  0  0  0  0
 23 24  1  0  0  0  0
 24 25  2  0  0  0  0
 24 40  1  0  0  0  0
 25 26  1  0  0  0  0
 25 41  1  0  0  0  0
 26 27  2  0  0  0  0
 26 42  1  0  0  0  0
 27 28  1  0  0  0  0
 27 43  1  0  0  0  0
 28 44  1  0  0  0  0
M  END
$$$$
ZINC03815303
  -OEChem-08230709403D

 35 37  0     0  0  0  0  0  0999 V2000
    6.1938   -2.0934   -7.9310 C   0  0  0  0  0  0  0  0  0  0  0  0
    7.0323   -2.5630   -6.8733 O   0  0  0  0  0  0  0  0  0  0  0  0
    6.6122   -2.3289   -5.6034 C   0  0  0  0  0  0  0  0  0  0  0  0
    5.4067   -1.6550   -5.3876 C   0  0  0  0  0  0  0  0  0  0  0  0
    4.9621   -1.4068   -4.1245 C   0  0  0  0  0  0  0  0  0  0  0  0
    5.7198   -1.8307   -3.0260 C   0  0  0  0  0  0  0  0  0  0  0  0
    6.9433   -2.5146   -3.2343 C   0  0  0  0  0  0  0  0  0  0  0  0
    7.3797   -2.7582   -4.5417 C   0  0  0  0  0  0  0  0  0  0  0  0
    7.6512   -2.9100   -2.1652 N   0  0  0  0  0  0  0  0  0  0  0  0
    7.2154   -2.6663   -0.9518 C   0  0  0  0  0  0  0  0  0  0  0  0
    6.0826   -2.0272   -0.7090 N   0  0  0  0  0  0  0  0  0  0  0  0
    5.3037   -1.5979   -1.6938 C   0  0  0  0  0  0  0  0  0  0  0  0
    4.1233   -0.9376   -1.4260 N   0  0  0  0  0  0  0  0  0  0  0  0
    3.7112   -0.7071   -0.0392 C   0  0  0  0  0  0  0  0  0  0  0  0
    2.3960    0.0285   -0.0217 C   0  0  0  0  0  0  0  0  0  0  0  0
    1.2084   -0.6789   -0.0136 C   0  0  0  0  0  0  0  0  0  0  0  0
    0.0021   -0.0041    0.0020 C   0  0  0  0  0  0  0  0  0  0  0  0
   -0.0167    1.3781    0.0096 C   0  0  0  0  0  0  0  0  0  0  0  0
    1.1709    2.0855    0.0021 C   0  0  0  0  0  0  0  0  0  0  0  0
    2.3773    1.4107   -0.0141 C   0  0  0  0  0  0  0  0  0  0  0  0
    5.2143   -2.5654   -7.8549 H   0  0  0  0  0  0  0  0  0  0  0  0
    6.0830   -1.0118   -7.8538 H   0  0  0  0  0  0  0  0  0  0  0  0
    6.6447   -2.3449   -8.8910 H   0  0  0  0  0  0  0  0  0  0  0  0
    4.8203   -1.3273   -6.2333 H   0  0  0  0  0  0  0  0  0  0  0  0
    4.0292   -0.8848   -3.9708 H   0  0  0  0  0  0  0  0  0  0  0  0
    8.3100   -3.2779   -4.7174 H   0  0  0  0  0  0  0  0  0  0  0  0
    7.8103   -2.9982   -0.1138 H   0  0  0  0  0  0  0  0  0  0  0  0
    3.5657   -0.6257   -2.1559 H   0  0  0  0  0  0  0  0  0  0  0  0
    4.4679   -0.1107    0.4703 H   0  0  0  0  0  0  0  0  0  0  0  0
    3.5990   -1.6641    0.4703 H   0  0  0  0  0  0  0  0  0  0  0  0
    1.2231   -1.7587   -0.0199 H   0  0  0  0  0  0  0  0  0  0  0  0
   -0.9258   -0.5567    0.0079 H   0  0  0  0  0  0  0  0  0  0  0  0
   -0.9592    1.9054    0.0170 H   0  0  0  0  0  0  0  0  0  0  0  0
    1.1563    3.1654    0.0077 H   0  0  0  0  0  0  0  0  0  0  0  0
    3.3051    1.9634   -0.0207 H   0  0  0  0  0  0  0  0  0  0  0  0
  1  2  1  0  0  0  0
  1 21  1  0  0  0  0
  1 22  1  0  0  0  0
  1 23  1  0  0  0  0
  2  3  1  0  0  0  0
  3  8  2  0  0  0  0
  3  4  1  0  0  0  0
  4  5  2  0  0  0  0
  4 24  1  0  0  0  0
  5  6  1  0  0  0  0
  5 25  1  0  0  0  0
  6 12  2  0  0  0  0
  6  7  1  0  0  0  0
  7  8  1  0  0  0  0
  7  9  2  0  0  0  0
  8 26  1  0  0  0  0
  9 10  1  0  0  0  0
 10 11  2  0  0  0  0
 10 27  1  0  0  0  0
 11 12  1  0  0  0  0
 12 13  1  0  0  0  0
 13 14  1  0  0  0  0
 13 28  1  0  0  0  0
 14 15  1  0  0  0  0
 14 29  1  0  0  0  0
 14 30  1  0  0  0  0
 15 20  2  0  0  0  0
 15 16  1  0  0  0  0
 16 17  2  0  0  0  0
 16 31  1  0  0  0  0
 17 18  1  0  0  0  0
 17 32  1  0  0  0  0
 18 19  2  0  0  0  0
 18 33  1  0  0  0  0
 19 20  1  0  0  0  0
 19 34  1  0  0  0  0
 20 35  1  0  0  0  0
M  END
$$$$
ZINC03815304
  -OEChem-08230709403D

 33 35  0     0  0  0  0  0  0999 V2000
    4.3513   -1.6229    0.1569 C   0  0  0  0  0  0  0  0  0  0  0  0
    3.7503   -0.2546   -0.0367 C   0  0  0  0  0  0  0  0  0  0  0  0
    4.4168    0.9087   -0.1175 C   0  0  0  0  0  0  0  0  0  0  0  0
    3.5313    1.9403   -0.2937 N   0  0  0  0  0  0  0  0  0  0  0  0
    3.7763    2.8750   -0.3797 H   0  0  0  0  0  0  0  0  0  0  0  0
    2.2519    1.4582   -0.3311 C   0  0  0  0  0  0  0  0  0  0  0  0
    2.3298    0.0619   -0.1719 C   0  0  0  0  0  0  0  0  0  0  0  0
    1.1408   -0.6829   -0.1733 C   0  0  0  0  0  0  0  0  0  0  0  0
   -0.0102   -0.0339   -0.3255 N   0  0  0  0  0  0  0  0  0  0  0  0
   -0.0377    1.2783   -0.4719 C   0  0  0  0  0  0  0  0  0  0  0  0
    1.0514    2.0163   -0.4767 N   0  0  0  0  0  0  0  0  0  0  0  0
    1.1649   -2.0584   -0.0197 N   0  0  0  0  0  0  0  0  0  0  0  0
   -0.0330   -2.7702    0.0939 C   0  0  0  0  0  0  0  0  0  0  0  0
   -0.1254   -4.0612   -0.4137 C   0  0  0  0  0  0  0  0  0  0  0  0
   -1.3070   -4.7694   -0.3036 C   0  0  0  0  0  0  0  0  0  0  0  0
   -2.4036   -4.2001    0.3116 C   0  0  0  0  0  0  0  0  0  0  0  0
   -2.3216   -2.9041    0.8248 C   0  0  0  0  0  0  0  0  0  0  0  0
   -1.1269   -2.1908    0.7179 C   0  0  0  0  0  0  0  0  0  0  0  0
   -3.4576   -2.3111    1.4640 C   0  0  0  0  0  0  0  0  0  0  0  0
   -4.3588   -1.8407    1.9710 N   0  0  0  0  0  0  0  0  0  0  0  0
    5.9138    1.0574   -0.0288 C   0  0  0  0  0  0  0  0  0  0  0  0
    4.5682   -2.0653   -0.8154 H   0  0  0  0  0  0  0  0  0  0  0  0
    5.2740   -1.5366    0.7307 H   0  0  0  0  0  0  0  0  0  0  0  0
    3.6465   -2.2565    0.6953 H   0  0  0  0  0  0  0  0  0  0  0  0
   -0.9936    1.7652   -0.5973 H   0  0  0  0  0  0  0  0  0  0  0  0
    2.0130   -2.5284    0.0090 H   0  0  0  0  0  0  0  0  0  0  0  0
    0.7292   -4.5121   -0.8961 H   0  0  0  0  0  0  0  0  0  0  0  0
   -1.3725   -5.7719   -0.6999 H   0  0  0  0  0  0  0  0  0  0  0  0
   -3.3250   -4.7572    0.3962 H   0  0  0  0  0  0  0  0  0  0  0  0
   -1.0560   -1.1896    1.1165 H   0  0  0  0  0  0  0  0  0  0  0  0
    6.3463    0.9814   -1.0265 H   0  0  0  0  0  0  0  0  0  0  0  0
    6.1576    2.0295    0.3998 H   0  0  0  0  0  0  0  0  0  0  0  0
    6.3204    0.2688    0.6044 H   0  0  0  0  0  0  0  0  0  0  0  0
  1  2  1  0  0  0  0
  1 22  1  0  0  0  0
  1 23  1  0  0  0  0
  1 24  1  0  0  0  0
  2  7  1  0  0  0  0
  2  3  2  0  0  0  0
  3  4  1  0  0  0  0
  3 21  1  0  0  0  0
  4  5  1  0  0  0  0
  4  6  1  0  0  0  0
  6 11  2  0  0  0  0
  6  7  1  0  0  0  0
  7  8  2  0  0  0  0
  8  9  1  0  0  0  0
  8 12  1  0  0  0  0
  9 10  2  0  0  0  0
 10 11  1  0  0  0  0
 10 25  1  0  0  0  0
 12 13  1  0  0  0  0
 12 26  1  0  0  0  0
 13 18  2  0  0  0  0
 13 14  1  0  0  0  0
 14 15  2  0  0  0  0
 14 27  1  0  0  0  0
 15 16  1  0  0  0  0
 15 28  1  0  0  0  0
 16 17  2  0  0  0  0
 16 29  1  0  0  0  0
 17 18  1  0  0  0  0
 17 19  1  0  0  0  0
 18 30  1  0  0  0  0
 19 20  3  0  0  0  0
 21 31  1  0  0  0  0
 21 32  1  0  0  0  0
 21 33  1  0  0  0  0
M  END
$$$$
ZINC03815305
  -OEChem-08230709403D

 41 44  0     0  0  0  0  0  0999 V2000
   -0.1628    7.8489    0.0420 C   0  0  0  0  0  0  0  0  0  0  0  0
    1.1115    7.2025    0.0268 O   0  0  0  0  0  0  0  0  0  0  0  0
    1.1139    5.8427    0.0204 C   0  0  0  0  0  0  0  0  0  0  0  0
   -0.0722    5.1652    0.0286 C   0  0  0  0  0  0  0  0  0  0  0  0
   -0.0709    3.7651    0.0220 C   0  0  0  0  0  0  0  0  0  0  0  0
    1.1582    3.0597    0.0070 C   0  0  0  0  0  0  0  0  0  0  0  0
    2.3621    3.7747   -0.0012 C   0  0  0  0  0  0  0  0  0  0  0  0
    2.3336    5.1517    0.0060 C   0  0  0  0  0  0  0  0  0  0  0  0
    3.5002    5.8479   -0.0015 O   0  0  0  0  0  0  0  0  0  0  0  0
    4.7096    5.0870   -0.0161 C   0  0  0  0  0  0  0  0  0  0  0  0
    1.1313    1.7179    0.0005 N   0  0  0  0  0  0  0  0  0  0  0  0
   -0.0126    1.0758    0.0080 C   0  0  0  0  0  0  0  0  0  0  0  0
   -1.1839    1.6921    0.0170 N   0  0  0  0  0  0  0  0  0  0  0  0
   -1.2708    3.0155    0.0295 C   0  0  0  0  0  0  0  0  0  0  0  0
   -2.5006    3.6454    0.0441 N   0  0  0  0  0  0  0  0  0  0  0  0
   -3.6651    2.8927    0.0513 C   0  0  0  0  0  0  0  0  0  0  0  0
   -4.9238    3.5335    0.0721 C   0  0  0  0  0  0  0  0  0  0  0  0
   -5.0478    4.9290    0.0755 C   0  0  0  0  0  0  0  0  0  0  0  0
   -6.2883    5.4933    0.0899 C   0  0  0  0  0  0  0  0  0  0  0  0
   -7.4362    4.7044    0.0962 C   0  0  0  0  0  0  0  0  0  0  0  0
   -7.3525    3.3442    0.0885 C   0  0  0  0  0  0  0  0  0  0  0  0
   -6.0922    2.7307    0.0736 C   0  0  0  0  0  0  0  0  0  0  0  0
   -5.9395    1.3304    0.0652 C   0  0  0  0  0  0  0  0  0  0  0  0
   -4.6836    0.8070    0.0508 C   0  0  0  0  0  0  0  0  0  0  0  0
   -3.6022    1.5751    0.0441 N   0  0  0  0  0  0  0  0  0  0  0  0
   -0.7277    7.5592   -0.8440 H   0  0  0  0  0  0  0  0  0  0  0  0
   -0.7107    7.5509    0.9359 H   0  0  0  0  0  0  0  0  0  0  0  0
   -0.0218    8.9298    0.0457 H   0  0  0  0  0  0  0  0  0  0  0  0
   -1.0064    5.7069    0.0397 H   0  0  0  0  0  0  0  0  0  0  0  0
    3.3061    3.2502   -0.0123 H   0  0  0  0  0  0  0  0  0  0  0  0
    5.5644    5.7633   -0.0208 H   0  0  0  0  0  0  0  0  0  0  0  0
    4.7517    4.4544    0.8706 H   0  0  0  0  0  0  0  0  0  0  0  0
    4.7354    4.4627   -0.9093 H   0  0  0  0  0  0  0  0  0  0  0  0
    0.0021   -0.0041    0.0020 H   0  0  0  0  0  0  0  0  0  0  0  0
   -2.5492    4.6142    0.0494 H   0  0  0  0  0  0  0  0  0  0  0  0
   -4.1664    5.5532    0.0705 H   0  0  0  0  0  0  0  0  0  0  0  0
   -6.3828    6.5691    0.0970 H   0  0  0  0  0  0  0  0  0  0  0  0
   -8.4070    5.1776    0.1076 H   0  0  0  0  0  0  0  0  0  0  0  0
   -8.2501    2.7436    0.0942 H   0  0  0  0  0  0  0  0  0  0  0  0
   -6.8043    0.6834    0.0697 H   0  0  0  0  0  0  0  0  0  0  0  0
   -4.5636   -0.2663    0.0443 H   0  0  0  0  0  0  0  0  0  0  0  0
  1  2  1  0  0  0  0
  1 26  1  0  0  0  0
  1 27  1  0  0  0  0
  1 28  1  0  0  0  0
  2  3  1  0  0  0  0
  3  8  2  0  0  0  0
  3  4  1  0  0  0  0
  4  5  2  0  0  0  0
  4 29  1  0  0  0  0
  5 14  1  0  0  0  0
  5  6  1  0  0  0  0
  6  7  2  0  0  0  0
  6 11  1  0  0  0  0
  7  8  1  0  0  0  0
  7 30  1  0  0  0  0
  8  9  1  0  0  0  0
  9 10  1  0  0  0  0
 10 31  1  0  0  0  0
 10 32  1  0  0  0  0
 10 33  1  0  0  0  0
 11 12  2  0  0  0  0
 12 13  1  0  0  0  0
 12 34  1  0  0  0  0
 13 14  2  0  0  0  0
 14 15  1  0  0  0  0
 15 16  1  0  0  0  0
 15 35  1  0  0  0  0
 16 25  2  0  0  0  0
 16 17  1  0  0  0  0
 17 22  2  0  0  0  0
 17 18  1  0  0  0  0
 18 19  2  0  0  0  0
 18 36  1  0  0  0  0
 19 20  1  0  0  0  0
 19 37  1  0  0  0  0
 20 21  2  0  0  0  0
 20 38  1  0  0  0  0
 21 22  1  0  0  0  0
 21 39  1  0  0  0  0
 22 23  1  0  0  0  0
 23 24  2  0  0  0  0
 23 40  1  0  0  0  0
 24 25  1  0  0  0  0
 24 41  1  0  0  0  0
M  END
$$$$
ZINC03815306
  -OEChem-08230709403D

 46 49  0     0  0  0  0  0  0999 V2000
    3.6032   -4.6788   -3.9553 C   0  0  0  0  0  0  0  0  0  0  0  0
    4.5500   -4.0501   -1.8173 C   0  0  0  0  0  0  0  0  0  0  0  0
    2.3637   -3.2322   -2.4608 C   0  0  0  0  0  0  0  0  0  0  0  0
    1.8965   -3.0792   -1.0119 C   0  0  0  0  0  0  0  0  0  0  0  0
    0.9486   -1.9660   -0.9195 N   0  0  0  0  0  0  0  0  0  0  0  0
    1.2615   -0.6419   -0.6696 C   0  0  0  0  0  0  0  0  0  0  0  0
    2.4473    0.0263   -0.4443 C   0  0  0  0  0  0  0  0  0  0  0  0
    2.4314    1.4043   -0.2172 C   0  0  0  0  0  0  0  0  0  0  0  0
    1.1968    2.1057   -0.2201 C   0  0  0  0  0  0  0  0  0  0  0  0
    0.0029    1.4233   -0.4486 C   0  0  0  0  0  0  0  0  0  0  0  0
    0.0310    0.0532   -0.6731 C   0  0  0  0  0  0  0  0  0  0  0  0
   -0.9412   -0.8667   -0.9196 N   0  0  0  0  0  0  0  0  0  0  0  0
   -0.4045   -2.0436   -1.0630 C   0  0  0  0  0  0  0  0  0  0  0  0
   -1.2856   -3.5032   -1.3902 Cl  0  0  0  0  0  0  0  0  0  0  0  0
    1.2227    3.5044    0.0139 C   0  0  0  0  0  0  0  0  0  0  0  0
    2.3967    4.0836    0.2230 N   0  0  0  0  0  0  0  0  0  0  0  0
    3.5234    3.3876    0.2163 C   0  0  0  0  0  0  0  0  0  0  0  0
    3.5630    2.0944    0.0060 N   0  0  0  0  0  0  0  0  0  0  0  0
    0.0572    4.2422    0.0242 N   0  0  0  0  0  0  0  0  0  0  0  0
    0.1124    5.6344    0.1362 C   0  0  0  0  0  0  0  0  0  0  0  0
    1.1486    6.3404   -0.4623 C   0  0  0  0  0  0  0  0  0  0  0  0
    1.2007    7.7157   -0.3500 C   0  0  0  0  0  0  0  0  0  0  0  0
    0.2228    8.3910    0.3573 C   0  0  0  0  0  0  0  0  0  0  0  0
   -0.8106    7.6915    0.9547 C   0  0  0  0  0  0  0  0  0  0  0  0
   -0.8715    6.3153    0.8411 C   0  0  0  0  0  0  0  0  0  0  0  0
   -2.1452    8.6196    1.9208 Br  0  0  0  0  0  0  0  0  0  0  0  0
    4.0351   -3.8098   -4.4518 H   0  0  0  0  0  0  0  0  0  0  0  0
    4.3093   -5.5082   -3.9951 H   0  0  0  0  0  0  0  0  0  0  0  0
    2.6796   -4.9634   -4.4594 H   0  0  0  0  0  0  0  0  0  0  0  0
    4.3147   -3.8777   -0.7671 H   0  0  0  0  0  0  0  0  0  0  0  0
    5.2360   -4.8929   -1.9024 H   0  0  0  0  0  0  0  0  0  0  0  0
    5.0162   -3.1584   -2.2363 H   0  0  0  0  0  0  0  0  0  0  0  0
    1.5043   -3.4327   -3.1005 H   0  0  0  0  0  0  0  0  0  0  0  0
    2.8508   -2.3124   -2.7845 H   0  0  0  0  0  0  0  0  0  0  0  0
    2.7559   -2.8786   -0.3722 H   0  0  0  0  0  0  0  0  0  0  0  0
    1.4093   -3.9990   -0.6882 H   0  0  0  0  0  0  0  0  0  0  0  0
    3.3828   -0.5132   -0.4438 H   0  0  0  0  0  0  0  0  0  0  0  0
   -0.9362    1.9567   -0.4553 H   0  0  0  0  0  0  0  0  0  0  0  0
    4.4523    3.9096    0.3926 H   0  0  0  0  0  0  0  0  0  0  0  0
   -0.8007    3.7950   -0.0462 H   0  0  0  0  0  0  0  0  0  0  0  0
    1.9129    5.8139   -1.0146 H   0  0  0  0  0  0  0  0  0  0  0  0
    2.0059    8.2647   -0.8155 H   0  0  0  0  0  0  0  0  0  0  0  0
    0.2658    9.4667    0.4433 H   0  0  0  0  0  0  0  0  0  0  0  0
   -1.6807    5.7699    1.3037 H   0  0  0  0  0  0  0  0  0  0  0  0
    3.3020   -4.3714   -2.5413 N   0  3  0  0  0  0  0  0  0  0  0  0
    2.8666   -5.1935   -2.1067 H   0  0  0  0  0  0  0  0  0  0  0  0
  1 27  1  0  0  0  0
  1 28  1  0  0  0  0
  1 29  1  0  0  0  0
  1 45  1  0  0  0  0
  2 30  1  0  0  0  0
  2 31  1  0  0  0  0
  2 32  1  0  0  0  0
  2 45  1  0  0  0  0
  3  4  1  0  0  0  0
  3 33  1  0  0  0  0
  3 34  1  0  0  0  0
  3 45  1  0  0  0  0
  4  5  1  0  0  0  0
  4 35  1  0  0  0  0
  4 36  1  0  0  0  0
  5 13  1  0  0  0  0
  5  6  1  0  0  0  0
  6 11  2  0  0  0  0
  6  7  1  0  0  0  0
  7  8  2  0  0  0  0
  7 37  1  0  0  0  0
  8 18  1  0  0  0  0
  8  9  1  0  0  0  0
  9 10  2  0  0  0  0
  9 15  1  0  0  0  0
 10 11  1  0  0  0  0
 10 38  1  0  0  0  0
 11 12  1  0  0  0  0
 12 13  2  0  0  0  0
 13 14  1  0  0  0  0
 15 16  2  0  0  0  0
 15 19  1  0  0  0  0
 16 17  1  0  0  0  0
 17 18  2  0  0  0  0
 17 39  1  0  0  0  0
 19 20  1  0  0  0  0
 19 40  1  0  0  0  0
 20 25  2  0  0  0  0
 20 21  1  0  0  0  0
 21 22  2  0  0  0  0
 21 41  1  0  0  0  0
 22 23  1  0  0  0  0
 22 42  1  0  0  0  0
 23 24  2  0  0  0  0
 23 43  1  0  0  0  0
 24 25  1  0  0  0  0
 24 26  1  0  0  0  0
 25 44  1  0  0  0  0
 45 46  1  0  0  0  0
M  CHG  1  45   1
M  END
$$$$
ZINC03815307
  -OEChem-08230709403D

 62 65  0     0  0  0  0  0  0999 V2000
   -2.2664    2.6406    5.7207 C   0  0  0  0  0  0  0  0  0  0  0  0
   -1.0652    1.8152    5.8687 N   0  0  0  0  0  0  0  0  0  0  0  0
   -0.4094    1.3640    4.7512 C   0  0  0  0  0  0  0  0  0  0  0  0
    0.7497    0.5679    4.8763 C   0  0  0  0  0  0  0  0  0  0  0  0
    1.2453    0.2291    6.1562 C   0  0  0  0  0  0  0  0  0  0  0  0
    0.5843    0.6839    7.2655 C   0  0  0  0  0  0  0  0  0  0  0  0
   -0.6156    1.5073    7.1005 C   0  0  0  0  0  0  0  0  0  0  0  0
   -1.2098    1.9161    8.0821 O   0  0  0  0  0  0  0  0  0  0  0  0
    1.0781    0.3458    8.6209 C   0  0  0  0  0  0  0  0  0  0  0  0
    0.6245   -0.8061    9.2648 C   0  0  0  0  0  0  0  0  0  0  0  0
    1.0925   -1.1181   10.5262 C   0  0  0  0  0  0  0  0  0  0  0  0
    2.0012   -0.2863   11.1554 C   0  0  0  0  0  0  0  0  0  0  0  0
    2.4509    0.8598   10.5247 C   0  0  0  0  0  0  0  0  0  0  0  0
    1.9945    1.1808    9.2613 C   0  0  0  0  0  0  0  0  0  0  0  0
    2.5591    2.6202    8.4720 Cl  0  0  0  0  0  0  0  0  0  0  0  0
   -0.5209   -1.8478    8.4796 Cl  0  0  0  0  0  0  0  0  0  0  0  0
    1.3899    0.1267    3.7087 C   0  0  0  0  0  0  0  0  0  0  0  0
    0.8797    0.4693    2.5405 N   0  0  0  0  0  0  0  0  0  0  0  0
   -0.2103    1.2245    2.4609 C   0  0  0  0  0  0  0  0  0  0  0  0
   -0.8488    1.6644    3.5342 N   0  0  0  0  0  0  0  0  0  0  0  0
   -0.6984    1.5583    1.2133 N   0  0  0  0  0  0  0  0  0  0  0  0
   -0.0127    1.0858    0.0080 C   0  0  0  0  0  0  0  0  0  0  0  0
   -0.7527    1.5927   -1.2315 C   0  0  0  0  0  0  0  0  0  0  0  0
   -0.0366    1.0992   -2.4903 C   0  0  0  0  0  0  0  0  0  0  0  0
   -0.7766    1.6061   -3.7298 C   0  0  0  0  0  0  0  0  0  0  0  0
    1.2439    1.7395   -5.0583 C   0  0  0  0  0  0  0  0  0  0  0  0
    1.9566    1.1616   -6.2833 C   0  0  0  0  0  0  0  0  0  0  0  0
   -0.1814    0.8170   -7.3645 C   0  0  0  0  0  0  0  0  0  0  0  0
   -0.8941    1.3949   -6.1395 C   0  0  0  0  0  0  0  0  0  0  0  0
    1.8391    0.9504   -8.6929 C   0  0  0  0  0  0  0  0  0  0  0  0
   -3.1464    1.9984    5.6843 H   0  0  0  0  0  0  0  0  0  0  0  0
   -2.3472    3.3201    6.5692 H   0  0  0  0  0  0  0  0  0  0  0  0
   -2.1993    3.2176    4.7983 H   0  0  0  0  0  0  0  0  0  0  0  0
    2.1320   -0.3790    6.2574 H   0  0  0  0  0  0  0  0  0  0  0  0
    0.7451   -2.0112   11.0242 H   0  0  0  0  0  0  0  0  0  0  0  0
    2.3610   -0.5326   12.1435 H   0  0  0  0  0  0  0  0  0  0  0  0
    3.1601    1.5053   11.0215 H   0  0  0  0  0  0  0  0  0  0  0  0
    2.2790   -0.4839    3.7644 H   0  0  0  0  0  0  0  0  0  0  0  0
   -1.4954    2.1056    1.1349 H   0  0  0  0  0  0  0  0  0  0  0  0
    0.0021   -0.0041    0.0020 H   0  0  0  0  0  0  0  0  0  0  0  0
    1.0099    1.4631    0.0003 H   0  0  0  0  0  0  0  0  0  0  0  0
   -1.7753    1.2154   -1.2238 H   0  0  0  0  0  0  0  0  0  0  0  0
   -0.7675    2.6825   -1.2255 H   0  0  0  0  0  0  0  0  0  0  0  0
    0.9860    1.4765   -2.4981 H   0  0  0  0  0  0  0  0  0  0  0  0
   -0.0218    0.0093   -2.4963 H   0  0  0  0  0  0  0  0  0  0  0  0
   -1.7991    1.2288   -3.7221 H   0  0  0  0  0  0  0  0  0  0  0  0
   -0.7913    2.6960   -3.7239 H   0  0  0  0  0  0  0  0  0  0  0  0
    1.1429    2.8189   -5.1719 H   0  0  0  0  0  0  0  0  0  0  0  0
    1.8251    1.5206   -4.1625 H   0  0  0  0  0  0  0  0  0  0  0  0
    2.0818    0.0862   -6.1574 H   0  0  0  0  0  0  0  0  0  0  0  0
    2.9341    1.6318   -6.3908 H   0  0  0  0  0  0  0  0  0  0  0  0
   -0.0804   -0.2624   -7.2509 H   0  0  0  0  0  0  0  0  0  0  0  0
   -0.7628    1.0356   -8.2602 H   0  0  0  0  0  0  0  0  0  0  0  0
   -1.8715    0.9247   -6.0320 H   0  0  0  0  0  0  0  0  0  0  0  0
   -1.0193    2.4703   -6.2654 H   0  0  0  0  0  0  0  0  0  0  0  0
    1.2531    1.2172   -9.5725 H   0  0  0  0  0  0  0  0  0  0  0  0
    2.8229    1.4153   -8.7571 H   0  0  0  0  0  0  0  0  0  0  0  0
    1.9514   -0.1327   -8.6461 H   0  0  0  0  0  0  0  0  0  0  0  0
   -0.0853    1.1047   -4.9368 N   0  3  0  0  0  0  0  0  0  0  0  0
    0.0365    0.0886   -4.8536 H   0  0  0  0  0  0  0  0  0  0  0  0
    1.1480    1.4519   -7.4859 N   0  3  0  0  0  0  0  0  0  0  0  0
    1.0263    2.4680   -7.5691 H   0  0  0  0  0  0  0  0  0  0  0  0
  1  2  1  0  0  0  0
  1 31  1  0  0  0  0
  1 32  1  0  0  0  0
  1 33  1  0  0  0  0
  2  7  1  0  0  0  0
  2  3  1  0  0  0  0
  3 20  2  0  0  0  0
  3  4  1  0  0  0  0
  4  5  1  0  0  0  0
  4 17  2  0  0  0  0
  5  6  2  0  0  0  0
  5 34  1  0  0  0  0
  6  7  1  0  0  0  0
  6  9  1  0  0  0  0
  7  8  2  0  0  0  0
  9 14  2  0  0  0  0
  9 10  1  0  0  0  0
 10 11  2  0  0  0  0
 10 16  1  0  0  0  0
 11 12  1  0  0  0  0
 11 35  1  0  0  0  0
 12 13  2  0  0  0  0
 12 36  1  0  0  0  0
 13 14  1  0  0  0  0
 13 37  1  0  0  0  0
 14 15  1  0  0  0  0
 17 18  1  0  0  0  0
 17 38  1  0  0  0  0
 18 19  2  0  0  0  0
 19 20  1  0  0  0  0
 19 21  1  0  0  0  0
 21 22  1  0  0  0  0
 21 39  1  0  0  0  0
 22 23  1  0  0  0  0
 22 40  1  0  0  0  0
 22 41  1  0  0  0  0
 23 24  1  0  0  0  0
 23 42  1  0  0  0  0
 23 43  1  0  0  0  0
 24 25  1  0  0  0  0
 24 44  1  0  0  0  0
 24 45  1  0  0  0  0
 25 46  1  0  0  0  0
 25 47  1  0  0  0  0
 25 59  1  0  0  0  0
 26 27  1  0  0  0  0
 26 48  1  0  0  0  0
 26 49  1  0  0  0  0
 26 59  1  0  0  0  0
 27 50  1  0  0  0  0
 27 51  1  0  0  0  0
 27 61  1  0  0  0  0
 28 29  1  0  0  0  0
 28 52  1  0  0  0  0
 28 53  1  0  0  0  0
 28 61  1  0  0  0  0
 29 54  1  0  0  0  0
 29 55  1  0  0  0  0
 29 59  1  0  0  0  0
 30 56  1  0  0  0  0
 30 57  1  0  0  0  0
 30 58  1  0  0  0  0
 30 61  1  0  0  0  0
 59 60  1  0  0  0  0
 61 62  1  0  0  0  0
M  CHG  2  59   1  61   1
M  END
$$$$
ZINC03815308
  -OEChem-08230709403D

 46 49  0     0  0  0  0  0  0999 V2000
   -9.4546   -4.6479   -0.9492 C   0  0  0  0  0  0  0  0  0  0  0  0
   -8.9344   -4.1755   -2.2347 N   0  0  0  0  0  0  0  0  0  0  0  0
   -7.8393   -3.3493   -2.2619 C   0  0  0  0  0  0  0  0  0  0  0  0
   -7.3255   -2.8851   -3.4921 C   0  0  0  0  0  0  0  0  0  0  0  0
   -7.9362   -3.2683   -4.7080 C   0  0  0  0  0  0  0  0  0  0  0  0
   -9.0282   -4.0933   -4.6711 C   0  0  0  0  0  0  0  0  0  0  0  0
   -9.5359   -4.5568   -3.3779 C   0  0  0  0  0  0  0  0  0  0  0  0
  -10.5068   -5.2913   -3.3361 O   0  0  0  0  0  0  0  0  0  0  0  0
   -9.6908   -4.5129   -5.9281 C   0  0  0  0  0  0  0  0  0  0  0  0
  -10.7328   -3.7517   -6.4589 C   0  0  0  0  0  0  0  0  0  0  0  0
  -11.3436   -4.1463   -7.6331 C   0  0  0  0  0  0  0  0  0  0  0  0
  -10.9306   -5.2984   -8.2778 C   0  0  0  0  0  0  0  0  0  0  0  0
   -9.9015   -6.0601   -7.7544 C   0  0  0  0  0  0  0  0  0  0  0  0
   -9.2793   -5.6743   -6.5832 C   0  0  0  0  0  0  0  0  0  0  0  0
   -7.9887   -6.6323   -5.9273 Cl  0  0  0  0  0  0  0  0  0  0  0  0
  -11.2566   -2.3087   -5.6482 Cl  0  0  0  0  0  0  0  0  0  0  0  0
   -6.2039   -2.0424   -3.4758 C   0  0  0  0  0  0  0  0  0  0  0  0
   -5.6746   -1.7178   -2.3111 N   0  0  0  0  0  0  0  0  0  0  0  0
   -6.1852   -2.1737   -1.1726 C   0  0  0  0  0  0  0  0  0  0  0  0
   -7.2389   -2.9749   -1.1378 N   0  0  0  0  0  0  0  0  0  0  0  0
   -5.5914   -1.8029    0.0188 N   0  0  0  0  0  0  0  0  0  0  0  0
   -4.5481   -0.8724    0.0199 C   0  0  0  0  0  0  0  0  0  0  0  0
   -4.5383    0.1635   -0.9055 C   0  0  0  0  0  0  0  0  0  0  0  0
   -3.5058    1.0807   -0.9019 C   0  0  0  0  0  0  0  0  0  0  0  0
   -2.4826    0.9687    0.0215 C   0  0  0  0  0  0  0  0  0  0  0  0
   -2.4865   -0.0644    0.9407 C   0  0  0  0  0  0  0  0  0  0  0  0
   -3.5187   -0.9820    0.9460 C   0  0  0  0  0  0  0  0  0  0  0  0
   -1.3573    1.9712    0.0221 C   0  0  0  0  0  0  0  0  0  0  0  0
   -1.7105    3.1223    0.9283 C   0  0  0  0  0  0  0  0  0  0  0  0
   -2.7675    3.1280    1.5137 O   0  0  0  0  0  0  0  0  0  0  0  0
  -10.2009   -3.9451   -0.5788 H   0  0  0  0  0  0  0  0  0  0  0  0
   -9.9125   -5.6283   -1.0808 H   0  0  0  0  0  0  0  0  0  0  0  0
   -8.6374   -4.7219   -0.2317 H   0  0  0  0  0  0  0  0  0  0  0  0
   -7.5472   -2.9157   -5.6518 H   0  0  0  0  0  0  0  0  0  0  0  0
  -12.1478   -3.5560   -8.0470 H   0  0  0  0  0  0  0  0  0  0  0  0
  -11.4141   -5.6047   -9.1937 H   0  0  0  0  0  0  0  0  0  0  0  0
   -9.5840   -6.9588   -8.2624 H   0  0  0  0  0  0  0  0  0  0  0  0
   -5.7824   -1.6676   -4.3968 H   0  0  0  0  0  0  0  0  0  0  0  0
   -5.8986   -2.1882    0.8543 H   0  0  0  0  0  0  0  0  0  0  0  0
   -5.3369    0.2513   -1.6271 H   0  0  0  0  0  0  0  0  0  0  0  0
   -3.4978    1.8866   -1.6209 H   0  0  0  0  0  0  0  0  0  0  0  0
   -1.6836   -0.1516    1.6577 H   0  0  0  0  0  0  0  0  0  0  0  0
   -3.5235   -1.7860    1.6671 H   0  0  0  0  0  0  0  0  0  0  0  0
   -1.2000    2.3414   -0.9910 H   0  0  0  0  0  0  0  0  0  0  0  0
   -0.4453    1.4935    0.3800 H   0  0  0  0  0  0  0  0  0  0  0  0
   -0.8485    4.1385    1.0896 O   0  5  0  0  0  0  0  0  0  0  0  0
  1  2  1  0  0  0  0
  1 31  1  0  0  0  0
  1 32  1  0  0  0  0
  1 33  1  0  0  0  0
  2  7  1  0  0  0  0
  2  3  1  0  0  0  0
  3 20  2  0  0  0  0
  3  4  1  0  0  0  0
  4  5  1  0  0  0  0
  4 17  2  0  0  0  0
  5  6  2  0  0  0  0
  5 34  1  0  0  0  0
  6  7  1  0  0  0  0
  6  9  1  0  0  0  0
  7  8  2  0  0  0  0
  9 14  2  0  0  0  0
  9 10  1  0  0  0  0
 10 11  2  0  0  0  0
 10 16  1  0  0  0  0
 11 12  1  0  0  0  0
 11 35  1  0  0  0  0
 12 13  2  0  0  0  0
 12 36  1  0  0  0  0
 13 14  1  0  0  0  0
 13 37  1  0  0  0  0
 14 15  1  0  0  0  0
 17 18  1  0  0  0  0
 17 38  1  0  0  0  0
 18 19  2  0  0  0  0
 19 20  1  0  0  0  0
 19 21  1  0  0  0  0
 21 22  1  0  0  0  0
 21 39  1  0  0  0  0
 22 27  2  0  0  0  0
 22 23  1  0  0  0  0
 23 24  2  0  0  0  0
 23 40  1  0  0  0  0
 24 25  1  0  0  0  0
 24 41  1  0  0  0  0
 25 26  2  0  0  0  0
 25 28  1  0  0  0  0
 26 27  1  0  0  0  0
 26 42  1  0  0  0  0
 27 43  1  0  0  0  0
 28 29  1  0  0  0  0
 28 44  1  0  0  0  0
 28 45  1  0  0  0  0
 29 30  2  0  0  0  0
 29 46  1  0  0  0  0
M  CHG  1  46  -1
M  END
$$$$
ZINC03815309
  -OEChem-08230709403D

 45 48  0     0  0  0  0  0  0999 V2000
    2.0709    8.2772    0.4276 C   0  0  0  0  0  0  0  0  0  0  0  0
    3.3654    7.5914    0.4148 N   0  0  0  0  0  0  0  0  0  0  0  0
    3.4085    6.2243    0.3059 C   0  0  0  0  0  0  0  0  0  0  0  0
    4.6476    5.5480    0.2920 C   0  0  0  0  0  0  0  0  0  0  0  0
    5.8559    6.2749    0.3904 C   0  0  0  0  0  0  0  0  0  0  0  0
    5.8030    7.6388    0.4983 C   0  0  0  0  0  0  0  0  0  0  0  0
    4.5011    8.3093    0.5096 C   0  0  0  0  0  0  0  0  0  0  0  0
    4.4450    9.5224    0.6049 O   0  0  0  0  0  0  0  0  0  0  0  0
    7.0517    8.4293    0.6026 C   0  0  0  0  0  0  0  0  0  0  0  0
    7.5999    8.7114    1.8545 C   0  0  0  0  0  0  0  0  0  0  0  0
    8.7669    9.4447    1.9445 C   0  0  0  0  0  0  0  0  0  0  0  0
    9.3865    9.9078    0.7978 C   0  0  0  0  0  0  0  0  0  0  0  0
    8.8455    9.6361   -0.4460 C   0  0  0  0  0  0  0  0  0  0  0  0
    7.6816    8.8998   -0.5502 C   0  0  0  0  0  0  0  0  0  0  0  0
    7.0036    8.5609   -2.1120 Cl  0  0  0  0  0  0  0  0  0  0  0  0
    6.8202    8.1368    3.2951 Cl  0  0  0  0  0  0  0  0  0  0  0  0
    4.6477    4.1496    0.1787 C   0  0  0  0  0  0  0  0  0  0  0  0
    3.4895    3.5229    0.0897 N   0  0  0  0  0  0  0  0  0  0  0  0
    2.3421    4.1926    0.1060 C   0  0  0  0  0  0  0  0  0  0  0  0
    2.2918    5.5122    0.2062 N   0  0  0  0  0  0  0  0  0  0  0  0
    1.1585    3.4870    0.0093 N   0  0  0  0  0  0  0  0  0  0  0  0
    1.1757    2.0869    0.0133 C   0  0  0  0  0  0  0  0  0  0  0  0
    2.1234    1.4060    0.7660 C   0  0  0  0  0  0  0  0  0  0  0  0
    2.1394    0.0252    0.7698 C   0  0  0  0  0  0  0  0  0  0  0  0
    1.2089   -0.6817    0.0223 C   0  0  0  0  0  0  0  0  0  0  0  0
    0.2619   -0.0022   -0.7299 C   0  0  0  0  0  0  0  0  0  0  0  0
    0.2448    1.3786   -0.7351 C   0  0  0  0  0  0  0  0  0  0  0  0
    1.2253   -2.0414    0.0266 O   0  0  0  0  0  0  0  0  0  0  0  0
    0.2382   -2.7046   -0.7658 C   0  0  0  0  0  0  0  0  0  0  0  0
    1.7162    8.3647    1.4546 H   0  0  0  0  0  0  0  0  0  0  0  0
    2.1823    9.2718   -0.0042 H   0  0  0  0  0  0  0  0  0  0  0  0
    1.3510    7.7055   -0.1580 H   0  0  0  0  0  0  0  0  0  0  0  0
    6.8065    5.7624    0.3799 H   0  0  0  0  0  0  0  0  0  0  0  0
    9.1942    9.6606    2.9126 H   0  0  0  0  0  0  0  0  0  0  0  0
   10.2966   10.4843    0.8739 H   0  0  0  0  0  0  0  0  0  0  0  0
    9.3340   10.0009   -1.3374 H   0  0  0  0  0  0  0  0  0  0  0  0
    5.5758    3.5975    0.1643 H   0  0  0  0  0  0  0  0  0  0  0  0
    0.3154    3.9615   -0.0615 H   0  0  0  0  0  0  0  0  0  0  0  0
    2.8449    1.9561    1.3519 H   0  0  0  0  0  0  0  0  0  0  0  0
    2.8763   -0.5046    1.3552 H   0  0  0  0  0  0  0  0  0  0  0  0
   -0.4620   -0.5533   -1.3119 H   0  0  0  0  0  0  0  0  0  0  0  0
   -0.4923    1.9074   -1.3211 H   0  0  0  0  0  0  0  0  0  0  0  0
   -0.7558   -2.4226   -0.4188 H   0  0  0  0  0  0  0  0  0  0  0  0
    0.3547   -2.4136   -1.8098 H   0  0  0  0  0  0  0  0  0  0  0  0
    0.3629   -3.7835   -0.6733 H   0  0  0  0  0  0  0  0  0  0  0  0
  1  2  1  0  0  0  0
  1 30  1  0  0  0  0
  1 31  1  0  0  0  0
  1 32  1  0  0  0  0
  2  7  1  0  0  0  0
  2  3  1  0  0  0  0
  3 20  2  0  0  0  0
  3  4  1  0  0  0  0
  4  5  1  0  0  0  0
  4 17  2  0  0  0  0
  5  6  2  0  0  0  0
  5 33  1  0  0  0  0
  6  7  1  0  0  0  0
  6  9  1  0  0  0  0
  7  8  2  0  0  0  0
  9 14  2  0  0  0  0
  9 10  1  0  0  0  0
 10 11  2  0  0  0  0
 10 16  1  0  0  0  0
 11 12  1  0  0  0  0
 11 34  1  0  0  0  0
 12 13  2  0  0  0  0
 12 35  1  0  0  0  0
 13 14  1  0  0  0  0
 13 36  1  0  0  0  0
 14 15  1  0  0  0  0
 17 18  1  0  0  0  0
 17 37  1  0  0  0  0
 18 19  2  0  0  0  0
 19 20  1  0  0  0  0
 19 21  1  0  0  0  0
 21 22  1  0  0  0  0
 21 38  1  0  0  0  0
 22 27  2  0  0  0  0
 22 23  1  0  0  0  0
 23 24  2  0  0  0  0
 23 39  1  0  0  0  0
 24 25  1  0  0  0  0
 24 40  1  0  0  0  0
 25 26  2  0  0  0  0
 25 28  1  0  0  0  0
 26 27  1  0  0  0  0
 26 41  1  0  0  0  0
 27 42  1  0  0  0  0
 28 29  1  0  0  0  0
 29 43  1  0  0  0  0
 29 44  1  0  0  0  0
 29 45  1  0  0  0  0
M  END
$$$$
ZINC03815310
  -OEChem-08230709403D

 29 31  0     0  0  0  0  0  0999 V2000
    2.2048    1.4101   -0.6575 C   0  0  0  0  0  0  0  0  0  0  0  0
    2.2305    0.0291   -0.6524 C   0  0  0  0  0  0  0  0  0  0  0  0
    1.2137   -0.6812   -0.0267 C   0  0  0  0  0  0  0  0  0  0  0  0
    0.1734    0.0005    0.5924 C   0  0  0  0  0  0  0  0  0  0  0  0
    0.1534    1.3823    0.5838 C   0  0  0  0  0  0  0  0  0  0  0  0
    1.1686    2.0863   -0.0408 C   0  0  0  0  0  0  0  0  0  0  0  0
   -1.1454    2.2358    1.3573 Cl  0  0  0  0  0  0  0  0  0  0  0  0
    1.2369   -2.0779   -0.0204 N   0  0  0  0  0  0  0  0  0  0  0  0
    2.4515   -2.7566   -0.1411 C   0  0  0  0  0  0  0  0  0  0  0  0
    2.6253   -4.2007   -0.2663 C   0  0  0  0  0  0  0  0  0  0  0  0
    1.7566   -5.3053   -0.3078 C   0  0  0  0  0  0  0  0  0  0  0  0
    2.2816   -6.5189   -0.4336 N   0  0  0  0  0  0  0  0  0  0  0  0
    3.5956   -6.6912   -0.5200 C   0  0  0  0  0  0  0  0  0  0  0  0
    4.4483   -5.6817   -0.4855 N   0  0  0  0  0  0  0  0  0  0  0  0
    4.0119   -4.4283   -0.3607 C   0  0  0  0  0  0  0  0  0  0  0  0
    4.6166   -3.2097   -0.2962 N   0  0  0  0  0  0  0  0  0  0  0  0
    5.6032   -3.0512   -0.3343 H   0  0  0  0  0  0  0  0  0  0  0  0
    3.6420   -2.2144   -0.1683 N   0  0  0  0  0  0  0  0  0  0  0  0
    4.0910   -7.9766   -0.6506 N   0  0  0  0  0  0  0  0  0  0  0  0
    0.3893   -5.1326   -0.2190 N   0  0  0  0  0  0  0  0  0  0  0  0
    2.9976    1.9624   -1.1400 H   0  0  0  0  0  0  0  0  0  0  0  0
    3.0403   -0.4981   -1.1348 H   0  0  0  0  0  0  0  0  0  0  0  0
   -0.6185   -0.5487    1.0800 H   0  0  0  0  0  0  0  0  0  0  0  0
    1.1511    3.1662   -0.0463 H   0  0  0  0  0  0  0  0  0  0  0  0
    0.4095   -2.5764    0.0677 H   0  0  0  0  0  0  0  0  0  0  0  0
    5.0477   -8.1235   -0.7149 H   0  0  0  0  0  0  0  0  0  0  0  0
    3.4816   -8.7308   -0.6778 H   0  0  0  0  0  0  0  0  0  0  0  0
    0.0180   -4.2413   -0.1268 H   0  0  0  0  0  0  0  0  0  0  0  0
   -0.1997   -5.9027   -0.2488 H   0  0  0  0  0  0  0  0  0  0  0  0
  1  6  2  0  0  0  0
  1  2  1  0  0  0  0
  1 21  1  0  0  0  0
  2  3  2  0  0  0  0
  2 22  1  0  0  0  0
  3  4  1  0  0  0  0
  3  8  1  0  0  0  0
  4  5  2  0  0  0  0
  4 23  1  0  0  0  0
  5  6  1  0  0  0  0
  5  7  1  0  0  0  0
  6 24  1  0  0  0  0
  8  9  1  0  0  0  0
  8 25  1  0  0  0  0
  9 18  2  0  0  0  0
  9 10  1  0  0  0  0
 10 15  2  0  0  0  0
 10 11  1  0  0  0  0
 11 12  2  0  0  0  0
 11 20  1  0  0  0  0
 12 13  1  0  0  0  0
 13 14  2  0  0  0  0
 13 19  1  0  0  0  0
 14 15  1  0  0  0  0
 15 16  1  0  0  0  0
 16 17  1  0  0  0  0
 16 18  1  0  0  0  0
 19 26  1  0  0  0  0
 19 27  1  0  0  0  0
 20 28  1  0  0  0  0
 20 29  1  0  0  0  0
M  END
$$$$
ZINC03815310
  -OEChem-08230709403D

 29 31  0     0  0  0  0  0  0999 V2000
    2.2048    1.4101   -0.6575 C   0  0  0  0  0  0  0  0  0  0  0  0
    2.2305    0.0291   -0.6524 C   0  0  0  0  0  0  0  0  0  0  0  0
    1.2137   -0.6812   -0.0267 C   0  0  0  0  0  0  0  0  0  0  0  0
    0.1734    0.0005    0.5924 C   0  0  0  0  0  0  0  0  0  0  0  0
    0.1534    1.3823    0.5838 C   0  0  0  0  0  0  0  0  0  0  0  0
    1.1686    2.0863   -0.0408 C   0  0  0  0  0  0  0  0  0  0  0  0
   -1.1454    2.2358    1.3573 Cl  0  0  0  0  0  0  0  0  0  0  0  0
    1.2369   -2.0779   -0.0204 N   0  0  0  0  0  0  0  0  0  0  0  0
    2.4515   -2.7566   -0.1411 C   0  0  0  0  0  0  0  0  0  0  0  0
    2.6253   -4.2007   -0.2663 C   0  0  0  0  0  0  0  0  0  0  0  0
    1.7566   -5.3053   -0.3078 C   0  0  0  0  0  0  0  0  0  0  0  0
    2.2816   -6.5189   -0.4336 N   0  0  0  0  0  0  0  0  0  0  0  0
    3.5956   -6.6912   -0.5200 C   0  0  0  0  0  0  0  0  0  0  0  0
    4.4483   -5.6817   -0.4855 N   0  0  0  0  0  0  0  0  0  0  0  0
    4.0119   -4.4283   -0.3607 C   0  0  0  0  0  0  0  0  0  0  0  0
    4.6166   -3.2097   -0.2962 N   0  0  0  0  0  0  0  0  0  0  0  0
    5.6032   -3.0512   -0.3343 H   0  0  0  0  0  0  0  0  0  0  0  0
    3.6420   -2.2144   -0.1683 N   0  0  0  0  0  0  0  0  0  0  0  0
    4.0910   -7.9766   -0.6506 N   0  0  0  0  0  0  0  0  0  0  0  0
    0.3893   -5.1326   -0.2190 N   0  0  0  0  0  0  0  0  0  0  0  0
    2.9976    1.9624   -1.1400 H   0  0  0  0  0  0  0  0  0  0  0  0
    3.0403   -0.4981   -1.1348 H   0  0  0  0  0  0  0  0  0  0  0  0
   -0.6185   -0.5487    1.0800 H   0  0  0  0  0  0  0  0  0  0  0  0
    1.1511    3.1662   -0.0463 H   0  0  0  0  0  0  0  0  0  0  0  0
    0.4095   -2.5764    0.0677 H   0  0  0  0  0  0  0  0  0  0  0  0
    5.0477   -8.1235   -0.7149 H   0  0  0  0  0  0  0  0  0  0  0  0
    3.4816   -8.7308   -0.6778 H   0  0  0  0  0  0  0  0  0  0  0  0
    0.0180   -4.2413   -0.1268 H   0  0  0  0  0  0  0  0  0  0  0  0
   -0.1997   -5.9027   -0.2488 H   0  0  0  0  0  0  0  0  0  0  0  0
  1  6  2  0  0  0  0
  1  2  1  0  0  0  0
  1 21  1  0  0  0  0
  2  3  2  0  0  0  0
  2 22  1  0  0  0  0
  3  4  1  0  0  0  0
  3  8  1  0  0  0  0
  4  5  2  0  0  0  0
  4 23  1  0  0  0  0
  5  6  1  0  0  0  0
  5  7  1  0  0  0  0
  6 24  1  0  0  0  0
  8  9  1  0  0  0  0
  8 25  1  0  0  0  0
  9 18  2  0  0  0  0
  9 10  1  0  0  0  0
 10 15  2  0  0  0  0
 10 11  1  0  0  0  0
 11 12  2  0  0  0  0
 11 20  1  0  0  0  0
 12 13  1  0  0  0  0
 13 14  2  0  0  0  0
 13 19  1  0  0  0  0
 14 15  1  0  0  0  0
 15 16  1  0  0  0  0
 16 17  1  0  0  0  0
 16 18  1  0  0  0  0
 19 26  1  0  0  0  0
 19 27  1  0  0  0  0
 20 28  1  0  0  0  0
 20 29  1  0  0  0  0
M  END
$$$$
ZINC03815310
  -OEChem-08230709403D

 30 32  0     0  0  0  0  0  0999 V2000
    2.2048    1.4101   -0.6575 C   0  0  0  0  0  0  0  0  0  0  0  0
    2.2305    0.0291   -0.6524 C   0  0  0  0  0  0  0  0  0  0  0  0
    1.2137   -0.6812   -0.0267 C   0  0  0  0  0  0  0  0  0  0  0  0
    0.1734    0.0005    0.5924 C   0  0  0  0  0  0  0  0  0  0  0  0
    0.1534    1.3823    0.5838 C   0  0  0  0  0  0  0  0  0  0  0  0
    1.1686    2.0863   -0.0408 C   0  0  0  0  0  0  0  0  0  0  0  0
   -1.1454    2.2358    1.3573 Cl  0  0  0  0  0  0  0  0  0  0  0  0
    1.2369   -2.0779   -0.0204 N   0  0  0  0  0  0  0  0  0  0  0  0
    2.4515   -2.7566   -0.1411 C   0  0  0  0  0  0  0  0  0  0  0  0
    2.6253   -4.2007   -0.2663 C   0  0  0  0  0  0  0  0  0  0  0  0
    1.7566   -5.3053   -0.3078 C   0  0  0  0  0  0  0  0  0  0  0  0
    2.2816   -6.5189   -0.4336 N   0  0  0  0  0  0  0  0  0  0  0  0
    3.5956   -6.6912   -0.5200 C   0  0  0  0  0  0  0  0  0  0  0  0
    4.0119   -4.4283   -0.3607 C   0  0  0  0  0  0  0  0  0  0  0  0
    4.6166   -3.2097   -0.2962 N   0  0  0  0  0  0  0  0  0  0  0  0
    5.6032   -3.0512   -0.3343 H   0  0  0  0  0  0  0  0  0  0  0  0
    3.6420   -2.2144   -0.1683 N   0  0  0  0  0  0  0  0  0  0  0  0
    4.0910   -7.9766   -0.6506 N   0  0  0  0  0  0  0  0  0  0  0  0
    0.3893   -5.1326   -0.2190 N   0  0  0  0  0  0  0  0  0  0  0  0
    2.9976    1.9624   -1.1400 H   0  0  0  0  0  0  0  0  0  0  0  0
    3.0403   -0.4981   -1.1348 H   0  0  0  0  0  0  0  0  0  0  0  0
   -0.6185   -0.5487    1.0800 H   0  0  0  0  0  0  0  0  0  0  0  0
    1.1511    3.1662   -0.0463 H   0  0  0  0  0  0  0  0  0  0  0  0
    0.4095   -2.5764    0.0677 H   0  0  0  0  0  0  0  0  0  0  0  0
    5.0477   -8.1235   -0.7149 H   0  0  0  0  0  0  0  0  0  0  0  0
    3.4816   -8.7308   -0.6778 H   0  0  0  0  0  0  0  0  0  0  0  0
    0.0180   -4.2413   -0.1268 H   0  0  0  0  0  0  0  0  0  0  0  0
   -0.1997   -5.9027   -0.2488 H   0  0  0  0  0  0  0  0  0  0  0  0
    4.5195   -5.6948   -0.4905 N   0  3  0  0  0  0  0  0  0  0  0  0
    5.4928   -5.9131   -0.5614 H   0  0  0  0  0  0  0  0  0  0  0  0
  1  6  2  0  0  0  0
  1  2  1  0  0  0  0
  1 20  1  0  0  0  0
  2  3  2  0  0  0  0
  2 21  1  0  0  0  0
  3  4  1  0  0  0  0
  3  8  1  0  0  0  0
  4  5  2  0  0  0  0
  4 22  1  0  0  0  0
  5  6  1  0  0  0  0
  5  7  1  0  0  0  0
  6 23  1  0  0  0  0
  8  9  1  0  0  0  0
  8 24  1  0  0  0  0
  9 17  2  0  0  0  0
  9 10  1  0  0  0  0
 10 14  2  0  0  0  0
 10 11  1  0  0  0  0
 11 12  2  0  0  0  0
 11 19  1  0  0  0  0
 12 13  1  0  0  0  0
 13 18  1  0  0  0  0
 13 29  2  0  0  0  0
 14 15  1  0  0  0  0
 14 29  1  0  0  0  0
 15 16  1  0  0  0  0
 15 17  1  0  0  0  0
 18 25  1  0  0  0  0
 18 26  1  0  0  0  0
 19 27  1  0  0  0  0
 19 28  1  0  0  0  0
 29 30  1  0  0  0  0
M  CHG  1  29   1
M  END
$$$$
ZINC03815311
  -OEChem-08230709403D

 39 42  0     0  0  0  0  0  0999 V2000
   -4.4017   -2.2269    0.4383 C   0  0  0  0  0  0  0  0  0  0  0  0
   -2.9461   -1.9162    0.2023 C   0  0  0  0  0  0  0  0  0  0  0  0
   -2.3970   -0.6768    0.2319 C   0  0  0  0  0  0  0  0  0  0  0  0
   -0.9653   -0.8480   -0.0456 C   0  0  0  0  0  0  0  0  0  0  0  0
   -0.7651   -2.2267   -0.2348 C   0  0  0  0  0  0  0  0  0  0  0  0
   -1.9777   -2.8416   -0.0752 N   0  0  0  0  0  0  0  0  0  0  0  0
   -2.1286   -3.7970   -0.1485 H   0  0  0  0  0  0  0  0  0  0  0  0
    0.4650   -2.6589   -0.5085 N   0  0  0  0  0  0  0  0  0  0  0  0
    1.4685   -1.8135   -0.6049 C   0  0  0  0  0  0  0  0  0  0  0  0
    1.3227   -0.5116   -0.4395 N   0  0  0  0  0  0  0  0  0  0  0  0
    0.1324    0.0147   -0.1631 C   0  0  0  0  0  0  0  0  0  0  0  0
   -0.0167    1.3803    0.0096 N   0  0  0  0  0  0  0  0  0  0  0  0
    1.1065    2.2123    0.0035 C   0  0  0  0  0  0  0  0  0  0  0  0
    1.0114    3.5064   -0.4931 C   0  0  0  0  0  0  0  0  0  0  0  0
    2.1223    4.3265   -0.4976 C   0  0  0  0  0  0  0  0  0  0  0  0
    3.3294    3.8614   -0.0085 C   0  0  0  0  0  0  0  0  0  0  0  0
    3.4280    2.5732    0.4873 C   0  0  0  0  0  0  0  0  0  0  0  0
    2.3182    1.7490    0.4989 C   0  0  0  0  0  0  0  0  0  0  0  0
    4.9451    1.9937    1.1008 Cl  0  0  0  0  0  0  0  0  0  0  0  0
   -3.1023    0.5995    0.4986 C   0  0  0  0  0  0  0  0  0  0  0  0
   -3.1900    1.5719   -0.4967 C   0  0  0  0  0  0  0  0  0  0  0  0
   -3.8532    2.7555   -0.2446 C   0  0  0  0  0  0  0  0  0  0  0  0
   -4.4196    2.9833    0.9968 C   0  0  0  0  0  0  0  0  0  0  0  0
   -4.3309    2.0245    1.9900 C   0  0  0  0  0  0  0  0  0  0  0  0
   -3.6755    0.8345    1.7476 C   0  0  0  0  0  0  0  0  0  0  0  0
   -4.5669   -2.4084    1.5003 H   0  0  0  0  0  0  0  0  0  0  0  0
   -5.0105   -1.3826    0.1150 H   0  0  0  0  0  0  0  0  0  0  0  0
   -4.6805   -3.1145   -0.1296 H   0  0  0  0  0  0  0  0  0  0  0  0
    2.4518   -2.2003   -0.8281 H   0  0  0  0  0  0  0  0  0  0  0  0
   -0.9010    1.7601    0.1310 H   0  0  0  0  0  0  0  0  0  0  0  0
    0.0693    3.8706   -0.8756 H   0  0  0  0  0  0  0  0  0  0  0  0
    2.0484    5.3326   -0.8833 H   0  0  0  0  0  0  0  0  0  0  0  0
    4.1967    4.5049   -0.0133 H   0  0  0  0  0  0  0  0  0  0  0  0
    2.3944    0.7450    0.8894 H   0  0  0  0  0  0  0  0  0  0  0  0
   -2.7437    1.3972   -1.4645 H   0  0  0  0  0  0  0  0  0  0  0  0
   -3.9262    3.5073   -1.0165 H   0  0  0  0  0  0  0  0  0  0  0  0
   -4.9335    3.9131    1.1911 H   0  0  0  0  0  0  0  0  0  0  0  0
   -4.7750    2.2078    2.9573 H   0  0  0  0  0  0  0  0  0  0  0  0
   -3.6072    0.0866    2.5236 H   0  0  0  0  0  0  0  0  0  0  0  0
  1  2  1  0  0  0  0
  1 26  1  0  0  0  0
  1 27  1  0  0  0  0
  1 28  1  0  0  0  0
  2  6  1  0  0  0  0
  2  3  2  0  0  0  0
  3  4  1  0  0  0  0
  3 20  1  0  0  0  0
  4 11  2  0  0  0  0
  4  5  1  0  0  0  0
  5  6  1  0  0  0  0
  5  8  2  0  0  0  0
  6  7  1  0  0  0  0
  8  9  1  0  0  0  0
  9 10  2  0  0  0  0
  9 29  1  0  0  0  0
 10 11  1  0  0  0  0
 11 12  1  0  0  0  0
 12 13  1  0  0  0  0
 12 30  1  0  0  0  0
 13 18  2  0  0  0  0
 13 14  1  0  0  0  0
 14 15  2  0  0  0  0
 14 31  1  0  0  0  0
 15 16  1  0  0  0  0
 15 32  1  0  0  0  0
 16 17  2  0  0  0  0
 16 33  1  0  0  0  0
 17 18  1  0  0  0  0
 17 19  1  0  0  0  0
 18 34  1  0  0  0  0
 20 25  2  0  0  0  0
 20 21  1  0  0  0  0
 21 22  2  0  0  0  0
 21 35  1  0  0  0  0
 22 23  1  0  0  0  0
 22 36  1  0  0  0  0
 23 24  2  0  0  0  0
 23 37  1  0  0  0  0
 24 25  1  0  0  0  0
 24 38  1  0  0  0  0
 25 39  1  0  0  0  0
M  END
$$$$
ZINC03815312
  -OEChem-08230709403D

 35 37  0     0  0  0  0  0  0999 V2000
   -6.6836    4.8595    1.2686 C   0  0  0  0  0  0  0  0  0  0  0  0
   -7.1192    5.4537    0.0981 C   0  0  0  0  0  0  0  0  0  0  0  0
   -6.4604    5.2069   -1.0901 C   0  0  0  0  0  0  0  0  0  0  0  0
   -5.3589    4.3604   -1.1089 C   0  0  0  0  0  0  0  0  0  0  0  0
   -4.9241    3.7653    0.0683 C   0  0  0  0  0  0  0  0  0  0  0  0
   -5.5909    4.0124    1.2524 C   0  0  0  0  0  0  0  0  0  0  0  0
   -3.7300    2.8460    0.0526 C   0  0  0  0  0  0  0  0  0  0  0  0
   -2.5006    3.6426    0.0446 N   0  0  0  0  0  0  0  0  0  0  0  0
   -1.2740    3.0160    0.0300 C   0  0  0  0  0  0  0  0  0  0  0  0
   -0.0745    3.7650    0.0221 C   0  0  0  0  0  0  0  0  0  0  0  0
   -0.0557    5.1619    0.0281 C   0  0  0  0  0  0  0  0  0  0  0  0
    2.2642    5.1758    0.0064 C   0  0  0  0  0  0  0  0  0  0  0  0
    2.3453    3.7954   -0.0009 C   0  0  0  0  0  0  0  0  0  0  0  0
    1.1566    3.0567    0.0070 C   0  0  0  0  0  0  0  0  0  0  0  0
    1.1330    1.7181    0.0005 N   0  0  0  0  0  0  0  0  0  0  0  0
   -0.0126    1.0758    0.0080 C   0  0  0  0  0  0  0  0  0  0  0  0
   -1.1838    1.6912    0.0170 N   0  0  0  0  0  0  0  0  0  0  0  0
    3.4343    5.9239   -0.0013 N   0  0  0  0  0  0  0  0  0  0  0  0
   -4.6905    4.1081   -2.3091 N   0  0  0  0  0  0  0  0  0  0  0  0
   -7.2009    5.0540    2.1965 H   0  0  0  0  0  0  0  0  0  0  0  0
   -7.9758    6.1113    0.1134 H   0  0  0  0  0  0  0  0  0  0  0  0
   -6.8013    5.6709   -2.0038 H   0  0  0  0  0  0  0  0  0  0  0  0
   -5.2560    3.5465    2.1674 H   0  0  0  0  0  0  0  0  0  0  0  0
   -3.7641    2.2215   -0.8401 H   0  0  0  0  0  0  0  0  0  0  0  0
   -3.7471    2.2131    0.9398 H   0  0  0  0  0  0  0  0  0  0  0  0
   -2.5503    4.6114    0.0497 H   0  0  0  0  0  0  0  0  0  0  0  0
   -0.9838    5.7141    0.0393 H   0  0  0  0  0  0  0  0  0  0  0  0
    3.3042    3.2985   -0.0122 H   0  0  0  0  0  0  0  0  0  0  0  0
    0.0021   -0.0041    0.0020 H   0  0  0  0  0  0  0  0  0  0  0  0
    4.2954    5.4774   -0.0117 H   0  0  0  0  0  0  0  0  0  0  0  0
    3.3905    6.8929    0.0037 H   0  0  0  0  0  0  0  0  0  0  0  0
   -3.9217    3.5167   -2.3211 H   0  0  0  0  0  0  0  0  0  0  0  0
   -4.9950    4.5244   -3.1307 H   0  0  0  0  0  0  0  0  0  0  0  0
    1.0900    5.8897    0.0206 N   0  3  0  0  0  0  0  0  0  0  0  0
    1.0800    6.9164    0.0253 H   0  0  0  0  0  0  0  0  0  0  0  0
  1  6  2  0  0  0  0
  1  2  1  0  0  0  0
  1 20  1  0  0  0  0
  2  3  2  0  0  0  0
  2 21  1  0  0  0  0
  3  4  1  0  0  0  0
  3 22  1  0  0  0  0
  4  5  2  0  0  0  0
  4 19  1  0  0  0  0
  5  6  1  0  0  0  0
  5  7  1  0  0  0  0
  6 23  1  0  0  0  0
  7  8  1  0  0  0  0
  7 24  1  0  0  0  0
  7 25  1  0  0  0  0
  8  9  1  0  0  0  0
  8 26  1  0  0  0  0
  9 17  2  0  0  0  0
  9 10  1  0  0  0  0
 10 14  2  0  0  0  0
 10 11  1  0  0  0  0
 11 27  1  0  0  0  0
 11 34  2  0  0  0  0
 12 13  2  0  0  0  0
 12 18  1  0  0  0  0
 12 34  1  0  0  0  0
 13 14  1  0  0  0  0
 13 28  1  0  0  0  0
 14 15  1  0  0  0  0
 15 16  2  0  0  0  0
 16 17  1  0  0  0  0
 16 29  1  0  0  0  0
 18 30  1  0  0  0  0
 18 31  1  0  0  0  0
 19 32  1  0  0  0  0
 19 33  1  0  0  0  0
 34 35  1  0  0  0  0
M  CHG  1  34   1
M  END
$$$$
ZINC03815313
  -OEChem-08230709403D

 47 49  0     0  0  0  0  0  0999 V2000
   -7.4772   -0.0474   -0.0853 C   0  0  0  0  0  0  0  0  0  0  0  0
   -7.3381    1.0853    0.9338 C   0  0  0  0  0  0  0  0  0  0  0  0
   -7.3435    0.5023    2.3483 C   0  0  0  0  0  0  0  0  0  0  0  0
   -6.0424    1.8176    0.6972 C   0  0  0  0  0  0  0  0  0  0  0  0
   -6.0580    3.1667    0.3933 C   0  0  0  0  0  0  0  0  0  0  0  0
   -4.8725    3.8410    0.1768 C   0  0  0  0  0  0  0  0  0  0  0  0
   -3.6633    3.1626    0.2641 C   0  0  0  0  0  0  0  0  0  0  0  0
   -3.6517    1.8060    0.5635 C   0  0  0  0  0  0  0  0  0  0  0  0
   -4.8406    1.1392    0.7849 C   0  0  0  0  0  0  0  0  0  0  0  0
   -2.4619    3.8418    0.0457 N   0  0  0  0  0  0  0  0  0  0  0  0
   -1.2713    3.1436    0.0070 C   0  0  0  0  0  0  0  0  0  0  0  0
   -0.5503    2.8633    1.1907 C   0  0  0  0  0  0  0  0  0  0  0  0
   -1.0223    3.2871    2.4421 C   0  0  0  0  0  0  0  0  0  0  0  0
   -0.3065    3.0037    3.5692 C   0  0  0  0  0  0  0  0  0  0  0  0
    0.8987    2.2916    3.4891 C   0  0  0  0  0  0  0  0  0  0  0  0
    1.3833    1.8643    2.2741 C   0  0  0  0  0  0  0  0  0  0  0  0
    0.6656    2.1439    1.1007 C   0  0  0  0  0  0  0  0  0  0  0  0
    1.1227    1.7367   -0.0926 N   0  0  0  0  0  0  0  0  0  0  0  0
    0.4764    1.9826   -1.2035 C   0  0  0  0  0  0  0  0  0  0  0  0
   -0.7342    2.6939   -1.2087 C   0  0  0  0  0  0  0  0  0  0  0  0
   -1.4162    2.9527   -2.4409 C   0  0  0  0  0  0  0  0  0  0  0  0
   -1.9573    3.1579   -3.4185 N   0  0  0  0  0  0  0  0  0  0  0  0
    1.5954    2.0202    4.6234 O   0  0  0  0  0  0  0  0  0  0  0  0
    2.8157    1.2914    4.4764 C   0  0  0  0  0  0  0  0  0  0  0  0
   -0.7666    3.4153    4.7808 O   0  0  0  0  0  0  0  0  0  0  0  0
   -2.0006    4.1358    4.7955 C   0  0  0  0  0  0  0  0  0  0  0  0
   -6.6429   -0.7401    0.0254 H   0  0  0  0  0  0  0  0  0  0  0  0
   -8.4143   -0.5771    0.0859 H   0  0  0  0  0  0  0  0  0  0  0  0
   -7.4733    0.3679   -1.0930 H   0  0  0  0  0  0  0  0  0  0  0  0
   -8.1724    1.7780    0.8232 H   0  0  0  0  0  0  0  0  0  0  0  0
   -7.2444    1.3093    3.0743 H   0  0  0  0  0  0  0  0  0  0  0  0
   -8.2806   -0.0274    2.5194 H   0  0  0  0  0  0  0  0  0  0  0  0
   -6.5092   -0.1904    2.4590 H   0  0  0  0  0  0  0  0  0  0  0  0
   -6.9984    3.6935    0.3256 H   0  0  0  0  0  0  0  0  0  0  0  0
   -4.8853    4.8947   -0.0597 H   0  0  0  0  0  0  0  0  0  0  0  0
   -2.7137    1.2746    0.6277 H   0  0  0  0  0  0  0  0  0  0  0  0
   -4.8320    0.0857    1.0224 H   0  0  0  0  0  0  0  0  0  0  0  0
   -2.4644    4.8038   -0.0788 H   0  0  0  0  0  0  0  0  0  0  0  0
   -1.9498    3.8358    2.5135 H   0  0  0  0  0  0  0  0  0  0  0  0
    2.3127    1.3166    2.2235 H   0  0  0  0  0  0  0  0  0  0  0  0
    0.8864    1.6336   -2.1398 H   0  0  0  0  0  0  0  0  0  0  0  0
    3.2703    1.1427    5.4559 H   0  0  0  0  0  0  0  0  0  0  0  0
    2.6080    0.3229    4.0215 H   0  0  0  0  0  0  0  0  0  0  0  0
    3.4997    1.8526    3.8398 H   0  0  0  0  0  0  0  0  0  0  0  0
   -1.8997    5.0415    4.1975 H   0  0  0  0  0  0  0  0  0  0  0  0
   -2.7909    3.5114    4.3787 H   0  0  0  0  0  0  0  0  0  0  0  0
   -2.2525    4.4041    5.8215 H   0  0  0  0  0  0  0  0  0  0  0  0
  1  2  1  0  0  0  0
  1 27  1  0  0  0  0
  1 28  1  0  0  0  0
  1 29  1  0  0  0  0
  2  3  1  0  0  0  0
  2  4  1  0  0  0  0
  2 30  1  0  0  0  0
  3 31  1  0  0  0  0
  3 32  1  0  0  0  0
  3 33  1  0  0  0  0
  4  9  2  0  0  0  0
  4  5  1  0  0  0  0
  5  6  2  0  0  0  0
  5 34  1  0  0  0  0
  6  7  1  0  0  0  0
  6 35  1  0  0  0  0
  7  8  2  0  0  0  0
  7 10  1  0  0  0  0
  8  9  1  0  0  0  0
  8 36  1  0  0  0  0
  9 37  1  0  0  0  0
 10 11  1  0  0  0  0
 10 38  1  0  0  0  0
 11 20  2  0  0  0  0
 11 12  1  0  0  0  0
 12 17  2  0  0  0  0
 12 13  1  0  0  0  0
 13 14  2  0  0  0  0
 13 39  1  0  0  0  0
 14 15  1  0  0  0  0
 14 25  1  0  0  0  0
 15 16  2  0  0  0  0
 15 23  1  0  0  0  0
 16 17  1  0  0  0  0
 16 40  1  0  0  0  0
 17 18  1  0  0  0  0
 18 19  2  0  0  0  0
 19 20  1  0  0  0  0
 19 41  1  0  0  0  0
 20 21  1  0  0  0  0
 21 22  3  0  0  0  0
 23 24  1  0  0  0  0
 24 42  1  0  0  0  0
 24 43  1  0  0  0  0
 24 44  1  0  0  0  0
 25 26  1  0  0  0  0
 26 45  1  0  0  0  0
 26 46  1  0  0  0  0
 26 47  1  0  0  0  0
M  END
$$$$
ZINC03815314
  -OEChem-08230709403D

 30 32  0     0  0  0  0  0  0999 V2000
   -8.3867    5.9371    0.4616 C   0  0  0  0  0  0  0  0  0  0  0  0
   -8.4617    7.1330   -0.2290 C   0  0  0  0  0  0  0  0  0  0  0  0
   -7.3324    7.6624   -0.8258 C   0  0  0  0  0  0  0  0  0  0  0  0
   -6.1243    6.9977   -0.7334 C   0  0  0  0  0  0  0  0  0  0  0  0
   -6.0458    5.7961   -0.0398 C   0  0  0  0  0  0  0  0  0  0  0  0
   -7.1838    5.2650    0.5537 C   0  0  0  0  0  0  0  0  0  0  0  0
   -4.8254    5.1203    0.0554 N   0  0  0  0  0  0  0  0  0  0  0  0
   -4.8062    3.7614    0.2860 C   0  0  0  0  0  0  0  0  0  0  0  0
   -3.5896    3.0811    0.5246 C   0  0  0  0  0  0  0  0  0  0  0  0
   -2.3520    3.7289    0.5406 C   0  0  0  0  0  0  0  0  0  0  0  0
   -1.2612    1.7310    0.9893 C   0  0  0  0  0  0  0  0  0  0  0  0
   -2.4379    1.0046    0.9923 C   0  0  0  0  0  0  0  0  0  0  0  0
   -3.6403    1.6806    0.7559 C   0  0  0  0  0  0  0  0  0  0  0  0
   -4.8288    1.0644    0.7387 N   0  0  0  0  0  0  0  0  0  0  0  0
   -5.9266    1.7488    0.5111 C   0  0  0  0  0  0  0  0  0  0  0  0
   -5.9298    3.0533    0.2908 N   0  0  0  0  0  0  0  0  0  0  0  0
   -0.0591    1.0756    1.2227 N   0  0  0  0  0  0  0  0  0  0  0  0
   -4.5800    7.7225   -1.5493 Br  0  0  0  0  0  0  0  0  0  0  0  0
   -9.2709    5.5263    0.9262 H   0  0  0  0  0  0  0  0  0  0  0  0
   -9.4046    7.6545   -0.3026 H   0  0  0  0  0  0  0  0  0  0  0  0
   -7.3945    8.5962   -1.3649 H   0  0  0  0  0  0  0  0  0  0  0  0
   -7.1271    4.3291    1.0898 H   0  0  0  0  0  0  0  0  0  0  0  0
   -3.9923    5.6077   -0.0408 H   0  0  0  0  0  0  0  0  0  0  0  0
   -2.2976    4.7934    0.3663 H   0  0  0  0  0  0  0  0  0  0  0  0
   -2.4292   -0.0602    1.1727 H   0  0  0  0  0  0  0  0  0  0  0  0
   -6.8697    1.2226    0.5037 H   0  0  0  0  0  0  0  0  0  0  0  0
   -0.0517    0.1193    1.3853 H   0  0  0  0  0  0  0  0  0  0  0  0
    0.7734    1.5734    1.2191 H   0  0  0  0  0  0  0  0  0  0  0  0
   -1.1796    3.0858    0.7748 N   0  3  0  0  0  0  0  0  0  0  0  0
   -0.2819    3.5840    0.7907 H   0  0  0  0  0  0  0  0  0  0  0  0
  1  6  2  0  0  0  0
  1  2  1  0  0  0  0
  1 19  1  0  0  0  0
  2  3  2  0  0  0  0
  2 20  1  0  0  0  0
  3  4  1  0  0  0  0
  3 21  1  0  0  0  0
  4  5  2  0  0  0  0
  4 18  1  0  0  0  0
  5  6  1  0  0  0  0
  5  7  1  0  0  0  0
  6 22  1  0  0  0  0
  7  8  1  0  0  0  0
  7 23  1  0  0  0  0
  8 16  2  0  0  0  0
  8  9  1  0  0  0  0
  9 13  2  0  0  0  0
  9 10  1  0  0  0  0
 10 24  1  0  0  0  0
 10 29  2  0  0  0  0
 11 12  2  0  0  0  0
 11 17  1  0  0  0  0
 11 29  1  0  0  0  0
 12 13  1  0  0  0  0
 12 25  1  0  0  0  0
 13 14  1  0  0  0  0
 14 15  2  0  0  0  0
 15 16  1  0  0  0  0
 15 26  1  0  0  0  0
 17 27  1  0  0  0  0
 17 28  1  0  0  0  0
 29 30  1  0  0  0  0
M  CHG  1  29   1
M  END
$$$$
ZINC03815315
  -OEChem-08230709403D

 48 51  0     0  0  0  0  0  0999 V2000
   -4.8073    0.5564   -0.9941 C   0  0  0  0  0  0  0  0  0  0  0  0
   -3.6403    1.3421   -0.4538 C   0  0  0  0  0  0  0  0  0  0  0  0
   -2.3722    0.7952   -0.4720 C   0  0  0  0  0  0  0  0  0  0  0  0
   -1.2971    1.5195    0.0255 C   0  0  0  0  0  0  0  0  0  0  0  0
   -1.4988    2.7911    0.5463 C   0  0  0  0  0  0  0  0  0  0  0  0
   -2.7663    3.3386    0.5586 C   0  0  0  0  0  0  0  0  0  0  0  0
   -3.8400    2.6143    0.0613 C   0  0  0  0  0  0  0  0  0  0  0  0
   -5.0890    3.1518    0.0793 O   0  0  0  0  0  0  0  0  0  0  0  0
   -5.2218    4.4662    0.6241 C   0  0  0  0  0  0  0  0  0  0  0  0
   -0.0111    0.9658    0.0074 N   0  0  0  0  0  0  0  0  0  0  0  0
    1.0883    1.7790   -0.1883 C   0  0  0  0  0  0  0  0  0  0  0  0
    0.8927    3.0625   -0.4717 N   0  0  0  0  0  0  0  0  0  0  0  0
    1.9089    3.8826   -0.6620 C   0  0  0  0  0  0  0  0  0  0  0  0
    3.2120    3.3699   -0.5707 C   0  0  0  0  0  0  0  0  0  0  0  0
    4.3404    4.1976   -0.7699 C   0  0  0  0  0  0  0  0  0  0  0  0
    5.5913    3.6498   -0.6706 C   0  0  0  0  0  0  0  0  0  0  0  0
    5.7297    2.2251   -0.3615 C   0  0  0  0  0  0  0  0  0  0  0  0
    6.8388    1.7295   -0.2712 O   0  0  0  0  0  0  0  0  0  0  0  0
    4.6368    1.4600   -0.1760 N   0  0  0  0  0  0  0  0  0  0  0  0
    3.3794    2.0002   -0.2736 C   0  0  0  0  0  0  0  0  0  0  0  0
    2.2982    1.2499   -0.0919 N   0  0  0  0  0  0  0  0  0  0  0  0
    4.7923    0.0365    0.1336 C   0  0  0  0  0  0  0  0  0  0  0  0
    6.7939    4.4908   -0.8744 C   0  0  0  0  0  0  0  0  0  0  0  0
    7.3464    4.6263   -2.1486 C   0  0  0  0  0  0  0  0  0  0  0  0
    8.4645    5.4160   -2.3327 C   0  0  0  0  0  0  0  0  0  0  0  0
    9.0427    6.0633   -1.2556 C   0  0  0  0  0  0  0  0  0  0  0  0
    8.5033    5.9286    0.0110 C   0  0  0  0  0  0  0  0  0  0  0  0
    7.3824    5.1461    0.2079 C   0  0  0  0  0  0  0  0  0  0  0  0
    6.7073    4.9779    1.7984 Cl  0  0  0  0  0  0  0  0  0  0  0  0
    6.6265    3.8089   -3.5004 Cl  0  0  0  0  0  0  0  0  0  0  0  0
   -5.2489   -0.0358   -0.1926 H   0  0  0  0  0  0  0  0  0  0  0  0
   -5.5542    1.2430   -1.3925 H   0  0  0  0  0  0  0  0  0  0  0  0
   -4.4627   -0.1063   -1.7880 H   0  0  0  0  0  0  0  0  0  0  0  0
   -2.2169   -0.1955   -0.8728 H   0  0  0  0  0  0  0  0  0  0  0  0
   -0.6638    3.3531    0.9379 H   0  0  0  0  0  0  0  0  0  0  0  0
   -2.9227    4.3290    0.9598 H   0  0  0  0  0  0  0  0  0  0  0  0
   -4.8886    4.4647    1.6619 H   0  0  0  0  0  0  0  0  0  0  0  0
   -4.6119    5.1617    0.0476 H   0  0  0  0  0  0  0  0  0  0  0  0
   -6.2662    4.7746    0.5782 H   0  0  0  0  0  0  0  0  0  0  0  0
    0.1075    0.0107    0.1282 H   0  0  0  0  0  0  0  0  0  0  0  0
    1.7411    4.9253   -0.8879 H   0  0  0  0  0  0  0  0  0  0  0  0
    4.2176    5.2464   -0.9967 H   0  0  0  0  0  0  0  0  0  0  0  0
    4.8142   -0.5366   -0.7933 H   0  0  0  0  0  0  0  0  0  0  0  0
    5.7240   -0.1173    0.6779 H   0  0  0  0  0  0  0  0  0  0  0  0
    3.9543   -0.2957    0.7464 H   0  0  0  0  0  0  0  0  0  0  0  0
    8.8905    5.5253   -3.3191 H   0  0  0  0  0  0  0  0  0  0  0  0
    9.9194    6.6763   -1.4042 H   0  0  0  0  0  0  0  0  0  0  0  0
    8.9600    6.4361    0.8479 H   0  0  0  0  0  0  0  0  0  0  0  0
  1  2  1  0  0  0  0
  1 31  1  0  0  0  0
  1 32  1  0  0  0  0
  1 33  1  0  0  0  0
  2  7  2  0  0  0  0
  2  3  1  0  0  0  0
  3  4  2  0  0  0  0
  3 34  1  0  0  0  0
  4  5  1  0  0  0  0
  4 10  1  0  0  0  0
  5  6  2  0  0  0  0
  5 35  1  0  0  0  0
  6  7  1  0  0  0  0
  6 36  1  0  0  0  0
  7  8  1  0  0  0  0
  8  9  1  0  0  0  0
  9 37  1  0  0  0  0
  9 38  1  0  0  0  0
  9 39  1  0  0  0  0
 10 11  1  0  0  0  0
 10 40  1  0  0  0  0
 11 21  2  0  0  0  0
 11 12  1  0  0  0  0
 12 13  2  0  0  0  0
 13 14  1  0  0  0  0
 13 41  1  0  0  0  0
 14 20  2  0  0  0  0
 14 15  1  0  0  0  0
 15 16  2  0  0  0  0
 15 42  1  0  0  0  0
 16 17  1  0  0  0  0
 16 23  1  0  0  0  0
 17 18  2  0  0  0  0
 17 19  1  0  0  0  0
 19 20  1  0  0  0  0
 19 22  1  0  0  0  0
 20 21  1  0  0  0  0
 22 43  1  0  0  0  0
 22 44  1  0  0  0  0
 22 45  1  0  0  0  0
 23 28  2  0  0  0  0
 23 24  1  0  0  0  0
 24 25  2  0  0  0  0
 24 30  1  0  0  0  0
 25 26  1  0  0  0  0
 25 46  1  0  0  0  0
 26 27  2  0  0  0  0
 26 47  1  0  0  0  0
 27 28  1  0  0  0  0
 27 48  1  0  0  0  0
 28 29  1  0  0  0  0
M  END
$$$$
ZINC03815316
  -OEChem-08230709403D

 40 42  0     0  0  0  0  0  0999 V2000
    2.0685   -6.9288    0.9970 C   0  0  0  0  0  0  0  0  0  0  0  0
    3.2184   -6.3761    0.3533 O   0  0  0  0  0  0  0  0  0  0  0  0
    3.2806   -5.0211    0.2574 C   0  0  0  0  0  0  0  0  0  0  0  0
    4.3694   -4.4188   -0.3559 C   0  0  0  0  0  0  0  0  0  0  0  0
    4.4335   -3.0429   -0.4537 C   0  0  0  0  0  0  0  0  0  0  0  0
    3.4074   -2.2620    0.0621 C   0  0  0  0  0  0  0  0  0  0  0  0
    2.3202   -2.8655    0.6806 C   0  0  0  0  0  0  0  0  0  0  0  0
    2.2551   -4.2419    0.7724 C   0  0  0  0  0  0  0  0  0  0  0  0
    3.4717   -0.8670   -0.0362 N   0  0  0  0  0  0  0  0  0  0  0  0
    2.3130   -0.1313   -0.1813 C   0  0  0  0  0  0  0  0  0  0  0  0
    2.3441    1.2835   -0.1654 C   0  0  0  0  0  0  0  0  0  0  0  0
    3.5383    1.9963   -0.0027 C   0  0  0  0  0  0  0  0  0  0  0  0
    3.5150    3.3618    0.0060 C   0  0  0  0  0  0  0  0  0  0  0  0
    2.3079    4.0588   -0.1464 C   0  0  0  0  0  0  0  0  0  0  0  0
    1.1200    3.3812   -0.3075 C   0  0  0  0  0  0  0  0  0  0  0  0
    1.1206    1.9808   -0.3198 C   0  0  0  0  0  0  0  0  0  0  0  0
   -0.0098    1.2733   -0.4736 N   0  0  0  0  0  0  0  0  0  0  0  0
    0.0221   -0.0380   -0.4803 C   0  0  0  0  0  0  0  0  0  0  0  0
    1.1405   -0.7316   -0.3397 N   0  0  0  0  0  0  0  0  0  0  0  0
    2.3103    5.4173   -0.1344 O   0  0  0  0  0  0  0  0  0  0  0  0
    1.0490    6.0696   -0.2942 C   0  0  0  0  0  0  0  0  0  0  0  0
    4.6754    4.0532    0.1636 O   0  0  0  0  0  0  0  0  0  0  0  0
    5.8720    3.2866    0.3135 C   0  0  0  0  0  0  0  0  0  0  0  0
    1.1708   -6.6320    0.4548 H   0  0  0  0  0  0  0  0  0  0  0  0
    2.1447   -8.0161    1.0062 H   0  0  0  0  0  0  0  0  0  0  0  0
    2.0130   -6.5598    2.0212 H   0  0  0  0  0  0  0  0  0  0  0  0
    5.1675   -5.0262   -0.7566 H   0  0  0  0  0  0  0  0  0  0  0  0
    5.2811   -2.5742   -0.9314 H   0  0  0  0  0  0  0  0  0  0  0  0
    1.5238   -2.2588    1.0855 H   0  0  0  0  0  0  0  0  0  0  0  0
    1.4074   -4.7116    1.2491 H   0  0  0  0  0  0  0  0  0  0  0  0
    4.3306   -0.4175   -0.0023 H   0  0  0  0  0  0  0  0  0  0  0  0
    4.4732    1.4688    0.1157 H   0  0  0  0  0  0  0  0  0  0  0  0
    0.1946    3.9258   -0.4238 H   0  0  0  0  0  0  0  0  0  0  0  0
   -0.9059   -0.5759   -0.6066 H   0  0  0  0  0  0  0  0  0  0  0  0
    1.1925    7.1498   -0.2662 H   0  0  0  0  0  0  0  0  0  0  0  0
    0.6119    5.7859   -1.2516 H   0  0  0  0  0  0  0  0  0  0  0  0
    0.3805    5.7708    0.5132 H   0  0  0  0  0  0  0  0  0  0  0  0
    6.7219    3.9589    0.4304 H   0  0  0  0  0  0  0  0  0  0  0  0
    5.7880    2.6505    1.1947 H   0  0  0  0  0  0  0  0  0  0  0  0
    6.0188    2.6656   -0.5702 H   0  0  0  0  0  0  0  0  0  0  0  0
  1  2  1  0  0  0  0
  1 24  1  0  0  0  0
  1 25  1  0  0  0  0
  1 26  1  0  0  0  0
  2  3  1  0  0  0  0
  3  8  2  0  0  0  0
  3  4  1  0  0  0  0
  4  5  2  0  0  0  0
  4 27  1  0  0  0  0
  5  6  1  0  0  0  0
  5 28  1  0  0  0  0
  6  7  2  0  0  0  0
  6  9  1  0  0  0  0
  7  8  1  0  0  0  0
  7 29  1  0  0  0  0
  8 30  1  0  0  0  0
  9 10  1  0  0  0  0
  9 31  1  0  0  0  0
 10 19  2  0  0  0  0
 10 11  1  0  0  0  0
 11 16  2  0  0  0  0
 11 12  1  0  0  0  0
 12 13  2  0  0  0  0
 12 32  1  0  0  0  0
 13 14  1  0  0  0  0
 13 22  1  0  0  0  0
 14 15  2  0  0  0  0
 14 20  1  0  0  0  0
 15 16  1  0  0  0  0
 15 33  1  0  0  0  0
 16 17  1  0  0  0  0
 17 18  2  0  0  0  0
 18 19  1  0  0  0  0
 18 34  1  0  0  0  0
 20 21  1  0  0  0  0
 21 35  1  0  0  0  0
 21 36  1  0  0  0  0
 21 37  1  0  0  0  0
 22 23  1  0  0  0  0
 23 38  1  0  0  0  0
 23 39  1  0  0  0  0
 23 40  1  0  0  0  0
M  END
$$$$
ZINC03815317
  -OEChem-08230709403D

 30 32  0     0  0  0  0  0  0999 V2000
   -5.9938    1.3926   -0.2463 C   0  0  0  0  0  0  0  0  0  0  0  0
   -4.9017    0.8867    0.4346 C   0  0  0  0  0  0  0  0  0  0  0  0
   -3.7421    1.6302    0.5329 C   0  0  0  0  0  0  0  0  0  0  0  0
   -3.6735    2.8877   -0.0533 C   0  0  0  0  0  0  0  0  0  0  0  0
   -4.7741    3.3952   -0.7320 C   0  0  0  0  0  0  0  0  0  0  0  0
   -5.9290    2.6443   -0.8306 C   0  0  0  0  0  0  0  0  0  0  0  0
   -2.5014    3.6432    0.0446 N   0  0  0  0  0  0  0  0  0  0  0  0
   -1.2741    3.0157    0.0346 C   0  0  0  0  0  0  0  0  0  0  0  0
   -0.0824    3.7449    0.2537 C   0  0  0  0  0  0  0  0  0  0  0  0
   -0.0716    5.1218    0.4896 C   0  0  0  0  0  0  0  0  0  0  0  0
    2.2413    5.1180    0.6724 C   0  0  0  0  0  0  0  0  0  0  0  0
    2.3300    3.7565    0.4465 C   0  0  0  0  0  0  0  0  0  0  0  0
    1.1490    3.0374    0.2301 C   0  0  0  0  0  0  0  0  0  0  0  0
    1.1331    1.7181    0.0028 N   0  0  0  0  0  0  0  0  0  0  0  0
   -0.0055    1.0937   -0.1945 C   0  0  0  0  0  0  0  0  0  0  0  0
   -1.1761    1.7100   -0.1870 N   0  0  0  0  0  0  0  0  0  0  0  0
    3.4037    5.8466    0.8889 N   0  0  0  0  0  0  0  0  0  0  0  0
   -6.8994    0.8091   -0.3217 H   0  0  0  0  0  0  0  0  0  0  0  0
   -4.9556   -0.0912    0.8898 H   0  0  0  0  0  0  0  0  0  0  0  0
   -2.8897    1.2346    1.0651 H   0  0  0  0  0  0  0  0  0  0  0  0
   -4.7254    4.3742   -1.1854 H   0  0  0  0  0  0  0  0  0  0  0  0
   -6.7838    3.0367   -1.3614 H   0  0  0  0  0  0  0  0  0  0  0  0
   -2.5518    4.6090    0.1197 H   0  0  0  0  0  0  0  0  0  0  0  0
   -1.0000    5.6733    0.5101 H   0  0  0  0  0  0  0  0  0  0  0  0
    3.2887    3.2595    0.4377 H   0  0  0  0  0  0  0  0  0  0  0  0
    0.0153    0.0292   -0.3757 H   0  0  0  0  0  0  0  0  0  0  0  0
    4.2647    5.3999    0.8807 H   0  0  0  0  0  0  0  0  0  0  0  0
    3.3545    6.8021    1.0485 H   0  0  0  0  0  0  0  0  0  0  0  0
    1.0668    5.8307    0.7010 N   0  3  0  0  0  0  0  0  0  0  0  0
    1.0510    6.8429    0.8726 H   0  0  0  0  0  0  0  0  0  0  0  0
  1  6  2  0  0  0  0
  1  2  1  0  0  0  0
  1 18  1  0  0  0  0
  2  3  2  0  0  0  0
  2 19  1  0  0  0  0
  3  4  1  0  0  0  0
  3 20  1  0  0  0  0
  4  5  2  0  0  0  0
  4  7  1  0  0  0  0
  5  6  1  0  0  0  0
  5 21  1  0  0  0  0
  6 22  1  0  0  0  0
  7  8  1  0  0  0  0
  7 23  1  0  0  0  0
  8 16  2  0  0  0  0
  8  9  1  0  0  0  0
  9 13  2  0  0  0  0
  9 10  1  0  0  0  0
 10 24  1  0  0  0  0
 10 29  2  0  0  0  0
 11 12  2  0  0  0  0
 11 17  1  0  0  0  0
 11 29  1  0  0  0  0
 12 13  1  0  0  0  0
 12 25  1  0  0  0  0
 13 14  1  0  0  0  0
 14 15  2  0  0  0  0
 15 16  1  0  0  0  0
 15 26  1  0  0  0  0
 17 27  1  0  0  0  0
 17 28  1  0  0  0  0
 29 30  1  0  0  0  0
M  CHG  1  29   1
M  END
$$$$
ZINC03815319
  -OEChem-08230709403D

 30 32  0     0  0  0  0  0  0999 V2000
    2.1574    5.6966    0.3936 C   0  0  0  0  0  0  0  0  0  0  0  0
    2.2600    4.3225    0.4908 C   0  0  0  0  0  0  0  0  0  0  0  0
    3.3216    3.6622   -0.1143 C   0  0  0  0  0  0  0  0  0  0  0  0
    4.2802    4.3870   -0.8109 C   0  0  0  0  0  0  0  0  0  0  0  0
    4.1692    5.7605   -0.9086 C   0  0  0  0  0  0  0  0  0  0  0  0
    3.1101    6.4149   -0.3048 C   0  0  0  0  0  0  0  0  0  0  0  0
    5.6102    6.8545   -1.9649 I   0  0  0  0  0  0  0  0  0  0  0  0
    3.4281    2.2717   -0.0177 N   0  0  0  0  0  0  0  0  0  0  0  0
    2.2914    1.4919   -0.0147 C   0  0  0  0  0  0  0  0  0  0  0  0
    2.3670    0.0967    0.2031 C   0  0  0  0  0  0  0  0  0  0  0  0
    3.5749   -0.5692    0.4248 C   0  0  0  0  0  0  0  0  0  0  0  0
    2.4712   -2.6006    0.6199 C   0  0  0  0  0  0  0  0  0  0  0  0
    1.2295   -2.0295    0.4091 C   0  0  0  0  0  0  0  0  0  0  0  0
    1.1577   -0.6485    0.1939 C   0  0  0  0  0  0  0  0  0  0  0  0
    0.0030   -0.0055   -0.0193 N   0  0  0  0  0  0  0  0  0  0  0  0
   -0.0056    1.2931   -0.2163 C   0  0  0  0  0  0  0  0  0  0  0  0
    1.0938    2.0291   -0.2168 N   0  0  0  0  0  0  0  0  0  0  0  0
    2.5601   -3.9700    0.8345 N   0  0  0  0  0  0  0  0  0  0  0  0
    1.3321    6.2104    0.8640 H   0  0  0  0  0  0  0  0  0  0  0  0
    1.5154    3.7622    1.0366 H   0  0  0  0  0  0  0  0  0  0  0  0
    5.1093    3.8770   -1.2789 H   0  0  0  0  0  0  0  0  0  0  0  0
    3.0276    7.4892   -0.3790 H   0  0  0  0  0  0  0  0  0  0  0  0
    4.3019    1.8556    0.0473 H   0  0  0  0  0  0  0  0  0  0  0  0
    4.5024   -0.0161    0.4343 H   0  0  0  0  0  0  0  0  0  0  0  0
    0.3354   -2.6354    0.4109 H   0  0  0  0  0  0  0  0  0  0  0  0
   -0.9529    1.7817   -0.3901 H   0  0  0  0  0  0  0  0  0  0  0  0
    1.7570   -4.5139    0.8355 H   0  0  0  0  0  0  0  0  0  0  0  0
    3.4254   -4.3823    0.9836 H   0  0  0  0  0  0  0  0  0  0  0  0
    3.6578   -1.9079    0.6348 N   0  3  0  0  0  0  0  0  0  0  0  0
    4.5570   -2.3766    0.7957 H   0  0  0  0  0  0  0  0  0  0  0  0
  1  6  2  0  0  0  0
  1  2  1  0  0  0  0
  1 19  1  0  0  0  0
  2  3  2  0  0  0  0
  2 20  1  0  0  0  0
  3  4  1  0  0  0  0
  3  8  1  0  0  0  0
  4  5  2  0  0  0  0
  4 21  1  0  0  0  0
  5  6  1  0  0  0  0
  5  7  1  0  0  0  0
  6 22  1  0  0  0  0
  8  9  1  0  0  0  0
  8 23  1  0  0  0  0
  9 17  2  0  0  0  0
  9 10  1  0  0  0  0
 10 14  2  0  0  0  0
 10 11  1  0  0  0  0
 11 24  1  0  0  0  0
 11 29  2  0  0  0  0
 12 13  2  0  0  0  0
 12 18  1  0  0  0  0
 12 29  1  0  0  0  0
 13 14  1  0  0  0  0
 13 25  1  0  0  0  0
 14 15  1  0  0  0  0
 15 16  2  0  0  0  0
 16 17  1  0  0  0  0
 16 26  1  0  0  0  0
 18 27  1  0  0  0  0
 18 28  1  0  0  0  0
 29 30  1  0  0  0  0
M  CHG  1  29   1
M  END
$$$$
ZINC03815320
  -OEChem-08230709403D

 31 33  0     0  0  0  0  0  0999 V2000
    1.5291    6.0422    0.3616 C   0  0  0  0  0  0  0  0  0  0  0  0
    0.2321    5.4668    0.1919 O   0  0  0  0  0  0  0  0  0  0  0  0
    0.1558    4.1140    0.1824 C   0  0  0  0  0  0  0  0  0  0  0  0
   -1.0913    3.5026    0.0188 C   0  0  0  0  0  0  0  0  0  0  0  0
   -1.1827    2.1396    0.0024 C   0  0  0  0  0  0  0  0  0  0  0  0
   -0.0034    1.3961    0.1623 C   0  0  0  0  0  0  0  0  0  0  0  0
    1.2299    2.0737    0.3236 C   0  0  0  0  0  0  0  0  0  0  0  0
    1.2591    3.4068    0.3270 N   0  0  0  0  0  0  0  0  0  0  0  0
    2.3452    1.3437    0.4699 N   0  0  0  0  0  0  0  0  0  0  0  0
    2.2906    0.0321    0.4622 C   0  0  0  0  0  0  0  0  0  0  0  0
    1.1626   -0.6413    0.3146 N   0  0  0  0  0  0  0  0  0  0  0  0
    0.0001   -0.0172    0.1626 C   0  0  0  0  0  0  0  0  0  0  0  0
   -1.1714   -0.7287    0.0088 N   0  0  0  0  0  0  0  0  0  0  0  0
   -1.1335   -2.1214   -0.1045 C   0  0  0  0  0  0  0  0  0  0  0  0
   -2.1744   -2.8896    0.4020 C   0  0  0  0  0  0  0  0  0  0  0  0
   -2.1344   -4.2652    0.2887 C   0  0  0  0  0  0  0  0  0  0  0  0
   -1.0596   -4.8790   -0.3282 C   0  0  0  0  0  0  0  0  0  0  0  0
   -0.0213   -4.1173   -0.8343 C   0  0  0  0  0  0  0  0  0  0  0  0
   -0.0580   -2.7397   -0.7287 C   0  0  0  0  0  0  0  0  0  0  0  0
    1.4458   -4.9613   -1.6776 Br  0  0  0  0  0  0  0  0  0  0  0  0
    1.9485    5.7184    1.3141 H   0  0  0  0  0  0  0  0  0  0  0  0
    2.1795    5.7179   -0.4508 H   0  0  0  0  0  0  0  0  0  0  0  0
    1.4486    7.1291    0.3507 H   0  0  0  0  0  0  0  0  0  0  0  0
   -1.9792    4.1063   -0.0983 H   0  0  0  0  0  0  0  0  0  0  0  0
   -2.1358    1.6484   -0.1269 H   0  0  0  0  0  0  0  0  0  0  0  0
    3.2096   -0.5224    0.5824 H   0  0  0  0  0  0  0  0  0  0  0  0
   -2.0216   -0.2626   -0.0207 H   0  0  0  0  0  0  0  0  0  0  0  0
   -3.0141   -2.4113    0.8843 H   0  0  0  0  0  0  0  0  0  0  0  0
   -2.9436   -4.8626    0.6821 H   0  0  0  0  0  0  0  0  0  0  0  0
   -1.0308   -5.9551   -0.4155 H   0  0  0  0  0  0  0  0  0  0  0  0
    0.7505   -2.1450   -1.1275 H   0  0  0  0  0  0  0  0  0  0  0  0
  1  2  1  0  0  0  0
  1 21  1  0  0  0  0
  1 22  1  0  0  0  0
  1 23  1  0  0  0  0
  2  3  1  0  0  0  0
  3  8  2  0  0  0  0
  3  4  1  0  0  0  0
  4  5  2  0  0  0  0
  4 24  1  0  0  0  0
  5  6  1  0  0  0  0
  5 25  1  0  0  0  0
  6 12  2  0  0  0  0
  6  7  1  0  0  0  0
  7  8  1  0  0  0  0
  7  9  2  0  0  0  0
  9 10  1  0  0  0  0
 10 11  2  0  0  0  0
 10 26  1  0  0  0  0
 11 12  1  0  0  0  0
 12 13  1  0  0  0  0
 13 14  1  0  0  0  0
 13 27  1  0  0  0  0
 14 19  2  0  0  0  0
 14 15  1  0  0  0  0
 15 16  2  0  0  0  0
 15 28  1  0  0  0  0
 16 17  1  0  0  0  0
 16 29  1  0  0  0  0
 17 18  2  0  0  0  0
 17 30  1  0  0  0  0
 18 19  1  0  0  0  0
 18 20  1  0  0  0  0
 19 31  1  0  0  0  0
M  END
$$$$
ZINC03815321
  -OEChem-08230709403D

 34 37  0     0  0  0  0  0  0999 V2000
    3.6567    7.7573   -0.3047 C   0  0  0  0  0  0  0  0  0  0  0  0
    4.1861    7.0304    0.7460 C   0  0  0  0  0  0  0  0  0  0  0  0
    3.9323    5.6769    0.8484 C   0  0  0  0  0  0  0  0  0  0  0  0
    3.1446    5.0453   -0.1060 C   0  0  0  0  0  0  0  0  0  0  0  0
    2.6191    5.7775   -1.1634 C   0  0  0  0  0  0  0  0  0  0  0  0
    2.8722    7.1319   -1.2564 C   0  0  0  0  0  0  0  0  0  0  0  0
    2.8862    3.6761   -0.0058 N   0  0  0  0  0  0  0  0  0  0  0  0
    1.6057    3.1869   -0.2660 C   0  0  0  0  0  0  0  0  0  0  0  0
    0.5523    4.0648   -0.4691 C   0  0  0  0  0  0  0  0  0  0  0  0
   -0.7180    3.5789   -0.7281 C   0  0  0  0  0  0  0  0  0  0  0  0
   -0.9538    2.2212   -0.7821 C   0  0  0  0  0  0  0  0  0  0  0  0
    0.0899    1.3210   -0.5861 C   0  0  0  0  0  0  0  0  0  0  0  0
    1.3780    1.8079   -0.3239 C   0  0  0  0  0  0  0  0  0  0  0  0
    2.2466    0.6288   -0.1601 C   0  0  0  0  0  0  0  0  0  0  0  0
    3.6038    0.4673    0.1103 C   0  0  0  0  0  0  0  0  0  0  0  0
    4.1368   -0.8000    0.2066 C   0  0  0  0  0  0  0  0  0  0  0  0
    3.3278   -1.9129    0.0354 C   0  0  0  0  0  0  0  0  0  0  0  0
    1.9837   -1.7676   -0.2330 C   0  0  0  0  0  0  0  0  0  0  0  0
    1.4270   -0.4964   -0.3339 C   0  0  0  0  0  0  0  0  0  0  0  0
    0.1381   -0.0616   -0.5883 N   0  0  0  0  0  0  0  0  0  0  0  0
   -0.6223   -0.6429   -0.7457 H   0  0  0  0  0  0  0  0  0  0  0  0
    3.8568    8.8158   -0.3823 H   0  0  0  0  0  0  0  0  0  0  0  0
    4.7983    7.5220    1.4876 H   0  0  0  0  0  0  0  0  0  0  0  0
    4.3460    5.1098    1.6692 H   0  0  0  0  0  0  0  0  0  0  0  0
    2.0101    5.2888   -1.9095 H   0  0  0  0  0  0  0  0  0  0  0  0
    2.4607    7.7024   -2.0759 H   0  0  0  0  0  0  0  0  0  0  0  0
    3.5970    3.0654    0.2446 H   0  0  0  0  0  0  0  0  0  0  0  0
    0.7229    5.1304   -0.4254 H   0  0  0  0  0  0  0  0  0  0  0  0
   -1.5331    4.2699   -0.8855 H   0  0  0  0  0  0  0  0  0  0  0  0
   -1.9503    1.8552   -0.9807 H   0  0  0  0  0  0  0  0  0  0  0  0
    4.2362    1.3326    0.2437 H   0  0  0  0  0  0  0  0  0  0  0  0
    5.1888   -0.9267    0.4158 H   0  0  0  0  0  0  0  0  0  0  0  0
    3.7545   -2.9020    0.1127 H   0  0  0  0  0  0  0  0  0  0  0  0
    1.3623   -2.6410   -0.3653 H   0  0  0  0  0  0  0  0  0  0  0  0
  1  6  2  0  0  0  0
  1  2  1  0  0  0  0
  1 22  1  0  0  0  0
  2  3  2  0  0  0  0
  2 23  1  0  0  0  0
  3  4  1  0  0  0  0
  3 24  1  0  0  0  0
  4  5  2  0  0  0  0
  4  7  1  0  0  0  0
  5  6  1  0  0  0  0
  5 25  1  0  0  0  0
  6 26  1  0  0  0  0
  7  8  1  0  0  0  0
  7 27  1  0  0  0  0
  8 13  2  0  0  0  0
  8  9  1  0  0  0  0
  9 10  2  0  0  0  0
  9 28  1  0  0  0  0
 10 11  1  0  0  0  0
 10 29  1  0  0  0  0
 11 12  2  0  0  0  0
 11 30  1  0  0  0  0
 12 20  1  0  0  0  0
 12 13  1  0  0  0  0
 13 14  1  0  0  0  0
 14 19  2  0  0  0  0
 14 15  1  0  0  0  0
 15 16  2  0  0  0  0
 15 31  1  0  0  0  0
 16 17  1  0  0  0  0
 16 32  1  0  0  0  0
 17 18  2  0  0  0  0
 17 33  1  0  0  0  0
 18 19  1  0  0  0  0
 18 34  1  0  0  0  0
 19 20  1  0  0  0  0
 20 21  1  0  0  0  0
M  END
$$$$
ZINC03815322
  -OEChem-08230709403D

 31 34  0     0  0  0  0  0  0999 V2000
    5.9477    2.8130   -0.3308 C   0  0  0  0  0  0  0  0  0  0  0  0
    4.7694    3.5281   -0.4213 C   0  0  0  0  0  0  0  0  0  0  0  0
    3.5931    2.9936    0.0885 C   0  0  0  0  0  0  0  0  0  0  0  0
    3.6067    1.7431    0.6933 C   0  0  0  0  0  0  0  0  0  0  0  0
    4.7876    1.0305    0.7761 C   0  0  0  0  0  0  0  0  0  0  0  0
    5.9577    1.5665    0.2669 C   0  0  0  0  0  0  0  0  0  0  0  0
    4.8068   -0.6747    1.5932 Br  0  0  0  0  0  0  0  0  0  0  0  0
    2.3992    3.7150   -0.0018 N   0  0  0  0  0  0  0  0  0  0  0  0
    1.1995    3.0482   -0.1541 C   0  0  0  0  0  0  0  0  0  0  0  0
   -0.0279    3.7498   -0.1305 C   0  0  0  0  0  0  0  0  0  0  0  0
   -0.0822    5.1423    0.0471 C   0  0  0  0  0  0  0  0  0  0  0  0
   -1.2773    5.7839    0.0644 C   0  0  0  0  0  0  0  0  0  0  0  0
   -2.4809    5.0698   -0.0949 C   0  0  0  0  0  0  0  0  0  0  0  0
   -2.4554    3.6835   -0.2733 C   0  0  0  0  0  0  0  0  0  0  0  0
   -1.2224    3.0088   -0.2927 C   0  0  0  0  0  0  0  0  0  0  0  0
   -1.1403    1.6827   -0.4657 N   0  0  0  0  0  0  0  0  0  0  0  0
    0.0268    1.0824   -0.4744 C   0  0  0  0  0  0  0  0  0  0  0  0
    1.1692    1.7330   -0.3269 N   0  0  0  0  0  0  0  0  0  0  0  0
   -3.7687    3.2866   -0.3970 N   0  0  0  0  0  0  0  0  0  0  0  0
   -4.0946    2.3515   -0.5363 H   0  0  0  0  0  0  0  0  0  0  0  0
   -4.5386    4.4003   -0.2948 C   0  0  0  0  0  0  0  0  0  0  0  0
   -3.7839    5.4464   -0.1176 N   0  0  0  0  0  0  0  0  0  0  0  0
    6.8625    3.2284   -0.7271 H   0  0  0  0  0  0  0  0  0  0  0  0
    4.7627    4.5018   -0.8884 H   0  0  0  0  0  0  0  0  0  0  0  0
    2.6946    1.3267    1.0946 H   0  0  0  0  0  0  0  0  0  0  0  0
    6.8806    1.0098    0.3370 H   0  0  0  0  0  0  0  0  0  0  0  0
    2.4134    4.6838    0.0426 H   0  0  0  0  0  0  0  0  0  0  0  0
    0.8317    5.7045    0.1706 H   0  0  0  0  0  0  0  0  0  0  0  0
   -1.3062    6.8547    0.2017 H   0  0  0  0  0  0  0  0  0  0  0  0
    0.0561    0.0117   -0.6125 H   0  0  0  0  0  0  0  0  0  0  0  0
   -5.6170    4.4161   -0.3520 H   0  0  0  0  0  0  0  0  0  0  0  0
  1  6  2  0  0  0  0
  1  2  1  0  0  0  0
  1 23  1  0  0  0  0
  2  3  2  0  0  0  0
  2 24  1  0  0  0  0
  3  4  1  0  0  0  0
  3  8  1  0  0  0  0
  4  5  2  0  0  0  0
  4 25  1  0  0  0  0
  5  6  1  0  0  0  0
  5  7  1  0  0  0  0
  6 26  1  0  0  0  0
  8  9  1  0  0  0  0
  8 27  1  0  0  0  0
  9 18  2  0  0  0  0
  9 10  1  0  0  0  0
 10 15  2  0  0  0  0
 10 11  1  0  0  0  0
 11 12  2  0  0  0  0
 11 28  1  0  0  0  0
 12 13  1  0  0  0  0
 12 29  1  0  0  0  0
 13 22  1  0  0  0  0
 13 14  2  0  0  0  0
 14 15  1  0  0  0  0
 14 19  1  0  0  0  0
 15 16  1  0  0  0  0
 16 17  2  0  0  0  0
 17 18  1  0  0  0  0
 17 30  1  0  0  0  0
 19 20  1  0  0  0  0
 19 21  1  0  0  0  0
 21 22  2  0  0  0  0
 21 31  1  0  0  0  0
M  END
$$$$
ZINC03815322
  -OEChem-08230709403D

 31 34  0     0  0  0  0  0  0999 V2000
    5.9477    2.8130   -0.3308 C   0  0  0  0  0  0  0  0  0  0  0  0
    4.7694    3.5281   -0.4213 C   0  0  0  0  0  0  0  0  0  0  0  0
    3.5931    2.9936    0.0885 C   0  0  0  0  0  0  0  0  0  0  0  0
    3.6067    1.7431    0.6933 C   0  0  0  0  0  0  0  0  0  0  0  0
    4.7876    1.0305    0.7761 C   0  0  0  0  0  0  0  0  0  0  0  0
    5.9577    1.5665    0.2669 C   0  0  0  0  0  0  0  0  0  0  0  0
    4.8068   -0.6747    1.5932 Br  0  0  0  0  0  0  0  0  0  0  0  0
    2.3992    3.7150   -0.0018 N   0  0  0  0  0  0  0  0  0  0  0  0
    1.1995    3.0482   -0.1541 C   0  0  0  0  0  0  0  0  0  0  0  0
   -0.0279    3.7498   -0.1305 C   0  0  0  0  0  0  0  0  0  0  0  0
   -0.0822    5.1423    0.0471 C   0  0  0  0  0  0  0  0  0  0  0  0
   -1.2773    5.7839    0.0644 C   0  0  0  0  0  0  0  0  0  0  0  0
   -2.4809    5.0698   -0.0949 C   0  0  0  0  0  0  0  0  0  0  0  0
   -2.4554    3.6835   -0.2733 C   0  0  0  0  0  0  0  0  0  0  0  0
   -1.2224    3.0088   -0.2927 C   0  0  0  0  0  0  0  0  0  0  0  0
   -1.1403    1.6827   -0.4657 N   0  0  0  0  0  0  0  0  0  0  0  0
    0.0268    1.0824   -0.4744 C   0  0  0  0  0  0  0  0  0  0  0  0
    1.1692    1.7330   -0.3269 N   0  0  0  0  0  0  0  0  0  0  0  0
   -3.7687    3.2866   -0.3970 N   0  0  0  0  0  0  0  0  0  0  0  0
   -4.0946    2.3515   -0.5363 H   0  0  0  0  0  0  0  0  0  0  0  0
   -4.5386    4.4003   -0.2948 C   0  0  0  0  0  0  0  0  0  0  0  0
   -3.7839    5.4464   -0.1176 N   0  0  0  0  0  0  0  0  0  0  0  0
    6.8625    3.2284   -0.7271 H   0  0  0  0  0  0  0  0  0  0  0  0
    4.7627    4.5018   -0.8884 H   0  0  0  0  0  0  0  0  0  0  0  0
    2.6946    1.3267    1.0946 H   0  0  0  0  0  0  0  0  0  0  0  0
    6.8806    1.0098    0.3370 H   0  0  0  0  0  0  0  0  0  0  0  0
    2.4134    4.6838    0.0426 H   0  0  0  0  0  0  0  0  0  0  0  0
    0.8317    5.7045    0.1706 H   0  0  0  0  0  0  0  0  0  0  0  0
   -1.3062    6.8547    0.2017 H   0  0  0  0  0  0  0  0  0  0  0  0
    0.0561    0.0117   -0.6125 H   0  0  0  0  0  0  0  0  0  0  0  0
   -5.6170    4.4161   -0.3520 H   0  0  0  0  0  0  0  0  0  0  0  0
  1  6  2  0  0  0  0
  1  2  1  0  0  0  0
  1 23  1  0  0  0  0
  2  3  2  0  0  0  0
  2 24  1  0  0  0  0
  3  4  1  0  0  0  0
  3  8  1  0  0  0  0
  4  5  2  0  0  0  0
  4 25  1  0  0  0  0
  5  6  1  0  0  0  0
  5  7  1  0  0  0  0
  6 26  1  0  0  0  0
  8  9  1  0  0  0  0
  8 27  1  0  0  0  0
  9 18  2  0  0  0  0
  9 10  1  0  0  0  0
 10 15  2  0  0  0  0
 10 11  1  0  0  0  0
 11 12  2  0  0  0  0
 11 28  1  0  0  0  0
 12 13  1  0  0  0  0
 12 29  1  0  0  0  0
 13 22  1  0  0  0  0
 13 14  2  0  0  0  0
 14 15  1  0  0  0  0
 14 19  1  0  0  0  0
 15 16  1  0  0  0  0
 16 17  2  0  0  0  0
 17 18  1  0  0  0  0
 17 30  1  0  0  0  0
 19 20  1  0  0  0  0
 19 21  1  0  0  0  0
 21 22  2  0  0  0  0
 21 31  1  0  0  0  0
M  END
$$$$
ZINC03815322
  -OEChem-08230709403D

 32 35  0     0  0  0  0  0  0999 V2000
    5.9477    2.8130   -0.3308 C   0  0  0  0  0  0  0  0  0  0  0  0
    4.7694    3.5281   -0.4213 C   0  0  0  0  0  0  0  0  0  0  0  0
    3.5931    2.9936    0.0885 C   0  0  0  0  0  0  0  0  0  0  0  0
    3.6067    1.7431    0.6933 C   0  0  0  0  0  0  0  0  0  0  0  0
    4.7876    1.0305    0.7761 C   0  0  0  0  0  0  0  0  0  0  0  0
    5.9577    1.5665    0.2669 C   0  0  0  0  0  0  0  0  0  0  0  0
    4.8068   -0.6747    1.5932 Br  0  0  0  0  0  0  0  0  0  0  0  0
    2.3992    3.7150   -0.0018 N   0  0  0  0  0  0  0  0  0  0  0  0
    1.1995    3.0482   -0.1541 C   0  0  0  0  0  0  0  0  0  0  0  0
   -0.0279    3.7498   -0.1305 C   0  0  0  0  0  0  0  0  0  0  0  0
   -0.0822    5.1423    0.0471 C   0  0  0  0  0  0  0  0  0  0  0  0
   -1.2773    5.7839    0.0644 C   0  0  0  0  0  0  0  0  0  0  0  0
   -2.4809    5.0698   -0.0949 C   0  0  0  0  0  0  0  0  0  0  0  0
   -2.4554    3.6835   -0.2733 C   0  0  0  0  0  0  0  0  0  0  0  0
   -1.2224    3.0088   -0.2927 C   0  0  0  0  0  0  0  0  0  0  0  0
   -1.1403    1.6827   -0.4657 N   0  0  0  0  0  0  0  0  0  0  0  0
    0.0268    1.0824   -0.4744 C   0  0  0  0  0  0  0  0  0  0  0  0
    1.1692    1.7330   -0.3269 N   0  0  0  0  0  0  0  0  0  0  0  0
   -3.7687    3.2866   -0.3970 N   0  0  0  0  0  0  0  0  0  0  0  0
   -4.0946    2.3515   -0.5363 H   0  0  0  0  0  0  0  0  0  0  0  0
   -4.5386    4.4003   -0.2948 C   0  0  0  0  0  0  0  0  0  0  0  0
    6.8625    3.2284   -0.7271 H   0  0  0  0  0  0  0  0  0  0  0  0
    4.7627    4.5018   -0.8884 H   0  0  0  0  0  0  0  0  0  0  0  0
    2.6946    1.3267    1.0946 H   0  0  0  0  0  0  0  0  0  0  0  0
    6.8806    1.0098    0.3370 H   0  0  0  0  0  0  0  0  0  0  0  0
    2.4134    4.6838    0.0426 H   0  0  0  0  0  0  0  0  0  0  0  0
    0.8317    5.7045    0.1706 H   0  0  0  0  0  0  0  0  0  0  0  0
   -1.3062    6.8547    0.2017 H   0  0  0  0  0  0  0  0  0  0  0  0
    0.0561    0.0117   -0.6125 H   0  0  0  0  0  0  0  0  0  0  0  0
   -5.6170    4.4161   -0.3520 H   0  0  0  0  0  0  0  0  0  0  0  0
   -3.7842    5.4474   -0.1175 N   0  3  0  0  0  0  0  0  0  0  0  0
   -4.1236    6.4105   -0.0112 H   0  0  0  0  0  0  0  0  0  0  0  0
  1  6  2  0  0  0  0
  1  2  1  0  0  0  0
  1 22  1  0  0  0  0
  2  3  2  0  0  0  0
  2 23  1  0  0  0  0
  3  4  1  0  0  0  0
  3  8  1  0  0  0  0
  4  5  2  0  0  0  0
  4 24  1  0  0  0  0
  5  6  1  0  0  0  0
  5  7  1  0  0  0  0
  6 25  1  0  0  0  0
  8  9  1  0  0  0  0
  8 26  1  0  0  0  0
  9 18  2  0  0  0  0
  9 10  1  0  0  0  0
 10 15  2  0  0  0  0
 10 11  1  0  0  0  0
 11 12  2  0  0  0  0
 11 27  1  0  0  0  0
 12 13  1  0  0  0  0
 12 28  1  0  0  0  0
 13 14  2  0  0  0  0
 13 31  1  0  0  0  0
 14 15  1  0  0  0  0
 14 19  1  0  0  0  0
 15 16  1  0  0  0  0
 16 17  2  0  0  0  0
 17 18  1  0  0  0  0
 17 29  1  0  0  0  0
 19 20  1  0  0  0  0
 19 21  1  0  0  0  0
 21 30  1  0  0  0  0
 21 31  2  0  0  0  0
 31 32  1  0  0  0  0
M  CHG  1  31   1
M  END
$$$$
ZINC03815323
  -OEChem-08230709403D

 53 56  0     0  0  0  0  0  0999 V2000
    5.5524    4.9236   -1.7521 C   0  0  0  0  0  0  0  0  0  0  0  0
    4.1411    5.1416   -1.8066 O   0  0  0  0  0  0  0  0  0  0  0  0
    3.3775    4.4674   -0.9071 C   0  0  0  0  0  0  0  0  0  0  0  0
    3.9760    3.6131    0.0094 C   0  0  0  0  0  0  0  0  0  0  0  0
    3.2035    2.9245    0.9257 C   0  0  0  0  0  0  0  0  0  0  0  0
    1.8321    3.0823    0.9352 C   0  0  0  0  0  0  0  0  0  0  0  0
    1.2230    3.9385    0.0187 C   0  0  0  0  0  0  0  0  0  0  0  0
    2.0021    4.6284   -0.9082 C   0  0  0  0  0  0  0  0  0  0  0  0
   -0.2494    4.1097    0.0263 C   0  0  0  0  0  0  0  0  0  0  0  0
   -0.9291    5.2829    0.0364 C   0  0  0  0  0  0  0  0  0  0  0  0
   -2.2759    5.0342    0.0416 N   0  0  0  0  0  0  0  0  0  0  0  0
   -2.5086    3.6829    0.0349 C   0  0  0  0  0  0  0  0  0  0  0  0
   -1.2577    3.0416    0.0304 C   0  0  0  0  0  0  0  0  0  0  0  0
   -1.2185    1.6412    0.0167 C   0  0  0  0  0  0  0  0  0  0  0  0
   -2.3712    0.9770    0.0186 N   0  0  0  0  0  0  0  0  0  0  0  0
   -3.5254    1.6185    0.0280 C   0  0  0  0  0  0  0  0  0  0  0  0
   -3.6085    2.9315    0.0360 N   0  0  0  0  0  0  0  0  0  0  0  0
   -0.0111    0.9658    0.0074 N   0  0  0  0  0  0  0  0  0  0  0  0
   -3.2724    6.0187    0.0530 C   0  0  0  0  0  0  0  0  0  0  0  0
   -4.3122    5.9667   -0.8659 C   0  0  0  0  0  0  0  0  0  0  0  0
   -5.2955    6.9365   -0.8493 C   0  0  0  0  0  0  0  0  0  0  0  0
   -5.2401    7.9637    0.0748 C   0  0  0  0  0  0  0  0  0  0  0  0
   -4.2031    8.0211    0.9877 C   0  0  0  0  0  0  0  0  0  0  0  0
   -3.2193    7.0517    0.9794 C   0  0  0  0  0  0  0  0  0  0  0  0
   -6.3118    9.0231    0.0866 C   0  0  0  0  0  0  0  0  0  0  0  0
   -6.9422   11.1809   -0.8128 C   0  0  0  0  0  0  0  0  0  0  0  0
   -6.4985   12.3107   -1.7442 C   0  0  0  0  0  0  0  0  0  0  0  0
   -6.4379   11.8252   -3.0868 O   0  0  0  0  0  0  0  0  0  0  0  0
    5.9276    5.2165   -0.7715 H   0  0  0  0  0  0  0  0  0  0  0  0
    5.7637    3.8678   -1.9215 H   0  0  0  0  0  0  0  0  0  0  0  0
    6.0422    5.5203   -2.5216 H   0  0  0  0  0  0  0  0  0  0  0  0
    5.0485    3.4861    0.0061 H   0  0  0  0  0  0  0  0  0  0  0  0
    3.6741    2.2607    1.6359 H   0  0  0  0  0  0  0  0  0  0  0  0
    1.2313    2.5426    1.6522 H   0  0  0  0  0  0  0  0  0  0  0  0
    1.5348    5.2894   -1.6232 H   0  0  0  0  0  0  0  0  0  0  0  0
   -0.4774    6.2639    0.0402 H   0  0  0  0  0  0  0  0  0  0  0  0
   -4.4385    1.0417    0.0288 H   0  0  0  0  0  0  0  0  0  0  0  0
    0.0021   -0.0041    0.0020 H   0  0  0  0  0  0  0  0  0  0  0  0
    0.8223    1.4622    0.0021 H   0  0  0  0  0  0  0  0  0  0  0  0
   -4.3538    5.1670   -1.5905 H   0  0  0  0  0  0  0  0  0  0  0  0
   -6.1067    6.8944   -1.5611 H   0  0  0  0  0  0  0  0  0  0  0  0
   -4.1621    8.8250    1.7078 H   0  0  0  0  0  0  0  0  0  0  0  0
   -2.4095    7.0972    1.6924 H   0  0  0  0  0  0  0  0  0  0  0  0
   -7.2509    8.5938   -0.2625 H   0  0  0  0  0  0  0  0  0  0  0  0
   -6.4395    9.3994    1.1016 H   0  0  0  0  0  0  0  0  0  0  0  0
   -7.8857   10.7666   -1.1681 H   0  0  0  0  0  0  0  0  0  0  0  0
   -7.0742   11.5722    0.1959 H   0  0  0  0  0  0  0  0  0  0  0  0
   -7.2137   13.1313   -1.6864 H   0  0  0  0  0  0  0  0  0  0  0  0
   -5.5133   12.6655   -1.4413 H   0  0  0  0  0  0  0  0  0  0  0  0
   -6.1627   12.4897   -3.7332 H   0  0  0  0  0  0  0  0  0  0  0  0
   -5.9098   10.1274   -0.8048 N   0  3  0  0  0  0  0  0  0  0  0  0
   -5.7875    9.7659   -1.7580 H   0  0  0  0  0  0  0  0  0  0  0  0
   -5.0230   10.5248   -0.4731 H   0  0  0  0  0  0  0  0  0  0  0  0
  1  2  1  0  0  0  0
  1 29  1  0  0  0  0
  1 30  1  0  0  0  0
  1 31  1  0  0  0  0
  2  3  1  0  0  0  0
  3  8  2  0  0  0  0
  3  4  1  0  0  0  0
  4  5  2  0  0  0  0
  4 32  1  0  0  0  0
  5  6  1  0  0  0  0
  5 33  1  0  0  0  0
  6  7  2  0  0  0  0
  6 34  1  0  0  0  0
  7  8  1  0  0  0  0
  7  9  1  0  0  0  0
  8 35  1  0  0  0  0
  9 13  1  0  0  0  0
  9 10  2  0  0  0  0
 10 11  1  0  0  0  0
 10 36  1  0  0  0  0
 11 12  1  0  0  0  0
 11 19  1  0  0  0  0
 12 17  2  0  0  0  0
 12 13  1  0  0  0  0
 13 14  2  0  0  0  0
 14 15  1  0  0  0  0
 14 18  1  0  0  0  0
 15 16  2  0  0  0  0
 16 17  1  0  0  0  0
 16 37  1  0  0  0  0
 18 38  1  0  0  0  0
 18 39  1  0  0  0  0
 19 24  2  0  0  0  0
 19 20  1  0  0  0  0
 20 21  2  0  0  0  0
 20 40  1  0  0  0  0
 21 22  1  0  0  0  0
 21 41  1  0  0  0  0
 22 23  2  0  0  0  0
 22 25  1  0  0  0  0
 23 24  1  0  0  0  0
 23 42  1  0  0  0  0
 24 43  1  0  0  0  0
 25 44  1  0  0  0  0
 25 45  1  0  0  0  0
 25 51  1  0  0  0  0
 26 27  1  0  0  0  0
 26 46  1  0  0  0  0
 26 47  1  0  0  0  0
 26 51  1  0  0  0  0
 27 28  1  0  0  0  0
 27 48  1  0  0  0  0
 27 49  1  0  0  0  0
 28 50  1  0  0  0  0
 51 52  1  0  0  0  0
 51 53  1  0  0  0  0
M  CHG  1  51   1
M  END
$$$$
ZINC03815324
  -OEChem-08230709403D

 59 62  0     1  0  0  0  0  0999 V2000
   -7.2112   11.8468    0.5199 C   0  0  0  0  0  0  0  0  0  0  0  0
   -6.0922   10.1621   -0.8113 C   0  0  0  0  0  0  0  0  0  0  0  0
   -6.6252    9.0080    0.0400 C   0  0  0  0  0  0  0  0  0  0  0  0
   -5.6215    7.8839    0.0474 C   0  0  0  0  0  0  0  0  0  0  0  0
   -4.6391    7.8425    1.0197 C   0  0  0  0  0  0  0  0  0  0  0  0
   -3.7178    6.8136    1.0291 C   0  0  0  0  0  0  0  0  0  0  0  0
   -3.7787    5.8201    0.0609 C   0  0  0  0  0  0  0  0  0  0  0  0
   -4.7631    5.8674   -0.9173 C   0  0  0  0  0  0  0  0  0  0  0  0
   -5.6851    6.8958   -0.9179 C   0  0  0  0  0  0  0  0  0  0  0  0
   -2.8454    4.7755    0.0674 N   0  0  0  0  0  0  0  0  0  0  0  0
   -1.4880    4.9384    0.1491 C   0  0  0  0  0  0  0  0  0  0  0  0
   -0.8819    3.7256    0.1313 C   0  0  0  0  0  0  0  0  0  0  0  0
   -1.9521    2.7241    0.0358 C   0  0  0  0  0  0  0  0  0  0  0  0
   -3.1595    3.4428   -0.0062 C   0  0  0  0  0  0  0  0  0  0  0  0
   -4.3014    2.7631   -0.0979 N   0  0  0  0  0  0  0  0  0  0  0  0
   -4.2985    1.4486   -0.1532 C   0  0  0  0  0  0  0  0  0  0  0  0
   -3.1871    0.7360   -0.1221 N   0  0  0  0  0  0  0  0  0  0  0  0
   -1.9979    1.3255   -0.0317 C   0  0  0  0  0  0  0  0  0  0  0  0
   -0.8356    0.5757    0.0006 N   0  0  0  0  0  0  0  0  0  0  0  0
    0.5751    3.4618    0.2008 C   0  0  0  0  0  0  0  0  0  0  0  0
    1.0754    2.5361    1.1162 C   0  0  0  0  0  0  0  0  0  0  0  0
    2.4323    2.2921    1.1785 C   0  0  0  0  0  0  0  0  0  0  0  0
    3.2988    2.9628    0.3352 C   0  0  0  0  0  0  0  0  0  0  0  0
    2.8091    3.8854   -0.5791 C   0  0  0  0  0  0  0  0  0  0  0  0
    1.4483    4.1336   -0.6519 C   0  0  0  0  0  0  0  0  0  0  0  0
    3.6647    4.5418   -1.4063 O   0  0  0  0  0  0  0  0  0  0  0  0
    5.0542    4.2330   -1.2801 C   0  0  0  0  0  0  0  0  0  0  0  0
   -6.7080   12.2809   -1.8083 C   0  0  0  0  0  0  0  0  0  0  0  0
   -7.0456   11.7747   -3.2121 C   0  0  0  0  0  0  0  0  0  0  0  0
   -8.4594   11.6033   -3.3295 O   0  0  0  0  0  0  0  0  0  0  0  0
   -6.2321   12.1559    0.8856 H   0  0  0  0  0  0  0  0  0  0  0  0
   -7.8700   12.7137    0.4680 H   0  0  0  0  0  0  0  0  0  0  0  0
   -7.6361   11.1078    1.1992 H   0  0  0  0  0  0  0  0  0  0  0  0
   -5.1510   10.5182   -0.3923 H   0  0  0  0  0  0  0  0  0  0  0  0
   -5.9276    9.8153   -1.8315 H   0  0  0  0  0  0  0  0  0  0  0  0
   -7.5664    8.6520   -0.3790 H   0  0  0  0  0  0  0  0  0  0  0  0
   -6.7898    9.3548    1.0602 H   0  0  0  0  0  0  0  0  0  0  0  0
   -4.5920    8.6157    1.7722 H   0  0  0  0  0  0  0  0  0  0  0  0
   -2.9505    6.7820    1.7885 H   0  0  0  0  0  0  0  0  0  0  0  0
   -4.8103    5.0986   -1.6743 H   0  0  0  0  0  0  0  0  0  0  0  0
   -6.4539    6.9305   -1.6756 H   0  0  0  0  0  0  0  0  0  0  0  0
   -0.9781    5.8880    0.2174 H   0  0  0  0  0  0  0  0  0  0  0  0
   -5.2436    0.9313   -0.2276 H   0  0  0  0  0  0  0  0  0  0  0  0
   -0.8815   -0.3923   -0.0428 H   0  0  0  0  0  0  0  0  0  0  0  0
    0.0254    1.0181    0.0627 H   0  0  0  0  0  0  0  0  0  0  0  0
    0.4012    2.0101    1.7758 H   0  0  0  0  0  0  0  0  0  0  0  0
    2.8184    1.5750    1.8878 H   0  0  0  0  0  0  0  0  0  0  0  0
    4.3597    2.7680    0.3877 H   0  0  0  0  0  0  0  0  0  0  0  0
    1.0656    4.8482   -1.3656 H   0  0  0  0  0  0  0  0  0  0  0  0
    5.3878    4.4660   -0.2689 H   0  0  0  0  0  0  0  0  0  0  0  0
    5.2102    3.1727   -1.4789 H   0  0  0  0  0  0  0  0  0  0  0  0
    5.6244    4.8247   -1.9962 H   0  0  0  0  0  0  0  0  0  0  0  0
   -7.2668   13.1950   -1.6076 H   0  0  0  0  0  0  0  0  0  0  0  0
   -5.6395   12.4867   -1.7435 H   0  0  0  0  0  0  0  0  0  0  0  0
   -6.7048   12.4995   -3.9515 H   0  0  0  0  0  0  0  0  0  0  0  0
   -6.5484   10.8199   -3.3834 H   0  0  0  0  0  0  0  0  0  0  0  0
   -8.7463   11.2835   -4.1958 H   0  0  0  0  0  0  0  0  0  0  0  0
   -7.0960   11.2470   -0.8260 N   0  3  2  0  0  0  0  0  0  0  0  0
   -8.0061   10.8556   -1.0957 H   0  0  0  0  0  0  0  0  0  0  0  0
  1 31  1  0  0  0  0
  1 32  1  0  0  0  0
  1 33  1  0  0  0  0
  1 58  1  0  0  0  0
  2  3  1  0  0  0  0
  2 34  1  0  0  0  0
  2 35  1  0  0  0  0
  2 58  1  0  0  0  0
  3  4  1  0  0  0  0
  3 36  1  0  0  0  0
  3 37  1  0  0  0  0
  4  9  2  0  0  0  0
  4  5  1  0  0  0  0
  5  6  2  0  0  0  0
  5 38  1  0  0  0  0
  6  7  1  0  0  0  0
  6 39  1  0  0  0  0
  7  8  2  0  0  0  0
  7 10  1  0  0  0  0
  8  9  1  0  0  0  0
  8 40  1  0  0  0  0
  9 41  1  0  0  0  0
 10 14  1  0  0  0  0
 10 11  1  0  0  0  0
 11 12  2  0  0  0  0
 11 42  1  0  0  0  0
 12 13  1  0  0  0  0
 12 20  1  0  0  0  0
 13 18  2  0  0  0  0
 13 14  1  0  0  0  0
 14 15  2  0  0  0  0
 15 16  1  0  0  0  0
 16 17  2  0  0  0  0
 16 43  1  0  0  0  0
 17 18  1  0  0  0  0
 18 19  1  0  0  0  0
 19 44  1  0  0  0  0
 19 45  1  0  0  0  0
 20 25  2  0  0  0  0
 20 21  1  0  0  0  0
 21 22  2  0  0  0  0
 21 46  1  0  0  0  0
 22 23  1  0  0  0  0
 22 47  1  0  0  0  0
 23 24  2  0  0  0  0
 23 48  1  0  0  0  0
 24 25  1  0  0  0  0
 24 26  1  0  0  0  0
 25 49  1  0  0  0  0
 26 27  1  0  0  0  0
 27 50  1  0  0  0  0
 27 51  1  0  0  0  0
 27 52  1  0  0  0  0
 28 29  1  0  0  0  0
 28 53  1  0  0  0  0
 28 54  1  0  0  0  0
 28 58  1  0  0  0  0
 29 30  1  0  0  0  0
 29 55  1  0  0  0  0
 29 56  1  0  0  0  0
 30 57  1  0  0  0  0
 58 59  1  0  0  0  0
M  CHG  1  58   1
M  END
$$$$
ZINC03815325
  -OEChem-08230709403D

 63 67  0     1  0  0  0  0  0999 V2000
   -2.4461    2.7839    4.7585 C   0  0  0  0  0  0  0  0  0  0  0  0
   -1.8725    2.3814    3.5130 O   0  0  0  0  0  0  0  0  0  0  0  0
   -0.7569    1.6083    3.5690 C   0  0  0  0  0  0  0  0  0  0  0  0
   -0.2386    1.2478    4.7932 C   0  0  0  0  0  0  0  0  0  0  0  0
    0.9147    0.4557    4.8478 C   0  0  0  0  0  0  0  0  0  0  0  0
    1.5272    0.0330    3.6421 C   0  0  0  0  0  0  0  0  0  0  0  0
    0.9772    0.4087    2.4107 C   0  0  0  0  0  0  0  0  0  0  0  0
   -0.1485    1.1819    2.3803 C   0  0  0  0  0  0  0  0  0  0  0  0
   -0.6816    1.5467    1.1837 O   0  0  0  0  0  0  0  0  0  0  0  0
   -0.0127    1.0858    0.0080 C   0  0  0  0  0  0  0  0  0  0  0  0
   -0.7527    1.5927   -1.2315 C   0  0  0  0  0  0  0  0  0  0  0  0
   -0.0366    1.0992   -2.4903 C   0  0  0  0  0  0  0  0  0  0  0  0
   -2.0810    0.9766   -3.7835 C   0  0  0  0  0  0  0  0  0  0  0  0
   -2.8076    1.5548   -5.0007 C   0  0  0  0  0  0  0  0  0  0  0  0
   -2.0179    1.3304   -6.1719 O   0  0  0  0  0  0  0  0  0  0  0  0
   -0.7125    1.9108   -6.1059 C   0  0  0  0  0  0  0  0  0  0  0  0
    0.0352    1.3362   -4.8999 C   0  0  0  0  0  0  0  0  0  0  0  0
    2.6919   -0.7664    3.7294 C   0  0  0  0  0  0  0  0  0  0  0  0
    3.1501   -1.0780    4.9345 N   0  0  0  0  0  0  0  0  0  0  0  0
    2.5437   -0.6603    6.0345 C   0  0  0  0  0  0  0  0  0  0  0  0
    1.4625    0.0819    6.0149 N   0  0  0  0  0  0  0  0  0  0  0  0
    3.3335   -1.2095    2.5914 N   0  0  0  0  0  0  0  0  0  0  0  0
    4.5379   -2.0360    2.7043 C   0  0  2  0  0  0  0  0  0  0  0  0
    4.7740   -2.3880    3.7085 H   0  0  0  0  0  0  0  0  0  0  0  0
    5.7097   -1.7073    1.7772 C   0  0  0  0  0  0  0  0  0  0  0  0
    4.8706   -2.9633    1.5337 C   0  0  2  0  0  0  0  0  0  0  0  0
    5.3257   -3.9257    1.7676 H   0  0  0  0  0  0  0  0  0  0  0  0
    3.9345   -2.9565    0.3528 C   0  0  0  0  0  0  0  0  0  0  0  0
    3.7195   -1.7870   -0.3522 C   0  0  0  0  0  0  0  0  0  0  0  0
    2.8645   -1.7819   -1.4384 C   0  0  0  0  0  0  0  0  0  0  0  0
    2.2167   -2.9441   -1.8135 C   0  0  0  0  0  0  0  0  0  0  0  0
    2.4273   -4.1123   -1.1051 C   0  0  0  0  0  0  0  0  0  0  0  0
    3.2863   -4.1185   -0.0221 C   0  0  0  0  0  0  0  0  0  0  0  0
   -2.7304    1.9003    5.3300 H   0  0  0  0  0  0  0  0  0  0  0  0
   -1.7164    3.3632    5.3242 H   0  0  0  0  0  0  0  0  0  0  0  0
   -3.3290    3.3951    4.5712 H   0  0  0  0  0  0  0  0  0  0  0  0
   -0.7161    1.5768    5.7043 H   0  0  0  0  0  0  0  0  0  0  0  0
    1.4409    0.0890    1.4892 H   0  0  0  0  0  0  0  0  0  0  0  0
    0.0021   -0.0041    0.0020 H   0  0  0  0  0  0  0  0  0  0  0  0
    1.0099    1.4631    0.0003 H   0  0  0  0  0  0  0  0  0  0  0  0
   -1.7753    1.2154   -1.2238 H   0  0  0  0  0  0  0  0  0  0  0  0
   -0.7675    2.6825   -1.2255 H   0  0  0  0  0  0  0  0  0  0  0  0
    0.9860    1.4765   -2.4981 H   0  0  0  0  0  0  0  0  0  0  0  0
   -0.0218    0.0093   -2.4963 H   0  0  0  0  0  0  0  0  0  0  0  0
   -1.9804   -0.1026   -3.8984 H   0  0  0  0  0  0  0  0  0  0  0  0
   -2.6518    1.1956   -2.8810 H   0  0  0  0  0  0  0  0  0  0  0  0
   -2.9558    2.6257   -4.8614 H   0  0  0  0  0  0  0  0  0  0  0  0
   -3.7745    1.0646   -5.1143 H   0  0  0  0  0  0  0  0  0  0  0  0
   -0.7998    2.9920   -5.9987 H   0  0  0  0  0  0  0  0  0  0  0  0
   -0.1642    1.6780   -7.0188 H   0  0  0  0  0  0  0  0  0  0  0  0
    1.0093    1.8176   -4.8124 H   0  0  0  0  0  0  0  0  0  0  0  0
    0.1697    0.2627   -5.0326 H   0  0  0  0  0  0  0  0  0  0  0  0
    2.9581   -0.9429    6.9910 H   0  0  0  0  0  0  0  0  0  0  0  0
    2.9873   -0.9739    1.7165 H   0  0  0  0  0  0  0  0  0  0  0  0
    5.5846   -0.8761    1.0832 H   0  0  0  0  0  0  0  0  0  0  0  0
    6.7168   -1.8430    2.1714 H   0  0  0  0  0  0  0  0  0  0  0  0
    4.2224   -0.8781   -0.0566 H   0  0  0  0  0  0  0  0  0  0  0  0
    2.6997   -0.8692   -1.9916 H   0  0  0  0  0  0  0  0  0  0  0  0
    1.5458   -2.9392   -2.6598 H   0  0  0  0  0  0  0  0  0  0  0  0
    1.9209   -5.0201   -1.3979 H   0  0  0  0  0  0  0  0  0  0  0  0
    3.4508   -5.0312    0.5314 H   0  0  0  0  0  0  0  0  0  0  0  0
   -0.7512    1.6127   -3.6790 N   0  3  0  0  0  0  0  0  0  0  0  0
   -0.8730    2.6276   -3.5826 H   0  0  0  0  0  0  0  0  0  0  0  0
  1  2  1  0  0  0  0
  1 34  1  0  0  0  0
  1 35  1  0  0  0  0
  1 36  1  0  0  0  0
  2  3  1  0  0  0  0
  3  8  2  0  0  0  0
  3  4  1  0  0  0  0
  4  5  2  0  0  0  0
  4 37  1  0  0  0  0
  5 21  1  0  0  0  0
  5  6  1  0  0  0  0
  6  7  2  0  0  0  0
  6 18  1  0  0  0  0
  7  8  1  0  0  0  0
  7 38  1  0  0  0  0
  8  9  1  0  0  0  0
  9 10  1  0  0  0  0
 10 11  1  0  0  0  0
 10 39  1  0  0  0  0
 10 40  1  0  0  0  0
 11 12  1  0  0  0  0
 11 41  1  0  0  0  0
 11 42  1  0  0  0  0
 12 43  1  0  0  0  0
 12 44  1  0  0  0  0
 12 62  1  0  0  0  0
 13 14  1  0  0  0  0
 13 45  1  0  0  0  0
 13 46  1  0  0  0  0
 13 62  1  0  0  0  0
 14 15  1  0  0  0  0
 14 47  1  0  0  0  0
 14 48  1  0  0  0  0
 15 16  1  0  0  0  0
 16 17  1  0  0  0  0
 16 49  1  0  0  0  0
 16 50  1  0  0  0  0
 17 51  1  0  0  0  0
 17 52  1  0  0  0  0
 17 62  1  0  0  0  0
 18 19  2  0  0  0  0
 18 22  1  0  0  0  0
 19 20  1  0  0  0  0
 20 21  2  0  0  0  0
 20 53  1  0  0  0  0
 22 23  1  0  0  0  0
 22 54  1  0  0  0  0
 23 24  1  0  0  0  0
 23 26  1  0  0  0  0
 23 25  1  0  0  0  0
 25 26  1  0  0  0  0
 25 55  1  0  0  0  0
 25 56  1  0  0  0  0
 26 27  1  0  0  0  0
 26 28  1  0  0  0  0
 28 33  2  0  0  0  0
 28 29  1  0  0  0  0
 29 30  2  0  0  0  0
 29 57  1  0  0  0  0
 30 31  1  0  0  0  0
 30 58  1  0  0  0  0
 31 32  2  0  0  0  0
 31 59  1  0  0  0  0
 32 33  1  0  0  0  0
 32 60  1  0  0  0  0
 33 61  1  0  0  0  0
 62 63  1  0  0  0  0
M  CHG  1  62   1
M  END
$$$$
ZINC03815326
  -OEChem-08230709403D

 36 39  0     0  0  0  0  0  0999 V2000
   -0.0092    1.0762   -0.0289 C   0  0  0  0  0  0  0  0  0  0  0  0
    0.9268    1.7692    0.7168 C   0  0  0  0  0  0  0  0  0  0  0  0
    0.9130    3.1500    0.7344 C   0  0  0  0  0  0  0  0  0  0  0  0
   -0.0492    3.8427    0.0104 C   0  0  0  0  0  0  0  0  0  0  0  0
   -0.9912    3.1434   -0.7333 C   0  0  0  0  0  0  0  0  0  0  0  0
   -0.9684    1.7626   -0.7508 C   0  0  0  0  0  0  0  0  0  0  0  0
   -0.0691    5.2401    0.0299 N   0  0  0  0  0  0  0  0  0  0  0  0
   -1.2734    5.9165   -0.0599 C   0  0  0  0  0  0  0  0  0  0  0  0
   -1.3060    7.3164   -0.1587 C   0  0  0  0  0  0  0  0  0  0  0  0
   -0.3095    8.3773   -0.1988 C   0  0  0  0  0  0  0  0  0  0  0  0
   -0.9748    9.5443   -0.3007 C   0  0  0  0  0  0  0  0  0  0  0  0
   -2.3214    9.3016   -0.3305 N   0  0  0  0  0  0  0  0  0  0  0  0
   -3.0078    9.9835   -0.4003 H   0  0  0  0  0  0  0  0  0  0  0  0
   -2.5581    7.9559   -0.2464 C   0  0  0  0  0  0  0  0  0  0  0  0
   -3.6586    7.2059   -0.2331 N   0  0  0  0  0  0  0  0  0  0  0  0
   -3.5793    5.8963   -0.1394 C   0  0  0  0  0  0  0  0  0  0  0  0
   -2.4270    5.2555   -0.0602 N   0  0  0  0  0  0  0  0  0  0  0  0
   -0.2961   10.8928   -0.3694 C   0  0  0  0  0  0  0  0  0  0  0  0
    1.1506   10.7354    0.1116 C   0  0  0  0  0  0  0  0  0  0  0  0
    1.8099    9.5661   -0.6255 C   0  0  0  0  0  0  0  0  0  0  0  0
    1.1909    8.2486   -0.1426 C   0  0  0  0  0  0  0  0  0  0  0  0
    0.0062   -0.0036   -0.0440 H   0  0  0  0  0  0  0  0  0  0  0  0
    1.6719    1.2299    1.2830 H   0  0  0  0  0  0  0  0  0  0  0  0
    1.6466    3.6907    1.3140 H   0  0  0  0  0  0  0  0  0  0  0  0
   -1.7408    3.6788   -1.2970 H   0  0  0  0  0  0  0  0  0  0  0  0
   -1.7007    1.2184   -1.3286 H   0  0  0  0  0  0  0  0  0  0  0  0
    0.7611    5.7360    0.1064 H   0  0  0  0  0  0  0  0  0  0  0  0
   -4.4934    5.3213   -0.1321 H   0  0  0  0  0  0  0  0  0  0  0  0
   -0.8207   11.5998    0.2732 H   0  0  0  0  0  0  0  0  0  0  0  0
   -0.3027   11.2540   -1.3978 H   0  0  0  0  0  0  0  0  0  0  0  0
    1.1576   10.5392    1.1838 H   0  0  0  0  0  0  0  0  0  0  0  0
    1.7033   11.6522   -0.0936 H   0  0  0  0  0  0  0  0  0  0  0  0
    2.8801    9.5627   -0.4186 H   0  0  0  0  0  0  0  0  0  0  0  0
    1.6470    9.6732   -1.6979 H   0  0  0  0  0  0  0  0  0  0  0  0
    1.5035    8.0512    0.8828 H   0  0  0  0  0  0  0  0  0  0  0  0
    1.5132    7.4334   -0.7904 H   0  0  0  0  0  0  0  0  0  0  0  0
  1  6  2  0  0  0  0
  1  2  1  0  0  0  0
  1 22  1  0  0  0  0
  2  3  2  0  0  0  0
  2 23  1  0  0  0  0
  3  4  1  0  0  0  0
  3 24  1  0  0  0  0
  4  5  2  0  0  0  0
  4  7  1  0  0  0  0
  5  6  1  0  0  0  0
  5 25  1  0  0  0  0
  6 26  1  0  0  0  0
  7  8  1  0  0  0  0
  7 27  1  0  0  0  0
  8 17  2  0  0  0  0
  8  9  1  0  0  0  0
  9 14  2  0  0  0  0
  9 10  1  0  0  0  0
 10 21  1  0  0  0  0
 10 11  2  0  0  0  0
 11 12  1  0  0  0  0
 11 18  1  0  0  0  0
 12 13  1  0  0  0  0
 12 14  1  0  0  0  0
 14 15  1  0  0  0  0
 15 16  2  0  0  0  0
 16 17  1  0  0  0  0
 16 28  1  0  0  0  0
 18 19  1  0  0  0  0
 18 29  1  0  0  0  0
 18 30  1  0  0  0  0
 19 20  1  0  0  0  0
 19 31  1  0  0  0  0
 19 32  1  0  0  0  0
 20 21  1  0  0  0  0
 20 33  1  0  0  0  0
 20 34  1  0  0  0  0
 21 35  1  0  0  0  0
 21 36  1  0  0  0  0
M  END
$$$$
ZINC03815328
  -OEChem-08230709403D

 35 37  0     0  0  0  0  0  0999 V2000
   -0.9919    6.2996    0.1403 C   0  0  0  0  0  0  0  0  0  0  0  0
    0.2326    5.4968    0.1899 N   0  0  0  0  0  0  0  0  0  0  0  0
    1.5393    6.1567    0.2487 C   0  0  0  0  0  0  0  0  0  0  0  0
    0.1550    4.1143    0.1812 C   0  0  0  0  0  0  0  0  0  0  0  0
   -1.0937    3.5009    0.0179 C   0  0  0  0  0  0  0  0  0  0  0  0
   -1.1837    2.1389    0.0022 C   0  0  0  0  0  0  0  0  0  0  0  0
   -0.0034    1.3955    0.1623 C   0  0  0  0  0  0  0  0  0  0  0  0
    1.2299    2.0732    0.3236 C   0  0  0  0  0  0  0  0  0  0  0  0
    1.2597    3.4061    0.3265 N   0  0  0  0  0  0  0  0  0  0  0  0
    2.3454    1.3432    0.4695 N   0  0  0  0  0  0  0  0  0  0  0  0
    2.2907    0.0314    0.4622 C   0  0  0  0  0  0  0  0  0  0  0  0
    1.1626   -0.6417    0.3146 N   0  0  0  0  0  0  0  0  0  0  0  0
    0.0000   -0.0172    0.1626 C   0  0  0  0  0  0  0  0  0  0  0  0
   -1.1716   -0.7287    0.0088 N   0  0  0  0  0  0  0  0  0  0  0  0
   -1.1339   -2.1214   -0.1045 C   0  0  0  0  0  0  0  0  0  0  0  0
   -2.1749   -2.8895    0.4020 C   0  0  0  0  0  0  0  0  0  0  0  0
   -2.1350   -4.2651    0.2887 C   0  0  0  0  0  0  0  0  0  0  0  0
   -1.0602   -4.8790   -0.3282 C   0  0  0  0  0  0  0  0  0  0  0  0
   -0.0219   -4.1174   -0.8343 C   0  0  0  0  0  0  0  0  0  0  0  0
   -0.0585   -2.7398   -0.7287 C   0  0  0  0  0  0  0  0  0  0  0  0
    1.4448   -4.9615   -1.6782 Br  0  0  0  0  0  0  0  0  0  0  0  0
   -1.3398    6.4947    1.1547 H   0  0  0  0  0  0  0  0  0  0  0  0
   -0.7863    7.2452   -0.3615 H   0  0  0  0  0  0  0  0  0  0  0  0
   -1.7605    5.7562   -0.4093 H   0  0  0  0  0  0  0  0  0  0  0  0
    2.3259    5.4029    0.2797 H   0  0  0  0  0  0  0  0  0  0  0  0
    1.6703    6.7826   -0.6340 H   0  0  0  0  0  0  0  0  0  0  0  0
    1.5937    6.7757    1.1443 H   0  0  0  0  0  0  0  0  0  0  0  0
   -1.9822    4.1038   -0.0991 H   0  0  0  0  0  0  0  0  0  0  0  0
   -2.1364    1.6469   -0.1274 H   0  0  0  0  0  0  0  0  0  0  0  0
    3.2096   -0.5232    0.5828 H   0  0  0  0  0  0  0  0  0  0  0  0
   -2.0218   -0.2625   -0.0207 H   0  0  0  0  0  0  0  0  0  0  0  0
   -3.0145   -2.4111    0.8844 H   0  0  0  0  0  0  0  0  0  0  0  0
   -2.9443   -4.8624    0.6821 H   0  0  0  0  0  0  0  0  0  0  0  0
   -1.0316   -5.9551   -0.4155 H   0  0  0  0  0  0  0  0  0  0  0  0
    0.7502   -2.1452   -1.1275 H   0  0  0  0  0  0  0  0  0  0  0  0
  1  2  1  0  0  0  0
  1 22  1  0  0  0  0
  1 23  1  0  0  0  0
  1 24  1  0  0  0  0
  2  3  1  0  0  0  0
  2  4  1  0  0  0  0
  3 25  1  0  0  0  0
  3 26  1  0  0  0  0
  3 27  1  0  0  0  0
  4  9  2  0  0  0  0
  4  5  1  0  0  0  0
  5  6  2  0  0  0  0
  5 28  1  0  0  0  0
  6  7  1  0  0  0  0
  6 29  1  0  0  0  0
  7 13  2  0  0  0  0
  7  8  1  0  0  0  0
  8  9  1  0  0  0  0
  8 10  2  0  0  0  0
 10 11  1  0  0  0  0
 11 12  2  0  0  0  0
 11 30  1  0  0  0  0
 12 13  1  0  0  0  0
 13 14  1  0  0  0  0
 14 15  1  0  0  0  0
 14 31  1  0  0  0  0
 15 20  2  0  0  0  0
 15 16  1  0  0  0  0
 16 17  2  0  0  0  0
 16 32  1  0  0  0  0
 17 18  1  0  0  0  0
 17 33  1  0  0  0  0
 18 19  2  0  0  0  0
 18 34  1  0  0  0  0
 19 20  1  0  0  0  0
 19 21  1  0  0  0  0
 20 35  1  0  0  0  0
M  END
$$$$
ZINC03815329
  -OEChem-08230709403D

 49 52  0     0  0  0  0  0  0999 V2000
    3.3736    3.6163    0.1121 C   0  0  0  0  0  0  0  0  0  0  0  0
    3.4289    2.1661    0.3125 N   0  0  0  0  0  0  0  0  0  0  0  0
    2.2658    1.4385    0.3323 C   0  0  0  0  0  0  0  0  0  0  0  0
    2.3015    0.0403    0.5239 C   0  0  0  0  0  0  0  0  0  0  0  0
    3.5381   -0.6227    0.6962 C   0  0  0  0  0  0  0  0  0  0  0  0
    4.6934    0.1116    0.6755 C   0  0  0  0  0  0  0  0  0  0  0  0
    4.6210    1.5606    0.4751 C   0  0  0  0  0  0  0  0  0  0  0  0
    5.6441    2.2214    0.4548 O   0  0  0  0  0  0  0  0  0  0  0  0
    6.0052   -0.5536    0.8537 C   0  0  0  0  0  0  0  0  0  0  0  0
    6.5478   -0.7021    2.1306 C   0  0  0  0  0  0  0  0  0  0  0  0
    7.7693   -1.3267    2.2902 C   0  0  0  0  0  0  0  0  0  0  0  0
    8.4588   -1.7963    1.1868 C   0  0  0  0  0  0  0  0  0  0  0  0
    7.9286   -1.6481   -0.0823 C   0  0  0  0  0  0  0  0  0  0  0  0
    6.7060   -1.0293   -0.2553 C   0  0  0  0  0  0  0  0  0  0  0  0
    6.0430   -0.8432   -1.8488 Cl  0  0  0  0  0  0  0  0  0  0  0  0
    5.6870   -0.1080    3.5162 Cl  0  0  0  0  0  0  0  0  0  0  0  0
    1.0896   -0.6663    0.5380 C   0  0  0  0  0  0  0  0  0  0  0  0
   -0.0348    0.0047    0.3716 N   0  0  0  0  0  0  0  0  0  0  0  0
   -0.0302    1.3212    0.1938 C   0  0  0  0  0  0  0  0  0  0  0  0
    1.0876    2.0307    0.1730 N   0  0  0  0  0  0  0  0  0  0  0  0
   -1.2358    1.9733    0.0186 N   0  0  0  0  0  0  0  0  0  0  0  0
   -2.4198    1.2374   -0.0854 C   0  0  0  0  0  0  0  0  0  0  0  0
   -2.4129   -0.0059   -0.7033 C   0  0  0  0  0  0  0  0  0  0  0  0
   -3.5865   -0.7376   -0.8009 C   0  0  0  0  0  0  0  0  0  0  0  0
   -4.7693   -0.2230   -0.2913 C   0  0  0  0  0  0  0  0  0  0  0  0
   -4.7783    1.0216    0.3207 C   0  0  0  0  0  0  0  0  0  0  0  0
   -3.6045    1.7520    0.4241 C   0  0  0  0  0  0  0  0  0  0  0  0
   -5.9378    1.5251    0.8193 O   0  0  0  0  0  0  0  0  0  0  0  0
   -7.1091    0.7187    0.6780 C   0  0  0  0  0  0  0  0  0  0  0  0
   -3.5789   -1.9570   -1.4007 O   0  0  0  0  0  0  0  0  0  0  0  0
   -4.8249   -2.6531   -1.4711 C   0  0  0  0  0  0  0  0  0  0  0  0
    3.2910    4.1137    1.0785 H   0  0  0  0  0  0  0  0  0  0  0  0
    4.2817    3.9484   -0.3910 H   0  0  0  0  0  0  0  0  0  0  0  0
    2.5070    3.8657   -0.5002 H   0  0  0  0  0  0  0  0  0  0  0  0
    3.5709   -1.6922    0.8432 H   0  0  0  0  0  0  0  0  0  0  0  0
    8.1887   -1.4455    3.2783 H   0  0  0  0  0  0  0  0  0  0  0  0
    9.4153   -2.2806    1.3166 H   0  0  0  0  0  0  0  0  0  0  0  0
    8.4721   -2.0167   -0.9397 H   0  0  0  0  0  0  0  0  0  0  0  0
    1.0769   -1.7366    0.6816 H   0  0  0  0  0  0  0  0  0  0  0  0
   -1.2605    2.9416   -0.0323 H   0  0  0  0  0  0  0  0  0  0  0  0
   -1.4928   -0.4048   -1.1042 H   0  0  0  0  0  0  0  0  0  0  0  0
   -5.6840   -0.7917   -0.3712 H   0  0  0  0  0  0  0  0  0  0  0  0
   -3.6115    2.7209    0.9013 H   0  0  0  0  0  0  0  0  0  0  0  0
   -7.9618    1.2364    1.1171 H   0  0  0  0  0  0  0  0  0  0  0  0
   -7.2996    0.5369   -0.3797 H   0  0  0  0  0  0  0  0  0  0  0  0
   -6.9591   -0.2325    1.1888 H   0  0  0  0  0  0  0  0  0  0  0  0
   -5.2026   -2.8248   -0.4632 H   0  0  0  0  0  0  0  0  0  0  0  0
   -5.5438   -2.0555   -2.0317 H   0  0  0  0  0  0  0  0  0  0  0  0
   -4.6787   -3.6099   -1.9723 H   0  0  0  0  0  0  0  0  0  0  0  0
  1  2  1  0  0  0  0
  1 32  1  0  0  0  0
  1 33  1  0  0  0  0
  1 34  1  0  0  0  0
  2  7  1  0  0  0  0
  2  3  1  0  0  0  0
  3 20  2  0  0  0  0
  3  4  1  0  0  0  0
  4  5  1  0  0  0  0
  4 17  2  0  0  0  0
  5  6  2  0  0  0  0
  5 35  1  0  0  0  0
  6  7  1  0  0  0  0
  6  9  1  0  0  0  0
  7  8  2  0  0  0  0
  9 14  2  0  0  0  0
  9 10  1  0  0  0  0
 10 11  2  0  0  0  0
 10 16  1  0  0  0  0
 11 12  1  0  0  0  0
 11 36  1  0  0  0  0
 12 13  2  0  0  0  0
 12 37  1  0  0  0  0
 13 14  1  0  0  0  0
 13 38  1  0  0  0  0
 14 15  1  0  0  0  0
 17 18  1  0  0  0  0
 17 39  1  0  0  0  0
 18 19  2  0  0  0  0
 19 20  1  0  0  0  0
 19 21  1  0  0  0  0
 21 22  1  0  0  0  0
 21 40  1  0  0  0  0
 22 27  2  0  0  0  0
 22 23  1  0  0  0  0
 23 24  2  0  0  0  0
 23 41  1  0  0  0  0
 24 25  1  0  0  0  0
 24 30  1  0  0  0  0
 25 26  2  0  0  0  0
 25 42  1  0  0  0  0
 26 27  1  0  0  0  0
 26 28  1  0  0  0  0
 27 43  1  0  0  0  0
 28 29  1  0  0  0  0
 29 44  1  0  0  0  0
 29 45  1  0  0  0  0
 29 46  1  0  0  0  0
 30 31  1  0  0  0  0
 31 47  1  0  0  0  0
 31 48  1  0  0  0  0
 31 49  1  0  0  0  0
M  END
$$$$
ZINC03815331
  -OEChem-08230709403D

 28 30  0     0  0  0  0  0  0999 V2000
   -0.0092    1.0762   -0.0287 C   0  0  0  0  0  0  0  0  0  0  0  0
    0.9266    1.7689    0.7175 C   0  0  0  0  0  0  0  0  0  0  0  0
    0.9131    3.1498    0.7352 C   0  0  0  0  0  0  0  0  0  0  0  0
   -0.0492    3.8427    0.0114 C   0  0  0  0  0  0  0  0  0  0  0  0
   -0.9913    3.1435   -0.7325 C   0  0  0  0  0  0  0  0  0  0  0  0
   -0.9685    1.7629   -0.7503 C   0  0  0  0  0  0  0  0  0  0  0  0
   -0.0690    5.2399    0.0313 N   0  0  0  0  0  0  0  0  0  0  0  0
   -1.2748    5.9170   -0.0581 C   0  0  0  0  0  0  0  0  0  0  0  0
   -1.3034    7.3270   -0.1570 C   0  0  0  0  0  0  0  0  0  0  0  0
   -0.1437    8.1086   -0.1710 C   0  0  0  0  0  0  0  0  0  0  0  0
   -0.2512    9.4647   -0.2693 C   0  0  0  0  0  0  0  0  0  0  0  0
   -1.4966   10.0824   -0.3558 C   0  0  0  0  0  0  0  0  0  0  0  0
   -2.6467    9.3505   -0.3450 C   0  0  0  0  0  0  0  0  0  0  0  0
   -2.5727    7.9553   -0.2452 C   0  0  0  0  0  0  0  0  0  0  0  0
   -3.7141    7.1319   -0.2282 C   0  0  0  0  0  0  0  0  0  0  0  0
   -3.5617    5.8313   -0.1326 N   0  0  0  0  0  0  0  0  0  0  0  0
   -2.4195    5.2565   -0.0581 N   0  0  0  0  0  0  0  0  0  0  0  0
    0.0064   -0.0035   -0.0443 H   0  0  0  0  0  0  0  0  0  0  0  0
    1.6714    1.2295    1.2838 H   0  0  0  0  0  0  0  0  0  0  0  0
    1.6468    3.6902    1.3149 H   0  0  0  0  0  0  0  0  0  0  0  0
   -1.7409    3.6792   -1.2960 H   0  0  0  0  0  0  0  0  0  0  0  0
   -1.7008    1.2187   -1.3282 H   0  0  0  0  0  0  0  0  0  0  0  0
    0.7611    5.7357    0.1077 H   0  0  0  0  0  0  0  0  0  0  0  0
    0.8283    7.6425   -0.1042 H   0  0  0  0  0  0  0  0  0  0  0  0
    0.6437   10.0692   -0.2805 H   0  0  0  0  0  0  0  0  0  0  0  0
   -1.5520   11.1582   -0.4323 H   0  0  0  0  0  0  0  0  0  0  0  0
   -3.6061    9.8420   -0.4127 H   0  0  0  0  0  0  0  0  0  0  0  0
   -4.7017    7.5640   -0.2926 H   0  0  0  0  0  0  0  0  0  0  0  0
  1  6  2  0  0  0  0
  1  2  1  0  0  0  0
  1 18  1  0  0  0  0
  2  3  2  0  0  0  0
  2 19  1  0  0  0  0
  3  4  1  0  0  0  0
  3 20  1  0  0  0  0
  4  5  2  0  0  0  0
  4  7  1  0  0  0  0
  5  6  1  0  0  0  0
  5 21  1  0  0  0  0
  6 22  1  0  0  0  0
  7  8  1  0  0  0  0
  7 23  1  0  0  0  0
  8 17  2  0  0  0  0
  8  9  1  0  0  0  0
  9 14  2  0  0  0  0
  9 10  1  0  0  0  0
 10 11  2  0  0  0  0
 10 24  1  0  0  0  0
 11 12  1  0  0  0  0
 11 25  1  0  0  0  0
 12 13  2  0  0  0  0
 12 26  1  0  0  0  0
 13 14  1  0  0  0  0
 13 27  1  0  0  0  0
 14 15  1  0  0  0  0
 15 16  2  0  0  0  0
 15 28  1  0  0  0  0
 16 17  1  0  0  0  0
M  END
$$$$
ZINC03815332
  -OEChem-08230709403D

 32 34  0     0  0  0  0  0  0999 V2000
    3.4887    3.1315    0.0413 C   0  0  0  0  0  0  0  0  0  0  0  0
    2.2912    3.8926   -0.1286 O   0  0  0  0  0  0  0  0  0  0  0  0
    1.1194    3.2063   -0.1291 C   0  0  0  0  0  0  0  0  0  0  0  0
    1.1318    1.8180    0.0325 C   0  0  0  0  0  0  0  0  0  0  0  0
   -0.0286    1.1050    0.0350 C   0  0  0  0  0  0  0  0  0  0  0  0
   -1.2508    1.7676   -0.1311 C   0  0  0  0  0  0  0  0  0  0  0  0
   -1.2743    3.1757   -0.2898 C   0  0  0  0  0  0  0  0  0  0  0  0
   -0.0688    3.8868   -0.2894 C   0  0  0  0  0  0  0  0  0  0  0  0
   -2.4586    3.7878   -0.4423 N   0  0  0  0  0  0  0  0  0  0  0  0
   -3.5717    3.0930   -0.4387 C   0  0  0  0  0  0  0  0  0  0  0  0
   -3.5991    1.7788   -0.2885 N   0  0  0  0  0  0  0  0  0  0  0  0
   -2.4849    1.0754   -0.1302 C   0  0  0  0  0  0  0  0  0  0  0  0
   -2.5284   -0.2949    0.0254 N   0  0  0  0  0  0  0  0  0  0  0  0
   -3.7597   -0.9467    0.1391 C   0  0  0  0  0  0  0  0  0  0  0  0
   -3.9167   -2.2312   -0.3667 C   0  0  0  0  0  0  0  0  0  0  0  0
   -5.1342   -2.8727   -0.2531 C   0  0  0  0  0  0  0  0  0  0  0  0
   -6.1972   -2.2383    0.3635 C   0  0  0  0  0  0  0  0  0  0  0  0
   -6.0446   -0.9592    0.8685 C   0  0  0  0  0  0  0  0  0  0  0  0
   -4.8269   -0.3140    0.7629 C   0  0  0  0  0  0  0  0  0  0  0  0
   -7.5010   -0.0963    1.7113 Br  0  0  0  0  0  0  0  0  0  0  0  0
    3.4547    2.6092    0.9974 H   0  0  0  0  0  0  0  0  0  0  0  0
    3.5751    2.4050   -0.7667 H   0  0  0  0  0  0  0  0  0  0  0  0
    4.3496    3.7997    0.0226 H   0  0  0  0  0  0  0  0  0  0  0  0
    2.0735    1.3040    0.1567 H   0  0  0  0  0  0  0  0  0  0  0  0
   -0.0059    0.0325    0.1600 H   0  0  0  0  0  0  0  0  0  0  0  0
   -0.0693    4.9596   -0.4140 H   0  0  0  0  0  0  0  0  0  0  0  0
   -4.5075    3.6173   -0.5644 H   0  0  0  0  0  0  0  0  0  0  0  0
   -1.7044   -0.8059    0.0559 H   0  0  0  0  0  0  0  0  0  0  0  0
   -3.0873   -2.7273   -0.8488 H   0  0  0  0  0  0  0  0  0  0  0  0
   -5.2564   -3.8712   -0.6459 H   0  0  0  0  0  0  0  0  0  0  0  0
   -7.1482   -2.7424    0.4514 H   0  0  0  0  0  0  0  0  0  0  0  0
   -4.7067    0.6827    1.1611 H   0  0  0  0  0  0  0  0  0  0  0  0
  1  2  1  0  0  0  0
  1 21  1  0  0  0  0
  1 22  1  0  0  0  0
  1 23  1  0  0  0  0
  2  3  1  0  0  0  0
  3  8  2  0  0  0  0
  3  4  1  0  0  0  0
  4  5  2  0  0  0  0
  4 24  1  0  0  0  0
  5  6  1  0  0  0  0
  5 25  1  0  0  0  0
  6 12  2  0  0  0  0
  6  7  1  0  0  0  0
  7  8  1  0  0  0  0
  7  9  2  0  0  0  0
  8 26  1  0  0  0  0
  9 10  1  0  0  0  0
 10 11  2  0  0  0  0
 10 27  1  0  0  0  0
 11 12  1  0  0  0  0
 12 13  1  0  0  0  0
 13 14  1  0  0  0  0
 13 28  1  0  0  0  0
 14 19  2  0  0  0  0
 14 15  1  0  0  0  0
 15 16  2  0  0  0  0
 15 29  1  0  0  0  0
 16 17  1  0  0  0  0
 16 30  1  0  0  0  0
 17 18  2  0  0  0  0
 17 31  1  0  0  0  0
 18 19  1  0  0  0  0
 18 20  1  0  0  0  0
 19 32  1  0  0  0  0
M  END
$$$$
ZINC03815333
  -OEChem-08230709403D

 44 46  0     0  0  0  0  0  0999 V2000
   -7.0345   -0.6168   -0.9945 C   0  0  0  0  0  0  0  0  0  0  0  0
   -7.1367    0.6551   -0.3514 O   0  0  0  0  0  0  0  0  0  0  0  0
   -5.9964    1.3913   -0.2536 C   0  0  0  0  0  0  0  0  0  0  0  0
   -4.8075    0.8983   -0.7665 C   0  0  0  0  0  0  0  0  0  0  0  0
   -3.6496    1.6467   -0.6723 C   0  0  0  0  0  0  0  0  0  0  0  0
   -3.6733    2.8904   -0.0548 C   0  0  0  0  0  0  0  0  0  0  0  0
   -4.8632    3.3875    0.4597 C   0  0  0  0  0  0  0  0  0  0  0  0
   -6.0246    2.6394    0.3610 C   0  0  0  0  0  0  0  0  0  0  0  0
   -7.1912    3.1240    0.8646 O   0  0  0  0  0  0  0  0  0  0  0  0
   -7.1459    4.4118    1.4823 C   0  0  0  0  0  0  0  0  0  0  0  0
   -2.4986    3.6454    0.0437 N   0  0  0  0  0  0  0  0  0  0  0  0
   -1.2815    3.0118    0.1919 C   0  0  0  0  0  0  0  0  0  0  0  0
   -0.0727    3.7478    0.1763 C   0  0  0  0  0  0  0  0  0  0  0  0
   -0.0542    5.1383    0.0126 C   0  0  0  0  0  0  0  0  0  0  0  0
    1.1390    5.8026    0.0050 C   0  0  0  0  0  0  0  0  0  0  0  0
    2.3469    5.1076    0.1600 C   0  0  0  0  0  0  0  0  0  0  0  0
    2.3558    3.7402    0.3222 C   0  0  0  0  0  0  0  0  0  0  0  0
    1.1437    3.0387    0.3330 C   0  0  0  0  0  0  0  0  0  0  0  0
    1.0979    1.7063    0.4887 N   0  0  0  0  0  0  0  0  0  0  0  0
   -0.0528    1.0766    0.4951 C   0  0  0  0  0  0  0  0  0  0  0  0
   -1.2131    1.6960    0.3474 N   0  0  0  0  0  0  0  0  0  0  0  0
    3.5212    5.7906    0.1496 O   0  0  0  0  0  0  0  0  0  0  0  0
    4.7177    5.0264    0.3121 C   0  0  0  0  0  0  0  0  0  0  0  0
    1.1559    7.1530   -0.1540 O   0  0  0  0  0  0  0  0  0  0  0  0
   -0.1070    7.8041   -0.3066 C   0  0  0  0  0  0  0  0  0  0  0  0
   -6.6859   -0.4795   -2.0181 H   0  0  0  0  0  0  0  0  0  0  0  0
   -6.3272   -1.2431   -0.4508 H   0  0  0  0  0  0  0  0  0  0  0  0
   -8.0124   -1.0981   -1.0052 H   0  0  0  0  0  0  0  0  0  0  0  0
   -4.7864   -0.0701   -1.2440 H   0  0  0  0  0  0  0  0  0  0  0  0
   -2.7246    1.2626   -1.0763 H   0  0  0  0  0  0  0  0  0  0  0  0
   -4.8832    4.3565    0.9361 H   0  0  0  0  0  0  0  0  0  0  0  0
   -6.8109    5.1518    0.7554 H   0  0  0  0  0  0  0  0  0  0  0  0
   -8.1404    4.6783    1.8401 H   0  0  0  0  0  0  0  0  0  0  0  0
   -6.4519    4.3876    2.3224 H   0  0  0  0  0  0  0  0  0  0  0  0
   -2.5401    4.6139    0.0077 H   0  0  0  0  0  0  0  0  0  0  0  0
   -0.9791    5.6829   -0.1076 H   0  0  0  0  0  0  0  0  0  0  0  0
    3.2906    3.2125    0.4404 H   0  0  0  0  0  0  0  0  0  0  0  0
   -0.0532    0.0041    0.6222 H   0  0  0  0  0  0  0  0  0  0  0  0
    4.6896    4.5067    1.2698 H   0  0  0  0  0  0  0  0  0  0  0  0
    4.7956    4.2975   -0.4947 H   0  0  0  0  0  0  0  0  0  0  0  0
    5.5805    5.6920    0.2850 H   0  0  0  0  0  0  0  0  0  0  0  0
   -0.6140    7.4116   -1.1881 H   0  0  0  0  0  0  0  0  0  0  0  0
   -0.7193    7.6208    0.5764 H   0  0  0  0  0  0  0  0  0  0  0  0
    0.0489    8.8764   -0.4244 H   0  0  0  0  0  0  0  0  0  0  0  0
  1  2  1  0  0  0  0
  1 26  1  0  0  0  0
  1 27  1  0  0  0  0
  1 28  1  0  0  0  0
  2  3  1  0  0  0  0
  3  8  2  0  0  0  0
  3  4  1  0  0  0  0
  4  5  2  0  0  0  0
  4 29  1  0  0  0  0
  5  6  1  0  0  0  0
  5 30  1  0  0  0  0
  6  7  2  0  0  0  0
  6 11  1  0  0  0  0
  7  8  1  0  0  0  0
  7 31  1  0  0  0  0
  8  9  1  0  0  0  0
  9 10  1  0  0  0  0
 10 32  1  0  0  0  0
 10 33  1  0  0  0  0
 10 34  1  0  0  0  0
 11 12  1  0  0  0  0
 11 35  1  0  0  0  0
 12 21  2  0  0  0  0
 12 13  1  0  0  0  0
 13 18  2  0  0  0  0
 13 14  1  0  0  0  0
 14 15  2  0  0  0  0
 14 36  1  0  0  0  0
 15 16  1  0  0  0  0
 15 24  1  0  0  0  0
 16 17  2  0  0  0  0
 16 22  1  0  0  0  0
 17 18  1  0  0  0  0
 17 37  1  0  0  0  0
 18 19  1  0  0  0  0
 19 20  2  0  0  0  0
 20 21  1  0  0  0  0
 20 38  1  0  0  0  0
 22 23  1  0  0  0  0
 23 39  1  0  0  0  0
 23 40  1  0  0  0  0
 23 41  1  0  0  0  0
 24 25  1  0  0  0  0
 25 42  1  0  0  0  0
 25 43  1  0  0  0  0
 25 44  1  0  0  0  0
M  END
$$$$
ZINC03815334
  -OEChem-08230709403D

 32 34  0     0  0  0  0  0  0999 V2000
    4.7718    1.3603    1.1008 C   0  0  0  0  0  0  0  0  0  0  0  0
    3.5865    1.9528    0.7110 C   0  0  0  0  0  0  0  0  0  0  0  0
    3.5573    3.3065    0.4006 C   0  0  0  0  0  0  0  0  0  0  0  0
    4.7190    4.0627    0.4939 C   0  0  0  0  0  0  0  0  0  0  0  0
    5.9003    3.4652    0.8894 C   0  0  0  0  0  0  0  0  0  0  0  0
    5.9265    2.1150    1.1928 C   0  0  0  0  0  0  0  0  0  0  0  0
    7.4825    4.4930    1.0168 Br  0  0  0  0  0  0  0  0  0  0  0  0
    2.3609    3.9075    0.0009 N   0  0  0  0  0  0  0  0  0  0  0  0
    1.2363    3.1343   -0.2088 C   0  0  0  0  0  0  0  0  0  0  0  0
    0.3243    2.8722    0.8397 C   0  0  0  0  0  0  0  0  0  0  0  0
    0.5340    3.3900    2.1266 C   0  0  0  0  0  0  0  0  0  0  0  0
   -0.3623    3.1221    3.1205 C   0  0  0  0  0  0  0  0  0  0  0  0
   -1.4928    2.3319    2.8683 C   0  0  0  0  0  0  0  0  0  0  0  0
   -1.7213    1.8117    1.6151 C   0  0  0  0  0  0  0  0  0  0  0  0
   -0.8144    2.0734    0.5763 C   0  0  0  0  0  0  0  0  0  0  0  0
   -1.0233    1.5794   -0.6530 N   0  0  0  0  0  0  0  0  0  0  0  0
   -0.1933    1.8015   -1.6400 C   0  0  0  0  0  0  0  0  0  0  0  0
    0.9611    2.5824   -1.4691 C   0  0  0  0  0  0  0  0  0  0  0  0
    1.8478    2.8135   -2.5695 C   0  0  0  0  0  0  0  0  0  0  0  0
    2.5513    2.9968   -3.4424 N   0  0  0  0  0  0  0  0  0  0  0  0
   -2.3722    2.0775    3.8721 O   0  0  0  0  0  0  0  0  0  0  0  0
   -0.1565    3.6253    4.3669 O   0  0  0  0  0  0  0  0  0  0  0  0
    4.7957    0.3070    1.3382 H   0  0  0  0  0  0  0  0  0  0  0  0
    2.6841    1.3633    0.6438 H   0  0  0  0  0  0  0  0  0  0  0  0
    4.6986    5.1164    0.2578 H   0  0  0  0  0  0  0  0  0  0  0  0
    6.8510    1.6500    1.5017 H   0  0  0  0  0  0  0  0  0  0  0  0
    2.3203    4.8678   -0.1292 H   0  0  0  0  0  0  0  0  0  0  0  0
    1.4018    3.9997    2.3301 H   0  0  0  0  0  0  0  0  0  0  0  0
   -2.5950    1.2039    1.4315 H   0  0  0  0  0  0  0  0  0  0  0  0
   -0.4036    1.3775   -2.6107 H   0  0  0  0  0  0  0  0  0  0  0  0
   -2.1695    1.2798    4.3798 H   0  0  0  0  0  0  0  0  0  0  0  0
    0.3607    3.0470    4.9441 H   0  0  0  0  0  0  0  0  0  0  0  0
  1  6  2  0  0  0  0
  1  2  1  0  0  0  0
  1 23  1  0  0  0  0
  2  3  2  0  0  0  0
  2 24  1  0  0  0  0
  3  4  1  0  0  0  0
  3  8  1  0  0  0  0
  4  5  2  0  0  0  0
  4 25  1  0  0  0  0
  5  6  1  0  0  0  0
  5  7  1  0  0  0  0
  6 26  1  0  0  0  0
  8  9  1  0  0  0  0
  8 27  1  0  0  0  0
  9 18  2  0  0  0  0
  9 10  1  0  0  0  0
 10 15  2  0  0  0  0
 10 11  1  0  0  0  0
 11 12  2  0  0  0  0
 11 28  1  0  0  0  0
 12 13  1  0  0  0  0
 12 22  1  0  0  0  0
 13 14  2  0  0  0  0
 13 21  1  0  0  0  0
 14 15  1  0  0  0  0
 14 29  1  0  0  0  0
 15 16  1  0  0  0  0
 16 17  2  0  0  0  0
 17 18  1  0  0  0  0
 17 30  1  0  0  0  0
 18 19  1  0  0  0  0
 19 20  3  0  0  0  0
 21 31  1  0  0  0  0
 22 32  1  0  0  0  0
M  END
$$$$
ZINC03815335
  -OEChem-08230709403D

 30 32  0     0  0  0  0  0  0999 V2000
   -6.0201    2.6408    0.3621 C   0  0  0  0  0  0  0  0  0  0  0  0
   -4.8622    3.3875    0.4606 C   0  0  0  0  0  0  0  0  0  0  0  0
   -3.6714    2.8914   -0.0541 C   0  0  0  0  0  0  0  0  0  0  0  0
   -3.6499    1.6473   -0.6718 C   0  0  0  0  0  0  0  0  0  0  0  0
   -4.8103    0.9027   -0.7621 C   0  0  0  0  0  0  0  0  0  0  0  0
   -5.9950    1.4004   -0.2481 C   0  0  0  0  0  0  0  0  0  0  0  0
   -4.7814   -0.7943   -1.5958 Br  0  0  0  0  0  0  0  0  0  0  0  0
   -2.4981    3.6448    0.0442 N   0  0  0  0  0  0  0  0  0  0  0  0
   -1.2817    3.0110    0.1910 C   0  0  0  0  0  0  0  0  0  0  0  0
   -0.0713    3.7466    0.1754 C   0  0  0  0  0  0  0  0  0  0  0  0
   -0.0474    5.1361    0.0119 C   0  0  0  0  0  0  0  0  0  0  0  0
    1.1490    5.7910    0.0046 C   0  0  0  0  0  0  0  0  0  0  0  0
    2.3453    5.0959    0.1580 C   0  0  0  0  0  0  0  0  0  0  0  0
    2.3558    3.7422    0.3188 C   0  0  0  0  0  0  0  0  0  0  0  0
    1.1445    3.0375    0.3311 C   0  0  0  0  0  0  0  0  0  0  0  0
    1.0985    1.7058    0.4860 N   0  0  0  0  0  0  0  0  0  0  0  0
   -0.0525    1.0764    0.4925 C   0  0  0  0  0  0  0  0  0  0  0  0
   -1.2130    1.6955    0.3456 N   0  0  0  0  0  0  0  0  0  0  0  0
    3.6385    3.0213    0.4803 N   0  3  0  0  0  0  0  0  0  0  0  0
    4.6891    3.6376    0.4690 O   0  0  0  0  0  0  0  0  0  0  0  0
    3.6435    1.8119    0.6246 O   0  5  0  0  0  0  0  0  0  0  0  0
   -6.9462    3.0265    0.7620 H   0  0  0  0  0  0  0  0  0  0  0  0
   -4.8828    4.3561    0.9378 H   0  0  0  0  0  0  0  0  0  0  0  0
   -2.7266    1.2608   -1.0773 H   0  0  0  0  0  0  0  0  0  0  0  0
   -6.9019    0.8189   -0.3240 H   0  0  0  0  0  0  0  0  0  0  0  0
   -2.5393    4.6133    0.0092 H   0  0  0  0  0  0  0  0  0  0  0  0
   -0.9693    5.6857   -0.1079 H   0  0  0  0  0  0  0  0  0  0  0  0
    1.1684    6.8634   -0.1215 H   0  0  0  0  0  0  0  0  0  0  0  0
    3.2797    5.6374    0.1491 H   0  0  0  0  0  0  0  0  0  0  0  0
   -0.0528    0.0038    0.6190 H   0  0  0  0  0  0  0  0  0  0  0  0
  1  6  2  0  0  0  0
  1  2  1  0  0  0  0
  1 22  1  0  0  0  0
  2  3  2  0  0  0  0
  2 23  1  0  0  0  0
  3  4  1  0  0  0  0
  3  8  1  0  0  0  0
  4  5  2  0  0  0  0
  4 24  1  0  0  0  0
  5  6  1  0  0  0  0
  5  7  1  0  0  0  0
  6 25  1  0  0  0  0
  8  9  1  0  0  0  0
  8 26  1  0  0  0  0
  9 18  2  0  0  0  0
  9 10  1  0  0  0  0
 10 15  2  0  0  0  0
 10 11  1  0  0  0  0
 11 12  2  0  0  0  0
 11 27  1  0  0  0  0
 12 13  1  0  0  0  0
 12 28  1  0  0  0  0
 13 14  2  0  0  0  0
 13 29  1  0  0  0  0
 14 15  1  0  0  0  0
 14 19  1  0  0  0  0
 15 16  1  0  0  0  0
 16 17  2  0  0  0  0
 17 18  1  0  0  0  0
 17 30  1  0  0  0  0
 19 20  2  0  0  0  0
 19 21  1  0  0  0  0
M  CHG  2  19   1  21  -1
M  END
$$$$
ZINC03815336
  -OEChem-08230709403D

 39 42  0     0  0  0  0  0  0999 V2000
   -0.9738    1.7487   -0.6784 C   0  0  0  0  0  0  0  0  0  0  0  0
   -0.0172    1.0758    0.0598 C   0  0  0  0  0  0  0  0  0  0  0  0
    0.9185    1.7825    0.7924 C   0  0  0  0  0  0  0  0  0  0  0  0
    0.9078    3.1636    0.7802 C   0  0  0  0  0  0  0  0  0  0  0  0
   -0.0515    3.8425    0.0400 C   0  0  0  0  0  0  0  0  0  0  0  0
   -0.9938    3.1293   -0.6905 C   0  0  0  0  0  0  0  0  0  0  0  0
   -0.0690    5.2401    0.0304 N   0  0  0  0  0  0  0  0  0  0  0  0
    1.1166    5.9479    0.1269 C   0  0  0  0  0  0  0  0  0  0  0  0
    1.1115    7.3475    0.2348 C   0  0  0  0  0  0  0  0  0  0  0  0
    0.0864    8.3800    0.2938 C   0  0  0  0  0  0  0  0  0  0  0  0
    0.7198    9.5633    0.4096 C   0  0  0  0  0  0  0  0  0  0  0  0
    2.0727    9.3571    0.4339 N   0  0  0  0  0  0  0  0  0  0  0  0
    2.7404   10.0565    0.5103 H   0  0  0  0  0  0  0  0  0  0  0  0
    2.3457    8.0193    0.3345 C   0  0  0  0  0  0  0  0  0  0  0  0
    3.4661    7.2996    0.3123 N   0  0  0  0  0  0  0  0  0  0  0  0
    3.4223    5.9895    0.2050 C   0  0  0  0  0  0  0  0  0  0  0  0
    2.2878    5.3189    0.1141 N   0  0  0  0  0  0  0  0  0  0  0  0
    0.0049   10.8918    0.4956 C   0  0  0  0  0  0  0  0  0  0  0  0
   -1.4373   10.7014    0.0131 C   0  0  0  0  0  0  0  0  0  0  0  0
   -2.0643    9.5054    0.7353 C   0  0  0  0  0  0  0  0  0  0  0  0
   -1.4100    8.2114    0.2357 C   0  0  0  0  0  0  0  0  0  0  0  0
    1.9549    1.0449    1.6006 C   0  0  0  0  0  0  0  0  0  0  0  0
    1.7681   -0.3335    1.4518 F   0  0  0  0  0  0  0  0  0  0  0  0
    3.2326    1.3937    1.1501 F   0  0  0  0  0  0  0  0  0  0  0  0
    1.8260    1.3899    2.9503 F   0  0  0  0  0  0  0  0  0  0  0  0
   -1.7063    1.1937   -1.2458 H   0  0  0  0  0  0  0  0  0  0  0  0
   -0.0038   -0.0041    0.0675 H   0  0  0  0  0  0  0  0  0  0  0  0
    1.6418    3.7150    1.3492 H   0  0  0  0  0  0  0  0  0  0  0  0
   -1.7408    3.6542   -1.2674 H   0  0  0  0  0  0  0  0  0  0  0  0
   -0.9121    5.7141   -0.0439 H   0  0  0  0  0  0  0  0  0  0  0  0
    4.3516    5.4395    0.1911 H   0  0  0  0  0  0  0  0  0  0  0  0
    0.0026   11.2402    1.5284 H   0  0  0  0  0  0  0  0  0  0  0  0
    0.5096   11.6209   -0.1384 H   0  0  0  0  0  0  0  0  0  0  0  0
   -1.4398   10.5188   -1.0615 H   0  0  0  0  0  0  0  0  0  0  0  0
   -2.0145   11.6002    0.2302 H   0  0  0  0  0  0  0  0  0  0  0  0
   -3.1341    9.4755    0.5286 H   0  0  0  0  0  0  0  0  0  0  0  0
   -1.9038    9.6032    1.8090 H   0  0  0  0  0  0  0  0  0  0  0  0
   -1.7173    8.0187   -0.7922 H   0  0  0  0  0  0  0  0  0  0  0  0
   -1.7099    7.3795    0.8730 H   0  0  0  0  0  0  0  0  0  0  0  0
  1  6  2  0  0  0  0
  1  2  1  0  0  0  0
  1 26  1  0  0  0  0
  2  3  2  0  0  0  0
  2 27  1  0  0  0  0
  3  4  1  0  0  0  0
  3 22  1  0  0  0  0
  4  5  2  0  0  0  0
  4 28  1  0  0  0  0
  5  6  1  0  0  0  0
  5  7  1  0  0  0  0
  6 29  1  0  0  0  0
  7  8  1  0  0  0  0
  7 30  1  0  0  0  0
  8 17  2  0  0  0  0
  8  9  1  0  0  0  0
  9 14  2  0  0  0  0
  9 10  1  0  0  0  0
 10 21  1  0  0  0  0
 10 11  2  0  0  0  0
 11 12  1  0  0  0  0
 11 18  1  0  0  0  0
 12 13  1  0  0  0  0
 12 14  1  0  0  0  0
 14 15  1  0  0  0  0
 15 16  2  0  0  0  0
 16 17  1  0  0  0  0
 16 31  1  0  0  0  0
 18 19  1  0  0  0  0
 18 32  1  0  0  0  0
 18 33  1  0  0  0  0
 19 20  1  0  0  0  0
 19 34  1  0  0  0  0
 19 35  1  0  0  0  0
 20 21  1  0  0  0  0
 20 36  1  0  0  0  0
 20 37  1  0  0  0  0
 21 38  1  0  0  0  0
 21 39  1  0  0  0  0
 22 23  1  0  0  0  0
 22 24  1  0  0  0  0
 22 25  1  0  0  0  0
M  END
$$$$
ZINC03815337
  -OEChem-08230709403D

 47 49  0     0  0  0  0  0  0999 V2000
   -1.2884    0.9640   -3.7635 C   0  0  0  0  0  0  0  0  0  0  0  0
   -0.5534    1.7321   -2.6632 C   0  0  0  0  0  0  0  0  0  0  0  0
   -0.0085    3.0432   -3.2332 C   0  0  0  0  0  0  0  0  0  0  0  0
   -1.5083    2.0325   -1.5366 C   0  0  0  0  0  0  0  0  0  0  0  0
   -2.6270    2.8091   -1.7671 C   0  0  0  0  0  0  0  0  0  0  0  0
   -3.5036    3.0852   -0.7340 C   0  0  0  0  0  0  0  0  0  0  0  0
   -3.2635    2.5856    0.5331 C   0  0  0  0  0  0  0  0  0  0  0  0
   -2.1496    1.8045    0.7694 C   0  0  0  0  0  0  0  0  0  0  0  0
   -1.2641    1.5291   -0.2653 C   0  0  0  0  0  0  0  0  0  0  0  0
   -0.1336    0.7427   -0.0287 N   0  0  0  0  0  0  0  0  0  0  0  0
    1.1234    1.3130   -0.0626 C   0  0  0  0  0  0  0  0  0  0  0  0
    2.2768    0.5257   -0.2857 C   0  0  0  0  0  0  0  0  0  0  0  0
    2.1796   -0.8604   -0.4796 C   0  0  0  0  0  0  0  0  0  0  0  0
    3.3088   -1.5969   -0.6926 C   0  0  0  0  0  0  0  0  0  0  0  0
    4.5682   -0.9811   -0.7196 C   0  0  0  0  0  0  0  0  0  0  0  0
    4.6899    0.3780   -0.5418 C   0  0  0  0  0  0  0  0  0  0  0  0
    3.5438    1.1563   -0.3161 C   0  0  0  0  0  0  0  0  0  0  0  0
    3.6443    2.4800   -0.1258 N   0  0  0  0  0  0  0  0  0  0  0  0
    2.5946    3.2318    0.0872 C   0  0  0  0  0  0  0  0  0  0  0  0
    1.2991    2.6918    0.1289 C   0  0  0  0  0  0  0  0  0  0  0  0
    0.1691    3.5394    0.3640 C   0  0  0  0  0  0  0  0  0  0  0  0
   -0.7274    4.2118    0.5504 N   0  0  0  0  0  0  0  0  0  0  0  0
    5.6794   -1.7330   -0.9331 O   0  0  0  0  0  0  0  0  0  0  0  0
    6.9332   -1.0476   -0.9494 C   0  0  0  0  0  0  0  0  0  0  0  0
    3.2116   -2.9401   -0.8807 O   0  0  0  0  0  0  0  0  0  0  0  0
    1.9005   -3.5073   -0.8422 C   0  0  0  0  0  0  0  0  0  0  0  0
   -0.5978    0.7467   -4.5783 H   0  0  0  0  0  0  0  0  0  0  0  0
   -1.6766    0.0299   -3.3575 H   0  0  0  0  0  0  0  0  0  0  0  0
   -2.1144    1.5682   -4.1387 H   0  0  0  0  0  0  0  0  0  0  0  0
    0.2726    1.1279   -2.2880 H   0  0  0  0  0  0  0  0  0  0  0  0
    0.5151    3.5903   -2.4492 H   0  0  0  0  0  0  0  0  0  0  0  0
    0.6821    2.8259   -4.0480 H   0  0  0  0  0  0  0  0  0  0  0  0
   -0.8345    3.6474   -3.6084 H   0  0  0  0  0  0  0  0  0  0  0  0
   -2.8175    3.2008   -2.7554 H   0  0  0  0  0  0  0  0  0  0  0  0
   -4.3780    3.6921   -0.9171 H   0  0  0  0  0  0  0  0  0  0  0  0
   -3.9504    2.8029    1.3377 H   0  0  0  0  0  0  0  0  0  0  0  0
   -1.9651    1.4111    1.7581 H   0  0  0  0  0  0  0  0  0  0  0  0
   -0.2316   -0.2046    0.1554 H   0  0  0  0  0  0  0  0  0  0  0  0
    1.2138   -1.3433   -0.4609 H   0  0  0  0  0  0  0  0  0  0  0  0
    5.6647    0.8425   -0.5641 H   0  0  0  0  0  0  0  0  0  0  0  0
    2.7279    4.2933    0.2348 H   0  0  0  0  0  0  0  0  0  0  0  0
    7.0916   -0.5570    0.0110 H   0  0  0  0  0  0  0  0  0  0  0  0
    7.7359   -1.7628   -1.1289 H   0  0  0  0  0  0  0  0  0  0  0  0
    6.9284   -0.3002   -1.7428 H   0  0  0  0  0  0  0  0  0  0  0  0
    1.9650   -4.5830   -1.0061 H   0  0  0  0  0  0  0  0  0  0  0  0
    1.4496   -3.3145    0.1312 H   0  0  0  0  0  0  0  0  0  0  0  0
    1.2868   -3.0571   -1.6225 H   0  0  0  0  0  0  0  0  0  0  0  0
  1  2  1  0  0  0  0
  1 27  1  0  0  0  0
  1 28  1  0  0  0  0
  1 29  1  0  0  0  0
  2  3  1  0  0  0  0
  2  4  1  0  0  0  0
  2 30  1  0  0  0  0
  3 31  1  0  0  0  0
  3 32  1  0  0  0  0
  3 33  1  0  0  0  0
  4  9  2  0  0  0  0
  4  5  1  0  0  0  0
  5  6  2  0  0  0  0
  5 34  1  0  0  0  0
  6  7  1  0  0  0  0
  6 35  1  0  0  0  0
  7  8  2  0  0  0  0
  7 36  1  0  0  0  0
  8  9  1  0  0  0  0
  8 37  1  0  0  0  0
  9 10  1  0  0  0  0
 10 11  1  0  0  0  0
 10 38  1  0  0  0  0
 11 20  2  0  0  0  0
 11 12  1  0  0  0  0
 12 17  2  0  0  0  0
 12 13  1  0  0  0  0
 13 14  2  0  0  0  0
 13 39  1  0  0  0  0
 14 15  1  0  0  0  0
 14 25  1  0  0  0  0
 15 16  2  0  0  0  0
 15 23  1  0  0  0  0
 16 17  1  0  0  0  0
 16 40  1  0  0  0  0
 17 18  1  0  0  0  0
 18 19  2  0  0  0  0
 19 20  1  0  0  0  0
 19 41  1  0  0  0  0
 20 21  1  0  0  0  0
 21 22  3  0  0  0  0
 23 24  1  0  0  0  0
 24 42  1  0  0  0  0
 24 43  1  0  0  0  0
 24 44  1  0  0  0  0
 25 26  1  0  0  0  0
 26 45  1  0  0  0  0
 26 46  1  0  0  0  0
 26 47  1  0  0  0  0
M  END
$$$$
ZINC03815338
  -OEChem-08230709403D

 29 31  0     0  0  0  0  0  0999 V2000
   -1.9926    0.9752   -1.4774 C   0  0  0  0  0  0  0  0  0  0  0  0
   -0.9726    1.7492   -0.6827 C   0  0  0  0  0  0  0  0  0  0  0  0
   -0.0171    1.0758    0.0566 C   0  0  0  0  0  0  0  0  0  0  0  0
    0.9241    1.7820    0.7826 C   0  0  0  0  0  0  0  0  0  0  0  0
    0.9099    3.1631    0.7758 C   0  0  0  0  0  0  0  0  0  0  0  0
   -0.0515    3.8425    0.0387 C   0  0  0  0  0  0  0  0  0  0  0  0
   -0.9958    3.1298   -0.6897 C   0  0  0  0  0  0  0  0  0  0  0  0
   -0.0691    5.2400    0.0299 N   0  0  0  0  0  0  0  0  0  0  0  0
    1.1128    5.9455    0.1271 C   0  0  0  0  0  0  0  0  0  0  0  0
    1.1197    7.4026    0.2402 C   0  0  0  0  0  0  0  0  0  0  0  0
    2.3762    8.0486    0.3413 C   0  0  0  0  0  0  0  0  0  0  0  0
    2.3926    9.4496    0.4569 C   0  0  0  0  0  0  0  0  0  0  0  0
    1.2395   10.0879    0.4710 N   0  0  0  0  0  0  0  0  0  0  0  0
    0.0853    9.4431    0.3796 C   0  0  0  0  0  0  0  0  0  0  0  0
    0.0089    8.1348    0.2695 N   0  0  0  0  0  0  0  0  0  0  0  0
   -1.3865   10.3634    0.4055 Cl  0  0  0  0  0  0  0  0  0  0  0  0
    3.4873    7.3054    0.3176 N   0  0  0  0  0  0  0  0  0  0  0  0
    3.4224    6.0008    0.2087 C   0  0  0  0  0  0  0  0  0  0  0  0
    2.2873    5.3274    0.1157 N   0  0  0  0  0  0  0  0  0  0  0  0
   -2.8688    0.7857   -0.8573 H   0  0  0  0  0  0  0  0  0  0  0  0
   -2.2858    1.5537   -2.3535 H   0  0  0  0  0  0  0  0  0  0  0  0
   -1.5611    0.0264   -1.7963 H   0  0  0  0  0  0  0  0  0  0  0  0
   -0.0035   -0.0041    0.0634 H   0  0  0  0  0  0  0  0  0  0  0  0
    1.6716    1.2531    1.3553 H   0  0  0  0  0  0  0  0  0  0  0  0
    1.6452    3.7142    1.3434 H   0  0  0  0  0  0  0  0  0  0  0  0
   -1.7446    3.6550   -1.2640 H   0  0  0  0  0  0  0  0  0  0  0  0
   -0.9121    5.7139   -0.0444 H   0  0  0  0  0  0  0  0  0  0  0  0
    3.3255    9.9886    0.5319 H   0  0  0  0  0  0  0  0  0  0  0  0
    4.3477    5.4441    0.1937 H   0  0  0  0  0  0  0  0  0  0  0  0
  1  2  1  0  0  0  0
  1 20  1  0  0  0  0
  1 21  1  0  0  0  0
  1 22  1  0  0  0  0
  2  7  2  0  0  0  0
  2  3  1  0  0  0  0
  3  4  2  0  0  0  0
  3 23  1  0  0  0  0
  4  5  1  0  0  0  0
  4 24  1  0  0  0  0
  5  6  2  0  0  0  0
  5 25  1  0  0  0  0
  6  7  1  0  0  0  0
  6  8  1  0  0  0  0
  7 26  1  0  0  0  0
  8  9  1  0  0  0  0
  8 27  1  0  0  0  0
  9 19  2  0  0  0  0
  9 10  1  0  0  0  0
 10 15  2  0  0  0  0
 10 11  1  0  0  0  0
 11 12  2  0  0  0  0
 11 17  1  0  0  0  0
 12 13  1  0  0  0  0
 12 28  1  0  0  0  0
 13 14  2  0  0  0  0
 14 15  1  0  0  0  0
 14 16  1  0  0  0  0
 17 18  2  0  0  0  0
 18 19  1  0  0  0  0
 18 29  1  0  0  0  0
M  END
$$$$
ZINC03815339
  -OEChem-08230709403D

 40 43  0     1  0  0  0  0  0999 V2000
   -3.8674    7.0717   -5.5261 C   0  0  0  0  0  0  0  0  0  0  0  0
   -2.9709    5.9746   -5.7123 O   0  0  0  0  0  0  0  0  0  0  0  0
   -2.5619    5.3162   -4.5966 C   0  0  0  0  0  0  0  0  0  0  0  0
   -3.0162    5.7219   -3.3612 C   0  0  0  0  0  0  0  0  0  0  0  0
   -2.5931    5.0415   -2.2130 C   0  0  0  0  0  0  0  0  0  0  0  0
   -1.7039    3.9458   -2.3407 C   0  0  0  0  0  0  0  0  0  0  0  0
   -1.2569    3.5534   -3.6081 C   0  0  0  0  0  0  0  0  0  0  0  0
   -1.6826    4.2310   -4.7151 C   0  0  0  0  0  0  0  0  0  0  0  0
   -1.2486    3.8485   -5.9458 O   0  0  0  0  0  0  0  0  0  0  0  0
   -1.2941    3.2774   -1.1624 C   0  0  0  0  0  0  0  0  0  0  0  0
   -1.7673    3.7075   -0.0003 N   0  0  0  0  0  0  0  0  0  0  0  0
   -2.5931    4.7395    0.0710 C   0  0  0  0  0  0  0  0  0  0  0  0
   -3.0065    5.3966   -0.9862 N   0  0  0  0  0  0  0  0  0  0  0  0
   -0.4302    2.2035   -1.2215 N   0  0  0  0  0  0  0  0  0  0  0  0
   -0.0187    1.5258    0.0104 C   0  0  1  0  0  0  0  0  0  0  0  0
   -0.3072    2.0201    0.9381 H   0  0  0  0  0  0  0  0  0  0  0  0
    0.0021   -0.0041    0.0020 C   0  0  0  0  0  0  0  0  0  0  0  0
    1.3165    0.7789   -0.0063 C   0  0  1  0  0  0  0  0  0  0  0  0
    1.9064    0.7818    0.9103 H   0  0  0  0  0  0  0  0  0  0  0  0
    2.1077    0.7967   -1.2888 C   0  0  0  0  0  0  0  0  0  0  0  0
    1.5617    0.2715   -2.4451 C   0  0  0  0  0  0  0  0  0  0  0  0
    2.2858    0.2918   -3.6225 C   0  0  0  0  0  0  0  0  0  0  0  0
    3.5594    0.8290   -3.6415 C   0  0  0  0  0  0  0  0  0  0  0  0
    4.1074    1.3494   -2.4841 C   0  0  0  0  0  0  0  0  0  0  0  0
    3.3816    1.3331   -1.3077 C   0  0  0  0  0  0  0  0  0  0  0  0
   -4.7789    6.7183   -5.0440 H   0  0  0  0  0  0  0  0  0  0  0  0
   -3.3932    7.8259   -4.8982 H   0  0  0  0  0  0  0  0  0  0  0  0
   -4.1141    7.5076   -6.4942 H   0  0  0  0  0  0  0  0  0  0  0  0
   -3.6941    6.5586   -3.2788 H   0  0  0  0  0  0  0  0  0  0  0  0
   -0.5785    2.7193   -3.7100 H   0  0  0  0  0  0  0  0  0  0  0  0
   -0.4352    4.2874   -6.2299 H   0  0  0  0  0  0  0  0  0  0  0  0
   -2.9452    5.0522    1.0429 H   0  0  0  0  0  0  0  0  0  0  0  0
   -0.0951    1.8971   -2.0787 H   0  0  0  0  0  0  0  0  0  0  0  0
   -0.2728   -0.5162    0.9241 H   0  0  0  0  0  0  0  0  0  0  0  0
   -0.2904   -0.5063   -0.9201 H   0  0  0  0  0  0  0  0  0  0  0  0
    0.5682   -0.1516   -2.4294 H   0  0  0  0  0  0  0  0  0  0  0  0
    1.8575   -0.1145   -4.5269 H   0  0  0  0  0  0  0  0  0  0  0  0
    4.1261    0.8424   -4.5608 H   0  0  0  0  0  0  0  0  0  0  0  0
    5.1024    1.7691   -2.4989 H   0  0  0  0  0  0  0  0  0  0  0  0
    3.8098    1.7397   -0.4033 H   0  0  0  0  0  0  0  0  0  0  0  0
  1  2  1  0  0  0  0
  1 26  1  0  0  0  0
  1 27  1  0  0  0  0
  1 28  1  0  0  0  0
  2  3  1  0  0  0  0
  3  8  2  0  0  0  0
  3  4  1  0  0  0  0
  4  5  2  0  0  0  0
  4 29  1  0  0  0  0
  5 13  1  0  0  0  0
  5  6  1  0  0  0  0
  6  7  2  0  0  0  0
  6 10  1  0  0  0  0
  7  8  1  0  0  0  0
  7 30  1  0  0  0  0
  8  9  1  0  0  0  0
  9 31  1  0  0  0  0
 10 11  2  0  0  0  0
 10 14  1  0  0  0  0
 11 12  1  0  0  0  0
 12 13  2  0  0  0  0
 12 32  1  0  0  0  0
 14 15  1  0  0  0  0
 14 33  1  0  0  0  0
 15 16  1  0  0  0  0
 15 18  1  0  0  0  0
 15 17  1  0  0  0  0
 17 18  1  0  0  0  0
 17 34  1  0  0  0  0
 17 35  1  0  0  0  0
 18 19  1  0  0  0  0
 18 20  1  0  0  0  0
 20 25  2  0  0  0  0
 20 21  1  0  0  0  0
 21 22  2  0  0  0  0
 21 36  1  0  0  0  0
 22 23  1  0  0  0  0
 22 37  1  0  0  0  0
 23 24  2  0  0  0  0
 23 38  1  0  0  0  0
 24 25  1  0  0  0  0
 24 39  1  0  0  0  0
 25 40  1  0  0  0  0
M  END
$$$$
ZINC03815340
  -OEChem-08230709403D

 38 41  0     1  0  0  0  0  0999 V2000
    5.1987    0.7636   -1.4795 C   0  0  0  0  0  0  0  0  0  0  0  0
    4.8500    1.1367   -0.0372 C   0  0  1  0  0  0  0  0  0  0  0  0
    4.7078    0.2286    0.5487 H   0  0  0  0  0  0  0  0  0  0  0  0
    5.9726    1.9475    0.5573 C   0  0  0  0  0  0  0  0  0  0  0  0
    6.0818    3.2944    0.2662 C   0  0  0  0  0  0  0  0  0  0  0  0
    7.1090    4.0391    0.8150 C   0  0  0  0  0  0  0  0  0  0  0  0
    8.0323    3.4349    1.6477 C   0  0  0  0  0  0  0  0  0  0  0  0
    7.9261    2.0868    1.9347 C   0  0  0  0  0  0  0  0  0  0  0  0
    6.8964    1.3430    1.3893 C   0  0  0  0  0  0  0  0  0  0  0  0
    3.6161    1.9261   -0.0217 N   0  0  0  0  0  0  0  0  0  0  0  0
    2.3851    1.2883   -0.0138 C   0  0  0  0  0  0  0  0  0  0  0  0
    1.1960    2.0301    0.0015 C   0  0  0  0  0  0  0  0  0  0  0  0
   -0.0160    1.3287    0.0093 C   0  0  0  0  0  0  0  0  0  0  0  0
   -1.0827    2.3415    0.0308 C   0  0  0  0  0  0  0  0  0  0  0  0
   -2.4752    2.2693    0.0378 C   0  0  0  0  0  0  0  0  0  0  0  0
   -3.2205    3.4272    0.0511 C   0  0  0  0  0  0  0  0  0  0  0  0
   -2.5917    4.6637    0.0522 C   0  0  0  0  0  0  0  0  0  0  0  0
   -1.2172    4.7511    0.0396 C   0  0  0  0  0  0  0  0  0  0  0  0
   -0.4451    3.5925    0.0256 C   0  0  0  0  0  0  0  0  0  0  0  0
    0.9207    3.3844    0.0115 N   0  0  0  0  0  0  0  0  0  0  0  0
    1.5894    4.0870    0.0083 H   0  0  0  0  0  0  0  0  0  0  0  0
    0.0021   -0.0041    0.0020 N   0  0  0  0  0  0  0  0  0  0  0  0
    1.1435   -0.6578   -0.0124 C   0  0  0  0  0  0  0  0  0  0  0  0
    2.3095   -0.0380   -0.0202 N   0  0  0  0  0  0  0  0  0  0  0  0
    6.1168    0.1762   -1.4911 H   0  0  0  0  0  0  0  0  0  0  0  0
    4.3867    0.1772   -1.9095 H   0  0  0  0  0  0  0  0  0  0  0  0
    5.3409    1.6717   -2.0654 H   0  0  0  0  0  0  0  0  0  0  0  0
    5.3627    3.7656   -0.3874 H   0  0  0  0  0  0  0  0  0  0  0  0
    7.1918    5.0924    0.5911 H   0  0  0  0  0  0  0  0  0  0  0  0
    8.8364    4.0161    2.0744 H   0  0  0  0  0  0  0  0  0  0  0  0
    8.6474    1.6147    2.5852 H   0  0  0  0  0  0  0  0  0  0  0  0
    6.8135    0.2898    1.6134 H   0  0  0  0  0  0  0  0  0  0  0  0
    3.6602    2.8951   -0.0169 H   0  0  0  0  0  0  0  0  0  0  0  0
   -2.9676    1.3081    0.0369 H   0  0  0  0  0  0  0  0  0  0  0  0
   -4.2991    3.3723    0.0603 H   0  0  0  0  0  0  0  0  0  0  0  0
   -3.1852    5.5660    0.0627 H   0  0  0  0  0  0  0  0  0  0  0  0
   -0.7380    5.7190    0.0403 H   0  0  0  0  0  0  0  0  0  0  0  0
    1.1264   -1.7377   -0.0177 H   0  0  0  0  0  0  0  0  0  0  0  0
  1  2  1  0  0  0  0
  1 25  1  0  0  0  0
  1 26  1  0  0  0  0
  1 27  1  0  0  0  0
  2  3  1  0  0  0  0
  2  4  1  0  0  0  0
  2 10  1  0  0  0  0
  4  9  2  0  0  0  0
  4  5  1  0  0  0  0
  5  6  2  0  0  0  0
  5 28  1  0  0  0  0
  6  7  1  0  0  0  0
  6 29  1  0  0  0  0
  7  8  2  0  0  0  0
  7 30  1  0  0  0  0
  8  9  1  0  0  0  0
  8 31  1  0  0  0  0
  9 32  1  0  0  0  0
 10 11  1  0  0  0  0
 10 33  1  0  0  0  0
 11 24  2  0  0  0  0
 11 12  1  0  0  0  0
 12 20  1  0  0  0  0
 12 13  2  0  0  0  0
 13 14  1  0  0  0  0
 13 22  1  0  0  0  0
 14 19  2  0  0  0  0
 14 15  1  0  0  0  0
 15 16  2  0  0  0  0
 15 34  1  0  0  0  0
 16 17  1  0  0  0  0
 16 35  1  0  0  0  0
 17 18  2  0  0  0  0
 17 36  1  0  0  0  0
 18 19  1  0  0  0  0
 18 37  1  0  0  0  0
 19 20  1  0  0  0  0
 20 21  1  0  0  0  0
 22 23  2  0  0  0  0
 23 24  1  0  0  0  0
 23 38  1  0  0  0  0
M  END
$$$$
ZINC03815341
  -OEChem-08230709403D

 37 40  0     0  0  0  0  0  0999 V2000
   -0.9806    1.7549   -0.6838 C   0  0  0  0  0  0  0  0  0  0  0  0
   -0.9948    3.1364   -0.6924 C   0  0  0  0  0  0  0  0  0  0  0  0
   -0.0507    3.8461    0.0392 C   0  0  0  0  0  0  0  0  0  0  0  0
    0.9065    3.1651    0.7791 C   0  0  0  0  0  0  0  0  0  0  0  0
    0.9133    1.7794    0.7899 C   0  0  0  0  0  0  0  0  0  0  0  0
   -0.0289    1.0756    0.0524 C   0  0  0  0  0  0  0  0  0  0  0  0
    1.8452    1.1098    1.5180 O   0  0  0  0  0  0  0  0  0  0  0  0
   -0.0643    5.2437    0.0299 N   0  0  0  0  0  0  0  0  0  0  0  0
    1.1234    5.9480    0.1268 C   0  0  0  0  0  0  0  0  0  0  0  0
    1.1223    7.3476    0.2351 C   0  0  0  0  0  0  0  0  0  0  0  0
    0.1001    8.3830    0.2940 C   0  0  0  0  0  0  0  0  0  0  0  0
    0.7370    9.5645    0.4100 C   0  0  0  0  0  0  0  0  0  0  0  0
    2.0892    9.3544    0.4339 N   0  0  0  0  0  0  0  0  0  0  0  0
    2.7589   10.0519    0.5107 H   0  0  0  0  0  0  0  0  0  0  0  0
    2.3584    8.0159    0.3343 C   0  0  0  0  0  0  0  0  0  0  0  0
    3.4767    7.2930    0.3121 N   0  0  0  0  0  0  0  0  0  0  0  0
    3.4292    5.9830    0.2049 C   0  0  0  0  0  0  0  0  0  0  0  0
    2.2928    5.3157    0.1141 N   0  0  0  0  0  0  0  0  0  0  0  0
    0.0259   10.8951    0.4962 C   0  0  0  0  0  0  0  0  0  0  0  0
   -1.4170   10.7088    0.0142 C   0  0  0  0  0  0  0  0  0  0  0  0
   -2.0472    9.5145    0.7363 C   0  0  0  0  0  0  0  0  0  0  0  0
   -1.3967    8.2187    0.2362 C   0  0  0  0  0  0  0  0  0  0  0  0
   -1.7151    1.2049   -1.2534 H   0  0  0  0  0  0  0  0  0  0  0  0
   -1.7399    3.6649   -1.2684 H   0  0  0  0  0  0  0  0  0  0  0  0
    1.6414    3.7142    1.3490 H   0  0  0  0  0  0  0  0  0  0  0  0
   -0.0209   -0.0043    0.0577 H   0  0  0  0  0  0  0  0  0  0  0  0
    2.6590    0.9166    1.0329 H   0  0  0  0  0  0  0  0  0  0  0  0
   -0.9060    5.7200   -0.0444 H   0  0  0  0  0  0  0  0  0  0  0  0
    4.3570    5.4303    0.1909 H   0  0  0  0  0  0  0  0  0  0  0  0
    0.0246   11.2433    1.5291 H   0  0  0  0  0  0  0  0  0  0  0  0
    0.5327   11.6227   -0.1377 H   0  0  0  0  0  0  0  0  0  0  0  0
   -1.4202   10.5265   -1.0605 H   0  0  0  0  0  0  0  0  0  0  0  0
   -1.9916   11.6092    0.2316 H   0  0  0  0  0  0  0  0  0  0  0  0
   -3.1171    9.4877    0.5298 H   0  0  0  0  0  0  0  0  0  0  0  0
   -1.8862    9.6116    1.8100 H   0  0  0  0  0  0  0  0  0  0  0  0
   -1.7048    8.0271   -0.7916 H   0  0  0  0  0  0  0  0  0  0  0  0
   -1.6989    7.3875    0.8734 H   0  0  0  0  0  0  0  0  0  0  0  0
  1  6  2  0  0  0  0
  1  2  1  0  0  0  0
  1 23  1  0  0  0  0
  2  3  2  0  0  0  0
  2 24  1  0  0  0  0
  3  4  1  0  0  0  0
  3  8  1  0  0  0  0
  4  5  2  0  0  0  0
  4 25  1  0  0  0  0
  5  6  1  0  0  0  0
  5  7  1  0  0  0  0
  6 26  1  0  0  0  0
  7 27  1  0  0  0  0
  8  9  1  0  0  0  0
  8 28  1  0  0  0  0
  9 18  2  0  0  0  0
  9 10  1  0  0  0  0
 10 15  2  0  0  0  0
 10 11  1  0  0  0  0
 11 22  1  0  0  0  0
 11 12  2  0  0  0  0
 12 13  1  0  0  0  0
 12 19  1  0  0  0  0
 13 14  1  0  0  0  0
 13 15  1  0  0  0  0
 15 16  1  0  0  0  0
 16 17  2  0  0  0  0
 17 18  1  0  0  0  0
 17 29  1  0  0  0  0
 19 20  1  0  0  0  0
 19 30  1  0  0  0  0
 19 31  1  0  0  0  0
 20 21  1  0  0  0  0
 20 32  1  0  0  0  0
 20 33  1  0  0  0  0
 21 22  1  0  0  0  0
 21 34  1  0  0  0  0
 21 35  1  0  0  0  0
 22 36  1  0  0  0  0
 22 37  1  0  0  0  0
M  END
$$$$
ZINC03815342
  -OEChem-08230709403D

 38 40  0     0  0  0  0  0  0999 V2000
   -0.1619    7.8492    0.0472 C   0  0  0  0  0  0  0  0  0  0  0  0
    1.1124    7.2026    0.0316 O   0  0  0  0  0  0  0  0  0  0  0  0
    1.1146    5.8427    0.0238 C   0  0  0  0  0  0  0  0  0  0  0  0
   -0.0716    5.1653    0.0310 C   0  0  0  0  0  0  0  0  0  0  0  0
   -0.0704    3.7653    0.0230 C   0  0  0  0  0  0  0  0  0  0  0  0
    1.1583    3.0599    0.0075 C   0  0  0  0  0  0  0  0  0  0  0  0
    2.3622    3.7746    0.0003 C   0  0  0  0  0  0  0  0  0  0  0  0
    2.3341    5.1517    0.0089 C   0  0  0  0  0  0  0  0  0  0  0  0
    3.5007    5.8476    0.0024 O   0  0  0  0  0  0  0  0  0  0  0  0
    4.7101    5.0865   -0.0128 C   0  0  0  0  0  0  0  0  0  0  0  0
    1.1312    1.7178    0.0005 N   0  0  0  0  0  0  0  0  0  0  0  0
   -0.0126    1.0758    0.0080 C   0  0  0  0  0  0  0  0  0  0  0  0
   -1.1840    1.6921    0.0170 N   0  0  0  0  0  0  0  0  0  0  0  0
   -1.2708    3.0156    0.0304 C   0  0  0  0  0  0  0  0  0  0  0  0
   -2.4985    3.6447    0.0450 N   0  0  0  0  0  0  0  0  0  0  0  0
   -3.6752    2.8843    0.0521 N   0  0  0  0  0  0  0  0  0  0  0  0
   -4.9195    3.5218    0.0669 C   0  0  0  0  0  0  0  0  0  0  0  0
   -4.9900    4.9090    0.0803 C   0  0  0  0  0  0  0  0  0  0  0  0
   -6.2200    5.5373    0.0901 C   0  0  0  0  0  0  0  0  0  0  0  0
   -7.3827    4.7856    0.0971 C   0  0  0  0  0  0  0  0  0  0  0  0
   -7.3152    3.4017    0.0891 C   0  0  0  0  0  0  0  0  0  0  0  0
   -6.0862    2.7691    0.0740 C   0  0  0  0  0  0  0  0  0  0  0  0
   -8.7748    2.4619    0.0974 Cl  0  0  0  0  0  0  0  0  0  0  0  0
   -8.5846    5.4024    0.1114 F   0  0  0  0  0  0  0  0  0  0  0  0
   -0.7267    7.5605   -0.8392 H   0  0  0  0  0  0  0  0  0  0  0  0
   -0.7101    7.5503    0.9407 H   0  0  0  0  0  0  0  0  0  0  0  0
   -0.0208    8.9300    0.0521 H   0  0  0  0  0  0  0  0  0  0  0  0
   -1.0058    5.7071    0.0425 H   0  0  0  0  0  0  0  0  0  0  0  0
    3.3061    3.2499   -0.0112 H   0  0  0  0  0  0  0  0  0  0  0  0
    4.7519    4.4530    0.8732 H   0  0  0  0  0  0  0  0  0  0  0  0
    4.7359    4.4632   -0.9066 H   0  0  0  0  0  0  0  0  0  0  0  0
    5.5650    5.7627   -0.0166 H   0  0  0  0  0  0  0  0  0  0  0  0
    0.0021   -0.0041    0.0020 H   0  0  0  0  0  0  0  0  0  0  0  0
   -2.5471    4.6135    0.0503 H   0  0  0  0  0  0  0  0  0  0  0  0
   -3.6266    1.9155    0.0468 H   0  0  0  0  0  0  0  0  0  0  0  0
   -4.0835    5.4960    0.0789 H   0  0  0  0  0  0  0  0  0  0  0  0
   -6.2747    6.6159    0.0967 H   0  0  0  0  0  0  0  0  0  0  0  0
   -6.0335    1.6904    0.0680 H   0  0  0  0  0  0  0  0  0  0  0  0
  1  2  1  0  0  0  0
  1 25  1  0  0  0  0
  1 26  1  0  0  0  0
  1 27  1  0  0  0  0
  2  3  1  0  0  0  0
  3  8  2  0  0  0  0
  3  4  1  0  0  0  0
  4  5  2  0  0  0  0
  4 28  1  0  0  0  0
  5 14  1  0  0  0  0
  5  6  1  0  0  0  0
  6  7  2  0  0  0  0
  6 11  1  0  0  0  0
  7  8  1  0  0  0  0
  7 29  1  0  0  0  0
  8  9  1  0  0  0  0
  9 10  1  0  0  0  0
 10 30  1  0  0  0  0
 10 31  1  0  0  0  0
 10 32  1  0  0  0  0
 11 12  2  0  0  0  0
 12 13  1  0  0  0  0
 12 33  1  0  0  0  0
 13 14  2  0  0  0  0
 14 15  1  0  0  0  0
 15 16  1  0  0  0  0
 15 34  1  0  0  0  0
 16 17  1  0  0  0  0
 16 35  1  0  0  0  0
 17 22  2  0  0  0  0
 17 18  1  0  0  0  0
 18 19  2  0  0  0  0
 18 36  1  0  0  0  0
 19 20  1  0  0  0  0
 19 37  1  0  0  0  0
 20 21  2  0  0  0  0
 20 24  1  0  0  0  0
 21 22  1  0  0  0  0
 21 23  1  0  0  0  0
 22 38  1  0  0  0  0
M  END
$$$$
ZINC03815343
  -OEChem-08230709403D

 30 32  0     0  0  0  0  0  0999 V2000
   -6.0203    2.6432    0.3634 C   0  0  0  0  0  0  0  0  0  0  0  0
   -4.8620    3.3893    0.4623 C   0  0  0  0  0  0  0  0  0  0  0  0
   -3.6714    2.8929   -0.0528 C   0  0  0  0  0  0  0  0  0  0  0  0
   -3.6506    1.6490   -0.6710 C   0  0  0  0  0  0  0  0  0  0  0  0
   -4.8116    0.9055   -0.7626 C   0  0  0  0  0  0  0  0  0  0  0  0
   -5.9959    1.4033   -0.2477 C   0  0  0  0  0  0  0  0  0  0  0  0
   -4.7839   -0.7904   -1.5986 Br  0  0  0  0  0  0  0  0  0  0  0  0
   -2.4979    3.6458    0.0455 N   0  0  0  0  0  0  0  0  0  0  0  0
   -1.2810    3.0112    0.1919 C   0  0  0  0  0  0  0  0  0  0  0  0
   -0.0703    3.7466    0.1763 C   0  0  0  0  0  0  0  0  0  0  0  0
   -0.0483    5.1368    0.0131 C   0  0  0  0  0  0  0  0  0  0  0  0
    1.1437    5.7994    0.0046 C   0  0  0  0  0  0  0  0  0  0  0  0
    2.3449    5.1145    0.1559 C   0  0  0  0  0  0  0  0  0  0  0  0
    2.3611    3.7446    0.3189 C   0  0  0  0  0  0  0  0  0  0  0  0
    1.1439    3.0369    0.3314 C   0  0  0  0  0  0  0  0  0  0  0  0
    1.0982    1.7060    0.4857 N   0  0  0  0  0  0  0  0  0  0  0  0
   -0.0524    1.0762    0.4923 C   0  0  0  0  0  0  0  0  0  0  0  0
   -1.2130    1.6959    0.3455 N   0  0  0  0  0  0  0  0  0  0  0  0
    3.5718    3.0672    0.4701 N   0  0  0  0  0  0  0  0  0  0  0  0
   -6.9462    3.0292    0.7635 H   0  0  0  0  0  0  0  0  0  0  0  0
   -4.8820    4.3576    0.9402 H   0  0  0  0  0  0  0  0  0  0  0  0
   -2.7274    1.2622   -1.0765 H   0  0  0  0  0  0  0  0  0  0  0  0
   -6.9030    0.8221   -0.3237 H   0  0  0  0  0  0  0  0  0  0  0  0
   -2.5387    4.6143    0.0109 H   0  0  0  0  0  0  0  0  0  0  0  0
   -0.9725    5.6829   -0.1059 H   0  0  0  0  0  0  0  0  0  0  0  0
    1.1551    6.8720   -0.1213 H   0  0  0  0  0  0  0  0  0  0  0  0
    3.2760    5.6616    0.1458 H   0  0  0  0  0  0  0  0  0  0  0  0
   -0.0526    0.0036    0.6188 H   0  0  0  0  0  0  0  0  0  0  0  0
    3.5776    2.1039    0.5845 H   0  0  0  0  0  0  0  0  0  0  0  0
    4.4075    3.5595    0.4608 H   0  0  0  0  0  0  0  0  0  0  0  0
  1  6  2  0  0  0  0
  1  2  1  0  0  0  0
  1 20  1  0  0  0  0
  2  3  2  0  0  0  0
  2 21  1  0  0  0  0
  3  4  1  0  0  0  0
  3  8  1  0  0  0  0
  4  5  2  0  0  0  0
  4 22  1  0  0  0  0
  5  6  1  0  0  0  0
  5  7  1  0  0  0  0
  6 23  1  0  0  0  0
  8  9  1  0  0  0  0
  8 24  1  0  0  0  0
  9 18  2  0  0  0  0
  9 10  1  0  0  0  0
 10 15  2  0  0  0  0
 10 11  1  0  0  0  0
 11 12  2  0  0  0  0
 11 25  1  0  0  0  0
 12 13  1  0  0  0  0
 12 26  1  0  0  0  0
 13 14  2  0  0  0  0
 13 27  1  0  0  0  0
 14 15  1  0  0  0  0
 14 19  1  0  0  0  0
 15 16  1  0  0  0  0
 16 17  2  0  0  0  0
 17 18  1  0  0  0  0
 17 28  1  0  0  0  0
 19 29  1  0  0  0  0
 19 30  1  0  0  0  0
M  END
$$$$
ZINC03815344
  -OEChem-08230709403D

 39 42  0     0  0  0  0  0  0999 V2000
    2.4816   -4.2588   -0.7453 C   0  0  0  0  0  0  0  0  0  0  0  0
    1.0961   -3.9713   -0.5465 O   0  0  0  0  0  0  0  0  0  0  0  0
    0.7514   -2.6630   -0.4003 C   0  0  0  0  0  0  0  0  0  0  0  0
    1.7271   -1.6979   -0.4495 C   0  0  0  0  0  0  0  0  0  0  0  0
    1.3981   -0.3308   -0.3004 C   0  0  0  0  0  0  0  0  0  0  0  0
    0.0425   -0.0199   -0.1035 C   0  0  0  0  0  0  0  0  0  0  0  0
   -0.9361   -0.9915   -0.0549 C   0  0  0  0  0  0  0  0  0  0  0  0
   -0.5884   -2.3238   -0.2033 C   0  0  0  0  0  0  0  0  0  0  0  0
   -1.5421   -3.2915   -0.1580 O   0  0  0  0  0  0  0  0  0  0  0  0
   -2.8904   -2.8645    0.0466 C   0  0  0  0  0  0  0  0  0  0  0  0
    0.0087    1.7494    0.0391 S   0  0  0  0  0  0  0  0  0  0  0  0
    1.7382    2.0804   -0.1552 C   0  0  0  0  0  0  0  0  0  0  0  0
    2.3224    0.8193   -0.3281 C   0  0  0  0  0  0  0  0  0  0  0  0
    3.6633    0.8042   -0.5004 N   0  0  0  0  0  0  0  0  0  0  0  0
    4.3626    1.9114   -0.5032 C   0  0  0  0  0  0  0  0  0  0  0  0
    3.8276    3.1076   -0.3417 N   0  0  0  0  0  0  0  0  0  0  0  0
    2.5124    3.2322   -0.1641 C   0  0  0  0  0  0  0  0  0  0  0  0
    1.9325    4.4808    0.0077 N   0  0  0  0  0  0  0  0  0  0  0  0
    2.7390    5.6175    0.1116 C   0  0  0  0  0  0  0  0  0  0  0  0
    2.2892    6.8374   -0.3784 C   0  0  0  0  0  0  0  0  0  0  0  0
    3.0880    7.9589   -0.2739 C   0  0  0  0  0  0  0  0  0  0  0  0
    4.3348    7.8693    0.3177 C   0  0  0  0  0  0  0  0  0  0  0  0
    4.7862    6.6563    0.8068 C   0  0  0  0  0  0  0  0  0  0  0  0
    3.9893    5.5312    0.7100 C   0  0  0  0  0  0  0  0  0  0  0  0
    6.4918    6.5393    1.6148 Br  0  0  0  0  0  0  0  0  0  0  0  0
    2.6184   -5.3354   -0.8469 H   0  0  0  0  0  0  0  0  0  0  0  0
    2.8297   -3.7613   -1.6506 H   0  0  0  0  0  0  0  0  0  0  0  0
    3.0537   -3.8989    0.1098 H   0  0  0  0  0  0  0  0  0  0  0  0
    2.7565   -1.9861   -0.6031 H   0  0  0  0  0  0  0  0  0  0  0  0
   -1.9687   -0.7142    0.0979 H   0  0  0  0  0  0  0  0  0  0  0  0
   -2.9639   -2.3360    0.9971 H   0  0  0  0  0  0  0  0  0  0  0  0
   -3.1874   -2.1983   -0.7634 H   0  0  0  0  0  0  0  0  0  0  0  0
   -3.5483   -3.7334    0.0621 H   0  0  0  0  0  0  0  0  0  0  0  0
    5.4310    1.8426   -0.6453 H   0  0  0  0  0  0  0  0  0  0  0  0
    0.9674    4.5649    0.0557 H   0  0  0  0  0  0  0  0  0  0  0  0
    1.3158    6.9083   -0.8409 H   0  0  0  0  0  0  0  0  0  0  0  0
    2.7384    8.9073   -0.6544 H   0  0  0  0  0  0  0  0  0  0  0  0
    4.9573    8.7482    0.3984 H   0  0  0  0  0  0  0  0  0  0  0  0
    4.3400    4.5854    1.0958 H   0  0  0  0  0  0  0  0  0  0  0  0
  1  2  1  0  0  0  0
  1 26  1  0  0  0  0
  1 27  1  0  0  0  0
  1 28  1  0  0  0  0
  2  3  1  0  0  0  0
  3  8  2  0  0  0  0
  3  4  1  0  0  0  0
  4  5  2  0  0  0  0
  4 29  1  0  0  0  0
  5 13  1  0  0  0  0
  5  6  1  0  0  0  0
  6  7  2  0  0  0  0
  6 11  1  0  0  0  0
  7  8  1  0  0  0  0
  7 30  1  0  0  0  0
  8  9  1  0  0  0  0
  9 10  1  0  0  0  0
 10 31  1  0  0  0  0
 10 32  1  0  0  0  0
 10 33  1  0  0  0  0
 11 12  1  0  0  0  0
 12 17  2  0  0  0  0
 12 13  1  0  0  0  0
 13 14  2  0  0  0  0
 14 15  1  0  0  0  0
 15 16  2  0  0  0  0
 15 34  1  0  0  0  0
 16 17  1  0  0  0  0
 17 18  1  0  0  0  0
 18 19  1  0  0  0  0
 18 35  1  0  0  0  0
 19 24  2  0  0  0  0
 19 20  1  0  0  0  0
 20 21  2  0  0  0  0
 20 36  1  0  0  0  0
 21 22  1  0  0  0  0
 21 37  1  0  0  0  0
 22 23  2  0  0  0  0
 22 38  1  0  0  0  0
 23 24  1  0  0  0  0
 23 25  1  0  0  0  0
 24 39  1  0  0  0  0
M  END
$$$$
ZINC03815345
  -OEChem-08230709403D

 45 47  0     0  0  0  0  0  0999 V2000
   -4.5485    1.9602   -6.0776 C   0  0  0  0  0  0  0  0  0  0  0  0
   -3.1559    1.3311   -5.9996 C   0  0  0  0  0  0  0  0  0  0  0  0
   -2.2974    1.8479   -7.1558 C   0  0  0  0  0  0  0  0  0  0  0  0
   -3.2778   -0.1910   -6.0954 C   0  0  0  0  0  0  0  0  0  0  0  0
   -2.5280    1.6915   -4.7260 N   0  0  0  0  0  0  0  0  0  0  0  0
   -3.1107    1.3377   -3.5634 C   0  0  0  0  0  0  0  0  0  0  0  0
   -4.1574    0.7195   -3.5715 O   0  0  0  0  0  0  0  0  0  0  0  0
   -2.5330    1.6692   -2.3917 N   0  0  0  0  0  0  0  0  0  0  0  0
   -3.1329    1.3050   -1.1949 C   0  0  0  0  0  0  0  0  0  0  0  0
   -2.5145    1.6602    0.0229 C   0  0  0  0  0  0  0  0  0  0  0  0
   -3.1074    1.2933    1.2204 C   0  0  0  0  0  0  0  0  0  0  0  0
   -4.3186    0.5841    1.1654 C   0  0  0  0  0  0  0  0  0  0  0  0
   -4.9933    0.1754    2.3286 C   0  0  0  0  0  0  0  0  0  0  0  0
   -6.1228   -0.4907    2.1988 N   0  0  0  0  0  0  0  0  0  0  0  0
   -6.6252   -0.7770    0.9997 C   0  0  0  0  0  0  0  0  0  0  0  0
   -6.0348   -0.4190   -0.1247 N   0  0  0  0  0  0  0  0  0  0  0  0
   -4.8821    0.2616   -0.0970 C   0  0  0  0  0  0  0  0  0  0  0  0
   -4.2668    0.6349   -1.2206 N   0  0  0  0  0  0  0  0  0  0  0  0
   -7.8138   -1.4786    0.9296 N   0  0  0  0  0  0  0  0  0  0  0  0
   -1.2380    2.4142    0.0210 C   0  0  0  0  0  0  0  0  0  0  0  0
   -1.2484    3.8090    0.0341 C   0  0  0  0  0  0  0  0  0  0  0  0
   -0.0556    4.5057    0.0264 C   0  0  0  0  0  0  0  0  0  0  0  0
    1.1473    3.8231    0.0117 C   0  0  0  0  0  0  0  0  0  0  0  0
    1.1644    2.4401    0.0040 C   0  0  0  0  0  0  0  0  0  0  0  0
   -0.0215    1.7317    0.0116 C   0  0  0  0  0  0  0  0  0  0  0  0
    0.0021   -0.0041    0.0020 Cl  0  0  0  0  0  0  0  0  0  0  0  0
   -2.7571    4.6675    0.0520 Cl  0  0  0  0  0  0  0  0  0  0  0  0
   -4.4616    3.0446   -6.0093 H   0  0  0  0  0  0  0  0  0  0  0  0
   -5.0157    1.6920   -7.0252 H   0  0  0  0  0  0  0  0  0  0  0  0
   -5.1601    1.5921   -5.2539 H   0  0  0  0  0  0  0  0  0  0  0  0
   -1.3053    1.3997   -7.1002 H   0  0  0  0  0  0  0  0  0  0  0  0
   -2.7646    1.5797   -8.1033 H   0  0  0  0  0  0  0  0  0  0  0  0
   -2.2106    2.9322   -7.0875 H   0  0  0  0  0  0  0  0  0  0  0  0
   -3.8894   -0.5591   -5.2717 H   0  0  0  0  0  0  0  0  0  0  0  0
   -3.7450   -0.4591   -7.0430 H   0  0  0  0  0  0  0  0  0  0  0  0
   -2.2857   -0.6391   -6.0398 H   0  0  0  0  0  0  0  0  0  0  0  0
   -1.6928    2.1848   -4.7195 H   0  0  0  0  0  0  0  0  0  0  0  0
   -1.6978    2.1625   -2.3852 H   0  0  0  0  0  0  0  0  0  0  0  0
   -2.6543    1.5483    2.1670 H   0  0  0  0  0  0  0  0  0  0  0  0
   -4.5950    0.4022    3.3065 H   0  0  0  0  0  0  0  0  0  0  0  0
   -8.1973   -1.6980    0.0661 H   0  0  0  0  0  0  0  0  0  0  0  0
   -8.2645   -1.7516    1.7440 H   0  0  0  0  0  0  0  0  0  0  0  0
   -0.0624    5.5856    0.0323 H   0  0  0  0  0  0  0  0  0  0  0  0
    2.0771    4.3724    0.0058 H   0  0  0  0  0  0  0  0  0  0  0  0
    2.1069    1.9129   -0.0075 H   0  0  0  0  0  0  0  0  0  0  0  0
  1  2  1  0  0  0  0
  1 28  1  0  0  0  0
  1 29  1  0  0  0  0
  1 30  1  0  0  0  0
  2  3  1  0  0  0  0
  2  4  1  0  0  0  0
  2  5  1  0  0  0  0
  3 31  1  0  0  0  0
  3 32  1  0  0  0  0
  3 33  1  0  0  0  0
  4 34  1  0  0  0  0
  4 35  1  0  0  0  0
  4 36  1  0  0  0  0
  5  6  1  0  0  0  0
  5 37  1  0  0  0  0
  6  7  2  0  0  0  0
  6  8  1  0  0  0  0
  8  9  1  0  0  0  0
  8 38  1  0  0  0  0
  9 18  2  0  0  0  0
  9 10  1  0  0  0  0
 10 11  2  0  0  0  0
 10 20  1  0  0  0  0
 11 12  1  0  0  0  0
 11 39  1  0  0  0  0
 12 17  2  0  0  0  0
 12 13  1  0  0  0  0
 13 14  2  0  0  0  0
 13 40  1  0  0  0  0
 14 15  1  0  0  0  0
 15 16  2  0  0  0  0
 15 19  1  0  0  0  0
 16 17  1  0  0  0  0
 17 18  1  0  0  0  0
 19 41  1  0  0  0  0
 19 42  1  0  0  0  0
 20 25  2  0  0  0  0
 20 21  1  0  0  0  0
 21 22  2  0  0  0  0
 21 27  1  0  0  0  0
 22 23  1  0  0  0  0
 22 43  1  0  0  0  0
 23 24  2  0  0  0  0
 23 44  1  0  0  0  0
 24 25  1  0  0  0  0
 24 45  1  0  0  0  0
 25 26  1  0  0  0  0
M  END
$$$$
ZINC03815347
  -OEChem-08230709403D

 36 39  0     0  0  0  0  0  0999 V2000
   -9.6971    2.3516    0.3959 C   0  0  0  0  0  0  0  0  0  0  0  0
   -9.9565    1.1361   -0.2111 C   0  0  0  0  0  0  0  0  0  0  0  0
   -8.9183    0.3804   -0.7239 C   0  0  0  0  0  0  0  0  0  0  0  0
   -7.6188    0.8400   -0.6367 C   0  0  0  0  0  0  0  0  0  0  0  0
   -7.3542    2.0575   -0.0228 C   0  0  0  0  0  0  0  0  0  0  0  0
   -8.3996    2.8143    0.4915 C   0  0  0  0  0  0  0  0  0  0  0  0
   -6.0397    2.5229    0.0723 N   0  0  0  0  0  0  0  0  0  0  0  0
   -4.9942    1.6231    0.2178 C   0  0  0  0  0  0  0  0  0  0  0  0
   -3.6745    2.0553    0.1995 C   0  0  0  0  0  0  0  0  0  0  0  0
   -2.6184    1.1480    0.3458 C   0  0  0  0  0  0  0  0  0  0  0  0
   -1.2602    1.7246    0.3042 C   0  0  0  0  0  0  0  0  0  0  0  0
   -0.0322    1.0381    0.4324 C   0  0  0  0  0  0  0  0  0  0  0  0
    1.1572    1.7176    0.3792 C   0  0  0  0  0  0  0  0  0  0  0  0
    1.1929    3.0936    0.2035 C   0  0  0  0  0  0  0  0  0  0  0  0
    0.0093    3.7935    0.0802 C   0  0  0  0  0  0  0  0  0  0  0  0
   -1.1933    3.1172    0.1331 C   0  0  0  0  0  0  0  0  0  0  0  0
   -2.8880    3.6325    0.0192 S   0  0  0  0  0  0  0  0  0  0  0  0
    2.4275    0.9692    0.5111 N   0  3  0  0  0  0  0  0  0  0  0  0
    2.4094   -0.2388    0.6653 O   0  0  0  0  0  0  0  0  0  0  0  0
    3.4908    1.5615    0.4655 O   0  5  0  0  0  0  0  0  0  0  0  0
   -2.9670   -0.1490    0.5026 N   0  0  0  0  0  0  0  0  0  0  0  0
   -4.2221   -0.5209    0.5149 C   0  0  0  0  0  0  0  0  0  0  0  0
   -5.2300    0.3215    0.3783 N   0  0  0  0  0  0  0  0  0  0  0  0
   -9.2058   -0.9433   -1.3844 C   0  0  0  0  0  0  0  0  0  0  0  0
  -10.5828   -1.1888   -1.3572 F   0  0  0  0  0  0  0  0  0  0  0  0
   -8.7645   -0.9079   -2.7115 F   0  0  0  0  0  0  0  0  0  0  0  0
   -8.5369   -1.9622   -0.6975 F   0  0  0  0  0  0  0  0  0  0  0  0
  -10.5103    2.9395    0.7951 H   0  0  0  0  0  0  0  0  0  0  0  0
  -10.9722    0.7766   -0.2848 H   0  0  0  0  0  0  0  0  0  0  0  0
   -6.8088    0.2514   -1.0415 H   0  0  0  0  0  0  0  0  0  0  0  0
   -8.1978    3.7633    0.9659 H   0  0  0  0  0  0  0  0  0  0  0  0
   -5.8586    3.4752    0.0366 H   0  0  0  0  0  0  0  0  0  0  0  0
   -0.0303   -0.0332    0.5693 H   0  0  0  0  0  0  0  0  0  0  0  0
    2.1390    3.6129    0.1638 H   0  0  0  0  0  0  0  0  0  0  0  0
    0.0240    4.8647   -0.0566 H   0  0  0  0  0  0  0  0  0  0  0  0
   -4.4446   -1.5698    0.6437 H   0  0  0  0  0  0  0  0  0  0  0  0
  1  6  2  0  0  0  0
  1  2  1  0  0  0  0
  1 28  1  0  0  0  0
  2  3  2  0  0  0  0
  2 29  1  0  0  0  0
  3  4  1  0  0  0  0
  3 24  1  0  0  0  0
  4  5  2  0  0  0  0
  4 30  1  0  0  0  0
  5  6  1  0  0  0  0
  5  7  1  0  0  0  0
  6 31  1  0  0  0  0
  7  8  1  0  0  0  0
  7 32  1  0  0  0  0
  8 23  2  0  0  0  0
  8  9  1  0  0  0  0
  9 17  1  0  0  0  0
  9 10  2  0  0  0  0
 10 11  1  0  0  0  0
 10 21  1  0  0  0  0
 11 16  2  0  0  0  0
 11 12  1  0  0  0  0
 12 13  2  0  0  0  0
 12 33  1  0  0  0  0
 13 14  1  0  0  0  0
 13 18  1  0  0  0  0
 14 15  2  0  0  0  0
 14 34  1  0  0  0  0
 15 16  1  0  0  0  0
 15 35  1  0  0  0  0
 16 17  1  0  0  0  0
 18 19  2  0  0  0  0
 18 20  1  0  0  0  0
 21 22  2  0  0  0  0
 22 23  1  0  0  0  0
 22 36  1  0  0  0  0
 24 25  1  0  0  0  0
 24 26  1  0  0  0  0
 24 27  1  0  0  0  0
M  CHG  2  18   1  20  -1
M  END
$$$$
ZINC03815348
  -OEChem-08230709403D

 38 40  0     0  0  0  0  0  0999 V2000
    7.1493    4.0881   -0.2648 C   0  0  0  0  0  0  0  0  0  0  0  0
    7.1394    5.5135   -0.3645 O   0  0  0  0  0  0  0  0  0  0  0  0
    5.9249    6.1256   -0.3441 C   0  0  0  0  0  0  0  0  0  0  0  0
    4.7908    5.3725   -0.2324 C   0  0  0  0  0  0  0  0  0  0  0  0
    3.5401    6.0013   -0.2063 C   0  0  0  0  0  0  0  0  0  0  0  0
    3.4572    7.4120   -0.3065 C   0  0  0  0  0  0  0  0  0  0  0  0
    4.6323    8.1643   -0.4204 C   0  0  0  0  0  0  0  0  0  0  0  0
    5.8510    7.5218   -0.4384 C   0  0  0  0  0  0  0  0  0  0  0  0
    6.9928    8.2494   -0.5492 O   0  0  0  0  0  0  0  0  0  0  0  0
    6.8515    9.6683   -0.6421 C   0  0  0  0  0  0  0  0  0  0  0  0
    2.2463    7.9915   -0.2840 N   0  0  0  0  0  0  0  0  0  0  0  0
    1.1563    7.2567   -0.1754 C   0  0  0  0  0  0  0  0  0  0  0  0
    1.1896    5.9302   -0.0835 N   0  0  0  0  0  0  0  0  0  0  0  0
    2.3356    5.2647   -0.0966 C   0  0  0  0  0  0  0  0  0  0  0  0
    2.3550    3.8878   -0.0000 N   0  0  0  0  0  0  0  0  0  0  0  0
    1.1558    3.1696   -0.0088 C   0  0  0  0  0  0  0  0  0  0  0  0
    0.0742    3.6299   -0.7495 C   0  0  0  0  0  0  0  0  0  0  0  0
   -1.1094    2.9186   -0.7560 C   0  0  0  0  0  0  0  0  0  0  0  0
   -1.2211    1.7520   -0.0218 C   0  0  0  0  0  0  0  0  0  0  0  0
   -0.1443    1.2875    0.7124 C   0  0  0  0  0  0  0  0  0  0  0  0
    1.0430    1.9949    0.7231 C   0  0  0  0  0  0  0  0  0  0  0  0
   -0.3000   -0.3121    1.7089 Br  0  0  0  0  0  0  0  0  0  0  0  0
   -0.0729    7.8922   -0.1558 N   0  0  0  0  0  0  0  0  0  0  0  0
    6.5924    3.6616   -1.0992 H   0  0  0  0  0  0  0  0  0  0  0  0
    8.1780    3.7289   -0.2933 H   0  0  0  0  0  0  0  0  0  0  0  0
    6.6850    3.7863    0.6740 H   0  0  0  0  0  0  0  0  0  0  0  0
    4.8587    4.2970   -0.1600 H   0  0  0  0  0  0  0  0  0  0  0  0
    4.5839    9.2408   -0.4932 H   0  0  0  0  0  0  0  0  0  0  0  0
    7.8368   10.1269   -0.7257 H   0  0  0  0  0  0  0  0  0  0  0  0
    6.2588    9.9176   -1.5222 H   0  0  0  0  0  0  0  0  0  0  0  0
    6.3511   10.0428    0.2509 H   0  0  0  0  0  0  0  0  0  0  0  0
    3.2008    3.4187    0.0740 H   0  0  0  0  0  0  0  0  0  0  0  0
    0.1591    4.5430   -1.3199 H   0  0  0  0  0  0  0  0  0  0  0  0
   -1.9503    3.2762   -1.3316 H   0  0  0  0  0  0  0  0  0  0  0  0
   -2.1494    1.2000   -0.0251 H   0  0  0  0  0  0  0  0  0  0  0  0
    1.8819    1.6346    1.3001 H   0  0  0  0  0  0  0  0  0  0  0  0
   -0.8871    7.3711   -0.0763 H   0  0  0  0  0  0  0  0  0  0  0  0
   -0.1202    8.8588   -0.2215 H   0  0  0  0  0  0  0  0  0  0  0  0
  1  2  1  0  0  0  0
  1 24  1  0  0  0  0
  1 25  1  0  0  0  0
  1 26  1  0  0  0  0
  2  3  1  0  0  0  0
  3  8  2  0  0  0  0
  3  4  1  0  0  0  0
  4  5  2  0  0  0  0
  4 27  1  0  0  0  0
  5 14  1  0  0  0  0
  5  6  1  0  0  0  0
  6  7  2  0  0  0  0
  6 11  1  0  0  0  0
  7  8  1  0  0  0  0
  7 28  1  0  0  0  0
  8  9  1  0  0  0  0
  9 10  1  0  0  0  0
 10 29  1  0  0  0  0
 10 30  1  0  0  0  0
 10 31  1  0  0  0  0
 11 12  2  0  0  0  0
 12 13  1  0  0  0  0
 12 23  1  0  0  0  0
 13 14  2  0  0  0  0
 14 15  1  0  0  0  0
 15 16  1  0  0  0  0
 15 32  1  0  0  0  0
 16 21  2  0  0  0  0
 16 17  1  0  0  0  0
 17 18  2  0  0  0  0
 17 33  1  0  0  0  0
 18 19  1  0  0  0  0
 18 34  1  0  0  0  0
 19 20  2  0  0  0  0
 19 35  1  0  0  0  0
 20 21  1  0  0  0  0
 20 22  1  0  0  0  0
 21 36  1  0  0  0  0
 23 37  1  0  0  0  0
 23 38  1  0  0  0  0
M  END
$$$$
ZINC03815349
  -OEChem-08230709403D

 44 47  0     0  0  0  0  0  0999 V2000
    1.2198   -2.1877    0.0271 C   0  0  0  0  0  0  0  0  0  0  0  0
    1.2045   -0.6808    0.0223 C   0  0  0  0  0  0  0  0  0  0  0  0
    2.1341    0.0209    0.7678 C   0  0  0  0  0  0  0  0  0  0  0  0
    2.1229    1.4019    0.7657 C   0  0  0  0  0  0  0  0  0  0  0  0
    1.1767    2.0861    0.0133 C   0  0  0  0  0  0  0  0  0  0  0  0
    0.2449    1.3782   -0.7351 C   0  0  0  0  0  0  0  0  0  0  0  0
    0.2612   -0.0028   -0.7279 C   0  0  0  0  0  0  0  0  0  0  0  0
    1.1623    3.4840    0.0092 N   0  0  0  0  0  0  0  0  0  0  0  0
    2.3476    4.1875    0.1060 C   0  0  0  0  0  0  0  0  0  0  0  0
    3.4938    3.5155    0.0896 N   0  0  0  0  0  0  0  0  0  0  0  0
    4.6530    4.1397    0.1791 C   0  0  0  0  0  0  0  0  0  0  0  0
    4.6556    5.5384    0.2928 C   0  0  0  0  0  0  0  0  0  0  0  0
    5.8653    6.2630    0.3917 C   0  0  0  0  0  0  0  0  0  0  0  0
    5.8151    7.6269    0.5004 C   0  0  0  0  0  0  0  0  0  0  0  0
    4.5143    8.2997    0.5121 C   0  0  0  0  0  0  0  0  0  0  0  0
    4.4604    9.5129    0.6086 O   0  0  0  0  0  0  0  0  0  0  0  0
    3.3774    7.5840    0.4164 N   0  0  0  0  0  0  0  0  0  0  0  0
    3.4181    6.2169    0.3067 C   0  0  0  0  0  0  0  0  0  0  0  0
    2.2998    5.5067    0.2062 N   0  0  0  0  0  0  0  0  0  0  0  0
    2.0841    8.2721    0.4292 C   0  0  0  0  0  0  0  0  0  0  0  0
    7.0653    8.4149    0.6052 C   0  0  0  0  0  0  0  0  0  0  0  0
    7.6140    8.6952    1.8572 C   0  0  0  0  0  0  0  0  0  0  0  0
    8.7828    9.4255    1.9477 C   0  0  0  0  0  0  0  0  0  0  0  0
    9.4031    9.8885    0.8012 C   0  0  0  0  0  0  0  0  0  0  0  0
    8.8613    9.6190   -0.4426 C   0  0  0  0  0  0  0  0  0  0  0  0
    7.6960    8.8850   -0.5473 C   0  0  0  0  0  0  0  0  0  0  0  0
    7.0173    8.5483   -2.1093 Cl  0  0  0  0  0  0  0  0  0  0  0  0
    6.8332    8.1212    3.2975 Cl  0  0  0  0  0  0  0  0  0  0  0  0
    0.5824   -2.5550    0.8314 H   0  0  0  0  0  0  0  0  0  0  0  0
    0.8485   -2.5578   -0.9286 H   0  0  0  0  0  0  0  0  0  0  0  0
    2.2395   -2.5402    0.1818 H   0  0  0  0  0  0  0  0  0  0  0  0
    2.8695   -0.5116    1.3526 H   0  0  0  0  0  0  0  0  0  0  0  0
    2.8462    1.9493    1.3519 H   0  0  0  0  0  0  0  0  0  0  0  0
   -0.4918    1.9071   -1.3215 H   0  0  0  0  0  0  0  0  0  0  0  0
   -0.4635   -0.5538   -1.3090 H   0  0  0  0  0  0  0  0  0  0  0  0
    0.3201    3.9601   -0.0615 H   0  0  0  0  0  0  0  0  0  0  0  0
    5.5801    3.5859    0.1646 H   0  0  0  0  0  0  0  0  0  0  0  0
    6.8148    5.7485    0.3816 H   0  0  0  0  0  0  0  0  0  0  0  0
    1.7292    8.3596    1.4561 H   0  0  0  0  0  0  0  0  0  0  0  0
    2.1975    9.2668   -0.0020 H   0  0  0  0  0  0  0  0  0  0  0  0
    1.3634    7.7020   -0.1570 H   0  0  0  0  0  0  0  0  0  0  0  0
    9.2110    9.6394    2.9158 H   0  0  0  0  0  0  0  0  0  0  0  0
   10.3143   10.4632    0.8777 H   0  0  0  0  0  0  0  0  0  0  0  0
    9.3503    9.9837   -1.3339 H   0  0  0  0  0  0  0  0  0  0  0  0
  1  2  1  0  0  0  0
  1 29  1  0  0  0  0
  1 30  1  0  0  0  0
  1 31  1  0  0  0  0
  2  7  2  0  0  0  0
  2  3  1  0  0  0  0
  3  4  2  0  0  0  0
  3 32  1  0  0  0  0
  4  5  1  0  0  0  0
  4 33  1  0  0  0  0
  5  6  2  0  0  0  0
  5  8  1  0  0  0  0
  6  7  1  0  0  0  0
  6 34  1  0  0  0  0
  7 35  1  0  0  0  0
  8  9  1  0  0  0  0
  8 36  1  0  0  0  0
  9 19  2  0  0  0  0
  9 10  1  0  0  0  0
 10 11  2  0  0  0  0
 11 12  1  0  0  0  0
 11 37  1  0  0  0  0
 12 18  2  0  0  0  0
 12 13  1  0  0  0  0
 13 14  2  0  0  0  0
 13 38  1  0  0  0  0
 14 15  1  0  0  0  0
 14 21  1  0  0  0  0
 15 16  2  0  0  0  0
 15 17  1  0  0  0  0
 17 18  1  0  0  0  0
 17 20  1  0  0  0  0
 18 19  1  0  0  0  0
 20 39  1  0  0  0  0
 20 40  1  0  0  0  0
 20 41  1  0  0  0  0
 21 26  2  0  0  0  0
 21 22  1  0  0  0  0
 22 23  2  0  0  0  0
 22 28  1  0  0  0  0
 23 24  1  0  0  0  0
 23 42  1  0  0  0  0
 24 25  2  0  0  0  0
 24 43  1  0  0  0  0
 25 26  1  0  0  0  0
 25 44  1  0  0  0  0
 26 27  1  0  0  0  0
M  END
$$$$
ZINC03815350
  -OEChem-08230709403D

 43 46  0     0  0  0  0  0  0999 V2000
   -4.1948    2.7952    1.5249 C   0  0  0  0  0  0  0  0  0  0  0  0
   -3.6608    3.2387    0.1614 C   0  0  0  0  0  0  0  0  0  0  0  0
   -2.4147    3.9870    0.3449 N   0  0  0  0  0  0  0  0  0  0  0  0
   -1.2157    3.3200    0.3436 C   0  0  0  0  0  0  0  0  0  0  0  0
   -0.0058    4.0261    0.5186 C   0  0  0  0  0  0  0  0  0  0  0  0
   -0.0199    5.4284    0.6969 C   0  0  0  0  0  0  0  0  0  0  0  0
   -1.2211    6.0853    0.6968 C   0  0  0  0  0  0  0  0  0  0  0  0
   -2.4578    5.3227    0.5127 C   0  0  0  0  0  0  0  0  0  0  0  0
   -3.5308    5.8994    0.5108 O   0  0  0  0  0  0  0  0  0  0  0  0
   -1.2695    7.5545    0.8818 C   0  0  0  0  0  0  0  0  0  0  0  0
   -1.3816    8.0962    2.1629 C   0  0  0  0  0  0  0  0  0  0  0  0
   -1.4214    9.4667    2.3288 C   0  0  0  0  0  0  0  0  0  0  0  0
   -1.3609   10.3018    1.2276 C   0  0  0  0  0  0  0  0  0  0  0  0
   -1.2551    9.7711   -0.0454 C   0  0  0  0  0  0  0  0  0  0  0  0
   -1.2090    8.4025   -0.2248 C   0  0  0  0  0  0  0  0  0  0  0  0
   -1.0766    7.7385   -1.8233 Cl  0  0  0  0  0  0  0  0  0  0  0  0
   -1.4649    7.0498    3.5456 Cl  0  0  0  0  0  0  0  0  0  0  0  0
    1.1983    3.3063    0.5105 C   0  0  0  0  0  0  0  0  0  0  0  0
    1.1513    1.9983    0.3395 N   0  0  0  0  0  0  0  0  0  0  0  0
   -0.0062    1.3671    0.1777 C   0  0  0  0  0  0  0  0  0  0  0  0
   -1.1672    2.0036    0.1731 N   0  0  0  0  0  0  0  0  0  0  0  0
    0.0021   -0.0041    0.0020 N   0  0  0  0  0  0  0  0  0  0  0  0
    1.2127   -0.6839   -0.1184 C   0  0  0  0  0  0  0  0  0  0  0  0
    2.3106   -0.0859   -0.7361 C   0  0  0  0  0  0  0  0  0  0  0  0
    3.4921   -0.7909   -0.8314 C   0  0  0  0  0  0  0  0  0  0  0  0
    3.5878   -2.0184   -0.3559 N   0  0  0  0  0  0  0  0  0  0  0  0
    2.5705   -2.6203    0.2311 C   0  0  0  0  0  0  0  0  0  0  0  0
    1.3559   -1.9820    0.3705 C   0  0  0  0  0  0  0  0  0  0  0  0
   -4.3854    3.6723    2.1432 H   0  0  0  0  0  0  0  0  0  0  0  0
   -5.1219    2.2385    1.3884 H   0  0  0  0  0  0  0  0  0  0  0  0
   -3.4576    2.1588    2.0143 H   0  0  0  0  0  0  0  0  0  0  0  0
   -4.3980    3.8751   -0.3281 H   0  0  0  0  0  0  0  0  0  0  0  0
   -3.4702    2.3616   -0.4570 H   0  0  0  0  0  0  0  0  0  0  0  0
    0.9028    5.9732    0.8316 H   0  0  0  0  0  0  0  0  0  0  0  0
   -1.5040    9.8874    3.3201 H   0  0  0  0  0  0  0  0  0  0  0  0
   -1.3970   11.3727    1.3624 H   0  0  0  0  0  0  0  0  0  0  0  0
   -1.2080   10.4286   -0.9010 H   0  0  0  0  0  0  0  0  0  0  0  0
    2.1438    3.8117    0.6409 H   0  0  0  0  0  0  0  0  0  0  0  0
   -0.8347   -0.4930   -0.0374 H   0  0  0  0  0  0  0  0  0  0  0  0
    2.2377    0.9167   -1.1311 H   0  0  0  0  0  0  0  0  0  0  0  0
    4.3487   -0.3343   -1.3049 H   0  0  0  0  0  0  0  0  0  0  0  0
    2.6905   -3.6258    0.6068 H   0  0  0  0  0  0  0  0  0  0  0  0
    0.5272   -2.4805    0.8513 H   0  0  0  0  0  0  0  0  0  0  0  0
  1  2  1  0  0  0  0
  1 29  1  0  0  0  0
  1 30  1  0  0  0  0
  1 31  1  0  0  0  0
  2  3  1  0  0  0  0
  2 32  1  0  0  0  0
  2 33  1  0  0  0  0
  3  8  1  0  0  0  0
  3  4  1  0  0  0  0
  4 21  2  0  0  0  0
  4  5  1  0  0  0  0
  5  6  1  0  0  0  0
  5 18  2  0  0  0  0
  6  7  2  0  0  0  0
  6 34  1  0  0  0  0
  7  8  1  0  0  0  0
  7 10  1  0  0  0  0
  8  9  2  0  0  0  0
 10 15  2  0  0  0  0
 10 11  1  0  0  0  0
 11 12  2  0  0  0  0
 11 17  1  0  0  0  0
 12 13  1  0  0  0  0
 12 35  1  0  0  0  0
 13 14  2  0  0  0  0
 13 36  1  0  0  0  0
 14 15  1  0  0  0  0
 14 37  1  0  0  0  0
 15 16  1  0  0  0  0
 18 19  1  0  0  0  0
 18 38  1  0  0  0  0
 19 20  2  0  0  0  0
 20 21  1  0  0  0  0
 20 22  1  0  0  0  0
 22 23  1  0  0  0  0
 22 39  1  0  0  0  0
 23 28  2  0  0  0  0
 23 24  1  0  0  0  0
 24 25  2  0  0  0  0
 24 40  1  0  0  0  0
 25 26  1  0  0  0  0
 25 41  1  0  0  0  0
 26 27  2  0  0  0  0
 27 28  1  0  0  0  0
 27 42  1  0  0  0  0
 28 43  1  0  0  0  0
M  END
$$$$
ZINC03815351
  -OEChem-08230709403D

 40 43  0     0  0  0  0  0  0999 V2000
   -3.6191    2.9930    0.0509 C   0  0  0  0  0  0  0  0  0  0  0  0
   -2.4356    3.7939    0.0439 O   0  0  0  0  0  0  0  0  0  0  0  0
   -1.2460    3.1368    0.0299 C   0  0  0  0  0  0  0  0  0  0  0  0
   -1.2200    1.7486    0.0173 C   0  0  0  0  0  0  0  0  0  0  0  0
   -0.0126    1.0758    0.0080 C   0  0  0  0  0  0  0  0  0  0  0  0
    1.1746    1.7803    0.0004 C   0  0  0  0  0  0  0  0  0  0  0  0
    1.1574    3.1745    0.0076 C   0  0  0  0  0  0  0  0  0  0  0  0
   -0.0603    3.8520    0.0224 C   0  0  0  0  0  0  0  0  0  0  0  0
    2.4306    3.9337    0.0000 C   0  0  0  0  0  0  0  0  0  0  0  0
    2.7639    4.9492   -0.8343 C   0  0  0  0  0  0  0  0  0  0  0  0
    4.0212    5.3998   -0.5311 N   0  0  0  0  0  0  0  0  0  0  0  0
    4.5458    4.6770    0.5094 C   0  0  0  0  0  0  0  0  0  0  0  0
    3.5805    3.7289    0.8906 C   0  0  0  0  0  0  0  0  0  0  0  0
    3.8742    2.8553    1.9458 C   0  0  0  0  0  0  0  0  0  0  0  0
    5.0582    2.9617    2.5431 N   0  0  0  0  0  0  0  0  0  0  0  0
    5.9372    3.8671    2.1537 C   0  0  0  0  0  0  0  0  0  0  0  0
    5.7031    4.7067    1.1682 N   0  0  0  0  0  0  0  0  0  0  0  0
    2.9556    1.9059    2.3568 N   0  0  0  0  0  0  0  0  0  0  0  0
    4.6793    6.4444   -1.1930 C   0  0  0  0  0  0  0  0  0  0  0  0
    5.2588    7.4743   -0.4639 C   0  0  0  0  0  0  0  0  0  0  0  0
    5.9114    8.5001   -1.1192 C   0  0  0  0  0  0  0  0  0  0  0  0
    5.9781    8.5081   -2.5004 C   0  0  0  0  0  0  0  0  0  0  0  0
    5.3975    7.4866   -3.2295 C   0  0  0  0  0  0  0  0  0  0  0  0
    4.7484    6.4550   -2.5798 C   0  0  0  0  0  0  0  0  0  0  0  0
   -4.4959    3.6404    0.0620 H   0  0  0  0  0  0  0  0  0  0  0  0
   -3.6402    2.3680   -0.8419 H   0  0  0  0  0  0  0  0  0  0  0  0
   -3.6239    2.3596    0.9380 H   0  0  0  0  0  0  0  0  0  0  0  0
   -2.1460    1.1928    0.0190 H   0  0  0  0  0  0  0  0  0  0  0  0
    0.0021   -0.0041    0.0020 H   0  0  0  0  0  0  0  0  0  0  0  0
    2.1163    1.2517   -0.0114 H   0  0  0  0  0  0  0  0  0  0  0  0
   -0.0791    4.9319    0.0277 H   0  0  0  0  0  0  0  0  0  0  0  0
    2.1330    5.3445   -1.6167 H   0  0  0  0  0  0  0  0  0  0  0  0
    6.8868    3.9207    2.6653 H   0  0  0  0  0  0  0  0  0  0  0  0
    2.0957    1.8390    1.9130 H   0  0  0  0  0  0  0  0  0  0  0  0
    3.1715    1.3071    3.0887 H   0  0  0  0  0  0  0  0  0  0  0  0
    5.2028    7.4711    0.6146 H   0  0  0  0  0  0  0  0  0  0  0  0
    6.3658    9.2993   -0.5526 H   0  0  0  0  0  0  0  0  0  0  0  0
    6.4851    9.3136   -3.0108 H   0  0  0  0  0  0  0  0  0  0  0  0
    5.4519    7.4953   -4.3081 H   0  0  0  0  0  0  0  0  0  0  0  0
    4.2954    5.6573   -3.1498 H   0  0  0  0  0  0  0  0  0  0  0  0
  1  2  1  0  0  0  0
  1 25  1  0  0  0  0
  1 26  1  0  0  0  0
  1 27  1  0  0  0  0
  2  3  1  0  0  0  0
  3  8  2  0  0  0  0
  3  4  1  0  0  0  0
  4  5  2  0  0  0  0
  4 28  1  0  0  0  0
  5  6  1  0  0  0  0
  5 29  1  0  0  0  0
  6  7  2  0  0  0  0
  6 30  1  0  0  0  0
  7  8  1  0  0  0  0
  7  9  1  0  0  0  0
  8 31  1  0  0  0  0
  9 13  1  0  0  0  0
  9 10  2  0  0  0  0
 10 11  1  0  0  0  0
 10 32  1  0  0  0  0
 11 12  1  0  0  0  0
 11 19  1  0  0  0  0
 12 17  2  0  0  0  0
 12 13  1  0  0  0  0
 13 14  2  0  0  0  0
 14 15  1  0  0  0  0
 14 18  1  0  0  0  0
 15 16  2  0  0  0  0
 16 17  1  0  0  0  0
 16 33  1  0  0  0  0
 18 34  1  0  0  0  0
 18 35  1  0  0  0  0
 19 24  2  0  0  0  0
 19 20  1  0  0  0  0
 20 21  2  0  0  0  0
 20 36  1  0  0  0  0
 21 22  1  0  0  0  0
 21 37  1  0  0  0  0
 22 23  2  0  0  0  0
 22 38  1  0  0  0  0
 23 24  1  0  0  0  0
 23 39  1  0  0  0  0
 24 40  1  0  0  0  0
M  END
$$$$
ZINC03815352
  -OEChem-08230709403D

 48 50  0     0  0  0  0  0  0999 V2000
    0.2761   -4.2288   -1.6870 C   0  0  0  0  0  0  0  0  0  0  0  0
    1.2581   -5.0071   -0.9999 O   0  0  0  0  0  0  0  0  0  0  0  0
    2.2898   -4.3321   -0.4260 C   0  0  0  0  0  0  0  0  0  0  0  0
    2.3539   -2.9510   -0.5230 C   0  0  0  0  0  0  0  0  0  0  0  0
    3.4074   -2.2618    0.0626 C   0  0  0  0  0  0  0  0  0  0  0  0
    4.4002   -2.9558    0.7411 C   0  0  0  0  0  0  0  0  0  0  0  0
    4.3346   -4.3365    0.8435 C   0  0  0  0  0  0  0  0  0  0  0  0
    3.2804   -5.0271    0.2576 C   0  0  0  0  0  0  0  0  0  0  0  0
    3.2178   -6.3840    0.3537 O   0  0  0  0  0  0  0  0  0  0  0  0
    3.8568   -7.1376   -0.6787 C   0  0  0  0  0  0  0  0  0  0  0  0
    5.3043   -5.0157    1.5125 O   0  0  0  0  0  0  0  0  0  0  0  0
    6.3579   -4.2419    2.0897 C   0  0  0  0  0  0  0  0  0  0  0  0
    3.4717   -0.8671   -0.0362 N   0  0  0  0  0  0  0  0  0  0  0  0
    2.3122   -0.1190   -0.0077 C   0  0  0  0  0  0  0  0  0  0  0  0
    2.3439    1.2788   -0.2267 C   0  0  0  0  0  0  0  0  0  0  0  0
    3.5397    1.9619   -0.4798 C   0  0  0  0  0  0  0  0  0  0  0  0
    3.5171    3.3121   -0.6843 C   0  0  0  0  0  0  0  0  0  0  0  0
    2.3091    4.0227   -0.6437 C   0  0  0  0  0  0  0  0  0  0  0  0
    1.1196    3.3743   -0.3967 C   0  0  0  0  0  0  0  0  0  0  0  0
    1.1194    1.9900   -0.1845 C   0  0  0  0  0  0  0  0  0  0  0  0
   -0.0124    1.3112    0.0606 N   0  0  0  0  0  0  0  0  0  0  0  0
    0.0189    0.0145    0.2567 C   0  0  0  0  0  0  0  0  0  0  0  0
    1.1382   -0.6911    0.2262 N   0  0  0  0  0  0  0  0  0  0  0  0
    2.3122    5.3655   -0.8499 O   0  0  0  0  0  0  0  0  0  0  0  0
    1.0498    6.0330   -0.7960 C   0  0  0  0  0  0  0  0  0  0  0  0
    4.6789    3.9744   -0.9305 O   0  0  0  0  0  0  0  0  0  0  0  0
    5.8764    3.1951   -0.9597 C   0  0  0  0  0  0  0  0  0  0  0  0
   -0.1840   -3.5276   -0.9908 H   0  0  0  0  0  0  0  0  0  0  0  0
    0.7519   -3.6768   -2.4975 H   0  0  0  0  0  0  0  0  0  0  0  0
   -0.4888   -4.8886   -2.0967 H   0  0  0  0  0  0  0  0  0  0  0  0
    1.5840   -2.4107   -1.0538 H   0  0  0  0  0  0  0  0  0  0  0  0
    5.2215   -2.4194    1.1928 H   0  0  0  0  0  0  0  0  0  0  0  0
    3.7321   -8.2024   -0.4815 H   0  0  0  0  0  0  0  0  0  0  0  0
    3.4066   -6.8910   -1.6402 H   0  0  0  0  0  0  0  0  0  0  0  0
    4.9190   -6.8943   -0.7017 H   0  0  0  0  0  0  0  0  0  0  0  0
    6.8752   -3.6899    1.3050 H   0  0  0  0  0  0  0  0  0  0  0  0
    5.9400   -3.5407    2.8121 H   0  0  0  0  0  0  0  0  0  0  0  0
    7.0622   -4.9047    2.5924 H   0  0  0  0  0  0  0  0  0  0  0  0
    4.3312   -0.4262   -0.1247 H   0  0  0  0  0  0  0  0  0  0  0  0
    4.4755    1.4237   -0.5128 H   0  0  0  0  0  0  0  0  0  0  0  0
    0.1935    3.9292   -0.3675 H   0  0  0  0  0  0  0  0  0  0  0  0
   -0.9103   -0.5003    0.4514 H   0  0  0  0  0  0  0  0  0  0  0  0
    0.6043    5.8889    0.1884 H   0  0  0  0  0  0  0  0  0  0  0  0
    1.1940    7.0981   -0.9770 H   0  0  0  0  0  0  0  0  0  0  0  0
    0.3882    5.6212   -1.5580 H   0  0  0  0  0  0  0  0  0  0  0  0
    6.0161    2.7073    0.0050 H   0  0  0  0  0  0  0  0  0  0  0  0
    5.7989    2.4392   -1.7412 H   0  0  0  0  0  0  0  0  0  0  0  0
    6.7275    3.8443   -1.1653 H   0  0  0  0  0  0  0  0  0  0  0  0
  1  2  1  0  0  0  0
  1 28  1  0  0  0  0
  1 29  1  0  0  0  0
  1 30  1  0  0  0  0
  2  3  1  0  0  0  0
  3  8  2  0  0  0  0
  3  4  1  0  0  0  0
  4  5  2  0  0  0  0
  4 31  1  0  0  0  0
  5  6  1  0  0  0  0
  5 13  1  0  0  0  0
  6  7  2  0  0  0  0
  6 32  1  0  0  0  0
  7  8  1  0  0  0  0
  7 11  1  0  0  0  0
  8  9  1  0  0  0  0
  9 10  1  0  0  0  0
 10 33  1  0  0  0  0
 10 34  1  0  0  0  0
 10 35  1  0  0  0  0
 11 12  1  0  0  0  0
 12 36  1  0  0  0  0
 12 37  1  0  0  0  0
 12 38  1  0  0  0  0
 13 14  1  0  0  0  0
 13 39  1  0  0  0  0
 14 23  2  0  0  0  0
 14 15  1  0  0  0  0
 15 20  2  0  0  0  0
 15 16  1  0  0  0  0
 16 17  2  0  0  0  0
 16 40  1  0  0  0  0
 17 18  1  0  0  0  0
 17 26  1  0  0  0  0
 18 19  2  0  0  0  0
 18 24  1  0  0  0  0
 19 20  1  0  0  0  0
 19 41  1  0  0  0  0
 20 21  1  0  0  0  0
 21 22  2  0  0  0  0
 22 23  1  0  0  0  0
 22 42  1  0  0  0  0
 24 25  1  0  0  0  0
 25 43  1  0  0  0  0
 25 44  1  0  0  0  0
 25 45  1  0  0  0  0
 26 27  1  0  0  0  0
 27 46  1  0  0  0  0
 27 47  1  0  0  0  0
 27 48  1  0  0  0  0
M  END
$$$$
ZINC03815353
  -OEChem-08230709403D

 35 37  0     0  0  0  0  0  0999 V2000
    4.3627   -1.6588   -0.1810 C   0  0  0  0  0  0  0  0  0  0  0  0
    3.7582   -0.2874   -0.3384 C   0  0  0  0  0  0  0  0  0  0  0  0
    4.4241    0.8663   -0.5102 C   0  0  0  0  0  0  0  0  0  0  0  0
    3.5353    1.9049   -0.6142 N   0  0  0  0  0  0  0  0  0  0  0  0
    3.7791    2.8348   -0.7430 H   0  0  0  0  0  0  0  0  0  0  0  0
    2.2542    1.4371   -0.5102 C   0  0  0  0  0  0  0  0  0  0  0  0
    2.3345    0.0432   -0.3327 C   0  0  0  0  0  0  0  0  0  0  0  0
    1.1445   -0.6876   -0.1971 C   0  0  0  0  0  0  0  0  0  0  0  0
   -0.0096   -0.0281   -0.2424 N   0  0  0  0  0  0  0  0  0  0  0  0
   -0.0394    1.2814   -0.4107 C   0  0  0  0  0  0  0  0  0  0  0  0
    1.0505    2.0064   -0.5422 N   0  0  0  0  0  0  0  0  0  0  0  0
    1.1710   -2.0602   -0.0200 N   0  0  0  0  0  0  0  0  0  0  0  0
    1.3298   -2.6226    1.3234 C   0  0  0  0  0  0  0  0  0  0  0  0
    1.0462   -2.9097   -1.1230 C   0  0  0  0  0  0  0  0  0  0  0  0
    0.9512   -4.2832   -0.9365 C   0  0  0  0  0  0  0  0  0  0  0  0
    0.8275   -5.1202   -2.0279 C   0  0  0  0  0  0  0  0  0  0  0  0
    0.7977   -4.5930   -3.3060 C   0  0  0  0  0  0  0  0  0  0  0  0
    0.8916   -3.2255   -3.4958 C   0  0  0  0  0  0  0  0  0  0  0  0
    1.0112   -2.3821   -2.4071 C   0  0  0  0  0  0  0  0  0  0  0  0
    0.8526   -2.5680   -5.1021 Cl  0  0  0  0  0  0  0  0  0  0  0  0
    5.9237    0.9992   -0.5784 C   0  0  0  0  0  0  0  0  0  0  0  0
    4.5554   -2.0861   -1.1650 H   0  0  0  0  0  0  0  0  0  0  0  0
    5.2992   -1.5818    0.3715 H   0  0  0  0  0  0  0  0  0  0  0  0
    3.6708   -2.3004    0.3646 H   0  0  0  0  0  0  0  0  0  0  0  0
   -0.9982    1.7771   -0.4463 H   0  0  0  0  0  0  0  0  0  0  0  0
    0.3544   -2.6952    1.8045 H   0  0  0  0  0  0  0  0  0  0  0  0
    1.7743   -3.6152    1.2515 H   0  0  0  0  0  0  0  0  0  0  0  0
    1.9788   -1.9757    1.9137 H   0  0  0  0  0  0  0  0  0  0  0  0
    0.9743   -4.6960    0.0612 H   0  0  0  0  0  0  0  0  0  0  0  0
    0.7536   -6.1879   -1.8830 H   0  0  0  0  0  0  0  0  0  0  0  0
    0.7005   -5.2499   -4.1577 H   0  0  0  0  0  0  0  0  0  0  0  0
    1.0804   -1.3145   -2.5551 H   0  0  0  0  0  0  0  0  0  0  0  0
    6.2506    0.8995   -1.6135 H   0  0  0  0  0  0  0  0  0  0  0  0
    6.2196    1.9762   -0.1964 H   0  0  0  0  0  0  0  0  0  0  0  0
    6.3855    0.2179    0.0253 H   0  0  0  0  0  0  0  0  0  0  0  0
  1  2  1  0  0  0  0
  1 22  1  0  0  0  0
  1 23  1  0  0  0  0
  1 24  1  0  0  0  0
  2  7  1  0  0  0  0
  2  3  2  0  0  0  0
  3  4  1  0  0  0  0
  3 21  1  0  0  0  0
  4  5  1  0  0  0  0
  4  6  1  0  0  0  0
  6 11  2  0  0  0  0
  6  7  1  0  0  0  0
  7  8  2  0  0  0  0
  8  9  1  0  0  0  0
  8 12  1  0  0  0  0
  9 10  2  0  0  0  0
 10 11  1  0  0  0  0
 10 25  1  0  0  0  0
 12 13  1  0  0  0  0
 12 14  1  0  0  0  0
 13 26  1  0  0  0  0
 13 27  1  0  0  0  0
 13 28  1  0  0  0  0
 14 19  2  0  0  0  0
 14 15  1  0  0  0  0
 15 16  2  0  0  0  0
 15 29  1  0  0  0  0
 16 17  1  0  0  0  0
 16 30  1  0  0  0  0
 17 18  2  0  0  0  0
 17 31  1  0  0  0  0
 18 19  1  0  0  0  0
 18 20  1  0  0  0  0
 19 32  1  0  0  0  0
 21 33  1  0  0  0  0
 21 34  1  0  0  0  0
 21 35  1  0  0  0  0
M  END
$$$$
ZINC03815354
  -OEChem-08230709403D

 40 43  0     0  0  0  0  0  0999 V2000
   -5.9264    7.2257    0.5000 C   0  0  0  0  0  0  0  0  0  0  0  0
   -4.6527    7.9495    0.4955 N   0  0  0  0  0  0  0  0  0  0  0  0
   -3.4763    7.2531    0.3779 C   0  0  0  0  0  0  0  0  0  0  0  0
   -2.2404    7.9352    0.3714 C   0  0  0  0  0  0  0  0  0  0  0  0
   -2.2047    9.3438    0.4855 C   0  0  0  0  0  0  0  0  0  0  0  0
   -3.3835   10.0302    0.6024 C   0  0  0  0  0  0  0  0  0  0  0  0
   -4.6483    9.2918    0.6063 C   0  0  0  0  0  0  0  0  0  0  0  0
   -5.7017    9.8947    0.7098 O   0  0  0  0  0  0  0  0  0  0  0  0
   -3.3797   11.5068    0.7242 C   0  0  0  0  0  0  0  0  0  0  0  0
   -3.3221   12.1058    1.9832 C   0  0  0  0  0  0  0  0  0  0  0  0
   -3.3150   13.4828    2.0897 C   0  0  0  0  0  0  0  0  0  0  0  0
   -3.3740   14.2678    0.9522 C   0  0  0  0  0  0  0  0  0  0  0  0
   -3.4362   13.6803   -0.2985 C   0  0  0  0  0  0  0  0  0  0  0  0
   -3.4396   12.3044   -0.4191 C   0  0  0  0  0  0  0  0  0  0  0  0
   -3.5188   11.5691   -1.9897 Cl  0  0  0  0  0  0  0  0  0  0  0  0
   -3.2539   11.1224    3.4122 Cl  0  0  0  0  0  0  0  0  0  0  0  0
   -1.0608    7.1856    0.2498 C   0  0  0  0  0  0  0  0  0  0  0  0
   -1.1539    5.8727    0.1514 N   0  0  0  0  0  0  0  0  0  0  0  0
   -2.3352    5.2648    0.1562 C   0  0  0  0  0  0  0  0  0  0  0  0
   -3.4750    5.9293    0.2688 N   0  0  0  0  0  0  0  0  0  0  0  0
   -2.3756    3.8881    0.0453 N   0  0  0  0  0  0  0  0  0  0  0  0
   -1.1869    3.1518    0.0415 C   0  0  0  0  0  0  0  0  0  0  0  0
   -0.0915    3.5739    0.7916 C   0  0  0  0  0  0  0  0  0  0  0  0
    1.0655    2.8137    0.7515 C   0  0  0  0  0  0  0  0  0  0  0  0
    1.0920    1.6641   -0.0164 C   0  0  0  0  0  0  0  0  0  0  0  0
    0.0360    1.2886   -0.7111 N   0  0  0  0  0  0  0  0  0  0  0  0
   -1.0828    1.9855   -0.7054 C   0  0  0  0  0  0  0  0  0  0  0  0
   -6.1903    6.9613    1.5240 H   0  0  0  0  0  0  0  0  0  0  0  0
   -6.7056    7.8590    0.0759 H   0  0  0  0  0  0  0  0  0  0  0  0
   -5.8309    6.3184   -0.0964 H   0  0  0  0  0  0  0  0  0  0  0  0
   -1.2619    9.8705    0.4803 H   0  0  0  0  0  0  0  0  0  0  0  0
   -3.2666   13.9478    3.0633 H   0  0  0  0  0  0  0  0  0  0  0  0
   -3.3720   15.3441    1.0411 H   0  0  0  0  0  0  0  0  0  0  0  0
   -3.4825   14.2988   -1.1827 H   0  0  0  0  0  0  0  0  0  0  0  0
   -0.0966    7.6721    0.2413 H   0  0  0  0  0  0  0  0  0  0  0  0
   -3.2286    3.4324   -0.0299 H   0  0  0  0  0  0  0  0  0  0  0  0
   -0.1419    4.4740    1.3863 H   0  0  0  0  0  0  0  0  0  0  0  0
    1.9356    3.1130    1.3170 H   0  0  0  0  0  0  0  0  0  0  0  0
    1.9904    1.0654   -0.0479 H   0  0  0  0  0  0  0  0  0  0  0  0
   -1.9271    1.6460   -1.2870 H   0  0  0  0  0  0  0  0  0  0  0  0
  1  2  1  0  0  0  0
  1 28  1  0  0  0  0
  1 29  1  0  0  0  0
  1 30  1  0  0  0  0
  2  7  1  0  0  0  0
  2  3  1  0  0  0  0
  3 20  2  0  0  0  0
  3  4  1  0  0  0  0
  4  5  1  0  0  0  0
  4 17  2  0  0  0  0
  5  6  2  0  0  0  0
  5 31  1  0  0  0  0
  6  7  1  0  0  0  0
  6  9  1  0  0  0  0
  7  8  2  0  0  0  0
  9 14  2  0  0  0  0
  9 10  1  0  0  0  0
 10 11  2  0  0  0  0
 10 16  1  0  0  0  0
 11 12  1  0  0  0  0
 11 32  1  0  0  0  0
 12 13  2  0  0  0  0
 12 33  1  0  0  0  0
 13 14  1  0  0  0  0
 13 34  1  0  0  0  0
 14 15  1  0  0  0  0
 17 18  1  0  0  0  0
 17 35  1  0  0  0  0
 18 19  2  0  0  0  0
 19 20  1  0  0  0  0
 19 21  1  0  0  0  0
 21 22  1  0  0  0  0
 21 36  1  0  0  0  0
 22 27  2  0  0  0  0
 22 23  1  0  0  0  0
 23 24  2  0  0  0  0
 23 37  1  0  0  0  0
 24 25  1  0  0  0  0
 24 38  1  0  0  0  0
 25 26  2  0  0  0  0
 25 39  1  0  0  0  0
 26 27  1  0  0  0  0
 27 40  1  0  0  0  0
M  END
$$$$
ZINC03815355
  -OEChem-08230709403D

 55 58  0     0  0  0  0  0  0999 V2000
    0.9123    1.7808    0.7877 C   0  0  0  0  0  0  0  0  0  0  0  0
    0.8983    3.1623    0.7839 C   0  0  0  0  0  0  0  0  0  0  0  0
   -0.0502    3.8460    0.0338 C   0  0  0  0  0  0  0  0  0  0  0  0
   -0.9838    3.1392   -0.7120 C   0  0  0  0  0  0  0  0  0  0  0  0
   -0.9624    1.7536   -0.7103 C   0  0  0  0  0  0  0  0  0  0  0  0
   -0.0159    1.0758    0.0456 C   0  0  0  0  0  0  0  0  0  0  0  0
   -1.8708    1.0587   -1.4444 O   0  0  0  0  0  0  0  0  0  0  0  0
   -1.7935   -0.3672   -1.3913 C   0  0  0  0  0  0  0  0  0  0  0  0
   -2.8878   -0.9704   -2.2742 C   0  0  0  0  0  0  0  0  0  0  0  0
   -2.7107   -0.5426   -3.5943 F   0  0  0  0  0  0  0  0  0  0  0  0
   -2.8122   -2.3664   -2.2222 F   0  0  0  0  0  0  0  0  0  0  0  0
   -0.5400   -0.7837   -1.8523 F   0  0  0  0  0  0  0  0  0  0  0  0
   -1.9707   -0.7950   -0.0712 F   0  0  0  0  0  0  0  0  0  0  0  0
   -0.0643    5.2440    0.0294 N   0  0  0  0  0  0  0  0  0  0  0  0
    1.1244    5.9490    0.1255 C   0  0  0  0  0  0  0  0  0  0  0  0
    2.2715    5.2850    0.1149 N   0  0  0  0  0  0  0  0  0  0  0  0
    3.4290    5.9219    0.1990 C   0  0  0  0  0  0  0  0  0  0  0  0
    3.4363    7.3005    0.3108 C   0  0  0  0  0  0  0  0  0  0  0  0
    2.2106    7.9742    0.3251 C   0  0  0  0  0  0  0  0  0  0  0  0
    1.0851    7.2676    0.2310 N   0  0  0  0  0  0  0  0  0  0  0  0
    2.1648    9.4490    0.4425 C   0  0  0  0  0  0  0  0  0  0  0  0
    3.3418   10.1819    0.5404 C   0  0  0  0  0  0  0  0  0  0  0  0
    3.2969   11.5612    0.6497 C   0  0  0  0  0  0  0  0  0  0  0  0
    2.0908   12.2304    0.6643 C   0  0  0  0  0  0  0  0  0  0  0  0
    0.8972   11.5234    0.5684 C   0  0  0  0  0  0  0  0  0  0  0  0
    0.9296   10.1226    0.4501 C   0  0  0  0  0  0  0  0  0  0  0  0
   -0.4639    9.6902    0.3619 C   0  0  0  0  0  0  0  0  0  0  0  0
   -1.2236   10.7975    0.4224 C   0  0  0  0  0  0  0  0  0  0  0  0
   -0.4276   11.9010    0.5551 N   0  0  0  0  0  0  0  0  0  0  0  0
   -0.9107   13.2808    0.6512 C   0  0  0  0  0  0  0  0  0  0  0  0
   -0.9128   13.9185   -0.7395 C   0  0  0  0  0  0  0  0  0  0  0  0
   -1.4173   15.3594   -0.6391 C   0  0  0  0  0  0  0  0  0  0  0  0
    1.6504    1.2509    1.3714 H   0  0  0  0  0  0  0  0  0  0  0  0
    1.6253    3.7110    1.3642 H   0  0  0  0  0  0  0  0  0  0  0  0
   -1.7225    3.6682   -1.2958 H   0  0  0  0  0  0  0  0  0  0  0  0
   -0.0021   -0.0041    0.0503 H   0  0  0  0  0  0  0  0  0  0  0  0
   -3.8645   -0.6459   -1.9150 H   0  0  0  0  0  0  0  0  0  0  0  0
   -0.9064    5.7203   -0.0408 H   0  0  0  0  0  0  0  0  0  0  0  0
    4.3576    5.3706    0.1849 H   0  0  0  0  0  0  0  0  0  0  0  0
    4.3666    7.8441    0.3850 H   0  0  0  0  0  0  0  0  0  0  0  0
    4.2946    9.6736    0.5309 H   0  0  0  0  0  0  0  0  0  0  0  0
    4.2178   12.1203    0.7249 H   0  0  0  0  0  0  0  0  0  0  0  0
    2.0734   13.3069    0.7502 H   0  0  0  0  0  0  0  0  0  0  0  0
   -0.8163    8.6738    0.2663 H   0  0  0  0  0  0  0  0  0  0  0  0
   -2.3028   10.8122    0.3826 H   0  0  0  0  0  0  0  0  0  0  0  0
   -1.9236   13.2838    1.0539 H   0  0  0  0  0  0  0  0  0  0  0  0
   -0.2558   13.8499    1.3109 H   0  0  0  0  0  0  0  0  0  0  0  0
    0.1001   13.9154   -1.1422 H   0  0  0  0  0  0  0  0  0  0  0  0
   -1.5677   13.3493   -1.3992 H   0  0  0  0  0  0  0  0  0  0  0  0
   -2.4302   15.3625   -0.2365 H   0  0  0  0  0  0  0  0  0  0  0  0
   -0.7623   15.9285    0.0206 H   0  0  0  0  0  0  0  0  0  0  0  0
   -1.7488   16.9245   -1.9349 H   0  0  0  0  0  0  0  0  0  0  0  0
   -0.5039   15.9228   -2.3960 H   0  0  0  0  0  0  0  0  0  0  0  0
   -1.4359   15.9565   -1.9862 N   0  3  0  0  0  0  0  0  0  0  0  0
   -2.0830   15.4263   -2.5815 H   0  0  0  0  0  0  0  0  0  0  0  0
  1  6  2  0  0  0  0
  1  2  1  0  0  0  0
  1 33  1  0  0  0  0
  2  3  2  0  0  0  0
  2 34  1  0  0  0  0
  3  4  1  0  0  0  0
  3 14  1  0  0  0  0
  4  5  2  0  0  0  0
  4 35  1  0  0  0  0
  5  6  1  0  0  0  0
  5  7  1  0  0  0  0
  6 36  1  0  0  0  0
  7  8  1  0  0  0  0
  8  9  1  0  0  0  0
  8 12  1  0  0  0  0
  8 13  1  0  0  0  0
  9 10  1  0  0  0  0
  9 11  1  0  0  0  0
  9 37  1  0  0  0  0
 14 15  1  0  0  0  0
 14 38  1  0  0  0  0
 15 20  2  0  0  0  0
 15 16  1  0  0  0  0
 16 17  2  0  0  0  0
 17 18  1  0  0  0  0
 17 39  1  0  0  0  0
 18 19  2  0  0  0  0
 18 40  1  0  0  0  0
 19 20  1  0  0  0  0
 19 21  1  0  0  0  0
 21 26  2  0  0  0  0
 21 22  1  0  0  0  0
 22 23  2  0  0  0  0
 22 41  1  0  0  0  0
 23 24  1  0  0  0  0
 23 42  1  0  0  0  0
 24 25  2  0  0  0  0
 24 43  1  0  0  0  0
 25 29  1  0  0  0  0
 25 26  1  0  0  0  0
 26 27  1  0  0  0  0
 27 28  2  0  0  0  0
 27 44  1  0  0  0  0
 28 29  1  0  0  0  0
 28 45  1  0  0  0  0
 29 30  1  0  0  0  0
 30 31  1  0  0  0  0
 30 46  1  0  0  0  0
 30 47  1  0  0  0  0
 31 32  1  0  0  0  0
 31 48  1  0  0  0  0
 31 49  1  0  0  0  0
 32 50  1  0  0  0  0
 32 51  1  0  0  0  0
 32 54  1  0  0  0  0
 52 54  1  0  0  0  0
 53 54  1  0  0  0  0
 54 55  1  0  0  0  0
M  CHG  1  54   1
M  END
$$$$
ZINC03815356
  -OEChem-08230709403D

 37 40  0     1  0  0  0  0  0999 V2000
    3.1006    9.6833    1.4615 C   0  0  0  0  0  0  0  0  0  0  0  0
    3.1313    9.1676    0.0213 C   0  0  1  0  0  0  0  0  0  0  0  0
    2.3522    9.6624   -0.5584 H   0  0  0  0  0  0  0  0  0  0  0  0
    4.4767    9.4637   -0.5897 C   0  0  0  0  0  0  0  0  0  0  0  0
    5.5584    8.6509   -0.3065 C   0  0  0  0  0  0  0  0  0  0  0  0
    6.7915    8.9199   -0.8704 C   0  0  0  0  0  0  0  0  0  0  0  0
    6.9450   10.0070   -1.7103 C   0  0  0  0  0  0  0  0  0  0  0  0
    5.8645   10.8229   -1.9894 C   0  0  0  0  0  0  0  0  0  0  0  0
    4.6305   10.5513   -1.4289 C   0  0  0  0  0  0  0  0  0  0  0  0
    2.9001    7.7210    0.0156 N   0  0  0  0  0  0  0  0  0  0  0  0
    1.6053    7.2260    0.0246 C   0  0  0  0  0  0  0  0  0  0  0  0
    1.3654    5.8580    0.0194 C   0  0  0  0  0  0  0  0  0  0  0  0
    0.0585    5.3567    0.0290 C   0  0  0  0  0  0  0  0  0  0  0  0
   -0.0701    3.8863    0.0227 C   0  0  0  0  0  0  0  0  0  0  0  0
   -1.2626    3.1289    0.0304 C   0  0  0  0  0  0  0  0  0  0  0  0
   -1.2204    1.7588    0.0173 C   0  0  0  0  0  0  0  0  0  0  0  0
   -0.0126    1.0758    0.0080 C   0  0  0  0  0  0  0  0  0  0  0  0
    1.1702    1.7877    0.0005 C   0  0  0  0  0  0  0  0  0  0  0  0
    1.1370    3.1681    0.0078 C   0  0  0  0  0  0  0  0  0  0  0  0
    2.3972    4.4179    0.0024 S   0  0  0  0  0  0  0  0  0  0  0  0
   -0.9309    6.2783    0.0432 N   0  0  0  0  0  0  0  0  0  0  0  0
   -0.6680    7.5607    0.0477 C   0  0  0  0  0  0  0  0  0  0  0  0
    0.5586    8.0502    0.0389 N   0  0  0  0  0  0  0  0  0  0  0  0
    3.8798    9.1885    2.0413 H   0  0  0  0  0  0  0  0  0  0  0  0
    3.2727   10.7596    1.4657 H   0  0  0  0  0  0  0  0  0  0  0  0
    2.1275    9.4692    1.9034 H   0  0  0  0  0  0  0  0  0  0  0  0
    5.4393    7.8037    0.3527 H   0  0  0  0  0  0  0  0  0  0  0  0
    7.6355    8.2823   -0.6527 H   0  0  0  0  0  0  0  0  0  0  0  0
    7.9090   10.2187   -2.1488 H   0  0  0  0  0  0  0  0  0  0  0  0
    5.9845   11.6722   -2.6456 H   0  0  0  0  0  0  0  0  0  0  0  0
    3.7863   11.1888   -1.6469 H   0  0  0  0  0  0  0  0  0  0  0  0
    3.6530    7.1095    0.0056 H   0  0  0  0  0  0  0  0  0  0  0  0
   -2.2169    3.6344    0.0419 H   0  0  0  0  0  0  0  0  0  0  0  0
   -2.1448    1.2003    0.0187 H   0  0  0  0  0  0  0  0  0  0  0  0
    0.0021   -0.0041    0.0020 H   0  0  0  0  0  0  0  0  0  0  0  0
    2.1166    1.2676   -0.0114 H   0  0  0  0  0  0  0  0  0  0  0  0
   -1.4964    8.2537    0.0592 H   0  0  0  0  0  0  0  0  0  0  0  0
  1  2  1  0  0  0  0
  1 24  1  0  0  0  0
  1 25  1  0  0  0  0
  1 26  1  0  0  0  0
  2  3  1  0  0  0  0
  2  4  1  0  0  0  0
  2 10  1  0  0  0  0
  4  9  2  0  0  0  0
  4  5  1  0  0  0  0
  5  6  2  0  0  0  0
  5 27  1  0  0  0  0
  6  7  1  0  0  0  0
  6 28  1  0  0  0  0
  7  8  2  0  0  0  0
  7 29  1  0  0  0  0
  8  9  1  0  0  0  0
  8 30  1  0  0  0  0
  9 31  1  0  0  0  0
 10 11  1  0  0  0  0
 10 32  1  0  0  0  0
 11 23  2  0  0  0  0
 11 12  1  0  0  0  0
 12 20  1  0  0  0  0
 12 13  2  0  0  0  0
 13 14  1  0  0  0  0
 13 21  1  0  0  0  0
 14 19  2  0  0  0  0
 14 15  1  0  0  0  0
 15 16  2  0  0  0  0
 15 33  1  0  0  0  0
 16 17  1  0  0  0  0
 16 34  1  0  0  0  0
 17 18  2  0  0  0  0
 17 35  1  0  0  0  0
 18 19  1  0  0  0  0
 18 36  1  0  0  0  0
 19 20  1  0  0  0  0
 21 22  2  0  0  0  0
 22 23  1  0  0  0  0
 22 37  1  0  0  0  0
M  END
$$$$
ZINC03815357
  -OEChem-08230709403D

 30 32  0     0  0  0  0  0  0999 V2000
   -5.1555   -2.8526   -0.2552 C   0  0  0  0  0  0  0  0  0  0  0  0
   -3.9346   -2.2166   -0.3691 C   0  0  0  0  0  0  0  0  0  0  0  0
   -3.7714   -0.9338    0.1379 C   0  0  0  0  0  0  0  0  0  0  0  0
   -4.8358   -0.2965    0.7629 C   0  0  0  0  0  0  0  0  0  0  0  0
   -6.0554   -0.9364    0.8697 C   0  0  0  0  0  0  0  0  0  0  0  0
   -6.2145   -2.2141    0.3631 C   0  0  0  0  0  0  0  0  0  0  0  0
   -7.6636    0.0259    1.8061 I   0  0  0  0  0  0  0  0  0  0  0  0
   -2.5370   -0.2878    0.0246 N   0  0  0  0  0  0  0  0  0  0  0  0
   -2.4871    1.0822   -0.1296 C   0  0  0  0  0  0  0  0  0  0  0  0
   -1.2487    1.7697   -0.1302 C   0  0  0  0  0  0  0  0  0  0  0  0
   -0.0286    1.1052    0.0362 C   0  0  0  0  0  0  0  0  0  0  0  0
    1.1321    1.8214    0.0333 C   0  0  0  0  0  0  0  0  0  0  0  0
    1.1186    3.2040   -0.1277 C   0  0  0  0  0  0  0  0  0  0  0  0
   -0.0537    3.8815   -0.2864 C   0  0  0  0  0  0  0  0  0  0  0  0
   -1.2652    3.1769   -0.2878 C   0  0  0  0  0  0  0  0  0  0  0  0
   -2.4462    3.7947   -0.4401 N   0  0  0  0  0  0  0  0  0  0  0  0
   -3.5624    3.1056   -0.4368 C   0  0  0  0  0  0  0  0  0  0  0  0
   -3.5970    1.7910   -0.2875 N   0  0  0  0  0  0  0  0  0  0  0  0
    2.3969    3.9502   -0.1271 N   0  3  0  0  0  0  0  0  0  0  0  0
    3.4498    3.3543    0.0136 O   0  0  0  0  0  0  0  0  0  0  0  0
    2.3959    5.1601   -0.2672 O   0  5  0  0  0  0  0  0  0  0  0  0
   -5.2828   -3.8501   -0.6492 H   0  0  0  0  0  0  0  0  0  0  0  0
   -3.1079   -2.7161   -0.8522 H   0  0  0  0  0  0  0  0  0  0  0  0
   -4.7110    0.6994    1.1617 H   0  0  0  0  0  0  0  0  0  0  0  0
   -7.1679   -2.7138    0.4511 H   0  0  0  0  0  0  0  0  0  0  0  0
   -1.7155   -0.8027    0.0543 H   0  0  0  0  0  0  0  0  0  0  0  0
   -0.0059    0.0328    0.1616 H   0  0  0  0  0  0  0  0  0  0  0  0
    2.0746    1.3088    0.1572 H   0  0  0  0  0  0  0  0  0  0  0  0
   -0.0488    4.9543   -0.4107 H   0  0  0  0  0  0  0  0  0  0  0  0
   -4.4954    3.6350   -0.5619 H   0  0  0  0  0  0  0  0  0  0  0  0
  1  6  2  0  0  0  0
  1  2  1  0  0  0  0
  1 22  1  0  0  0  0
  2  3  2  0  0  0  0
  2 23  1  0  0  0  0
  3  4  1  0  0  0  0
  3  8  1  0  0  0  0
  4  5  2  0  0  0  0
  4 24  1  0  0  0  0
  5  6  1  0  0  0  0
  5  7  1  0  0  0  0
  6 25  1  0  0  0  0
  8  9  1  0  0  0  0
  8 26  1  0  0  0  0
  9 18  2  0  0  0  0
  9 10  1  0  0  0  0
 10 15  2  0  0  0  0
 10 11  1  0  0  0  0
 11 12  2  0  0  0  0
 11 27  1  0  0  0  0
 12 13  1  0  0  0  0
 12 28  1  0  0  0  0
 13 14  2  0  0  0  0
 13 19  1  0  0  0  0
 14 15  1  0  0  0  0
 14 29  1  0  0  0  0
 15 16  1  0  0  0  0
 16 17  2  0  0  0  0
 17 18  1  0  0  0  0
 17 30  1  0  0  0  0
 19 20  2  0  0  0  0
 19 21  1  0  0  0  0
M  CHG  2  19   1  21  -1
M  END
$$$$
ZINC03815358
  -OEChem-08230709403D

 38 40  0     0  0  0  0  0  0999 V2000
    1.0128    4.4235    4.5589 C   0  0  0  0  0  0  0  0  0  0  0  0
   -0.1576    3.6265    4.3661 O   0  0  0  0  0  0  0  0  0  0  0  0
   -0.3631    3.1228    3.1198 C   0  0  0  0  0  0  0  0  0  0  0  0
    0.5334    3.3908    2.1257 C   0  0  0  0  0  0  0  0  0  0  0  0
    0.3242    2.8726    0.8393 C   0  0  0  0  0  0  0  0  0  0  0  0
   -0.8148    2.0737    0.5758 C   0  0  0  0  0  0  0  0  0  0  0  0
   -1.7217    1.8124    1.6141 C   0  0  0  0  0  0  0  0  0  0  0  0
   -1.4934    2.3332    2.8676 C   0  0  0  0  0  0  0  0  0  0  0  0
   -2.3729    2.0789    3.8713 O   0  0  0  0  0  0  0  0  0  0  0  0
   -3.5050    1.2674    3.5518 C   0  0  0  0  0  0  0  0  0  0  0  0
   -1.0231    1.5790   -0.6534 N   0  0  0  0  0  0  0  0  0  0  0  0
   -0.1930    1.8010   -1.6402 C   0  0  0  0  0  0  0  0  0  0  0  0
    0.9615    2.5819   -1.4693 C   0  0  0  0  0  0  0  0  0  0  0  0
    1.2365    3.1342   -0.2092 C   0  0  0  0  0  0  0  0  0  0  0  0
    2.3609    3.9073    0.0004 N   0  0  0  0  0  0  0  0  0  0  0  0
    3.5582    3.3058    0.4009 C   0  0  0  0  0  0  0  0  0  0  0  0
    3.5866    1.9521    0.7117 C   0  0  0  0  0  0  0  0  0  0  0  0
    4.7709    1.3587    1.1024 C   0  0  0  0  0  0  0  0  0  0  0  0
    5.9278    2.1139    1.1948 C   0  0  0  0  0  0  0  0  0  0  0  0
    5.9013    3.4655    0.8904 C   0  0  0  0  0  0  0  0  0  0  0  0
    4.7191    4.0622    0.4939 C   0  0  0  0  0  0  0  0  0  0  0  0
    7.3534    4.4096    1.0065 Cl  0  0  0  0  0  0  0  0  0  0  0  0
    7.0841    1.5321    1.5817 F   0  0  0  0  0  0  0  0  0  0  0  0
    1.8485    2.8124   -2.5697 C   0  0  0  0  0  0  0  0  0  0  0  0
    2.5522    2.9953   -3.4425 N   0  0  0  0  0  0  0  0  0  0  0  0
    1.0558    4.7613    5.5943 H   0  0  0  0  0  0  0  0  0  0  0  0
    1.8983    3.8291    4.3335 H   0  0  0  0  0  0  0  0  0  0  0  0
    0.9770    5.2879    3.8959 H   0  0  0  0  0  0  0  0  0  0  0  0
    1.4015    4.0002    2.3293 H   0  0  0  0  0  0  0  0  0  0  0  0
   -2.5954    1.2047    1.4305 H   0  0  0  0  0  0  0  0  0  0  0  0
   -4.1247    1.1425    4.4397 H   0  0  0  0  0  0  0  0  0  0  0  0
   -4.0877    1.7496    2.7669 H   0  0  0  0  0  0  0  0  0  0  0  0
   -3.1661    0.2913    3.2049 H   0  0  0  0  0  0  0  0  0  0  0  0
   -0.4032    1.3769   -2.6110 H   0  0  0  0  0  0  0  0  0  0  0  0
    2.3205    4.8676   -0.1300 H   0  0  0  0  0  0  0  0  0  0  0  0
    2.6839    1.3632    0.6440 H   0  0  0  0  0  0  0  0  0  0  0  0
    4.7937    0.3055    1.3405 H   0  0  0  0  0  0  0  0  0  0  0  0
    4.6983    5.1156    0.2570 H   0  0  0  0  0  0  0  0  0  0  0  0
  1  2  1  0  0  0  0
  1 26  1  0  0  0  0
  1 27  1  0  0  0  0
  1 28  1  0  0  0  0
  2  3  1  0  0  0  0
  3  8  2  0  0  0  0
  3  4  1  0  0  0  0
  4  5  2  0  0  0  0
  4 29  1  0  0  0  0
  5 14  1  0  0  0  0
  5  6  1  0  0  0  0
  6  7  2  0  0  0  0
  6 11  1  0  0  0  0
  7  8  1  0  0  0  0
  7 30  1  0  0  0  0
  8  9  1  0  0  0  0
  9 10  1  0  0  0  0
 10 31  1  0  0  0  0
 10 32  1  0  0  0  0
 10 33  1  0  0  0  0
 11 12  2  0  0  0  0
 12 13  1  0  0  0  0
 12 34  1  0  0  0  0
 13 14  2  0  0  0  0
 13 24  1  0  0  0  0
 14 15  1  0  0  0  0
 15 16  1  0  0  0  0
 15 35  1  0  0  0  0
 16 21  2  0  0  0  0
 16 17  1  0  0  0  0
 17 18  2  0  0  0  0
 17 36  1  0  0  0  0
 18 19  1  0  0  0  0
 18 37  1  0  0  0  0
 19 20  2  0  0  0  0
 19 23  1  0  0  0  0
 20 21  1  0  0  0  0
 20 22  1  0  0  0  0
 21 38  1  0  0  0  0
 24 25  3  0  0  0  0
M  END
$$$$
ZINC03815359
  -OEChem-08230709403D

 32 34  0     0  0  0  0  0  0999 V2000
    4.3515   -1.6234    0.1542 C   0  0  0  0  0  0  0  0  0  0  0  0
    3.7504   -0.2548   -0.0373 C   0  0  0  0  0  0  0  0  0  0  0  0
    4.4171    0.9084   -0.1180 C   0  0  0  0  0  0  0  0  0  0  0  0
    3.5316    1.9403   -0.2925 N   0  0  0  0  0  0  0  0  0  0  0  0
    3.7765    2.8750   -0.3779 H   0  0  0  0  0  0  0  0  0  0  0  0
    2.2520    1.4583   -0.3289 C   0  0  0  0  0  0  0  0  0  0  0  0
    2.3299    0.0620   -0.1709 C   0  0  0  0  0  0  0  0  0  0  0  0
    1.1408   -0.6828   -0.1723 C   0  0  0  0  0  0  0  0  0  0  0  0
   -0.0102   -0.0336   -0.3234 N   0  0  0  0  0  0  0  0  0  0  0  0
   -0.0377    1.2787   -0.4688 C   0  0  0  0  0  0  0  0  0  0  0  0
    1.0515    2.0167   -0.4736 N   0  0  0  0  0  0  0  0  0  0  0  0
    1.1649   -2.0584   -0.0197 N   0  0  0  0  0  0  0  0  0  0  0  0
   -0.0327   -2.7700    0.0939 C   0  0  0  0  0  0  0  0  0  0  0  0
   -0.1264   -4.0603   -0.4130 C   0  0  0  0  0  0  0  0  0  0  0  0
   -1.3103   -4.7620   -0.2993 C   0  0  0  0  0  0  0  0  0  0  0  0
   -2.4033   -4.1824    0.3183 C   0  0  0  0  0  0  0  0  0  0  0  0
   -2.3145   -2.8965    0.8250 C   0  0  0  0  0  0  0  0  0  0  0  0
   -1.1292   -2.1910    0.7186 C   0  0  0  0  0  0  0  0  0  0  0  0
   -3.3839   -2.3331    1.4284 F   0  0  0  0  0  0  0  0  0  0  0  0
    5.9141    1.0569   -0.0299 C   0  0  0  0  0  0  0  0  0  0  0  0
    4.5675   -2.0648   -0.8187 H   0  0  0  0  0  0  0  0  0  0  0  0
    5.2748   -1.5378    0.7273 H   0  0  0  0  0  0  0  0  0  0  0  0
    3.6472   -2.2576    0.6926 H   0  0  0  0  0  0  0  0  0  0  0  0
   -0.9936    1.7658   -0.5934 H   0  0  0  0  0  0  0  0  0  0  0  0
    2.0129   -2.5285    0.0083 H   0  0  0  0  0  0  0  0  0  0  0  0
    0.7263   -4.5142   -0.8960 H   0  0  0  0  0  0  0  0  0  0  0  0
   -1.3826   -5.7650   -0.6931 H   0  0  0  0  0  0  0  0  0  0  0  0
   -3.3279   -4.7337    0.4061 H   0  0  0  0  0  0  0  0  0  0  0  0
   -1.0581   -1.1899    1.1176 H   0  0  0  0  0  0  0  0  0  0  0  0
    6.3461    0.9813   -1.0278 H   0  0  0  0  0  0  0  0  0  0  0  0
    6.1582    2.0288    0.3990 H   0  0  0  0  0  0  0  0  0  0  0  0
    6.3209    0.2680    0.6028 H   0  0  0  0  0  0  0  0  0  0  0  0
  1  2  1  0  0  0  0
  1 21  1  0  0  0  0
  1 22  1  0  0  0  0
  1 23  1  0  0  0  0
  2  7  1  0  0  0  0
  2  3  2  0  0  0  0
  3  4  1  0  0  0  0
  3 20  1  0  0  0  0
  4  5  1  0  0  0  0
  4  6  1  0  0  0  0
  6 11  2  0  0  0  0
  6  7  1  0  0  0  0
  7  8  2  0  0  0  0
  8  9  1  0  0  0  0
  8 12  1  0  0  0  0
  9 10  2  0  0  0  0
 10 11  1  0  0  0  0
 10 24  1  0  0  0  0
 12 13  1  0  0  0  0
 12 25  1  0  0  0  0
 13 18  2  0  0  0  0
 13 14  1  0  0  0  0
 14 15  2  0  0  0  0
 14 26  1  0  0  0  0
 15 16  1  0  0  0  0
 15 27  1  0  0  0  0
 16 17  2  0  0  0  0
 16 28  1  0  0  0  0
 17 18  1  0  0  0  0
 17 19  1  0  0  0  0
 18 29  1  0  0  0  0
 20 30  1  0  0  0  0
 20 31  1  0  0  0  0
 20 32  1  0  0  0  0
M  END
$$$$
ZINC03815360
  -OEChem-08230709403D

 32 34  0     0  0  0  0  0  0999 V2000
    4.3516   -1.6233    0.1547 C   0  0  0  0  0  0  0  0  0  0  0  0
    3.7505   -0.2548   -0.0372 C   0  0  0  0  0  0  0  0  0  0  0  0
    4.4172    0.9084   -0.1178 C   0  0  0  0  0  0  0  0  0  0  0  0
    3.5316    1.9404   -0.2920 N   0  0  0  0  0  0  0  0  0  0  0  0
    3.7765    2.8750   -0.3776 H   0  0  0  0  0  0  0  0  0  0  0  0
    2.2521    1.4584   -0.3284 C   0  0  0  0  0  0  0  0  0  0  0  0
    2.3300    0.0620   -0.1706 C   0  0  0  0  0  0  0  0  0  0  0  0
    1.1409   -0.6828   -0.1720 C   0  0  0  0  0  0  0  0  0  0  0  0
   -0.0102   -0.0335   -0.3229 N   0  0  0  0  0  0  0  0  0  0  0  0
   -0.0377    1.2788   -0.4681 C   0  0  0  0  0  0  0  0  0  0  0  0
    1.0515    2.0167   -0.4728 N   0  0  0  0  0  0  0  0  0  0  0  0
    1.1650   -2.0582   -0.0197 N   0  0  0  0  0  0  0  0  0  0  0  0
   -0.0337   -2.7705    0.0940 C   0  0  0  0  0  0  0  0  0  0  0  0
   -1.1304   -2.1911    0.7189 C   0  0  0  0  0  0  0  0  0  0  0  0
   -2.3142   -2.8944    0.8259 C   0  0  0  0  0  0  0  0  0  0  0  0
   -2.4050   -4.1801    0.3199 C   0  0  0  0  0  0  0  0  0  0  0  0
   -1.3113   -4.7617   -0.2989 C   0  0  0  0  0  0  0  0  0  0  0  0
   -0.1271   -4.0602   -0.4127 C   0  0  0  0  0  0  0  0  0  0  0  0
   -3.5626   -4.8680    0.4297 F   0  0  0  0  0  0  0  0  0  0  0  0
    5.9143    1.0569   -0.0306 C   0  0  0  0  0  0  0  0  0  0  0  0
    4.5673   -2.0651   -0.8181 H   0  0  0  0  0  0  0  0  0  0  0  0
    5.2750   -1.5375    0.7275 H   0  0  0  0  0  0  0  0  0  0  0  0
    3.6474   -2.2572    0.6935 H   0  0  0  0  0  0  0  0  0  0  0  0
   -0.9935    1.7660   -0.5924 H   0  0  0  0  0  0  0  0  0  0  0  0
    2.0130   -2.5283    0.0081 H   0  0  0  0  0  0  0  0  0  0  0  0
   -1.0587   -1.1898    1.1173 H   0  0  0  0  0  0  0  0  0  0  0  0
   -3.1686   -2.4425    1.3078 H   0  0  0  0  0  0  0  0  0  0  0  0
   -1.3844   -5.7646   -0.6931 H   0  0  0  0  0  0  0  0  0  0  0  0
    0.7256   -4.5141   -0.8957 H   0  0  0  0  0  0  0  0  0  0  0  0
    6.3456    0.9818   -1.0288 H   0  0  0  0  0  0  0  0  0  0  0  0
    6.1587    2.0286    0.3986 H   0  0  0  0  0  0  0  0  0  0  0  0
    6.3215    0.2677    0.6014 H   0  0  0  0  0  0  0  0  0  0  0  0
  1  2  1  0  0  0  0
  1 21  1  0  0  0  0
  1 22  1  0  0  0  0
  1 23  1  0  0  0  0
  2  7  1  0  0  0  0
  2  3  2  0  0  0  0
  3  4  1  0  0  0  0
  3 20  1  0  0  0  0
  4  5  1  0  0  0  0
  4  6  1  0  0  0  0
  6 11  2  0  0  0  0
  6  7  1  0  0  0  0
  7  8  2  0  0  0  0
  8  9  1  0  0  0  0
  8 12  1  0  0  0  0
  9 10  2  0  0  0  0
 10 11  1  0  0  0  0
 10 24  1  0  0  0  0
 12 13  1  0  0  0  0
 12 25  1  0  0  0  0
 13 18  2  0  0  0  0
 13 14  1  0  0  0  0
 14 15  2  0  0  0  0
 14 26  1  0  0  0  0
 15 16  1  0  0  0  0
 15 27  1  0  0  0  0
 16 17  2  0  0  0  0
 16 19  1  0  0  0  0
 17 18  1  0  0  0  0
 17 28  1  0  0  0  0
 18 29  1  0  0  0  0
 20 30  1  0  0  0  0
 20 31  1  0  0  0  0
 20 32  1  0  0  0  0
M  END
$$$$
ZINC03815361
  -OEChem-08230709403D

 35 37  0     0  0  0  0  0  0999 V2000
   -1.4143   -6.1598   -0.8483 C   0  0  0  0  0  0  0  0  0  0  0  0
   -1.3114   -4.7603   -0.2989 C   0  0  0  0  0  0  0  0  0  0  0  0
   -2.4036   -4.1789    0.3192 C   0  0  0  0  0  0  0  0  0  0  0  0
   -2.3137   -2.8949    0.8242 C   0  0  0  0  0  0  0  0  0  0  0  0
   -1.1299   -2.1909    0.7187 C   0  0  0  0  0  0  0  0  0  0  0  0
   -0.0329   -2.7699    0.0939 C   0  0  0  0  0  0  0  0  0  0  0  0
   -0.1268   -4.0601   -0.4128 C   0  0  0  0  0  0  0  0  0  0  0  0
    1.1648   -2.0582   -0.0197 N   0  0  0  0  0  0  0  0  0  0  0  0
    1.1406   -0.6826   -0.1719 C   0  0  0  0  0  0  0  0  0  0  0  0
    2.3300    0.0624   -0.1705 C   0  0  0  0  0  0  0  0  0  0  0  0
    3.7505   -0.2545   -0.0368 C   0  0  0  0  0  0  0  0  0  0  0  0
    4.4171    0.9088   -0.1171 C   0  0  0  0  0  0  0  0  0  0  0  0
    3.5316    1.9406   -0.2915 N   0  0  0  0  0  0  0  0  0  0  0  0
    3.7764    2.8753   -0.3763 H   0  0  0  0  0  0  0  0  0  0  0  0
    2.2521    1.4584   -0.3283 C   0  0  0  0  0  0  0  0  0  0  0  0
    1.0513    2.0169   -0.4726 N   0  0  0  0  0  0  0  0  0  0  0  0
   -0.0377    1.2792   -0.4679 C   0  0  0  0  0  0  0  0  0  0  0  0
   -0.0102   -0.0335   -0.3228 N   0  0  0  0  0  0  0  0  0  0  0  0
    5.9142    1.0574   -0.0287 C   0  0  0  0  0  0  0  0  0  0  0  0
    4.3515   -1.6230    0.1553 C   0  0  0  0  0  0  0  0  0  0  0  0
   -1.1289   -6.8749   -0.0767 H   0  0  0  0  0  0  0  0  0  0  0  0
   -2.4404   -6.3529   -1.1610 H   0  0  0  0  0  0  0  0  0  0  0  0
   -0.7478   -6.2640   -1.7045 H   0  0  0  0  0  0  0  0  0  0  0  0
   -3.3289   -4.7289    0.4073 H   0  0  0  0  0  0  0  0  0  0  0  0
   -3.1685   -2.4436    1.3060 H   0  0  0  0  0  0  0  0  0  0  0  0
   -1.0588   -1.1900    1.1179 H   0  0  0  0  0  0  0  0  0  0  0  0
    0.7258   -4.5149   -0.8950 H   0  0  0  0  0  0  0  0  0  0  0  0
    2.0128   -2.5283    0.0081 H   0  0  0  0  0  0  0  0  0  0  0  0
   -0.9936    1.7663   -0.5922 H   0  0  0  0  0  0  0  0  0  0  0  0
    6.3463    0.9820   -1.0265 H   0  0  0  0  0  0  0  0  0  0  0  0
    6.1581    2.0292    0.4005 H   0  0  0  0  0  0  0  0  0  0  0  0
    6.3209    0.2684    0.6039 H   0  0  0  0  0  0  0  0  0  0  0  0
    4.5674   -2.0648   -0.8175 H   0  0  0  0  0  0  0  0  0  0  0  0
    5.2747   -1.5373    0.7284 H   0  0  0  0  0  0  0  0  0  0  0  0
    3.6471   -2.2569    0.6938 H   0  0  0  0  0  0  0  0  0  0  0  0
  1  2  1  0  0  0  0
  1 21  1  0  0  0  0
  1 22  1  0  0  0  0
  1 23  1  0  0  0  0
  2  7  2  0  0  0  0
  2  3  1  0  0  0  0
  3  4  2  0  0  0  0
  3 24  1  0  0  0  0
  4  5  1  0  0  0  0
  4 25  1  0  0  0  0
  5  6  2  0  0  0  0
  5 26  1  0  0  0  0
  6  7  1  0  0  0  0
  6  8  1  0  0  0  0
  7 27  1  0  0  0  0
  8  9  1  0  0  0  0
  8 28  1  0  0  0  0
  9 18  2  0  0  0  0
  9 10  1  0  0  0  0
 10 15  2  0  0  0  0
 10 11  1  0  0  0  0
 11 12  2  0  0  0  0
 11 20  1  0  0  0  0
 12 13  1  0  0  0  0
 12 19  1  0  0  0  0
 13 14  1  0  0  0  0
 13 15  1  0  0  0  0
 15 16  1  0  0  0  0
 16 17  2  0  0  0  0
 17 18  1  0  0  0  0
 17 29  1  0  0  0  0
 19 30  1  0  0  0  0
 19 31  1  0  0  0  0
 19 32  1  0  0  0  0
 20 33  1  0  0  0  0
 20 34  1  0  0  0  0
 20 35  1  0  0  0  0
M  END
$$$$
ZINC03815362
  -OEChem-08230709403D

 33 35  0     0  0  0  0  0  0999 V2000
    5.9506    2.8074   -0.3307 C   0  0  0  0  0  0  0  0  0  0  0  0
    5.9590    1.5604    0.2674 C   0  0  0  0  0  0  0  0  0  0  0  0
    4.7895    1.0261    0.7760 C   0  0  0  0  0  0  0  0  0  0  0  0
    3.6094    1.7390    0.6928 C   0  0  0  0  0  0  0  0  0  0  0  0
    3.5964    2.9895    0.0884 C   0  0  0  0  0  0  0  0  0  0  0  0
    4.7734    3.5233   -0.4215 C   0  0  0  0  0  0  0  0  0  0  0  0
    2.4031    3.7117   -0.0014 N   0  0  0  0  0  0  0  0  0  0  0  0
    1.2034    3.0463   -0.1533 C   0  0  0  0  0  0  0  0  0  0  0  0
   -0.0265    3.7489   -0.1294 C   0  0  0  0  0  0  0  0  0  0  0  0
   -0.0854    5.1352    0.0472 C   0  0  0  0  0  0  0  0  0  0  0  0
   -1.3140    5.7635    0.0624 C   0  0  0  0  0  0  0  0  0  0  0  0
   -2.4919    5.0270   -0.0985 C   0  0  0  0  0  0  0  0  0  0  0  0
   -2.4556    3.6769   -0.2721 C   0  0  0  0  0  0  0  0  0  0  0  0
   -1.2232    3.0091   -0.2913 C   0  0  0  0  0  0  0  0  0  0  0  0
   -1.1403    1.6809   -0.4649 N   0  0  0  0  0  0  0  0  0  0  0  0
    0.0266    1.0825   -0.4733 C   0  0  0  0  0  0  0  0  0  0  0  0
    1.1707    1.7320   -0.3261 N   0  0  0  0  0  0  0  0  0  0  0  0
   -1.3817    7.1481    0.2392 N   0  0  0  0  0  0  0  0  0  0  0  0
    4.8036   -0.3328    1.4273 C   0  0  0  0  0  0  0  0  0  0  0  0
    6.1029   -0.8507    1.3975 F   0  0  0  0  0  0  0  0  0  0  0  0
    4.3776   -0.2180    2.7549 F   0  0  0  0  0  0  0  0  0  0  0  0
    3.9435   -1.1911    0.7341 F   0  0  0  0  0  0  0  0  0  0  0  0
    6.8659    3.2218   -0.7269 H   0  0  0  0  0  0  0  0  0  0  0  0
    6.8813    1.0028    0.3378 H   0  0  0  0  0  0  0  0  0  0  0  0
    2.6970    1.3229    1.0938 H   0  0  0  0  0  0  0  0  0  0  0  0
    4.7675    4.4970   -0.8887 H   0  0  0  0  0  0  0  0  0  0  0  0
    2.4181    4.6806    0.0431 H   0  0  0  0  0  0  0  0  0  0  0  0
    0.8217    5.7080    0.1718 H   0  0  0  0  0  0  0  0  0  0  0  0
   -3.4441    5.5363   -0.0845 H   0  0  0  0  0  0  0  0  0  0  0  0
   -3.3740    3.1219   -0.3942 H   0  0  0  0  0  0  0  0  0  0  0  0
    0.0558    0.0117   -0.6110 H   0  0  0  0  0  0  0  0  0  0  0  0
   -2.2430    7.5942    0.2500 H   0  0  0  0  0  0  0  0  0  0  0  0
   -0.5674    7.6631    0.3512 H   0  0  0  0  0  0  0  0  0  0  0  0
  1  6  2  0  0  0  0
  1  2  1  0  0  0  0
  1 23  1  0  0  0  0
  2  3  2  0  0  0  0
  2 24  1  0  0  0  0
  3  4  1  0  0  0  0
  3 19  1  0  0  0  0
  4  5  2  0  0  0  0
  4 25  1  0  0  0  0
  5  6  1  0  0  0  0
  5  7  1  0  0  0  0
  6 26  1  0  0  0  0
  7  8  1  0  0  0  0
  7 27  1  0  0  0  0
  8 17  2  0  0  0  0
  8  9  1  0  0  0  0
  9 14  2  0  0  0  0
  9 10  1  0  0  0  0
 10 11  2  0  0  0  0
 10 28  1  0  0  0  0
 11 12  1  0  0  0  0
 11 18  1  0  0  0  0
 12 13  2  0  0  0  0
 12 29  1  0  0  0  0
 13 14  1  0  0  0  0
 13 30  1  0  0  0  0
 14 15  1  0  0  0  0
 15 16  2  0  0  0  0
 16 17  1  0  0  0  0
 16 31  1  0  0  0  0
 18 32  1  0  0  0  0
 18 33  1  0  0  0  0
 19 20  1  0  0  0  0
 19 21  1  0  0  0  0
 19 22  1  0  0  0  0
M  END
$$$$
ZINC03815364
  -OEChem-08230709403D

 33 35  0     0  0  0  0  0  0999 V2000
   -7.1149    5.4514    0.0971 C   0  0  0  0  0  0  0  0  0  0  0  0
   -6.5787    5.0354   -1.1072 C   0  0  0  0  0  0  0  0  0  0  0  0
   -5.4831    4.1926   -1.1216 C   0  0  0  0  0  0  0  0  0  0  0  0
   -4.9241    3.7653    0.0683 C   0  0  0  0  0  0  0  0  0  0  0  0
   -5.4638    4.1767    1.2726 C   0  0  0  0  0  0  0  0  0  0  0  0
   -6.5559    5.0242    1.2870 C   0  0  0  0  0  0  0  0  0  0  0  0
   -3.7300    2.8460    0.0526 C   0  0  0  0  0  0  0  0  0  0  0  0
   -2.5006    3.6426    0.0446 N   0  0  0  0  0  0  0  0  0  0  0  0
   -1.2740    3.0160    0.0300 C   0  0  0  0  0  0  0  0  0  0  0  0
   -0.0745    3.7650    0.0221 C   0  0  0  0  0  0  0  0  0  0  0  0
   -0.0557    5.1619    0.0281 C   0  0  0  0  0  0  0  0  0  0  0  0
    2.2642    5.1758    0.0064 C   0  0  0  0  0  0  0  0  0  0  0  0
    2.3453    3.7954   -0.0009 C   0  0  0  0  0  0  0  0  0  0  0  0
    1.1566    3.0567    0.0070 C   0  0  0  0  0  0  0  0  0  0  0  0
    1.1330    1.7181    0.0005 N   0  0  0  0  0  0  0  0  0  0  0  0
   -0.0126    1.0758    0.0080 C   0  0  0  0  0  0  0  0  0  0  0  0
   -1.1838    1.6912    0.0170 N   0  0  0  0  0  0  0  0  0  0  0  0
    3.4343    5.9239   -0.0013 N   0  0  0  0  0  0  0  0  0  0  0  0
   -7.9704    6.1105    0.1084 H   0  0  0  0  0  0  0  0  0  0  0  0
   -7.0155    5.3692   -2.0368 H   0  0  0  0  0  0  0  0  0  0  0  0
   -5.0642    3.8675   -2.0625 H   0  0  0  0  0  0  0  0  0  0  0  0
   -5.0298    3.8394    2.2022 H   0  0  0  0  0  0  0  0  0  0  0  0
   -6.9746    5.3494    2.2279 H   0  0  0  0  0  0  0  0  0  0  0  0
   -3.7641    2.2215   -0.8401 H   0  0  0  0  0  0  0  0  0  0  0  0
   -3.7471    2.2131    0.9398 H   0  0  0  0  0  0  0  0  0  0  0  0
   -2.5503    4.6114    0.0497 H   0  0  0  0  0  0  0  0  0  0  0  0
   -0.9838    5.7141    0.0393 H   0  0  0  0  0  0  0  0  0  0  0  0
    3.3042    3.2985   -0.0122 H   0  0  0  0  0  0  0  0  0  0  0  0
    0.0021   -0.0041    0.0020 H   0  0  0  0  0  0  0  0  0  0  0  0
    4.2954    5.4774   -0.0117 H   0  0  0  0  0  0  0  0  0  0  0  0
    3.3905    6.8929    0.0037 H   0  0  0  0  0  0  0  0  0  0  0  0
    1.0900    5.8897    0.0206 N   0  3  0  0  0  0  0  0  0  0  0  0
    1.0800    6.9164    0.0253 H   0  0  0  0  0  0  0  0  0  0  0  0
  1  6  2  0  0  0  0
  1  2  1  0  0  0  0
  1 19  1  0  0  0  0
  2  3  2  0  0  0  0
  2 20  1  0  0  0  0
  3  4  1  0  0  0  0
  3 21  1  0  0  0  0
  4  5  2  0  0  0  0
  4  7  1  0  0  0  0
  5  6  1  0  0  0  0
  5 22  1  0  0  0  0
  6 23  1  0  0  0  0
  7  8  1  0  0  0  0
  7 24  1  0  0  0  0
  7 25  1  0  0  0  0
  8  9  1  0  0  0  0
  8 26  1  0  0  0  0
  9 17  2  0  0  0  0
  9 10  1  0  0  0  0
 10 14  2  0  0  0  0
 10 11  1  0  0  0  0
 11 27  1  0  0  0  0
 11 32  2  0  0  0  0
 12 13  2  0  0  0  0
 12 18  1  0  0  0  0
 12 32  1  0  0  0  0
 13 14  1  0  0  0  0
 13 28  1  0  0  0  0
 14 15  1  0  0  0  0
 15 16  2  0  0  0  0
 16 17  1  0  0  0  0
 16 29  1  0  0  0  0
 18 30  1  0  0  0  0
 18 31  1  0  0  0  0
 32 33  1  0  0  0  0
M  CHG  1  32   1
M  END
$$$$
ZINC03815365
  -OEChem-08230709403D

 36 38  0     0  0  0  0  0  0999 V2000
    8.2775   -3.2631   -7.0277 C   0  0  0  0  0  0  0  0  0  0  0  0
    7.0376   -2.5694   -6.8747 O   0  0  0  0  0  0  0  0  0  0  0  0
    6.6158   -2.3329   -5.6052 C   0  0  0  0  0  0  0  0  0  0  0  0
    7.3807   -2.7603   -4.5425 C   0  0  0  0  0  0  0  0  0  0  0  0
    6.9436   -2.5153   -3.2351 C   0  0  0  0  0  0  0  0  0  0  0  0
    5.7205   -1.8311   -3.0264 C   0  0  0  0  0  0  0  0  0  0  0  0
    4.9617   -1.4071   -4.1239 C   0  0  0  0  0  0  0  0  0  0  0  0
    5.4070   -1.6562   -5.3910 C   0  0  0  0  0  0  0  0  0  0  0  0
    4.6695   -1.2435   -6.4563 O   0  0  0  0  0  0  0  0  0  0  0  0
    5.3044   -1.5983   -1.6939 C   0  0  0  0  0  0  0  0  0  0  0  0
    6.0829   -2.0274   -0.7095 N   0  0  0  0  0  0  0  0  0  0  0  0
    7.2157   -2.6676   -0.9525 C   0  0  0  0  0  0  0  0  0  0  0  0
    7.6513   -2.9112   -2.1655 N   0  0  0  0  0  0  0  0  0  0  0  0
    4.1233   -0.9376   -1.4260 N   0  0  0  0  0  0  0  0  0  0  0  0
    3.7112   -0.7071   -0.0392 C   0  0  0  0  0  0  0  0  0  0  0  0
    2.3960    0.0285   -0.0217 C   0  0  0  0  0  0  0  0  0  0  0  0
    1.2084   -0.6789   -0.0136 C   0  0  0  0  0  0  0  0  0  0  0  0
    0.0021   -0.0041    0.0020 C   0  0  0  0  0  0  0  0  0  0  0  0
   -0.0167    1.3781    0.0096 C   0  0  0  0  0  0  0  0  0  0  0  0
    1.1709    2.0855    0.0021 C   0  0  0  0  0  0  0  0  0  0  0  0
    2.3773    1.4107   -0.0141 C   0  0  0  0  0  0  0  0  0  0  0  0
    8.4966   -3.3860   -8.0884 H   0  0  0  0  0  0  0  0  0  0  0  0
    9.0754   -2.6894   -6.5561 H   0  0  0  0  0  0  0  0  0  0  0  0
    8.2064   -4.2428   -6.5554 H   0  0  0  0  0  0  0  0  0  0  0  0
    8.3111   -3.2804   -4.7164 H   0  0  0  0  0  0  0  0  0  0  0  0
    4.0290   -0.8849   -3.9695 H   0  0  0  0  0  0  0  0  0  0  0  0
    4.0246   -1.8950   -6.7642 H   0  0  0  0  0  0  0  0  0  0  0  0
    7.8104   -2.9998   -0.1144 H   0  0  0  0  0  0  0  0  0  0  0  0
    3.5657   -0.6257   -2.1559 H   0  0  0  0  0  0  0  0  0  0  0  0
    4.4679   -0.1107    0.4703 H   0  0  0  0  0  0  0  0  0  0  0  0
    3.5990   -1.6641    0.4703 H   0  0  0  0  0  0  0  0  0  0  0  0
    1.2231   -1.7587   -0.0199 H   0  0  0  0  0  0  0  0  0  0  0  0
   -0.9258   -0.5567    0.0079 H   0  0  0  0  0  0  0  0  0  0  0  0
   -0.9592    1.9054    0.0170 H   0  0  0  0  0  0  0  0  0  0  0  0
    1.1563    3.1654    0.0077 H   0  0  0  0  0  0  0  0  0  0  0  0
    3.3051    1.9634   -0.0207 H   0  0  0  0  0  0  0  0  0  0  0  0
  1  2  1  0  0  0  0
  1 22  1  0  0  0  0
  1 23  1  0  0  0  0
  1 24  1  0  0  0  0
  2  3  1  0  0  0  0
  3  8  2  0  0  0  0
  3  4  1  0  0  0  0
  4  5  2  0  0  0  0
  4 25  1  0  0  0  0
  5 13  1  0  0  0  0
  5  6  1  0  0  0  0
  6  7  2  0  0  0  0
  6 10  1  0  0  0  0
  7  8  1  0  0  0  0
  7 26  1  0  0  0  0
  8  9  1  0  0  0  0
  9 27  1  0  0  0  0
 10 11  2  0  0  0  0
 10 14  1  0  0  0  0
 11 12  1  0  0  0  0
 12 13  2  0  0  0  0
 12 28  1  0  0  0  0
 14 15  1  0  0  0  0
 14 29  1  0  0  0  0
 15 16  1  0  0  0  0
 15 30  1  0  0  0  0
 15 31  1  0  0  0  0
 16 21  2  0  0  0  0
 16 17  1  0  0  0  0
 17 18  2  0  0  0  0
 17 32  1  0  0  0  0
 18 19  1  0  0  0  0
 18 33  1  0  0  0  0
 19 20  2  0  0  0  0
 19 34  1  0  0  0  0
 20 21  1  0  0  0  0
 20 35  1  0  0  0  0
 21 36  1  0  0  0  0
M  END
$$$$
ZINC03815366
  -OEChem-08230709403D

 40 43  0     0  0  0  0  0  0999 V2000
    3.9732    3.6195    0.0048 C   0  0  0  0  0  0  0  0  0  0  0  0
    3.3738    4.4689   -0.9079 C   0  0  0  0  0  0  0  0  0  0  0  0
    2.0036    4.6319   -0.9063 C   0  0  0  0  0  0  0  0  0  0  0  0
    1.2229    3.9385    0.0177 C   0  0  0  0  0  0  0  0  0  0  0  0
    1.8331    3.0880    0.9387 C   0  0  0  0  0  0  0  0  0  0  0  0
    3.2038    2.9289    0.9240 C   0  0  0  0  0  0  0  0  0  0  0  0
   -0.2494    4.1097    0.0250 C   0  0  0  0  0  0  0  0  0  0  0  0
   -0.9291    5.2829    0.0338 C   0  0  0  0  0  0  0  0  0  0  0  0
   -2.2760    5.0342    0.0389 N   0  0  0  0  0  0  0  0  0  0  0  0
   -2.5086    3.6829    0.0334 C   0  0  0  0  0  0  0  0  0  0  0  0
   -1.2577    3.0416    0.0304 C   0  0  0  0  0  0  0  0  0  0  0  0
   -1.2185    1.6412    0.0167 C   0  0  0  0  0  0  0  0  0  0  0  0
   -2.3712    0.9770    0.0186 N   0  0  0  0  0  0  0  0  0  0  0  0
   -3.5254    1.6185    0.0275 C   0  0  0  0  0  0  0  0  0  0  0  0
   -3.6085    2.9315    0.0346 N   0  0  0  0  0  0  0  0  0  0  0  0
   -0.0111    0.9658    0.0074 N   0  0  0  0  0  0  0  0  0  0  0  0
   -3.2725    6.0187    0.0487 C   0  0  0  0  0  0  0  0  0  0  0  0
   -4.3120    5.9657   -0.8708 C   0  0  0  0  0  0  0  0  0  0  0  0
   -5.2957    6.9348   -0.8551 C   0  0  0  0  0  0  0  0  0  0  0  0
   -5.2405    7.9634    0.0678 C   0  0  0  0  0  0  0  0  0  0  0  0
   -4.2041    8.0217    0.9811 C   0  0  0  0  0  0  0  0  0  0  0  0
   -3.2199    7.0525    0.9739 C   0  0  0  0  0  0  0  0  0  0  0  0
   -4.1477    9.1442    1.9850 C   0  0  0  0  0  0  0  0  0  0  0  0
   -3.4090   10.2375    1.4363 O   0  0  0  0  0  0  0  0  0  0  0  0
    5.0459    3.4948   -0.0004 H   0  0  0  0  0  0  0  0  0  0  0  0
    3.9795    5.0051   -1.6234 H   0  0  0  0  0  0  0  0  0  0  0  0
    1.5367    5.2950   -1.6196 H   0  0  0  0  0  0  0  0  0  0  0  0
    1.2339    2.5517    1.6596 H   0  0  0  0  0  0  0  0  0  0  0  0
    3.6772    2.2675    1.6345 H   0  0  0  0  0  0  0  0  0  0  0  0
   -0.4774    6.2639    0.0370 H   0  0  0  0  0  0  0  0  0  0  0  0
   -4.4385    1.0417    0.0287 H   0  0  0  0  0  0  0  0  0  0  0  0
    0.0021   -0.0041    0.0020 H   0  0  0  0  0  0  0  0  0  0  0  0
    0.8223    1.4622    0.0021 H   0  0  0  0  0  0  0  0  0  0  0  0
   -4.3532    5.1653   -1.5946 H   0  0  0  0  0  0  0  0  0  0  0  0
   -6.1063    6.8921   -1.5674 H   0  0  0  0  0  0  0  0  0  0  0  0
   -6.0084    8.7228    0.0750 H   0  0  0  0  0  0  0  0  0  0  0  0
   -2.4105    7.0986    1.6875 H   0  0  0  0  0  0  0  0  0  0  0  0
   -5.1602    9.4719    2.2209 H   0  0  0  0  0  0  0  0  0  0  0  0
   -3.6580    8.7946    2.8939 H   0  0  0  0  0  0  0  0  0  0  0  0
   -3.3321   10.9973    2.0294 H   0  0  0  0  0  0  0  0  0  0  0  0
  1  6  2  0  0  0  0
  1  2  1  0  0  0  0
  1 25  1  0  0  0  0
  2  3  2  0  0  0  0
  2 26  1  0  0  0  0
  3  4  1  0  0  0  0
  3 27  1  0  0  0  0
  4  5  2  0  0  0  0
  4  7  1  0  0  0  0
  5  6  1  0  0  0  0
  5 28  1  0  0  0  0
  6 29  1  0  0  0  0
  7 11  1  0  0  0  0
  7  8  2  0  0  0  0
  8  9  1  0  0  0  0
  8 30  1  0  0  0  0
  9 10  1  0  0  0  0
  9 17  1  0  0  0  0
 10 15  2  0  0  0  0
 10 11  1  0  0  0  0
 11 12  2  0  0  0  0
 12 13  1  0  0  0  0
 12 16  1  0  0  0  0
 13 14  2  0  0  0  0
 14 15  1  0  0  0  0
 14 31  1  0  0  0  0
 16 32  1  0  0  0  0
 16 33  1  0  0  0  0
 17 22  2  0  0  0  0
 17 18  1  0  0  0  0
 18 19  2  0  0  0  0
 18 34  1  0  0  0  0
 19 20  1  0  0  0  0
 19 35  1  0  0  0  0
 20 21  2  0  0  0  0
 20 36  1  0  0  0  0
 21 22  1  0  0  0  0
 21 23  1  0  0  0  0
 22 37  1  0  0  0  0
 23 24  1  0  0  0  0
 23 38  1  0  0  0  0
 23 39  1  0  0  0  0
 24 40  1  0  0  0  0
M  END
$$$$
ZINC03815367
  -OEChem-08230709403D

 30 32  0     0  0  0  0  0  0999 V2000
    6.3903   -5.7741   -0.0946 C   0  0  0  0  0  0  0  0  0  0  0  0
    5.7550   -5.5382    1.1103 C   0  0  0  0  0  0  0  0  0  0  0  0
    4.4615   -5.0509    1.1258 C   0  0  0  0  0  0  0  0  0  0  0  0
    3.8031   -4.7999   -0.0635 C   0  0  0  0  0  0  0  0  0  0  0  0
    4.4364   -5.0412   -1.2683 C   0  0  0  0  0  0  0  0  0  0  0  0
    5.7320   -5.5231   -1.2839 C   0  0  0  0  0  0  0  0  0  0  0  0
    2.3928   -4.2691   -0.0465 C   0  0  0  0  0  0  0  0  0  0  0  0
    2.4224   -2.8044   -0.0376 N   0  0  0  0  0  0  0  0  0  0  0  0
    1.2425   -2.0911   -0.0218 C   0  0  0  0  0  0  0  0  0  0  0  0
    1.2495   -0.6715   -0.0134 C   0  0  0  0  0  0  0  0  0  0  0  0
    0.0021   -0.0041    0.0020 C   0  0  0  0  0  0  0  0  0  0  0  0
   -0.0170    1.4009    0.0097 C   0  0  0  0  0  0  0  0  0  0  0  0
    1.1805    2.0604    0.0019 C   0  0  0  0  0  0  0  0  0  0  0  0
    2.3718    1.3387   -0.0125 C   0  0  0  0  0  0  0  0  0  0  0  0
    2.3823    0.0265   -0.0201 N   0  0  0  0  0  0  0  0  0  0  0  0
   -1.1234   -0.7309    0.0083 N   0  0  0  0  0  0  0  0  0  0  0  0
   -1.0686   -2.0416    0.0004 C   0  0  0  0  0  0  0  0  0  0  0  0
    0.0724   -2.7126   -0.0144 N   0  0  0  0  0  0  0  0  0  0  0  0
    7.4012   -6.1541   -0.1067 H   0  0  0  0  0  0  0  0  0  0  0  0
    6.2694   -5.7343    2.0395 H   0  0  0  0  0  0  0  0  0  0  0  0
    3.9652   -4.8666    2.0671 H   0  0  0  0  0  0  0  0  0  0  0  0
    3.9205   -4.8493   -2.1975 H   0  0  0  0  0  0  0  0  0  0  0  0
    6.2284   -5.7071   -2.2252 H   0  0  0  0  0  0  0  0  0  0  0  0
    1.8804   -4.6276    0.8462 H   0  0  0  0  0  0  0  0  0  0  0  0
    1.8632   -4.6164   -0.9336 H   0  0  0  0  0  0  0  0  0  0  0  0
    3.2720   -2.3364   -0.0429 H   0  0  0  0  0  0  0  0  0  0  0  0
   -0.9505    1.9440    0.0171 H   0  0  0  0  0  0  0  0  0  0  0  0
    1.2028    3.1401    0.0078 H   0  0  0  0  0  0  0  0  0  0  0  0
    3.3106    1.8726   -0.0183 H   0  0  0  0  0  0  0  0  0  0  0  0
   -1.9946   -2.5974    0.0059 H   0  0  0  0  0  0  0  0  0  0  0  0
  1  6  2  0  0  0  0
  1  2  1  0  0  0  0
  1 19  1  0  0  0  0
  2  3  2  0  0  0  0
  2 20  1  0  0  0  0
  3  4  1  0  0  0  0
  3 21  1  0  0  0  0
  4  5  2  0  0  0  0
  4  7  1  0  0  0  0
  5  6  1  0  0  0  0
  5 22  1  0  0  0  0
  6 23  1  0  0  0  0
  7  8  1  0  0  0  0
  7 24  1  0  0  0  0
  7 25  1  0  0  0  0
  8  9  1  0  0  0  0
  8 26  1  0  0  0  0
  9 18  2  0  0  0  0
  9 10  1  0  0  0  0
 10 15  2  0  0  0  0
 10 11  1  0  0  0  0
 11 12  2  0  0  0  0
 11 16  1  0  0  0  0
 12 13  1  0  0  0  0
 12 27  1  0  0  0  0
 13 14  2  0  0  0  0
 13 28  1  0  0  0  0
 14 15  1  0  0  0  0
 14 29  1  0  0  0  0
 16 17  2  0  0  0  0
 17 18  1  0  0  0  0
 17 30  1  0  0  0  0
M  END
$$$$
ZINC03815368
  -OEChem-08230709403D

 51 53  0     0  0  0  0  0  0999 V2000
    4.7452    4.1433    2.4915 C   0  0  0  0  0  0  0  0  0  0  0  0
    5.3689    4.5451    1.1798 C   0  0  0  0  0  0  0  0  0  0  0  0
    6.5375    5.2792    1.1660 C   0  0  0  0  0  0  0  0  0  0  0  0
    7.1078    5.6539   -0.0372 C   0  0  0  0  0  0  0  0  0  0  0  0
    6.5144    5.2909   -1.2329 C   0  0  0  0  0  0  0  0  0  0  0  0
    5.3491    4.5516   -1.2314 C   0  0  0  0  0  0  0  0  0  0  0  0
    4.7698    4.1711   -0.0220 C   0  0  0  0  0  0  0  0  0  0  0  0
    3.5179    3.3767   -0.0138 C   0  0  0  0  0  0  0  0  0  0  0  0
    3.5691    1.9916   -0.0217 C   0  0  0  0  0  0  0  0  0  0  0  0
    2.3540    1.2879   -0.0135 C   0  0  0  0  0  0  0  0  0  0  0  0
    2.3093   -0.1169   -0.0206 C   0  0  0  0  0  0  0  0  0  0  0  0
    1.1319   -0.7082   -0.0125 N   0  0  0  0  0  0  0  0  0  0  0  0
    0.0021   -0.0041    0.0020 C   0  0  0  0  0  0  0  0  0  0  0  0
   -0.0158    1.3152    0.0093 N   0  0  0  0  0  0  0  0  0  0  0  0
    1.1302    2.0077    0.0020 C   0  0  0  0  0  0  0  0  0  0  0  0
    1.1376    3.3417    0.0087 N   0  0  0  0  0  0  0  0  0  0  0  0
    2.2646    4.0243    0.0012 C   0  0  0  0  0  0  0  0  0  0  0  0
    2.2178    5.4108    0.0086 N   0  0  0  0  0  0  0  0  0  0  0  0
    1.0286    6.0449    0.0233 C   0  0  0  0  0  0  0  0  0  0  0  0
   -0.0031    5.4018    0.0301 O   0  0  0  0  0  0  0  0  0  0  0  0
    0.9831    7.3918    0.0305 N   0  0  0  0  0  0  0  0  0  0  0  0
   -0.3096    8.0810    0.0465 C   0  0  0  0  0  0  0  0  0  0  0  0
   -1.0868    7.6782    1.3014 C   0  0  0  0  0  0  0  0  0  0  0  0
   -0.0809    9.5938    0.0519 C   0  0  0  0  0  0  0  0  0  0  0  0
   -1.1110    7.6908   -1.1969 C   0  0  0  0  0  0  0  0  0  0  0  0
   -1.2015   -0.6829    0.0094 N   0  0  0  0  0  0  0  0  0  0  0  0
    4.7044    4.1560   -2.5348 C   0  0  0  0  0  0  0  0  0  0  0  0
    5.1451    3.1785    2.8036 H   0  0  0  0  0  0  0  0  0  0  0  0
    4.9749    4.8937    3.2480 H   0  0  0  0  0  0  0  0  0  0  0  0
    3.6645    4.0671    2.3717 H   0  0  0  0  0  0  0  0  0  0  0  0
    7.0053    5.5651    2.0965 H   0  0  0  0  0  0  0  0  0  0  0  0
    8.0197    6.2325   -0.0432 H   0  0  0  0  0  0  0  0  0  0  0  0
    6.9641    5.5863   -2.1693 H   0  0  0  0  0  0  0  0  0  0  0  0
    4.5145    1.4696   -0.0332 H   0  0  0  0  0  0  0  0  0  0  0  0
    3.2193   -0.6983   -0.0320 H   0  0  0  0  0  0  0  0  0  0  0  0
    3.0410    5.9239    0.0032 H   0  0  0  0  0  0  0  0  0  0  0  0
    1.8063    7.9050    0.0251 H   0  0  0  0  0  0  0  0  0  0  0  0
   -0.5158    7.9563    2.1873 H   0  0  0  0  0  0  0  0  0  0  0  0
   -2.0485    8.1910    1.3133 H   0  0  0  0  0  0  0  0  0  0  0  0
   -1.2496    6.6005    1.2976 H   0  0  0  0  0  0  0  0  0  0  0  0
    0.4728    9.8808   -0.8421 H   0  0  0  0  0  0  0  0  0  0  0  0
   -1.0427   10.1066    0.0638 H   0  0  0  0  0  0  0  0  0  0  0  0
    0.4900    9.8719    0.9378 H   0  0  0  0  0  0  0  0  0  0  0  0
   -1.2739    6.6130   -1.2008 H   0  0  0  0  0  0  0  0  0  0  0  0
   -2.0728    8.2036   -1.1850 H   0  0  0  0  0  0  0  0  0  0  0  0
   -0.5573    7.9777   -2.0909 H   0  0  0  0  0  0  0  0  0  0  0  0
   -2.0366   -0.1895    0.0197 H   0  0  0  0  0  0  0  0  0  0  0  0
   -1.2113   -1.6529    0.0042 H   0  0  0  0  0  0  0  0  0  0  0  0
    3.9981    4.9282   -2.8399 H   0  0  0  0  0  0  0  0  0  0  0  0
    5.4720    4.0428   -3.3003 H   0  0  0  0  0  0  0  0  0  0  0  0
    4.1766    3.2109   -2.4070 H   0  0  0  0  0  0  0  0  0  0  0  0
  1  2  1  0  0  0  0
  1 28  1  0  0  0  0
  1 29  1  0  0  0  0
  1 30  1  0  0  0  0
  2  7  2  0  0  0  0
  2  3  1  0  0  0  0
  3  4  2  0  0  0  0
  3 31  1  0  0  0  0
  4  5  1  0  0  0  0
  4 32  1  0  0  0  0
  5  6  2  0  0  0  0
  5 33  1  0  0  0  0
  6  7  1  0  0  0  0
  6 27  1  0  0  0  0
  7  8  1  0  0  0  0
  8 17  2  0  0  0  0
  8  9  1  0  0  0  0
  9 10  2  0  0  0  0
  9 34  1  0  0  0  0
 10 15  1  0  0  0  0
 10 11  1  0  0  0  0
 11 12  2  0  0  0  0
 11 35  1  0  0  0  0
 12 13  1  0  0  0  0
 13 14  2  0  0  0  0
 13 26  1  0  0  0  0
 14 15  1  0  0  0  0
 15 16  2  0  0  0  0
 16 17  1  0  0  0  0
 17 18  1  0  0  0  0
 18 19  1  0  0  0  0
 18 36  1  0  0  0  0
 19 20  2  0  0  0  0
 19 21  1  0  0  0  0
 21 22  1  0  0  0  0
 21 37  1  0  0  0  0
 22 23  1  0  0  0  0
 22 24  1  0  0  0  0
 22 25  1  0  0  0  0
 23 38  1  0  0  0  0
 23 39  1  0  0  0  0
 23 40  1  0  0  0  0
 24 41  1  0  0  0  0
 24 42  1  0  0  0  0
 24 43  1  0  0  0  0
 25 44  1  0  0  0  0
 25 45  1  0  0  0  0
 25 46  1  0  0  0  0
 26 47  1  0  0  0  0
 26 48  1  0  0  0  0
 27 49  1  0  0  0  0
 27 50  1  0  0  0  0
 27 51  1  0  0  0  0
M  END
$$$$
ZINC03815369
  -OEChem-08230709403D

 41 43  0     0  0  0  0  0  0999 V2000
    7.1605    4.2855    0.9911 C   0  0  0  0  0  0  0  0  0  0  0  0
    5.9000    3.4658    0.8897 C   0  0  0  0  0  0  0  0  0  0  0  0
    4.7189    4.0625    0.4939 C   0  0  0  0  0  0  0  0  0  0  0  0
    3.5576    3.3063    0.4007 C   0  0  0  0  0  0  0  0  0  0  0  0
    3.5867    1.9524    0.7113 C   0  0  0  0  0  0  0  0  0  0  0  0
    4.7716    1.3602    1.1009 C   0  0  0  0  0  0  0  0  0  0  0  0
    5.9271    2.1162    1.1928 C   0  0  0  0  0  0  0  0  0  0  0  0
    7.5464    1.3028    1.7331 Br  0  0  0  0  0  0  0  0  0  0  0  0
    2.3608    3.9075    0.0009 N   0  0  0  0  0  0  0  0  0  0  0  0
    1.2363    3.1343   -0.2088 C   0  0  0  0  0  0  0  0  0  0  0  0
    0.3242    2.8723    0.8397 C   0  0  0  0  0  0  0  0  0  0  0  0
    0.5339    3.3902    2.1266 C   0  0  0  0  0  0  0  0  0  0  0  0
   -0.3622    3.1219    3.1206 C   0  0  0  0  0  0  0  0  0  0  0  0
   -1.4929    2.3321    2.8684 C   0  0  0  0  0  0  0  0  0  0  0  0
   -1.7214    1.8118    1.6151 C   0  0  0  0  0  0  0  0  0  0  0  0
   -0.8145    2.0735    0.5763 C   0  0  0  0  0  0  0  0  0  0  0  0
   -1.0233    1.5794   -0.6529 N   0  0  0  0  0  0  0  0  0  0  0  0
   -0.1933    1.8014   -1.6399 C   0  0  0  0  0  0  0  0  0  0  0  0
    0.9611    2.5824   -1.4690 C   0  0  0  0  0  0  0  0  0  0  0  0
    1.8478    2.8134   -2.5695 C   0  0  0  0  0  0  0  0  0  0  0  0
    2.5513    2.9966   -3.4424 N   0  0  0  0  0  0  0  0  0  0  0  0
   -2.3721    2.0774    3.8722 O   0  0  0  0  0  0  0  0  0  0  0  0
   -3.5042    1.2660    3.5527 C   0  0  0  0  0  0  0  0  0  0  0  0
   -0.1562    3.6249    4.3671 O   0  0  0  0  0  0  0  0  0  0  0  0
    1.0142    4.4219    4.5598 C   0  0  0  0  0  0  0  0  0  0  0  0
    7.2450    4.6993    1.9959 H   0  0  0  0  0  0  0  0  0  0  0  0
    8.0233    3.6521    0.7852 H   0  0  0  0  0  0  0  0  0  0  0  0
    7.1248    5.0981    0.2654 H   0  0  0  0  0  0  0  0  0  0  0  0
    4.6984    5.1161    0.2574 H   0  0  0  0  0  0  0  0  0  0  0  0
    2.6843    1.3628    0.6437 H   0  0  0  0  0  0  0  0  0  0  0  0
    4.7958    0.3069    1.3381 H   0  0  0  0  0  0  0  0  0  0  0  0
    2.3202    4.8678   -0.1292 H   0  0  0  0  0  0  0  0  0  0  0  0
    1.4020    3.9996    2.3302 H   0  0  0  0  0  0  0  0  0  0  0  0
   -2.5951    1.2041    1.4316 H   0  0  0  0  0  0  0  0  0  0  0  0
   -0.4036    1.3774   -2.6106 H   0  0  0  0  0  0  0  0  0  0  0  0
   -4.1237    1.1407    4.4408 H   0  0  0  0  0  0  0  0  0  0  0  0
   -4.0871    1.7483    2.7681 H   0  0  0  0  0  0  0  0  0  0  0  0
   -3.1652    0.2899    3.2055 H   0  0  0  0  0  0  0  0  0  0  0  0
    0.9779    5.2867    3.8974 H   0  0  0  0  0  0  0  0  0  0  0  0
    1.0576    4.7591    5.5955 H   0  0  0  0  0  0  0  0  0  0  0  0
    1.8996    3.8278    4.3337 H   0  0  0  0  0  0  0  0  0  0  0  0
  1  2  1  0  0  0  0
  1 26  1  0  0  0  0
  1 27  1  0  0  0  0
  1 28  1  0  0  0  0
  2  7  2  0  0  0  0
  2  3  1  0  0  0  0
  3  4  2  0  0  0  0
  3 29  1  0  0  0  0
  4  5  1  0  0  0  0
  4  9  1  0  0  0  0
  5  6  2  0  0  0  0
  5 30  1  0  0  0  0
  6  7  1  0  0  0  0
  6 31  1  0  0  0  0
  7  8  1  0  0  0  0
  9 10  1  0  0  0  0
  9 32  1  0  0  0  0
 10 19  2  0  0  0  0
 10 11  1  0  0  0  0
 11 16  2  0  0  0  0
 11 12  1  0  0  0  0
 12 13  2  0  0  0  0
 12 33  1  0  0  0  0
 13 14  1  0  0  0  0
 13 24  1  0  0  0  0
 14 15  2  0  0  0  0
 14 22  1  0  0  0  0
 15 16  1  0  0  0  0
 15 34  1  0  0  0  0
 16 17  1  0  0  0  0
 17 18  2  0  0  0  0
 18 19  1  0  0  0  0
 18 35  1  0  0  0  0
 19 20  1  0  0  0  0
 20 21  3  0  0  0  0
 22 23  1  0  0  0  0
 23 36  1  0  0  0  0
 23 37  1  0  0  0  0
 23 38  1  0  0  0  0
 24 25  1  0  0  0  0
 25 39  1  0  0  0  0
 25 40  1  0  0  0  0
 25 41  1  0  0  0  0
M  END
$$$$
ZINC03815370
  -OEChem-08230709403D

 45 48  0     0  0  0  0  0  0999 V2000
    2.1351    5.3790    0.7348 C   0  0  0  0  0  0  0  0  0  0  0  0
    2.2364    3.9321    0.5291 N   0  0  0  0  0  0  0  0  0  0  0  0
    1.0995    3.1962    0.3092 C   0  0  0  0  0  0  0  0  0  0  0  0
    1.1796    1.8010    0.1088 C   0  0  0  0  0  0  0  0  0  0  0  0
    2.4340    1.1499    0.1330 C   0  0  0  0  0  0  0  0  0  0  0  0
    3.5632    1.8925    0.3526 C   0  0  0  0  0  0  0  0  0  0  0  0
    3.4448    3.3377    0.5574 C   0  0  0  0  0  0  0  0  0  0  0  0
    4.4443    4.0058    0.7538 O   0  0  0  0  0  0  0  0  0  0  0  0
    4.8929    1.2397    0.3829 C   0  0  0  0  0  0  0  0  0  0  0  0
    5.4100    0.7585    1.5863 C   0  0  0  0  0  0  0  0  0  0  0  0
    6.6480    0.1466    1.6068 C   0  0  0  0  0  0  0  0  0  0  0  0
    7.3794    0.0195    0.4396 C   0  0  0  0  0  0  0  0  0  0  0  0
    6.8749    0.4991   -0.7557 C   0  0  0  0  0  0  0  0  0  0  0  0
    5.6360    1.1087   -0.7908 C   0  0  0  0  0  0  0  0  0  0  0  0
    5.0051    1.7110   -2.2918 Cl  0  0  0  0  0  0  0  0  0  0  0  0
    4.4965    0.9229    3.0534 Cl  0  0  0  0  0  0  0  0  0  0  0  0
   -0.0067    1.0857   -0.1133 C   0  0  0  0  0  0  0  0  0  0  0  0
   -1.1490    1.7465   -0.1308 N   0  0  0  0  0  0  0  0  0  0  0  0
   -1.1870    3.0598    0.0667 C   0  0  0  0  0  0  0  0  0  0  0  0
   -0.0945    3.7774    0.2800 N   0  0  0  0  0  0  0  0  0  0  0  0
   -2.4101    3.7010    0.0435 N   0  0  0  0  0  0  0  0  0  0  0  0
   -3.5906    2.9540   -0.0549 C   0  0  0  0  0  0  0  0  0  0  0  0
   -3.6700    1.6985    0.5301 C   0  0  0  0  0  0  0  0  0  0  0  0
   -4.8381    0.9657    0.4365 C   0  0  0  0  0  0  0  0  0  0  0  0
   -5.9252    1.4757   -0.2491 C   0  0  0  0  0  0  0  0  0  0  0  0
   -5.8515    2.7238   -0.8395 C   0  0  0  0  0  0  0  0  0  0  0  0
   -4.6864    3.4672   -0.7454 C   0  0  0  0  0  0  0  0  0  0  0  0
   -4.6123    4.6947   -1.3261 O   0  0  0  0  0  0  0  0  0  0  0  0
   -5.7745    5.1565   -2.0175 C   0  0  0  0  0  0  0  0  0  0  0  0
    2.0119    5.5872    1.7976 H   0  0  0  0  0  0  0  0  0  0  0  0
    3.0429    5.8619    0.3729 H   0  0  0  0  0  0  0  0  0  0  0  0
    1.2753    5.7646    0.1869 H   0  0  0  0  0  0  0  0  0  0  0  0
    2.5008    0.0828   -0.0198 H   0  0  0  0  0  0  0  0  0  0  0  0
    7.0478   -0.2296    2.5369 H   0  0  0  0  0  0  0  0  0  0  0  0
    8.3489   -0.4561    0.4618 H   0  0  0  0  0  0  0  0  0  0  0  0
    7.4511    0.3970   -1.6634 H   0  0  0  0  0  0  0  0  0  0  0  0
    0.0148    0.0175   -0.2710 H   0  0  0  0  0  0  0  0  0  0  0  0
   -2.4515    4.6688    0.0955 H   0  0  0  0  0  0  0  0  0  0  0  0
   -2.8208    1.2957    1.0621 H   0  0  0  0  0  0  0  0  0  0  0  0
   -4.9003   -0.0096    0.8960 H   0  0  0  0  0  0  0  0  0  0  0  0
   -6.8343    0.8975   -0.3238 H   0  0  0  0  0  0  0  0  0  0  0  0
   -6.7023    3.1190   -1.3745 H   0  0  0  0  0  0  0  0  0  0  0  0
   -5.5813    6.1458   -2.4324 H   0  0  0  0  0  0  0  0  0  0  0  0
   -6.0159    4.4648   -2.8246 H   0  0  0  0  0  0  0  0  0  0  0  0
   -6.6127    5.2112   -1.3229 H   0  0  0  0  0  0  0  0  0  0  0  0
  1  2  1  0  0  0  0
  1 30  1  0  0  0  0
  1 31  1  0  0  0  0
  1 32  1  0  0  0  0
  2  7  1  0  0  0  0
  2  3  1  0  0  0  0
  3 20  2  0  0  0  0
  3  4  1  0  0  0  0
  4  5  1  0  0  0  0
  4 17  2  0  0  0  0
  5  6  2  0  0  0  0
  5 33  1  0  0  0  0
  6  7  1  0  0  0  0
  6  9  1  0  0  0  0
  7  8  2  0  0  0  0
  9 14  2  0  0  0  0
  9 10  1  0  0  0  0
 10 11  2  0  0  0  0
 10 16  1  0  0  0  0
 11 12  1  0  0  0  0
 11 34  1  0  0  0  0
 12 13  2  0  0  0  0
 12 35  1  0  0  0  0
 13 14  1  0  0  0  0
 13 36  1  0  0  0  0
 14 15  1  0  0  0  0
 17 18  1  0  0  0  0
 17 37  1  0  0  0  0
 18 19  2  0  0  0  0
 19 20  1  0  0  0  0
 19 21  1  0  0  0  0
 21 22  1  0  0  0  0
 21 38  1  0  0  0  0
 22 27  2  0  0  0  0
 22 23  1  0  0  0  0
 23 24  2  0  0  0  0
 23 39  1  0  0  0  0
 24 25  1  0  0  0  0
 24 40  1  0  0  0  0
 25 26  2  0  0  0  0
 25 41  1  0  0  0  0
 26 27  1  0  0  0  0
 26 42  1  0  0  0  0
 27 28  1  0  0  0  0
 28 29  1  0  0  0  0
 29 43  1  0  0  0  0
 29 44  1  0  0  0  0
 29 45  1  0  0  0  0
M  END
$$$$
ZINC03815371
  -OEChem-08230709403D

 41 44  0     0  0  0  0  0  0999 V2000
    4.8068    0.2243   -0.0302 C   0  0  0  0  0  0  0  0  0  0  0  0
    4.7932    1.6532   -0.0180 O   0  0  0  0  0  0  0  0  0  0  0  0
    3.5758    2.2589   -0.0042 C   0  0  0  0  0  0  0  0  0  0  0  0
    2.4422    1.4968   -0.0025 C   0  0  0  0  0  0  0  0  0  0  0  0
    1.1883    2.1194    0.0112 C   0  0  0  0  0  0  0  0  0  0  0  0
    1.1019    3.5338    0.0233 C   0  0  0  0  0  0  0  0  0  0  0  0
    2.2769    4.2952    0.0213 C   0  0  0  0  0  0  0  0  0  0  0  0
    3.4981    3.6585    0.0077 C   0  0  0  0  0  0  0  0  0  0  0  0
    4.6398    4.3949    0.0063 O   0  0  0  0  0  0  0  0  0  0  0  0
    4.4948    5.8165    0.0188 C   0  0  0  0  0  0  0  0  0  0  0  0
   -0.1125    4.1054    0.0358 N   0  0  0  0  0  0  0  0  0  0  0  0
   -1.1957    3.3656    0.0369 C   0  0  0  0  0  0  0  0  0  0  0  0
   -1.1637    2.0425    0.0204 N   0  0  0  0  0  0  0  0  0  0  0  0
   -0.0163    1.3769    0.0132 C   0  0  0  0  0  0  0  0  0  0  0  0
    0.0021   -0.0041    0.0020 N   0  0  0  0  0  0  0  0  0  0  0  0
   -1.1895   -0.7177    0.1147 C   0  0  0  0  0  0  0  0  0  0  0  0
   -1.1447   -2.0937    0.2101 C   0  0  0  0  0  0  0  0  0  0  0  0
   -2.3543   -2.7982    0.3231 C   0  0  0  0  0  0  0  0  0  0  0  0
   -2.3967   -4.1972    0.4252 C   0  0  0  0  0  0  0  0  0  0  0  0
   -3.6003   -4.8252    0.5328 C   0  0  0  0  0  0  0  0  0  0  0  0
   -4.7906   -4.0996    0.5436 C   0  0  0  0  0  0  0  0  0  0  0  0
   -4.7877   -2.7416    0.4470 C   0  0  0  0  0  0  0  0  0  0  0  0
   -3.5664   -2.0579    0.3336 C   0  0  0  0  0  0  0  0  0  0  0  0
   -3.5051   -0.6596    0.2312 C   0  0  0  0  0  0  0  0  0  0  0  0
   -2.3440   -0.0561    0.1334 N   0  0  0  0  0  0  0  0  0  0  0  0
    5.8378   -0.1292   -0.0405 H   0  0  0  0  0  0  0  0  0  0  0  0
    4.3028   -0.1514    0.8603 H   0  0  0  0  0  0  0  0  0  0  0  0
    4.2900   -0.1364   -0.9196 H   0  0  0  0  0  0  0  0  0  0  0  0
    2.5128    0.4192   -0.0114 H   0  0  0  0  0  0  0  0  0  0  0  0
    2.2259    5.3740    0.0308 H   0  0  0  0  0  0  0  0  0  0  0  0
    3.9526    6.1185    0.9149 H   0  0  0  0  0  0  0  0  0  0  0  0
    5.4803    6.2822    0.0162 H   0  0  0  0  0  0  0  0  0  0  0  0
    3.9410    6.1330   -0.8650 H   0  0  0  0  0  0  0  0  0  0  0  0
   -2.1567    3.8582    0.0471 H   0  0  0  0  0  0  0  0  0  0  0  0
    0.8444   -0.4772   -0.0843 H   0  0  0  0  0  0  0  0  0  0  0  0
   -0.2001   -2.6173    0.1984 H   0  0  0  0  0  0  0  0  0  0  0  0
   -1.4820   -4.7714    0.4188 H   0  0  0  0  0  0  0  0  0  0  0  0
   -3.6331   -5.9018    0.6114 H   0  0  0  0  0  0  0  0  0  0  0  0
   -5.7310   -4.6236    0.6304 H   0  0  0  0  0  0  0  0  0  0  0  0
   -5.7185   -2.1939    0.4568 H   0  0  0  0  0  0  0  0  0  0  0  0
   -4.4155   -0.0786    0.2374 H   0  0  0  0  0  0  0  0  0  0  0  0
  1  2  1  0  0  0  0
  1 26  1  0  0  0  0
  1 27  1  0  0  0  0
  1 28  1  0  0  0  0
  2  3  1  0  0  0  0
  3  8  2  0  0  0  0
  3  4  1  0  0  0  0
  4  5  2  0  0  0  0
  4 29  1  0  0  0  0
  5 14  1  0  0  0  0
  5  6  1  0  0  0  0
  6  7  2  0  0  0  0
  6 11  1  0  0  0  0
  7  8  1  0  0  0  0
  7 30  1  0  0  0  0
  8  9  1  0  0  0  0
  9 10  1  0  0  0  0
 10 31  1  0  0  0  0
 10 32  1  0  0  0  0
 10 33  1  0  0  0  0
 11 12  2  0  0  0  0
 12 13  1  0  0  0  0
 12 34  1  0  0  0  0
 13 14  2  0  0  0  0
 14 15  1  0  0  0  0
 15 16  1  0  0  0  0
 15 35  1  0  0  0  0
 16 25  2  0  0  0  0
 16 17  1  0  0  0  0
 17 18  2  0  0  0  0
 17 36  1  0  0  0  0
 18 23  1  0  0  0  0
 18 19  1  0  0  0  0
 19 20  2  0  0  0  0
 19 37  1  0  0  0  0
 20 21  1  0  0  0  0
 20 38  1  0  0  0  0
 21 22  2  0  0  0  0
 21 39  1  0  0  0  0
 22 23  1  0  0  0  0
 22 40  1  0  0  0  0
 23 24  2  0  0  0  0
 24 25  1  0  0  0  0
 24 41  1  0  0  0  0
M  END
$$$$
ZINC03815372
  -OEChem-08230709403D

 41 44  0     0  0  0  0  0  0999 V2000
    0.0686    1.0901    0.1116 C   0  0  0  0  0  0  0  0  0  0  0  0
   -0.4259    1.5832    1.3995 N   0  0  0  0  0  0  0  0  0  0  0  0
   -0.5383    2.9341    1.6115 C   0  0  0  0  0  0  0  0  0  0  0  0
   -1.0177    3.4257    2.8451 C   0  0  0  0  0  0  0  0  0  0  0  0
   -1.3764    2.5288    3.8772 C   0  0  0  0  0  0  0  0  0  0  0  0
   -1.2560    1.1827    3.6583 C   0  0  0  0  0  0  0  0  0  0  0  0
   -0.7604    0.7059    2.3652 C   0  0  0  0  0  0  0  0  0  0  0  0
   -0.6506   -0.4901    2.1619 O   0  0  0  0  0  0  0  0  0  0  0  0
   -1.6232    0.2169    4.7201 C   0  0  0  0  0  0  0  0  0  0  0  0
   -0.6650   -0.2112    5.6398 C   0  0  0  0  0  0  0  0  0  0  0  0
   -1.0149   -1.1086    6.6296 C   0  0  0  0  0  0  0  0  0  0  0  0
   -2.3095   -1.5900    6.7049 C   0  0  0  0  0  0  0  0  0  0  0  0
   -3.2629   -1.1733    5.7934 C   0  0  0  0  0  0  0  0  0  0  0  0
   -2.9273   -0.2729    4.8013 C   0  0  0  0  0  0  0  0  0  0  0  0
   -4.1250    0.2479    3.6577 Cl  0  0  0  0  0  0  0  0  0  0  0  0
    0.9618    0.3871    5.5434 Cl  0  0  0  0  0  0  0  0  0  0  0  0
   -1.1222    4.8138    3.0193 C   0  0  0  0  0  0  0  0  0  0  0  0
   -0.7728    5.6039    2.0214 N   0  0  0  0  0  0  0  0  0  0  0  0
   -0.3302    5.1055    0.8722 C   0  0  0  0  0  0  0  0  0  0  0  0
   -0.2140    3.8034    0.6611 N   0  0  0  0  0  0  0  0  0  0  0  0
    0.0221    5.9779   -0.1398 N   0  0  0  0  0  0  0  0  0  0  0  0
   -0.1982    7.3501    0.0120 C   0  0  0  0  0  0  0  0  0  0  0  0
   -1.3044    7.8034    0.7198 C   0  0  0  0  0  0  0  0  0  0  0  0
   -1.5171    9.1593    0.8718 C   0  0  0  0  0  0  0  0  0  0  0  0
   -0.6360   10.0663    0.3119 C   0  0  0  0  0  0  0  0  0  0  0  0
    0.4641    9.6187   -0.3977 C   0  0  0  0  0  0  0  0  0  0  0  0
    0.6851    8.2628   -0.5493 C   0  0  0  0  0  0  0  0  0  0  0  0
    1.6659   10.8630   -1.1614 Br  0  0  0  0  0  0  0  0  0  0  0  0
    0.0952    0.0006    0.1257 H   0  0  0  0  0  0  0  0  0  0  0  0
    1.0729    1.4758   -0.0637 H   0  0  0  0  0  0  0  0  0  0  0  0
   -0.5942    1.4272   -0.6853 H   0  0  0  0  0  0  0  0  0  0  0  0
   -1.7402    2.8998    4.8239 H   0  0  0  0  0  0  0  0  0  0  0  0
   -0.2751   -1.4382    7.3442 H   0  0  0  0  0  0  0  0  0  0  0  0
   -2.5770   -2.2945    7.4785 H   0  0  0  0  0  0  0  0  0  0  0  0
   -4.2719   -1.5532    5.8573 H   0  0  0  0  0  0  0  0  0  0  0  0
   -1.4807    5.2273    3.9504 H   0  0  0  0  0  0  0  0  0  0  0  0
    0.4222    5.6382   -0.9555 H   0  0  0  0  0  0  0  0  0  0  0  0
   -1.9953    7.0959    1.1539 H   0  0  0  0  0  0  0  0  0  0  0  0
   -2.3751    9.5119    1.4249 H   0  0  0  0  0  0  0  0  0  0  0  0
   -0.8073   11.1263    0.4286 H   0  0  0  0  0  0  0  0  0  0  0  0
    1.5436    7.9136   -1.1039 H   0  0  0  0  0  0  0  0  0  0  0  0
  1  2  1  0  0  0  0
  1 29  1  0  0  0  0
  1 30  1  0  0  0  0
  1 31  1  0  0  0  0
  2  7  1  0  0  0  0
  2  3  1  0  0  0  0
  3 20  2  0  0  0  0
  3  4  1  0  0  0  0
  4  5  1  0  0  0  0
  4 17  2  0  0  0  0
  5  6  2  0  0  0  0
  5 32  1  0  0  0  0
  6  7  1  0  0  0  0
  6  9  1  0  0  0  0
  7  8  2  0  0  0  0
  9 14  2  0  0  0  0
  9 10  1  0  0  0  0
 10 11  2  0  0  0  0
 10 16  1  0  0  0  0
 11 12  1  0  0  0  0
 11 33  1  0  0  0  0
 12 13  2  0  0  0  0
 12 34  1  0  0  0  0
 13 14  1  0  0  0  0
 13 35  1  0  0  0  0
 14 15  1  0  0  0  0
 17 18  1  0  0  0  0
 17 36  1  0  0  0  0
 18 19  2  0  0  0  0
 19 20  1  0  0  0  0
 19 21  1  0  0  0  0
 21 22  1  0  0  0  0
 21 37  1  0  0  0  0
 22 27  2  0  0  0  0
 22 23  1  0  0  0  0
 23 24  2  0  0  0  0
 23 38  1  0  0  0  0
 24 25  1  0  0  0  0
 24 39  1  0  0  0  0
 25 26  2  0  0  0  0
 25 40  1  0  0  0  0
 26 27  1  0  0  0  0
 26 28  1  0  0  0  0
 27 41  1  0  0  0  0
M  END
$$$$
ZINC03815373
  -OEChem-08230709403D

 34 36  0     0  0  0  0  0  0999 V2000
   -8.2262    1.2385   -1.0600 C   0  0  0  0  0  0  0  0  0  0  0  0
   -7.1366    0.6554   -0.3424 O   0  0  0  0  0  0  0  0  0  0  0  0
   -5.9965    1.3903   -0.2471 C   0  0  0  0  0  0  0  0  0  0  0  0
   -4.9004    0.8839    0.4358 C   0  0  0  0  0  0  0  0  0  0  0  0
   -3.7422    1.6295    0.5330 C   0  0  0  0  0  0  0  0  0  0  0  0
   -3.6748    2.8866   -0.0534 C   0  0  0  0  0  0  0  0  0  0  0  0
   -4.7744    3.3950   -0.7324 C   0  0  0  0  0  0  0  0  0  0  0  0
   -5.9300    2.6459   -0.8332 C   0  0  0  0  0  0  0  0  0  0  0  0
   -2.5010    3.6432    0.0446 N   0  0  0  0  0  0  0  0  0  0  0  0
   -1.2740    3.0160    0.0323 C   0  0  0  0  0  0  0  0  0  0  0  0
   -0.0820    3.7450    0.2512 C   0  0  0  0  0  0  0  0  0  0  0  0
   -0.0711    5.1214    0.4897 C   0  0  0  0  0  0  0  0  0  0  0  0
    2.2420    5.1176    0.6696 C   0  0  0  0  0  0  0  0  0  0  0  0
    2.3305    3.7565    0.4415 C   0  0  0  0  0  0  0  0  0  0  0  0
    1.1494    3.0377    0.2253 C   0  0  0  0  0  0  0  0  0  0  0  0
    1.1333    1.7187   -0.0041 N   0  0  0  0  0  0  0  0  0  0  0  0
   -0.0054    1.0944   -0.2012 C   0  0  0  0  0  0  0  0  0  0  0  0
   -1.1761    1.7105   -0.1914 N   0  0  0  0  0  0  0  0  0  0  0  0
    3.4046    5.8460    0.8856 N   0  0  0  0  0  0  0  0  0  0  0  0
   -8.5190    2.1724   -0.5802 H   0  0  0  0  0  0  0  0  0  0  0  0
   -7.9197    1.4380   -2.0868 H   0  0  0  0  0  0  0  0  0  0  0  0
   -9.0710    0.5497   -1.0603 H   0  0  0  0  0  0  0  0  0  0  0  0
   -4.9529   -0.0937    0.8918 H   0  0  0  0  0  0  0  0  0  0  0  0
   -2.8889    1.2351    1.0647 H   0  0  0  0  0  0  0  0  0  0  0  0
   -4.7243    4.3743   -1.1849 H   0  0  0  0  0  0  0  0  0  0  0  0
   -6.7838    3.0393   -1.3650 H   0  0  0  0  0  0  0  0  0  0  0  0
   -2.5514    4.6088    0.1213 H   0  0  0  0  0  0  0  0  0  0  0  0
   -0.9995    5.6727    0.5125 H   0  0  0  0  0  0  0  0  0  0  0  0
    3.2893    3.2595    0.4309 H   0  0  0  0  0  0  0  0  0  0  0  0
    0.0153    0.0302   -0.3840 H   0  0  0  0  0  0  0  0  0  0  0  0
    4.2657    5.3995    0.8754 H   0  0  0  0  0  0  0  0  0  0  0  0
    3.3556    6.8013    1.0467 H   0  0  0  0  0  0  0  0  0  0  0  0
    1.0674    5.8300    0.7009 N   0  3  0  0  0  0  0  0  0  0  0  0
    1.0516    6.8419    0.8744 H   0  0  0  0  0  0  0  0  0  0  0  0
  1  2  1  0  0  0  0
  1 20  1  0  0  0  0
  1 21  1  0  0  0  0
  1 22  1  0  0  0  0
  2  3  1  0  0  0  0
  3  8  2  0  0  0  0
  3  4  1  0  0  0  0
  4  5  2  0  0  0  0
  4 23  1  0  0  0  0
  5  6  1  0  0  0  0
  5 24  1  0  0  0  0
  6  7  2  0  0  0  0
  6  9  1  0  0  0  0
  7  8  1  0  0  0  0
  7 25  1  0  0  0  0
  8 26  1  0  0  0  0
  9 10  1  0  0  0  0
  9 27  1  0  0  0  0
 10 18  2  0  0  0  0
 10 11  1  0  0  0  0
 11 15  2  0  0  0  0
 11 12  1  0  0  0  0
 12 28  1  0  0  0  0
 12 33  2  0  0  0  0
 13 14  2  0  0  0  0
 13 19  1  0  0  0  0
 13 33  1  0  0  0  0
 14 15  1  0  0  0  0
 14 29  1  0  0  0  0
 15 16  1  0  0  0  0
 16 17  2  0  0  0  0
 17 18  1  0  0  0  0
 17 30  1  0  0  0  0
 19 31  1  0  0  0  0
 19 32  1  0  0  0  0
 33 34  1  0  0  0  0
M  CHG  1  33   1
M  END
$$$$
ZINC03815374
  -OEChem-08230709403D

 27 29  0     0  0  0  0  0  0999 V2000
   -2.1331   -4.2657    0.2885 C   0  0  0  0  0  0  0  0  0  0  0  0
   -2.1734   -2.8896    0.4019 C   0  0  0  0  0  0  0  0  0  0  0  0
   -1.1329   -2.1214   -0.1045 C   0  0  0  0  0  0  0  0  0  0  0  0
   -0.0571   -2.7397   -0.7289 C   0  0  0  0  0  0  0  0  0  0  0  0
   -0.0199   -4.1169   -0.8341 C   0  0  0  0  0  0  0  0  0  0  0  0
   -1.0586   -4.8790   -0.3283 C   0  0  0  0  0  0  0  0  0  0  0  0
    1.4474   -4.9607   -1.6774 Br  0  0  0  0  0  0  0  0  0  0  0  0
   -1.1711   -0.7287    0.0088 N   0  0  0  0  0  0  0  0  0  0  0  0
    0.0001   -0.0172    0.1624 C   0  0  0  0  0  0  0  0  0  0  0  0
   -0.0034    1.3973    0.1621 C   0  0  0  0  0  0  0  0  0  0  0  0
   -1.1811    2.1411    0.0026 C   0  0  0  0  0  0  0  0  0  0  0  0
   -1.0875    3.5056    0.0198 C   0  0  0  0  0  0  0  0  0  0  0  0
    0.1569    4.1136    0.1824 C   0  0  0  0  0  0  0  0  0  0  0  0
    1.2581    3.4079    0.3266 N   0  0  0  0  0  0  0  0  0  0  0  0
    1.2297    2.0749    0.3232 C   0  0  0  0  0  0  0  0  0  0  0  0
    2.3452    1.3446    0.4689 N   0  0  0  0  0  0  0  0  0  0  0  0
    2.2906    0.0334    0.4616 C   0  0  0  0  0  0  0  0  0  0  0  0
    1.1623   -0.6407    0.3141 N   0  0  0  0  0  0  0  0  0  0  0  0
    0.2338    5.4624    0.1925 F   0  0  0  0  0  0  0  0  0  0  0  0
   -2.9422   -4.8631    0.6819 H   0  0  0  0  0  0  0  0  0  0  0  0
   -3.0132   -2.4114    0.8842 H   0  0  0  0  0  0  0  0  0  0  0  0
    0.7513   -2.1449   -1.1279 H   0  0  0  0  0  0  0  0  0  0  0  0
   -1.0297   -5.9551   -0.4159 H   0  0  0  0  0  0  0  0  0  0  0  0
   -2.0213   -0.2628   -0.0205 H   0  0  0  0  0  0  0  0  0  0  0  0
   -2.1348    1.6510   -0.1266 H   0  0  0  0  0  0  0  0  0  0  0  0
   -1.9746    4.1105   -0.0963 H   0  0  0  0  0  0  0  0  0  0  0  0
    3.2096   -0.5209    0.5820 H   0  0  0  0  0  0  0  0  0  0  0  0
  1  6  2  0  0  0  0
  1  2  1  0  0  0  0
  1 20  1  0  0  0  0
  2  3  2  0  0  0  0
  2 21  1  0  0  0  0
  3  4  1  0  0  0  0
  3  8  1  0  0  0  0
  4  5  2  0  0  0  0
  4 22  1  0  0  0  0
  5  6  1  0  0  0  0
  5  7  1  0  0  0  0
  6 23  1  0  0  0  0
  8  9  1  0  0  0  0
  8 24  1  0  0  0  0
  9 18  2  0  0  0  0
  9 10  1  0  0  0  0
 10 15  2  0  0  0  0
 10 11  1  0  0  0  0
 11 12  2  0  0  0  0
 11 25  1  0  0  0  0
 12 13  1  0  0  0  0
 12 26  1  0  0  0  0
 13 14  2  0  0  0  0
 13 19  1  0  0  0  0
 14 15  1  0  0  0  0
 15 16  1  0  0  0  0
 16 17  2  0  0  0  0
 17 18  1  0  0  0  0
 17 27  1  0  0  0  0
M  END
$$$$
ZINC03815375
  -OEChem-08230709403D

 27 29  0     0  0  0  0  0  0999 V2000
   -0.4436   -6.4627    0.2582 C   0  0  0  0  0  0  0  0  0  0  0  0
   -0.5852   -5.0935    0.3735 C   0  0  0  0  0  0  0  0  0  0  0  0
    0.3958   -4.2500   -0.1318 C   0  0  0  0  0  0  0  0  0  0  0  0
    1.5145   -4.7865   -0.7566 C   0  0  0  0  0  0  0  0  0  0  0  0
    1.6526   -6.1570   -0.8646 C   0  0  0  0  0  0  0  0  0  0  0  0
    0.6732   -6.9943   -0.3594 C   0  0  0  0  0  0  0  0  0  0  0  0
    3.1780   -6.8892   -1.7090 Br  0  0  0  0  0  0  0  0  0  0  0  0
    0.2549   -2.8641   -0.0170 N   0  0  0  0  0  0  0  0  0  0  0  0
    1.3700   -2.0683    0.1378 C   0  0  0  0  0  0  0  0  0  0  0  0
    1.2623   -0.6570    0.1391 C   0  0  0  0  0  0  0  0  0  0  0  0
    0.0339   -0.0014   -0.0146 C   0  0  0  0  0  0  0  0  0  0  0  0
    0.0297    1.3680   -0.0007 C   0  0  0  0  0  0  0  0  0  0  0  0
    1.2235    2.0624    0.1626 C   0  0  0  0  0  0  0  0  0  0  0  0
    2.3718    1.4407    0.3062 N   0  0  0  0  0  0  0  0  0  0  0  0
    2.4422    0.1094    0.3014 C   0  0  0  0  0  0  0  0  0  0  0  0
    3.6084   -0.5371    0.4467 N   0  0  0  0  0  0  0  0  0  0  0  0
    3.6504   -1.8485    0.4379 C   0  0  0  0  0  0  0  0  0  0  0  0
    2.5749   -2.6041    0.2892 N   0  0  0  0  0  0  0  0  0  0  0  0
   -1.2065   -7.1187    0.6507 H   0  0  0  0  0  0  0  0  0  0  0  0
   -1.4579   -4.6792    0.8564 H   0  0  0  0  0  0  0  0  0  0  0  0
    2.2771   -4.1332   -1.1542 H   0  0  0  0  0  0  0  0  0  0  0  0
    0.7814   -8.0652   -0.4482 H   0  0  0  0  0  0  0  0  0  0  0  0
   -0.6274   -2.4622   -0.0461 H   0  0  0  0  0  0  0  0  0  0  0  0
   -0.8824   -0.5591   -0.1405 H   0  0  0  0  0  0  0  0  0  0  0  0
   -0.8981    1.9075   -0.1208 H   0  0  0  0  0  0  0  0  0  0  0  0
    1.2061    3.1422    0.1713 H   0  0  0  0  0  0  0  0  0  0  0  0
    4.6078   -2.3337    0.5580 H   0  0  0  0  0  0  0  0  0  0  0  0
  1  6  2  0  0  0  0
  1  2  1  0  0  0  0
  1 19  1  0  0  0  0
  2  3  2  0  0  0  0
  2 20  1  0  0  0  0
  3  4  1  0  0  0  0
  3  8  1  0  0  0  0
  4  5  2  0  0  0  0
  4 21  1  0  0  0  0
  5  6  1  0  0  0  0
  5  7  1  0  0  0  0
  6 22  1  0  0  0  0
  8  9  1  0  0  0  0
  8 23  1  0  0  0  0
  9 18  2  0  0  0  0
  9 10  1  0  0  0  0
 10 15  2  0  0  0  0
 10 11  1  0  0  0  0
 11 12  2  0  0  0  0
 11 24  1  0  0  0  0
 12 13  1  0  0  0  0
 12 25  1  0  0  0  0
 13 14  2  0  0  0  0
 13 26  1  0  0  0  0
 14 15  1  0  0  0  0
 15 16  1  0  0  0  0
 16 17  2  0  0  0  0
 17 18  1  0  0  0  0
 17 27  1  0  0  0  0
M  END
$$$$
ZINC03815376
  -OEChem-08230709403D

 40 43  0     0  0  0  0  0  0999 V2000
   -0.8019   -5.5009   -0.0181 C   0  0  0  0  0  0  0  0  0  0  0  0
    0.2175   -5.3887   -0.9465 C   0  0  0  0  0  0  0  0  0  0  0  0
    1.0279   -4.2718   -0.9537 C   0  0  0  0  0  0  0  0  0  0  0  0
    0.8180   -3.2556   -0.0225 C   0  0  0  0  0  0  0  0  0  0  0  0
   -0.2070   -3.3772    0.9148 C   0  0  0  0  0  0  0  0  0  0  0  0
   -1.0152   -4.4957    0.9080 C   0  0  0  0  0  0  0  0  0  0  0  0
    1.6851   -2.0534   -0.0251 C   0  0  0  0  0  0  0  0  0  0  0  0
    3.0408   -2.0316   -0.0379 C   0  0  0  0  0  0  0  0  0  0  0  0
    3.4801   -0.7343   -0.0351 N   0  0  0  0  0  0  0  0  0  0  0  0
    2.4136    0.1273   -0.0203 C   0  0  0  0  0  0  0  0  0  0  0  0
    1.2440   -0.6524   -0.0133 C   0  0  0  0  0  0  0  0  0  0  0  0
    0.0021   -0.0041    0.0020 C   0  0  0  0  0  0  0  0  0  0  0  0
   -0.0160    1.3262    0.0093 N   0  0  0  0  0  0  0  0  0  0  0  0
    1.1068    2.0214    0.0023 C   0  0  0  0  0  0  0  0  0  0  0  0
    2.2937    1.4540   -0.0120 N   0  0  0  0  0  0  0  0  0  0  0  0
   -1.1762   -0.7291    0.0089 N   0  0  0  0  0  0  0  0  0  0  0  0
    4.8254   -0.3440   -0.0454 C   0  0  0  0  0  0  0  0  0  0  0  0
    5.2709    0.5927   -0.9686 C   0  0  0  0  0  0  0  0  0  0  0  0
    6.5967    0.9798   -0.9725 C   0  0  0  0  0  0  0  0  0  0  0  0
    7.4825    0.4271   -0.0658 C   0  0  0  0  0  0  0  0  0  0  0  0
    7.0430   -0.5102    0.8511 C   0  0  0  0  0  0  0  0  0  0  0  0
    5.7173   -0.8971    0.8637 C   0  0  0  0  0  0  0  0  0  0  0  0
    8.9296    0.8475   -0.0765 C   0  0  0  0  0  0  0  0  0  0  0  0
    9.6670   -0.0060   -0.9540 O   0  0  0  0  0  0  0  0  0  0  0  0
   -1.4339   -6.3767   -0.0165 H   0  0  0  0  0  0  0  0  0  0  0  0
    0.3791   -6.1765   -1.6674 H   0  0  0  0  0  0  0  0  0  0  0  0
    1.8230   -4.1849   -1.6795 H   0  0  0  0  0  0  0  0  0  0  0  0
   -0.3711   -2.5954    1.6416 H   0  0  0  0  0  0  0  0  0  0  0  0
   -1.8126   -4.5888    1.6305 H   0  0  0  0  0  0  0  0  0  0  0  0
    3.6772   -2.9041   -0.0481 H   0  0  0  0  0  0  0  0  0  0  0  0
    1.0483    3.0998    0.0087 H   0  0  0  0  0  0  0  0  0  0  0  0
   -2.0294   -0.2679    0.0192 H   0  0  0  0  0  0  0  0  0  0  0  0
   -1.1490   -1.6987    0.0035 H   0  0  0  0  0  0  0  0  0  0  0  0
    4.5806    1.0212   -1.6801 H   0  0  0  0  0  0  0  0  0  0  0  0
    6.9428    1.7119   -1.6871 H   0  0  0  0  0  0  0  0  0  0  0  0
    7.7373   -0.9403    1.5577 H   0  0  0  0  0  0  0  0  0  0  0  0
    5.3747   -1.6295    1.5798 H   0  0  0  0  0  0  0  0  0  0  0  0
    9.0061    1.8781   -0.4230 H   0  0  0  0  0  0  0  0  0  0  0  0
    9.3375    0.7718    0.9315 H   0  0  0  0  0  0  0  0  0  0  0  0
   10.6086    0.2070   -1.0104 H   0  0  0  0  0  0  0  0  0  0  0  0
  1  6  2  0  0  0  0
  1  2  1  0  0  0  0
  1 25  1  0  0  0  0
  2  3  2  0  0  0  0
  2 26  1  0  0  0  0
  3  4  1  0  0  0  0
  3 27  1  0  0  0  0
  4  5  2  0  0  0  0
  4  7  1  0  0  0  0
  5  6  1  0  0  0  0
  5 28  1  0  0  0  0
  6 29  1  0  0  0  0
  7 11  1  0  0  0  0
  7  8  2  0  0  0  0
  8  9  1  0  0  0  0
  8 30  1  0  0  0  0
  9 10  1  0  0  0  0
  9 17  1  0  0  0  0
 10 15  2  0  0  0  0
 10 11  1  0  0  0  0
 11 12  2  0  0  0  0
 12 13  1  0  0  0  0
 12 16  1  0  0  0  0
 13 14  2  0  0  0  0
 14 15  1  0  0  0  0
 14 31  1  0  0  0  0
 16 32  1  0  0  0  0
 16 33  1  0  0  0  0
 17 22  2  0  0  0  0
 17 18  1  0  0  0  0
 18 19  2  0  0  0  0
 18 34  1  0  0  0  0
 19 20  1  0  0  0  0
 19 35  1  0  0  0  0
 20 21  2  0  0  0  0
 20 23  1  0  0  0  0
 21 22  1  0  0  0  0
 21 36  1  0  0  0  0
 22 37  1  0  0  0  0
 23 24  1  0  0  0  0
 23 38  1  0  0  0  0
 23 39  1  0  0  0  0
 24 40  1  0  0  0  0
M  END
$$$$
ZINC03815377
  -OEChem-08230709403D

 36 39  0     0  0  0  0  0  0999 V2000
   -5.2407    7.9631    0.0745 C   0  0  0  0  0  0  0  0  0  0  0  0
   -4.2036    8.0208    0.9873 C   0  0  0  0  0  0  0  0  0  0  0  0
   -3.2196    7.0517    0.9790 C   0  0  0  0  0  0  0  0  0  0  0  0
   -3.2724    6.0186    0.0526 C   0  0  0  0  0  0  0  0  0  0  0  0
   -4.3120    5.9666   -0.8664 C   0  0  0  0  0  0  0  0  0  0  0  0
   -5.2961    6.9356   -0.8493 C   0  0  0  0  0  0  0  0  0  0  0  0
   -2.2760    5.0342    0.0416 N   0  0  0  0  0  0  0  0  0  0  0  0
   -0.9291    5.2829    0.0363 C   0  0  0  0  0  0  0  0  0  0  0  0
   -0.2494    4.1097    0.0262 C   0  0  0  0  0  0  0  0  0  0  0  0
   -1.2577    3.0416    0.0304 C   0  0  0  0  0  0  0  0  0  0  0  0
   -2.5086    3.6829    0.0349 C   0  0  0  0  0  0  0  0  0  0  0  0
   -3.6085    2.9315    0.0360 N   0  0  0  0  0  0  0  0  0  0  0  0
   -3.5254    1.6185    0.0280 C   0  0  0  0  0  0  0  0  0  0  0  0
   -2.3712    0.9770    0.0186 N   0  0  0  0  0  0  0  0  0  0  0  0
   -1.2185    1.6412    0.0167 C   0  0  0  0  0  0  0  0  0  0  0  0
   -0.0111    0.9658    0.0074 N   0  0  0  0  0  0  0  0  0  0  0  0
    1.2229    3.9385    0.0179 C   0  0  0  0  0  0  0  0  0  0  0  0
    2.0031    4.6336   -0.9056 C   0  0  0  0  0  0  0  0  0  0  0  0
    3.3733    4.4711   -0.9088 C   0  0  0  0  0  0  0  0  0  0  0  0
    3.9741    3.6205    0.0019 C   0  0  0  0  0  0  0  0  0  0  0  0
    3.2053    2.9273    0.9210 C   0  0  0  0  0  0  0  0  0  0  0  0
    1.8333    3.0867    0.9370 C   0  0  0  0  0  0  0  0  0  0  0  0
    3.9674    1.8615    2.0599 Cl  0  0  0  0  0  0  0  0  0  0  0  0
   -6.0092    8.7219    0.0832 H   0  0  0  0  0  0  0  0  0  0  0  0
   -4.1632    8.8244    1.7078 H   0  0  0  0  0  0  0  0  0  0  0  0
   -2.4100    7.0972    1.6924 H   0  0  0  0  0  0  0  0  0  0  0  0
   -4.3533    5.1670   -1.5912 H   0  0  0  0  0  0  0  0  0  0  0  0
   -6.1072    6.8934   -1.5612 H   0  0  0  0  0  0  0  0  0  0  0  0
   -0.4774    6.2639    0.0403 H   0  0  0  0  0  0  0  0  0  0  0  0
   -4.4385    1.0417    0.0288 H   0  0  0  0  0  0  0  0  0  0  0  0
    0.0021   -0.0041    0.0020 H   0  0  0  0  0  0  0  0  0  0  0  0
    0.8223    1.4622    0.0021 H   0  0  0  0  0  0  0  0  0  0  0  0
    1.5356    5.2982   -1.6170 H   0  0  0  0  0  0  0  0  0  0  0  0
    3.9781    5.0094   -1.6236 H   0  0  0  0  0  0  0  0  0  0  0  0
    5.0470    3.4965   -0.0045 H   0  0  0  0  0  0  0  0  0  0  0  0
    1.2344    2.5493    1.6574 H   0  0  0  0  0  0  0  0  0  0  0  0
  1  6  2  0  0  0  0
  1  2  1  0  0  0  0
  1 24  1  0  0  0  0
  2  3  2  0  0  0  0
  2 25  1  0  0  0  0
  3  4  1  0  0  0  0
  3 26  1  0  0  0  0
  4  5  2  0  0  0  0
  4  7  1  0  0  0  0
  5  6  1  0  0  0  0
  5 27  1  0  0  0  0
  6 28  1  0  0  0  0
  7 11  1  0  0  0  0
  7  8  1  0  0  0  0
  8  9  2  0  0  0  0
  8 29  1  0  0  0  0
  9 10  1  0  0  0  0
  9 17  1  0  0  0  0
 10 15  2  0  0  0  0
 10 11  1  0  0  0  0
 11 12  2  0  0  0  0
 12 13  1  0  0  0  0
 13 14  2  0  0  0  0
 13 30  1  0  0  0  0
 14 15  1  0  0  0  0
 15 16  1  0  0  0  0
 16 31  1  0  0  0  0
 16 32  1  0  0  0  0
 17 22  2  0  0  0  0
 17 18  1  0  0  0  0
 18 19  2  0  0  0  0
 18 33  1  0  0  0  0
 19 20  1  0  0  0  0
 19 34  1  0  0  0  0
 20 21  2  0  0  0  0
 20 35  1  0  0  0  0
 21 22  1  0  0  0  0
 21 23  1  0  0  0  0
 22 36  1  0  0  0  0
M  END
$$$$
ZINC03815378
  -OEChem-08230709403D

 59 62  0     0  0  0  0  0  0999 V2000
   -4.2619   17.2670   -2.7549 C   0  0  0  0  0  0  0  0  0  0  0  0
   -3.9777   15.7668   -2.8529 C   0  0  0  0  0  0  0  0  0  0  0  0
   -3.1608   15.3543   -1.7255 O   0  0  0  0  0  0  0  0  0  0  0  0
   -2.8202   14.0575   -1.6619 C   0  0  0  0  0  0  0  0  0  0  0  0
   -3.1923   13.2924   -2.5199 O   0  0  0  0  0  0  0  0  0  0  0  0
   -1.9737   13.5559   -0.5205 C   0  0  0  0  0  0  0  0  0  0  0  0
   -1.7324   12.0541   -0.6861 C   0  0  0  0  0  0  0  0  0  0  0  0
   -0.8730   11.5448    0.4727 C   0  0  0  0  0  0  0  0  0  0  0  0
   -0.6353   10.0657    0.3096 C   0  0  0  0  0  0  0  0  0  0  0  0
    0.4644    9.6177   -0.3992 C   0  0  0  0  0  0  0  0  0  0  0  0
    0.6854    8.2628   -0.5502 C   0  0  0  0  0  0  0  0  0  0  0  0
   -0.1984    7.3498    0.0109 C   0  0  0  0  0  0  0  0  0  0  0  0
   -1.3048    7.8032    0.7177 C   0  0  0  0  0  0  0  0  0  0  0  0
   -1.5171    9.1594    0.8694 C   0  0  0  0  0  0  0  0  0  0  0  0
    0.0221    5.9776   -0.1405 N   0  0  0  0  0  0  0  0  0  0  0  0
   -0.3308    5.1054    0.8714 C   0  0  0  0  0  0  0  0  0  0  0  0
   -0.7743    5.6040    2.0204 N   0  0  0  0  0  0  0  0  0  0  0  0
   -1.1239    4.8143    3.0182 C   0  0  0  0  0  0  0  0  0  0  0  0
   -1.0186    3.4258    2.8444 C   0  0  0  0  0  0  0  0  0  0  0  0
   -1.3778    2.5291    3.8764 C   0  0  0  0  0  0  0  0  0  0  0  0
   -1.2571    1.1829    3.6579 C   0  0  0  0  0  0  0  0  0  0  0  0
   -0.7607    0.7060    2.3653 C   0  0  0  0  0  0  0  0  0  0  0  0
   -0.6502   -0.4900    2.1623 O   0  0  0  0  0  0  0  0  0  0  0  0
   -0.4261    1.5833    1.3995 N   0  0  0  0  0  0  0  0  0  0  0  0
   -0.5385    2.9342    1.6115 C   0  0  0  0  0  0  0  0  0  0  0  0
   -0.2143    3.8035    0.6607 N   0  0  0  0  0  0  0  0  0  0  0  0
    0.0685    1.0902    0.1117 C   0  0  0  0  0  0  0  0  0  0  0  0
   -1.6250    0.2173    4.7197 C   0  0  0  0  0  0  0  0  0  0  0  0
   -0.6674   -0.2105    5.6401 C   0  0  0  0  0  0  0  0  0  0  0  0
   -1.0180   -1.1071    6.6305 C   0  0  0  0  0  0  0  0  0  0  0  0
   -2.3125   -1.5890    6.7046 C   0  0  0  0  0  0  0  0  0  0  0  0
   -3.2653   -1.1729    5.7921 C   0  0  0  0  0  0  0  0  0  0  0  0
   -2.9291   -0.2726    4.8001 C   0  0  0  0  0  0  0  0  0  0  0  0
   -4.1260    0.2478    3.6556 Cl  0  0  0  0  0  0  0  0  0  0  0  0
    0.9594    0.3880    5.5447 Cl  0  0  0  0  0  0  0  0  0  0  0  0
   -4.7924   17.4763   -1.8259 H   0  0  0  0  0  0  0  0  0  0  0  0
   -3.3208   17.8167   -2.7677 H   0  0  0  0  0  0  0  0  0  0  0  0
   -4.8751   17.5766   -3.6012 H   0  0  0  0  0  0  0  0  0  0  0  0
   -3.4472   15.5574   -3.7818 H   0  0  0  0  0  0  0  0  0  0  0  0
   -4.9188   15.2171   -2.8400 H   0  0  0  0  0  0  0  0  0  0  0  0
   -2.4894   13.7392    0.4222 H   0  0  0  0  0  0  0  0  0  0  0  0
   -1.0178   14.0796   -0.5196 H   0  0  0  0  0  0  0  0  0  0  0  0
   -1.2168   11.8708   -1.6288 H   0  0  0  0  0  0  0  0  0  0  0  0
   -2.6884   11.5304   -0.6870 H   0  0  0  0  0  0  0  0  0  0  0  0
   -1.3886   11.7282    1.4154 H   0  0  0  0  0  0  0  0  0  0  0  0
    0.0829   12.0685    0.4736 H   0  0  0  0  0  0  0  0  0  0  0  0
    1.1513   10.3281   -0.8348 H   0  0  0  0  0  0  0  0  0  0  0  0
    1.5446    7.9136   -1.1035 H   0  0  0  0  0  0  0  0  0  0  0  0
   -1.9961    7.0959    1.1517 H   0  0  0  0  0  0  0  0  0  0  0  0
   -2.3750    9.5125    1.4223 H   0  0  0  0  0  0  0  0  0  0  0  0
    0.4229    5.6378   -0.9559 H   0  0  0  0  0  0  0  0  0  0  0  0
   -1.4830    5.2278    3.9490 H   0  0  0  0  0  0  0  0  0  0  0  0
   -1.7424    2.9003    4.8229 H   0  0  0  0  0  0  0  0  0  0  0  0
    0.0950    0.0006    0.1258 H   0  0  0  0  0  0  0  0  0  0  0  0
    1.0728    1.4758   -0.0636 H   0  0  0  0  0  0  0  0  0  0  0  0
   -0.5943    1.4272   -0.6853 H   0  0  0  0  0  0  0  0  0  0  0  0
   -0.2789   -1.4359    7.3460 H   0  0  0  0  0  0  0  0  0  0  0  0
   -2.5805   -2.2934    7.4782 H   0  0  0  0  0  0  0  0  0  0  0  0
   -4.2741   -1.5532    5.8553 H   0  0  0  0  0  0  0  0  0  0  0  0
  1  2  1  0  0  0  0
  1 36  1  0  0  0  0
  1 37  1  0  0  0  0
  1 38  1  0  0  0  0
  2  3  1  0  0  0  0
  2 39  1  0  0  0  0
  2 40  1  0  0  0  0
  3  4  1  0  0  0  0
  4  5  2  0  0  0  0
  4  6  1  0  0  0  0
  6  7  1  0  0  0  0
  6 41  1  0  0  0  0
  6 42  1  0  0  0  0
  7  8  1  0  0  0  0
  7 43  1  0  0  0  0
  7 44  1  0  0  0  0
  8  9  1  0  0  0  0
  8 45  1  0  0  0  0
  8 46  1  0  0  0  0
  9 14  2  0  0  0  0
  9 10  1  0  0  0  0
 10 11  2  0  0  0  0
 10 47  1  0  0  0  0
 11 12  1  0  0  0  0
 11 48  1  0  0  0  0
 12 13  2  0  0  0  0
 12 15  1  0  0  0  0
 13 14  1  0  0  0  0
 13 49  1  0  0  0  0
 14 50  1  0  0  0  0
 15 16  1  0  0  0  0
 15 51  1  0  0  0  0
 16 26  2  0  0  0  0
 16 17  1  0  0  0  0
 17 18  2  0  0  0  0
 18 19  1  0  0  0  0
 18 52  1  0  0  0  0
 19 25  2  0  0  0  0
 19 20  1  0  0  0  0
 20 21  2  0  0  0  0
 20 53  1  0  0  0  0
 21 22  1  0  0  0  0
 21 28  1  0  0  0  0
 22 23  2  0  0  0  0
 22 24  1  0  0  0  0
 24 25  1  0  0  0  0
 24 27  1  0  0  0  0
 25 26  1  0  0  0  0
 27 54  1  0  0  0  0
 27 55  1  0  0  0  0
 27 56  1  0  0  0  0
 28 33  2  0  0  0  0
 28 29  1  0  0  0  0
 29 30  2  0  0  0  0
 29 35  1  0  0  0  0
 30 31  1  0  0  0  0
 30 57  1  0  0  0  0
 31 32  2  0  0  0  0
 31 58  1  0  0  0  0
 32 33  1  0  0  0  0
 32 59  1  0  0  0  0
 33 34  1  0  0  0  0
M  END
$$$$
ZINC03815379
  -OEChem-08230709403D

 75 79  0     0  0  0  0  0  0999 V2000
   17.6153   -0.7836   -1.7674 C   0  0  0  0  0  0  0  0  0  0  0  0
   16.6203   -2.6587   -0.6017 C   0  0  0  0  0  0  0  0  0  0  0  0
   15.5490   -3.7472   -0.7019 C   0  0  0  0  0  0  0  0  0  0  0  0
   14.1571   -2.2571   -2.0061 C   0  0  0  0  0  0  0  0  0  0  0  0
   15.2284   -1.1687   -1.9060 C   0  0  0  0  0  0  0  0  0  0  0  0
   13.1620   -4.1322   -0.8404 C   0  0  0  0  0  0  0  0  0  0  0  0
   11.8009   -3.4458   -0.7102 C   0  0  0  0  0  0  0  0  0  0  0  0
   10.6933   -4.5011   -0.7338 C   0  0  0  0  0  0  0  0  0  0  0  0
    9.3899   -3.8439   -0.6091 N   0  0  0  0  0  0  0  0  0  0  0  0
    8.2326   -4.5993   -0.6058 C   0  0  0  0  0  0  0  0  0  0  0  0
    8.3336   -5.9221   -0.7171 N   0  0  0  0  0  0  0  0  0  0  0  0
    7.2657   -6.6941   -0.7205 C   0  0  0  0  0  0  0  0  0  0  0  0
    6.0019   -6.0908   -0.6024 C   0  0  0  0  0  0  0  0  0  0  0  0
    4.8170   -6.8450   -0.5980 C   0  0  0  0  0  0  0  0  0  0  0  0
    3.6151   -6.1659   -0.4776 C   0  0  0  0  0  0  0  0  0  0  0  0
    3.6214   -4.7591   -0.3651 C   0  0  0  0  0  0  0  0  0  0  0  0
    4.7461   -4.0733   -0.3767 N   0  0  0  0  0  0  0  0  0  0  0  0
    5.9306   -4.6779   -0.4851 C   0  0  0  0  0  0  0  0  0  0  0  0
    7.0732   -3.9798   -0.4922 N   0  0  0  0  0  0  0  0  0  0  0  0
    2.4159   -4.0829   -0.2453 N   0  0  0  0  0  0  0  0  0  0  0  0
    2.4047   -2.7396   -0.1368 C   0  0  0  0  0  0  0  0  0  0  0  0
    3.4509   -2.1204   -0.1441 O   0  0  0  0  0  0  0  0  0  0  0  0
    1.2336   -2.0827   -0.0204 N   0  0  0  0  0  0  0  0  0  0  0  0
    1.2132   -0.6815   -0.0198 C   0  0  0  0  0  0  0  0  0  0  0  0
    2.1374    0.0268   -0.7760 C   0  0  0  0  0  0  0  0  0  0  0  0
    2.1165    1.4076   -0.7753 C   0  0  0  0  0  0  0  0  0  0  0  0
    1.1724    2.0869   -0.0194 C   0  0  0  0  0  0  0  0  0  0  0  0
    0.2487    1.3798    0.7363 C   0  0  0  0  0  0  0  0  0  0  0  0
    0.2686   -0.0010    0.7366 C   0  0  0  0  0  0  0  0  0  0  0  0
    1.1526    3.4465   -0.0188 O   0  0  0  0  0  0  0  0  0  0  0  0
    0.1534    4.0805    0.7823 C   0  0  0  0  0  0  0  0  0  0  0  0
    2.3334   -6.9109   -0.4667 C   0  0  0  0  0  0  0  0  0  0  0  0
    1.6588   -7.1615   -1.6616 C   0  0  0  0  0  0  0  0  0  0  0  0
    0.4677   -7.8608   -1.6452 C   0  0  0  0  0  0  0  0  0  0  0  0
   -0.0618   -8.3027   -0.4463 C   0  0  0  0  0  0  0  0  0  0  0  0
    0.5994   -8.0524    0.7426 C   0  0  0  0  0  0  0  0  0  0  0  0
    1.7942   -7.3592    0.7391 C   0  0  0  0  0  0  0  0  0  0  0  0
    2.6226   -7.0462    2.2322 Cl  0  0  0  0  0  0  0  0  0  0  0  0
    2.3181   -6.6015   -3.1667 Cl  0  0  0  0  0  0  0  0  0  0  0  0
   18.5870   -1.2771   -1.7491 H   0  0  0  0  0  0  0  0  0  0  0  0
   17.5415   -0.1595   -2.6580 H   0  0  0  0  0  0  0  0  0  0  0  0
   17.5065   -0.1624   -0.8784 H   0  0  0  0  0  0  0  0  0  0  0  0
   16.4476   -2.0597    0.2924 H   0  0  0  0  0  0  0  0  0  0  0  0
   17.6052   -3.1221   -0.5444 H   0  0  0  0  0  0  0  0  0  0  0  0
   15.5788   -4.3701    0.1920 H   0  0  0  0  0  0  0  0  0  0  0  0
   15.7375   -4.3631   -1.5812 H   0  0  0  0  0  0  0  0  0  0  0  0
   14.3297   -2.8561   -2.9003 H   0  0  0  0  0  0  0  0  0  0  0  0
   13.1721   -1.7938   -2.0631 H   0  0  0  0  0  0  0  0  0  0  0  0
   15.0399   -0.5527   -1.0266 H   0  0  0  0  0  0  0  0  0  0  0  0
   15.1987   -0.5454   -2.7997 H   0  0  0  0  0  0  0  0  0  0  0  0
   13.3013   -4.8236   -0.0094 H   0  0  0  0  0  0  0  0  0  0  0  0
   13.2035   -4.6815   -1.7810 H   0  0  0  0  0  0  0  0  0  0  0  0
   11.6616   -2.7544   -1.5413 H   0  0  0  0  0  0  0  0  0  0  0  0
   11.7594   -2.8965    0.2303 H   0  0  0  0  0  0  0  0  0  0  0  0
   10.8325   -5.1925    0.0973 H   0  0  0  0  0  0  0  0  0  0  0  0
   10.7347   -5.0504   -1.6743 H   0  0  0  0  0  0  0  0  0  0  0  0
    9.3392   -2.8785   -0.5289 H   0  0  0  0  0  0  0  0  0  0  0  0
    7.3596   -7.7661   -0.8117 H   0  0  0  0  0  0  0  0  0  0  0  0
    4.8419   -7.9212   -0.6854 H   0  0  0  0  0  0  0  0  0  0  0  0
    1.5812   -4.5770   -0.2395 H   0  0  0  0  0  0  0  0  0  0  0  0
    0.4049   -2.5799    0.0630 H   0  0  0  0  0  0  0  0  0  0  0  0
    2.8727   -0.5019   -1.3643 H   0  0  0  0  0  0  0  0  0  0  0  0
    2.8381    1.9588   -1.3600 H   0  0  0  0  0  0  0  0  0  0  0  0
   -0.4860    1.9093    1.3247 H   0  0  0  0  0  0  0  0  0  0  0  0
   -0.4508   -0.5514    1.3247 H   0  0  0  0  0  0  0  0  0  0  0  0
    0.2487    5.1626    0.6929 H   0  0  0  0  0  0  0  0  0  0  0  0
   -0.8350    3.7734    0.4406 H   0  0  0  0  0  0  0  0  0  0  0  0
    0.2844    3.7890    1.8244 H   0  0  0  0  0  0  0  0  0  0  0  0
   -0.0532   -8.0596   -2.5702 H   0  0  0  0  0  0  0  0  0  0  0  0
   -0.9957   -8.8451   -0.4383 H   0  0  0  0  0  0  0  0  0  0  0  0
    0.1808   -8.4001    1.6755 H   0  0  0  0  0  0  0  0  0  0  0  0
   16.5551   -1.8132   -1.8124 N   0  3  0  0  0  0  0  0  0  0  0  0
   16.6985   -2.4037   -2.6401 H   0  0  0  0  0  0  0  0  0  0  0  0
   14.2222   -3.1026   -0.7954 N   0  3  0  0  0  0  0  0  0  0  0  0
   14.0789   -2.5122    0.0323 H   0  0  0  0  0  0  0  0  0  0  0  0
  1 40  1  0  0  0  0
  1 41  1  0  0  0  0
  1 42  1  0  0  0  0
  1 72  1  0  0  0  0
  2  3  1  0  0  0  0
  2 43  1  0  0  0  0
  2 44  1  0  0  0  0
  2 72  1  0  0  0  0
  3 45  1  0  0  0  0
  3 46  1  0  0  0  0
  3 74  1  0  0  0  0
  4  5  1  0  0  0  0
  4 47  1  0  0  0  0
  4 48  1  0  0  0  0
  4 74  1  0  0  0  0
  5 49  1  0  0  0  0
  5 50  1  0  0  0  0
  5 72  1  0  0  0  0
  6  7  1  0  0  0  0
  6 51  1  0  0  0  0
  6 52  1  0  0  0  0
  6 74  1  0  0  0  0
  7  8  1  0  0  0  0
  7 53  1  0  0  0  0
  7 54  1  0  0  0  0
  8  9  1  0  0  0  0
  8 55  1  0  0  0  0
  8 56  1  0  0  0  0
  9 10  1  0  0  0  0
  9 57  1  0  0  0  0
 10 19  2  0  0  0  0
 10 11  1  0  0  0  0
 11 12  2  0  0  0  0
 12 13  1  0  0  0  0
 12 58  1  0  0  0  0
 13 18  2  0  0  0  0
 13 14  1  0  0  0  0
 14 15  2  0  0  0  0
 14 59  1  0  0  0  0
 15 16  1  0  0  0  0
 15 32  1  0  0  0  0
 16 17  2  0  0  0  0
 16 20  1  0  0  0  0
 17 18  1  0  0  0  0
 18 19  1  0  0  0  0
 20 21  1  0  0  0  0
 20 60  1  0  0  0  0
 21 22  2  0  0  0  0
 21 23  1  0  0  0  0
 23 24  1  0  0  0  0
 23 61  1  0  0  0  0
 24 29  2  0  0  0  0
 24 25  1  0  0  0  0
 25 26  2  0  0  0  0
 25 62  1  0  0  0  0
 26 27  1  0  0  0  0
 26 63  1  0  0  0  0
 27 28  2  0  0  0  0
 27 30  1  0  0  0  0
 28 29  1  0  0  0  0
 28 64  1  0  0  0  0
 29 65  1  0  0  0  0
 30 31  1  0  0  0  0
 31 66  1  0  0  0  0
 31 67  1  0  0  0  0
 31 68  1  0  0  0  0
 32 37  2  0  0  0  0
 32 33  1  0  0  0  0
 33 34  2  0  0  0  0
 33 39  1  0  0  0  0
 34 35  1  0  0  0  0
 34 69  1  0  0  0  0
 35 36  2  0  0  0  0
 35 70  1  0  0  0  0
 36 37  1  0  0  0  0
 36 71  1  0  0  0  0
 37 38  1  0  0  0  0
 72 73  1  0  0  0  0
 74 75  1  0  0  0  0
M  CHG  2  72   1  74   1
M  END
$$$$
ZINC03815382
  -OEChem-08230709403D

 30 33  0     0  0  0  0  0  0999 V2000
    7.1690    0.6904    0.2249 C   0  0  0  0  0  0  0  0  0  0  0  0
    6.0374   -0.0937    0.3381 C   0  0  0  0  0  0  0  0  0  0  0  0
    4.8217    0.3688   -0.1492 C   0  0  0  0  0  0  0  0  0  0  0  0
    4.7488    1.6170   -0.7545 C   0  0  0  0  0  0  0  0  0  0  0  0
    5.8833    2.3992   -0.8597 C   0  0  0  0  0  0  0  0  0  0  0  0
    7.0930    1.9347   -0.3728 C   0  0  0  0  0  0  0  0  0  0  0  0
    5.7926    3.9623   -1.6094 Cl  0  0  0  0  0  0  0  0  0  0  0  0
    3.6752   -0.4225   -0.0359 N   0  0  0  0  0  0  0  0  0  0  0  0
    2.4351    0.1742    0.1378 C   0  0  0  0  0  0  0  0  0  0  0  0
    1.2729   -0.5858    0.1382 C   0  0  0  0  0  0  0  0  0  0  0  0
    0.0208    0.0150    0.3139 C   0  0  0  0  0  0  0  0  0  0  0  0
   -1.1394   -0.8956    0.2947 C   0  0  0  0  0  0  0  0  0  0  0  0
   -2.5035   -0.5592    0.4471 C   0  0  0  0  0  0  0  0  0  0  0  0
   -3.4474   -1.5610    0.3995 C   0  0  0  0  0  0  0  0  0  0  0  0
   -3.0603   -2.8768    0.2050 C   0  0  0  0  0  0  0  0  0  0  0  0
   -1.7849   -3.1829    0.0635 N   0  0  0  0  0  0  0  0  0  0  0  0
   -0.8491   -2.2580    0.1022 C   0  0  0  0  0  0  0  0  0  0  0  0
    0.9201   -2.3119   -0.0474 S   0  0  0  0  0  0  0  0  0  0  0  0
    0.0241    1.3568    0.4804 N   0  0  0  0  0  0  0  0  0  0  0  0
    1.1397    2.0419    0.4756 C   0  0  0  0  0  0  0  0  0  0  0  0
    2.3284    1.4913    0.3091 N   0  0  0  0  0  0  0  0  0  0  0  0
    8.1144    0.3308    0.6034 H   0  0  0  0  0  0  0  0  0  0  0  0
    6.0978   -1.0654    0.8054 H   0  0  0  0  0  0  0  0  0  0  0  0
    3.8059    1.9776   -1.1384 H   0  0  0  0  0  0  0  0  0  0  0  0
    7.9794    2.5455   -0.4603 H   0  0  0  0  0  0  0  0  0  0  0  0
    3.7467   -1.3889   -0.0788 H   0  0  0  0  0  0  0  0  0  0  0  0
   -2.8013    0.4678    0.5985 H   0  0  0  0  0  0  0  0  0  0  0  0
   -4.4937   -1.3197    0.5146 H   0  0  0  0  0  0  0  0  0  0  0  0
   -3.8069   -3.6563    0.1686 H   0  0  0  0  0  0  0  0  0  0  0  0
    1.0850    3.1118    0.6127 H   0  0  0  0  0  0  0  0  0  0  0  0
  1  6  2  0  0  0  0
  1  2  1  0  0  0  0
  1 22  1  0  0  0  0
  2  3  2  0  0  0  0
  2 23  1  0  0  0  0
  3  4  1  0  0  0  0
  3  8  1  0  0  0  0
  4  5  2  0  0  0  0
  4 24  1  0  0  0  0
  5  6  1  0  0  0  0
  5  7  1  0  0  0  0
  6 25  1  0  0  0  0
  8  9  1  0  0  0  0
  8 26  1  0  0  0  0
  9 21  2  0  0  0  0
  9 10  1  0  0  0  0
 10 18  1  0  0  0  0
 10 11  2  0  0  0  0
 11 12  1  0  0  0  0
 11 19  1  0  0  0  0
 12 17  2  0  0  0  0
 12 13  1  0  0  0  0
 13 14  2  0  0  0  0
 13 27  1  0  0  0  0
 14 15  1  0  0  0  0
 14 28  1  0  0  0  0
 15 16  2  0  0  0  0
 15 29  1  0  0  0  0
 16 17  1  0  0  0  0
 17 18  1  0  0  0  0
 19 20  2  0  0  0  0
 20 21  1  0  0  0  0
 20 30  1  0  0  0  0
M  END
$$$$
ZINC03815383
  -OEChem-08230709403D

 31 34  0     0  0  0  0  0  0999 V2000
    5.6759   -1.8289    0.2090 C   0  0  0  0  0  0  0  0  0  0  0  0
    6.4305   -0.6822    0.0142 C   0  0  0  0  0  0  0  0  0  0  0  0
    5.8223    0.5516   -0.0724 C   0  0  0  0  0  0  0  0  0  0  0  0
    4.4401    0.6565    0.0345 C   0  0  0  0  0  0  0  0  0  0  0  0
    3.6786   -0.5053    0.2312 C   0  0  0  0  0  0  0  0  0  0  0  0
    4.3045   -1.7457    0.3174 C   0  0  0  0  0  0  0  0  0  0  0  0
    2.2777   -0.0572    0.3005 C   0  0  0  0  0  0  0  0  0  0  0  0
    2.3175    1.3329    0.1398 C   0  0  0  0  0  0  0  0  0  0  0  0
    3.6017    1.7148   -0.0133 O   0  0  0  0  0  0  0  0  0  0  0  0
    1.1034    2.0292    0.1642 C   0  0  0  0  0  0  0  0  0  0  0  0
   -0.0228    1.3448    0.3377 N   0  0  0  0  0  0  0  0  0  0  0  0
   -0.0118    0.0336    0.4855 C   0  0  0  0  0  0  0  0  0  0  0  0
    1.1055   -0.6631    0.4690 N   0  0  0  0  0  0  0  0  0  0  0  0
    1.0761    3.4078    0.0105 N   0  0  0  0  0  0  0  0  0  0  0  0
   -0.1476    4.0768   -0.0792 C   0  0  0  0  0  0  0  0  0  0  0  0
   -0.2770    5.3628    0.4306 C   0  0  0  0  0  0  0  0  0  0  0  0
   -1.4873    6.0215    0.3406 C   0  0  0  0  0  0  0  0  0  0  0  0
   -2.5706    5.4027   -0.2563 C   0  0  0  0  0  0  0  0  0  0  0  0
   -2.4455    4.1223   -0.7655 C   0  0  0  0  0  0  0  0  0  0  0  0
   -1.2353    3.4598   -0.6832 C   0  0  0  0  0  0  0  0  0  0  0  0
   -3.9297    3.2809   -1.5812 Br  0  0  0  0  0  0  0  0  0  0  0  0
    6.1641   -2.7900    0.2756 H   0  0  0  0  0  0  0  0  0  0  0  0
    7.5046   -0.7564   -0.0701 H   0  0  0  0  0  0  0  0  0  0  0  0
    6.4203    1.4382   -0.2236 H   0  0  0  0  0  0  0  0  0  0  0  0
    3.7176   -2.6395    0.4692 H   0  0  0  0  0  0  0  0  0  0  0  0
   -0.9490   -0.4848    0.6241 H   0  0  0  0  0  0  0  0  0  0  0  0
    1.9064    3.9073   -0.0346 H   0  0  0  0  0  0  0  0  0  0  0  0
    0.5682    5.8468    0.8972 H   0  0  0  0  0  0  0  0  0  0  0  0
   -1.5880    7.0212    0.7364 H   0  0  0  0  0  0  0  0  0  0  0  0
   -3.5160    5.9201   -0.3253 H   0  0  0  0  0  0  0  0  0  0  0  0
   -1.1368    2.4619   -1.0844 H   0  0  0  0  0  0  0  0  0  0  0  0
  1  6  2  0  0  0  0
  1  2  1  0  0  0  0
  1 22  1  0  0  0  0
  2  3  2  0  0  0  0
  2 23  1  0  0  0  0
  3  4  1  0  0  0  0
  3 24  1  0  0  0  0
  4  9  1  0  0  0  0
  4  5  2  0  0  0  0
  5  6  1  0  0  0  0
  5  7  1  0  0  0  0
  6 25  1  0  0  0  0
  7 13  2  0  0  0  0
  7  8  1  0  0  0  0
  8  9  1  0  0  0  0
  8 10  2  0  0  0  0
 10 11  1  0  0  0  0
 10 14  1  0  0  0  0
 11 12  2  0  0  0  0
 12 13  1  0  0  0  0
 12 26  1  0  0  0  0
 14 15  1  0  0  0  0
 14 27  1  0  0  0  0
 15 20  2  0  0  0  0
 15 16  1  0  0  0  0
 16 17  2  0  0  0  0
 16 28  1  0  0  0  0
 17 18  1  0  0  0  0
 17 29  1  0  0  0  0
 18 19  2  0  0  0  0
 18 30  1  0  0  0  0
 19 20  1  0  0  0  0
 19 21  1  0  0  0  0
 20 31  1  0  0  0  0
M  END
$$$$
ZINC03815384
  -OEChem-08230709403D

 38 40  0     0  0  0  0  0  0999 V2000
    1.0140    4.4214    4.5598 C   0  0  0  0  0  0  0  0  0  0  0  0
   -0.1564    3.6245    4.3670 O   0  0  0  0  0  0  0  0  0  0  0  0
   -0.3622    3.1214    3.1206 C   0  0  0  0  0  0  0  0  0  0  0  0
    0.5341    3.3898    2.1263 C   0  0  0  0  0  0  0  0  0  0  0  0
    0.3245    2.8722    0.8397 C   0  0  0  0  0  0  0  0  0  0  0  0
   -0.8146    2.0734    0.5761 C   0  0  0  0  0  0  0  0  0  0  0  0
   -1.7212    1.8117    1.6146 C   0  0  0  0  0  0  0  0  0  0  0  0
   -1.4927    2.3319    2.8683 C   0  0  0  0  0  0  0  0  0  0  0  0
   -2.3719    2.0771    3.8720 O   0  0  0  0  0  0  0  0  0  0  0  0
   -3.5041    1.2659    3.5525 C   0  0  0  0  0  0  0  0  0  0  0  0
   -1.0234    1.5795   -0.6532 N   0  0  0  0  0  0  0  0  0  0  0  0
   -0.1933    1.8016   -1.6401 C   0  0  0  0  0  0  0  0  0  0  0  0
    0.9612    2.5824   -1.4691 C   0  0  0  0  0  0  0  0  0  0  0  0
    1.2365    3.1342   -0.2088 C   0  0  0  0  0  0  0  0  0  0  0  0
    2.3612    3.9073    0.0009 N   0  0  0  0  0  0  0  0  0  0  0  0
    3.5575    3.3062    0.4006 C   0  0  0  0  0  0  0  0  0  0  0  0
    3.5864    1.9520    0.7112 C   0  0  0  0  0  0  0  0  0  0  0  0
    4.7706    1.3589    1.1018 C   0  0  0  0  0  0  0  0  0  0  0  0
    5.9263    2.1126    1.1942 C   0  0  0  0  0  0  0  0  0  0  0  0
    5.9012    3.4636    0.8902 C   0  0  0  0  0  0  0  0  0  0  0  0
    4.7187    4.0621    0.4937 C   0  0  0  0  0  0  0  0  0  0  0  0
    7.0319    4.1973    0.9815 F   0  0  0  0  0  0  0  0  0  0  0  0
    1.8480    2.8135   -2.5695 C   0  0  0  0  0  0  0  0  0  0  0  0
    2.5515    2.9968   -3.4424 N   0  0  0  0  0  0  0  0  0  0  0  0
    1.0573    4.7588    5.5954 H   0  0  0  0  0  0  0  0  0  0  0  0
    1.8994    3.8272    4.3340 H   0  0  0  0  0  0  0  0  0  0  0  0
    0.9781    5.2861    3.8972 H   0  0  0  0  0  0  0  0  0  0  0  0
    1.4022    3.9991    2.3300 H   0  0  0  0  0  0  0  0  0  0  0  0
   -2.5950    1.2040    1.4310 H   0  0  0  0  0  0  0  0  0  0  0  0
   -4.1236    1.1406    4.4405 H   0  0  0  0  0  0  0  0  0  0  0  0
   -4.0870    1.7484    2.7679 H   0  0  0  0  0  0  0  0  0  0  0  0
   -3.1652    0.2898    3.2052 H   0  0  0  0  0  0  0  0  0  0  0  0
   -0.4035    1.3777   -2.6109 H   0  0  0  0  0  0  0  0  0  0  0  0
    2.3208    4.8676   -0.1292 H   0  0  0  0  0  0  0  0  0  0  0  0
    2.6838    1.3629    0.6435 H   0  0  0  0  0  0  0  0  0  0  0  0
    4.7933    0.3057    1.3398 H   0  0  0  0  0  0  0  0  0  0  0  0
    6.8502    1.6468    1.5036 H   0  0  0  0  0  0  0  0  0  0  0  0
    4.6985    5.1157    0.2573 H   0  0  0  0  0  0  0  0  0  0  0  0
  1  2  1  0  0  0  0
  1 25  1  0  0  0  0
  1 26  1  0  0  0  0
  1 27  1  0  0  0  0
  2  3  1  0  0  0  0
  3  8  2  0  0  0  0
  3  4  1  0  0  0  0
  4  5  2  0  0  0  0
  4 28  1  0  0  0  0
  5 14  1  0  0  0  0
  5  6  1  0  0  0  0
  6  7  2  0  0  0  0
  6 11  1  0  0  0  0
  7  8  1  0  0  0  0
  7 29  1  0  0  0  0
  8  9  1  0  0  0  0
  9 10  1  0  0  0  0
 10 30  1  0  0  0  0
 10 31  1  0  0  0  0
 10 32  1  0  0  0  0
 11 12  2  0  0  0  0
 12 13  1  0  0  0  0
 12 33  1  0  0  0  0
 13 14  2  0  0  0  0
 13 23  1  0  0  0  0
 14 15  1  0  0  0  0
 15 16  1  0  0  0  0
 15 34  1  0  0  0  0
 16 21  2  0  0  0  0
 16 17  1  0  0  0  0
 17 18  2  0  0  0  0
 17 35  1  0  0  0  0
 18 19  1  0  0  0  0
 18 36  1  0  0  0  0
 19 20  2  0  0  0  0
 19 37  1  0  0  0  0
 20 21  1  0  0  0  0
 20 22  1  0  0  0  0
 21 38  1  0  0  0  0
 23 24  3  0  0  0  0
M  END
$$$$
ZINC03815385
  -OEChem-08230709403D

 37 40  0     0  0  0  0  0  0999 V2000
   -2.8758   -0.0762    0.5305 C   0  0  0  0  0  0  0  0  0  0  0  0
   -2.4828    1.3333    0.4591 N   0  0  0  0  0  0  0  0  0  0  0  0
   -1.1848    1.7994    0.5726 C   0  0  0  0  0  0  0  0  0  0  0  0
    0.0284    1.1508    0.7813 C   0  0  0  0  0  0  0  0  0  0  0  0
    1.1956    1.8795    0.8614 C   0  0  0  0  0  0  0  0  0  0  0  0
    1.1741    3.2606    0.7409 C   0  0  0  0  0  0  0  0  0  0  0  0
   -0.0183    3.9216    0.5391 C   0  0  0  0  0  0  0  0  0  0  0  0
   -1.2057    3.1974    0.4562 C   0  0  0  0  0  0  0  0  0  0  0  0
   -2.6143    3.5788    0.2514 C   0  0  0  0  0  0  0  0  0  0  0  0
   -3.3552    2.3888    0.2623 C   0  0  0  0  0  0  0  0  0  0  0  0
   -4.7354    2.4420    0.0878 C   0  0  0  0  0  0  0  0  0  0  0  0
   -5.3654    3.6553   -0.0935 C   0  0  0  0  0  0  0  0  0  0  0  0
   -4.6381    4.8334   -0.1046 C   0  0  0  0  0  0  0  0  0  0  0  0
   -3.2628    4.8044    0.0668 C   0  0  0  0  0  0  0  0  0  0  0  0
   -2.5294    5.9913    0.0557 N   0  0  0  0  0  0  0  0  0  0  0  0
   -1.7313    6.3089   -1.0460 C   0  0  0  0  0  0  0  0  0  0  0  0
   -1.7611    5.5082   -2.1814 C   0  0  0  0  0  0  0  0  0  0  0  0
   -0.9740    5.8268   -3.2703 C   0  0  0  0  0  0  0  0  0  0  0  0
   -0.1494    6.9363   -3.2287 C   0  0  0  0  0  0  0  0  0  0  0  0
   -0.1133    7.7332   -2.0983 C   0  0  0  0  0  0  0  0  0  0  0  0
   -0.9019    7.4223   -1.0067 C   0  0  0  0  0  0  0  0  0  0  0  0
    1.0165    9.2488   -2.0465 Br  0  0  0  0  0  0  0  0  0  0  0  0
   -2.8485   -0.5121   -0.4681 H   0  0  0  0  0  0  0  0  0  0  0  0
   -2.1852   -0.6135    1.1805 H   0  0  0  0  0  0  0  0  0  0  0  0
   -3.8862   -0.1517    0.9324 H   0  0  0  0  0  0  0  0  0  0  0  0
    0.0560    0.0754    0.8761 H   0  0  0  0  0  0  0  0  0  0  0  0
    2.1349    1.3703    1.0190 H   0  0  0  0  0  0  0  0  0  0  0  0
    2.0954    3.8206    0.8050 H   0  0  0  0  0  0  0  0  0  0  0  0
   -0.0322    4.9974    0.4452 H   0  0  0  0  0  0  0  0  0  0  0  0
   -5.3144    1.5304    0.0944 H   0  0  0  0  0  0  0  0  0  0  0  0
   -6.4366    3.6868   -0.2277 H   0  0  0  0  0  0  0  0  0  0  0  0
   -5.1434    5.7771   -0.2474 H   0  0  0  0  0  0  0  0  0  0  0  0
   -2.5738    6.5959    0.8129 H   0  0  0  0  0  0  0  0  0  0  0  0
   -2.4019    4.6395   -2.2134 H   0  0  0  0  0  0  0  0  0  0  0  0
   -0.9992    5.2064   -4.1539 H   0  0  0  0  0  0  0  0  0  0  0  0
    0.4680    7.1810   -4.0804 H   0  0  0  0  0  0  0  0  0  0  0  0
   -0.8731    8.0441   -0.1241 H   0  0  0  0  0  0  0  0  0  0  0  0
  1  2  1  0  0  0  0
  1 23  1  0  0  0  0
  1 24  1  0  0  0  0
  1 25  1  0  0  0  0
  2 10  1  0  0  0  0
  2  3  1  0  0  0  0
  3  8  2  0  0  0  0
  3  4  1  0  0  0  0
  4  5  2  0  0  0  0
  4 26  1  0  0  0  0
  5  6  1  0  0  0  0
  5 27  1  0  0  0  0
  6  7  2  0  0  0  0
  6 28  1  0  0  0  0
  7  8  1  0  0  0  0
  7 29  1  0  0  0  0
  8  9  1  0  0  0  0
  9 14  2  0  0  0  0
  9 10  1  0  0  0  0
 10 11  2  0  0  0  0
 11 12  1  0  0  0  0
 11 30  1  0  0  0  0
 12 13  2  0  0  0  0
 12 31  1  0  0  0  0
 13 14  1  0  0  0  0
 13 32  1  0  0  0  0
 14 15  1  0  0  0  0
 15 16  1  0  0  0  0
 15 33  1  0  0  0  0
 16 21  2  0  0  0  0
 16 17  1  0  0  0  0
 17 18  2  0  0  0  0
 17 34  1  0  0  0  0
 18 19  1  0  0  0  0
 18 35  1  0  0  0  0
 19 20  2  0  0  0  0
 19 36  1  0  0  0  0
 20 21  1  0  0  0  0
 20 22  1  0  0  0  0
 21 37  1  0  0  0  0
M  END
$$$$
ZINC03815386
  -OEChem-08230709403D

 27 29  0     0  0  0  0  0  0999 V2000
   -4.6537   -3.0458   -0.3020 C   0  0  0  0  0  0  0  0  0  0  0  0
   -4.5251   -4.4277   -0.4148 C   0  0  0  0  0  0  0  0  0  0  0  0
   -3.2980   -5.0208   -0.4253 C   0  0  0  0  0  0  0  0  0  0  0  0
   -2.1458   -4.2292   -0.3210 C   0  0  0  0  0  0  0  0  0  0  0  0
   -2.2787   -2.8232   -0.2063 C   0  0  0  0  0  0  0  0  0  0  0  0
   -3.5543   -2.2460   -0.1987 C   0  0  0  0  0  0  0  0  0  0  0  0
   -1.1014   -2.0472   -0.1021 C   0  0  0  0  0  0  0  0  0  0  0  0
    0.0653   -2.6737   -0.1225 N   0  0  0  0  0  0  0  0  0  0  0  0
    0.1417   -3.9912   -0.2260 C   0  0  0  0  0  0  0  0  0  0  0  0
   -0.9154   -4.7615   -0.3258 N   0  0  0  0  0  0  0  0  0  0  0  0
   -1.1648   -0.7006    0.0099 O   0  0  0  0  0  0  0  0  0  0  0  0
    0.0009   -0.0026   -0.0167 C   0  0  0  0  0  0  0  0  0  0  0  0
    0.7169    0.1097   -1.2002 C   0  0  0  0  0  0  0  0  0  0  0  0
    1.9017    0.8192   -1.2250 C   0  0  0  0  0  0  0  0  0  0  0  0
    2.3749    1.4180   -0.0720 C   0  0  0  0  0  0  0  0  0  0  0  0
    1.6636    1.3075    1.1094 C   0  0  0  0  0  0  0  0  0  0  0  0
    0.4772    0.5984    1.1392 C   0  0  0  0  0  0  0  0  0  0  0  0
    2.3143    2.1273    2.6844 Br  0  0  0  0  0  0  0  0  0  0  0  0
   -5.6380   -2.6014   -0.2959 H   0  0  0  0  0  0  0  0  0  0  0  0
   -5.4116   -5.0392   -0.4948 H   0  0  0  0  0  0  0  0  0  0  0  0
   -3.2139   -6.0940   -0.5130 H   0  0  0  0  0  0  0  0  0  0  0  0
   -3.6665   -1.1754   -0.1114 H   0  0  0  0  0  0  0  0  0  0  0  0
    1.1183   -4.4522   -0.2330 H   0  0  0  0  0  0  0  0  0  0  0  0
    0.3480   -0.3577   -2.1013 H   0  0  0  0  0  0  0  0  0  0  0  0
    2.4589    0.9067   -2.1460 H   0  0  0  0  0  0  0  0  0  0  0  0
    3.3014    1.9726   -0.0936 H   0  0  0  0  0  0  0  0  0  0  0  0
   -0.0804    0.5162    2.0604 H   0  0  0  0  0  0  0  0  0  0  0  0
  1  6  2  0  0  0  0
  1  2  1  0  0  0  0
  1 19  1  0  0  0  0
  2  3  2  0  0  0  0
  2 20  1  0  0  0  0
  3  4  1  0  0  0  0
  3 21  1  0  0  0  0
  4 10  2  0  0  0  0
  4  5  1  0  0  0  0
  5  6  1  0  0  0  0
  5  7  2  0  0  0  0
  6 22  1  0  0  0  0
  7  8  1  0  0  0  0
  7 11  1  0  0  0  0
  8  9  2  0  0  0  0
  9 10  1  0  0  0  0
  9 23  1  0  0  0  0
 11 12  1  0  0  0  0
 12 17  2  0  0  0  0
 12 13  1  0  0  0  0
 13 14  2  0  0  0  0
 13 24  1  0  0  0  0
 14 15  1  0  0  0  0
 14 25  1  0  0  0  0
 15 16  2  0  0  0  0
 15 26  1  0  0  0  0
 16 17  1  0  0  0  0
 16 18  1  0  0  0  0
 17 27  1  0  0  0  0
M  END
$$$$
ZINC03815387
  -OEChem-08230709403D

 42 44  0     0  0  0  0  0  0999 V2000
    2.1867   -4.0260    1.3859 C   0  0  0  0  0  0  0  0  0  0  0  0
    0.9491   -4.7321    1.4955 O   0  0  0  0  0  0  0  0  0  0  0  0
   -0.1838   -4.0423    1.1959 C   0  0  0  0  0  0  0  0  0  0  0  0
   -0.0981   -2.7351    0.8117 C   0  0  0  0  0  0  0  0  0  0  0  0
   -1.2649   -2.0210    0.5021 C   0  0  0  0  0  0  0  0  0  0  0  0
   -2.5273   -2.6559    0.5934 C   0  0  0  0  0  0  0  0  0  0  0  0
   -2.5897   -3.9990    0.9950 C   0  0  0  0  0  0  0  0  0  0  0  0
   -1.4290   -4.6798    1.2849 C   0  0  0  0  0  0  0  0  0  0  0  0
   -1.4916   -5.9812    1.6697 O   0  0  0  0  0  0  0  0  0  0  0  0
   -2.7895   -6.5748    1.7412 C   0  0  0  0  0  0  0  0  0  0  0  0
   -3.6464   -1.9803    0.2936 N   0  0  0  0  0  0  0  0  0  0  0  0
   -3.6202   -0.7277   -0.0841 C   0  0  0  0  0  0  0  0  0  0  0  0
   -2.4137   -0.0183   -0.1975 C   0  0  0  0  0  0  0  0  0  0  0  0
   -1.2056   -0.6660    0.1014 C   0  0  0  0  0  0  0  0  0  0  0  0
    0.0021   -0.0041    0.0020 N   0  0  0  0  0  0  0  0  0  0  0  0
    0.7476   -0.0838   -1.1771 C   0  0  0  0  0  0  0  0  0  0  0  0
    0.3437   -0.9349   -2.1994 C   0  0  0  0  0  0  0  0  0  0  0  0
    1.0776   -1.0113   -3.3673 C   0  0  0  0  0  0  0  0  0  0  0  0
    2.2203   -0.2500   -3.5200 C   0  0  0  0  0  0  0  0  0  0  0  0
    2.6330    0.5992   -2.4997 C   0  0  0  0  0  0  0  0  0  0  0  0
    1.8949    0.6819   -1.3265 C   0  0  0  0  0  0  0  0  0  0  0  0
    4.0912    1.5690   -2.6947 S   0  0  0  0  0  0  0  0  0  0  0  0
    4.6928    1.1291   -4.3485 C   0  0  0  0  0  0  0  0  0  0  0  0
   -2.4164    1.3520   -0.6134 C   0  0  0  0  0  0  0  0  0  0  0  0
   -2.4186    2.4390   -0.9433 N   0  0  0  0  0  0  0  0  0  0  0  0
    2.3174   -3.6790    0.3609 H   0  0  0  0  0  0  0  0  0  0  0  0
    2.1777   -3.1702    2.0609 H   0  0  0  0  0  0  0  0  0  0  0  0
    3.0088   -4.6903    1.6523 H   0  0  0  0  0  0  0  0  0  0  0  0
    0.8656   -2.2519    0.7467 H   0  0  0  0  0  0  0  0  0  0  0  0
   -3.5440   -4.4996    1.0663 H   0  0  0  0  0  0  0  0  0  0  0  0
   -3.2611   -6.5368    0.7592 H   0  0  0  0  0  0  0  0  0  0  0  0
   -2.6971   -7.6131    2.0599 H   0  0  0  0  0  0  0  0  0  0  0  0
   -3.4004   -6.0274    2.4590 H   0  0  0  0  0  0  0  0  0  0  0  0
   -4.5492   -0.2275   -0.3146 H   0  0  0  0  0  0  0  0  0  0  0  0
    0.3329    0.5164    0.7507 H   0  0  0  0  0  0  0  0  0  0  0  0
   -0.5470   -1.5342   -2.0820 H   0  0  0  0  0  0  0  0  0  0  0  0
    0.7596   -1.6708   -4.1613 H   0  0  0  0  0  0  0  0  0  0  0  0
    2.7938   -0.3150   -4.4328 H   0  0  0  0  0  0  0  0  0  0  0  0
    2.2133    1.3406   -0.5320 H   0  0  0  0  0  0  0  0  0  0  0  0
    4.9024    0.0601   -4.3865 H   0  0  0  0  0  0  0  0  0  0  0  0
    3.9327    1.3769   -5.0894 H   0  0  0  0  0  0  0  0  0  0  0  0
    5.6048    1.6861   -4.5634 H   0  0  0  0  0  0  0  0  0  0  0  0
  1  2  1  0  0  0  0
  1 26  1  0  0  0  0
  1 27  1  0  0  0  0
  1 28  1  0  0  0  0
  2  3  1  0  0  0  0
  3  8  2  0  0  0  0
  3  4  1  0  0  0  0
  4  5  2  0  0  0  0
  4 29  1  0  0  0  0
  5 14  1  0  0  0  0
  5  6  1  0  0  0  0
  6  7  2  0  0  0  0
  6 11  1  0  0  0  0
  7  8  1  0  0  0  0
  7 30  1  0  0  0  0
  8  9  1  0  0  0  0
  9 10  1  0  0  0  0
 10 31  1  0  0  0  0
 10 32  1  0  0  0  0
 10 33  1  0  0  0  0
 11 12  2  0  0  0  0
 12 13  1  0  0  0  0
 12 34  1  0  0  0  0
 13 14  2  0  0  0  0
 13 24  1  0  0  0  0
 14 15  1  0  0  0  0
 15 16  1  0  0  0  0
 15 35  1  0  0  0  0
 16 21  2  0  0  0  0
 16 17  1  0  0  0  0
 17 18  2  0  0  0  0
 17 36  1  0  0  0  0
 18 19  1  0  0  0  0
 18 37  1  0  0  0  0
 19 20  2  0  0  0  0
 19 38  1  0  0  0  0
 20 21  1  0  0  0  0
 20 22  1  0  0  0  0
 21 39  1  0  0  0  0
 22 23  1  0  0  0  0
 23 40  1  0  0  0  0
 23 41  1  0  0  0  0
 23 42  1  0  0  0  0
 24 25  3  0  0  0  0
M  END
$$$$
ZINC03815388
  -OEChem-08230709403D

 30 32  0     0  0  0  0  0  0999 V2000
   -0.0093    1.0764   -0.0397 C   0  0  0  0  0  0  0  0  0  0  0  0
    0.9255    1.7676    0.7090 C   0  0  0  0  0  0  0  0  0  0  0  0
    0.9121    3.1484    0.7292 C   0  0  0  0  0  0  0  0  0  0  0  0
   -0.0487    3.8427    0.0050 C   0  0  0  0  0  0  0  0  0  0  0  0
   -0.9896    3.1451   -0.7419 C   0  0  0  0  0  0  0  0  0  0  0  0
   -0.9669    1.7644   -0.7622 C   0  0  0  0  0  0  0  0  0  0  0  0
   -0.0691    5.2401    0.0281 N   0  0  0  0  0  0  0  0  0  0  0  0
   -1.2701    5.9145   -0.0615 C   0  0  0  0  0  0  0  0  0  0  0  0
   -1.3059    7.3275   -0.1567 C   0  0  0  0  0  0  0  0  0  0  0  0
   -0.1395    8.0994   -0.1756 C   0  0  0  0  0  0  0  0  0  0  0  0
   -0.2386    9.4723   -0.2752 C   0  0  0  0  0  0  0  0  0  0  0  0
   -1.4898   10.0909   -0.3623 C   0  0  0  0  0  0  0  0  0  0  0  0
   -2.6365    9.3567   -0.3508 C   0  0  0  0  0  0  0  0  0  0  0  0
   -2.5694    7.9602   -0.2506 C   0  0  0  0  0  0  0  0  0  0  0  0
   -3.6738    7.1977   -0.2351 N   0  0  0  0  0  0  0  0  0  0  0  0
   -3.5804    5.8931   -0.1400 C   0  0  0  0  0  0  0  0  0  0  0  0
   -2.4220    5.2577   -0.0551 N   0  0  0  0  0  0  0  0  0  0  0  0
    0.9216   10.2512   -0.2889 N   0  0  0  0  0  0  0  0  0  0  0  0
    0.0057   -0.0034   -0.0568 H   0  0  0  0  0  0  0  0  0  0  0  0
    1.6695    1.2271    1.2754 H   0  0  0  0  0  0  0  0  0  0  0  0
    1.6447    3.6878    1.3111 H   0  0  0  0  0  0  0  0  0  0  0  0
   -1.7381    3.6819   -1.3058 H   0  0  0  0  0  0  0  0  0  0  0  0
   -1.6981    1.2214   -1.3426 H   0  0  0  0  0  0  0  0  0  0  0  0
    0.7608    5.7360    0.1071 H   0  0  0  0  0  0  0  0  0  0  0  0
    0.8288    7.6260   -0.1082 H   0  0  0  0  0  0  0  0  0  0  0  0
   -1.5474   11.1666   -0.4393 H   0  0  0  0  0  0  0  0  0  0  0  0
   -3.5953    9.8492   -0.4184 H   0  0  0  0  0  0  0  0  0  0  0  0
   -4.4897    5.3105   -0.1301 H   0  0  0  0  0  0  0  0  0  0  0  0
    0.8568   11.2165   -0.3584 H   0  0  0  0  0  0  0  0  0  0  0  0
    1.7916    9.8265   -0.2287 H   0  0  0  0  0  0  0  0  0  0  0  0
  1  6  2  0  0  0  0
  1  2  1  0  0  0  0
  1 19  1  0  0  0  0
  2  3  2  0  0  0  0
  2 20  1  0  0  0  0
  3  4  1  0  0  0  0
  3 21  1  0  0  0  0
  4  5  2  0  0  0  0
  4  7  1  0  0  0  0
  5  6  1  0  0  0  0
  5 22  1  0  0  0  0
  6 23  1  0  0  0  0
  7  8  1  0  0  0  0
  7 24  1  0  0  0  0
  8 17  2  0  0  0  0
  8  9  1  0  0  0  0
  9 14  2  0  0  0  0
  9 10  1  0  0  0  0
 10 11  2  0  0  0  0
 10 25  1  0  0  0  0
 11 12  1  0  0  0  0
 11 18  1  0  0  0  0
 12 13  2  0  0  0  0
 12 26  1  0  0  0  0
 13 14  1  0  0  0  0
 13 27  1  0  0  0  0
 14 15  1  0  0  0  0
 15 16  2  0  0  0  0
 16 17  1  0  0  0  0
 16 28  1  0  0  0  0
 18 29  1  0  0  0  0
 18 30  1  0  0  0  0
M  END
$$$$
ZINC03815389
  -OEChem-08230709403D

 40 43  0     0  0  0  0  0  0999 V2000
    5.9393    3.2604   -0.0258 C   0  0  0  0  0  0  0  0  0  0  0  0
    4.7414    4.0393   -0.0059 O   0  0  0  0  0  0  0  0  0  0  0  0
    3.5634    3.3601    0.0010 C   0  0  0  0  0  0  0  0  0  0  0  0
    3.5713    1.9942   -0.0112 C   0  0  0  0  0  0  0  0  0  0  0  0
    2.3590    1.2939   -0.0042 C   0  0  0  0  0  0  0  0  0  0  0  0
    1.1328    2.0041    0.0156 C   0  0  0  0  0  0  0  0  0  0  0  0
    1.1484    3.4041    0.0277 C   0  0  0  0  0  0  0  0  0  0  0  0
    2.3544    4.0694    0.0200 C   0  0  0  0  0  0  0  0  0  0  0  0
    2.3724    5.4277    0.0313 O   0  0  0  0  0  0  0  0  0  0  0  0
    1.1080    6.0932    0.0506 C   0  0  0  0  0  0  0  0  0  0  0  0
   -0.0150    1.3084    0.0220 N   0  0  0  0  0  0  0  0  0  0  0  0
    0.0024   -0.0032    0.0101 C   0  0  0  0  0  0  0  0  0  0  0  0
    1.1225   -0.7080   -0.0085 N   0  0  0  0  0  0  0  0  0  0  0  0
    2.3114   -0.1202   -0.0163 C   0  0  0  0  0  0  0  0  0  0  0  0
    3.4726   -0.8688   -0.0353 N   0  0  0  0  0  0  0  0  0  0  0  0
    3.4084   -2.2528    0.0632 C   0  0  0  0  0  0  0  0  0  0  0  0
    4.5949   -3.0015    0.1539 C   0  0  0  0  0  0  0  0  0  0  0  0
    4.5539   -4.3082    0.2525 N   0  0  0  0  0  0  0  0  0  0  0  0
    3.3729   -4.9395    0.2565 C   0  0  0  0  0  0  0  0  0  0  0  0
    3.3015   -6.3393    0.3559 C   0  0  0  0  0  0  0  0  0  0  0  0
    2.0876   -6.9552    0.3581 C   0  0  0  0  0  0  0  0  0  0  0  0
    0.9095   -6.2171    0.2635 C   0  0  0  0  0  0  0  0  0  0  0  0
    0.9401   -4.8598    0.1653 C   0  0  0  0  0  0  0  0  0  0  0  0
    2.1750   -4.1891    0.1599 C   0  0  0  0  0  0  0  0  0  0  0  0
    2.2347   -2.8551    0.0653 N   0  0  0  0  0  0  0  0  0  0  0  0
    6.8041    3.9239   -0.0294 H   0  0  0  0  0  0  0  0  0  0  0  0
    5.9735    2.6237    0.8582 H   0  0  0  0  0  0  0  0  0  0  0  0
    5.9541    2.6395   -0.9216 H   0  0  0  0  0  0  0  0  0  0  0  0
    4.5081    1.4571   -0.0259 H   0  0  0  0  0  0  0  0  0  0  0  0
    0.2216    3.9583    0.0431 H   0  0  0  0  0  0  0  0  0  0  0  0
    1.2651    7.1718    0.0581 H   0  0  0  0  0  0  0  0  0  0  0  0
    0.5376    5.8153   -0.8357 H   0  0  0  0  0  0  0  0  0  0  0  0
    0.5567    5.8001    0.9441 H   0  0  0  0  0  0  0  0  0  0  0  0
   -0.9395   -0.5315    0.0154 H   0  0  0  0  0  0  0  0  0  0  0  0
    4.3326   -0.4277   -0.1174 H   0  0  0  0  0  0  0  0  0  0  0  0
    5.5489   -2.4952    0.1464 H   0  0  0  0  0  0  0  0  0  0  0  0
    4.2063   -6.9243    0.4306 H   0  0  0  0  0  0  0  0  0  0  0  0
    2.0368   -8.0313    0.4347 H   0  0  0  0  0  0  0  0  0  0  0  0
   -0.0413   -6.7293    0.2677 H   0  0  0  0  0  0  0  0  0  0  0  0
    0.0190   -4.3006    0.0926 H   0  0  0  0  0  0  0  0  0  0  0  0
  1  2  1  0  0  0  0
  1 26  1  0  0  0  0
  1 27  1  0  0  0  0
  1 28  1  0  0  0  0
  2  3  1  0  0  0  0
  3  8  2  0  0  0  0
  3  4  1  0  0  0  0
  4  5  2  0  0  0  0
  4 29  1  0  0  0  0
  5 14  1  0  0  0  0
  5  6  1  0  0  0  0
  6  7  2  0  0  0  0
  6 11  1  0  0  0  0
  7  8  1  0  0  0  0
  7 30  1  0  0  0  0
  8  9  1  0  0  0  0
  9 10  1  0  0  0  0
 10 31  1  0  0  0  0
 10 32  1  0  0  0  0
 10 33  1  0  0  0  0
 11 12  2  0  0  0  0
 12 13  1  0  0  0  0
 12 34  1  0  0  0  0
 13 14  2  0  0  0  0
 14 15  1  0  0  0  0
 15 16  1  0  0  0  0
 15 35  1  0  0  0  0
 16 25  2  0  0  0  0
 16 17  1  0  0  0  0
 17 18  2  0  0  0  0
 17 36  1  0  0  0  0
 18 19  1  0  0  0  0
 19 24  2  0  0  0  0
 19 20  1  0  0  0  0
 20 21  2  0  0  0  0
 20 37  1  0  0  0  0
 21 22  1  0  0  0  0
 21 38  1  0  0  0  0
 22 23  2  0  0  0  0
 22 39  1  0  0  0  0
 23 24  1  0  0  0  0
 23 40  1  0  0  0  0
 24 25  1  0  0  0  0
M  END
$$$$
ZINC03815390
  -OEChem-08230709403D

 54 57  0     0  0  0  0  0  0999 V2000
    5.5524    4.9236   -1.7521 C   0  0  0  0  0  0  0  0  0  0  0  0
    4.1411    5.1416   -1.8066 O   0  0  0  0  0  0  0  0  0  0  0  0
    3.3775    4.4674   -0.9071 C   0  0  0  0  0  0  0  0  0  0  0  0
    3.9760    3.6131    0.0094 C   0  0  0  0  0  0  0  0  0  0  0  0
    3.2035    2.9245    0.9257 C   0  0  0  0  0  0  0  0  0  0  0  0
    1.8321    3.0823    0.9352 C   0  0  0  0  0  0  0  0  0  0  0  0
    1.2230    3.9385    0.0187 C   0  0  0  0  0  0  0  0  0  0  0  0
    2.0021    4.6284   -0.9082 C   0  0  0  0  0  0  0  0  0  0  0  0
   -0.2494    4.1097    0.0263 C   0  0  0  0  0  0  0  0  0  0  0  0
   -0.9291    5.2829    0.0364 C   0  0  0  0  0  0  0  0  0  0  0  0
   -2.2759    5.0342    0.0416 N   0  0  0  0  0  0  0  0  0  0  0  0
   -2.5086    3.6829    0.0349 C   0  0  0  0  0  0  0  0  0  0  0  0
   -1.2577    3.0416    0.0304 C   0  0  0  0  0  0  0  0  0  0  0  0
   -1.2185    1.6412    0.0167 C   0  0  0  0  0  0  0  0  0  0  0  0
   -2.3712    0.9770    0.0186 N   0  0  0  0  0  0  0  0  0  0  0  0
   -3.5254    1.6185    0.0280 C   0  0  0  0  0  0  0  0  0  0  0  0
   -3.6085    2.9315    0.0360 N   0  0  0  0  0  0  0  0  0  0  0  0
   -0.0111    0.9658    0.0074 N   0  0  0  0  0  0  0  0  0  0  0  0
   -3.2724    6.0187    0.0530 C   0  0  0  0  0  0  0  0  0  0  0  0
   -4.3122    5.9667   -0.8659 C   0  0  0  0  0  0  0  0  0  0  0  0
   -5.2955    6.9365   -0.8493 C   0  0  0  0  0  0  0  0  0  0  0  0
   -5.2401    7.9637    0.0748 C   0  0  0  0  0  0  0  0  0  0  0  0
   -4.2031    8.0211    0.9877 C   0  0  0  0  0  0  0  0  0  0  0  0
   -3.2193    7.0517    0.9794 C   0  0  0  0  0  0  0  0  0  0  0  0
   -6.3118    9.0231    0.0866 C   0  0  0  0  0  0  0  0  0  0  0  0
   -5.9087   10.1556   -0.8221 C   0  0  0  0  0  0  0  0  0  0  0  0
   -4.8549   10.1073   -1.4205 O   0  0  0  0  0  0  0  0  0  0  0  0
   -6.7193   11.2222   -0.9699 N   0  0  0  0  0  0  0  0  0  0  0  0
   -6.3274   12.3232   -1.8533 C   0  0  0  0  0  0  0  0  0  0  0  0
   -7.4155   13.3988   -1.8413 C   0  0  0  0  0  0  0  0  0  0  0  0
   -7.5023   13.9740   -0.5360 O   0  0  0  0  0  0  0  0  0  0  0  0
    5.9276    5.2165   -0.7715 H   0  0  0  0  0  0  0  0  0  0  0  0
    5.7637    3.8678   -1.9215 H   0  0  0  0  0  0  0  0  0  0  0  0
    6.0422    5.5203   -2.5216 H   0  0  0  0  0  0  0  0  0  0  0  0
    5.0485    3.4861    0.0061 H   0  0  0  0  0  0  0  0  0  0  0  0
    3.6741    2.2607    1.6359 H   0  0  0  0  0  0  0  0  0  0  0  0
    1.2313    2.5426    1.6522 H   0  0  0  0  0  0  0  0  0  0  0  0
    1.5348    5.2894   -1.6232 H   0  0  0  0  0  0  0  0  0  0  0  0
   -0.4774    6.2639    0.0402 H   0  0  0  0  0  0  0  0  0  0  0  0
   -4.4385    1.0417    0.0288 H   0  0  0  0  0  0  0  0  0  0  0  0
    0.0021   -0.0041    0.0020 H   0  0  0  0  0  0  0  0  0  0  0  0
    0.8223    1.4622    0.0021 H   0  0  0  0  0  0  0  0  0  0  0  0
   -4.3538    5.1670   -1.5905 H   0  0  0  0  0  0  0  0  0  0  0  0
   -6.1067    6.8944   -1.5611 H   0  0  0  0  0  0  0  0  0  0  0  0
   -4.1621    8.8250    1.7078 H   0  0  0  0  0  0  0  0  0  0  0  0
   -2.4095    7.0972    1.6924 H   0  0  0  0  0  0  0  0  0  0  0  0
   -7.2509    8.5938   -0.2625 H   0  0  0  0  0  0  0  0  0  0  0  0
   -6.4395    9.3994    1.1016 H   0  0  0  0  0  0  0  0  0  0  0  0
   -7.5621   11.2609   -0.4913 H   0  0  0  0  0  0  0  0  0  0  0  0
   -5.3883   12.7525   -1.5042 H   0  0  0  0  0  0  0  0  0  0  0  0
   -6.1998   11.9469   -2.8683 H   0  0  0  0  0  0  0  0  0  0  0  0
   -7.1668   14.1753   -2.5647 H   0  0  0  0  0  0  0  0  0  0  0  0
   -8.3731   12.9498   -2.1049 H   0  0  0  0  0  0  0  0  0  0  0  0
   -8.1735   14.6653   -0.4547 H   0  0  0  0  0  0  0  0  0  0  0  0
  1  2  1  0  0  0  0
  1 32  1  0  0  0  0
  1 33  1  0  0  0  0
  1 34  1  0  0  0  0
  2  3  1  0  0  0  0
  3  8  2  0  0  0  0
  3  4  1  0  0  0  0
  4  5  2  0  0  0  0
  4 35  1  0  0  0  0
  5  6  1  0  0  0  0
  5 36  1  0  0  0  0
  6  7  2  0  0  0  0
  6 37  1  0  0  0  0
  7  8  1  0  0  0  0
  7  9  1  0  0  0  0
  8 38  1  0  0  0  0
  9 13  1  0  0  0  0
  9 10  2  0  0  0  0
 10 11  1  0  0  0  0
 10 39  1  0  0  0  0
 11 12  1  0  0  0  0
 11 19  1  0  0  0  0
 12 17  2  0  0  0  0
 12 13  1  0  0  0  0
 13 14  2  0  0  0  0
 14 15  1  0  0  0  0
 14 18  1  0  0  0  0
 15 16  2  0  0  0  0
 16 17  1  0  0  0  0
 16 40  1  0  0  0  0
 18 41  1  0  0  0  0
 18 42  1  0  0  0  0
 19 24  2  0  0  0  0
 19 20  1  0  0  0  0
 20 21  2  0  0  0  0
 20 43  1  0  0  0  0
 21 22  1  0  0  0  0
 21 44  1  0  0  0  0
 22 23  2  0  0  0  0
 22 25  1  0  0  0  0
 23 24  1  0  0  0  0
 23 45  1  0  0  0  0
 24 46  1  0  0  0  0
 25 26  1  0  0  0  0
 25 47  1  0  0  0  0
 25 48  1  0  0  0  0
 26 27  2  0  0  0  0
 26 28  1  0  0  0  0
 28 29  1  0  0  0  0
 28 49  1  0  0  0  0
 29 30  1  0  0  0  0
 29 50  1  0  0  0  0
 29 51  1  0  0  0  0
 30 31  1  0  0  0  0
 30 52  1  0  0  0  0
 30 53  1  0  0  0  0
 31 54  1  0  0  0  0
M  END
$$$$
ZINC03815391
  -OEChem-08230709403D

 44 47  0     0  0  0  0  0  0999 V2000
    5.5524    4.9236   -1.7521 C   0  0  0  0  0  0  0  0  0  0  0  0
    4.1411    5.1416   -1.8066 O   0  0  0  0  0  0  0  0  0  0  0  0
    3.3775    4.4674   -0.9071 C   0  0  0  0  0  0  0  0  0  0  0  0
    3.9760    3.6131    0.0094 C   0  0  0  0  0  0  0  0  0  0  0  0
    3.2035    2.9245    0.9257 C   0  0  0  0  0  0  0  0  0  0  0  0
    1.8321    3.0823    0.9352 C   0  0  0  0  0  0  0  0  0  0  0  0
    1.2230    3.9385    0.0187 C   0  0  0  0  0  0  0  0  0  0  0  0
    2.0021    4.6284   -0.9082 C   0  0  0  0  0  0  0  0  0  0  0  0
   -0.2494    4.1097    0.0263 C   0  0  0  0  0  0  0  0  0  0  0  0
   -0.9291    5.2829    0.0364 C   0  0  0  0  0  0  0  0  0  0  0  0
   -2.2759    5.0342    0.0416 N   0  0  0  0  0  0  0  0  0  0  0  0
   -2.5086    3.6829    0.0349 C   0  0  0  0  0  0  0  0  0  0  0  0
   -1.2577    3.0416    0.0304 C   0  0  0  0  0  0  0  0  0  0  0  0
   -1.2185    1.6412    0.0167 C   0  0  0  0  0  0  0  0  0  0  0  0
   -2.3712    0.9770    0.0186 N   0  0  0  0  0  0  0  0  0  0  0  0
   -3.5254    1.6185    0.0280 C   0  0  0  0  0  0  0  0  0  0  0  0
   -3.6085    2.9315    0.0360 N   0  0  0  0  0  0  0  0  0  0  0  0
   -0.0111    0.9658    0.0074 N   0  0  0  0  0  0  0  0  0  0  0  0
   -3.2724    6.0187    0.0530 C   0  0  0  0  0  0  0  0  0  0  0  0
   -4.3124    5.9667   -0.8660 C   0  0  0  0  0  0  0  0  0  0  0  0
   -5.2955    6.9363   -0.8495 C   0  0  0  0  0  0  0  0  0  0  0  0
   -5.2401    7.9637    0.0748 C   0  0  0  0  0  0  0  0  0  0  0  0
   -4.2032    8.0211    0.9876 C   0  0  0  0  0  0  0  0  0  0  0  0
   -3.2193    7.0515    0.9792 C   0  0  0  0  0  0  0  0  0  0  0  0
   -4.1461    9.1428    1.9923 C   0  0  0  0  0  0  0  0  0  0  0  0
   -3.4073   10.2362    1.4440 O   0  0  0  0  0  0  0  0  0  0  0  0
    5.9276    5.2165   -0.7715 H   0  0  0  0  0  0  0  0  0  0  0  0
    5.7637    3.8678   -1.9215 H   0  0  0  0  0  0  0  0  0  0  0  0
    6.0422    5.5203   -2.5216 H   0  0  0  0  0  0  0  0  0  0  0  0
    5.0485    3.4861    0.0061 H   0  0  0  0  0  0  0  0  0  0  0  0
    3.6741    2.2607    1.6359 H   0  0  0  0  0  0  0  0  0  0  0  0
    1.2313    2.5426    1.6522 H   0  0  0  0  0  0  0  0  0  0  0  0
    1.5348    5.2894   -1.6232 H   0  0  0  0  0  0  0  0  0  0  0  0
   -0.4774    6.2639    0.0402 H   0  0  0  0  0  0  0  0  0  0  0  0
   -4.4385    1.0417    0.0288 H   0  0  0  0  0  0  0  0  0  0  0  0
    0.0021   -0.0041    0.0020 H   0  0  0  0  0  0  0  0  0  0  0  0
    0.8223    1.4622    0.0021 H   0  0  0  0  0  0  0  0  0  0  0  0
   -4.3540    5.1670   -1.5906 H   0  0  0  0  0  0  0  0  0  0  0  0
   -6.1063    6.8946   -1.5617 H   0  0  0  0  0  0  0  0  0  0  0  0
   -6.0082    8.7229    0.0833 H   0  0  0  0  0  0  0  0  0  0  0  0
   -2.4098    7.0967    1.6927 H   0  0  0  0  0  0  0  0  0  0  0  0
   -5.1584    9.4706    2.2289 H   0  0  0  0  0  0  0  0  0  0  0  0
   -3.6561    8.7923    2.9007 H   0  0  0  0  0  0  0  0  0  0  0  0
   -3.3299   10.9956    2.0376 H   0  0  0  0  0  0  0  0  0  0  0  0
  1  2  1  0  0  0  0
  1 27  1  0  0  0  0
  1 28  1  0  0  0  0
  1 29  1  0  0  0  0
  2  3  1  0  0  0  0
  3  8  2  0  0  0  0
  3  4  1  0  0  0  0
  4  5  2  0  0  0  0
  4 30  1  0  0  0  0
  5  6  1  0  0  0  0
  5 31  1  0  0  0  0
  6  7  2  0  0  0  0
  6 32  1  0  0  0  0
  7  8  1  0  0  0  0
  7  9  1  0  0  0  0
  8 33  1  0  0  0  0
  9 13  1  0  0  0  0
  9 10  2  0  0  0  0
 10 11  1  0  0  0  0
 10 34  1  0  0  0  0
 11 12  1  0  0  0  0
 11 19  1  0  0  0  0
 12 17  2  0  0  0  0
 12 13  1  0  0  0  0
 13 14  2  0  0  0  0
 14 15  1  0  0  0  0
 14 18  1  0  0  0  0
 15 16  2  0  0  0  0
 16 17  1  0  0  0  0
 16 35  1  0  0  0  0
 18 36  1  0  0  0  0
 18 37  1  0  0  0  0
 19 24  2  0  0  0  0
 19 20  1  0  0  0  0
 20 21  2  0  0  0  0
 20 38  1  0  0  0  0
 21 22  1  0  0  0  0
 21 39  1  0  0  0  0
 22 23  2  0  0  0  0
 22 40  1  0  0  0  0
 23 24  1  0  0  0  0
 23 25  1  0  0  0  0
 24 41  1  0  0  0  0
 25 26  1  0  0  0  0
 25 42  1  0  0  0  0
 25 43  1  0  0  0  0
 26 44  1  0  0  0  0
M  END
$$$$
ZINC03815393
  -OEChem-08230709403D

 30 32  0     0  0  0  0  0  0999 V2000
   -5.1556   -2.8530   -0.2504 C   0  0  0  0  0  0  0  0  0  0  0  0
   -3.9348   -2.2169   -0.3649 C   0  0  0  0  0  0  0  0  0  0  0  0
   -3.7713   -0.9337    0.1411 C   0  0  0  0  0  0  0  0  0  0  0  0
   -4.8351   -0.2960    0.7664 C   0  0  0  0  0  0  0  0  0  0  0  0
   -6.0555   -0.9356    0.8733 C   0  0  0  0  0  0  0  0  0  0  0  0
   -6.2146   -2.2142    0.3673 C   0  0  0  0  0  0  0  0  0  0  0  0
   -7.3879   -0.1377    1.6491 Cl  0  0  0  0  0  0  0  0  0  0  0  0
   -2.5370   -0.2878    0.0264 N   0  0  0  0  0  0  0  0  0  0  0  0
   -2.4872    1.0821   -0.1285 C   0  0  0  0  0  0  0  0  0  0  0  0
   -1.2488    1.7696   -0.1305 C   0  0  0  0  0  0  0  0  0  0  0  0
   -0.0286    1.1052    0.0354 C   0  0  0  0  0  0  0  0  0  0  0  0
    1.1321    1.8215    0.0321 C   0  0  0  0  0  0  0  0  0  0  0  0
    1.1183    3.2042   -0.1287 C   0  0  0  0  0  0  0  0  0  0  0  0
   -0.0541    3.8815   -0.2869 C   0  0  0  0  0  0  0  0  0  0  0  0
   -1.2655    3.1769   -0.2879 C   0  0  0  0  0  0  0  0  0  0  0  0
   -2.4466    3.7946   -0.4392 N   0  0  0  0  0  0  0  0  0  0  0  0
   -3.5628    3.1055   -0.4351 C   0  0  0  0  0  0  0  0  0  0  0  0
   -3.5973    1.7909   -0.2856 N   0  0  0  0  0  0  0  0  0  0  0  0
    2.3966    3.9505   -0.1285 N   0  3  0  0  0  0  0  0  0  0  0  0
    3.4496    3.3546    0.0116 O   0  0  0  0  0  0  0  0  0  0  0  0
    2.3955    5.1604   -0.2685 O   0  5  0  0  0  0  0  0  0  0  0  0
   -5.2827   -3.8508   -0.6435 H   0  0  0  0  0  0  0  0  0  0  0  0
   -3.1082   -2.7167   -0.8480 H   0  0  0  0  0  0  0  0  0  0  0  0
   -4.7097    0.6998    1.1652 H   0  0  0  0  0  0  0  0  0  0  0  0
   -7.1680   -2.7139    0.4555 H   0  0  0  0  0  0  0  0  0  0  0  0
   -1.7155   -0.8027    0.0557 H   0  0  0  0  0  0  0  0  0  0  0  0
   -0.0057    0.0328    0.1606 H   0  0  0  0  0  0  0  0  0  0  0  0
    2.0747    1.3090    0.1555 H   0  0  0  0  0  0  0  0  0  0  0  0
   -0.0494    4.9543   -0.4110 H   0  0  0  0  0  0  0  0  0  0  0  0
   -4.4959    3.6348   -0.5598 H   0  0  0  0  0  0  0  0  0  0  0  0
  1  6  2  0  0  0  0
  1  2  1  0  0  0  0
  1 22  1  0  0  0  0
  2  3  2  0  0  0  0
  2 23  1  0  0  0  0
  3  4  1  0  0  0  0
  3  8  1  0  0  0  0
  4  5  2  0  0  0  0
  4 24  1  0  0  0  0
  5  6  1  0  0  0  0
  5  7  1  0  0  0  0
  6 25  1  0  0  0  0
  8  9  1  0  0  0  0
  8 26  1  0  0  0  0
  9 18  2  0  0  0  0
  9 10  1  0  0  0  0
 10 15  2  0  0  0  0
 10 11  1  0  0  0  0
 11 12  2  0  0  0  0
 11 27  1  0  0  0  0
 12 13  1  0  0  0  0
 12 28  1  0  0  0  0
 13 14  2  0  0  0  0
 13 19  1  0  0  0  0
 14 15  1  0  0  0  0
 14 29  1  0  0  0  0
 15 16  1  0  0  0  0
 16 17  2  0  0  0  0
 17 18  1  0  0  0  0
 17 30  1  0  0  0  0
 19 20  2  0  0  0  0
 19 21  1  0  0  0  0
M  CHG  2  19   1  21  -1
M  END
$$$$
ZINC03815394
  -OEChem-08230709403D

 39 42  0     0  0  0  0  0  0999 V2000
    2.5427   -3.8510   -1.7032 C   0  0  0  0  0  0  0  0  0  0  0  0
    2.4771   -2.5531   -0.9402 C   0  0  0  0  0  0  0  0  0  0  0  0
    3.6202   -2.0349   -0.3590 C   0  0  0  0  0  0  0  0  0  0  0  0
    3.5644   -0.8444    0.3420 C   0  0  0  0  0  0  0  0  0  0  0  0
    2.3670   -0.1659    0.4595 C   0  0  0  0  0  0  0  0  0  0  0  0
    1.2163   -0.6859   -0.1187 C   0  0  0  0  0  0  0  0  0  0  0  0
    1.2759   -1.8824   -0.8224 C   0  0  0  0  0  0  0  0  0  0  0  0
    0.0021   -0.0041    0.0020 N   0  0  0  0  0  0  0  0  0  0  0  0
   -0.0177    1.3800   -0.0002 C   0  0  0  0  0  0  0  0  0  0  0  0
   -1.2091    2.0822    0.2409 C   0  0  0  0  0  0  0  0  0  0  0  0
   -2.5863    1.7170    0.5408 C   0  0  0  0  0  0  0  0  0  0  0  0
   -3.2804    2.8631    0.6801 C   0  0  0  0  0  0  0  0  0  0  0  0
   -2.4431    3.9299    0.4958 N   0  0  0  0  0  0  0  0  0  0  0  0
   -2.7098    4.8612    0.5456 H   0  0  0  0  0  0  0  0  0  0  0  0
   -1.1738    3.4905    0.2317 C   0  0  0  0  0  0  0  0  0  0  0  0
   -0.0140    4.0968   -0.0153 N   0  0  0  0  0  0  0  0  0  0  0  0
    1.0767    3.3971   -0.2404 C   0  0  0  0  0  0  0  0  0  0  0  0
    1.0901    2.0762   -0.2363 N   0  0  0  0  0  0  0  0  0  0  0  0
   -4.7582    2.9155    0.9918 C   0  0  0  0  0  0  0  0  0  0  0  0
   -5.3672    1.5398    0.6985 C   0  0  0  0  0  0  0  0  0  0  0  0
   -4.5315    0.4545    1.3831 C   0  0  0  0  0  0  0  0  0  0  0  0
   -3.1758    0.3367    0.6757 C   0  0  0  0  0  0  0  0  0  0  0  0
    2.7632   -3.6458   -2.7508 H   0  0  0  0  0  0  0  0  0  0  0  0
    3.3275   -4.4801   -1.2832 H   0  0  0  0  0  0  0  0  0  0  0  0
    1.5849   -4.3658   -1.6276 H   0  0  0  0  0  0  0  0  0  0  0  0
    4.5586   -2.5612   -0.4532 H   0  0  0  0  0  0  0  0  0  0  0  0
    4.4589   -0.4423    0.7943 H   0  0  0  0  0  0  0  0  0  0  0  0
    2.3249    0.7661    1.0037 H   0  0  0  0  0  0  0  0  0  0  0  0
    0.3838   -2.2872   -1.2770 H   0  0  0  0  0  0  0  0  0  0  0  0
   -0.8267   -0.5008    0.0874 H   0  0  0  0  0  0  0  0  0  0  0  0
    1.9989    3.9238   -0.4364 H   0  0  0  0  0  0  0  0  0  0  0  0
   -4.9020    3.1633    2.0434 H   0  0  0  0  0  0  0  0  0  0  0  0
   -5.2377    3.6686    0.3665 H   0  0  0  0  0  0  0  0  0  0  0  0
   -5.3746    1.3677   -0.3778 H   0  0  0  0  0  0  0  0  0  0  0  0
   -6.3881    1.5061    1.0788 H   0  0  0  0  0  0  0  0  0  0  0  0
   -5.0561   -0.4992    1.3253 H   0  0  0  0  0  0  0  0  0  0  0  0
   -4.3745    0.7207    2.4284 H   0  0  0  0  0  0  0  0  0  0  0  0
   -3.3153   -0.1003   -0.3131 H   0  0  0  0  0  0  0  0  0  0  0  0
   -2.5079   -0.2908    1.2659 H   0  0  0  0  0  0  0  0  0  0  0  0
  1  2  1  0  0  0  0
  1 23  1  0  0  0  0
  1 24  1  0  0  0  0
  1 25  1  0  0  0  0
  2  7  2  0  0  0  0
  2  3  1  0  0  0  0
  3  4  2  0  0  0  0
  3 26  1  0  0  0  0
  4  5  1  0  0  0  0
  4 27  1  0  0  0  0
  5  6  2  0  0  0  0
  5 28  1  0  0  0  0
  6  7  1  0  0  0  0
  6  8  1  0  0  0  0
  7 29  1  0  0  0  0
  8  9  1  0  0  0  0
  8 30  1  0  0  0  0
  9 18  2  0  0  0  0
  9 10  1  0  0  0  0
 10 15  2  0  0  0  0
 10 11  1  0  0  0  0
 11 22  1  0  0  0  0
 11 12  2  0  0  0  0
 12 13  1  0  0  0  0
 12 19  1  0  0  0  0
 13 14  1  0  0  0  0
 13 15  1  0  0  0  0
 15 16  1  0  0  0  0
 16 17  2  0  0  0  0
 17 18  1  0  0  0  0
 17 31  1  0  0  0  0
 19 20  1  0  0  0  0
 19 32  1  0  0  0  0
 19 33  1  0  0  0  0
 20 21  1  0  0  0  0
 20 34  1  0  0  0  0
 20 35  1  0  0  0  0
 21 22  1  0  0  0  0
 21 36  1  0  0  0  0
 21 37  1  0  0  0  0
 22 38  1  0  0  0  0
 22 39  1  0  0  0  0
M  END
$$$$
ZINC03815395
  -OEChem-08230709403D

 40 43  0     0  0  0  0  0  0999 V2000
    5.8094    3.0824   -0.4953 C   0  0  0  0  0  0  0  0  0  0  0  0
    4.6194    3.8639   -0.3725 O   0  0  0  0  0  0  0  0  0  0  0  0
    3.4345    3.2044   -0.4734 C   0  0  0  0  0  0  0  0  0  0  0  0
    3.4266    1.8428   -0.5841 C   0  0  0  0  0  0  0  0  0  0  0  0
    2.2073    1.1629   -0.6885 C   0  0  0  0  0  0  0  0  0  0  0  0
    0.9904    1.8888   -0.6791 C   0  0  0  0  0  0  0  0  0  0  0  0
    1.0220    3.2838   -0.5643 C   0  0  0  0  0  0  0  0  0  0  0  0
    2.2347    3.9291   -0.4630 C   0  0  0  0  0  0  0  0  0  0  0  0
    2.2683    5.2826   -0.3515 O   0  0  0  0  0  0  0  0  0  0  0  0
    1.0125    5.9646   -0.3469 C   0  0  0  0  0  0  0  0  0  0  0  0
   -0.1646    1.2123   -0.7800 N   0  0  0  0  0  0  0  0  0  0  0  0
   -0.1624   -0.0952   -0.8851 C   0  0  0  0  0  0  0  0  0  0  0  0
    0.9485   -0.8145   -0.8987 N   0  0  0  0  0  0  0  0  0  0  0  0
    2.1435   -0.2461   -0.8049 C   0  0  0  0  0  0  0  0  0  0  0  0
    3.2942   -1.0088   -0.8200 N   0  0  0  0  0  0  0  0  0  0  0  0
    4.0251   -1.4022   -2.0275 C   0  0  0  0  0  0  0  0  0  0  0  0
    5.2196   -2.2290   -1.5243 C   0  0  0  0  0  0  0  0  0  0  0  0
    5.0620   -2.2482   -0.0205 C   0  0  0  0  0  0  0  0  0  0  0  0
    3.9285   -1.5231    0.3133 C   0  0  0  0  0  0  0  0  0  0  0  0
    3.5748   -1.3995    1.6583 C   0  0  0  0  0  0  0  0  0  0  0  0
    4.3444   -1.9921    2.6368 C   0  0  0  0  0  0  0  0  0  0  0  0
    5.4728   -2.7134    2.2933 C   0  0  0  0  0  0  0  0  0  0  0  0
    5.8299   -2.8400    0.9634 C   0  0  0  0  0  0  0  0  0  0  0  0
    6.6795    3.7382   -0.4650 H   0  0  0  0  0  0  0  0  0  0  0  0
    5.8627    2.3698    0.3279 H   0  0  0  0  0  0  0  0  0  0  0  0
    5.7938    2.5429   -1.4423 H   0  0  0  0  0  0  0  0  0  0  0  0
    4.3565    1.2936   -0.5908 H   0  0  0  0  0  0  0  0  0  0  0  0
    0.1023    3.8499   -0.5558 H   0  0  0  0  0  0  0  0  0  0  0  0
    0.4848    5.7605   -1.2786 H   0  0  0  0  0  0  0  0  0  0  0  0
    0.4129    5.6162    0.4941 H   0  0  0  0  0  0  0  0  0  0  0  0
    1.1818    7.0372   -0.2527 H   0  0  0  0  0  0  0  0  0  0  0  0
   -1.1097   -0.6078   -0.9645 H   0  0  0  0  0  0  0  0  0  0  0  0
    3.3893   -2.0072   -2.6740 H   0  0  0  0  0  0  0  0  0  0  0  0
    4.3770   -0.5193   -2.5611 H   0  0  0  0  0  0  0  0  0  0  0  0
    6.1601   -1.7533   -1.8021 H   0  0  0  0  0  0  0  0  0  0  0  0
    5.1720   -3.2418   -1.9246 H   0  0  0  0  0  0  0  0  0  0  0  0
    2.6944   -0.8377    1.9334 H   0  0  0  0  0  0  0  0  0  0  0  0
    4.0647   -1.8927    3.6752 H   0  0  0  0  0  0  0  0  0  0  0  0
    6.0739   -3.1766    3.0617 H   0  0  0  0  0  0  0  0  0  0  0  0
    6.7110   -3.4032    0.6934 H   0  0  0  0  0  0  0  0  0  0  0  0
  1  2  1  0  0  0  0
  1 24  1  0  0  0  0
  1 25  1  0  0  0  0
  1 26  1  0  0  0  0
  2  3  1  0  0  0  0
  3  8  2  0  0  0  0
  3  4  1  0  0  0  0
  4  5  2  0  0  0  0
  4 27  1  0  0  0  0
  5 14  1  0  0  0  0
  5  6  1  0  0  0  0
  6  7  2  0  0  0  0
  6 11  1  0  0  0  0
  7  8  1  0  0  0  0
  7 28  1  0  0  0  0
  8  9  1  0  0  0  0
  9 10  1  0  0  0  0
 10 29  1  0  0  0  0
 10 30  1  0  0  0  0
 10 31  1  0  0  0  0
 11 12  2  0  0  0  0
 12 13  1  0  0  0  0
 12 32  1  0  0  0  0
 13 14  2  0  0  0  0
 14 15  1  0  0  0  0
 15 19  1  0  0  0  0
 15 16  1  0  0  0  0
 16 17  1  0  0  0  0
 16 33  1  0  0  0  0
 16 34  1  0  0  0  0
 17 18  1  0  0  0  0
 17 35  1  0  0  0  0
 17 36  1  0  0  0  0
 18 23  2  0  0  0  0
 18 19  1  0  0  0  0
 19 20  2  0  0  0  0
 20 21  1  0  0  0  0
 20 37  1  0  0  0  0
 21 22  2  0  0  0  0
 21 38  1  0  0  0  0
 22 23  1  0  0  0  0
 22 39  1  0  0  0  0
 23 40  1  0  0  0  0
M  END
$$$$
ZINC03815396
  -OEChem-08230709403D

 39 42  0     0  0  0  0  0  0999 V2000
    6.0066   -1.7947   -0.0628 C   0  0  0  0  0  0  0  0  0  0  0  0
    4.8301   -2.6057   -0.0563 O   0  0  0  0  0  0  0  0  0  0  0  0
    3.6343   -1.9584   -0.0423 C   0  0  0  0  0  0  0  0  0  0  0  0
    3.6055   -0.5928   -0.0352 C   0  0  0  0  0  0  0  0  0  0  0  0
    2.3748    0.0746   -0.0203 C   0  0  0  0  0  0  0  0  0  0  0  0
    1.1681   -0.6685   -0.0127 C   0  0  0  0  0  0  0  0  0  0  0  0
    1.2213   -2.0676   -0.0202 C   0  0  0  0  0  0  0  0  0  0  0  0
    2.4446   -2.7002   -0.0349 C   0  0  0  0  0  0  0  0  0  0  0  0
    2.4991   -4.0575   -0.0427 O   0  0  0  0  0  0  0  0  0  0  0  0
    1.2530   -4.7569   -0.0345 C   0  0  0  0  0  0  0  0  0  0  0  0
    0.0021   -0.0041    0.0020 N   0  0  0  0  0  0  0  0  0  0  0  0
   -0.0157    1.3075    0.0092 C   0  0  0  0  0  0  0  0  0  0  0  0
    1.0852    2.0423    0.0027 N   0  0  0  0  0  0  0  0  0  0  0  0
    2.2893    1.4868   -0.0119 C   0  0  0  0  0  0  0  0  0  0  0  0
    3.4305    2.2667   -0.0182 N   0  0  0  0  0  0  0  0  0  0  0  0
    3.3254    3.6489   -0.0098 C   0  0  0  0  0  0  0  0  0  0  0  0
    4.4254    4.3796   -0.0160 N   0  0  0  0  0  0  0  0  0  0  0  0
    4.3184    5.7136   -0.0079 C   0  0  0  0  0  0  0  0  0  0  0  0
    5.4472    6.5473   -0.0144 C   0  0  0  0  0  0  0  0  0  0  0  0
    5.2847    7.8993   -0.0059 C   0  0  0  0  0  0  0  0  0  0  0  0
    4.0127    8.4695    0.0090 C   0  0  0  0  0  0  0  0  0  0  0  0
    2.8951    7.6922    0.0156 C   0  0  0  0  0  0  0  0  0  0  0  0
    3.0226    6.2935    0.0073 C   0  0  0  0  0  0  0  0  0  0  0  0
    1.9544    5.4895    0.0127 N   0  0  0  0  0  0  0  0  0  0  0  0
    2.1148    4.2106   -0.0011 N   0  0  0  0  0  0  0  0  0  0  0  0
    6.0062   -1.1610   -0.9496 H   0  0  0  0  0  0  0  0  0  0  0  0
    6.0222   -1.1700    0.8302 H   0  0  0  0  0  0  0  0  0  0  0  0
    6.8889   -2.4347   -0.0739 H   0  0  0  0  0  0  0  0  0  0  0  0
    4.5276   -0.0306   -0.0414 H   0  0  0  0  0  0  0  0  0  0  0  0
    0.3096   -2.6466   -0.0143 H   0  0  0  0  0  0  0  0  0  0  0  0
    0.6762   -4.4819   -0.9175 H   0  0  0  0  0  0  0  0  0  0  0  0
    1.4390   -5.8309   -0.0420 H   0  0  0  0  0  0  0  0  0  0  0  0
    0.6932   -4.4914    0.8623 H   0  0  0  0  0  0  0  0  0  0  0  0
   -0.9715    1.8104    0.0164 H   0  0  0  0  0  0  0  0  0  0  0  0
    4.3048    1.8469   -0.0285 H   0  0  0  0  0  0  0  0  0  0  0  0
    6.4387    6.1193   -0.0263 H   0  0  0  0  0  0  0  0  0  0  0  0
    6.1544    8.5396   -0.0113 H   0  0  0  0  0  0  0  0  0  0  0  0
    3.9122    9.5448    0.0158 H   0  0  0  0  0  0  0  0  0  0  0  0
    1.9162    8.1483    0.0272 H   0  0  0  0  0  0  0  0  0  0  0  0
  1  2  1  0  0  0  0
  1 26  1  0  0  0  0
  1 27  1  0  0  0  0
  1 28  1  0  0  0  0
  2  3  1  0  0  0  0
  3  8  2  0  0  0  0
  3  4  1  0  0  0  0
  4  5  2  0  0  0  0
  4 29  1  0  0  0  0
  5 14  1  0  0  0  0
  5  6  1  0  0  0  0
  6  7  2  0  0  0  0
  6 11  1  0  0  0  0
  7  8  1  0  0  0  0
  7 30  1  0  0  0  0
  8  9  1  0  0  0  0
  9 10  1  0  0  0  0
 10 31  1  0  0  0  0
 10 32  1  0  0  0  0
 10 33  1  0  0  0  0
 11 12  2  0  0  0  0
 12 13  1  0  0  0  0
 12 34  1  0  0  0  0
 13 14  2  0  0  0  0
 14 15  1  0  0  0  0
 15 16  1  0  0  0  0
 15 35  1  0  0  0  0
 16 25  2  0  0  0  0
 16 17  1  0  0  0  0
 17 18  2  0  0  0  0
 18 23  1  0  0  0  0
 18 19  1  0  0  0  0
 19 20  2  0  0  0  0
 19 36  1  0  0  0  0
 20 21  1  0  0  0  0
 20 37  1  0  0  0  0
 21 22  2  0  0  0  0
 21 38  1  0  0  0  0
 22 23  1  0  0  0  0
 22 39  1  0  0  0  0
 23 24  2  0  0  0  0
 24 25  1  0  0  0  0
M  END
$$$$
ZINC03815397
  -OEChem-08230709403D

 40 42  0     0  0  0  0  0  0999 V2000
   -2.2836    9.3635   -0.9531 C   0  0  0  0  0  0  0  0  0  0  0  0
   -1.0692   10.1108   -0.8584 O   0  0  0  0  0  0  0  0  0  0  0  0
    0.0621    9.4157   -0.5646 C   0  0  0  0  0  0  0  0  0  0  0  0
   -0.0035    8.0650   -0.3771 C   0  0  0  0  0  0  0  0  0  0  0  0
    1.1616    7.3454   -0.0740 C   0  0  0  0  0  0  0  0  0  0  0  0
    2.4012    8.0210    0.0356 C   0  0  0  0  0  0  0  0  0  0  0  0
    2.4428    9.4096   -0.1621 C   0  0  0  0  0  0  0  0  0  0  0  0
    1.2850   10.0925   -0.4581 C   0  0  0  0  0  0  0  0  0  0  0  0
    1.3279   11.4368   -0.6494 O   0  0  0  0  0  0  0  0  0  0  0  0
    2.6037   12.0689   -0.5278 C   0  0  0  0  0  0  0  0  0  0  0  0
    3.5191    7.3386    0.3243 N   0  0  0  0  0  0  0  0  0  0  0  0
    3.5120    6.0439    0.5135 C   0  0  0  0  0  0  0  0  0  0  0  0
    2.3273    5.2946    0.4309 C   0  0  0  0  0  0  0  0  0  0  0  0
    1.1227    5.9460    0.1257 C   0  0  0  0  0  0  0  0  0  0  0  0
   -0.0627    5.2446    0.0290 N   0  0  0  0  0  0  0  0  0  0  0  0
   -0.5009    4.7813   -1.2142 C   0  0  0  0  0  0  0  0  0  0  0  0
    0.1860    5.1342   -2.3700 C   0  0  0  0  0  0  0  0  0  0  0  0
   -0.2463    4.6763   -3.5993 C   0  0  0  0  0  0  0  0  0  0  0  0
   -1.3627    3.8665   -3.6848 C   0  0  0  0  0  0  0  0  0  0  0  0
   -2.0572    3.5142   -2.5340 C   0  0  0  0  0  0  0  0  0  0  0  0
   -1.6222    3.9679   -1.2966 C   0  0  0  0  0  0  0  0  0  0  0  0
   -3.1887    2.7000   -2.6219 N   0  0  0  0  0  0  0  0  0  0  0  0
    2.3493    3.8796    0.6499 C   0  0  0  0  0  0  0  0  0  0  0  0
    2.3668    2.7571    0.8236 N   0  0  0  0  0  0  0  0  0  0  0  0
   -2.4817    8.8702   -0.0016 H   0  0  0  0  0  0  0  0  0  0  0  0
   -3.1068   10.0369   -1.1916 H   0  0  0  0  0  0  0  0  0  0  0  0
   -2.1884    8.6136   -1.7383 H   0  0  0  0  0  0  0  0  0  0  0  0
   -0.9501    7.5520   -0.4615 H   0  0  0  0  0  0  0  0  0  0  0  0
    3.3800    9.9405   -0.0826 H   0  0  0  0  0  0  0  0  0  0  0  0
    2.9972   11.9031    0.4750 H   0  0  0  0  0  0  0  0  0  0  0  0
    3.2899   11.6465   -1.2619 H   0  0  0  0  0  0  0  0  0  0  0  0
    2.4971   13.1393   -0.7039 H   0  0  0  0  0  0  0  0  0  0  0  0
    4.4391    5.5400    0.7438 H   0  0  0  0  0  0  0  0  0  0  0  0
   -0.5912    5.0734    0.8241 H   0  0  0  0  0  0  0  0  0  0  0  0
    1.0590    5.7670   -2.3066 H   0  0  0  0  0  0  0  0  0  0  0  0
    0.2893    4.9520   -4.4957 H   0  0  0  0  0  0  0  0  0  0  0  0
   -1.6985    3.5108   -4.6477 H   0  0  0  0  0  0  0  0  0  0  0  0
   -2.1580    3.6924   -0.4002 H   0  0  0  0  0  0  0  0  0  0  0  0
   -3.4901    2.3803   -3.4867 H   0  0  0  0  0  0  0  0  0  0  0  0
   -3.6731    2.4544   -1.8183 H   0  0  0  0  0  0  0  0  0  0  0  0
  1  2  1  0  0  0  0
  1 25  1  0  0  0  0
  1 26  1  0  0  0  0
  1 27  1  0  0  0  0
  2  3  1  0  0  0  0
  3  8  2  0  0  0  0
  3  4  1  0  0  0  0
  4  5  2  0  0  0  0
  4 28  1  0  0  0  0
  5 14  1  0  0  0  0
  5  6  1  0  0  0  0
  6  7  2  0  0  0  0
  6 11  1  0  0  0  0
  7  8  1  0  0  0  0
  7 29  1  0  0  0  0
  8  9  1  0  0  0  0
  9 10  1  0  0  0  0
 10 30  1  0  0  0  0
 10 31  1  0  0  0  0
 10 32  1  0  0  0  0
 11 12  2  0  0  0  0
 12 13  1  0  0  0  0
 12 33  1  0  0  0  0
 13 14  2  0  0  0  0
 13 23  1  0  0  0  0
 14 15  1  0  0  0  0
 15 16  1  0  0  0  0
 15 34  1  0  0  0  0
 16 21  2  0  0  0  0
 16 17  1  0  0  0  0
 17 18  2  0  0  0  0
 17 35  1  0  0  0  0
 18 19  1  0  0  0  0
 18 36  1  0  0  0  0
 19 20  2  0  0  0  0
 19 37  1  0  0  0  0
 20 21  1  0  0  0  0
 20 22  1  0  0  0  0
 21 38  1  0  0  0  0
 22 39  1  0  0  0  0
 22 40  1  0  0  0  0
 23 24  3  0  0  0  0
M  END
$$$$
ZINC03815398
  -OEChem-08230709403D

 30 32  0     0  0  0  0  0  0999 V2000
    2.1568    5.6965    0.3948 C   0  0  0  0  0  0  0  0  0  0  0  0
    2.2602    4.3224    0.4910 C   0  0  0  0  0  0  0  0  0  0  0  0
    3.3215    3.6622   -0.1150 C   0  0  0  0  0  0  0  0  0  0  0  0
    4.2796    4.3866   -0.8121 C   0  0  0  0  0  0  0  0  0  0  0  0
    4.1683    5.7617   -0.9097 C   0  0  0  0  0  0  0  0  0  0  0  0
    3.1081    6.4160   -0.3037 C   0  0  0  0  0  0  0  0  0  0  0  0
    5.0965    6.4677   -1.5918 F   0  0  0  0  0  0  0  0  0  0  0  0
    3.4281    2.2717   -0.0184 N   0  0  0  0  0  0  0  0  0  0  0  0
    2.2915    1.4918   -0.0158 C   0  0  0  0  0  0  0  0  0  0  0  0
    2.3670    0.0966    0.2019 C   0  0  0  0  0  0  0  0  0  0  0  0
    3.5748   -0.5691    0.4248 C   0  0  0  0  0  0  0  0  0  0  0  0
    2.4713   -2.6008    0.6186 C   0  0  0  0  0  0  0  0  0  0  0  0
    1.2298   -2.0298    0.4065 C   0  0  0  0  0  0  0  0  0  0  0  0
    1.1580   -0.6488    0.1914 C   0  0  0  0  0  0  0  0  0  0  0  0
    0.0033   -0.0060   -0.0230 N   0  0  0  0  0  0  0  0  0  0  0  0
   -0.0052    1.2926   -0.2198 C   0  0  0  0  0  0  0  0  0  0  0  0
    1.0940    2.0288   -0.2191 N   0  0  0  0  0  0  0  0  0  0  0  0
    2.5603   -3.9701    0.8332 N   0  0  0  0  0  0  0  0  0  0  0  0
    1.3316    6.2094    0.8664 H   0  0  0  0  0  0  0  0  0  0  0  0
    1.5160    3.7615    1.0368 H   0  0  0  0  0  0  0  0  0  0  0  0
    5.1082    3.8765   -1.2809 H   0  0  0  0  0  0  0  0  0  0  0  0
    3.0249    7.4903   -0.3770 H   0  0  0  0  0  0  0  0  0  0  0  0
    4.3020    1.8557    0.0469 H   0  0  0  0  0  0  0  0  0  0  0  0
    4.5023   -0.0158    0.4354 H   0  0  0  0  0  0  0  0  0  0  0  0
    0.3358   -2.6358    0.4073 H   0  0  0  0  0  0  0  0  0  0  0  0
   -0.9525    1.7811   -0.3946 H   0  0  0  0  0  0  0  0  0  0  0  0
    1.7573   -4.5142    0.8332 H   0  0  0  0  0  0  0  0  0  0  0  0
    3.4255   -4.3823    0.9831 H   0  0  0  0  0  0  0  0  0  0  0  0
    3.6578   -1.9078    0.6347 N   0  3  0  0  0  0  0  0  0  0  0  0
    4.5570   -2.3763    0.7966 H   0  0  0  0  0  0  0  0  0  0  0  0
  1  6  2  0  0  0  0
  1  2  1  0  0  0  0
  1 19  1  0  0  0  0
  2  3  2  0  0  0  0
  2 20  1  0  0  0  0
  3  4  1  0  0  0  0
  3  8  1  0  0  0  0
  4  5  2  0  0  0  0
  4 21  1  0  0  0  0
  5  6  1  0  0  0  0
  5  7  1  0  0  0  0
  6 22  1  0  0  0  0
  8  9  1  0  0  0  0
  8 23  1  0  0  0  0
  9 17  2  0  0  0  0
  9 10  1  0  0  0  0
 10 14  2  0  0  0  0
 10 11  1  0  0  0  0
 11 24  1  0  0  0  0
 11 29  2  0  0  0  0
 12 13  2  0  0  0  0
 12 18  1  0  0  0  0
 12 29  1  0  0  0  0
 13 14  1  0  0  0  0
 13 25  1  0  0  0  0
 14 15  1  0  0  0  0
 15 16  2  0  0  0  0
 16 17  1  0  0  0  0
 16 26  1  0  0  0  0
 18 27  1  0  0  0  0
 18 28  1  0  0  0  0
 29 30  1  0  0  0  0
M  CHG  1  29   1
M  END
$$$$
ZINC03815399
  -OEChem-08230709403D

 41 43  0     0  0  0  0  0  0999 V2000
    2.6418    0.1270    0.6033 C   0  0  0  0  0  0  0  0  0  0  0  0
    1.6731    0.5361    1.6827 C   0  0  0  0  0  0  0  0  0  0  0  0
    0.3867    0.9391    1.3465 C   0  0  0  0  0  0  0  0  0  0  0  0
   -0.5050    1.3099    2.3450 C   0  0  0  0  0  0  0  0  0  0  0  0
   -0.1090    1.2825    3.6680 C   0  0  0  0  0  0  0  0  0  0  0  0
    1.1735    0.8866    3.9995 C   0  0  0  0  0  0  0  0  0  0  0  0
    2.0648    0.5164    3.0075 C   0  0  0  0  0  0  0  0  0  0  0  0
    3.8176   -0.0249    3.4664 Br  0  0  0  0  0  0  0  0  0  0  0  0
   -0.0111    0.9658    0.0074 N   0  0  0  0  0  0  0  0  0  0  0  0
   -1.3232    1.2475   -0.3176 C   0  0  0  0  0  0  0  0  0  0  0  0
   -2.2648    0.2115   -0.5167 C   0  0  0  0  0  0  0  0  0  0  0  0
   -1.8946   -1.1359   -0.3910 C   0  0  0  0  0  0  0  0  0  0  0  0
   -2.8235   -2.1164   -0.5881 C   0  0  0  0  0  0  0  0  0  0  0  0
   -4.1470   -1.7902   -0.9166 C   0  0  0  0  0  0  0  0  0  0  0  0
   -4.5356   -0.4765   -1.0462 C   0  0  0  0  0  0  0  0  0  0  0  0
   -3.5989    0.5498   -0.8480 C   0  0  0  0  0  0  0  0  0  0  0  0
   -3.9591    1.8358   -0.9705 N   0  0  0  0  0  0  0  0  0  0  0  0
   -3.1087    2.8143   -0.7923 C   0  0  0  0  0  0  0  0  0  0  0  0
   -1.7674    2.5712   -0.4554 C   0  0  0  0  0  0  0  0  0  0  0  0
   -0.8611    3.6626   -0.2605 C   0  0  0  0  0  0  0  0  0  0  0  0
   -0.1421    4.5285   -0.1058 N   0  0  0  0  0  0  0  0  0  0  0  0
   -5.0554   -2.7818   -1.1094 O   0  0  0  0  0  0  0  0  0  0  0  0
   -6.3874   -2.3856   -1.4423 C   0  0  0  0  0  0  0  0  0  0  0  0
   -2.4619   -3.4215   -0.4652 O   0  0  0  0  0  0  0  0  0  0  0  0
   -1.0989   -3.6882   -0.1289 C   0  0  0  0  0  0  0  0  0  0  0  0
    3.2000    1.0004    0.2660 H   0  0  0  0  0  0  0  0  0  0  0  0
    3.3342   -0.6161    0.9990 H   0  0  0  0  0  0  0  0  0  0  0  0
    2.0920   -0.2991   -0.2359 H   0  0  0  0  0  0  0  0  0  0  0  0
   -1.5069    1.6197    2.0871 H   0  0  0  0  0  0  0  0  0  0  0  0
   -0.8020    1.5712    4.4445 H   0  0  0  0  0  0  0  0  0  0  0  0
    1.4803    0.8658    5.0348 H   0  0  0  0  0  0  0  0  0  0  0  0
    0.6354    0.7905   -0.6942 H   0  0  0  0  0  0  0  0  0  0  0  0
   -0.8774   -1.3967   -0.1386 H   0  0  0  0  0  0  0  0  0  0  0  0
   -5.5575   -0.2361   -1.2999 H   0  0  0  0  0  0  0  0  0  0  0  0
   -3.4479    3.8337   -0.9024 H   0  0  0  0  0  0  0  0  0  0  0  0
   -6.7937   -1.7679   -0.6413 H   0  0  0  0  0  0  0  0  0  0  0  0
   -6.3754   -1.8148   -2.3708 H   0  0  0  0  0  0  0  0  0  0  0  0
   -7.0092   -3.2719   -1.5686 H   0  0  0  0  0  0  0  0  0  0  0  0
   -0.4472   -3.2749   -0.8986 H   0  0  0  0  0  0  0  0  0  0  0  0
   -0.8648   -3.2278    0.8310 H   0  0  0  0  0  0  0  0  0  0  0  0
   -0.9451   -4.7652   -0.0624 H   0  0  0  0  0  0  0  0  0  0  0  0
  1  2  1  0  0  0  0
  1 26  1  0  0  0  0
  1 27  1  0  0  0  0
  1 28  1  0  0  0  0
  2  7  2  0  0  0  0
  2  3  1  0  0  0  0
  3  4  2  0  0  0  0
  3  9  1  0  0  0  0
  4  5  1  0  0  0  0
  4 29  1  0  0  0  0
  5  6  2  0  0  0  0
  5 30  1  0  0  0  0
  6  7  1  0  0  0  0
  6 31  1  0  0  0  0
  7  8  1  0  0  0  0
  9 10  1  0  0  0  0
  9 32  1  0  0  0  0
 10 19  2  0  0  0  0
 10 11  1  0  0  0  0
 11 16  2  0  0  0  0
 11 12  1  0  0  0  0
 12 13  2  0  0  0  0
 12 33  1  0  0  0  0
 13 14  1  0  0  0  0
 13 24  1  0  0  0  0
 14 15  2  0  0  0  0
 14 22  1  0  0  0  0
 15 16  1  0  0  0  0
 15 34  1  0  0  0  0
 16 17  1  0  0  0  0
 17 18  2  0  0  0  0
 18 19  1  0  0  0  0
 18 35  1  0  0  0  0
 19 20  1  0  0  0  0
 20 21  3  0  0  0  0
 22 23  1  0  0  0  0
 23 36  1  0  0  0  0
 23 37  1  0  0  0  0
 23 38  1  0  0  0  0
 24 25  1  0  0  0  0
 25 39  1  0  0  0  0
 25 40  1  0  0  0  0
 25 41  1  0  0  0  0
M  END
$$$$
ZINC03815401
  -OEChem-08230709403D

 46 48  0     0  0  0  0  0  0999 V2000
    3.9655    2.1808   -1.4074 C   0  0  0  0  0  0  0  0  0  0  0  0
    3.5505    1.2767   -2.4828 N   0  0  0  0  0  0  0  0  0  0  0  0
    4.2631    1.2851   -3.7627 C   0  0  0  0  0  0  0  0  0  0  0  0
    2.4754    0.4067   -2.2878 C   0  0  0  0  0  0  0  0  0  0  0  0
    2.0025   -0.3627   -3.3443 C   0  0  0  0  0  0  0  0  0  0  0  0
    0.9395   -1.2238   -3.1522 C   0  0  0  0  0  0  0  0  0  0  0  0
    0.3462   -1.3273   -1.9087 C   0  0  0  0  0  0  0  0  0  0  0  0
    0.8106   -0.5570   -0.8494 C   0  0  0  0  0  0  0  0  0  0  0  0
    1.8785    0.3092   -1.0390 C   0  0  0  0  0  0  0  0  0  0  0  0
    0.2069   -0.6587    0.4067 N   0  0  0  0  0  0  0  0  0  0  0  0
   -0.9364   -1.4167    0.5639 C   0  0  0  0  0  0  0  0  0  0  0  0
   -0.8625   -2.8059    0.8174 C   0  0  0  0  0  0  0  0  0  0  0  0
    0.3758   -3.4578    0.9176 C   0  0  0  0  0  0  0  0  0  0  0  0
    0.4188   -4.7997    1.1629 C   0  0  0  0  0  0  0  0  0  0  0  0
   -0.7648   -5.5356    1.3162 C   0  0  0  0  0  0  0  0  0  0  0  0
   -1.9919   -4.9184    1.2325 C   0  0  0  0  0  0  0  0  0  0  0  0
   -2.0623   -3.5403    0.9760 C   0  0  0  0  0  0  0  0  0  0  0  0
   -3.2495   -2.9243    0.8761 N   0  0  0  0  0  0  0  0  0  0  0  0
   -3.3473   -1.6415    0.6372 C   0  0  0  0  0  0  0  0  0  0  0  0
   -2.2098   -0.8350    0.4715 C   0  0  0  0  0  0  0  0  0  0  0  0
   -2.3481    0.5664    0.2114 C   0  0  0  0  0  0  0  0  0  0  0  0
   -2.4578    1.6781    0.0051 N   0  0  0  0  0  0  0  0  0  0  0  0
   -0.6993   -6.8706    1.5594 O   0  0  0  0  0  0  0  0  0  0  0  0
   -1.9397   -7.5649    1.7060 C   0  0  0  0  0  0  0  0  0  0  0  0
    1.6205   -5.4287    1.2599 O   0  0  0  0  0  0  0  0  0  0  0  0
    2.7894   -4.6235    1.0946 C   0  0  0  0  0  0  0  0  0  0  0  0
    4.7133    1.6876   -0.7863 H   0  0  0  0  0  0  0  0  0  0  0  0
    4.3915    3.0868   -1.8385 H   0  0  0  0  0  0  0  0  0  0  0  0
    3.1005    2.4408   -0.7972 H   0  0  0  0  0  0  0  0  0  0  0  0
    3.8014    0.5670   -4.4404 H   0  0  0  0  0  0  0  0  0  0  0  0
    4.2124    2.2821   -4.2003 H   0  0  0  0  0  0  0  0  0  0  0  0
    5.3058    1.0124   -3.5998 H   0  0  0  0  0  0  0  0  0  0  0  0
    2.4668   -0.2875   -4.3165 H   0  0  0  0  0  0  0  0  0  0  0  0
    0.5740   -1.8205   -3.9749 H   0  0  0  0  0  0  0  0  0  0  0  0
   -0.4818   -2.0047   -1.7607 H   0  0  0  0  0  0  0  0  0  0  0  0
    2.2443    0.9056   -0.2163 H   0  0  0  0  0  0  0  0  0  0  0  0
    0.5911   -0.1967    1.1682 H   0  0  0  0  0  0  0  0  0  0  0  0
    1.2927   -2.8990    0.8012 H   0  0  0  0  0  0  0  0  0  0  0  0
   -2.8976   -5.4944    1.3525 H   0  0  0  0  0  0  0  0  0  0  0  0
   -4.3268   -1.1921    0.5654 H   0  0  0  0  0  0  0  0  0  0  0  0
   -2.4963   -7.1418    2.5423 H   0  0  0  0  0  0  0  0  0  0  0  0
   -2.5239   -7.4622    0.7916 H   0  0  0  0  0  0  0  0  0  0  0  0
   -1.7449   -8.6204    1.8961 H   0  0  0  0  0  0  0  0  0  0  0  0
    2.7778   -4.1650    0.1058 H   0  0  0  0  0  0  0  0  0  0  0  0
    2.8044   -3.8441    1.8564 H   0  0  0  0  0  0  0  0  0  0  0  0
    3.6775   -5.2473    1.1954 H   0  0  0  0  0  0  0  0  0  0  0  0
  1  2  1  0  0  0  0
  1 27  1  0  0  0  0
  1 28  1  0  0  0  0
  1 29  1  0  0  0  0
  2  3  1  0  0  0  0
  2  4  1  0  0  0  0
  3 30  1  0  0  0  0
  3 31  1  0  0  0  0
  3 32  1  0  0  0  0
  4  9  2  0  0  0  0
  4  5  1  0  0  0  0
  5  6  2  0  0  0  0
  5 33  1  0  0  0  0
  6  7  1  0  0  0  0
  6 34  1  0  0  0  0
  7  8  2  0  0  0  0
  7 35  1  0  0  0  0
  8  9  1  0  0  0  0
  8 10  1  0  0  0  0
  9 36  1  0  0  0  0
 10 11  1  0  0  0  0
 10 37  1  0  0  0  0
 11 20  2  0  0  0  0
 11 12  1  0  0  0  0
 12 17  2  0  0  0  0
 12 13  1  0  0  0  0
 13 14  2  0  0  0  0
 13 38  1  0  0  0  0
 14 15  1  0  0  0  0
 14 25  1  0  0  0  0
 15 16  2  0  0  0  0
 15 23  1  0  0  0  0
 16 17  1  0  0  0  0
 16 39  1  0  0  0  0
 17 18  1  0  0  0  0
 18 19  2  0  0  0  0
 19 20  1  0  0  0  0
 19 40  1  0  0  0  0
 20 21  1  0  0  0  0
 21 22  3  0  0  0  0
 23 24  1  0  0  0  0
 24 41  1  0  0  0  0
 24 42  1  0  0  0  0
 24 43  1  0  0  0  0
 25 26  1  0  0  0  0
 26 44  1  0  0  0  0
 26 45  1  0  0  0  0
 26 46  1  0  0  0  0
M  END
$$$$
ZINC03815402
  -OEChem-08230709403D

 40 43  0     0  0  0  0  0  0999 V2000
   -5.1597   -2.4861    0.8196 C   0  0  0  0  0  0  0  0  0  0  0  0
   -3.8948   -1.8378    0.9674 O   0  0  0  0  0  0  0  0  0  0  0  0
   -3.7589   -0.6125    0.3957 C   0  0  0  0  0  0  0  0  0  0  0  0
   -4.8224   -0.0460   -0.2936 C   0  0  0  0  0  0  0  0  0  0  0  0
   -4.6860    1.1998   -0.8755 C   0  0  0  0  0  0  0  0  0  0  0  0
   -3.4912    1.8858   -0.7733 C   0  0  0  0  0  0  0  0  0  0  0  0
   -2.4234    1.3239   -0.0847 C   0  0  0  0  0  0  0  0  0  0  0  0
   -2.5569    0.0698    0.4956 C   0  0  0  0  0  0  0  0  0  0  0  0
   -1.2145    2.0178    0.0188 N   0  0  0  0  0  0  0  0  0  0  0  0
   -0.0155    1.3264   -0.0035 C   0  0  0  0  0  0  0  0  0  0  0  0
    1.2012    1.9900    0.2201 C   0  0  0  0  0  0  0  0  0  0  0  0
    1.5976    3.3610    0.5088 C   0  0  0  0  0  0  0  0  0  0  0  0
    2.9402    3.3716    0.6204 C   0  0  0  0  0  0  0  0  0  0  0  0
    3.4253    2.1071    0.4235 N   0  0  0  0  0  0  0  0  0  0  0  0
    4.3629    1.8605    0.4529 H   0  0  0  0  0  0  0  0  0  0  0  0
    2.3936    1.2411    0.1789 C   0  0  0  0  0  0  0  0  0  0  0  0
    2.3171   -0.0652   -0.0691 N   0  0  0  0  0  0  0  0  0  0  0  0
    1.1538   -0.6446   -0.2715 C   0  0  0  0  0  0  0  0  0  0  0  0
    0.0120    0.0189   -0.2428 N   0  0  0  0  0  0  0  0  0  0  0  0
    3.7466    4.6144    0.9182 C   0  0  0  0  0  0  0  0  0  0  0  0
    2.8695    5.8415    0.6455 C   0  0  0  0  0  0  0  0  0  0  0  0
    1.5239    5.6763    1.3577 C   0  0  0  0  0  0  0  0  0  0  0  0
    0.7154    4.5727    0.6645 C   0  0  0  0  0  0  0  0  0  0  0  0
   -5.1330   -3.4534    1.3214 H   0  0  0  0  0  0  0  0  0  0  0  0
   -5.9391   -1.8674    1.2643 H   0  0  0  0  0  0  0  0  0  0  0  0
   -5.3716   -2.6319   -0.2396 H   0  0  0  0  0  0  0  0  0  0  0  0
   -5.7576   -0.5799   -0.3755 H   0  0  0  0  0  0  0  0  0  0  0  0
   -5.5149    1.6380   -1.4115 H   0  0  0  0  0  0  0  0  0  0  0  0
   -3.3873    2.8596   -1.2287 H   0  0  0  0  0  0  0  0  0  0  0  0
   -1.7269   -0.3715    1.0274 H   0  0  0  0  0  0  0  0  0  0  0  0
   -1.2157    2.9838    0.1063 H   0  0  0  0  0  0  0  0  0  0  0  0
    1.1312   -1.7062   -0.4687 H   0  0  0  0  0  0  0  0  0  0  0  0
    4.0548    4.6091    1.9637 H   0  0  0  0  0  0  0  0  0  0  0  0
    4.6259    4.6432    0.2747 H   0  0  0  0  0  0  0  0  0  0  0  0
    2.7031    5.9382   -0.4274 H   0  0  0  0  0  0  0  0  0  0  0  0
    3.3700    6.7355    1.0175 H   0  0  0  0  0  0  0  0  0  0  0  0
    0.9712    6.6147    1.3134 H   0  0  0  0  0  0  0  0  0  0  0  0
    1.6941    5.4031    2.3991 H   0  0  0  0  0  0  0  0  0  0  0  0
    0.3907    4.9180   -0.3170 H   0  0  0  0  0  0  0  0  0  0  0  0
   -0.1528    4.3180    1.2722 H   0  0  0  0  0  0  0  0  0  0  0  0
  1  2  1  0  0  0  0
  1 24  1  0  0  0  0
  1 25  1  0  0  0  0
  1 26  1  0  0  0  0
  2  3  1  0  0  0  0
  3  8  2  0  0  0  0
  3  4  1  0  0  0  0
  4  5  2  0  0  0  0
  4 27  1  0  0  0  0
  5  6  1  0  0  0  0
  5 28  1  0  0  0  0
  6  7  2  0  0  0  0
  6 29  1  0  0  0  0
  7  8  1  0  0  0  0
  7  9  1  0  0  0  0
  8 30  1  0  0  0  0
  9 10  1  0  0  0  0
  9 31  1  0  0  0  0
 10 19  2  0  0  0  0
 10 11  1  0  0  0  0
 11 16  2  0  0  0  0
 11 12  1  0  0  0  0
 12 23  1  0  0  0  0
 12 13  2  0  0  0  0
 13 14  1  0  0  0  0
 13 20  1  0  0  0  0
 14 15  1  0  0  0  0
 14 16  1  0  0  0  0
 16 17  1  0  0  0  0
 17 18  2  0  0  0  0
 18 19  1  0  0  0  0
 18 32  1  0  0  0  0
 20 21  1  0  0  0  0
 20 33  1  0  0  0  0
 20 34  1  0  0  0  0
 21 22  1  0  0  0  0
 21 35  1  0  0  0  0
 21 36  1  0  0  0  0
 22 23  1  0  0  0  0
 22 37  1  0  0  0  0
 22 38  1  0  0  0  0
 23 39  1  0  0  0  0
 23 40  1  0  0  0  0
M  END
$$$$
ZINC03815403
  -OEChem-08230709403D

 40 43  0     0  0  0  0  0  0999 V2000
    0.0273    1.4526    0.0108 C   0  0  0  0  0  0  0  0  0  0  0  0
    1.2195    2.1520   -0.0116 C   0  0  0  0  0  0  0  0  0  0  0  0
    2.4212    1.4692   -0.0282 C   0  0  0  0  0  0  0  0  0  0  0  0
    2.4309    0.0869   -0.0214 C   0  0  0  0  0  0  0  0  0  0  0  0
    1.2388   -0.6126    0.0015 C   0  0  0  0  0  0  0  0  0  0  0  0
    0.0370    0.0703    0.0176 C   0  0  0  0  0  0  0  0  0  0  0  0
    3.7411   -0.6576   -0.0395 C   0  0  0  0  0  0  0  0  0  0  0  0
    4.1429   -0.9053   -1.4263 N   0  0  0  0  0  0  0  0  0  0  0  0
    5.3193   -1.5773   -1.6950 C   0  0  0  0  0  0  0  0  0  0  0  0
    5.7214   -1.8244   -3.0183 C   0  0  0  0  0  0  0  0  0  0  0  0
    6.9302   -2.5141   -3.2362 C   0  0  0  0  0  0  0  0  0  0  0  0
    7.0847   -2.6214   -4.5850 N   0  0  0  0  0  0  0  0  0  0  0  0
    7.8537   -3.0649   -5.0453 H   0  0  0  0  0  0  0  0  0  0  0  0
    5.9996   -2.0143   -5.2261 N   0  0  0  0  0  0  0  0  0  0  0  0
    5.1701   -1.5302   -4.3375 C   0  0  0  0  0  0  0  0  0  0  0  0
    3.9762   -0.8558   -4.6027 N   0  0  0  0  0  0  0  0  0  0  0  0
    3.6290   -0.5413   -5.9187 C   0  0  0  0  0  0  0  0  0  0  0  0
    2.2941   -0.3690   -6.2645 C   0  0  0  0  0  0  0  0  0  0  0  0
    1.9538   -0.0576   -7.5660 C   0  0  0  0  0  0  0  0  0  0  0  0
    2.9396    0.0834   -8.5256 C   0  0  0  0  0  0  0  0  0  0  0  0
    4.2702   -0.0869   -8.1852 C   0  0  0  0  0  0  0  0  0  0  0  0
    4.6177   -0.3944   -6.8831 C   0  0  0  0  0  0  0  0  0  0  0  0
    5.5041    0.0912   -9.3933 Cl  0  0  0  0  0  0  0  0  0  0  0  0
    7.6431   -2.9037   -2.1793 N   0  0  0  0  0  0  0  0  0  0  0  0
    7.2265   -2.6495   -0.9585 C   0  0  0  0  0  0  0  0  0  0  0  0
    6.1022   -2.0017   -0.7079 N   0  0  0  0  0  0  0  0  0  0  0  0
   -0.9117    1.9861    0.0185 H   0  0  0  0  0  0  0  0  0  0  0  0
    1.2119    3.2320   -0.0169 H   0  0  0  0  0  0  0  0  0  0  0  0
    3.3526    2.0156   -0.0465 H   0  0  0  0  0  0  0  0  0  0  0  0
    1.2464   -1.6925    0.0065 H   0  0  0  0  0  0  0  0  0  0  0  0
   -0.8944   -0.4761    0.0352 H   0  0  0  0  0  0  0  0  0  0  0  0
    4.5050   -0.0608    0.4590 H   0  0  0  0  0  0  0  0  0  0  0  0
    3.6259   -1.6084    0.4808 H   0  0  0  0  0  0  0  0  0  0  0  0
    3.5827   -0.5974   -2.1560 H   0  0  0  0  0  0  0  0  0  0  0  0
    3.3880   -0.6058   -3.8730 H   0  0  0  0  0  0  0  0  0  0  0  0
    1.5235   -0.4789   -5.5159 H   0  0  0  0  0  0  0  0  0  0  0  0
    0.9164    0.0763   -7.8348 H   0  0  0  0  0  0  0  0  0  0  0  0
    2.6706    0.3273   -9.5427 H   0  0  0  0  0  0  0  0  0  0  0  0
    5.6563   -0.5236   -6.6167 H   0  0  0  0  0  0  0  0  0  0  0  0
    7.8299   -2.9802   -0.1261 H   0  0  0  0  0  0  0  0  0  0  0  0
  1  6  2  0  0  0  0
  1  2  1  0  0  0  0
  1 27  1  0  0  0  0
  2  3  2  0  0  0  0
  2 28  1  0  0  0  0
  3  4  1  0  0  0  0
  3 29  1  0  0  0  0
  4  5  2  0  0  0  0
  4  7  1  0  0  0  0
  5  6  1  0  0  0  0
  5 30  1  0  0  0  0
  6 31  1  0  0  0  0
  7  8  1  0  0  0  0
  7 32  1  0  0  0  0
  7 33  1  0  0  0  0
  8  9  1  0  0  0  0
  8 34  1  0  0  0  0
  9 26  2  0  0  0  0
  9 10  1  0  0  0  0
 10 15  1  0  0  0  0
 10 11  2  0  0  0  0
 11 12  1  0  0  0  0
 11 24  1  0  0  0  0
 12 13  1  0  0  0  0
 12 14  1  0  0  0  0
 14 15  2  0  0  0  0
 15 16  1  0  0  0  0
 16 17  1  0  0  0  0
 16 35  1  0  0  0  0
 17 22  2  0  0  0  0
 17 18  1  0  0  0  0
 18 19  2  0  0  0  0
 18 36  1  0  0  0  0
 19 20  1  0  0  0  0
 19 37  1  0  0  0  0
 20 21  2  0  0  0  0
 20 38  1  0  0  0  0
 21 22  1  0  0  0  0
 21 23  1  0  0  0  0
 22 39  1  0  0  0  0
 24 25  2  0  0  0  0
 25 26  1  0  0  0  0
 25 40  1  0  0  0  0
M  END
$$$$
ZINC03815403
  -OEChem-08230709403D

 40 43  0     0  0  0  0  0  0999 V2000
    0.0273    1.4526    0.0108 C   0  0  0  0  0  0  0  0  0  0  0  0
    1.2195    2.1520   -0.0116 C   0  0  0  0  0  0  0  0  0  0  0  0
    2.4212    1.4692   -0.0282 C   0  0  0  0  0  0  0  0  0  0  0  0
    2.4309    0.0869   -0.0214 C   0  0  0  0  0  0  0  0  0  0  0  0
    1.2388   -0.6126    0.0015 C   0  0  0  0  0  0  0  0  0  0  0  0
    0.0370    0.0703    0.0176 C   0  0  0  0  0  0  0  0  0  0  0  0
    3.7411   -0.6576   -0.0395 C   0  0  0  0  0  0  0  0  0  0  0  0
    4.1429   -0.9053   -1.4263 N   0  0  0  0  0  0  0  0  0  0  0  0
    5.3193   -1.5773   -1.6950 C   0  0  0  0  0  0  0  0  0  0  0  0
    5.7214   -1.8244   -3.0183 C   0  0  0  0  0  0  0  0  0  0  0  0
    6.9302   -2.5141   -3.2362 C   0  0  0  0  0  0  0  0  0  0  0  0
    7.0847   -2.6214   -4.5850 N   0  0  0  0  0  0  0  0  0  0  0  0
    7.8537   -3.0649   -5.0453 H   0  0  0  0  0  0  0  0  0  0  0  0
    5.9996   -2.0143   -5.2261 N   0  0  0  0  0  0  0  0  0  0  0  0
    5.1701   -1.5302   -4.3375 C   0  0  0  0  0  0  0  0  0  0  0  0
    3.9762   -0.8558   -4.6027 N   0  0  0  0  0  0  0  0  0  0  0  0
    3.6290   -0.5413   -5.9187 C   0  0  0  0  0  0  0  0  0  0  0  0
    2.2941   -0.3690   -6.2645 C   0  0  0  0  0  0  0  0  0  0  0  0
    1.9538   -0.0576   -7.5660 C   0  0  0  0  0  0  0  0  0  0  0  0
    2.9396    0.0834   -8.5256 C   0  0  0  0  0  0  0  0  0  0  0  0
    4.2702   -0.0869   -8.1852 C   0  0  0  0  0  0  0  0  0  0  0  0
    4.6177   -0.3944   -6.8831 C   0  0  0  0  0  0  0  0  0  0  0  0
    5.5041    0.0912   -9.3933 Cl  0  0  0  0  0  0  0  0  0  0  0  0
    7.6431   -2.9037   -2.1793 N   0  0  0  0  0  0  0  0  0  0  0  0
    7.2265   -2.6495   -0.9585 C   0  0  0  0  0  0  0  0  0  0  0  0
    6.1022   -2.0017   -0.7079 N   0  0  0  0  0  0  0  0  0  0  0  0
   -0.9117    1.9861    0.0185 H   0  0  0  0  0  0  0  0  0  0  0  0
    1.2119    3.2320   -0.0169 H   0  0  0  0  0  0  0  0  0  0  0  0
    3.3526    2.0156   -0.0465 H   0  0  0  0  0  0  0  0  0  0  0  0
    1.2464   -1.6925    0.0065 H   0  0  0  0  0  0  0  0  0  0  0  0
   -0.8944   -0.4761    0.0352 H   0  0  0  0  0  0  0  0  0  0  0  0
    4.5050   -0.0608    0.4590 H   0  0  0  0  0  0  0  0  0  0  0  0
    3.6259   -1.6084    0.4808 H   0  0  0  0  0  0  0  0  0  0  0  0
    3.5827   -0.5974   -2.1560 H   0  0  0  0  0  0  0  0  0  0  0  0
    3.3880   -0.6058   -3.8730 H   0  0  0  0  0  0  0  0  0  0  0  0
    1.5235   -0.4789   -5.5159 H   0  0  0  0  0  0  0  0  0  0  0  0
    0.9164    0.0763   -7.8348 H   0  0  0  0  0  0  0  0  0  0  0  0
    2.6706    0.3273   -9.5427 H   0  0  0  0  0  0  0  0  0  0  0  0
    5.6563   -0.5236   -6.6167 H   0  0  0  0  0  0  0  0  0  0  0  0
    7.8299   -2.9802   -0.1261 H   0  0  0  0  0  0  0  0  0  0  0  0
  1  6  2  0  0  0  0
  1  2  1  0  0  0  0
  1 27  1  0  0  0  0
  2  3  2  0  0  0  0
  2 28  1  0  0  0  0
  3  4  1  0  0  0  0
  3 29  1  0  0  0  0
  4  5  2  0  0  0  0
  4  7  1  0  0  0  0
  5  6  1  0  0  0  0
  5 30  1  0  0  0  0
  6 31  1  0  0  0  0
  7  8  1  0  0  0  0
  7 32  1  0  0  0  0
  7 33  1  0  0  0  0
  8  9  1  0  0  0  0
  8 34  1  0  0  0  0
  9 26  2  0  0  0  0
  9 10  1  0  0  0  0
 10 15  1  0  0  0  0
 10 11  2  0  0  0  0
 11 12  1  0  0  0  0
 11 24  1  0  0  0  0
 12 13  1  0  0  0  0
 12 14  1  0  0  0  0
 14 15  2  0  0  0  0
 15 16  1  0  0  0  0
 16 17  1  0  0  0  0
 16 35  1  0  0  0  0
 17 22  2  0  0  0  0
 17 18  1  0  0  0  0
 18 19  2  0  0  0  0
 18 36  1  0  0  0  0
 19 20  1  0  0  0  0
 19 37  1  0  0  0  0
 20 21  2  0  0  0  0
 20 38  1  0  0  0  0
 21 22  1  0  0  0  0
 21 23  1  0  0  0  0
 22 39  1  0  0  0  0
 24 25  2  0  0  0  0
 25 26  1  0  0  0  0
 25 40  1  0  0  0  0
M  END
$$$$
ZINC03815404
  -OEChem-08230709403D

 40 42  0     0  0  0  0  0  0999 V2000
   -2.2266    9.2490    1.4889 C   0  0  0  0  0  0  0  0  0  0  0  0
   -0.9871    9.9540    1.5820 O   0  0  0  0  0  0  0  0  0  0  0  0
    0.1400    9.2668    1.2553 C   0  0  0  0  0  0  0  0  0  0  0  0
    0.0468    7.9631    0.8609 C   0  0  0  0  0  0  0  0  0  0  0  0
    1.2075    7.2517    0.5233 C   0  0  0  0  0  0  0  0  0  0  0  0
    2.4716    7.8854    0.5978 C   0  0  0  0  0  0  0  0  0  0  0  0
    2.5419    9.2244    1.0116 C   0  0  0  0  0  0  0  0  0  0  0  0
    1.3867    9.9034    1.3269 C   0  0  0  0  0  0  0  0  0  0  0  0
    1.4568   11.2012    1.7222 O   0  0  0  0  0  0  0  0  0  0  0  0
    2.7560   11.7941    1.7750 C   0  0  0  0  0  0  0  0  0  0  0  0
    3.5847    7.2129    0.2699 N   0  0  0  0  0  0  0  0  0  0  0  0
    3.5510    5.9643   -0.1203 C   0  0  0  0  0  0  0  0  0  0  0  0
    2.3424    5.2561   -0.2178 C   0  0  0  0  0  0  0  0  0  0  0  0
    1.1403    5.9008    0.1106 C   0  0  0  0  0  0  0  0  0  0  0  0
   -0.0691    5.2397    0.0281 N   0  0  0  0  0  0  0  0  0  0  0  0
   -0.8370    5.3307   -1.1357 C   0  0  0  0  0  0  0  0  0  0  0  0
   -0.4503    6.1861   -2.1600 C   0  0  0  0  0  0  0  0  0  0  0  0
   -1.2117    6.2739   -3.3085 C   0  0  0  0  0  0  0  0  0  0  0  0
   -2.3585    5.5118   -3.4398 C   0  0  0  0  0  0  0  0  0  0  0  0
   -2.7491    4.6635   -2.4202 C   0  0  0  0  0  0  0  0  0  0  0  0
   -1.9890    4.5665   -1.2710 C   0  0  0  0  0  0  0  0  0  0  0  0
   -3.9804    3.8544   -2.5625 N   0  3  0  0  0  0  0  0  0  0  0  0
   -4.6489    3.9363   -3.5774 O   0  0  0  0  0  0  0  0  0  0  0  0
   -4.3252    3.1069   -1.6648 O   0  5  0  0  0  0  0  0  0  0  0  0
    2.3369    3.8901   -0.6475 C   0  0  0  0  0  0  0  0  0  0  0  0
    2.3326    2.8064   -0.9883 N   0  0  0  0  0  0  0  0  0  0  0  0
   -2.3764    8.9113    0.4634 H   0  0  0  0  0  0  0  0  0  0  0  0
   -2.2054    8.3872    2.1559 H   0  0  0  0  0  0  0  0  0  0  0  0
   -3.0435    9.9109    1.7765 H   0  0  0  0  0  0  0  0  0  0  0  0
   -0.9180    7.4807    0.8094 H   0  0  0  0  0  0  0  0  0  0  0  0
    3.4975    9.7241    1.0701 H   0  0  0  0  0  0  0  0  0  0  0  0
    3.2092   11.7649    0.7842 H   0  0  0  0  0  0  0  0  0  0  0  0
    2.6698   12.8294    2.1047 H   0  0  0  0  0  0  0  0  0  0  0  0
    3.3799   11.2402    2.4765 H   0  0  0  0  0  0  0  0  0  0  0  0
    4.4753    5.4665   -0.3738 H   0  0  0  0  0  0  0  0  0  0  0  0
   -0.3856    4.7121    0.7780 H   0  0  0  0  0  0  0  0  0  0  0  0
    0.4451    6.7814   -2.0582 H   0  0  0  0  0  0  0  0  0  0  0  0
   -0.9117    6.9385   -4.1051 H   0  0  0  0  0  0  0  0  0  0  0  0
   -2.9526    5.5829   -4.3388 H   0  0  0  0  0  0  0  0  0  0  0  0
   -2.2924    3.9006   -0.4767 H   0  0  0  0  0  0  0  0  0  0  0  0
  1  2  1  0  0  0  0
  1 27  1  0  0  0  0
  1 28  1  0  0  0  0
  1 29  1  0  0  0  0
  2  3  1  0  0  0  0
  3  8  2  0  0  0  0
  3  4  1  0  0  0  0
  4  5  2  0  0  0  0
  4 30  1  0  0  0  0
  5 14  1  0  0  0  0
  5  6  1  0  0  0  0
  6  7  2  0  0  0  0
  6 11  1  0  0  0  0
  7  8  1  0  0  0  0
  7 31  1  0  0  0  0
  8  9  1  0  0  0  0
  9 10  1  0  0  0  0
 10 32  1  0  0  0  0
 10 33  1  0  0  0  0
 10 34  1  0  0  0  0
 11 12  2  0  0  0  0
 12 13  1  0  0  0  0
 12 35  1  0  0  0  0
 13 14  2  0  0  0  0
 13 25  1  0  0  0  0
 14 15  1  0  0  0  0
 15 16  1  0  0  0  0
 15 36  1  0  0  0  0
 16 21  2  0  0  0  0
 16 17  1  0  0  0  0
 17 18  2  0  0  0  0
 17 37  1  0  0  0  0
 18 19  1  0  0  0  0
 18 38  1  0  0  0  0
 19 20  2  0  0  0  0
 19 39  1  0  0  0  0
 20 21  1  0  0  0  0
 20 22  1  0  0  0  0
 21 40  1  0  0  0  0
 22 23  2  0  0  0  0
 22 24  1  0  0  0  0
 25 26  3  0  0  0  0
M  CHG  2  22   1  24  -1
M  END
$$$$
ZINC03815405
  -OEChem-08230709403D

 77 81  0     0  0  0  0  0  0999 V2000
  -14.8245    1.7607   -9.8470 C   0  0  0  0  0  0  0  0  0  0  0  0
  -12.7907    2.2967  -11.0476 C   0  0  0  0  0  0  0  0  0  0  0  0
  -11.3785    1.8007  -11.3673 C   0  0  0  0  0  0  0  0  0  0  0  0
  -11.2569    0.7451   -9.1926 C   0  0  0  0  0  0  0  0  0  0  0  0
  -12.6690    1.2410   -8.8728 C   0  0  0  0  0  0  0  0  0  0  0  0
   -9.2231    1.2811  -10.3931 C   0  0  0  0  0  0  0  0  0  0  0  0
   -8.3939    1.4096   -9.1137 C   0  0  0  0  0  0  0  0  0  0  0  0
   -6.9499    0.9911   -9.3976 C   0  0  0  0  0  0  0  0  0  0  0  0
   -6.1560    1.1141   -8.1726 N   0  0  0  0  0  0  0  0  0  0  0  0
   -4.8127    0.7894   -8.1842 C   0  0  0  0  0  0  0  0  0  0  0  0
   -4.2678    0.3681   -9.3234 N   0  0  0  0  0  0  0  0  0  0  0  0
   -2.9927    0.0437   -9.3956 C   0  0  0  0  0  0  0  0  0  0  0  0
   -2.2066    0.1520   -8.2356 C   0  0  0  0  0  0  0  0  0  0  0  0
   -0.8406   -0.1747   -8.2316 C   0  0  0  0  0  0  0  0  0  0  0  0
   -0.1435   -0.0380   -7.0419 C   0  0  0  0  0  0  0  0  0  0  0  0
   -0.8194    0.4184   -5.8902 C   0  0  0  0  0  0  0  0  0  0  0  0
   -2.1029    0.7136   -5.9178 N   0  0  0  0  0  0  0  0  0  0  0  0
   -2.8197    0.6050   -7.0381 C   0  0  0  0  0  0  0  0  0  0  0  0
   -4.1231    0.9102   -7.0658 N   0  0  0  0  0  0  0  0  0  0  0  0
   -0.1177    0.5539   -4.7009 N   0  0  0  0  0  0  0  0  0  0  0  0
   -0.7486    0.9886   -3.5921 C   0  0  0  0  0  0  0  0  0  0  0  0
   -1.9324    1.2619   -3.6339 O   0  0  0  0  0  0  0  0  0  0  0  0
   -0.0670    1.1202   -2.4368 N   0  0  0  0  0  0  0  0  0  0  0  0
   -0.7527    1.5927   -1.2315 C   0  0  0  0  0  0  0  0  0  0  0  0
   -0.0127    1.0858    0.0080 C   0  0  0  0  0  0  0  0  0  0  0  0
   -0.7288    1.5792    1.2668 C   0  0  0  0  0  0  0  0  0  0  0  0
   -0.7496    3.1091    1.2752 C   0  0  0  0  0  0  0  0  0  0  0  0
   -1.4896    3.6159    0.0357 C   0  0  0  0  0  0  0  0  0  0  0  0
   -0.7734    3.1225   -1.2231 C   0  0  0  0  0  0  0  0  0  0  0  0
    1.3006   -0.3680   -6.9795 C   0  0  0  0  0  0  0  0  0  0  0  0
    1.7101   -1.6609   -6.6533 C   0  0  0  0  0  0  0  0  0  0  0  0
    3.0570   -1.9630   -6.6011 C   0  0  0  0  0  0  0  0  0  0  0  0
    3.9989   -0.9844   -6.8620 C   0  0  0  0  0  0  0  0  0  0  0  0
    3.5994    0.3009   -7.1809 C   0  0  0  0  0  0  0  0  0  0  0  0
    2.2555    0.6146   -7.2411 C   0  0  0  0  0  0  0  0  0  0  0  0
    1.7560    2.2284   -7.6410 Cl  0  0  0  0  0  0  0  0  0  0  0  0
    0.5295   -2.8889   -6.3190 Cl  0  0  0  0  0  0  0  0  0  0  0  0
  -15.3886    1.7750  -10.7795 H   0  0  0  0  0  0  0  0  0  0  0  0
  -15.2799    1.0497   -9.1577 H   0  0  0  0  0  0  0  0  0  0  0  0
  -14.8336    2.7554   -9.4015 H   0  0  0  0  0  0  0  0  0  0  0  0
  -12.7342    3.2831  -10.5872 H   0  0  0  0  0  0  0  0  0  0  0  0
  -13.3718    2.3576  -11.9678 H   0  0  0  0  0  0  0  0  0  0  0  0
  -10.8860    2.5099  -12.0327 H   0  0  0  0  0  0  0  0  0  0  0  0
  -11.4364    0.8263  -11.8524 H   0  0  0  0  0  0  0  0  0  0  0  0
  -11.3134   -0.2413   -9.6529 H   0  0  0  0  0  0  0  0  0  0  0  0
  -10.6757    0.6846   -8.2724 H   0  0  0  0  0  0  0  0  0  0  0  0
  -12.6112    2.2154   -8.3878 H   0  0  0  0  0  0  0  0  0  0  0  0
  -13.1617    0.5322   -8.2073 H   0  0  0  0  0  0  0  0  0  0  0  0
   -8.8029    1.9262  -11.1648 H   0  0  0  0  0  0  0  0  0  0  0  0
   -9.2053    0.2463  -10.7353 H   0  0  0  0  0  0  0  0  0  0  0  0
   -8.8141    0.7645   -8.3421 H   0  0  0  0  0  0  0  0  0  0  0  0
   -8.4118    2.4443   -8.7716 H   0  0  0  0  0  0  0  0  0  0  0  0
   -6.5297    1.6362  -10.1693 H   0  0  0  0  0  0  0  0  0  0  0  0
   -6.9321   -0.0437   -9.7398 H   0  0  0  0  0  0  0  0  0  0  0  0
   -6.5731    1.4235   -7.3533 H   0  0  0  0  0  0  0  0  0  0  0  0
   -2.5613   -0.2969  -10.3253 H   0  0  0  0  0  0  0  0  0  0  0  0
   -0.3486   -0.5215   -9.1284 H   0  0  0  0  0  0  0  0  0  0  0  0
    0.8268    0.3358   -4.6676 H   0  0  0  0  0  0  0  0  0  0  0  0
    0.8776    0.9021   -2.4035 H   0  0  0  0  0  0  0  0  0  0  0  0
   -1.7753    1.2154   -1.2238 H   0  0  0  0  0  0  0  0  0  0  0  0
    0.0021   -0.0041    0.0020 H   0  0  0  0  0  0  0  0  0  0  0  0
    1.0099    1.4631    0.0003 H   0  0  0  0  0  0  0  0  0  0  0  0
   -1.7514    1.2020    1.2746 H   0  0  0  0  0  0  0  0  0  0  0  0
   -0.2017    1.2182    2.1499 H   0  0  0  0  0  0  0  0  0  0  0  0
    0.2730    3.4864    1.2675 H   0  0  0  0  0  0  0  0  0  0  0  0
   -1.2598    3.4606    2.1720 H   0  0  0  0  0  0  0  0  0  0  0  0
   -1.5044    4.7058    0.0417 H   0  0  0  0  0  0  0  0  0  0  0  0
   -2.5122    3.2386    0.0434 H   0  0  0  0  0  0  0  0  0  0  0  0
    0.2491    3.4998   -1.2308 H   0  0  0  0  0  0  0  0  0  0  0  0
   -1.3006    3.4836   -2.1062 H   0  0  0  0  0  0  0  0  0  0  0  0
    3.3753   -2.9647   -6.3526 H   0  0  0  0  0  0  0  0  0  0  0  0
    5.0508   -1.2247   -6.8162 H   0  0  0  0  0  0  0  0  0  0  0  0
    4.3397    1.0608   -7.3829 H   0  0  0  0  0  0  0  0  0  0  0  0
  -13.4379    1.3338  -10.1319 N   0  3  0  0  0  0  0  0  0  0  0  0
  -13.4585    0.4099  -10.5793 H   0  0  0  0  0  0  0  0  0  0  0  0
  -10.6097    1.7081  -10.1085 N   0  3  0  0  0  0  0  0  0  0  0  0
  -10.5891    2.6321   -9.6612 H   0  0  0  0  0  0  0  0  0  0  0  0
  1 38  1  0  0  0  0
  1 39  1  0  0  0  0
  1 40  1  0  0  0  0
  1 74  1  0  0  0  0
  2  3  1  0  0  0  0
  2 41  1  0  0  0  0
  2 42  1  0  0  0  0
  2 74  1  0  0  0  0
  3 43  1  0  0  0  0
  3 44  1  0  0  0  0
  3 76  1  0  0  0  0
  4  5  1  0  0  0  0
  4 45  1  0  0  0  0
  4 46  1  0  0  0  0
  4 76  1  0  0  0  0
  5 47  1  0  0  0  0
  5 48  1  0  0  0  0
  5 74  1  0  0  0  0
  6  7  1  0  0  0  0
  6 49  1  0  0  0  0
  6 50  1  0  0  0  0
  6 76  1  0  0  0  0
  7  8  1  0  0  0  0
  7 51  1  0  0  0  0
  7 52  1  0  0  0  0
  8  9  1  0  0  0  0
  8 53  1  0  0  0  0
  8 54  1  0  0  0  0
  9 10  1  0  0  0  0
  9 55  1  0  0  0  0
 10 19  2  0  0  0  0
 10 11  1  0  0  0  0
 11 12  2  0  0  0  0
 12 13  1  0  0  0  0
 12 56  1  0  0  0  0
 13 18  2  0  0  0  0
 13 14  1  0  0  0  0
 14 15  2  0  0  0  0
 14 57  1  0  0  0  0
 15 16  1  0  0  0  0
 15 30  1  0  0  0  0
 16 17  2  0  0  0  0
 16 20  1  0  0  0  0
 17 18  1  0  0  0  0
 18 19  1  0  0  0  0
 20 21  1  0  0  0  0
 20 58  1  0  0  0  0
 21 22  2  0  0  0  0
 21 23  1  0  0  0  0
 23 24  1  0  0  0  0
 23 59  1  0  0  0  0
 24 29  1  0  0  0  0
 24 25  1  0  0  0  0
 24 60  1  0  0  0  0
 25 26  1  0  0  0  0
 25 61  1  0  0  0  0
 25 62  1  0  0  0  0
 26 27  1  0  0  0  0
 26 63  1  0  0  0  0
 26 64  1  0  0  0  0
 27 28  1  0  0  0  0
 27 65  1  0  0  0  0
 27 66  1  0  0  0  0
 28 29  1  0  0  0  0
 28 67  1  0  0  0  0
 28 68  1  0  0  0  0
 29 69  1  0  0  0  0
 29 70  1  0  0  0  0
 30 35  2  0  0  0  0
 30 31  1  0  0  0  0
 31 32  2  0  0  0  0
 31 37  1  0  0  0  0
 32 33  1  0  0  0  0
 32 71  1  0  0  0  0
 33 34  2  0  0  0  0
 33 72  1  0  0  0  0
 34 35  1  0  0  0  0
 34 73  1  0  0  0  0
 35 36  1  0  0  0  0
 74 75  1  0  0  0  0
 76 77  1  0  0  0  0
M  CHG  2  74   1  76   1
M  END
$$$$
ZINC03815406
  -OEChem-08230709403D

 30 32  0     0  0  0  0  0  0999 V2000
   -5.1554   -2.8528   -0.2558 C   0  0  0  0  0  0  0  0  0  0  0  0
   -3.9346   -2.2166   -0.3696 C   0  0  0  0  0  0  0  0  0  0  0  0
   -3.7714   -0.9338    0.1374 C   0  0  0  0  0  0  0  0  0  0  0  0
   -4.8357   -0.2965    0.7624 C   0  0  0  0  0  0  0  0  0  0  0  0
   -6.0557   -0.9364    0.8688 C   0  0  0  0  0  0  0  0  0  0  0  0
   -6.2146   -2.2144    0.3620 C   0  0  0  0  0  0  0  0  0  0  0  0
   -7.5074   -0.0680    1.7140 Br  0  0  0  0  0  0  0  0  0  0  0  0
   -2.5370   -0.2878    0.0241 N   0  0  0  0  0  0  0  0  0  0  0  0
   -2.4871    1.0822   -0.1299 C   0  0  0  0  0  0  0  0  0  0  0  0
   -1.2487    1.7697   -0.1305 C   0  0  0  0  0  0  0  0  0  0  0  0
   -0.0286    1.1052    0.0355 C   0  0  0  0  0  0  0  0  0  0  0  0
    1.1322    1.8213    0.0322 C   0  0  0  0  0  0  0  0  0  0  0  0
    1.1186    3.2040   -0.1282 C   0  0  0  0  0  0  0  0  0  0  0  0
   -0.0537    3.8815   -0.2864 C   0  0  0  0  0  0  0  0  0  0  0  0
   -1.2652    3.1770   -0.2879 C   0  0  0  0  0  0  0  0  0  0  0  0
   -2.4462    3.7948   -0.4397 N   0  0  0  0  0  0  0  0  0  0  0  0
   -3.5625    3.1057   -0.4365 C   0  0  0  0  0  0  0  0  0  0  0  0
   -3.5970    1.7911   -0.2874 N   0  0  0  0  0  0  0  0  0  0  0  0
    2.3970    3.9502   -0.1275 N   0  3  0  0  0  0  0  0  0  0  0  0
    3.4499    3.3542    0.0128 O   0  0  0  0  0  0  0  0  0  0  0  0
    2.3960    5.1601   -0.2671 O   0  5  0  0  0  0  0  0  0  0  0  0
   -5.2824   -3.8504   -0.6496 H   0  0  0  0  0  0  0  0  0  0  0  0
   -3.1078   -2.7160   -0.8527 H   0  0  0  0  0  0  0  0  0  0  0  0
   -4.7108    0.6992    1.1616 H   0  0  0  0  0  0  0  0  0  0  0  0
   -7.1680   -2.7141    0.4496 H   0  0  0  0  0  0  0  0  0  0  0  0
   -1.7155   -0.8027    0.0537 H   0  0  0  0  0  0  0  0  0  0  0  0
   -0.0059    0.0327    0.1607 H   0  0  0  0  0  0  0  0  0  0  0  0
    2.0747    1.3086    0.1554 H   0  0  0  0  0  0  0  0  0  0  0  0
   -0.0488    4.9544   -0.4102 H   0  0  0  0  0  0  0  0  0  0  0  0
   -4.4954    3.6351   -0.5616 H   0  0  0  0  0  0  0  0  0  0  0  0
  1  6  2  0  0  0  0
  1  2  1  0  0  0  0
  1 22  1  0  0  0  0
  2  3  2  0  0  0  0
  2 23  1  0  0  0  0
  3  4  1  0  0  0  0
  3  8  1  0  0  0  0
  4  5  2  0  0  0  0
  4 24  1  0  0  0  0
  5  6  1  0  0  0  0
  5  7  1  0  0  0  0
  6 25  1  0  0  0  0
  8  9  1  0  0  0  0
  8 26  1  0  0  0  0
  9 18  2  0  0  0  0
  9 10  1  0  0  0  0
 10 15  2  0  0  0  0
 10 11  1  0  0  0  0
 11 12  2  0  0  0  0
 11 27  1  0  0  0  0
 12 13  1  0  0  0  0
 12 28  1  0  0  0  0
 13 14  2  0  0  0  0
 13 19  1  0  0  0  0
 14 15  1  0  0  0  0
 14 29  1  0  0  0  0
 15 16  1  0  0  0  0
 16 17  2  0  0  0  0
 17 18  1  0  0  0  0
 17 30  1  0  0  0  0
 19 20  2  0  0  0  0
 19 21  1  0  0  0  0
M  CHG  2  19   1  21  -1
M  END
$$$$
ZINC03815409
  -OEChem-08230709403D

 43 46  0     1  0  0  0  0  0999 V2000
   -3.2698    6.2858    5.7199 C   0  0  0  0  0  0  0  0  0  0  0  0
   -4.2600    5.3544    6.1605 O   0  0  0  0  0  0  0  0  0  0  0  0
   -4.6431    4.3958    5.2754 C   0  0  0  0  0  0  0  0  0  0  0  0
   -4.0805    4.3617    4.0311 C   0  0  0  0  0  0  0  0  0  0  0  0
   -4.4741    3.3752    3.1191 C   0  0  0  0  0  0  0  0  0  0  0  0
   -5.4520    2.4194    3.4905 C   0  0  0  0  0  0  0  0  0  0  0  0
   -6.0151    2.4728    4.7713 C   0  0  0  0  0  0  0  0  0  0  0  0
   -5.6107    3.4533    5.6501 C   0  0  0  0  0  0  0  0  0  0  0  0
   -6.1551    3.5072    6.8936 O   0  0  0  0  0  0  0  0  0  0  0  0
   -7.1359    2.5191    7.2158 C   0  0  0  0  0  0  0  0  0  0  0  0
   -5.8120    1.4845    2.5971 N   0  0  0  0  0  0  0  0  0  0  0  0
   -5.2667    1.4596    1.4044 C   0  0  0  0  0  0  0  0  0  0  0  0
   -4.3542    2.3345    1.0117 N   0  0  0  0  0  0  0  0  0  0  0  0
   -3.9231    3.2956    1.8179 C   0  0  0  0  0  0  0  0  0  0  0  0
   -2.9673    4.1970    1.3974 N   0  0  0  0  0  0  0  0  0  0  0  0
   -2.4100    4.0967    0.0462 C   0  0  1  0  0  0  0  0  0  0  0  0
   -3.1775    3.7704   -0.6556 H   0  0  0  0  0  0  0  0  0  0  0  0
   -1.8221    5.4546   -0.3929 C   0  0  0  0  0  0  0  0  0  0  0  0
   -0.3439    5.3289    0.0329 C   0  0  0  0  0  0  0  0  0  0  0  0
   -0.0535    3.8434    0.0227 C   0  0  0  0  0  0  0  0  0  0  0  0
   -1.2410    3.1352    0.0303 C   0  0  0  0  0  0  0  0  0  0  0  0
   -1.2178    1.7509    0.0173 C   0  0  0  0  0  0  0  0  0  0  0  0
   -0.0126    1.0758    0.0080 C   0  0  0  0  0  0  0  0  0  0  0  0
    1.1744    1.7838    0.0004 C   0  0  0  0  0  0  0  0  0  0  0  0
    1.1533    3.1650    0.0080 C   0  0  0  0  0  0  0  0  0  0  0  0
   -2.3583    5.7495    5.4563 H   0  0  0  0  0  0  0  0  0  0  0  0
   -3.6400    6.8240    4.8473 H   0  0  0  0  0  0  0  0  0  0  0  0
   -3.0560    6.9944    6.5201 H   0  0  0  0  0  0  0  0  0  0  0  0
   -3.3353    5.0920    3.7524 H   0  0  0  0  0  0  0  0  0  0  0  0
   -6.7612    1.7505    5.0680 H   0  0  0  0  0  0  0  0  0  0  0  0
   -7.4881    2.6757    8.2354 H   0  0  0  0  0  0  0  0  0  0  0  0
   -7.9750    2.6013    6.5249 H   0  0  0  0  0  0  0  0  0  0  0  0
   -6.6928    1.5267    7.1328 H   0  0  0  0  0  0  0  0  0  0  0  0
   -5.5795    0.6938    0.7101 H   0  0  0  0  0  0  0  0  0  0  0  0
   -2.6642    4.8973    1.9962 H   0  0  0  0  0  0  0  0  0  0  0  0
   -1.9050    5.5818   -1.4722 H   0  0  0  0  0  0  0  0  0  0  0  0
   -2.3109    6.2760    0.1311 H   0  0  0  0  0  0  0  0  0  0  0  0
   -0.2030    5.7350    1.0345 H   0  0  0  0  0  0  0  0  0  0  0  0
    0.3000    5.8450   -0.6793 H   0  0  0  0  0  0  0  0  0  0  0  0
   -2.1450    1.1971    0.0184 H   0  0  0  0  0  0  0  0  0  0  0  0
    0.0021   -0.0041    0.0020 H   0  0  0  0  0  0  0  0  0  0  0  0
    2.1175    1.2576   -0.0110 H   0  0  0  0  0  0  0  0  0  0  0  0
    2.0813    3.7176    0.0021 H   0  0  0  0  0  0  0  0  0  0  0  0
  1  2  1  0  0  0  0
  1 26  1  0  0  0  0
  1 27  1  0  0  0  0
  1 28  1  0  0  0  0
  2  3  1  0  0  0  0
  3  8  2  0  0  0  0
  3  4  1  0  0  0  0
  4  5  2  0  0  0  0
  4 29  1  0  0  0  0
  5 14  1  0  0  0  0
  5  6  1  0  0  0  0
  6  7  2  0  0  0  0
  6 11  1  0  0  0  0
  7  8  1  0  0  0  0
  7 30  1  0  0  0  0
  8  9  1  0  0  0  0
  9 10  1  0  0  0  0
 10 31  1  0  0  0  0
 10 32  1  0  0  0  0
 10 33  1  0  0  0  0
 11 12  2  0  0  0  0
 12 13  1  0  0  0  0
 12 34  1  0  0  0  0
 13 14  2  0  0  0  0
 14 15  1  0  0  0  0
 15 16  1  0  0  0  0
 15 35  1  0  0  0  0
 16 17  1  0  0  0  0
 16 21  1  0  0  0  0
 16 18  1  0  0  0  0
 18 19  1  0  0  0  0
 18 36  1  0  0  0  0
 18 37  1  0  0  0  0
 19 20  1  0  0  0  0
 19 38  1  0  0  0  0
 19 39  1  0  0  0  0
 20 25  2  0  0  0  0
 20 21  1  0  0  0  0
 21 22  2  0  0  0  0
 22 23  1  0  0  0  0
 22 40  1  0  0  0  0
 23 24  2  0  0  0  0
 23 41  1  0  0  0  0
 24 25  1  0  0  0  0
 24 42  1  0  0  0  0
 25 43  1  0  0  0  0
M  END
$$$$
ZINC03815410
  -OEChem-08230709403D

 30 32  0     0  0  0  0  0  0999 V2000
   -2.1349   -4.2653    0.2881 C   0  0  0  0  0  0  0  0  0  0  0  0
   -2.1746   -2.8893    0.4019 C   0  0  0  0  0  0  0  0  0  0  0  0
   -1.1339   -2.1214   -0.1045 C   0  0  0  0  0  0  0  0  0  0  0  0
   -0.0582   -2.7399   -0.7290 C   0  0  0  0  0  0  0  0  0  0  0  0
   -0.0221   -4.1171   -0.8354 C   0  0  0  0  0  0  0  0  0  0  0  0
   -1.0608   -4.8789   -0.3292 C   0  0  0  0  0  0  0  0  0  0  0  0
    1.4446   -4.9612   -1.6793 Br  0  0  0  0  0  0  0  0  0  0  0  0
   -1.1716   -0.7287    0.0088 N   0  0  0  0  0  0  0  0  0  0  0  0
    0.0001   -0.0172    0.1625 C   0  0  0  0  0  0  0  0  0  0  0  0
   -0.0034    1.3959    0.1622 C   0  0  0  0  0  0  0  0  0  0  0  0
   -1.1837    2.1391    0.0022 C   0  0  0  0  0  0  0  0  0  0  0  0
   -1.0939    3.5012    0.0184 C   0  0  0  0  0  0  0  0  0  0  0  0
    0.1547    4.1146    0.1820 C   0  0  0  0  0  0  0  0  0  0  0  0
    1.2297    2.0734    0.3233 C   0  0  0  0  0  0  0  0  0  0  0  0
    2.3454    1.3433    0.4691 N   0  0  0  0  0  0  0  0  0  0  0  0
    2.2908    0.0318    0.4619 C   0  0  0  0  0  0  0  0  0  0  0  0
    1.1624   -0.6415    0.3144 N   0  0  0  0  0  0  0  0  0  0  0  0
    0.2323    5.4971    0.1918 N   0  0  0  0  0  0  0  0  0  0  0  0
   -2.9442   -4.8626    0.6814 H   0  0  0  0  0  0  0  0  0  0  0  0
   -3.0140   -2.4109    0.8846 H   0  0  0  0  0  0  0  0  0  0  0  0
    0.7504   -2.1454   -1.1277 H   0  0  0  0  0  0  0  0  0  0  0  0
   -1.0323   -5.9550   -0.4168 H   0  0  0  0  0  0  0  0  0  0  0  0
   -2.0218   -0.2625   -0.0206 H   0  0  0  0  0  0  0  0  0  0  0  0
   -2.1365    1.6471   -0.1266 H   0  0  0  0  0  0  0  0  0  0  0  0
   -1.9824    4.1040   -0.0983 H   0  0  0  0  0  0  0  0  0  0  0  0
    3.2097   -0.5228    0.5823 H   0  0  0  0  0  0  0  0  0  0  0  0
    1.0911    5.9339    0.3040 H   0  0  0  0  0  0  0  0  0  0  0  0
   -0.5721    6.0288    0.0864 H   0  0  0  0  0  0  0  0  0  0  0  0
    1.3260    3.4424    0.3355 N   0  3  0  0  0  0  0  0  0  0  0  0
    2.2237    3.9268    0.4528 H   0  0  0  0  0  0  0  0  0  0  0  0
  1  6  2  0  0  0  0
  1  2  1  0  0  0  0
  1 19  1  0  0  0  0
  2  3  2  0  0  0  0
  2 20  1  0  0  0  0
  3  4  1  0  0  0  0
  3  8  1  0  0  0  0
  4  5  2  0  0  0  0
  4 21  1  0  0  0  0
  5  6  1  0  0  0  0
  5  7  1  0  0  0  0
  6 22  1  0  0  0  0
  8  9  1  0  0  0  0
  8 23  1  0  0  0  0
  9 17  2  0  0  0  0
  9 10  1  0  0  0  0
 10 14  2  0  0  0  0
 10 11  1  0  0  0  0
 11 12  2  0  0  0  0
 11 24  1  0  0  0  0
 12 13  1  0  0  0  0
 12 25  1  0  0  0  0
 13 18  1  0  0  0  0
 13 29  2  0  0  0  0
 14 15  1  0  0  0  0
 14 29  1  0  0  0  0
 15 16  2  0  0  0  0
 16 17  1  0  0  0  0
 16 26  1  0  0  0  0
 18 27  1  0  0  0  0
 18 28  1  0  0  0  0
 29 30  1  0  0  0  0
M  CHG  1  29   1
M  END
$$$$
ZINC03815411
  -OEChem-08230709403D

 32 34  0     0  0  0  0  0  0999 V2000
   -1.0141    3.1601    1.4505 C   0  0  0  0  0  0  0  0  0  0  0  0
   -1.1406    1.9024    0.7840 O   0  0  0  0  0  0  0  0  0  0  0  0
   -0.0298    1.4119    0.1776 C   0  0  0  0  0  0  0  0  0  0  0  0
    1.1551    2.1197    0.2133 C   0  0  0  0  0  0  0  0  0  0  0  0
    2.2946    1.6262   -0.4101 C   0  0  0  0  0  0  0  0  0  0  0  0
    2.2756    0.4335   -1.0724 C   0  0  0  0  0  0  0  0  0  0  0  0
    1.0925   -0.3130   -1.1304 C   0  0  0  0  0  0  0  0  0  0  0  0
   -0.0743    0.1819   -0.4979 C   0  0  0  0  0  0  0  0  0  0  0  0
   -1.2552   -0.5921   -0.5725 C   0  0  0  0  0  0  0  0  0  0  0  0
   -1.2100   -1.7434   -1.2312 N   0  0  0  0  0  0  0  0  0  0  0  0
   -0.0965   -2.1663   -1.8077 C   0  0  0  0  0  0  0  0  0  0  0  0
    1.0275   -1.4906   -1.7709 N   0  0  0  0  0  0  0  0  0  0  0  0
   -2.4230   -0.1622    0.0234 N   0  0  0  0  0  0  0  0  0  0  0  0
   -3.5838   -0.9348   -0.0757 C   0  0  0  0  0  0  0  0  0  0  0  0
   -4.8252   -0.3175   -0.1657 C   0  0  0  0  0  0  0  0  0  0  0  0
   -5.9702   -1.0831   -0.2634 C   0  0  0  0  0  0  0  0  0  0  0  0
   -5.8826   -2.4633   -0.2722 C   0  0  0  0  0  0  0  0  0  0  0  0
   -4.6481   -3.0816   -0.1832 C   0  0  0  0  0  0  0  0  0  0  0  0
   -3.4980   -2.3207   -0.0900 C   0  0  0  0  0  0  0  0  0  0  0  0
   -4.5337   -4.9691   -0.1969 Br  0  0  0  0  0  0  0  0  0  0  0  0
   -0.2624    3.0811    2.2359 H   0  0  0  0  0  0  0  0  0  0  0  0
   -0.7112    3.9227    0.7330 H   0  0  0  0  0  0  0  0  0  0  0  0
   -1.9722    3.4358    1.8910 H   0  0  0  0  0  0  0  0  0  0  0  0
    1.1966    3.0667    0.7308 H   0  0  0  0  0  0  0  0  0  0  0  0
    3.2110    2.1964   -0.3697 H   0  0  0  0  0  0  0  0  0  0  0  0
    3.1712    0.0661   -1.5513 H   0  0  0  0  0  0  0  0  0  0  0  0
   -0.1136   -3.1104   -2.3319 H   0  0  0  0  0  0  0  0  0  0  0  0
   -2.4385    0.6761    0.5110 H   0  0  0  0  0  0  0  0  0  0  0  0
   -4.8947    0.7602   -0.1590 H   0  0  0  0  0  0  0  0  0  0  0  0
   -6.9353   -0.6035   -0.3334 H   0  0  0  0  0  0  0  0  0  0  0  0
   -6.7797   -3.0597   -0.3491 H   0  0  0  0  0  0  0  0  0  0  0  0
   -2.5341   -2.8035   -0.0247 H   0  0  0  0  0  0  0  0  0  0  0  0
  1  2  1  0  0  0  0
  1 21  1  0  0  0  0
  1 22  1  0  0  0  0
  1 23  1  0  0  0  0
  2  3  1  0  0  0  0
  3  8  2  0  0  0  0
  3  4  1  0  0  0  0
  4  5  2  0  0  0  0
  4 24  1  0  0  0  0
  5  6  1  0  0  0  0
  5 25  1  0  0  0  0
  6  7  2  0  0  0  0
  6 26  1  0  0  0  0
  7 12  1  0  0  0  0
  7  8  1  0  0  0  0
  8  9  1  0  0  0  0
  9 10  2  0  0  0  0
  9 13  1  0  0  0  0
 10 11  1  0  0  0  0
 11 12  2  0  0  0  0
 11 27  1  0  0  0  0
 13 14  1  0  0  0  0
 13 28  1  0  0  0  0
 14 19  2  0  0  0  0
 14 15  1  0  0  0  0
 15 16  2  0  0  0  0
 15 29  1  0  0  0  0
 16 17  1  0  0  0  0
 16 30  1  0  0  0  0
 17 18  2  0  0  0  0
 17 31  1  0  0  0  0
 18 19  1  0  0  0  0
 18 20  1  0  0  0  0
 19 32  1  0  0  0  0
M  END
$$$$
ZINC03815412
  -OEChem-08230709403D

 74 78  0     0  0  0  0  0  0999 V2000
   -7.8609    7.7677   -0.8644 C   0  0  0  0  0  0  0  0  0  0  0  0
   -5.7851    7.6946    0.3808 C   0  0  0  0  0  0  0  0  0  0  0  0
   -4.3103    7.2933    0.3001 C   0  0  0  0  0  0  0  0  0  0  0  0
   -4.8851    5.4832   -1.2006 C   0  0  0  0  0  0  0  0  0  0  0  0
   -6.3598    5.8845   -1.1199 C   0  0  0  0  0  0  0  0  0  0  0  0
   -2.8093    5.4101    0.0446 C   0  0  0  0  0  0  0  0  0  0  0  0
   -2.7524    3.8812    0.0360 C   0  0  0  0  0  0  0  0  0  0  0  0
   -1.2920    3.4252    0.0267 C   0  0  0  0  0  0  0  0  0  0  0  0
   -1.2375    1.9612    0.0185 N   0  0  0  0  0  0  0  0  0  0  0  0
   -0.0158    1.3152    0.0093 C   0  0  0  0  0  0  0  0  0  0  0  0
    1.0945    2.0497    0.0026 N   0  0  0  0  0  0  0  0  0  0  0  0
    2.2875    1.4904   -0.0119 C   0  0  0  0  0  0  0  0  0  0  0  0
    2.3700    0.0874   -0.0202 C   0  0  0  0  0  0  0  0  0  0  0  0
    3.6040   -0.5833   -0.0361 C   0  0  0  0  0  0  0  0  0  0  0  0
    3.5901   -1.9690   -0.0439 C   0  0  0  0  0  0  0  0  0  0  0  0
    2.3544   -2.6505   -0.0357 C   0  0  0  0  0  0  0  0  0  0  0  0
    1.2097   -1.9987   -0.0207 N   0  0  0  0  0  0  0  0  0  0  0  0
    1.1664   -0.6651   -0.0127 C   0  0  0  0  0  0  0  0  0  0  0  0
    0.0021   -0.0041    0.0020 N   0  0  0  0  0  0  0  0  0  0  0  0
    2.3449   -4.0378   -0.0430 N   0  0  0  0  0  0  0  0  0  0  0  0
    1.1731   -4.7038   -0.0353 C   0  0  0  0  0  0  0  0  0  0  0  0
    0.1246   -4.0888   -0.0219 O   0  0  0  0  0  0  0  0  0  0  0  0
    1.1639   -6.0515   -0.0425 N   0  0  0  0  0  0  0  0  0  0  0  0
   -0.1097   -6.7753   -0.0341 C   0  0  0  0  0  0  0  0  0  0  0  0
    0.1555   -8.2588   -0.0446 C   0  0  0  0  0  0  0  0  0  0  0  0
    0.2600   -8.9337   -1.2465 C   0  0  0  0  0  0  0  0  0  0  0  0
    0.5081  -10.2936   -1.2561 C   0  0  0  0  0  0  0  0  0  0  0  0
    0.6417  -10.9803   -0.0639 C   0  0  0  0  0  0  0  0  0  0  0  0
    0.5315  -10.3064    1.1380 C   0  0  0  0  0  0  0  0  0  0  0  0
    0.2886   -8.9456    1.1476 C   0  0  0  0  0  0  0  0  0  0  0  0
    4.8629   -2.7291   -0.0612 C   0  0  0  0  0  0  0  0  0  0  0  0
    5.4489   -3.0863   -1.2756 C   0  0  0  0  0  0  0  0  0  0  0  0
    6.6375   -3.7900   -1.2849 C   0  0  0  0  0  0  0  0  0  0  0  0
    7.2411   -4.1495   -0.0935 C   0  0  0  0  0  0  0  0  0  0  0  0
    6.6621   -3.8033    1.1140 C   0  0  0  0  0  0  0  0  0  0  0  0
    5.4764   -3.0951    1.1369 C   0  0  0  0  0  0  0  0  0  0  0  0
    4.7510   -2.6620    2.6534 Cl  0  0  0  0  0  0  0  0  0  0  0  0
    4.6890   -2.6422   -2.7720 Cl  0  0  0  0  0  0  0  0  0  0  0  0
   -7.9027    8.8506   -0.7473 H   0  0  0  0  0  0  0  0  0  0  0  0
   -8.3357    7.4853   -1.8040 H   0  0  0  0  0  0  0  0  0  0  0  0
   -8.3847    7.2921   -0.0353 H   0  0  0  0  0  0  0  0  0  0  0  0
   -6.2588    7.1735    1.2128 H   0  0  0  0  0  0  0  0  0  0  0  0
   -5.8611    8.7709    0.5352 H   0  0  0  0  0  0  0  0  0  0  0  0
   -3.8153    7.5365    1.2402 H   0  0  0  0  0  0  0  0  0  0  0  0
   -3.8302    7.8349   -0.5149 H   0  0  0  0  0  0  0  0  0  0  0  0
   -4.4114    6.0043   -2.0327 H   0  0  0  0  0  0  0  0  0  0  0  0
   -4.8090    4.4068   -1.3546 H   0  0  0  0  0  0  0  0  0  0  0  0
   -6.8400    5.3429   -0.3050 H   0  0  0  0  0  0  0  0  0  0  0  0
   -6.8552    5.6413   -2.0599 H   0  0  0  0  0  0  0  0  0  0  0  0
   -2.3051    5.7875    0.9343 H   0  0  0  0  0  0  0  0  0  0  0  0
   -2.3134    5.7971   -0.8456 H   0  0  0  0  0  0  0  0  0  0  0  0
   -3.2565    3.5038   -0.8537 H   0  0  0  0  0  0  0  0  0  0  0  0
   -3.2482    3.4942    0.9262 H   0  0  0  0  0  0  0  0  0  0  0  0
   -0.7878    3.8025    0.9164 H   0  0  0  0  0  0  0  0  0  0  0  0
   -0.7961    3.8122   -0.8635 H   0  0  0  0  0  0  0  0  0  0  0  0
   -2.0589    1.4453    0.0195 H   0  0  0  0  0  0  0  0  0  0  0  0
    3.1815    2.0963   -0.0168 H   0  0  0  0  0  0  0  0  0  0  0  0
    4.5350   -0.0360   -0.0418 H   0  0  0  0  0  0  0  0  0  0  0  0
    3.1815   -4.5285   -0.0537 H   0  0  0  0  0  0  0  0  0  0  0  0
    2.0006   -6.5422   -0.0531 H   0  0  0  0  0  0  0  0  0  0  0  0
   -0.6709   -6.5129    0.8627 H   0  0  0  0  0  0  0  0  0  0  0  0
   -0.6880   -6.5034   -0.9171 H   0  0  0  0  0  0  0  0  0  0  0  0
    0.1515   -8.3979   -2.1779 H   0  0  0  0  0  0  0  0  0  0  0  0
    0.5938  -10.8202   -2.1952 H   0  0  0  0  0  0  0  0  0  0  0  0
    0.8318  -12.0434   -0.0714 H   0  0  0  0  0  0  0  0  0  0  0  0
    0.6355  -10.8430    2.0695 H   0  0  0  0  0  0  0  0  0  0  0  0
    0.2025   -8.4190    2.0867 H   0  0  0  0  0  0  0  0  0  0  0  0
    7.0945   -4.0632   -2.2245 H   0  0  0  0  0  0  0  0  0  0  0  0
    8.1683   -4.7032   -0.1061 H   0  0  0  0  0  0  0  0  0  0  0  0
    7.1384   -4.0870    2.0409 H   0  0  0  0  0  0  0  0  0  0  0  0
   -6.4450    7.3429   -0.8940 N   0  3  0  0  0  0  0  0  0  0  0  0
   -5.9671    7.8282   -1.6623 H   0  0  0  0  0  0  0  0  0  0  0  0
   -4.2251    5.8352    0.0744 N   0  3  0  0  0  0  0  0  0  0  0  0
   -4.7030    5.3499    0.8427 H   0  0  0  0  0  0  0  0  0  0  0  0
  1 39  1  0  0  0  0
  1 40  1  0  0  0  0
  1 41  1  0  0  0  0
  1 71  1  0  0  0  0
  2  3  1  0  0  0  0
  2 42  1  0  0  0  0
  2 43  1  0  0  0  0
  2 71  1  0  0  0  0
  3 44  1  0  0  0  0
  3 45  1  0  0  0  0
  3 73  1  0  0  0  0
  4  5  1  0  0  0  0
  4 46  1  0  0  0  0
  4 47  1  0  0  0  0
  4 73  1  0  0  0  0
  5 48  1  0  0  0  0
  5 49  1  0  0  0  0
  5 71  1  0  0  0  0
  6  7  1  0  0  0  0
  6 50  1  0  0  0  0
  6 51  1  0  0  0  0
  6 73  1  0  0  0  0
  7  8  1  0  0  0  0
  7 52  1  0  0  0  0
  7 53  1  0  0  0  0
  8  9  1  0  0  0  0
  8 54  1  0  0  0  0
  8 55  1  0  0  0  0
  9 10  1  0  0  0  0
  9 56  1  0  0  0  0
 10 19  2  0  0  0  0
 10 11  1  0  0  0  0
 11 12  2  0  0  0  0
 12 13  1  0  0  0  0
 12 57  1  0  0  0  0
 13 18  2  0  0  0  0
 13 14  1  0  0  0  0
 14 15  2  0  0  0  0
 14 58  1  0  0  0  0
 15 16  1  0  0  0  0
 15 31  1  0  0  0  0
 16 17  2  0  0  0  0
 16 20  1  0  0  0  0
 17 18  1  0  0  0  0
 18 19  1  0  0  0  0
 20 21  1  0  0  0  0
 20 59  1  0  0  0  0
 21 22  2  0  0  0  0
 21 23  1  0  0  0  0
 23 24  1  0  0  0  0
 23 60  1  0  0  0  0
 24 25  1  0  0  0  0
 24 61  1  0  0  0  0
 24 62  1  0  0  0  0
 25 30  2  0  0  0  0
 25 26  1  0  0  0  0
 26 27  2  0  0  0  0
 26 63  1  0  0  0  0
 27 28  1  0  0  0  0
 27 64  1  0  0  0  0
 28 29  2  0  0  0  0
 28 65  1  0  0  0  0
 29 30  1  0  0  0  0
 29 66  1  0  0  0  0
 30 67  1  0  0  0  0
 31 36  2  0  0  0  0
 31 32  1  0  0  0  0
 32 33  2  0  0  0  0
 32 38  1  0  0  0  0
 33 34  1  0  0  0  0
 33 68  1  0  0  0  0
 34 35  2  0  0  0  0
 34 69  1  0  0  0  0
 35 36  1  0  0  0  0
 35 70  1  0  0  0  0
 36 37  1  0  0  0  0
 71 72  1  0  0  0  0
 73 74  1  0  0  0  0
M  CHG  2  71   1  73   1
M  END
$$$$
ZINC03815413
  -OEChem-08230709403D

 44 46  0     0  0  0  0  0  0999 V2000
    1.0732    4.8977    6.0123 C   0  0  0  0  0  0  0  0  0  0  0  0
    1.0128    4.4235    4.5589 C   0  0  0  0  0  0  0  0  0  0  0  0
   -0.1576    3.6265    4.3661 O   0  0  0  0  0  0  0  0  0  0  0  0
   -0.3631    3.1228    3.1198 C   0  0  0  0  0  0  0  0  0  0  0  0
    0.5334    3.3908    2.1257 C   0  0  0  0  0  0  0  0  0  0  0  0
    0.3242    2.8726    0.8393 C   0  0  0  0  0  0  0  0  0  0  0  0
   -0.8148    2.0737    0.5758 C   0  0  0  0  0  0  0  0  0  0  0  0
   -1.7217    1.8124    1.6141 C   0  0  0  0  0  0  0  0  0  0  0  0
   -1.4934    2.3332    2.8676 C   0  0  0  0  0  0  0  0  0  0  0  0
   -2.3729    2.0789    3.8713 O   0  0  0  0  0  0  0  0  0  0  0  0
   -3.5050    1.2674    3.5518 C   0  0  0  0  0  0  0  0  0  0  0  0
   -4.3749    1.0921    4.7981 C   0  0  0  0  0  0  0  0  0  0  0  0
   -1.0231    1.5790   -0.6534 N   0  0  0  0  0  0  0  0  0  0  0  0
   -0.1930    1.8010   -1.6402 C   0  0  0  0  0  0  0  0  0  0  0  0
    0.9615    2.5819   -1.4693 C   0  0  0  0  0  0  0  0  0  0  0  0
    1.2365    3.1342   -0.2092 C   0  0  0  0  0  0  0  0  0  0  0  0
    2.3609    3.9073    0.0004 N   0  0  0  0  0  0  0  0  0  0  0  0
    3.5582    3.3058    0.4009 C   0  0  0  0  0  0  0  0  0  0  0  0
    3.5866    1.9521    0.7117 C   0  0  0  0  0  0  0  0  0  0  0  0
    4.7709    1.3587    1.1024 C   0  0  0  0  0  0  0  0  0  0  0  0
    5.9278    2.1139    1.1948 C   0  0  0  0  0  0  0  0  0  0  0  0
    5.9013    3.4655    0.8904 C   0  0  0  0  0  0  0  0  0  0  0  0
    4.7191    4.0622    0.4939 C   0  0  0  0  0  0  0  0  0  0  0  0
    7.3534    4.4096    1.0065 Cl  0  0  0  0  0  0  0  0  0  0  0  0
    7.0841    1.5321    1.5817 F   0  0  0  0  0  0  0  0  0  0  0  0
    1.8485    2.8124   -2.5697 C   0  0  0  0  0  0  0  0  0  0  0  0
    2.5522    2.9953   -3.4425 N   0  0  0  0  0  0  0  0  0  0  0  0
    0.1877    5.4920    6.2377 H   0  0  0  0  0  0  0  0  0  0  0  0
    1.1090    4.0332    6.6753 H   0  0  0  0  0  0  0  0  0  0  0  0
    1.9659    5.5056    6.1593 H   0  0  0  0  0  0  0  0  0  0  0  0
    1.8983    3.8291    4.3335 H   0  0  0  0  0  0  0  0  0  0  0  0
    0.9770    5.2879    3.8959 H   0  0  0  0  0  0  0  0  0  0  0  0
    1.4015    4.0002    2.3293 H   0  0  0  0  0  0  0  0  0  0  0  0
   -2.5954    1.2047    1.4305 H   0  0  0  0  0  0  0  0  0  0  0  0
   -4.0877    1.7496    2.7669 H   0  0  0  0  0  0  0  0  0  0  0  0
   -3.1661    0.2913    3.2049 H   0  0  0  0  0  0  0  0  0  0  0  0
   -4.7138    2.0682    5.1449 H   0  0  0  0  0  0  0  0  0  0  0  0
   -5.2384    0.4731    4.5544 H   0  0  0  0  0  0  0  0  0  0  0  0
   -3.7921    0.6099    5.5830 H   0  0  0  0  0  0  0  0  0  0  0  0
   -0.4032    1.3769   -2.6110 H   0  0  0  0  0  0  0  0  0  0  0  0
    2.3205    4.8676   -0.1300 H   0  0  0  0  0  0  0  0  0  0  0  0
    2.6839    1.3632    0.6440 H   0  0  0  0  0  0  0  0  0  0  0  0
    4.7937    0.3055    1.3405 H   0  0  0  0  0  0  0  0  0  0  0  0
    4.6983    5.1156    0.2570 H   0  0  0  0  0  0  0  0  0  0  0  0
  1  2  1  0  0  0  0
  1 28  1  0  0  0  0
  1 29  1  0  0  0  0
  1 30  1  0  0  0  0
  2  3  1  0  0  0  0
  2 31  1  0  0  0  0
  2 32  1  0  0  0  0
  3  4  1  0  0  0  0
  4  9  2  0  0  0  0
  4  5  1  0  0  0  0
  5  6  2  0  0  0  0
  5 33  1  0  0  0  0
  6 16  1  0  0  0  0
  6  7  1  0  0  0  0
  7  8  2  0  0  0  0
  7 13  1  0  0  0  0
  8  9  1  0  0  0  0
  8 34  1  0  0  0  0
  9 10  1  0  0  0  0
 10 11  1  0  0  0  0
 11 12  1  0  0  0  0
 11 35  1  0  0  0  0
 11 36  1  0  0  0  0
 12 37  1  0  0  0  0
 12 38  1  0  0  0  0
 12 39  1  0  0  0  0
 13 14  2  0  0  0  0
 14 15  1  0  0  0  0
 14 40  1  0  0  0  0
 15 16  2  0  0  0  0
 15 26  1  0  0  0  0
 16 17  1  0  0  0  0
 17 18  1  0  0  0  0
 17 41  1  0  0  0  0
 18 23  2  0  0  0  0
 18 19  1  0  0  0  0
 19 20  2  0  0  0  0
 19 42  1  0  0  0  0
 20 21  1  0  0  0  0
 20 43  1  0  0  0  0
 21 22  2  0  0  0  0
 21 25  1  0  0  0  0
 22 23  1  0  0  0  0
 22 24  1  0  0  0  0
 23 44  1  0  0  0  0
 26 27  3  0  0  0  0
M  END
$$$$
ZINC04617767
  -OEChem-08230709403D

 31 34  0     0  0  0  0  0  0999 V2000
   -0.9704    1.7634   -0.7486 C   0  0  0  0  0  0  0  0  0  0  0  0
   -0.9914    3.1444   -0.7320 C   0  0  0  0  0  0  0  0  0  0  0  0
   -0.0490    3.8433    0.0114 C   0  0  0  0  0  0  0  0  0  0  0  0
    0.9123    3.1505    0.7364 C   0  0  0  0  0  0  0  0  0  0  0  0
    0.9245    1.7689    0.7202 C   0  0  0  0  0  0  0  0  0  0  0  0
   -0.0127    1.0761   -0.0263 C   0  0  0  0  0  0  0  0  0  0  0  0
    2.2272    0.8240    1.7132 Br  0  0  0  0  0  0  0  0  0  0  0  0
   -0.0682    5.2408    0.0304 N   0  0  0  0  0  0  0  0  0  0  0  0
   -1.2681    5.9153   -0.0586 C   0  0  0  0  0  0  0  0  0  0  0  0
   -1.3024    7.3298   -0.1590 C   0  0  0  0  0  0  0  0  0  0  0  0
   -0.1351    8.0921   -0.1718 C   0  0  0  0  0  0  0  0  0  0  0  0
   -0.2226    9.4742   -0.2722 C   0  0  0  0  0  0  0  0  0  0  0  0
   -1.4865   10.1013   -0.3606 C   0  0  0  0  0  0  0  0  0  0  0  0
   -2.6459    9.3540   -0.3481 C   0  0  0  0  0  0  0  0  0  0  0  0
   -2.5700    7.9628   -0.2479 C   0  0  0  0  0  0  0  0  0  0  0  0
   -3.6746    7.1971   -0.2332 N   0  0  0  0  0  0  0  0  0  0  0  0
   -3.5792    5.8932   -0.1384 C   0  0  0  0  0  0  0  0  0  0  0  0
   -2.4197    5.2585   -0.0583 N   0  0  0  0  0  0  0  0  0  0  0  0
   -1.2299   11.4571   -0.4475 N   0  0  0  0  0  0  0  0  0  0  0  0
   -1.9111   12.1853   -0.5227 H   0  0  0  0  0  0  0  0  0  0  0  0
    0.1222   11.6176   -0.4118 C   0  0  0  0  0  0  0  0  0  0  0  0
    0.7110   10.4633   -0.3096 N   0  0  0  0  0  0  0  0  0  0  0  0
   -1.7033    1.2197   -1.3264 H   0  0  0  0  0  0  0  0  0  0  0  0
   -1.7398    3.6803   -1.2970 H   0  0  0  0  0  0  0  0  0  0  0  0
    1.6464    3.6910    1.3155 H   0  0  0  0  0  0  0  0  0  0  0  0
    0.0015   -0.0037   -0.0410 H   0  0  0  0  0  0  0  0  0  0  0  0
    0.7623    5.7362    0.1062 H   0  0  0  0  0  0  0  0  0  0  0  0
    0.8296    7.6114   -0.1046 H   0  0  0  0  0  0  0  0  0  0  0  0
   -3.6071    9.8418   -0.4158 H   0  0  0  0  0  0  0  0  0  0  0  0
   -4.4878    5.3094   -0.1295 H   0  0  0  0  0  0  0  0  0  0  0  0
    0.6322   12.5683   -0.4607 H   0  0  0  0  0  0  0  0  0  0  0  0
  1  6  2  0  0  0  0
  1  2  1  0  0  0  0
  1 23  1  0  0  0  0
  2  3  2  0  0  0  0
  2 24  1  0  0  0  0
  3  4  1  0  0  0  0
  3  8  1  0  0  0  0
  4  5  2  0  0  0  0
  4 25  1  0  0  0  0
  5  6  1  0  0  0  0
  5  7  1  0  0  0  0
  6 26  1  0  0  0  0
  8  9  1  0  0  0  0
  8 27  1  0  0  0  0
  9 18  2  0  0  0  0
  9 10  1  0  0  0  0
 10 15  2  0  0  0  0
 10 11  1  0  0  0  0
 11 12  2  0  0  0  0
 11 28  1  0  0  0  0
 12 22  1  0  0  0  0
 12 13  1  0  0  0  0
 13 14  2  0  0  0  0
 13 19  1  0  0  0  0
 14 15  1  0  0  0  0
 14 29  1  0  0  0  0
 15 16  1  0  0  0  0
 16 17  2  0  0  0  0
 17 18  1  0  0  0  0
 17 30  1  0  0  0  0
 19 20  1  0  0  0  0
 19 21  1  0  0  0  0
 21 22  2  0  0  0  0
 21 31  1  0  0  0  0
M  END
$$$$
ZINC04617768
  -OEChem-08230709403D

 41 43  0     1  0  0  0  0  0999 V2000
    3.2477    7.8488    0.3032 C   0  0  0  0  0  0  0  0  0  0  0  0
    3.3146    6.4726    0.4008 C   0  0  0  0  0  0  0  0  0  0  0  0
    2.2783    5.6913   -0.0942 C   0  0  0  0  0  0  0  0  0  0  0  0
    1.1797    6.2968   -0.6910 C   0  0  0  0  0  0  0  0  0  0  0  0
    1.1164    7.6741   -0.7808 C   0  0  0  0  0  0  0  0  0  0  0  0
    2.1509    8.4493   -0.2864 C   0  0  0  0  0  0  0  0  0  0  0  0
   -0.3817    8.5003   -1.5864 Br  0  0  0  0  0  0  0  0  0  0  0  0
    2.3435    4.2984    0.0028 N   0  0  0  0  0  0  0  0  0  0  0  0
    1.1874    3.5634    0.1663 C   0  0  0  0  0  0  0  0  0  0  0  0
    1.2075    2.1039    0.1512 C   0  0  0  0  0  0  0  0  0  0  0  0
    2.3742    1.3571   -0.0258 C   0  0  0  0  0  0  0  0  0  0  0  0
    2.2768   -0.0238   -0.0226 C   0  0  0  0  0  0  0  0  0  0  0  0
   -0.0184    0.0184    0.3137 C   0  0  0  0  0  0  0  0  0  0  0  0
   -0.0225    1.4193    0.3255 C   0  0  0  0  0  0  0  0  0  0  0  0
   -1.1372    2.1418    0.4999 N   0  0  0  0  0  0  0  0  0  0  0  0
   -1.0977    3.4512    0.4999 C   0  0  0  0  0  0  0  0  0  0  0  0
    0.0120    4.1556    0.3433 N   0  0  0  0  0  0  0  0  0  0  0  0
    3.4275   -0.7887   -0.1973 N   0  0  0  0  0  0  0  0  0  0  0  0
    4.7235   -0.1308   -0.3815 C   0  0  0  0  0  0  0  0  0  0  0  0
    5.8141   -1.1906   -0.5499 C   0  0  2  0  0  0  0  0  0  0  0  0
    5.7905   -1.8743    0.2986 H   0  0  0  0  0  0  0  0  0  0  0  0
    7.1820   -0.5085   -0.6174 C   0  0  0  0  0  0  0  0  0  0  0  0
    8.2082   -1.5020   -0.6575 O   0  0  0  0  0  0  0  0  0  0  0  0
    5.5861   -1.9211   -1.7568 O   0  0  0  0  0  0  0  0  0  0  0  0
    4.0535    8.4565    0.6877 H   0  0  0  0  0  0  0  0  0  0  0  0
    4.1717    6.0045    0.8619 H   0  0  0  0  0  0  0  0  0  0  0  0
    0.3744    5.6919   -1.0808 H   0  0  0  0  0  0  0  0  0  0  0  0
    2.1013    9.5255   -0.3617 H   0  0  0  0  0  0  0  0  0  0  0  0
    3.2016    3.8486   -0.0449 H   0  0  0  0  0  0  0  0  0  0  0  0
    3.3282    1.8445   -0.1620 H   0  0  0  0  0  0  0  0  0  0  0  0
   -0.9426   -0.5249    0.4444 H   0  0  0  0  0  0  0  0  0  0  0  0
   -2.0246    3.9876    0.6397 H   0  0  0  0  0  0  0  0  0  0  0  0
    3.3709   -1.7570   -0.1971 H   0  0  0  0  0  0  0  0  0  0  0  0
    4.6882    0.4988   -1.2706 H   0  0  0  0  0  0  0  0  0  0  0  0
    4.9460    0.4841    0.4906 H   0  0  0  0  0  0  0  0  0  0  0  0
    7.2371    0.1073   -1.5151 H   0  0  0  0  0  0  0  0  0  0  0  0
    7.3185    0.1196    0.2629 H   0  0  0  0  0  0  0  0  0  0  0  0
    9.1041   -1.1406   -0.7010 H   0  0  0  0  0  0  0  0  0  0  0  0
    5.5935   -1.3747   -2.5546 H   0  0  0  0  0  0  0  0  0  0  0  0
    1.1063   -0.7218    0.1429 N   0  3  0  0  0  0  0  0  0  0  0  0
    1.0830   -1.7482    0.1377 H   0  0  0  0  0  0  0  0  0  0  0  0
  1  6  2  0  0  0  0
  1  2  1  0  0  0  0
  1 25  1  0  0  0  0
  2  3  2  0  0  0  0
  2 26  1  0  0  0  0
  3  4  1  0  0  0  0
  3  8  1  0  0  0  0
  4  5  2  0  0  0  0
  4 27  1  0  0  0  0
  5  6  1  0  0  0  0
  5  7  1  0  0  0  0
  6 28  1  0  0  0  0
  8  9  1  0  0  0  0
  8 29  1  0  0  0  0
  9 17  2  0  0  0  0
  9 10  1  0  0  0  0
 10 14  2  0  0  0  0
 10 11  1  0  0  0  0
 11 12  2  0  0  0  0
 11 30  1  0  0  0  0
 12 18  1  0  0  0  0
 12 40  1  0  0  0  0
 13 14  1  0  0  0  0
 13 31  1  0  0  0  0
 13 40  2  0  0  0  0
 14 15  1  0  0  0  0
 15 16  2  0  0  0  0
 16 17  1  0  0  0  0
 16 32  1  0  0  0  0
 18 19  1  0  0  0  0
 18 33  1  0  0  0  0
 19 20  1  0  0  0  0
 19 34  1  0  0  0  0
 19 35  1  0  0  0  0
 20 21  1  0  0  0  0
 20 22  1  0  0  0  0
 20 24  1  0  0  0  0
 22 23  1  0  0  0  0
 22 36  1  0  0  0  0
 22 37  1  0  0  0  0
 23 38  1  0  0  0  0
 24 39  1  0  0  0  0
 40 41  1  0  0  0  0
M  CHG  1  40   1
M  END
$$$$
ZINC04617771
  -OEChem-08230709403D

 44 46  0     1  0  0  0  0  0999 V2000
   -3.2469    1.7335   -0.4585 C   0  0  0  0  0  0  0  0  0  0  0  0
   -2.1646    0.9758   -1.0914 N   0  0  3  0  0  0  0  0  0  0  0  0
   -0.7756    1.4161   -0.9390 C   0  0  0  0  0  0  0  0  0  0  0  0
   -0.1655    0.7591    0.3008 C   0  0  1  0  0  0  0  0  0  0  0  0
   -0.1927   -0.3247    0.1882 H   0  0  0  0  0  0  0  0  0  0  0  0
    1.2851    1.2190    0.4600 C   0  0  0  0  0  0  0  0  0  0  0  0
    1.8904    0.5177    1.5480 O   0  0  0  0  0  0  0  0  0  0  0  0
   -0.9146    1.1368    1.4575 O   0  0  0  0  0  0  0  0  0  0  0  0
   -2.4560   -0.1632   -1.8381 C   0  0  0  0  0  0  0  0  0  0  0  0
   -1.4171   -0.9270   -2.3426 C   0  0  0  0  0  0  0  0  0  0  0  0
   -1.7327   -2.0644   -3.0882 C   0  0  0  0  0  0  0  0  0  0  0  0
   -3.0983   -2.3882   -3.2964 C   0  0  0  0  0  0  0  0  0  0  0  0
   -4.0776   -1.5527   -2.7450 C   0  0  0  0  0  0  0  0  0  0  0  0
   -3.3940   -3.4808   -4.0132 N   0  0  0  0  0  0  0  0  0  0  0  0
   -2.4466   -4.2355   -4.5120 C   0  0  0  0  0  0  0  0  0  0  0  0
   -1.1540   -3.9949   -4.3586 N   0  0  0  0  0  0  0  0  0  0  0  0
   -0.7236   -2.9445   -3.6695 C   0  0  0  0  0  0  0  0  0  0  0  0
    0.6239   -2.6945   -3.5101 N   0  0  0  0  0  0  0  0  0  0  0  0
    1.5657   -3.6152   -3.9780 C   0  0  0  0  0  0  0  0  0  0  0  0
    2.7954   -3.1738   -4.4508 C   0  0  0  0  0  0  0  0  0  0  0  0
    3.7241   -4.0857   -4.9121 C   0  0  0  0  0  0  0  0  0  0  0  0
    3.4318   -5.4373   -4.9040 C   0  0  0  0  0  0  0  0  0  0  0  0
    2.2085   -5.8807   -4.4336 C   0  0  0  0  0  0  0  0  0  0  0  0
    1.2765   -4.9734   -3.9661 C   0  0  0  0  0  0  0  0  0  0  0  0
    1.8139   -7.7301   -4.4241 Br  0  0  0  0  0  0  0  0  0  0  0  0
   -3.6056    2.4987   -1.1469 H   0  0  0  0  0  0  0  0  0  0  0  0
   -4.0649    1.0581   -0.2077 H   0  0  0  0  0  0  0  0  0  0  0  0
   -2.8755    2.2074    0.4501 H   0  0  0  0  0  0  0  0  0  0  0  0
   -0.7484    2.5000   -0.8264 H   0  0  0  0  0  0  0  0  0  0  0  0
   -0.2042    1.1280   -1.8213 H   0  0  0  0  0  0  0  0  0  0  0  0
    1.8351    1.0105   -0.4577 H   0  0  0  0  0  0  0  0  0  0  0  0
    1.3066    2.2901    0.6611 H   0  0  0  0  0  0  0  0  0  0  0  0
    2.8130    0.7596    1.7072 H   0  0  0  0  0  0  0  0  0  0  0  0
   -0.9337    2.0899    1.6199 H   0  0  0  0  0  0  0  0  0  0  0  0
   -0.3887   -0.6502   -2.1636 H   0  0  0  0  0  0  0  0  0  0  0  0
   -5.1237   -1.7789   -2.8898 H   0  0  0  0  0  0  0  0  0  0  0  0
   -2.7373   -5.1053   -5.0825 H   0  0  0  0  0  0  0  0  0  0  0  0
    0.9177   -1.8798   -3.0733 H   0  0  0  0  0  0  0  0  0  0  0  0
    3.0246   -2.1185   -4.4579 H   0  0  0  0  0  0  0  0  0  0  0  0
    4.6802   -3.7429   -5.2793 H   0  0  0  0  0  0  0  0  0  0  0  0
    4.1600   -6.1484   -5.2654 H   0  0  0  0  0  0  0  0  0  0  0  0
    0.3232   -5.3200   -3.5954 H   0  0  0  0  0  0  0  0  0  0  0  0
   -3.7874   -0.4470   -2.0128 N   0  3  0  0  0  0  0  0  0  0  0  0
   -4.5241    0.1450   -1.6115 H   0  0  0  0  0  0  0  0  0  0  0  0
  1  2  1  0  0  0  0
  1 26  1  0  0  0  0
  1 27  1  0  0  0  0
  1 28  1  0  0  0  0
  2  3  1  0  0  0  0
  2  9  1  0  0  0  0
  3  4  1  0  0  0  0
  3 29  1  0  0  0  0
  3 30  1  0  0  0  0
  4  5  1  0  0  0  0
  4  6  1  0  0  0  0
  4  8  1  0  0  0  0
  6  7  1  0  0  0  0
  6 31  1  0  0  0  0
  6 32  1  0  0  0  0
  7 33  1  0  0  0  0
  8 34  1  0  0  0  0
  9 10  2  0  0  0  0
  9 43  1  0  0  0  0
 10 11  1  0  0  0  0
 10 35  1  0  0  0  0
 11 17  2  0  0  0  0
 11 12  1  0  0  0  0
 12 13  1  0  0  0  0
 12 14  2  0  0  0  0
 13 36  1  0  0  0  0
 13 43  2  0  0  0  0
 14 15  1  0  0  0  0
 15 16  2  0  0  0  0
 15 37  1  0  0  0  0
 16 17  1  0  0  0  0
 17 18  1  0  0  0  0
 18 19  1  0  0  0  0
 18 38  1  0  0  0  0
 19 24  2  0  0  0  0
 19 20  1  0  0  0  0
 20 21  2  0  0  0  0
 20 39  1  0  0  0  0
 21 22  1  0  0  0  0
 21 40  1  0  0  0  0
 22 23  2  0  0  0  0
 22 41  1  0  0  0  0
 23 24  1  0  0  0  0
 23 25  1  0  0  0  0
 24 42  1  0  0  0  0
 43 44  1  0  0  0  0
M  CHG  1  43   1
M  END
$$$$
ZINC04617774
  -OEChem-08230709403D

 41 43  0     1  0  0  0  0  0999 V2000
    2.2861   -4.3306   -0.4267 C   0  0  0  0  0  0  0  0  0  0  0  0
    2.3494   -2.9542   -0.5245 C   0  0  0  0  0  0  0  0  0  0  0  0
    3.4040   -2.2653    0.0607 C   0  0  0  0  0  0  0  0  0  0  0  0
    4.3952   -2.9637    0.7383 C   0  0  0  0  0  0  0  0  0  0  0  0
    4.3235   -4.3401    0.8371 C   0  0  0  0  0  0  0  0  0  0  0  0
    3.2711   -5.0230    0.2527 C   0  0  0  0  0  0  0  0  0  0  0  0
    5.6685   -5.2920    1.7649 Br  0  0  0  0  0  0  0  0  0  0  0  0
    3.4708   -0.8724   -0.0371 N   0  0  0  0  0  0  0  0  0  0  0  0
    2.3135   -0.1237   -0.0165 C   0  0  0  0  0  0  0  0  0  0  0  0
    2.3467    1.2731   -0.2347 C   0  0  0  0  0  0  0  0  0  0  0  0
    3.5313    1.9715   -0.4807 C   0  0  0  0  0  0  0  0  0  0  0  0
    2.3690    3.9720   -0.6534 C   0  0  0  0  0  0  0  0  0  0  0  0
    1.1479    3.3674   -0.4176 C   0  0  0  0  0  0  0  0  0  0  0  0
    1.1181    1.9851   -0.2010 C   0  0  0  0  0  0  0  0  0  0  0  0
   -0.0143    1.3108    0.0347 N   0  0  0  0  0  0  0  0  0  0  0  0
    0.0164    0.0124    0.2308 C   0  0  0  0  0  0  0  0  0  0  0  0
    1.1351   -0.6934    0.2085 N   0  0  0  0  0  0  0  0  0  0  0  0
    2.4162    5.3430   -0.8707 N   0  0  0  0  0  0  0  0  0  0  0  0
    1.1814    6.1310   -0.8486 C   0  0  0  0  0  0  0  0  0  0  0  0
    1.5101    7.6015   -1.1141 C   0  0  1  0  0  0  0  0  0  0  0  0
    1.9846    7.6972   -2.0907 H   0  0  0  0  0  0  0  0  0  0  0  0
    0.2205    8.4246   -1.0909 C   0  0  0  0  0  0  0  0  0  0  0  0
    0.5113    9.7760   -1.4532 O   0  0  0  0  0  0  0  0  0  0  0  0
    2.3993    8.0809   -0.1034 O   0  0  0  0  0  0  0  0  0  0  0  0
    1.4664   -4.8665   -0.8820 H   0  0  0  0  0  0  0  0  0  0  0  0
    1.5793   -2.4141   -1.0552 H   0  0  0  0  0  0  0  0  0  0  0  0
    5.2188   -2.4314    1.1906 H   0  0  0  0  0  0  0  0  0  0  0  0
    3.2194   -6.0992    0.3274 H   0  0  0  0  0  0  0  0  0  0  0  0
    4.3315   -0.4327   -0.1195 H   0  0  0  0  0  0  0  0  0  0  0  0
    4.4731    1.4437   -0.5092 H   0  0  0  0  0  0  0  0  0  0  0  0
    0.2379    3.9488   -0.4006 H   0  0  0  0  0  0  0  0  0  0  0  0
   -0.9142   -0.5025    0.4185 H   0  0  0  0  0  0  0  0  0  0  0  0
    3.2667    5.7787   -1.0372 H   0  0  0  0  0  0  0  0  0  0  0  0
    0.5031    5.7654   -1.6195 H   0  0  0  0  0  0  0  0  0  0  0  0
    0.7068    6.0354    0.1280 H   0  0  0  0  0  0  0  0  0  0  0  0
   -0.4920    8.0036   -1.8002 H   0  0  0  0  0  0  0  0  0  0  0  0
   -0.2075    8.4012   -0.0888 H   0  0  0  0  0  0  0  0  0  0  0  0
   -0.2619   10.3566   -1.4596 H   0  0  0  0  0  0  0  0  0  0  0  0
    2.0417    8.0259    0.7934 H   0  0  0  0  0  0  0  0  0  0  0  0
    3.5735    3.3118   -0.6923 N   0  3  0  0  0  0  0  0  0  0  0  0
    4.4562    3.8047   -0.8714 H   0  0  0  0  0  0  0  0  0  0  0  0
  1  6  2  0  0  0  0
  1  2  1  0  0  0  0
  1 25  1  0  0  0  0
  2  3  2  0  0  0  0
  2 26  1  0  0  0  0
  3  4  1  0  0  0  0
  3  8  1  0  0  0  0
  4  5  2  0  0  0  0
  4 27  1  0  0  0  0
  5  6  1  0  0  0  0
  5  7  1  0  0  0  0
  6 28  1  0  0  0  0
  8  9  1  0  0  0  0
  8 29  1  0  0  0  0
  9 17  2  0  0  0  0
  9 10  1  0  0  0  0
 10 14  2  0  0  0  0
 10 11  1  0  0  0  0
 11 30  1  0  0  0  0
 11 40  2  0  0  0  0
 12 13  2  0  0  0  0
 12 18  1  0  0  0  0
 12 40  1  0  0  0  0
 13 14  1  0  0  0  0
 13 31  1  0  0  0  0
 14 15  1  0  0  0  0
 15 16  2  0  0  0  0
 16 17  1  0  0  0  0
 16 32  1  0  0  0  0
 18 19  1  0  0  0  0
 18 33  1  0  0  0  0
 19 20  1  0  0  0  0
 19 34  1  0  0  0  0
 19 35  1  0  0  0  0
 20 21  1  0  0  0  0
 20 22  1  0  0  0  0
 20 24  1  0  0  0  0
 22 23  1  0  0  0  0
 22 36  1  0  0  0  0
 22 37  1  0  0  0  0
 23 38  1  0  0  0  0
 24 39  1  0  0  0  0
 40 41  1  0  0  0  0
M  CHG  1  40   1
M  END
$$$$
ZINC04617775
  -OEChem-08230709403D

 43 46  0     1  0  0  0  0  0999 V2000
    4.8798    1.0223   -0.4205 C   0  0  0  0  0  0  0  0  0  0  0  0
    3.7005    1.7357   -0.5108 C   0  0  0  0  0  0  0  0  0  0  0  0
    3.5979    2.9846    0.0883 C   0  0  0  0  0  0  0  0  0  0  0  0
    4.6846    3.5149    0.7722 C   0  0  0  0  0  0  0  0  0  0  0  0
    5.8597    2.7939    0.8639 C   0  0  0  0  0  0  0  0  0  0  0  0
    5.9580    1.5498    0.2655 C   0  0  0  0  0  0  0  0  0  0  0  0
    7.3374    3.5110    1.8010 Br  0  0  0  0  0  0  0  0  0  0  0  0
    2.4057    3.7087   -0.0014 N   0  0  0  0  0  0  0  0  0  0  0  0
    1.1950    3.0483    0.0135 C   0  0  0  0  0  0  0  0  0  0  0  0
   -0.0196    3.7495   -0.1978 C   0  0  0  0  0  0  0  0  0  0  0  0
   -0.0415    5.1243   -0.4276 C   0  0  0  0  0  0  0  0  0  0  0  0
   -1.2577    5.7611   -0.6288 C   0  0  0  0  0  0  0  0  0  0  0  0
   -1.6364    7.1548   -0.8894 C   0  0  0  0  0  0  0  0  0  0  0  0
   -2.9722    7.1852   -0.9991 C   0  0  0  0  0  0  0  0  0  0  0  0
   -3.4880    5.9267   -0.8310 N   0  0  0  0  0  0  0  0  0  0  0  0
   -2.4677    5.0277   -0.6022 C   0  0  0  0  0  0  0  0  0  0  0  0
   -2.4497    3.6642   -0.3753 C   0  0  0  0  0  0  0  0  0  0  0  0
   -1.2326    3.0116   -0.1706 C   0  0  0  0  0  0  0  0  0  0  0  0
   -1.1735    1.6863    0.0480 N   0  0  0  0  0  0  0  0  0  0  0  0
   -0.0203    1.0942    0.2419 C   0  0  0  0  0  0  0  0  0  0  0  0
    1.1353    1.7408    0.2253 N   0  0  0  0  0  0  0  0  0  0  0  0
   -4.9120    5.5868   -0.8863 C   0  0  1  0  0  0  0  0  0  0  0  0
   -5.0328    4.5994   -1.3318 H   0  0  0  0  0  0  0  0  0  0  0  0
   -5.4904    5.5815    0.5301 C   0  0  0  0  0  0  0  0  0  0  0  0
   -6.9440    5.1061    0.4857 C   0  0  0  0  0  0  0  0  0  0  0  0
   -7.4842    5.1011    1.8086 O   0  0  0  0  0  0  0  0  0  0  0  0
   -5.6023    6.5549   -1.6791 O   0  0  0  0  0  0  0  0  0  0  0  0
    4.9599    0.0514   -0.8866 H   0  0  0  0  0  0  0  0  0  0  0  0
    2.8586    1.3226   -1.0466 H   0  0  0  0  0  0  0  0  0  0  0  0
    4.6096    4.4878    1.2350 H   0  0  0  0  0  0  0  0  0  0  0  0
    6.8791    0.9901    0.3343 H   0  0  0  0  0  0  0  0  0  0  0  0
    2.4299    4.6756   -0.0743 H   0  0  0  0  0  0  0  0  0  0  0  0
    0.8793    5.6883   -0.4493 H   0  0  0  0  0  0  0  0  0  0  0  0
   -0.9657    7.9968   -0.9766 H   0  0  0  0  0  0  0  0  0  0  0  0
   -3.5569    8.0727   -1.1914 H   0  0  0  0  0  0  0  0  0  0  0  0
   -3.3740    3.1058   -0.3557 H   0  0  0  0  0  0  0  0  0  0  0  0
   -0.0118    0.0289    0.4189 H   0  0  0  0  0  0  0  0  0  0  0  0
   -4.9070    4.9084    1.1583 H   0  0  0  0  0  0  0  0  0  0  0  0
   -5.4503    6.5896    0.9427 H   0  0  0  0  0  0  0  0  0  0  0  0
   -7.5274    5.7792   -0.1425 H   0  0  0  0  0  0  0  0  0  0  0  0
   -6.9840    4.0980    0.0730 H   0  0  0  0  0  0  0  0  0  0  0  0
   -8.4050    4.8097    1.8563 H   0  0  0  0  0  0  0  0  0  0  0  0
   -5.5375    7.4585   -1.3410 H   0  0  0  0  0  0  0  0  0  0  0  0
  1  6  2  0  0  0  0
  1  2  1  0  0  0  0
  1 28  1  0  0  0  0
  2  3  2  0  0  0  0
  2 29  1  0  0  0  0
  3  4  1  0  0  0  0
  3  8  1  0  0  0  0
  4  5  2  0  0  0  0
  4 30  1  0  0  0  0
  5  6  1  0  0  0  0
  5  7  1  0  0  0  0
  6 31  1  0  0  0  0
  8  9  1  0  0  0  0
  8 32  1  0  0  0  0
  9 21  2  0  0  0  0
  9 10  1  0  0  0  0
 10 18  2  0  0  0  0
 10 11  1  0  0  0  0
 11 12  2  0  0  0  0
 11 33  1  0  0  0  0
 12 16  1  0  0  0  0
 12 13  1  0  0  0  0
 13 14  2  0  0  0  0
 13 34  1  0  0  0  0
 14 15  1  0  0  0  0
 14 35  1  0  0  0  0
 15 16  1  0  0  0  0
 15 22  1  0  0  0  0
 16 17  2  0  0  0  0
 17 18  1  0  0  0  0
 17 36  1  0  0  0  0
 18 19  1  0  0  0  0
 19 20  2  0  0  0  0
 20 21  1  0  0  0  0
 20 37  1  0  0  0  0
 22 23  1  0  0  0  0
 22 24  1  0  0  0  0
 22 27  1  0  0  0  0
 24 25  1  0  0  0  0
 24 38  1  0  0  0  0
 24 39  1  0  0  0  0
 25 26  1  0  0  0  0
 25 40  1  0  0  0  0
 25 41  1  0  0  0  0
 26 42  1  0  0  0  0
 27 43  1  0  0  0  0
M  END
$$$$
ZINC04617776
  -OEChem-08230709403D

 49 51  0     1  0  0  0  0  0999 V2000
   -4.6206   -4.9350   -0.0182 C   0  0  0  0  0  0  0  0  0  0  0  0
   -5.4813   -2.7481   -0.6007 C   0  0  0  0  0  0  0  0  0  0  0  0
   -4.1144   -2.0750   -0.4617 C   0  0  0  0  0  0  0  0  0  0  0  0
   -4.2947   -0.6908   -0.0172 N   0  0  0  0  0  0  0  0  0  0  0  0
   -3.1849    0.1271    0.1809 C   0  0  0  0  0  0  0  0  0  0  0  0
   -1.9178   -0.3829   -0.0466 C   0  0  0  0  0  0  0  0  0  0  0  0
   -0.8200    0.4549    0.1585 C   0  0  0  0  0  0  0  0  0  0  0  0
   -1.0479    1.7873    0.5892 C   0  0  0  0  0  0  0  0  0  0  0  0
   -2.3672    2.2090    0.7973 C   0  0  0  0  0  0  0  0  0  0  0  0
    0.0101    2.5859    0.7845 N   0  0  0  0  0  0  0  0  0  0  0  0
    1.2288    2.1499    0.5833 C   0  0  0  0  0  0  0  0  0  0  0  0
    1.5161    0.9216    0.1821 N   0  0  0  0  0  0  0  0  0  0  0  0
    0.5607    0.0285   -0.0483 C   0  0  0  0  0  0  0  0  0  0  0  0
    0.8611   -1.2514   -0.4669 N   0  0  0  0  0  0  0  0  0  0  0  0
    2.1853   -1.6040   -0.7419 C   0  0  0  0  0  0  0  0  0  0  0  0
    2.6290   -2.8959   -0.4874 C   0  0  0  0  0  0  0  0  0  0  0  0
    3.9377   -3.2416   -0.7606 C   0  0  0  0  0  0  0  0  0  0  0  0
    4.8069   -2.3038   -1.2875 C   0  0  0  0  0  0  0  0  0  0  0  0
    4.3686   -1.0165   -1.5427 C   0  0  0  0  0  0  0  0  0  0  0  0
    3.0588   -0.6655   -1.2756 C   0  0  0  0  0  0  0  0  0  0  0  0
    5.5608    0.2617   -2.2644 Br  0  0  0  0  0  0  0  0  0  0  0  0
   -6.5864   -4.7413   -1.4184 C   0  0  0  0  0  0  0  0  0  0  0  0
   -7.0276   -4.2043   -2.7814 C   0  0  0  0  0  0  0  0  0  0  0  0
   -6.1013   -4.6289   -3.7833 O   0  0  0  0  0  0  0  0  0  0  0  0
   -5.1623   -4.8515    0.9240 H   0  0  0  0  0  0  0  0  0  0  0  0
   -4.5918   -5.9792   -0.3294 H   0  0  0  0  0  0  0  0  0  0  0  0
   -3.6031   -4.5670    0.1139 H   0  0  0  0  0  0  0  0  0  0  0  0
   -5.9903   -2.7394    0.3631 H   0  0  0  0  0  0  0  0  0  0  0  0
   -6.0803   -2.2065   -1.3328 H   0  0  0  0  0  0  0  0  0  0  0  0
   -3.6054   -2.0837   -1.4256 H   0  0  0  0  0  0  0  0  0  0  0  0
   -3.5154   -2.6167    0.2704 H   0  0  0  0  0  0  0  0  0  0  0  0
   -5.1869   -0.3439    0.1391 H   0  0  0  0  0  0  0  0  0  0  0  0
   -1.7822   -1.4031   -0.3740 H   0  0  0  0  0  0  0  0  0  0  0  0
   -2.5655    3.2187    1.1252 H   0  0  0  0  0  0  0  0  0  0  0  0
    2.0476    2.8330    0.7545 H   0  0  0  0  0  0  0  0  0  0  0  0
    0.1533   -1.9066   -0.5703 H   0  0  0  0  0  0  0  0  0  0  0  0
    1.9510   -3.6289   -0.0759 H   0  0  0  0  0  0  0  0  0  0  0  0
    4.2828   -4.2456   -0.5628 H   0  0  0  0  0  0  0  0  0  0  0  0
    5.8298   -2.5770   -1.5005 H   0  0  0  0  0  0  0  0  0  0  0  0
    2.7159    0.3384   -1.4783 H   0  0  0  0  0  0  0  0  0  0  0  0
   -6.4760   -5.8243   -1.4730 H   0  0  0  0  0  0  0  0  0  0  0  0
   -7.3366   -4.4900   -0.6687 H   0  0  0  0  0  0  0  0  0  0  0  0
   -8.0203   -4.5869   -3.0187 H   0  0  0  0  0  0  0  0  0  0  0  0
   -7.0558   -3.1150   -2.7509 H   0  0  0  0  0  0  0  0  0  0  0  0
   -6.3191   -4.3241   -4.6748 H   0  0  0  0  0  0  0  0  0  0  0  0
   -5.2839   -4.1358   -1.0699 N   0  3  2  0  0  0  0  0  0  0  0  0
   -4.6875   -4.1237   -1.9055 H   0  0  0  0  0  0  0  0  0  0  0  0
   -3.4453    1.4086    0.5975 N   0  3  0  0  0  0  0  0  0  0  0  0
   -4.4038    1.7439    0.7499 H   0  0  0  0  0  0  0  0  0  0  0  0
  1 25  1  0  0  0  0
  1 26  1  0  0  0  0
  1 27  1  0  0  0  0
  1 46  1  0  0  0  0
  2  3  1  0  0  0  0
  2 28  1  0  0  0  0
  2 29  1  0  0  0  0
  2 46  1  0  0  0  0
  3  4  1  0  0  0  0
  3 30  1  0  0  0  0
  3 31  1  0  0  0  0
  4  5  1  0  0  0  0
  4 32  1  0  0  0  0
  5  6  2  0  0  0  0
  5 48  1  0  0  0  0
  6  7  1  0  0  0  0
  6 33  1  0  0  0  0
  7 13  2  0  0  0  0
  7  8  1  0  0  0  0
  8  9  1  0  0  0  0
  8 10  2  0  0  0  0
  9 34  1  0  0  0  0
  9 48  2  0  0  0  0
 10 11  1  0  0  0  0
 11 12  2  0  0  0  0
 11 35  1  0  0  0  0
 12 13  1  0  0  0  0
 13 14  1  0  0  0  0
 14 15  1  0  0  0  0
 14 36  1  0  0  0  0
 15 20  2  0  0  0  0
 15 16  1  0  0  0  0
 16 17  2  0  0  0  0
 16 37  1  0  0  0  0
 17 18  1  0  0  0  0
 17 38  1  0  0  0  0
 18 19  2  0  0  0  0
 18 39  1  0  0  0  0
 19 20  1  0  0  0  0
 19 21  1  0  0  0  0
 20 40  1  0  0  0  0
 22 23  1  0  0  0  0
 22 41  1  0  0  0  0
 22 42  1  0  0  0  0
 22 46  1  0  0  0  0
 23 24  1  0  0  0  0
 23 43  1  0  0  0  0
 23 44  1  0  0  0  0
 24 45  1  0  0  0  0
 46 47  1  0  0  0  0
 48 49  1  0  0  0  0
M  CHG  2  46   1  48   1
M  END
$$$$
ZINC04617779
  -OEChem-08230709403D

 44 46  0     1  0  0  0  0  0999 V2000
    1.2002    6.1474   -0.7406 C   0  0  0  0  0  0  0  0  0  0  0  0
    2.4174    5.3425   -0.8708 N   0  0  3  0  0  0  0  0  0  0  0  0
    3.6847    5.9838   -1.2298 C   0  0  0  0  0  0  0  0  0  0  0  0
    3.8368    5.9961   -2.7522 C   0  0  1  0  0  0  0  0  0  0  0  0
    3.0102    6.5513   -3.1955 H   0  0  0  0  0  0  0  0  0  0  0  0
    5.1604    6.6658   -3.1271 C   0  0  0  0  0  0  0  0  0  0  0  0
    5.2495    6.7822   -4.5486 O   0  0  0  0  0  0  0  0  0  0  0  0
    3.8264    4.6539   -3.2427 O   0  0  0  0  0  0  0  0  0  0  0  0
    2.3699    3.9715   -0.6540 C   0  0  0  0  0  0  0  0  0  0  0  0
    1.1482    3.3669   -0.4186 C   0  0  0  0  0  0  0  0  0  0  0  0
    1.1182    1.9850   -0.2020 C   0  0  0  0  0  0  0  0  0  0  0  0
    2.3470    1.2727   -0.2352 C   0  0  0  0  0  0  0  0  0  0  0  0
    3.5316    1.9709   -0.4798 C   0  0  0  0  0  0  0  0  0  0  0  0
    2.3135   -0.1241   -0.0165 C   0  0  0  0  0  0  0  0  0  0  0  0
    1.1349   -0.6935    0.2080 N   0  0  0  0  0  0  0  0  0  0  0  0
    0.0162    0.0124    0.2294 C   0  0  0  0  0  0  0  0  0  0  0  0
   -0.0144    1.3108    0.0333 N   0  0  0  0  0  0  0  0  0  0  0  0
    3.4707   -0.8729   -0.0362 N   0  0  0  0  0  0  0  0  0  0  0  0
    3.4036   -2.2658    0.0620 C   0  0  0  0  0  0  0  0  0  0  0  0
    2.3487   -2.9549   -0.5233 C   0  0  0  0  0  0  0  0  0  0  0  0
    2.2852   -4.3308   -0.4251 C   0  0  0  0  0  0  0  0  0  0  0  0
    3.2702   -5.0234    0.2550 C   0  0  0  0  0  0  0  0  0  0  0  0
    4.3223   -4.3407    0.8391 C   0  0  0  0  0  0  0  0  0  0  0  0
    4.3943   -2.9640    0.7399 C   0  0  0  0  0  0  0  0  0  0  0  0
    5.6670   -5.2925    1.7674 Br  0  0  0  0  0  0  0  0  0  0  0  0
    1.1043    6.4973    0.2872 H   0  0  0  0  0  0  0  0  0  0  0  0
    1.2575    7.0040   -1.4122 H   0  0  0  0  0  0  0  0  0  0  0  0
    0.3333    5.5396   -0.9999 H   0  0  0  0  0  0  0  0  0  0  0  0
    3.6926    7.0076   -0.8557 H   0  0  0  0  0  0  0  0  0  0  0  0
    4.5113    5.4286   -0.7865 H   0  0  0  0  0  0  0  0  0  0  0  0
    5.2056    7.6579   -2.6778 H   0  0  0  0  0  0  0  0  0  0  0  0
    5.9901    6.0622   -2.7592 H   0  0  0  0  0  0  0  0  0  0  0  0
    6.0651    7.1989   -4.8587 H   0  0  0  0  0  0  0  0  0  0  0  0
    4.5364    4.1005   -2.8894 H   0  0  0  0  0  0  0  0  0  0  0  0
    0.2383    3.9484   -0.4019 H   0  0  0  0  0  0  0  0  0  0  0  0
    4.4734    1.4430   -0.5077 H   0  0  0  0  0  0  0  0  0  0  0  0
   -0.9145   -0.5025    0.4164 H   0  0  0  0  0  0  0  0  0  0  0  0
    4.3315   -0.4334   -0.1182 H   0  0  0  0  0  0  0  0  0  0  0  0
    1.5788   -2.4149   -1.0543 H   0  0  0  0  0  0  0  0  0  0  0  0
    1.4655   -4.8667   -0.8803 H   0  0  0  0  0  0  0  0  0  0  0  0
    3.2183   -6.0996    0.3299 H   0  0  0  0  0  0  0  0  0  0  0  0
    5.2179   -2.4316    1.1921 H   0  0  0  0  0  0  0  0  0  0  0  0
    3.5740    3.3112   -0.6929 N   0  3  0  0  0  0  0  0  0  0  0  0
    4.4567    3.8037   -0.8730 H   0  0  0  0  0  0  0  0  0  0  0  0
  1  2  1  0  0  0  0
  1 26  1  0  0  0  0
  1 27  1  0  0  0  0
  1 28  1  0  0  0  0
  2  3  1  0  0  0  0
  2  9  1  0  0  0  0
  3  4  1  0  0  0  0
  3 29  1  0  0  0  0
  3 30  1  0  0  0  0
  4  5  1  0  0  0  0
  4  6  1  0  0  0  0
  4  8  1  0  0  0  0
  6  7  1  0  0  0  0
  6 31  1  0  0  0  0
  6 32  1  0  0  0  0
  7 33  1  0  0  0  0
  8 34  1  0  0  0  0
  9 10  2  0  0  0  0
  9 43  1  0  0  0  0
 10 11  1  0  0  0  0
 10 35  1  0  0  0  0
 11 17  2  0  0  0  0
 11 12  1  0  0  0  0
 12 13  1  0  0  0  0
 12 14  2  0  0  0  0
 13 36  1  0  0  0  0
 13 43  2  0  0  0  0
 14 15  1  0  0  0  0
 14 18  1  0  0  0  0
 15 16  2  0  0  0  0
 16 17  1  0  0  0  0
 16 37  1  0  0  0  0
 18 19  1  0  0  0  0
 18 38  1  0  0  0  0
 19 24  2  0  0  0  0
 19 20  1  0  0  0  0
 20 21  2  0  0  0  0
 20 39  1  0  0  0  0
 21 22  1  0  0  0  0
 21 40  1  0  0  0  0
 22 23  2  0  0  0  0
 22 41  1  0  0  0  0
 23 24  1  0  0  0  0
 23 25  1  0  0  0  0
 24 42  1  0  0  0  0
 43 44  1  0  0  0  0
M  CHG  1  43   1
M  END
$$$$
ZINC04617781
  -OEChem-08230709403D

 56 58  0     1  0  0  0  0  0999 V2000
    3.6847    5.9838   -1.2298 C   0  0  0  0  0  0  0  0  0  0  0  0
    2.4174    5.3425   -0.8708 N   0  0  3  0  0  0  0  0  0  0  0  0
    1.2002    6.1474   -0.7406 C   0  0  0  0  0  0  0  0  0  0  0  0
    1.0655    6.6386    0.7021 C   0  0  1  0  0  0  0  0  0  0  0  0
    1.9324    7.2463    0.9614 H   0  0  0  0  0  0  0  0  0  0  0  0
   -0.2057    7.4791    0.8381 C   0  0  1  0  0  0  0  0  0  0  0  0
   -1.0726    6.8714    0.5788 H   0  0  0  0  0  0  0  0  0  0  0  0
   -0.3403    7.9703    2.2808 C   0  0  1  0  0  0  0  0  0  0  0  0
    0.5266    8.5781    2.5401 H   0  0  0  0  0  0  0  0  0  0  0  0
   -1.6115    8.8109    2.4168 C   0  0  1  0  0  0  0  0  0  0  0  0
   -2.4784    8.2032    2.1575 H   0  0  0  0  0  0  0  0  0  0  0  0
   -1.7462    9.3021    3.8595 C   0  0  0  0  0  0  0  0  0  0  0  0
   -2.9901    9.9882    4.0150 O   0  0  0  0  0  0  0  0  0  0  0  0
   -1.5365    9.9339    1.5363 O   0  0  0  0  0  0  0  0  0  0  0  0
   -0.4154    6.8473    3.1613 O   0  0  0  0  0  0  0  0  0  0  0  0
   -0.1306    8.6021   -0.0424 O   0  0  0  0  0  0  0  0  0  0  0  0
    0.9905    5.5156    1.5826 O   0  0  0  0  0  0  0  0  0  0  0  0
    2.3699    3.9715   -0.6540 C   0  0  0  0  0  0  0  0  0  0  0  0
    1.1482    3.3669   -0.4186 C   0  0  0  0  0  0  0  0  0  0  0  0
    1.1182    1.9850   -0.2020 C   0  0  0  0  0  0  0  0  0  0  0  0
    2.3470    1.2727   -0.2352 C   0  0  0  0  0  0  0  0  0  0  0  0
    3.5316    1.9709   -0.4798 C   0  0  0  0  0  0  0  0  0  0  0  0
    2.3135   -0.1241   -0.0165 C   0  0  0  0  0  0  0  0  0  0  0  0
    1.1349   -0.6935    0.2080 N   0  0  0  0  0  0  0  0  0  0  0  0
    0.0162    0.0124    0.2294 C   0  0  0  0  0  0  0  0  0  0  0  0
   -0.0144    1.3108    0.0333 N   0  0  0  0  0  0  0  0  0  0  0  0
    3.4707   -0.8729   -0.0362 N   0  0  0  0  0  0  0  0  0  0  0  0
    3.4036   -2.2658    0.0620 C   0  0  0  0  0  0  0  0  0  0  0  0
    2.3487   -2.9549   -0.5233 C   0  0  0  0  0  0  0  0  0  0  0  0
    2.2852   -4.3308   -0.4251 C   0  0  0  0  0  0  0  0  0  0  0  0
    3.2702   -5.0234    0.2550 C   0  0  0  0  0  0  0  0  0  0  0  0
    4.3223   -4.3407    0.8391 C   0  0  0  0  0  0  0  0  0  0  0  0
    4.3943   -2.9640    0.7399 C   0  0  0  0  0  0  0  0  0  0  0  0
    5.6670   -5.2925    1.7674 Br  0  0  0  0  0  0  0  0  0  0  0  0
    3.7931    5.9926   -2.3144 H   0  0  0  0  0  0  0  0  0  0  0  0
    3.6926    7.0076   -0.8557 H   0  0  0  0  0  0  0  0  0  0  0  0
    4.5113    5.4286   -0.7865 H   0  0  0  0  0  0  0  0  0  0  0  0
    1.2575    7.0040   -1.4122 H   0  0  0  0  0  0  0  0  0  0  0  0
    0.3333    5.5396   -0.9999 H   0  0  0  0  0  0  0  0  0  0  0  0
   -1.7142    8.4497    4.5381 H   0  0  0  0  0  0  0  0  0  0  0  0
   -0.9254    9.9812    4.0903 H   0  0  0  0  0  0  0  0  0  0  0  0
   -3.1430   10.3279    4.9073 H   0  0  0  0  0  0  0  0  0  0  0  0
   -0.7870   10.5199    1.7093 H   0  0  0  0  0  0  0  0  0  0  0  0
   -1.1649    6.2613    2.9883 H   0  0  0  0  0  0  0  0  0  0  0  0
    0.6189    9.1882    0.1306 H   0  0  0  0  0  0  0  0  0  0  0  0
    0.2410    4.9295    1.4096 H   0  0  0  0  0  0  0  0  0  0  0  0
    0.2383    3.9484   -0.4019 H   0  0  0  0  0  0  0  0  0  0  0  0
    4.4734    1.4430   -0.5077 H   0  0  0  0  0  0  0  0  0  0  0  0
   -0.9145   -0.5025    0.4164 H   0  0  0  0  0  0  0  0  0  0  0  0
    4.3315   -0.4334   -0.1182 H   0  0  0  0  0  0  0  0  0  0  0  0
    1.5788   -2.4149   -1.0543 H   0  0  0  0  0  0  0  0  0  0  0  0
    1.4655   -4.8667   -0.8803 H   0  0  0  0  0  0  0  0  0  0  0  0
    3.2183   -6.0996    0.3299 H   0  0  0  0  0  0  0  0  0  0  0  0
    5.2179   -2.4316    1.1921 H   0  0  0  0  0  0  0  0  0  0  0  0
    3.5740    3.3112   -0.6929 N   0  3  0  0  0  0  0  0  0  0  0  0
    4.4567    3.8037   -0.8730 H   0  0  0  0  0  0  0  0  0  0  0  0
  1  2  1  0  0  0  0
  1 35  1  0  0  0  0
  1 36  1  0  0  0  0
  1 37  1  0  0  0  0
  2  3  1  0  0  0  0
  2 18  1  0  0  0  0
  3  4  1  0  0  0  0
  3 38  1  0  0  0  0
  3 39  1  0  0  0  0
  4  5  1  0  0  0  0
  4  6  1  0  0  0  0
  4 17  1  0  0  0  0
  6  7  1  0  0  0  0
  6  8  1  0  0  0  0
  6 16  1  0  0  0  0
  8  9  1  0  0  0  0
  8 10  1  0  0  0  0
  8 15  1  0  0  0  0
 10 11  1  0  0  0  0
 10 12  1  0  0  0  0
 10 14  1  0  0  0  0
 12 13  1  0  0  0  0
 12 40  1  0  0  0  0
 12 41  1  0  0  0  0
 13 42  1  0  0  0  0
 14 43  1  0  0  0  0
 15 44  1  0  0  0  0
 16 45  1  0  0  0  0
 17 46  1  0  0  0  0
 18 19  2  0  0  0  0
 18 55  1  0  0  0  0
 19 20  1  0  0  0  0
 19 47  1  0  0  0  0
 20 26  2  0  0  0  0
 20 21  1  0  0  0  0
 21 22  1  0  0  0  0
 21 23  2  0  0  0  0
 22 48  1  0  0  0  0
 22 55  2  0  0  0  0
 23 24  1  0  0  0  0
 23 27  1  0  0  0  0
 24 25  2  0  0  0  0
 25 26  1  0  0  0  0
 25 49  1  0  0  0  0
 27 28  1  0  0  0  0
 27 50  1  0  0  0  0
 28 33  2  0  0  0  0
 28 29  1  0  0  0  0
 29 30  2  0  0  0  0
 29 51  1  0  0  0  0
 30 31  1  0  0  0  0
 30 52  1  0  0  0  0
 31 32  2  0  0  0  0
 31 53  1  0  0  0  0
 32 33  1  0  0  0  0
 32 34  1  0  0  0  0
 33 54  1  0  0  0  0
 55 56  1  0  0  0  0
M  CHG  1  55   1
M  END
$$$$
ZINC04617782
  -OEChem-08230709403D

 56 58  0     1  0  0  0  0  0999 V2000
    3.8533   -4.5759    1.1686 C   0  0  0  0  0  0  0  0  0  0  0  0
    2.5619   -3.9694    0.8364 N   0  0  3  0  0  0  0  0  0  0  0  0
    1.3647   -4.8071    0.7307 C   0  0  0  0  0  0  0  0  0  0  0  0
    1.2137   -5.3015   -0.7093 C   0  0  2  0  0  0  0  0  0  0  0  0
    1.2084   -4.4483   -1.3877 H   0  0  0  0  0  0  0  0  0  0  0  0
   -0.1007   -6.0721   -0.8488 C   0  0  1  0  0  0  0  0  0  0  0  0
   -0.9385   -5.3937   -0.6875 H   0  0  0  0  0  0  0  0  0  0  0  0
   -0.1936   -6.6722   -2.2531 C   0  0  1  0  0  0  0  0  0  0  0  0
    0.6442   -7.3506   -2.4144 H   0  0  0  0  0  0  0  0  0  0  0  0
   -1.5080   -7.4428   -2.3926 C   0  0  1  0  0  0  0  0  0  0  0  0
   -2.3457   -6.7644   -2.2312 H   0  0  0  0  0  0  0  0  0  0  0  0
   -1.6008   -8.0429   -3.7969 C   0  0  0  0  0  0  0  0  0  0  0  0
   -2.8770   -8.6631   -3.9665 O   0  0  0  0  0  0  0  0  0  0  0  0
   -1.5506   -8.4914   -1.4227 O   0  0  0  0  0  0  0  0  0  0  0  0
   -0.1510   -5.6236   -3.2230 O   0  0  0  0  0  0  0  0  0  0  0  0
   -0.1433   -7.1207    0.1211 O   0  0  0  0  0  0  0  0  0  0  0  0
    2.3071   -6.1620   -1.0347 O   0  0  0  0  0  0  0  0  0  0  0  0
    2.4725   -2.6001    0.6216 C   0  0  0  0  0  0  0  0  0  0  0  0
    1.2302   -2.0290    0.4120 C   0  0  0  0  0  0  0  0  0  0  0  0
    1.1581   -0.6485    0.1967 C   0  0  0  0  0  0  0  0  0  0  0  0
    2.3674    0.0970    0.2046 C   0  0  0  0  0  0  0  0  0  0  0  0
    3.5753   -0.5685    0.4251 C   0  0  0  0  0  0  0  0  0  0  0  0
    2.2914    1.4923   -0.0133 C   0  0  0  0  0  0  0  0  0  0  0  0
    1.0935    2.0292   -0.2142 N   0  0  0  0  0  0  0  0  0  0  0  0
   -0.0058    1.2930   -0.2125 C   0  0  0  0  0  0  0  0  0  0  0  0
    0.0030   -0.0055   -0.0154 N   0  0  0  0  0  0  0  0  0  0  0  0
    3.4280    2.2722   -0.0183 N   0  0  0  0  0  0  0  0  0  0  0  0
    3.3211    3.6627   -0.1149 C   0  0  0  0  0  0  0  0  0  0  0  0
    2.2595    4.3230    0.4911 C   0  0  0  0  0  0  0  0  0  0  0  0
    2.1564    5.6966    0.3940 C   0  0  0  0  0  0  0  0  0  0  0  0
    3.1084    6.4155   -0.3056 C   0  0  0  0  0  0  0  0  0  0  0  0
    4.1672    5.7615   -0.9100 C   0  0  0  0  0  0  0  0  0  0  0  0
    4.2789    4.3874   -0.8120 C   0  0  0  0  0  0  0  0  0  0  0  0
    5.4666    6.7492   -1.8650 Br  0  0  0  0  0  0  0  0  0  0  0  0
    3.9843   -4.5819    2.2507 H   0  0  0  0  0  0  0  0  0  0  0  0
    3.8815   -5.5990    0.7935 H   0  0  0  0  0  0  0  0  0  0  0  0
    4.6551   -3.9982    0.7088 H   0  0  0  0  0  0  0  0  0  0  0  0
    1.4592   -5.6620    1.4003 H   0  0  0  0  0  0  0  0  0  0  0  0
    0.4871   -4.2233    1.0084 H   0  0  0  0  0  0  0  0  0  0  0  0
   -1.4792   -7.2531   -4.5383 H   0  0  0  0  0  0  0  0  0  0  0  0
   -0.8150   -8.7871   -3.9267 H   0  0  0  0  0  0  0  0  0  0  0  0
   -3.0062   -9.0657   -4.8361 H   0  0  0  0  0  0  0  0  0  0  0  0
   -0.8328   -9.1340   -1.5064 H   0  0  0  0  0  0  0  0  0  0  0  0
   -0.8687   -4.9810   -3.1393 H   0  0  0  0  0  0  0  0  0  0  0  0
    0.5744   -7.7633    0.0374 H   0  0  0  0  0  0  0  0  0  0  0  0
    2.3736   -6.9442   -0.4699 H   0  0  0  0  0  0  0  0  0  0  0  0
    0.3363   -2.6351    0.4141 H   0  0  0  0  0  0  0  0  0  0  0  0
    4.5028   -0.0151    0.4336 H   0  0  0  0  0  0  0  0  0  0  0  0
   -0.9533    1.7816   -0.3854 H   0  0  0  0  0  0  0  0  0  0  0  0
    4.3020    1.8562    0.0451 H   0  0  0  0  0  0  0  0  0  0  0  0
    1.5154    3.7624    1.0374 H   0  0  0  0  0  0  0  0  0  0  0  0
    1.3315    6.2102    0.8654 H   0  0  0  0  0  0  0  0  0  0  0  0
    3.0253    7.4898   -0.3799 H   0  0  0  0  0  0  0  0  0  0  0  0
    5.1077    3.8775   -1.2805 H   0  0  0  0  0  0  0  0  0  0  0  0
    3.6588   -1.9073    0.6352 N   0  3  0  0  0  0  0  0  0  0  0  0
    4.5583   -2.3757    0.7953 H   0  0  0  0  0  0  0  0  0  0  0  0
  1  2  1  0  0  0  0
  1 35  1  0  0  0  0
  1 36  1  0  0  0  0
  1 37  1  0  0  0  0
  2  3  1  0  0  0  0
  2 18  1  0  0  0  0
  3  4  1  0  0  0  0
  3 38  1  0  0  0  0
  3 39  1  0  0  0  0
  4  5  1  0  0  0  0
  4  6  1  0  0  0  0
  4 17  1  0  0  0  0
  6  7  1  0  0  0  0
  6  8  1  0  0  0  0
  6 16  1  0  0  0  0
  8  9  1  0  0  0  0
  8 10  1  0  0  0  0
  8 15  1  0  0  0  0
 10 11  1  0  0  0  0
 10 12  1  0  0  0  0
 10 14  1  0  0  0  0
 12 13  1  0  0  0  0
 12 40  1  0  0  0  0
 12 41  1  0  0  0  0
 13 42  1  0  0  0  0
 14 43  1  0  0  0  0
 15 44  1  0  0  0  0
 16 45  1  0  0  0  0
 17 46  1  0  0  0  0
 18 19  2  0  0  0  0
 18 55  1  0  0  0  0
 19 20  1  0  0  0  0
 19 47  1  0  0  0  0
 20 26  2  0  0  0  0
 20 21  1  0  0  0  0
 21 22  1  0  0  0  0
 21 23  2  0  0  0  0
 22 48  1  0  0  0  0
 22 55  2  0  0  0  0
 23 24  1  0  0  0  0
 23 27  1  0  0  0  0
 24 25  2  0  0  0  0
 25 26  1  0  0  0  0
 25 49  1  0  0  0  0
 27 28  1  0  0  0  0
 27 50  1  0  0  0  0
 28 33  2  0  0  0  0
 28 29  1  0  0  0  0
 29 30  2  0  0  0  0
 29 51  1  0  0  0  0
 30 31  1  0  0  0  0
 30 52  1  0  0  0  0
 31 32  2  0  0  0  0
 31 53  1  0  0  0  0
 32 33  1  0  0  0  0
 32 34  1  0  0  0  0
 33 54  1  0  0  0  0
 55 56  1  0  0  0  0
M  CHG  1  55   1
M  END
$$$$
ZINC04617785
  -OEChem-08230709403D

 55 57  0     1  0  0  0  0  0999 V2000
    6.7322   -0.7584   -4.9009 C   0  0  0  0  0  0  0  0  0  0  0  0
    6.1692   -1.9598   -4.1390 C   0  0  0  0  0  0  0  0  0  0  0  0
    7.8572   -1.7204   -2.4197 C   0  0  0  0  0  0  0  0  0  0  0  0
    8.4805   -3.1038   -2.6160 C   0  0  0  0  0  0  0  0  0  0  0  0
    5.7238   -0.5995   -2.1861 C   0  0  0  0  0  0  0  0  0  0  0  0
    4.2338   -0.9080   -2.0255 C   0  0  1  0  0  0  0  0  0  0  0  0
    4.1120   -1.8092   -1.4246 H   0  0  0  0  0  0  0  0  0  0  0  0
    3.5420    0.2661   -1.3301 C   0  0  0  0  0  0  0  0  0  0  0  0
    2.1419   -0.0771   -1.0690 N   0  0  0  0  0  0  0  0  0  0  0  0
    1.3054    0.8414   -0.4394 C   0  0  0  0  0  0  0  0  0  0  0  0
    1.8120    2.0750   -0.0667 C   0  0  0  0  0  0  0  0  0  0  0  0
    0.9552    2.9803    0.5622 C   0  0  0  0  0  0  0  0  0  0  0  0
   -0.3921    2.5997    0.7923 C   0  0  0  0  0  0  0  0  0  0  0  0
   -0.8103    1.3288    0.3787 C   0  0  0  0  0  0  0  0  0  0  0  0
   -1.2101    3.4755    1.3914 N   0  0  0  0  0  0  0  0  0  0  0  0
   -0.7769    4.6535    1.7666 C   0  0  0  0  0  0  0  0  0  0  0  0
    0.4645    5.0754    1.5845 N   0  0  0  0  0  0  0  0  0  0  0  0
    1.3762    4.3082    0.9983 C   0  0  0  0  0  0  0  0  0  0  0  0
    2.6698    4.7490    0.8084 N   0  0  0  0  0  0  0  0  0  0  0  0
    3.0133    6.0658    1.1270 C   0  0  0  0  0  0  0  0  0  0  0  0
    4.2804    6.3555    1.6180 C   0  0  0  0  0  0  0  0  0  0  0  0
    4.6170    7.6574    1.9319 C   0  0  0  0  0  0  0  0  0  0  0  0
    3.6947    8.6731    1.7578 C   0  0  0  0  0  0  0  0  0  0  0  0
    2.4319    8.3886    1.2692 C   0  0  0  0  0  0  0  0  0  0  0  0
    2.0907    7.0883    0.9481 C   0  0  0  0  0  0  0  0  0  0  0  0
    1.1745    9.7811    1.0330 Br  0  0  0  0  0  0  0  0  0  0  0  0
    3.6480   -1.1113   -3.3130 O   0  0  0  0  0  0  0  0  0  0  0  0
    7.8147   -0.7251   -4.7782 H   0  0  0  0  0  0  0  0  0  0  0  0
    6.4893   -0.8531   -5.9593 H   0  0  0  0  0  0  0  0  0  0  0  0
    6.2936    0.1589   -4.5081 H   0  0  0  0  0  0  0  0  0  0  0  0
    6.6572   -2.8709   -4.4853 H   0  0  0  0  0  0  0  0  0  0  0  0
    5.0962   -2.0324   -4.3166 H   0  0  0  0  0  0  0  0  0  0  0  0
    8.3276   -1.0102   -3.0997 H   0  0  0  0  0  0  0  0  0  0  0  0
    8.0115   -1.3951   -1.3909 H   0  0  0  0  0  0  0  0  0  0  0  0
    9.5263   -3.0780   -2.3096 H   0  0  0  0  0  0  0  0  0  0  0  0
    7.9426   -3.8338   -2.0111 H   0  0  0  0  0  0  0  0  0  0  0  0
    8.4167   -3.3853   -3.6671 H   0  0  0  0  0  0  0  0  0  0  0  0
    5.8504    0.2268   -2.8855 H   0  0  0  0  0  0  0  0  0  0  0  0
    6.1441   -0.3245   -1.2187 H   0  0  0  0  0  0  0  0  0  0  0  0
    3.5868    1.1461   -1.9718 H   0  0  0  0  0  0  0  0  0  0  0  0
    4.0460    0.4781   -0.3871 H   0  0  0  0  0  0  0  0  0  0  0  0
    1.7974   -0.9441   -1.3347 H   0  0  0  0  0  0  0  0  0  0  0  0
    2.8437    2.3307   -0.2583 H   0  0  0  0  0  0  0  0  0  0  0  0
   -1.8311    1.0167    0.5430 H   0  0  0  0  0  0  0  0  0  0  0  0
   -1.4749    5.3215    2.2493 H   0  0  0  0  0  0  0  0  0  0  0  0
    3.3409    4.1449    0.4539 H   0  0  0  0  0  0  0  0  0  0  0  0
    5.0013    5.5630    1.7543 H   0  0  0  0  0  0  0  0  0  0  0  0
    5.6018    7.8827    2.3135 H   0  0  0  0  0  0  0  0  0  0  0  0
    3.9609    9.6905    2.0035 H   0  0  0  0  0  0  0  0  0  0  0  0
    1.1064    6.8671    0.5625 H   0  0  0  0  0  0  0  0  0  0  0  0
    3.7195   -0.3481   -3.9026 H   0  0  0  0  0  0  0  0  0  0  0  0
    6.4064   -1.8107   -2.6877 N   0  3  0  0  0  0  0  0  0  0  0  0
    6.0280   -2.6322   -2.2018 H   0  0  0  0  0  0  0  0  0  0  0  0
    0.0098    0.4374   -0.2342 N   0  3  0  0  0  0  0  0  0  0  0  0
   -0.3212   -0.4890   -0.5284 H   0  0  0  0  0  0  0  0  0  0  0  0
  1  2  1  0  0  0  0
  1 28  1  0  0  0  0
  1 29  1  0  0  0  0
  1 30  1  0  0  0  0
  2 31  1  0  0  0  0
  2 32  1  0  0  0  0
  2 52  1  0  0  0  0
  3  4  1  0  0  0  0
  3 33  1  0  0  0  0
  3 34  1  0  0  0  0
  3 52  1  0  0  0  0
  4 35  1  0  0  0  0
  4 36  1  0  0  0  0
  4 37  1  0  0  0  0
  5  6  1  0  0  0  0
  5 38  1  0  0  0  0
  5 39  1  0  0  0  0
  5 52  1  0  0  0  0
  6  7  1  0  0  0  0
  6  8  1  0  0  0  0
  6 27  1  0  0  0  0
  8  9  1  0  0  0  0
  8 40  1  0  0  0  0
  8 41  1  0  0  0  0
  9 10  1  0  0  0  0
  9 42  1  0  0  0  0
 10 11  2  0  0  0  0
 10 54  1  0  0  0  0
 11 12  1  0  0  0  0
 11 43  1  0  0  0  0
 12 18  2  0  0  0  0
 12 13  1  0  0  0  0
 13 14  1  0  0  0  0
 13 15  2  0  0  0  0
 14 44  1  0  0  0  0
 14 54  2  0  0  0  0
 15 16  1  0  0  0  0
 16 17  2  0  0  0  0
 16 45  1  0  0  0  0
 17 18  1  0  0  0  0
 18 19  1  0  0  0  0
 19 20  1  0  0  0  0
 19 46  1  0  0  0  0
 20 25  2  0  0  0  0
 20 21  1  0  0  0  0
 21 22  2  0  0  0  0
 21 47  1  0  0  0  0
 22 23  1  0  0  0  0
 22 48  1  0  0  0  0
 23 24  2  0  0  0  0
 23 49  1  0  0  0  0
 24 25  1  0  0  0  0
 24 26  1  0  0  0  0
 25 50  1  0  0  0  0
 27 51  1  0  0  0  0
 52 53  1  0  0  0  0
 54 55  1  0  0  0  0
M  CHG  2  52   1  54   1
M  END
$$$$
ZINC04617786
  -OEChem-08230709403D

 53 55  0     1  0  0  0  0  0999 V2000
    2.1577    5.6966    0.3942 C   0  0  0  0  0  0  0  0  0  0  0  0
    2.2603    4.3225    0.4909 C   0  0  0  0  0  0  0  0  0  0  0  0
    3.3215    3.6622   -0.1150 C   0  0  0  0  0  0  0  0  0  0  0  0
    4.2797    4.3869   -0.8123 C   0  0  0  0  0  0  0  0  0  0  0  0
    4.1688    5.7608   -0.9094 C   0  0  0  0  0  0  0  0  0  0  0  0
    3.1100    6.4152   -0.3043 C   0  0  0  0  0  0  0  0  0  0  0  0
    5.4687    6.7483   -1.8638 Br  0  0  0  0  0  0  0  0  0  0  0  0
    3.4281    2.2717   -0.0184 N   0  0  0  0  0  0  0  0  0  0  0  0
    2.2914    1.4919   -0.0144 C   0  0  0  0  0  0  0  0  0  0  0  0
    2.3671    0.0967    0.2035 C   0  0  0  0  0  0  0  0  0  0  0  0
    3.5751   -0.5691    0.4250 C   0  0  0  0  0  0  0  0  0  0  0  0
    2.4717   -2.6006    0.6204 C   0  0  0  0  0  0  0  0  0  0  0  0
    1.2299   -2.0296    0.4098 C   0  0  0  0  0  0  0  0  0  0  0  0
    1.1580   -0.6486    0.1945 C   0  0  0  0  0  0  0  0  0  0  0  0
    0.0031   -0.0057   -0.0186 N   0  0  0  0  0  0  0  0  0  0  0  0
   -0.0056    1.2929   -0.2155 C   0  0  0  0  0  0  0  0  0  0  0  0
    1.0937    2.0290   -0.2163 N   0  0  0  0  0  0  0  0  0  0  0  0
    2.5608   -3.9699    0.8351 N   0  0  0  0  0  0  0  0  0  0  0  0
    1.3480   -4.7916    0.8367 C   0  0  0  0  0  0  0  0  0  0  0  0
    1.7221   -6.2527    1.0938 C   0  0  1  0  0  0  0  0  0  0  0  0
    2.2186   -6.3358    2.0606 H   0  0  0  0  0  0  0  0  0  0  0  0
    0.4554   -7.1108    1.0955 C   0  0  1  0  0  0  0  0  0  0  0  0
   -0.0410   -7.0276    0.1287 H   0  0  0  0  0  0  0  0  0  0  0  0
    0.8296   -8.5719    1.3526 C   0  0  1  0  0  0  0  0  0  0  0  0
    1.3261   -8.6551    2.3194 H   0  0  0  0  0  0  0  0  0  0  0  0
   -0.4371   -9.4300    1.3543 C   0  0  1  0  0  0  0  0  0  0  0  0
   -0.9335   -9.3469    0.3875 H   0  0  0  0  0  0  0  0  0  0  0  0
   -0.0629  -10.8911    1.6114 C   0  0  0  0  0  0  0  0  0  0  0  0
   -1.2294  -11.7087    1.4977 O   0  0  0  0  0  0  0  0  0  0  0  0
   -1.3187   -8.9759    2.3831 O   0  0  0  0  0  0  0  0  0  0  0  0
    1.7113   -9.0260    0.3238 O   0  0  0  0  0  0  0  0  0  0  0  0
   -0.4262   -6.6567    2.1243 O   0  0  0  0  0  0  0  0  0  0  0  0
    2.6038   -6.7068    0.0650 O   0  0  0  0  0  0  0  0  0  0  0  0
    1.3327    6.2103    0.8653 H   0  0  0  0  0  0  0  0  0  0  0  0
    1.5159    3.7620    1.0368 H   0  0  0  0  0  0  0  0  0  0  0  0
    5.1084    3.8769   -1.2807 H   0  0  0  0  0  0  0  0  0  0  0  0
    3.0277    7.4896   -0.3778 H   0  0  0  0  0  0  0  0  0  0  0  0
    4.3020    1.8556    0.0458 H   0  0  0  0  0  0  0  0  0  0  0  0
    4.5026   -0.0158    0.4344 H   0  0  0  0  0  0  0  0  0  0  0  0
    0.3360   -2.6356    0.4110 H   0  0  0  0  0  0  0  0  0  0  0  0
   -0.9530    1.7814   -0.3892 H   0  0  0  0  0  0  0  0  0  0  0  0
    3.4261   -4.3821    0.9840 H   0  0  0  0  0  0  0  0  0  0  0  0
    0.6755   -4.4452    1.6214 H   0  0  0  0  0  0  0  0  0  0  0  0
    0.8515   -4.7084   -0.1301 H   0  0  0  0  0  0  0  0  0  0  0  0
    0.6778  -11.2109    0.8785 H   0  0  0  0  0  0  0  0  0  0  0  0
    0.3528  -10.9886    2.6143 H   0  0  0  0  0  0  0  0  0  0  0  0
   -1.0664  -12.6498    1.6487 H   0  0  0  0  0  0  0  0  0  0  0  0
   -0.9419   -9.0217    3.2725 H   0  0  0  0  0  0  0  0  0  0  0  0
    1.3345   -8.9802   -0.5656 H   0  0  0  0  0  0  0  0  0  0  0  0
   -0.0494   -6.7025    3.0137 H   0  0  0  0  0  0  0  0  0  0  0  0
    2.2270   -6.6610   -0.8244 H   0  0  0  0  0  0  0  0  0  0  0  0
    3.6583   -1.9077    0.6351 N   0  3  0  0  0  0  0  0  0  0  0  0
    4.5576   -2.3762    0.7959 H   0  0  0  0  0  0  0  0  0  0  0  0
  1  6  2  0  0  0  0
  1  2  1  0  0  0  0
  1 34  1  0  0  0  0
  2  3  2  0  0  0  0
  2 35  1  0  0  0  0
  3  4  1  0  0  0  0
  3  8  1  0  0  0  0
  4  5  2  0  0  0  0
  4 36  1  0  0  0  0
  5  6  1  0  0  0  0
  5  7  1  0  0  0  0
  6 37  1  0  0  0  0
  8  9  1  0  0  0  0
  8 38  1  0  0  0  0
  9 17  2  0  0  0  0
  9 10  1  0  0  0  0
 10 14  2  0  0  0  0
 10 11  1  0  0  0  0
 11 39  1  0  0  0  0
 11 52  2  0  0  0  0
 12 13  2  0  0  0  0
 12 18  1  0  0  0  0
 12 52  1  0  0  0  0
 13 14  1  0  0  0  0
 13 40  1  0  0  0  0
 14 15  1  0  0  0  0
 15 16  2  0  0  0  0
 16 17  1  0  0  0  0
 16 41  1  0  0  0  0
 18 19  1  0  0  0  0
 18 42  1  0  0  0  0
 19 20  1  0  0  0  0
 19 43  1  0  0  0  0
 19 44  1  0  0  0  0
 20 21  1  0  0  0  0
 20 22  1  0  0  0  0
 20 33  1  0  0  0  0
 22 23  1  0  0  0  0
 22 24  1  0  0  0  0
 22 32  1  0  0  0  0
 24 25  1  0  0  0  0
 24 26  1  0  0  0  0
 24 31  1  0  0  0  0
 26 27  1  0  0  0  0
 26 28  1  0  0  0  0
 26 30  1  0  0  0  0
 28 29  1  0  0  0  0
 28 45  1  0  0  0  0
 28 46  1  0  0  0  0
 29 47  1  0  0  0  0
 30 48  1  0  0  0  0
 31 49  1  0  0  0  0
 32 50  1  0  0  0  0
 33 51  1  0  0  0  0
 52 53  1  0  0  0  0
M  CHG  1  52   1
M  END
$$$$
ZINC04617787
  -OEChem-08230709403D

 53 55  0     1  0  0  0  0  0999 V2000
    2.2861   -4.3306   -0.4267 C   0  0  0  0  0  0  0  0  0  0  0  0
    2.3494   -2.9542   -0.5245 C   0  0  0  0  0  0  0  0  0  0  0  0
    3.4040   -2.2653    0.0607 C   0  0  0  0  0  0  0  0  0  0  0  0
    4.3952   -2.9637    0.7383 C   0  0  0  0  0  0  0  0  0  0  0  0
    4.3235   -4.3401    0.8371 C   0  0  0  0  0  0  0  0  0  0  0  0
    3.2711   -5.0230    0.2527 C   0  0  0  0  0  0  0  0  0  0  0  0
    5.6685   -5.2920    1.7649 Br  0  0  0  0  0  0  0  0  0  0  0  0
    3.4708   -0.8724   -0.0371 N   0  0  0  0  0  0  0  0  0  0  0  0
    2.3135   -0.1237   -0.0165 C   0  0  0  0  0  0  0  0  0  0  0  0
    2.3467    1.2731   -0.2347 C   0  0  0  0  0  0  0  0  0  0  0  0
    3.5313    1.9715   -0.4807 C   0  0  0  0  0  0  0  0  0  0  0  0
    2.3690    3.9720   -0.6534 C   0  0  0  0  0  0  0  0  0  0  0  0
    1.1479    3.3674   -0.4176 C   0  0  0  0  0  0  0  0  0  0  0  0
    1.1181    1.9851   -0.2010 C   0  0  0  0  0  0  0  0  0  0  0  0
   -0.0143    1.3108    0.0347 N   0  0  0  0  0  0  0  0  0  0  0  0
    0.0164    0.0124    0.2308 C   0  0  0  0  0  0  0  0  0  0  0  0
    1.1351   -0.6934    0.2085 N   0  0  0  0  0  0  0  0  0  0  0  0
    2.4162    5.3430   -0.8707 N   0  0  0  0  0  0  0  0  0  0  0  0
    1.1814    6.1310   -0.8486 C   0  0  0  0  0  0  0  0  0  0  0  0
    1.5101    7.6015   -1.1141 C   0  0  2  0  0  0  0  0  0  0  0  0
    2.2562    7.9424   -0.3963 H   0  0  0  0  0  0  0  0  0  0  0  0
    0.2402    8.4424   -0.9679 C   0  0  1  0  0  0  0  0  0  0  0  0
   -0.1028    8.4057    0.0660 H   0  0  0  0  0  0  0  0  0  0  0  0
    0.5411    9.8919   -1.3544 C   0  0  1  0  0  0  0  0  0  0  0  0
    0.8841    9.9285   -2.3883 H   0  0  0  0  0  0  0  0  0  0  0  0
   -0.7288   10.7327   -1.2082 C   0  0  1  0  0  0  0  0  0  0  0  0
   -1.0718   10.6961   -0.1742 H   0  0  0  0  0  0  0  0  0  0  0  0
   -0.4280   12.1822   -1.5947 C   0  0  0  0  0  0  0  0  0  0  0  0
   -1.5805   12.9901   -1.3477 O   0  0  0  0  0  0  0  0  0  0  0  0
   -1.7461   10.2123   -2.0663 O   0  0  0  0  0  0  0  0  0  0  0  0
    1.5583   10.4123   -0.4963 O   0  0  0  0  0  0  0  0  0  0  0  0
   -0.7771    7.9220   -1.8260 O   0  0  0  0  0  0  0  0  0  0  0  0
    2.0249    7.7427   -2.4396 O   0  0  0  0  0  0  0  0  0  0  0  0
    1.4664   -4.8665   -0.8820 H   0  0  0  0  0  0  0  0  0  0  0  0
    1.5793   -2.4141   -1.0552 H   0  0  0  0  0  0  0  0  0  0  0  0
    5.2188   -2.4314    1.1906 H   0  0  0  0  0  0  0  0  0  0  0  0
    3.2194   -6.0992    0.3274 H   0  0  0  0  0  0  0  0  0  0  0  0
    4.3315   -0.4327   -0.1195 H   0  0  0  0  0  0  0  0  0  0  0  0
    4.4731    1.4437   -0.5092 H   0  0  0  0  0  0  0  0  0  0  0  0
    0.2379    3.9488   -0.4006 H   0  0  0  0  0  0  0  0  0  0  0  0
   -0.9142   -0.5025    0.4185 H   0  0  0  0  0  0  0  0  0  0  0  0
    3.2667    5.7787   -1.0372 H   0  0  0  0  0  0  0  0  0  0  0  0
    0.5031    5.7654   -1.6195 H   0  0  0  0  0  0  0  0  0  0  0  0
    0.7068    6.0354    0.1280 H   0  0  0  0  0  0  0  0  0  0  0  0
    0.4081   12.5507   -1.0002 H   0  0  0  0  0  0  0  0  0  0  0  0
   -0.1705   12.2302   -2.6527 H   0  0  0  0  0  0  0  0  0  0  0  0
   -1.4616   13.9235   -1.5704 H   0  0  0  0  0  0  0  0  0  0  0  0
   -1.5089   10.2143   -3.0038 H   0  0  0  0  0  0  0  0  0  0  0  0
    1.3211   10.4103    0.4412 H   0  0  0  0  0  0  0  0  0  0  0  0
   -0.5399    7.9240   -2.7635 H   0  0  0  0  0  0  0  0  0  0  0  0
    1.4127    7.4577   -3.1318 H   0  0  0  0  0  0  0  0  0  0  0  0
    3.5735    3.3118   -0.6923 N   0  3  0  0  0  0  0  0  0  0  0  0
    4.4562    3.8047   -0.8714 H   0  0  0  0  0  0  0  0  0  0  0  0
  1  6  2  0  0  0  0
  1  2  1  0  0  0  0
  1 34  1  0  0  0  0
  2  3  2  0  0  0  0
  2 35  1  0  0  0  0
  3  4  1  0  0  0  0
  3  8  1  0  0  0  0
  4  5  2  0  0  0  0
  4 36  1  0  0  0  0
  5  6  1  0  0  0  0
  5  7  1  0  0  0  0
  6 37  1  0  0  0  0
  8  9  1  0  0  0  0
  8 38  1  0  0  0  0
  9 17  2  0  0  0  0
  9 10  1  0  0  0  0
 10 14  2  0  0  0  0
 10 11  1  0  0  0  0
 11 39  1  0  0  0  0
 11 52  2  0  0  0  0
 12 13  2  0  0  0  0
 12 18  1  0  0  0  0
 12 52  1  0  0  0  0
 13 14  1  0  0  0  0
 13 40  1  0  0  0  0
 14 15  1  0  0  0  0
 15 16  2  0  0  0  0
 16 17  1  0  0  0  0
 16 41  1  0  0  0  0
 18 19  1  0  0  0  0
 18 42  1  0  0  0  0
 19 20  1  0  0  0  0
 19 43  1  0  0  0  0
 19 44  1  0  0  0  0
 20 21  1  0  0  0  0
 20 22  1  0  0  0  0
 20 33  1  0  0  0  0
 22 23  1  0  0  0  0
 22 24  1  0  0  0  0
 22 32  1  0  0  0  0
 24 25  1  0  0  0  0
 24 26  1  0  0  0  0
 24 31  1  0  0  0  0
 26 27  1  0  0  0  0
 26 28  1  0  0  0  0
 26 30  1  0  0  0  0
 28 29  1  0  0  0  0
 28 45  1  0  0  0  0
 28 46  1  0  0  0  0
 29 47  1  0  0  0  0
 30 48  1  0  0  0  0
 31 49  1  0  0  0  0
 32 50  1  0  0  0  0
 33 51  1  0  0  0  0
 52 53  1  0  0  0  0
M  CHG  1  52   1
M  END
$$$$
ZINC04617788
  -OEChem-08230709403D

 53 55  0     1  0  0  0  0  0999 V2000
    2.1577    5.6966    0.3942 C   0  0  0  0  0  0  0  0  0  0  0  0
    2.2603    4.3225    0.4909 C   0  0  0  0  0  0  0  0  0  0  0  0
    3.3215    3.6622   -0.1150 C   0  0  0  0  0  0  0  0  0  0  0  0
    4.2797    4.3869   -0.8123 C   0  0  0  0  0  0  0  0  0  0  0  0
    4.1688    5.7608   -0.9094 C   0  0  0  0  0  0  0  0  0  0  0  0
    3.1100    6.4152   -0.3043 C   0  0  0  0  0  0  0  0  0  0  0  0
    5.4687    6.7483   -1.8638 Br  0  0  0  0  0  0  0  0  0  0  0  0
    3.4281    2.2717   -0.0184 N   0  0  0  0  0  0  0  0  0  0  0  0
    2.2914    1.4919   -0.0144 C   0  0  0  0  0  0  0  0  0  0  0  0
    2.3671    0.0967    0.2035 C   0  0  0  0  0  0  0  0  0  0  0  0
    3.5751   -0.5691    0.4250 C   0  0  0  0  0  0  0  0  0  0  0  0
    2.4717   -2.6006    0.6204 C   0  0  0  0  0  0  0  0  0  0  0  0
    1.2299   -2.0296    0.4098 C   0  0  0  0  0  0  0  0  0  0  0  0
    1.1580   -0.6486    0.1945 C   0  0  0  0  0  0  0  0  0  0  0  0
    0.0031   -0.0057   -0.0186 N   0  0  0  0  0  0  0  0  0  0  0  0
   -0.0056    1.2929   -0.2155 C   0  0  0  0  0  0  0  0  0  0  0  0
    1.0937    2.0290   -0.2163 N   0  0  0  0  0  0  0  0  0  0  0  0
    2.5608   -3.9699    0.8351 N   0  0  0  0  0  0  0  0  0  0  0  0
    1.3480   -4.7916    0.8367 C   0  0  0  0  0  0  0  0  0  0  0  0
    1.7221   -6.2527    1.0938 C   0  0  1  0  0  0  0  0  0  0  0  0
    2.2186   -6.3358    2.0606 H   0  0  0  0  0  0  0  0  0  0  0  0
    0.4554   -7.1108    1.0955 C   0  0  2  0  0  0  0  0  0  0  0  0
   -0.1772   -6.8231    1.9351 H   0  0  0  0  0  0  0  0  0  0  0  0
    0.8390   -8.5860    1.2279 C   0  0  1  0  0  0  0  0  0  0  0  0
    1.3030   -8.7549    2.1996 H   0  0  0  0  0  0  0  0  0  0  0  0
   -0.4160   -9.4524    1.1045 C   0  0  1  0  0  0  0  0  0  0  0  0
   -0.8800   -9.2834    0.1328 H   0  0  0  0  0  0  0  0  0  0  0  0
   -0.0325  -10.9276    1.2370 C   0  0  0  0  0  0  0  0  0  0  0  0
   -1.1839  -11.7417    1.0062 O   0  0  0  0  0  0  0  0  0  0  0  0
   -1.3381   -9.1052    2.1395 O   0  0  0  0  0  0  0  0  0  0  0  0
    1.7611   -8.9332    0.1929 O   0  0  0  0  0  0  0  0  0  0  0  0
   -0.2564   -6.9117   -0.1275 O   0  0  0  0  0  0  0  0  0  0  0  0
    2.6038   -6.7068    0.0650 O   0  0  0  0  0  0  0  0  0  0  0  0
    1.3327    6.2103    0.8653 H   0  0  0  0  0  0  0  0  0  0  0  0
    1.5159    3.7620    1.0368 H   0  0  0  0  0  0  0  0  0  0  0  0
    5.1084    3.8769   -1.2807 H   0  0  0  0  0  0  0  0  0  0  0  0
    3.0277    7.4896   -0.3778 H   0  0  0  0  0  0  0  0  0  0  0  0
    4.3020    1.8556    0.0458 H   0  0  0  0  0  0  0  0  0  0  0  0
    4.5026   -0.0158    0.4344 H   0  0  0  0  0  0  0  0  0  0  0  0
    0.3360   -2.6356    0.4110 H   0  0  0  0  0  0  0  0  0  0  0  0
   -0.9530    1.7814   -0.3892 H   0  0  0  0  0  0  0  0  0  0  0  0
    3.4261   -4.3821    0.9840 H   0  0  0  0  0  0  0  0  0  0  0  0
    0.6755   -4.4452    1.6214 H   0  0  0  0  0  0  0  0  0  0  0  0
    0.8515   -4.7084   -0.1301 H   0  0  0  0  0  0  0  0  0  0  0  0
    0.7369  -11.1702    0.5040 H   0  0  0  0  0  0  0  0  0  0  0  0
    0.3498  -11.1149    2.2404 H   0  0  0  0  0  0  0  0  0  0  0  0
   -1.0143  -12.6913    1.0742 H   0  0  0  0  0  0  0  0  0  0  0  0
   -0.9915   -9.2307    3.0335 H   0  0  0  0  0  0  0  0  0  0  0  0
    1.4145   -8.8077   -0.7010 H   0  0  0  0  0  0  0  0  0  0  0  0
    0.2471   -7.1477   -0.9186 H   0  0  0  0  0  0  0  0  0  0  0  0
    2.2270   -6.6610   -0.8244 H   0  0  0  0  0  0  0  0  0  0  0  0
    3.6583   -1.9077    0.6351 N   0  3  0  0  0  0  0  0  0  0  0  0
    4.5576   -2.3762    0.7959 H   0  0  0  0  0  0  0  0  0  0  0  0
  1  6  2  0  0  0  0
  1  2  1  0  0  0  0
  1 34  1  0  0  0  0
  2  3  2  0  0  0  0
  2 35  1  0  0  0  0
  3  4  1  0  0  0  0
  3  8  1  0  0  0  0
  4  5  2  0  0  0  0
  4 36  1  0  0  0  0
  5  6  1  0  0  0  0
  5  7  1  0  0  0  0
  6 37  1  0  0  0  0
  8  9  1  0  0  0  0
  8 38  1  0  0  0  0
  9 17  2  0  0  0  0
  9 10  1  0  0  0  0
 10 14  2  0  0  0  0
 10 11  1  0  0  0  0
 11 39  1  0  0  0  0
 11 52  2  0  0  0  0
 12 13  2  0  0  0  0
 12 18  1  0  0  0  0
 12 52  1  0  0  0  0
 13 14  1  0  0  0  0
 13 40  1  0  0  0  0
 14 15  1  0  0  0  0
 15 16  2  0  0  0  0
 16 17  1  0  0  0  0
 16 41  1  0  0  0  0
 18 19  1  0  0  0  0
 18 42  1  0  0  0  0
 19 20  1  0  0  0  0
 19 43  1  0  0  0  0
 19 44  1  0  0  0  0
 20 21  1  0  0  0  0
 20 22  1  0  0  0  0
 20 33  1  0  0  0  0
 22 23  1  0  0  0  0
 22 24  1  0  0  0  0
 22 32  1  0  0  0  0
 24 25  1  0  0  0  0
 24 26  1  0  0  0  0
 24 31  1  0  0  0  0
 26 27  1  0  0  0  0
 26 28  1  0  0  0  0
 26 30  1  0  0  0  0
 28 29  1  0  0  0  0
 28 45  1  0  0  0  0
 28 46  1  0  0  0  0
 29 47  1  0  0  0  0
 30 48  1  0  0  0  0
 31 49  1  0  0  0  0
 32 50  1  0  0  0  0
 33 51  1  0  0  0  0
 52 53  1  0  0  0  0
M  CHG  1  52   1
M  END
$$$$
ZINC04617789
  -OEChem-08230709403D

 53 55  0     1  0  0  0  0  0999 V2000
    4.6093   -0.7479   13.8532 C   0  0  0  0  0  0  0  0  0  0  0  0
    4.1532   -0.3150   12.6233 C   0  0  0  0  0  0  0  0  0  0  0  0
    2.7983   -0.3794   12.3244 C   0  0  0  0  0  0  0  0  0  0  0  0
    1.9050   -0.8740   13.2662 C   0  0  0  0  0  0  0  0  0  0  0  0
    2.3680   -1.3098   14.4929 C   0  0  0  0  0  0  0  0  0  0  0  0
    3.7189   -1.2445   14.7869 C   0  0  0  0  0  0  0  0  0  0  0  0
    1.1542   -1.9894   15.7737 Br  0  0  0  0  0  0  0  0  0  0  0  0
    2.3340    0.0578   11.0805 N   0  0  0  0  0  0  0  0  0  0  0  0
    3.1033   -0.1310    9.9523 C   0  0  0  0  0  0  0  0  0  0  0  0
    2.7109    0.4087    8.7055 C   0  0  0  0  0  0  0  0  0  0  0  0
    1.5403    1.1526    8.5387 C   0  0  0  0  0  0  0  0  0  0  0  0
    1.9871    1.4336    6.2794 C   0  0  0  0  0  0  0  0  0  0  0  0
    3.1635    0.7098    6.3472 C   0  0  0  0  0  0  0  0  0  0  0  0
    3.5495    0.1774    7.5826 C   0  0  0  0  0  0  0  0  0  0  0  0
    4.6698   -0.5368    7.7476 N   0  0  0  0  0  0  0  0  0  0  0  0
    4.9832   -1.0134    8.9307 C   0  0  0  0  0  0  0  0  0  0  0  0
    4.2346   -0.8245   10.0051 N   0  0  0  0  0  0  0  0  0  0  0  0
    1.5895    1.9689    5.0610 N   0  0  0  0  0  0  0  0  0  0  0  0
    2.4133    1.7638    3.8671 C   0  0  0  0  0  0  0  0  0  0  0  0
    1.7549    2.4509    2.6690 C   0  0  2  0  0  0  0  0  0  0  0  0
    0.7327    2.0889    2.5592 H   0  0  0  0  0  0  0  0  0  0  0  0
    2.5477    2.1329    1.3997 C   0  0  2  0  0  0  0  0  0  0  0  0
    3.5699    2.4950    1.5095 H   0  0  0  0  0  0  0  0  0  0  0  0
    1.8893    2.8200    0.2016 C   0  0  1  0  0  0  0  0  0  0  0  0
    1.9570    3.9014    0.3206 H   0  0  0  0  0  0  0  0  0  0  0  0
    2.6069    2.4025   -1.0835 C   0  0  1  0  0  0  0  0  0  0  0  0
    2.5392    1.3211   -1.2025 H   0  0  0  0  0  0  0  0  0  0  0  0
    1.9485    3.0895   -2.2816 C   0  0  0  0  0  0  0  0  0  0  0  0
    2.5418    2.6111   -3.4903 O   0  0  0  0  0  0  0  0  0  0  0  0
    3.9808    2.7884   -1.0089 O   0  0  0  0  0  0  0  0  0  0  0  0
    0.5154    2.4341    0.1270 O   0  0  0  0  0  0  0  0  0  0  0  0
    2.5629    0.7196    1.1891 O   0  0  0  0  0  0  0  0  0  0  0  0
    1.7397    3.8642    2.8796 O   0  0  0  0  0  0  0  0  0  0  0  0
    5.6627   -0.6979   14.0858 H   0  0  0  0  0  0  0  0  0  0  0  0
    4.8496    0.0728   11.8946 H   0  0  0  0  0  0  0  0  0  0  0  0
    0.8503   -0.9212   13.0385 H   0  0  0  0  0  0  0  0  0  0  0  0
    4.0781   -1.5819   15.7479 H   0  0  0  0  0  0  0  0  0  0  0  0
    1.4704    0.4941   11.0112 H   0  0  0  0  0  0  0  0  0  0  0  0
    0.8929    1.3369    9.3832 H   0  0  0  0  0  0  0  0  0  0  0  0
    3.7704    0.5586    5.4668 H   0  0  0  0  0  0  0  0  0  0  0  0
    5.8939   -1.5853    9.0312 H   0  0  0  0  0  0  0  0  0  0  0  0
    0.7664    2.4785    5.0007 H   0  0  0  0  0  0  0  0  0  0  0  0
    2.5053    0.6961    3.6681 H   0  0  0  0  0  0  0  0  0  0  0  0
    3.4032    2.1895    4.0312 H   0  0  0  0  0  0  0  0  0  0  0  0
    0.8816    2.8663   -2.2873 H   0  0  0  0  0  0  0  0  0  0  0  0
    2.0938    4.1673   -2.2073 H   0  0  0  0  0  0  0  0  0  0  0  0
    2.1722    3.0047   -4.2925 H   0  0  0  0  0  0  0  0  0  0  0  0
    4.1168    3.7398   -0.9024 H   0  0  0  0  0  0  0  0  0  0  0  0
    0.3794    1.4827    0.0205 H   0  0  0  0  0  0  0  0  0  0  0  0
    1.6850    0.3283    1.0827 H   0  0  0  0  0  0  0  0  0  0  0  0
    2.6175    4.2555    2.9860 H   0  0  0  0  0  0  0  0  0  0  0  0
    1.1582    1.6798    7.3474 N   0  3  0  0  0  0  0  0  0  0  0  0
    0.2979    2.2316    7.2499 H   0  0  0  0  0  0  0  0  0  0  0  0
  1  6  2  0  0  0  0
  1  2  1  0  0  0  0
  1 34  1  0  0  0  0
  2  3  2  0  0  0  0
  2 35  1  0  0  0  0
  3  4  1  0  0  0  0
  3  8  1  0  0  0  0
  4  5  2  0  0  0  0
  4 36  1  0  0  0  0
  5  6  1  0  0  0  0
  5  7  1  0  0  0  0
  6 37  1  0  0  0  0
  8  9  1  0  0  0  0
  8 38  1  0  0  0  0
  9 17  2  0  0  0  0
  9 10  1  0  0  0  0
 10 14  2  0  0  0  0
 10 11  1  0  0  0  0
 11 39  1  0  0  0  0
 11 52  2  0  0  0  0
 12 13  2  0  0  0  0
 12 18  1  0  0  0  0
 12 52  1  0  0  0  0
 13 14  1  0  0  0  0
 13 40  1  0  0  0  0
 14 15  1  0  0  0  0
 15 16  2  0  0  0  0
 16 17  1  0  0  0  0
 16 41  1  0  0  0  0
 18 19  1  0  0  0  0
 18 42  1  0  0  0  0
 19 20  1  0  0  0  0
 19 43  1  0  0  0  0
 19 44  1  0  0  0  0
 20 21  1  0  0  0  0
 20 22  1  0  0  0  0
 20 33  1  0  0  0  0
 22 23  1  0  0  0  0
 22 24  1  0  0  0  0
 22 32  1  0  0  0  0
 24 25  1  0  0  0  0
 24 26  1  0  0  0  0
 24 31  1  0  0  0  0
 26 27  1  0  0  0  0
 26 28  1  0  0  0  0
 26 30  1  0  0  0  0
 28 29  1  0  0  0  0
 28 45  1  0  0  0  0
 28 46  1  0  0  0  0
 29 47  1  0  0  0  0
 30 48  1  0  0  0  0
 31 49  1  0  0  0  0
 32 50  1  0  0  0  0
 33 51  1  0  0  0  0
 52 53  1  0  0  0  0
M  CHG  1  52   1
M  END
$$$$
ZINC04617792
  -OEChem-08230709403D

 43 46  0     1  0  0  0  0  0999 V2000
   -3.3461    4.2206   -3.6731 C   0  0  0  0  0  0  0  0  0  0  0  0
   -3.5162    3.7211   -5.0011 O   0  0  0  0  0  0  0  0  0  0  0  0
   -3.0791    2.4569   -5.2458 C   0  0  0  0  0  0  0  0  0  0  0  0
   -2.5086    1.7325   -4.2380 C   0  0  0  0  0  0  0  0  0  0  0  0
   -2.0637    0.4287   -4.4873 C   0  0  0  0  0  0  0  0  0  0  0  0
   -2.1961   -0.1270   -5.7840 C   0  0  0  0  0  0  0  0  0  0  0  0
   -2.7834    0.6336   -6.8022 C   0  0  0  0  0  0  0  0  0  0  0  0
   -3.2186    1.9116   -6.5297 C   0  0  0  0  0  0  0  0  0  0  0  0
   -3.7889    2.6519   -7.5158 O   0  0  0  0  0  0  0  0  0  0  0  0
   -3.9024    2.0409   -8.8026 C   0  0  0  0  0  0  0  0  0  0  0  0
   -1.7554   -1.3767   -5.9980 N   0  0  0  0  0  0  0  0  0  0  0  0
   -1.2088   -2.0650   -5.0244 C   0  0  0  0  0  0  0  0  0  0  0  0
   -1.0597   -1.5856   -3.7996 N   0  0  0  0  0  0  0  0  0  0  0  0
   -1.4606   -0.3622   -3.4804 C   0  0  0  0  0  0  0  0  0  0  0  0
   -1.2993    0.1243   -2.1996 N   0  0  0  0  0  0  0  0  0  0  0  0
   -0.6780   -0.7134   -1.1707 C   0  0  2  0  0  0  0  0  0  0  0  0
   -0.2290   -1.6405   -1.5270 H   0  0  0  0  0  0  0  0  0  0  0  0
   -1.3280   -0.7298    0.2143 C   0  0  0  0  0  0  0  0  0  0  0  0
    0.0021   -0.0041    0.0020 C   0  0  2  0  0  0  0  0  0  0  0  0
    0.8987   -0.4644    0.4170 H   0  0  0  0  0  0  0  0  0  0  0  0
   -0.0184    1.5028    0.0103 C   0  0  0  0  0  0  0  0  0  0  0  0
   -1.2248    2.1776    0.0197 C   0  0  0  0  0  0  0  0  0  0  0  0
   -1.2435    3.5598    0.0322 C   0  0  0  0  0  0  0  0  0  0  0  0
   -0.0559    4.2672    0.0251 C   0  0  0  0  0  0  0  0  0  0  0  0
    1.1505    3.5924    0.0100 C   0  0  0  0  0  0  0  0  0  0  0  0
    1.1693    2.2102    0.0028 C   0  0  0  0  0  0  0  0  0  0  0  0
   -3.8865    3.5833   -2.9732 H   0  0  0  0  0  0  0  0  0  0  0  0
   -2.2862    4.2228   -3.4187 H   0  0  0  0  0  0  0  0  0  0  0  0
   -3.7359    5.2369   -3.6145 H   0  0  0  0  0  0  0  0  0  0  0  0
   -2.4058    2.1617   -3.2523 H   0  0  0  0  0  0  0  0  0  0  0  0
   -2.8940    0.2213   -7.7943 H   0  0  0  0  0  0  0  0  0  0  0  0
   -2.9099    1.7793   -9.1694 H   0  0  0  0  0  0  0  0  0  0  0  0
   -4.5101    1.1394   -8.7244 H   0  0  0  0  0  0  0  0  0  0  0  0
   -4.3738    2.7379   -9.4954 H   0  0  0  0  0  0  0  0  0  0  0  0
   -0.8647   -3.0675   -5.2313 H   0  0  0  0  0  0  0  0  0  0  0  0
   -1.5972    1.0210   -1.9802 H   0  0  0  0  0  0  0  0  0  0  0  0
   -1.3066   -1.6677    0.7692 H   0  0  0  0  0  0  0  0  0  0  0  0
   -2.2179   -0.1174    0.3599 H   0  0  0  0  0  0  0  0  0  0  0  0
   -2.1527    1.6249    0.0211 H   0  0  0  0  0  0  0  0  0  0  0  0
   -2.1860    4.0870    0.0437 H   0  0  0  0  0  0  0  0  0  0  0  0
   -0.0705    5.3471    0.0311 H   0  0  0  0  0  0  0  0  0  0  0  0
    2.0784    4.1450    0.0041 H   0  0  0  0  0  0  0  0  0  0  0  0
    2.1118    1.6830   -0.0091 H   0  0  0  0  0  0  0  0  0  0  0  0
  1  2  1  0  0  0  0
  1 27  1  0  0  0  0
  1 28  1  0  0  0  0
  1 29  1  0  0  0  0
  2  3  1  0  0  0  0
  3  8  2  0  0  0  0
  3  4  1  0  0  0  0
  4  5  2  0  0  0  0
  4 30  1  0  0  0  0
  5 14  1  0  0  0  0
  5  6  1  0  0  0  0
  6  7  2  0  0  0  0
  6 11  1  0  0  0  0
  7  8  1  0  0  0  0
  7 31  1  0  0  0  0
  8  9  1  0  0  0  0
  9 10  1  0  0  0  0
 10 32  1  0  0  0  0
 10 33  1  0  0  0  0
 10 34  1  0  0  0  0
 11 12  2  0  0  0  0
 12 13  1  0  0  0  0
 12 35  1  0  0  0  0
 13 14  2  0  0  0  0
 14 15  1  0  0  0  0
 15 16  1  0  0  0  0
 15 36  1  0  0  0  0
 16 17  1  0  0  0  0
 16 19  1  0  0  0  0
 16 18  1  0  0  0  0
 18 19  1  0  0  0  0
 18 37  1  0  0  0  0
 18 38  1  0  0  0  0
 19 20  1  0  0  0  0
 19 21  1  0  0  0  0
 21 26  2  0  0  0  0
 21 22  1  0  0  0  0
 22 23  2  0  0  0  0
 22 39  1  0  0  0  0
 23 24  1  0  0  0  0
 23 40  1  0  0  0  0
 24 25  2  0  0  0  0
 24 41  1  0  0  0  0
 25 26  1  0  0  0  0
 25 42  1  0  0  0  0
 26 43  1  0  0  0  0
M  END
$$$$
ZINC04617793
  -OEChem-08230709403D

 43 46  0     1  0  0  0  0  0999 V2000
    3.4498    3.5729   -0.0091 C   0  0  0  0  0  0  0  0  0  0  0  0
    3.5429    2.1470   -0.0176 O   0  0  0  0  0  0  0  0  0  0  0  0
    2.3741    1.4520   -0.0107 C   0  0  0  0  0  0  0  0  0  0  0  0
    1.1867    2.1273    0.0022 C   0  0  0  0  0  0  0  0  0  0  0  0
   -0.0171    1.4127    0.0098 C   0  0  0  0  0  0  0  0  0  0  0  0
    0.0021   -0.0041    0.0020 C   0  0  0  0  0  0  0  0  0  0  0  0
    1.2305   -0.6756   -0.0123 C   0  0  0  0  0  0  0  0  0  0  0  0
    2.4009    0.0505   -0.0185 C   0  0  0  0  0  0  0  0  0  0  0  0
    3.5942   -0.5986   -0.0328 O   0  0  0  0  0  0  0  0  0  0  0  0
    3.5557   -2.0270   -0.0406 C   0  0  0  0  0  0  0  0  0  0  0  0
   -1.1664   -0.6647    0.0096 N   0  0  0  0  0  0  0  0  0  0  0  0
   -2.3016   -0.0078    0.0239 C   0  0  0  0  0  0  0  0  0  0  0  0
   -2.3683    1.3142    0.0317 N   0  0  0  0  0  0  0  0  0  0  0  0
   -1.2738    2.0634    0.0312 C   0  0  0  0  0  0  0  0  0  0  0  0
   -1.3582    3.4403    0.0397 N   0  0  0  0  0  0  0  0  0  0  0  0
   -2.6692    4.0937    0.0618 C   0  0  1  0  0  0  0  0  0  0  0  0
   -3.5251    3.4356   -0.0880 H   0  0  0  0  0  0  0  0  0  0  0  0
   -2.8497    5.2834    1.0069 C   0  0  0  0  0  0  0  0  0  0  0  0
   -2.7610    5.5126   -0.5033 C   0  0  2  0  0  0  0  0  0  0  0  0
   -1.8460    5.9599   -0.8915 H   0  0  0  0  0  0  0  0  0  0  0  0
   -4.0280    5.8935   -1.2248 C   0  0  0  0  0  0  0  0  0  0  0  0
   -5.2411    5.8452   -0.5638 C   0  0  0  0  0  0  0  0  0  0  0  0
   -6.4028    6.1984   -1.2246 C   0  0  0  0  0  0  0  0  0  0  0  0
   -6.3524    6.5921   -2.5487 C   0  0  0  0  0  0  0  0  0  0  0  0
   -5.1399    6.6354   -3.2113 C   0  0  0  0  0  0  0  0  0  0  0  0
   -3.9778    6.2860   -2.5494 C   0  0  0  0  0  0  0  0  0  0  0  0
    4.4516    4.0025   -0.0159 H   0  0  0  0  0  0  0  0  0  0  0  0
    2.9054    3.9068   -0.8924 H   0  0  0  0  0  0  0  0  0  0  0  0
    2.9215    3.8972    0.8874 H   0  0  0  0  0  0  0  0  0  0  0  0
    1.1768    3.2072    0.0081 H   0  0  0  0  0  0  0  0  0  0  0  0
    1.2602   -1.7552   -0.0187 H   0  0  0  0  0  0  0  0  0  0  0  0
    3.0402   -2.3815    0.8520 H   0  0  0  0  0  0  0  0  0  0  0  0
    3.0244   -2.3713   -0.9279 H   0  0  0  0  0  0  0  0  0  0  0  0
    4.5732   -2.4179   -0.0519 H   0  0  0  0  0  0  0  0  0  0  0  0
   -3.2233   -0.5708    0.0293 H   0  0  0  0  0  0  0  0  0  0  0  0
   -0.5494    3.9759    0.0310 H   0  0  0  0  0  0  0  0  0  0  0  0
   -3.8245    5.4081    1.4785 H   0  0  0  0  0  0  0  0  0  0  0  0
   -1.9932    5.5796    1.6124 H   0  0  0  0  0  0  0  0  0  0  0  0
   -5.2809    5.5343    0.4697 H   0  0  0  0  0  0  0  0  0  0  0  0
   -7.3501    6.1641   -0.7071 H   0  0  0  0  0  0  0  0  0  0  0  0
   -7.2603    6.8655   -3.0658 H   0  0  0  0  0  0  0  0  0  0  0  0
   -5.1006    6.9427   -4.2459 H   0  0  0  0  0  0  0  0  0  0  0  0
   -3.0305    6.3198   -3.0670 H   0  0  0  0  0  0  0  0  0  0  0  0
  1  2  1  0  0  0  0
  1 27  1  0  0  0  0
  1 28  1  0  0  0  0
  1 29  1  0  0  0  0
  2  3  1  0  0  0  0
  3  8  2  0  0  0  0
  3  4  1  0  0  0  0
  4  5  2  0  0  0  0
  4 30  1  0  0  0  0
  5 14  1  0  0  0  0
  5  6  1  0  0  0  0
  6  7  2  0  0  0  0
  6 11  1  0  0  0  0
  7  8  1  0  0  0  0
  7 31  1  0  0  0  0
  8  9  1  0  0  0  0
  9 10  1  0  0  0  0
 10 32  1  0  0  0  0
 10 33  1  0  0  0  0
 10 34  1  0  0  0  0
 11 12  2  0  0  0  0
 12 13  1  0  0  0  0
 12 35  1  0  0  0  0
 13 14  2  0  0  0  0
 14 15  1  0  0  0  0
 15 16  1  0  0  0  0
 15 36  1  0  0  0  0
 16 17  1  0  0  0  0
 16 19  1  0  0  0  0
 16 18  1  0  0  0  0
 18 19  1  0  0  0  0
 18 37  1  0  0  0  0
 18 38  1  0  0  0  0
 19 20  1  0  0  0  0
 19 21  1  0  0  0  0
 21 26  2  0  0  0  0
 21 22  1  0  0  0  0
 22 23  2  0  0  0  0
 22 39  1  0  0  0  0
 23 24  1  0  0  0  0
 23 40  1  0  0  0  0
 24 25  2  0  0  0  0
 24 41  1  0  0  0  0
 25 26  1  0  0  0  0
 25 42  1  0  0  0  0
 26 43  1  0  0  0  0
M  END
$$$$
ZINC04617794
  -OEChem-08230709403D

 43 46  0     1  0  0  0  0  0999 V2000
    2.4794   -2.7187   -0.0349 C   0  0  0  0  0  0  0  0  0  0  0  0
    1.2096   -2.0634   -0.0197 O   0  0  0  0  0  0  0  0  0  0  0  0
    1.2168   -0.7035   -0.0129 C   0  0  0  0  0  0  0  0  0  0  0  0
    2.4075   -0.0343   -0.0211 C   0  0  0  0  0  0  0  0  0  0  0  0
    2.4160    1.3657   -0.0140 C   0  0  0  0  0  0  0  0  0  0  0  0
    1.1922    2.0796    0.0018 C   0  0  0  0  0  0  0  0  0  0  0  0
   -0.0166    1.3732    0.0096 C   0  0  0  0  0  0  0  0  0  0  0  0
    0.0021   -0.0041    0.0020 C   0  0  0  0  0  0  0  0  0  0  0  0
   -1.1693   -0.6920    0.0095 O   0  0  0  0  0  0  0  0  0  0  0  0
   -2.3734    0.0774    0.0252 C   0  0  0  0  0  0  0  0  0  0  0  0
    1.2286    3.4214    0.0073 N   0  0  0  0  0  0  0  0  0  0  0  0
    2.3767    4.0555   -0.0010 C   0  0  0  0  0  0  0  0  0  0  0  0
    3.5438    3.4312   -0.0154 N   0  0  0  0  0  0  0  0  0  0  0  0
    3.6215    2.1071   -0.0224 C   0  0  0  0  0  0  0  0  0  0  0  0
    4.8449    1.4696   -0.0379 N   0  0  0  0  0  0  0  0  0  0  0  0
    6.0807    2.2562   -0.0463 C   0  0  1  0  0  0  0  0  0  0  0  0
    5.9546    3.3282   -0.1982 H   0  0  0  0  0  0  0  0  0  0  0  0
    7.2137    1.8019    0.8762 C   0  0  0  0  0  0  0  0  0  0  0  0
    7.3312    1.6010   -0.6360 C   0  0  1  0  0  0  0  0  0  0  0  0
    8.0281    2.2418   -1.1762 H   0  0  0  0  0  0  0  0  0  0  0  0
    7.1974    0.1957   -1.1637 C   0  0  0  0  0  0  0  0  0  0  0  0
    6.8070   -0.8258   -0.3182 C   0  0  0  0  0  0  0  0  0  0  0  0
    6.6800   -2.1140   -0.8033 C   0  0  0  0  0  0  0  0  0  0  0  0
    6.9521   -2.3823   -2.1318 C   0  0  0  0  0  0  0  0  0  0  0  0
    7.3476   -1.3617   -2.9761 C   0  0  0  0  0  0  0  0  0  0  0  0
    7.4704   -0.0727   -2.4920 C   0  0  0  0  0  0  0  0  0  0  0  0
    3.0462   -2.4333    0.8513 H   0  0  0  0  0  0  0  0  0  0  0  0
    2.3309   -3.7985   -0.0390 H   0  0  0  0  0  0  0  0  0  0  0  0
    3.0296   -2.4242   -0.9286 H   0  0  0  0  0  0  0  0  0  0  0  0
    3.3380   -0.5825   -0.0325 H   0  0  0  0  0  0  0  0  0  0  0  0
   -0.9569    1.9043    0.0169 H   0  0  0  0  0  0  0  0  0  0  0  0
   -2.4114    0.7108   -0.8611 H   0  0  0  0  0  0  0  0  0  0  0  0
   -3.2329   -0.5929    0.0298 H   0  0  0  0  0  0  0  0  0  0  0  0
   -2.3944    0.7013    0.9187 H   0  0  0  0  0  0  0  0  0  0  0  0
    2.3695    5.1355    0.0045 H   0  0  0  0  0  0  0  0  0  0  0  0
    4.8867    0.5005   -0.0432 H   0  0  0  0  0  0  0  0  0  0  0  0
    7.8332    2.5750    1.3308 H   0  0  0  0  0  0  0  0  0  0  0  0
    7.0395    0.9177    1.4893 H   0  0  0  0  0  0  0  0  0  0  0  0
    6.5980   -0.6169    0.7206 H   0  0  0  0  0  0  0  0  0  0  0  0
    6.3707   -2.9114   -0.1437 H   0  0  0  0  0  0  0  0  0  0  0  0
    6.8555   -3.3892   -2.5101 H   0  0  0  0  0  0  0  0  0  0  0  0
    7.5602   -1.5713   -4.0140 H   0  0  0  0  0  0  0  0  0  0  0  0
    7.7794    0.7247   -3.1516 H   0  0  0  0  0  0  0  0  0  0  0  0
  1  2  1  0  0  0  0
  1 27  1  0  0  0  0
  1 28  1  0  0  0  0
  1 29  1  0  0  0  0
  2  3  1  0  0  0  0
  3  8  2  0  0  0  0
  3  4  1  0  0  0  0
  4  5  2  0  0  0  0
  4 30  1  0  0  0  0
  5 14  1  0  0  0  0
  5  6  1  0  0  0  0
  6  7  2  0  0  0  0
  6 11  1  0  0  0  0
  7  8  1  0  0  0  0
  7 31  1  0  0  0  0
  8  9  1  0  0  0  0
  9 10  1  0  0  0  0
 10 32  1  0  0  0  0
 10 33  1  0  0  0  0
 10 34  1  0  0  0  0
 11 12  2  0  0  0  0
 12 13  1  0  0  0  0
 12 35  1  0  0  0  0
 13 14  2  0  0  0  0
 14 15  1  0  0  0  0
 15 16  1  0  0  0  0
 15 36  1  0  0  0  0
 16 17  1  0  0  0  0
 16 19  1  0  0  0  0
 16 18  1  0  0  0  0
 18 19  1  0  0  0  0
 18 37  1  0  0  0  0
 18 38  1  0  0  0  0
 19 20  1  0  0  0  0
 19 21  1  0  0  0  0
 21 26  2  0  0  0  0
 21 22  1  0  0  0  0
 22 23  2  0  0  0  0
 22 39  1  0  0  0  0
 23 24  1  0  0  0  0
 23 40  1  0  0  0  0
 24 25  2  0  0  0  0
 24 41  1  0  0  0  0
 25 26  1  0  0  0  0
 25 42  1  0  0  0  0
 26 43  1  0  0  0  0
M  END
$$$$
ZINC04617795
  -OEChem-08230709403D

 42 45  0     1  0  0  0  0  0999 V2000
    6.0147    6.0559   -0.4014 C   0  0  0  0  0  0  0  0  0  0  0  0
    4.8020    5.4021   -0.4998 C   0  0  0  0  0  0  0  0  0  0  0  0
    3.6731    5.9401    0.1048 C   0  0  0  0  0  0  0  0  0  0  0  0
    3.7665    7.1380    0.8021 C   0  0  0  0  0  0  0  0  0  0  0  0
    4.9835    7.7847    0.9009 C   0  0  0  0  0  0  0  0  0  0  0  0
    6.1061    7.2452    0.2975 C   0  0  0  0  0  0  0  0  0  0  0  0
    5.1137    9.4121    1.8552 Br  0  0  0  0  0  0  0  0  0  0  0  0
    2.4446    5.2806    0.0070 N   0  0  0  0  0  0  0  0  0  0  0  0
    2.4000    3.9028    0.0076 C   0  0  0  0  0  0  0  0  0  0  0  0
    1.1791    3.2131   -0.2122 C   0  0  0  0  0  0  0  0  0  0  0  0
   -0.0148    3.8933   -0.4357 C   0  0  0  0  0  0  0  0  0  0  0  0
   -1.1835    3.1695   -0.6452 C   0  0  0  0  0  0  0  0  0  0  0  0
   -2.5714    3.5534   -0.9022 C   0  0  0  0  0  0  0  0  0  0  0  0
   -3.2703    2.4632   -1.0231 N   0  0  0  0  0  0  0  0  0  0  0  0
   -2.4513    1.3412   -0.8655 N   0  0  0  0  0  0  0  0  0  0  0  0
   -1.1611    1.7539   -0.6370 C   0  0  0  0  0  0  0  0  0  0  0  0
    0.0235    1.0755   -0.4099 C   0  0  0  0  0  0  0  0  0  0  0  0
    1.2011    1.7924   -0.1987 C   0  0  0  0  0  0  0  0  0  0  0  0
    2.3728    1.1698    0.0208 N   0  0  0  0  0  0  0  0  0  0  0  0
    3.4680    1.8622    0.2175 C   0  0  0  0  0  0  0  0  0  0  0  0
    3.4962    3.1864    0.2138 N   0  0  0  0  0  0  0  0  0  0  0  0
   -2.8969   -0.0525   -0.9379 C   0  0  1  0  0  0  0  0  0  0  0  0
   -2.0309   -0.7058   -1.0448 H   0  0  0  0  0  0  0  0  0  0  0  0
   -3.6531   -0.4134    0.3422 C   0  0  0  0  0  0  0  0  0  0  0  0
   -4.0100   -1.9010    0.3216 C   0  0  0  0  0  0  0  0  0  0  0  0
   -4.7163   -2.2381    1.5172 O   0  0  0  0  0  0  0  0  0  0  0  0
   -3.7606   -0.2185   -2.0642 O   0  0  0  0  0  0  0  0  0  0  0  0
    6.8926    5.6377   -0.8714 H   0  0  0  0  0  0  0  0  0  0  0  0
    4.7316    4.4730   -1.0460 H   0  0  0  0  0  0  0  0  0  0  0  0
    2.8897    7.5612    1.2695 H   0  0  0  0  0  0  0  0  0  0  0  0
    7.0555    7.7546    0.3725 H   0  0  0  0  0  0  0  0  0  0  0  0
    1.6235    5.7924   -0.0613 H   0  0  0  0  0  0  0  0  0  0  0  0
   -0.0331    4.9731   -0.4467 H   0  0  0  0  0  0  0  0  0  0  0  0
   -2.9486    4.5625   -0.9784 H   0  0  0  0  0  0  0  0  0  0  0  0
    0.0369   -0.0043   -0.4006 H   0  0  0  0  0  0  0  0  0  0  0  0
    4.3906    1.3281    0.3906 H   0  0  0  0  0  0  0  0  0  0  0  0
   -3.0244   -0.2025    1.2073 H   0  0  0  0  0  0  0  0  0  0  0  0
   -4.5663    0.1785    0.4038 H   0  0  0  0  0  0  0  0  0  0  0  0
   -4.6387   -2.1119   -0.5435 H   0  0  0  0  0  0  0  0  0  0  0  0
   -3.0968   -2.4929    0.2599 H   0  0  0  0  0  0  0  0  0  0  0  0
   -4.9749   -3.1683    1.5723 H   0  0  0  0  0  0  0  0  0  0  0  0
   -4.5540    0.3336   -2.0362 H   0  0  0  0  0  0  0  0  0  0  0  0
  1  6  2  0  0  0  0
  1  2  1  0  0  0  0
  1 28  1  0  0  0  0
  2  3  2  0  0  0  0
  2 29  1  0  0  0  0
  3  4  1  0  0  0  0
  3  8  1  0  0  0  0
  4  5  2  0  0  0  0
  4 30  1  0  0  0  0
  5  6  1  0  0  0  0
  5  7  1  0  0  0  0
  6 31  1  0  0  0  0
  8  9  1  0  0  0  0
  8 32  1  0  0  0  0
  9 21  2  0  0  0  0
  9 10  1  0  0  0  0
 10 18  2  0  0  0  0
 10 11  1  0  0  0  0
 11 12  2  0  0  0  0
 11 33  1  0  0  0  0
 12 16  1  0  0  0  0
 12 13  1  0  0  0  0
 13 14  2  0  0  0  0
 13 34  1  0  0  0  0
 14 15  1  0  0  0  0
 15 16  1  0  0  0  0
 15 22  1  0  0  0  0
 16 17  2  0  0  0  0
 17 18  1  0  0  0  0
 17 35  1  0  0  0  0
 18 19  1  0  0  0  0
 19 20  2  0  0  0  0
 20 21  1  0  0  0  0
 20 36  1  0  0  0  0
 22 23  1  0  0  0  0
 22 24  1  0  0  0  0
 22 27  1  0  0  0  0
 24 25  1  0  0  0  0
 24 37  1  0  0  0  0
 24 38  1  0  0  0  0
 25 26  1  0  0  0  0
 25 39  1  0  0  0  0
 25 40  1  0  0  0  0
 26 41  1  0  0  0  0
 27 42  1  0  0  0  0
M  END
$$$$
ZINC04617797
  -OEChem-08230709403D

 61 64  0     1  0  0  0  0  0999 V2000
    5.0909   13.5645   -4.1448 C   0  0  0  0  0  0  0  0  0  0  0  0
    5.3074   11.2737   -3.3912 C   0  0  0  0  0  0  0  0  0  0  0  0
    4.2888   12.9312   -1.9498 C   0  0  0  0  0  0  0  0  0  0  0  0
    3.4437   11.8948   -1.2064 C   0  0  0  0  0  0  0  0  0  0  0  0
    3.2330   12.3503    0.2389 C   0  0  0  0  0  0  0  0  0  0  0  0
    2.3880   11.3139    0.9823 C   0  0  0  0  0  0  0  0  0  0  0  0
    2.1912   11.7394    2.3322 O   0  0  0  0  0  0  0  0  0  0  0  0
    1.4553   10.9251    3.1351 C   0  0  0  0  0  0  0  0  0  0  0  0
    0.9459    9.7617    2.6323 C   0  0  0  0  0  0  0  0  0  0  0  0
    0.1890    8.9222    3.4584 C   0  0  0  0  0  0  0  0  0  0  0  0
   -0.0447    9.2830    4.8085 C   0  0  0  0  0  0  0  0  0  0  0  0
    0.4866   10.4804    5.3027 C   0  0  0  0  0  0  0  0  0  0  0  0
    1.2279   11.2889    4.4696 C   0  0  0  0  0  0  0  0  0  0  0  0
    1.7445   12.4513    4.9465 O   0  0  0  0  0  0  0  0  0  0  0  0
    1.4784   12.7664    6.3147 C   0  0  0  0  0  0  0  0  0  0  0  0
   -0.7741    8.4604    5.5786 N   0  0  0  0  0  0  0  0  0  0  0  0
   -1.2592    7.3452    5.0871 C   0  0  0  0  0  0  0  0  0  0  0  0
   -1.0710    6.9700    3.8318 N   0  0  0  0  0  0  0  0  0  0  0  0
   -0.3611    7.7063    2.9873 C   0  0  0  0  0  0  0  0  0  0  0  0
   -0.1690    7.3006    1.6828 N   0  0  0  0  0  0  0  0  0  0  0  0
   -0.7473    6.0382    1.2156 C   0  0  1  0  0  0  0  0  0  0  0  0
   -1.1777    5.4031    1.9898 H   0  0  0  0  0  0  0  0  0  0  0  0
   -1.4237    6.0362   -0.1568 C   0  0  0  0  0  0  0  0  0  0  0  0
   -0.0705    5.3471    0.0302 C   0  0  2  0  0  0  0  0  0  0  0  0
    0.8050    5.8314   -0.4024 H   0  0  0  0  0  0  0  0  0  0  0  0
   -0.0501    3.8402    0.0223 C   0  0  0  0  0  0  0  0  0  0  0  0
    1.1563    3.1654    0.0076 C   0  0  0  0  0  0  0  0  0  0  0  0
    1.1750    1.7832    0.0004 C   0  0  0  0  0  0  0  0  0  0  0  0
   -0.0126    1.0758    0.0080 C   0  0  0  0  0  0  0  0  0  0  0  0
   -1.2190    1.7506    0.0173 C   0  0  0  0  0  0  0  0  0  0  0  0
   -1.2377    3.1328    0.0303 C   0  0  0  0  0  0  0  0  0  0  0  0
    6.0563   13.8414   -3.7214 H   0  0  0  0  0  0  0  0  0  0  0  0
    5.2297   13.2141   -5.1675 H   0  0  0  0  0  0  0  0  0  0  0  0
    4.4316   14.4325   -4.1445 H   0  0  0  0  0  0  0  0  0  0  0  0
    4.8056   10.4763   -2.8430 H   0  0  0  0  0  0  0  0  0  0  0  0
    5.4417   10.9718   -4.4299 H   0  0  0  0  0  0  0  0  0  0  0  0
    6.2808   11.4677   -2.9405 H   0  0  0  0  0  0  0  0  0  0  0  0
    3.7741   13.8920   -1.9430 H   0  0  0  0  0  0  0  0  0  0  0  0
    5.2554   13.0333   -1.4564 H   0  0  0  0  0  0  0  0  0  0  0  0
    3.9584   10.9339   -1.2132 H   0  0  0  0  0  0  0  0  0  0  0  0
    2.4771   11.7927   -1.6998 H   0  0  0  0  0  0  0  0  0  0  0  0
    2.7184   13.3112    0.2457 H   0  0  0  0  0  0  0  0  0  0  0  0
    4.1996   12.4524    0.7323 H   0  0  0  0  0  0  0  0  0  0  0  0
    2.9026   10.3531    0.9755 H   0  0  0  0  0  0  0  0  0  0  0  0
    1.4214   11.2118    0.4889 H   0  0  0  0  0  0  0  0  0  0  0  0
    1.1268    9.4903    1.6028 H   0  0  0  0  0  0  0  0  0  0  0  0
    0.3167   10.7679    6.3297 H   0  0  0  0  0  0  0  0  0  0  0  0
    1.9469   13.7180    6.5661 H   0  0  0  0  0  0  0  0  0  0  0  0
    0.4017   12.8399    6.4678 H   0  0  0  0  0  0  0  0  0  0  0  0
    1.8836   11.9819    6.9537 H   0  0  0  0  0  0  0  0  0  0  0  0
   -1.8417    6.7066    5.7346 H   0  0  0  0  0  0  0  0  0  0  0  0
    0.3491    7.8511    1.0750 H   0  0  0  0  0  0  0  0  0  0  0  0
   -1.4384    6.9741   -0.7120 H   0  0  0  0  0  0  0  0  0  0  0  0
   -2.2991    5.3997   -0.2855 H   0  0  0  0  0  0  0  0  0  0  0  0
    2.0841    3.7181    0.0014 H   0  0  0  0  0  0  0  0  0  0  0  0
    2.1175    1.2560   -0.0115 H   0  0  0  0  0  0  0  0  0  0  0  0
    0.0021   -0.0041    0.0020 H   0  0  0  0  0  0  0  0  0  0  0  0
   -2.1469    1.1980    0.0188 H   0  0  0  0  0  0  0  0  0  0  0  0
   -2.1802    3.6600    0.0422 H   0  0  0  0  0  0  0  0  0  0  0  0
    4.4654   12.4877   -3.3487 N   0  3  0  0  0  0  0  0  0  0  0  0
    3.5450   12.2693   -3.7480 H   0  0  0  0  0  0  0  0  0  0  0  0
  1 32  1  0  0  0  0
  1 33  1  0  0  0  0
  1 34  1  0  0  0  0
  1 60  1  0  0  0  0
  2 35  1  0  0  0  0
  2 36  1  0  0  0  0
  2 37  1  0  0  0  0
  2 60  1  0  0  0  0
  3  4  1  0  0  0  0
  3 38  1  0  0  0  0
  3 39  1  0  0  0  0
  3 60  1  0  0  0  0
  4  5  1  0  0  0  0
  4 40  1  0  0  0  0
  4 41  1  0  0  0  0
  5  6  1  0  0  0  0
  5 42  1  0  0  0  0
  5 43  1  0  0  0  0
  6  7  1  0  0  0  0
  6 44  1  0  0  0  0
  6 45  1  0  0  0  0
  7  8  1  0  0  0  0
  8 13  2  0  0  0  0
  8  9  1  0  0  0  0
  9 10  2  0  0  0  0
  9 46  1  0  0  0  0
 10 19  1  0  0  0  0
 10 11  1  0  0  0  0
 11 12  2  0  0  0  0
 11 16  1  0  0  0  0
 12 13  1  0  0  0  0
 12 47  1  0  0  0  0
 13 14  1  0  0  0  0
 14 15  1  0  0  0  0
 15 48  1  0  0  0  0
 15 49  1  0  0  0  0
 15 50  1  0  0  0  0
 16 17  2  0  0  0  0
 17 18  1  0  0  0  0
 17 51  1  0  0  0  0
 18 19  2  0  0  0  0
 19 20  1  0  0  0  0
 20 21  1  0  0  0  0
 20 52  1  0  0  0  0
 21 22  1  0  0  0  0
 21 24  1  0  0  0  0
 21 23  1  0  0  0  0
 23 24  1  0  0  0  0
 23 53  1  0  0  0  0
 23 54  1  0  0  0  0
 24 25  1  0  0  0  0
 24 26  1  0  0  0  0
 26 31  2  0  0  0  0
 26 27  1  0  0  0  0
 27 28  2  0  0  0  0
 27 55  1  0  0  0  0
 28 29  1  0  0  0  0
 28 56  1  0  0  0  0
 29 30  2  0  0  0  0
 29 57  1  0  0  0  0
 30 31  1  0  0  0  0
 30 58  1  0  0  0  0
 31 59  1  0  0  0  0
 60 61  1  0  0  0  0
M  CHG  1  60   1
M  END
$$$$
ZINC04617798
  -OEChem-08230709403D

 61 64  0     1  0  0  0  0  0999 V2000
    4.4043   -4.9513   -1.3173 C   0  0  0  0  0  0  0  0  0  0  0  0
    6.3238   -5.0397    0.1558 C   0  0  0  0  0  0  0  0  0  0  0  0
    5.0569   -2.9876   -0.0601 C   0  0  0  0  0  0  0  0  0  0  0  0
    3.6374   -2.4170   -0.0439 C   0  0  0  0  0  0  0  0  0  0  0  0
    3.7023   -0.8884   -0.0368 C   0  0  0  0  0  0  0  0  0  0  0  0
    2.2828   -0.3177   -0.0206 C   0  0  0  0  0  0  0  0  0  0  0  0
    2.3434    1.1100   -0.0139 O   0  0  0  0  0  0  0  0  0  0  0  0
    1.1590    1.7781    0.0005 C   0  0  0  0  0  0  0  0  0  0  0  0
   -0.0126    1.0758    0.0080 C   0  0  0  0  0  0  0  0  0  0  0  0
   -1.2325    1.7626    0.0175 C   0  0  0  0  0  0  0  0  0  0  0  0
   -1.2453    3.1794    0.0307 C   0  0  0  0  0  0  0  0  0  0  0  0
   -0.0326    3.8790    0.0229 C   0  0  0  0  0  0  0  0  0  0  0  0
    1.1541    3.1798    0.0082 C   0  0  0  0  0  0  0  0  0  0  0  0
    2.3323    3.8560    0.0005 O   0  0  0  0  0  0  0  0  0  0  0  0
    2.2613    5.2832    0.0089 C   0  0  0  0  0  0  0  0  0  0  0  0
   -2.4284    3.8134    0.0461 N   0  0  0  0  0  0  0  0  0  0  0  0
   -3.5485    3.1310    0.0541 C   0  0  0  0  0  0  0  0  0  0  0  0
   -3.5853    1.8078    0.0477 N   0  0  0  0  0  0  0  0  0  0  0  0
   -2.4741    1.0835    0.0326 C   0  0  0  0  0  0  0  0  0  0  0  0
   -2.5274   -0.2950    0.0255 N   0  0  0  0  0  0  0  0  0  0  0  0
   -3.8234   -0.9780    0.0348 C   0  0  2  0  0  0  0  0  0  0  0  0
   -4.6932   -0.3378   -0.1124 H   0  0  0  0  0  0  0  0  0  0  0  0
   -3.9810   -2.1816    0.9661 C   0  0  0  0  0  0  0  0  0  0  0  0
   -3.8808   -2.3923   -0.5460 C   0  0  1  0  0  0  0  0  0  0  0  0
   -2.9543   -2.8144   -0.9353 H   0  0  0  0  0  0  0  0  0  0  0  0
   -5.1357   -2.7938   -1.2773 C   0  0  0  0  0  0  0  0  0  0  0  0
   -6.3508   -2.7909   -0.6181 C   0  0  0  0  0  0  0  0  0  0  0  0
   -7.5025   -3.1554   -1.2900 C   0  0  0  0  0  0  0  0  0  0  0  0
   -7.4380   -3.5309   -2.6188 C   0  0  0  0  0  0  0  0  0  0  0  0
   -6.2222   -3.5389   -3.2766 C   0  0  0  0  0  0  0  0  0  0  0  0
   -5.0710   -3.1706   -2.6057 C   0  0  0  0  0  0  0  0  0  0  0  0
    5.0115   -4.6233   -2.1610 H   0  0  0  0  0  0  0  0  0  0  0  0
    4.3701   -6.0406   -1.2959 H   0  0  0  0  0  0  0  0  0  0  0  0
    3.3931   -4.5581   -1.4228 H   0  0  0  0  0  0  0  0  0  0  0  0
    6.7082   -4.7107    1.1212 H   0  0  0  0  0  0  0  0  0  0  0  0
    6.2490   -6.1270    0.1459 H   0  0  0  0  0  0  0  0  0  0  0  0
    7.0006   -4.7149   -0.6345 H   0  0  0  0  0  0  0  0  0  0  0  0
    5.5773   -2.6419   -0.9533 H   0  0  0  0  0  0  0  0  0  0  0  0
    5.5940   -2.6509    0.8266 H   0  0  0  0  0  0  0  0  0  0  0  0
    3.1170   -2.7627    0.8492 H   0  0  0  0  0  0  0  0  0  0  0  0
    3.1003   -2.7537   -0.9306 H   0  0  0  0  0  0  0  0  0  0  0  0
    4.2227   -0.5426   -0.9299 H   0  0  0  0  0  0  0  0  0  0  0  0
    4.2394   -0.5516    0.8499 H   0  0  0  0  0  0  0  0  0  0  0  0
    1.7623   -0.6635    0.8726 H   0  0  0  0  0  0  0  0  0  0  0  0
    1.7457   -0.6545   -0.9073 H   0  0  0  0  0  0  0  0  0  0  0  0
    0.0021   -0.0041    0.0020 H   0  0  0  0  0  0  0  0  0  0  0  0
   -0.0275    4.9589    0.0279 H   0  0  0  0  0  0  0  0  0  0  0  0
    3.2696    5.6972    0.0014 H   0  0  0  0  0  0  0  0  0  0  0  0
    1.7215    5.6253   -0.8741 H   0  0  0  0  0  0  0  0  0  0  0  0
    1.7386    5.6157    0.9057 H   0  0  0  0  0  0  0  0  0  0  0  0
   -4.4826    3.6729    0.0661 H   0  0  0  0  0  0  0  0  0  0  0  0
   -1.7068   -0.8120    0.0145 H   0  0  0  0  0  0  0  0  0  0  0  0
   -3.1204   -2.4652    1.5720 H   0  0  0  0  0  0  0  0  0  0  0  0
   -4.9547   -2.3334    1.4320 H   0  0  0  0  0  0  0  0  0  0  0  0
   -6.4007   -2.5008    0.4210 H   0  0  0  0  0  0  0  0  0  0  0  0
   -8.4524   -3.1495   -0.7760 H   0  0  0  0  0  0  0  0  0  0  0  0
   -8.3375   -3.8183   -3.1430 H   0  0  0  0  0  0  0  0  0  0  0  0
   -6.1718   -3.8325   -4.3147 H   0  0  0  0  0  0  0  0  0  0  0  0
   -4.1212   -3.1768   -3.1196 H   0  0  0  0  0  0  0  0  0  0  0  0
    4.9776   -4.4635   -0.0453 N   0  3  0  0  0  0  0  0  0  0  0  0
    4.3701   -4.7571    0.7286 H   0  0  0  0  0  0  0  0  0  0  0  0
  1 32  1  0  0  0  0
  1 33  1  0  0  0  0
  1 34  1  0  0  0  0
  1 60  1  0  0  0  0
  2 35  1  0  0  0  0
  2 36  1  0  0  0  0
  2 37  1  0  0  0  0
  2 60  1  0  0  0  0
  3  4  1  0  0  0  0
  3 38  1  0  0  0  0
  3 39  1  0  0  0  0
  3 60  1  0  0  0  0
  4  5  1  0  0  0  0
  4 40  1  0  0  0  0
  4 41  1  0  0  0  0
  5  6  1  0  0  0  0
  5 42  1  0  0  0  0
  5 43  1  0  0  0  0
  6  7  1  0  0  0  0
  6 44  1  0  0  0  0
  6 45  1  0  0  0  0
  7  8  1  0  0  0  0
  8 13  2  0  0  0  0
  8  9  1  0  0  0  0
  9 10  2  0  0  0  0
  9 46  1  0  0  0  0
 10 19  1  0  0  0  0
 10 11  1  0  0  0  0
 11 12  2  0  0  0  0
 11 16  1  0  0  0  0
 12 13  1  0  0  0  0
 12 47  1  0  0  0  0
 13 14  1  0  0  0  0
 14 15  1  0  0  0  0
 15 48  1  0  0  0  0
 15 49  1  0  0  0  0
 15 50  1  0  0  0  0
 16 17  2  0  0  0  0
 17 18  1  0  0  0  0
 17 51  1  0  0  0  0
 18 19  2  0  0  0  0
 19 20  1  0  0  0  0
 20 21  1  0  0  0  0
 20 52  1  0  0  0  0
 21 22  1  0  0  0  0
 21 24  1  0  0  0  0
 21 23  1  0  0  0  0
 23 24  1  0  0  0  0
 23 53  1  0  0  0  0
 23 54  1  0  0  0  0
 24 25  1  0  0  0  0
 24 26  1  0  0  0  0
 26 31  2  0  0  0  0
 26 27  1  0  0  0  0
 27 28  2  0  0  0  0
 27 55  1  0  0  0  0
 28 29  1  0  0  0  0
 28 56  1  0  0  0  0
 29 30  2  0  0  0  0
 29 57  1  0  0  0  0
 30 31  1  0  0  0  0
 30 58  1  0  0  0  0
 31 59  1  0  0  0  0
 60 61  1  0  0  0  0
M  CHG  1  60   1
M  END
$$$$
ZINC04617799
  -OEChem-08230709403D

 61 64  0     1  0  0  0  0  0999 V2000
    1.6075   -1.3948   -8.5983 C   0  0  0  0  0  0  0  0  0  0  0  0
    2.8436   -0.3122  -10.3767 C   0  0  0  0  0  0  0  0  0  0  0  0
    1.3558    0.9840   -8.9735 C   0  0  0  0  0  0  0  0  0  0  0  0
    0.9800    1.2641   -7.5171 C   0  0  0  0  0  0  0  0  0  0  0  0
    0.0220    2.4556   -7.4577 C   0  0  0  0  0  0  0  0  0  0  0  0
   -0.3538    2.7357   -6.0013 C   0  0  0  0  0  0  0  0  0  0  0  0
   -1.2486    3.8485   -5.9458 O   0  0  0  0  0  0  0  0  0  0  0  0
   -1.6826    4.2310   -4.7151 C   0  0  0  0  0  0  0  0  0  0  0  0
   -1.2569    3.5534   -3.6081 C   0  0  0  0  0  0  0  0  0  0  0  0
   -1.7039    3.9458   -2.3407 C   0  0  0  0  0  0  0  0  0  0  0  0
   -2.5931    5.0415   -2.2130 C   0  0  0  0  0  0  0  0  0  0  0  0
   -3.0162    5.7219   -3.3612 C   0  0  0  0  0  0  0  0  0  0  0  0
   -2.5619    5.3162   -4.5966 C   0  0  0  0  0  0  0  0  0  0  0  0
   -2.9709    5.9746   -5.7123 O   0  0  0  0  0  0  0  0  0  0  0  0
   -3.8674    7.0717   -5.5261 C   0  0  0  0  0  0  0  0  0  0  0  0
   -3.0065    5.3966   -0.9862 N   0  0  0  0  0  0  0  0  0  0  0  0
   -2.5931    4.7395    0.0710 C   0  0  0  0  0  0  0  0  0  0  0  0
   -1.7673    3.7075   -0.0003 N   0  0  0  0  0  0  0  0  0  0  0  0
   -1.2941    3.2774   -1.1624 C   0  0  0  0  0  0  0  0  0  0  0  0
   -0.4302    2.2035   -1.2215 N   0  0  0  0  0  0  0  0  0  0  0  0
   -0.0187    1.5258    0.0104 C   0  0  1  0  0  0  0  0  0  0  0  0
   -0.3072    2.0201    0.9381 H   0  0  0  0  0  0  0  0  0  0  0  0
    0.0021   -0.0041    0.0020 C   0  0  0  0  0  0  0  0  0  0  0  0
    1.3165    0.7789   -0.0063 C   0  0  1  0  0  0  0  0  0  0  0  0
    1.9064    0.7818    0.9103 H   0  0  0  0  0  0  0  0  0  0  0  0
    2.1077    0.7967   -1.2888 C   0  0  0  0  0  0  0  0  0  0  0  0
    1.5617    0.2715   -2.4451 C   0  0  0  0  0  0  0  0  0  0  0  0
    2.2858    0.2918   -3.6225 C   0  0  0  0  0  0  0  0  0  0  0  0
    3.5594    0.8290   -3.6415 C   0  0  0  0  0  0  0  0  0  0  0  0
    4.1074    1.3494   -2.4841 C   0  0  0  0  0  0  0  0  0  0  0  0
    3.3816    1.3331   -1.3077 C   0  0  0  0  0  0  0  0  0  0  0  0
    0.7584   -1.5962   -9.2514 H   0  0  0  0  0  0  0  0  0  0  0  0
    2.3110   -2.2258   -8.6502 H   0  0  0  0  0  0  0  0  0  0  0  0
    1.2575   -1.2786   -7.5726 H   0  0  0  0  0  0  0  0  0  0  0  0
    3.3922    0.5910  -10.6439 H   0  0  0  0  0  0  0  0  0  0  0  0
    3.5209   -1.1662  -10.3909 H   0  0  0  0  0  0  0  0  0  0  0  0
    2.0393   -0.4744  -11.0942 H   0  0  0  0  0  0  0  0  0  0  0  0
    0.4554    0.7550   -9.5435 H   0  0  0  0  0  0  0  0  0  0  0  0
    1.8415    1.8623   -9.3988 H   0  0  0  0  0  0  0  0  0  0  0  0
    1.8804    1.4931   -6.9471 H   0  0  0  0  0  0  0  0  0  0  0  0
    0.4944    0.3858   -7.0918 H   0  0  0  0  0  0  0  0  0  0  0  0
   -0.8784    2.2265   -8.0277 H   0  0  0  0  0  0  0  0  0  0  0  0
    0.5076    3.3338   -7.8830 H   0  0  0  0  0  0  0  0  0  0  0  0
    0.5466    2.9647   -5.4313 H   0  0  0  0  0  0  0  0  0  0  0  0
   -0.8395    1.8574   -5.5760 H   0  0  0  0  0  0  0  0  0  0  0  0
   -0.5785    2.7193   -3.7100 H   0  0  0  0  0  0  0  0  0  0  0  0
   -3.6941    6.5586   -3.2788 H   0  0  0  0  0  0  0  0  0  0  0  0
   -3.3932    7.8259   -4.8982 H   0  0  0  0  0  0  0  0  0  0  0  0
   -4.1141    7.5076   -6.4942 H   0  0  0  0  0  0  0  0  0  0  0  0
   -4.7789    6.7183   -5.0440 H   0  0  0  0  0  0  0  0  0  0  0  0
   -2.9452    5.0522    1.0429 H   0  0  0  0  0  0  0  0  0  0  0  0
   -0.0951    1.8971   -2.0787 H   0  0  0  0  0  0  0  0  0  0  0  0
   -0.2728   -0.5162    0.9241 H   0  0  0  0  0  0  0  0  0  0  0  0
   -0.2904   -0.5063   -0.9201 H   0  0  0  0  0  0  0  0  0  0  0  0
    0.5682   -0.1516   -2.4294 H   0  0  0  0  0  0  0  0  0  0  0  0
    1.8575   -0.1145   -4.5269 H   0  0  0  0  0  0  0  0  0  0  0  0
    4.1261    0.8424   -4.5608 H   0  0  0  0  0  0  0  0  0  0  0  0
    5.1024    1.7691   -2.4989 H   0  0  0  0  0  0  0  0  0  0  0  0
    3.8098    1.7397   -0.4033 H   0  0  0  0  0  0  0  0  0  0  0  0
    2.2973   -0.1548   -9.0123 N   0  3  0  0  0  0  0  0  0  0  0  0
    3.0707    0.0295   -8.3626 H   0  0  0  0  0  0  0  0  0  0  0  0
  1 32  1  0  0  0  0
  1 33  1  0  0  0  0
  1 34  1  0  0  0  0
  1 60  1  0  0  0  0
  2 35  1  0  0  0  0
  2 36  1  0  0  0  0
  2 37  1  0  0  0  0
  2 60  1  0  0  0  0
  3  4  1  0  0  0  0
  3 38  1  0  0  0  0
  3 39  1  0  0  0  0
  3 60  1  0  0  0  0
  4  5  1  0  0  0  0
  4 40  1  0  0  0  0
  4 41  1  0  0  0  0
  5  6  1  0  0  0  0
  5 42  1  0  0  0  0
  5 43  1  0  0  0  0
  6  7  1  0  0  0  0
  6 44  1  0  0  0  0
  6 45  1  0  0  0  0
  7  8  1  0  0  0  0
  8 13  2  0  0  0  0
  8  9  1  0  0  0  0
  9 10  2  0  0  0  0
  9 46  1  0  0  0  0
 10 19  1  0  0  0  0
 10 11  1  0  0  0  0
 11 12  2  0  0  0  0
 11 16  1  0  0  0  0
 12 13  1  0  0  0  0
 12 47  1  0  0  0  0
 13 14  1  0  0  0  0
 14 15  1  0  0  0  0
 15 48  1  0  0  0  0
 15 49  1  0  0  0  0
 15 50  1  0  0  0  0
 16 17  2  0  0  0  0
 17 18  1  0  0  0  0
 17 51  1  0  0  0  0
 18 19  2  0  0  0  0
 19 20  1  0  0  0  0
 20 21  1  0  0  0  0
 20 52  1  0  0  0  0
 21 22  1  0  0  0  0
 21 24  1  0  0  0  0
 21 23  1  0  0  0  0
 23 24  1  0  0  0  0
 23 53  1  0  0  0  0
 23 54  1  0  0  0  0
 24 25  1  0  0  0  0
 24 26  1  0  0  0  0
 26 31  2  0  0  0  0
 26 27  1  0  0  0  0
 27 28  2  0  0  0  0
 27 55  1  0  0  0  0
 28 29  1  0  0  0  0
 28 56  1  0  0  0  0
 29 30  2  0  0  0  0
 29 57  1  0  0  0  0
 30 31  1  0  0  0  0
 30 58  1  0  0  0  0
 31 59  1  0  0  0  0
 60 61  1  0  0  0  0
M  CHG  1  60   1
M  END
$$$$
ZINC04617801
  -OEChem-08230709403D

 45 48  0     1  0  0  0  0  0999 V2000
   -1.1456    2.3025   -1.0105 C   0  0  0  0  0  0  0  0  0  0  0  0
   -1.7828    2.7056    0.2943 C   0  0  0  0  0  0  0  0  0  0  0  0
   -2.0583    3.8640    0.4997 O   0  0  0  0  0  0  0  0  0  0  0  0
   -2.0444    1.7777    1.2284 O   0  0  0  0  0  0  0  0  0  0  0  0
   -2.5211    2.2209    2.4224 C   0  0  0  0  0  0  0  0  0  0  0  0
   -1.6532    2.4554    3.4512 C   0  0  0  0  0  0  0  0  0  0  0  0
   -2.1427    2.9120    4.6805 C   0  0  0  0  0  0  0  0  0  0  0  0
   -3.5327    3.1283    4.8512 C   0  0  0  0  0  0  0  0  0  0  0  0
   -4.4040    2.8815    3.7835 C   0  0  0  0  0  0  0  0  0  0  0  0
   -3.8968    2.4376    2.5822 C   0  0  0  0  0  0  0  0  0  0  0  0
   -4.7392    2.2026    1.5429 O   0  0  0  0  0  0  0  0  0  0  0  0
   -6.1298    2.4423    1.7680 C   0  0  0  0  0  0  0  0  0  0  0  0
   -3.9757    3.5668    6.0400 N   0  0  0  0  0  0  0  0  0  0  0  0
   -3.1352    3.7897    7.0219 C   0  0  0  0  0  0  0  0  0  0  0  0
   -1.8298    3.6020    6.9087 N   0  0  0  0  0  0  0  0  0  0  0  0
   -1.2870    3.1708    5.7778 C   0  0  0  0  0  0  0  0  0  0  0  0
    0.0751    2.9796    5.6740 N   0  0  0  0  0  0  0  0  0  0  0  0
    0.9428    3.2534    6.8222 C   0  0  2  0  0  0  0  0  0  0  0  0
    0.4292    3.4516    7.7629 H   0  0  0  0  0  0  0  0  0  0  0  0
    2.2479    4.0068    6.5575 C   0  0  0  0  0  0  0  0  0  0  0  0
    2.2804    2.5136    6.8892 C   0  0  2  0  0  0  0  0  0  0  0  0
    2.6469    2.2247    7.8742 H   0  0  0  0  0  0  0  0  0  0  0  0
    2.6043    1.5588    5.7691 C   0  0  0  0  0  0  0  0  0  0  0  0
    2.6770    2.0193    4.4677 C   0  0  0  0  0  0  0  0  0  0  0  0
    2.9789    1.1445    3.4409 C   0  0  0  0  0  0  0  0  0  0  0  0
    3.1983   -0.1927    3.7142 C   0  0  0  0  0  0  0  0  0  0  0  0
    3.1201   -0.6542    5.0149 C   0  0  0  0  0  0  0  0  0  0  0  0
    2.8233    0.2216    6.0424 C   0  0  0  0  0  0  0  0  0  0  0  0
   -0.0609    2.3543   -0.9163 H   0  0  0  0  0  0  0  0  0  0  0  0
   -1.4745    2.9787   -1.7996 H   0  0  0  0  0  0  0  0  0  0  0  0
   -1.4404    1.2831   -1.2592 H   0  0  0  0  0  0  0  0  0  0  0  0
   -0.5946    2.2895    3.3165 H   0  0  0  0  0  0  0  0  0  0  0  0
   -5.4657    3.0416    3.8997 H   0  0  0  0  0  0  0  0  0  0  0  0
   -6.4815    1.8055    2.5798 H   0  0  0  0  0  0  0  0  0  0  0  0
   -6.2796    3.4882    2.0358 H   0  0  0  0  0  0  0  0  0  0  0  0
   -6.6891    2.2159    0.8603 H   0  0  0  0  0  0  0  0  0  0  0  0
   -3.5256    4.1426    7.9650 H   0  0  0  0  0  0  0  0  0  0  0  0
    0.4584    2.6637    4.8408 H   0  0  0  0  0  0  0  0  0  0  0  0
    2.4609    4.2987    5.5291 H   0  0  0  0  0  0  0  0  0  0  0  0
    2.5929    4.7006    7.3241 H   0  0  0  0  0  0  0  0  0  0  0  0
    2.5015    3.0632    4.2537 H   0  0  0  0  0  0  0  0  0  0  0  0
    3.0397    1.5050    2.4246 H   0  0  0  0  0  0  0  0  0  0  0  0
    3.4306   -0.8769    2.9115 H   0  0  0  0  0  0  0  0  0  0  0  0
    3.2912   -1.6990    5.2283 H   0  0  0  0  0  0  0  0  0  0  0  0
    2.7622   -0.1390    7.0585 H   0  0  0  0  0  0  0  0  0  0  0  0
  1  2  1  0  0  0  0
  1 29  1  0  0  0  0
  1 30  1  0  0  0  0
  1 31  1  0  0  0  0
  2  3  2  0  0  0  0
  2  4  1  0  0  0  0
  4  5  1  0  0  0  0
  5 10  2  0  0  0  0
  5  6  1  0  0  0  0
  6  7  2  0  0  0  0
  6 32  1  0  0  0  0
  7 16  1  0  0  0  0
  7  8  1  0  0  0  0
  8  9  2  0  0  0  0
  8 13  1  0  0  0  0
  9 10  1  0  0  0  0
  9 33  1  0  0  0  0
 10 11  1  0  0  0  0
 11 12  1  0  0  0  0
 12 34  1  0  0  0  0
 12 35  1  0  0  0  0
 12 36  1  0  0  0  0
 13 14  2  0  0  0  0
 14 15  1  0  0  0  0
 14 37  1  0  0  0  0
 15 16  2  0  0  0  0
 16 17  1  0  0  0  0
 17 18  1  0  0  0  0
 17 38  1  0  0  0  0
 18 19  1  0  0  0  0
 18 21  1  0  0  0  0
 18 20  1  0  0  0  0
 20 21  1  0  0  0  0
 20 39  1  0  0  0  0
 20 40  1  0  0  0  0
 21 22  1  0  0  0  0
 21 23  1  0  0  0  0
 23 28  2  0  0  0  0
 23 24  1  0  0  0  0
 24 25  2  0  0  0  0
 24 41  1  0  0  0  0
 25 26  1  0  0  0  0
 25 42  1  0  0  0  0
 26 27  2  0  0  0  0
 26 43  1  0  0  0  0
 27 28  1  0  0  0  0
 27 44  1  0  0  0  0
 28 45  1  0  0  0  0
M  END
$$$$
ZINC04617802
  -OEChem-08230709403D

 45 48  0     1  0  0  0  0  0999 V2000
    1.0409   -0.0763    1.1659 C   0  0  0  0  0  0  0  0  0  0  0  0
    0.2723    0.4893    2.3322 C   0  0  0  0  0  0  0  0  0  0  0  0
   -0.0808   -0.2360    3.2318 O   0  0  0  0  0  0  0  0  0  0  0  0
   -0.0200    1.7989    2.3718 O   0  0  0  0  0  0  0  0  0  0  0  0
   -0.8056    2.2254    3.3965 C   0  0  0  0  0  0  0  0  0  0  0  0
   -2.1564    2.3236    3.2166 C   0  0  0  0  0  0  0  0  0  0  0  0
   -2.9660    2.7625    4.2707 C   0  0  0  0  0  0  0  0  0  0  0  0
   -2.3818    3.1019    5.5163 C   0  0  0  0  0  0  0  0  0  0  0  0
   -0.9954    2.9938    5.6787 C   0  0  0  0  0  0  0  0  0  0  0  0
   -0.2212    2.5539    4.6277 C   0  0  0  0  0  0  0  0  0  0  0  0
    1.1235    2.4428    4.7840 O   0  0  0  0  0  0  0  0  0  0  0  0
    1.6591    2.7924    6.0619 C   0  0  0  0  0  0  0  0  0  0  0  0
   -3.1807    3.5205    6.5104 N   0  0  0  0  0  0  0  0  0  0  0  0
   -4.4765    3.6121    6.3285 C   0  0  0  0  0  0  0  0  0  0  0  0
   -5.0660    3.3062    5.1835 N   0  0  0  0  0  0  0  0  0  0  0  0
   -4.3699    2.8825    4.1369 C   0  0  0  0  0  0  0  0  0  0  0  0
   -4.9975    2.5677    2.9496 N   0  0  0  0  0  0  0  0  0  0  0  0
   -6.4519    2.6990    2.8325 C   0  0  1  0  0  0  0  0  0  0  0  0
   -6.9825    2.8975    3.7638 H   0  0  0  0  0  0  0  0  0  0  0  0
   -7.0031    3.3368    1.5557 C   0  0  0  0  0  0  0  0  0  0  0  0
   -7.1577    1.8324    1.7876 C   0  0  2  0  0  0  0  0  0  0  0  0
   -6.5399    1.1646    1.1873 H   0  0  0  0  0  0  0  0  0  0  0  0
   -8.5335    1.3181    2.1246 C   0  0  0  0  0  0  0  0  0  0  0  0
   -9.5568    2.2073    2.3949 C   0  0  0  0  0  0  0  0  0  0  0  0
  -10.8198    1.7355    2.7002 C   0  0  0  0  0  0  0  0  0  0  0  0
  -11.0574    0.3745    2.7433 C   0  0  0  0  0  0  0  0  0  0  0  0
  -10.0329   -0.5148    2.4781 C   0  0  0  0  0  0  0  0  0  0  0  0
   -8.7708   -0.0430    2.1690 C   0  0  0  0  0  0  0  0  0  0  0  0
    2.1090   -0.0305    1.3781 H   0  0  0  0  0  0  0  0  0  0  0  0
    0.8230    0.5060    0.2705 H   0  0  0  0  0  0  0  0  0  0  0  0
    0.7465   -1.1134    1.0053 H   0  0  0  0  0  0  0  0  0  0  0  0
   -2.5974    2.0642    2.2655 H   0  0  0  0  0  0  0  0  0  0  0  0
   -0.5368    3.2492    6.6225 H   0  0  0  0  0  0  0  0  0  0  0  0
    1.4236    3.8337    6.2820 H   0  0  0  0  0  0  0  0  0  0  0  0
    1.2213    2.1514    6.8271 H   0  0  0  0  0  0  0  0  0  0  0  0
    2.7408    2.6589    6.0514 H   0  0  0  0  0  0  0  0  0  0  0  0
   -5.0899    3.9521    7.1498 H   0  0  0  0  0  0  0  0  0  0  0  0
   -4.4758    2.2593    2.1922 H   0  0  0  0  0  0  0  0  0  0  0  0
   -7.8965    3.9545    1.6469 H   0  0  0  0  0  0  0  0  0  0  0  0
   -6.2836    3.6591    0.8030 H   0  0  0  0  0  0  0  0  0  0  0  0
   -9.3703    3.2706    2.3646 H   0  0  0  0  0  0  0  0  0  0  0  0
  -11.6202    2.4303    2.9077 H   0  0  0  0  0  0  0  0  0  0  0  0
  -12.0435    0.0058    2.9844 H   0  0  0  0  0  0  0  0  0  0  0  0
  -10.2185   -1.5782    2.5121 H   0  0  0  0  0  0  0  0  0  0  0  0
   -7.9703   -0.7378    1.9619 H   0  0  0  0  0  0  0  0  0  0  0  0
  1  2  1  0  0  0  0
  1 29  1  0  0  0  0
  1 30  1  0  0  0  0
  1 31  1  0  0  0  0
  2  3  2  0  0  0  0
  2  4  1  0  0  0  0
  4  5  1  0  0  0  0
  5 10  2  0  0  0  0
  5  6  1  0  0  0  0
  6  7  2  0  0  0  0
  6 32  1  0  0  0  0
  7 16  1  0  0  0  0
  7  8  1  0  0  0  0
  8  9  2  0  0  0  0
  8 13  1  0  0  0  0
  9 10  1  0  0  0  0
  9 33  1  0  0  0  0
 10 11  1  0  0  0  0
 11 12  1  0  0  0  0
 12 34  1  0  0  0  0
 12 35  1  0  0  0  0
 12 36  1  0  0  0  0
 13 14  2  0  0  0  0
 14 15  1  0  0  0  0
 14 37  1  0  0  0  0
 15 16  2  0  0  0  0
 16 17  1  0  0  0  0
 17 18  1  0  0  0  0
 17 38  1  0  0  0  0
 18 19  1  0  0  0  0
 18 21  1  0  0  0  0
 18 20  1  0  0  0  0
 20 21  1  0  0  0  0
 20 39  1  0  0  0  0
 20 40  1  0  0  0  0
 21 22  1  0  0  0  0
 21 23  1  0  0  0  0
 23 28  2  0  0  0  0
 23 24  1  0  0  0  0
 24 25  2  0  0  0  0
 24 41  1  0  0  0  0
 25 26  1  0  0  0  0
 25 42  1  0  0  0  0
 26 27  2  0  0  0  0
 26 43  1  0  0  0  0
 27 28  1  0  0  0  0
 27 44  1  0  0  0  0
 28 45  1  0  0  0  0
M  END
$$$$
ZINC04617803
  -OEChem-08230709403D

 45 48  0     1  0  0  0  0  0999 V2000
    4.3565    0.3584    1.2028 C   0  0  0  0  0  0  0  0  0  0  0  0
    2.9872    0.9861    1.1581 C   0  0  0  0  0  0  0  0  0  0  0  0
    2.4685    1.3777    2.1767 O   0  0  0  0  0  0  0  0  0  0  0  0
    2.3436    1.1101   -0.0134 O   0  0  0  0  0  0  0  0  0  0  0  0
    1.1635    1.7857   -0.0010 C   0  0  0  0  0  0  0  0  0  0  0  0
   -0.0124    1.0909    0.0328 C   0  0  0  0  0  0  0  0  0  0  0  0
   -1.2277    1.7852    0.0407 C   0  0  0  0  0  0  0  0  0  0  0  0
   -1.2321    3.2022    0.0245 C   0  0  0  0  0  0  0  0  0  0  0  0
   -0.0154    3.8939   -0.0100 C   0  0  0  0  0  0  0  0  0  0  0  0
    1.1670    3.1874   -0.0225 C   0  0  0  0  0  0  0  0  0  0  0  0
    2.3489    3.8559   -0.0565 O   0  0  0  0  0  0  0  0  0  0  0  0
    2.2864    5.2834   -0.0771 C   0  0  0  0  0  0  0  0  0  0  0  0
   -2.4111    3.8435    0.0389 N   0  0  0  0  0  0  0  0  0  0  0  0
   -3.5351    3.1683    0.0722 C   0  0  0  0  0  0  0  0  0  0  0  0
   -3.5799    1.8455    0.0928 N   0  0  0  0  0  0  0  0  0  0  0  0
   -2.4733    1.1142    0.0813 C   0  0  0  0  0  0  0  0  0  0  0  0
   -2.5350   -0.2636    0.1026 N   0  0  0  0  0  0  0  0  0  0  0  0
   -3.8349   -0.9382    0.1384 C   0  0  2  0  0  0  0  0  0  0  0  0
   -4.7023   -0.2958   -0.0130 H   0  0  0  0  0  0  0  0  0  0  0  0
   -3.9904   -2.1219    1.0953 C   0  0  0  0  0  0  0  0  0  0  0  0
   -3.9066   -2.3636   -0.4131 C   0  0  1  0  0  0  0  0  0  0  0  0
   -2.9866   -2.7992   -0.8030 H   0  0  0  0  0  0  0  0  0  0  0  0
   -5.1712   -2.7719   -1.1237 C   0  0  0  0  0  0  0  0  0  0  0  0
   -6.3796   -2.7482   -0.4527 C   0  0  0  0  0  0  0  0  0  0  0  0
   -7.5402   -3.1190   -1.1057 C   0  0  0  0  0  0  0  0  0  0  0  0
   -7.4913   -3.5214   -2.4273 C   0  0  0  0  0  0  0  0  0  0  0  0
   -6.2822   -3.5502   -3.0967 C   0  0  0  0  0  0  0  0  0  0  0  0
   -5.1221   -3.1756   -2.4449 C   0  0  0  0  0  0  0  0  0  0  0  0
    4.6569    0.0696    0.1955 H   0  0  0  0  0  0  0  0  0  0  0  0
    5.0723    1.0761    1.6036 H   0  0  0  0  0  0  0  0  0  0  0  0
    4.3308   -0.5245    1.8414 H   0  0  0  0  0  0  0  0  0  0  0  0
   -0.0043    0.0111    0.0488 H   0  0  0  0  0  0  0  0  0  0  0  0
   -0.0040    4.9737   -0.0272 H   0  0  0  0  0  0  0  0  0  0  0  0
    3.2970    5.6910   -0.1037 H   0  0  0  0  0  0  0  0  0  0  0  0
    1.7394    5.6104   -0.9614 H   0  0  0  0  0  0  0  0  0  0  0  0
    1.7752    5.6377    0.8180 H   0  0  0  0  0  0  0  0  0  0  0  0
   -4.4658    3.7161    0.0830 H   0  0  0  0  0  0  0  0  0  0  0  0
   -1.7176   -0.7859    0.0938 H   0  0  0  0  0  0  0  0  0  0  0  0
   -3.1255   -2.3987    1.6982 H   0  0  0  0  0  0  0  0  0  0  0  0
   -4.9602   -2.2583    1.5738 H   0  0  0  0  0  0  0  0  0  0  0  0
   -6.4173   -2.4370    0.5808 H   0  0  0  0  0  0  0  0  0  0  0  0
   -8.4847   -3.0969   -0.5825 H   0  0  0  0  0  0  0  0  0  0  0  0
   -8.3977   -3.8137   -2.9366 H   0  0  0  0  0  0  0  0  0  0  0  0
   -6.2439   -3.8649   -4.1291 H   0  0  0  0  0  0  0  0  0  0  0  0
   -4.1775   -3.1981   -2.9679 H   0  0  0  0  0  0  0  0  0  0  0  0
  1  2  1  0  0  0  0
  1 29  1  0  0  0  0
  1 30  1  0  0  0  0
  1 31  1  0  0  0  0
  2  3  2  0  0  0  0
  2  4  1  0  0  0  0
  4  5  1  0  0  0  0
  5 10  2  0  0  0  0
  5  6  1  0  0  0  0
  6  7  2  0  0  0  0
  6 32  1  0  0  0  0
  7 16  1  0  0  0  0
  7  8  1  0  0  0  0
  8  9  2  0  0  0  0
  8 13  1  0  0  0  0
  9 10  1  0  0  0  0
  9 33  1  0  0  0  0
 10 11  1  0  0  0  0
 11 12  1  0  0  0  0
 12 34  1  0  0  0  0
 12 35  1  0  0  0  0
 12 36  1  0  0  0  0
 13 14  2  0  0  0  0
 14 15  1  0  0  0  0
 14 37  1  0  0  0  0
 15 16  2  0  0  0  0
 16 17  1  0  0  0  0
 17 18  1  0  0  0  0
 17 38  1  0  0  0  0
 18 19  1  0  0  0  0
 18 21  1  0  0  0  0
 18 20  1  0  0  0  0
 20 21  1  0  0  0  0
 20 39  1  0  0  0  0
 20 40  1  0  0  0  0
 21 22  1  0  0  0  0
 21 23  1  0  0  0  0
 23 28  2  0  0  0  0
 23 24  1  0  0  0  0
 24 25  2  0  0  0  0
 24 41  1  0  0  0  0
 25 26  1  0  0  0  0
 25 42  1  0  0  0  0
 26 27  2  0  0  0  0
 26 43  1  0  0  0  0
 27 28  1  0  0  0  0
 27 44  1  0  0  0  0
 28 45  1  0  0  0  0
M  END
$$$$
ZINC04617805
  -OEChem-08230709403D

 63 67  0     1  0  0  0  0  0999 V2000
    1.4784   12.7664    6.3147 C   0  0  0  0  0  0  0  0  0  0  0  0
    1.7445   12.4513    4.9465 O   0  0  0  0  0  0  0  0  0  0  0  0
    1.2279   11.2889    4.4696 C   0  0  0  0  0  0  0  0  0  0  0  0
    0.4866   10.4804    5.3027 C   0  0  0  0  0  0  0  0  0  0  0  0
   -0.0447    9.2830    4.8085 C   0  0  0  0  0  0  0  0  0  0  0  0
    0.1890    8.9222    3.4584 C   0  0  0  0  0  0  0  0  0  0  0  0
    0.9459    9.7617    2.6323 C   0  0  0  0  0  0  0  0  0  0  0  0
    1.4553   10.9251    3.1351 C   0  0  0  0  0  0  0  0  0  0  0  0
    2.1912   11.7394    2.3322 O   0  0  0  0  0  0  0  0  0  0  0  0
    2.3880   11.3139    0.9823 C   0  0  0  0  0  0  0  0  0  0  0  0
    3.2330   12.3503    0.2389 C   0  0  0  0  0  0  0  0  0  0  0  0
    3.4437   11.8948   -1.2064 C   0  0  0  0  0  0  0  0  0  0  0  0
    3.5268   14.1589   -2.0630 C   0  0  0  0  0  0  0  0  0  0  0  0
    4.4285   15.1831   -2.7573 C   0  0  0  0  0  0  0  0  0  0  0  0
    4.8548   14.6587   -4.0176 O   0  0  0  0  0  0  0  0  0  0  0  0
    5.5680   13.4232   -3.9156 C   0  0  0  0  0  0  0  0  0  0  0  0
    4.6779   12.3812   -3.2331 C   0  0  0  0  0  0  0  0  0  0  0  0
   -0.3611    7.7063    2.9873 C   0  0  0  0  0  0  0  0  0  0  0  0
   -1.0710    6.9700    3.8318 N   0  0  0  0  0  0  0  0  0  0  0  0
   -1.2592    7.3452    5.0871 C   0  0  0  0  0  0  0  0  0  0  0  0
   -0.7741    8.4604    5.5786 N   0  0  0  0  0  0  0  0  0  0  0  0
   -0.1690    7.3006    1.6828 N   0  0  0  0  0  0  0  0  0  0  0  0
   -0.7473    6.0382    1.2156 C   0  0  1  0  0  0  0  0  0  0  0  0
   -1.1777    5.4031    1.9898 H   0  0  0  0  0  0  0  0  0  0  0  0
   -1.4237    6.0362   -0.1568 C   0  0  0  0  0  0  0  0  0  0  0  0
   -0.0705    5.3471    0.0302 C   0  0  2  0  0  0  0  0  0  0  0  0
    0.8050    5.8314   -0.4024 H   0  0  0  0  0  0  0  0  0  0  0  0
   -0.0501    3.8402    0.0223 C   0  0  0  0  0  0  0  0  0  0  0  0
    1.1563    3.1654    0.0076 C   0  0  0  0  0  0  0  0  0  0  0  0
    1.1750    1.7832    0.0004 C   0  0  0  0  0  0  0  0  0  0  0  0
   -0.0126    1.0758    0.0080 C   0  0  0  0  0  0  0  0  0  0  0  0
   -1.2190    1.7506    0.0173 C   0  0  0  0  0  0  0  0  0  0  0  0
   -1.2377    3.1328    0.0303 C   0  0  0  0  0  0  0  0  0  0  0  0
    0.4017   12.8399    6.4678 H   0  0  0  0  0  0  0  0  0  0  0  0
    1.8836   11.9819    6.9537 H   0  0  0  0  0  0  0  0  0  0  0  0
    1.9469   13.7180    6.5661 H   0  0  0  0  0  0  0  0  0  0  0  0
    0.3167   10.7679    6.3297 H   0  0  0  0  0  0  0  0  0  0  0  0
    1.1268    9.4903    1.6028 H   0  0  0  0  0  0  0  0  0  0  0  0
    2.9026   10.3531    0.9755 H   0  0  0  0  0  0  0  0  0  0  0  0
    1.4214   11.2118    0.4889 H   0  0  0  0  0  0  0  0  0  0  0  0
    2.7184   13.3112    0.2457 H   0  0  0  0  0  0  0  0  0  0  0  0
    4.1996   12.4524    0.7323 H   0  0  0  0  0  0  0  0  0  0  0  0
    3.9584   10.9339   -1.2132 H   0  0  0  0  0  0  0  0  0  0  0  0
    2.4771   11.7927   -1.6998 H   0  0  0  0  0  0  0  0  0  0  0  0
    2.6301   13.9986   -2.6616 H   0  0  0  0  0  0  0  0  0  0  0  0
    3.2458   14.5303   -1.0775 H   0  0  0  0  0  0  0  0  0  0  0  0
    5.2993   15.3836   -2.1331 H   0  0  0  0  0  0  0  0  0  0  0  0
    3.8735   16.1077   -2.9167 H   0  0  0  0  0  0  0  0  0  0  0  0
    6.4720   13.5725   -3.3251 H   0  0  0  0  0  0  0  0  0  0  0  0
    5.8378   13.0746   -4.9124 H   0  0  0  0  0  0  0  0  0  0  0  0
    5.2371   11.4549   -3.1016 H   0  0  0  0  0  0  0  0  0  0  0  0
    3.7996   12.1924   -3.8503 H   0  0  0  0  0  0  0  0  0  0  0  0
   -1.8417    6.7066    5.7346 H   0  0  0  0  0  0  0  0  0  0  0  0
    0.3491    7.8511    1.0750 H   0  0  0  0  0  0  0  0  0  0  0  0
   -1.4384    6.9741   -0.7120 H   0  0  0  0  0  0  0  0  0  0  0  0
   -2.2991    5.3997   -0.2855 H   0  0  0  0  0  0  0  0  0  0  0  0
    2.0841    3.7181    0.0014 H   0  0  0  0  0  0  0  0  0  0  0  0
    2.1175    1.2560   -0.0115 H   0  0  0  0  0  0  0  0  0  0  0  0
    0.0021   -0.0041    0.0020 H   0  0  0  0  0  0  0  0  0  0  0  0
   -2.1469    1.1980    0.0188 H   0  0  0  0  0  0  0  0  0  0  0  0
   -2.1802    3.6600    0.0422 H   0  0  0  0  0  0  0  0  0  0  0  0
    4.2777   12.8958   -1.9063 N   0  3  0  0  0  0  0  0  0  0  0  0
    5.1212   13.0755   -1.3492 H   0  0  0  0  0  0  0  0  0  0  0  0
  1  2  1  0  0  0  0
  1 34  1  0  0  0  0
  1 35  1  0  0  0  0
  1 36  1  0  0  0  0
  2  3  1  0  0  0  0
  3  8  2  0  0  0  0
  3  4  1  0  0  0  0
  4  5  2  0  0  0  0
  4 37  1  0  0  0  0
  5 21  1  0  0  0  0
  5  6  1  0  0  0  0
  6  7  2  0  0  0  0
  6 18  1  0  0  0  0
  7  8  1  0  0  0  0
  7 38  1  0  0  0  0
  8  9  1  0  0  0  0
  9 10  1  0  0  0  0
 10 11  1  0  0  0  0
 10 39  1  0  0  0  0
 10 40  1  0  0  0  0
 11 12  1  0  0  0  0
 11 41  1  0  0  0  0
 11 42  1  0  0  0  0
 12 43  1  0  0  0  0
 12 44  1  0  0  0  0
 12 62  1  0  0  0  0
 13 14  1  0  0  0  0
 13 45  1  0  0  0  0
 13 46  1  0  0  0  0
 13 62  1  0  0  0  0
 14 15  1  0  0  0  0
 14 47  1  0  0  0  0
 14 48  1  0  0  0  0
 15 16  1  0  0  0  0
 16 17  1  0  0  0  0
 16 49  1  0  0  0  0
 16 50  1  0  0  0  0
 17 51  1  0  0  0  0
 17 52  1  0  0  0  0
 17 62  1  0  0  0  0
 18 19  2  0  0  0  0
 18 22  1  0  0  0  0
 19 20  1  0  0  0  0
 20 21  2  0  0  0  0
 20 53  1  0  0  0  0
 22 23  1  0  0  0  0
 22 54  1  0  0  0  0
 23 24  1  0  0  0  0
 23 26  1  0  0  0  0
 23 25  1  0  0  0  0
 25 26  1  0  0  0  0
 25 55  1  0  0  0  0
 25 56  1  0  0  0  0
 26 27  1  0  0  0  0
 26 28  1  0  0  0  0
 28 33  2  0  0  0  0
 28 29  1  0  0  0  0
 29 30  2  0  0  0  0
 29 57  1  0  0  0  0
 30 31  1  0  0  0  0
 30 58  1  0  0  0  0
 31 32  2  0  0  0  0
 31 59  1  0  0  0  0
 32 33  1  0  0  0  0
 32 60  1  0  0  0  0
 33 61  1  0  0  0  0
 62 63  1  0  0  0  0
M  CHG  1  62   1
M  END
$$$$
ZINC04617806
  -OEChem-08230709403D

 63 67  0     1  0  0  0  0  0999 V2000
    2.2613    5.2832    0.0089 C   0  0  0  0  0  0  0  0  0  0  0  0
    2.3323    3.8560    0.0005 O   0  0  0  0  0  0  0  0  0  0  0  0
    1.1541    3.1798    0.0082 C   0  0  0  0  0  0  0  0  0  0  0  0
   -0.0326    3.8790    0.0229 C   0  0  0  0  0  0  0  0  0  0  0  0
   -1.2453    3.1794    0.0307 C   0  0  0  0  0  0  0  0  0  0  0  0
   -1.2325    1.7626    0.0175 C   0  0  0  0  0  0  0  0  0  0  0  0
   -0.0126    1.0758    0.0080 C   0  0  0  0  0  0  0  0  0  0  0  0
    1.1590    1.7781    0.0005 C   0  0  0  0  0  0  0  0  0  0  0  0
    2.3434    1.1100   -0.0139 O   0  0  0  0  0  0  0  0  0  0  0  0
    2.2828   -0.3177   -0.0206 C   0  0  0  0  0  0  0  0  0  0  0  0
    3.7023   -0.8884   -0.0368 C   0  0  0  0  0  0  0  0  0  0  0  0
    3.6374   -2.4170   -0.0439 C   0  0  0  0  0  0  0  0  0  0  0  0
    5.6826   -2.6445   -1.3217 C   0  0  0  0  0  0  0  0  0  0  0  0
    7.1156   -3.1810   -1.2714 C   0  0  0  0  0  0  0  0  0  0  0  0
    7.0839   -4.5876   -1.0150 O   0  0  0  0  0  0  0  0  0  0  0  0
    6.4272   -4.9354    0.2069 C   0  0  0  0  0  0  0  0  0  0  0  0
    4.9872   -4.4167    0.1716 C   0  0  0  0  0  0  0  0  0  0  0  0
   -2.4741    1.0835    0.0326 C   0  0  0  0  0  0  0  0  0  0  0  0
   -3.5853    1.8078    0.0477 N   0  0  0  0  0  0  0  0  0  0  0  0
   -3.5485    3.1310    0.0541 C   0  0  0  0  0  0  0  0  0  0  0  0
   -2.4284    3.8134    0.0461 N   0  0  0  0  0  0  0  0  0  0  0  0
   -2.5274   -0.2950    0.0255 N   0  0  0  0  0  0  0  0  0  0  0  0
   -3.8234   -0.9780    0.0348 C   0  0  2  0  0  0  0  0  0  0  0  0
   -4.6932   -0.3378   -0.1124 H   0  0  0  0  0  0  0  0  0  0  0  0
   -3.9810   -2.1816    0.9661 C   0  0  0  0  0  0  0  0  0  0  0  0
   -3.8808   -2.3923   -0.5460 C   0  0  1  0  0  0  0  0  0  0  0  0
   -2.9543   -2.8144   -0.9353 H   0  0  0  0  0  0  0  0  0  0  0  0
   -5.1357   -2.7938   -1.2773 C   0  0  0  0  0  0  0  0  0  0  0  0
   -6.3508   -2.7909   -0.6181 C   0  0  0  0  0  0  0  0  0  0  0  0
   -7.5025   -3.1554   -1.2900 C   0  0  0  0  0  0  0  0  0  0  0  0
   -7.4380   -3.5309   -2.6188 C   0  0  0  0  0  0  0  0  0  0  0  0
   -6.2222   -3.5389   -3.2766 C   0  0  0  0  0  0  0  0  0  0  0  0
   -5.0710   -3.1706   -2.6057 C   0  0  0  0  0  0  0  0  0  0  0  0
    1.7215    5.6253   -0.8741 H   0  0  0  0  0  0  0  0  0  0  0  0
    1.7386    5.6157    0.9057 H   0  0  0  0  0  0  0  0  0  0  0  0
    3.2696    5.6972    0.0014 H   0  0  0  0  0  0  0  0  0  0  0  0
   -0.0275    4.9589    0.0279 H   0  0  0  0  0  0  0  0  0  0  0  0
    0.0021   -0.0041    0.0020 H   0  0  0  0  0  0  0  0  0  0  0  0
    1.7623   -0.6635    0.8726 H   0  0  0  0  0  0  0  0  0  0  0  0
    1.7457   -0.6545   -0.9073 H   0  0  0  0  0  0  0  0  0  0  0  0
    4.2227   -0.5426   -0.9299 H   0  0  0  0  0  0  0  0  0  0  0  0
    4.2394   -0.5516    0.8499 H   0  0  0  0  0  0  0  0  0  0  0  0
    3.1170   -2.7627    0.8492 H   0  0  0  0  0  0  0  0  0  0  0  0
    3.1003   -2.7537   -0.9306 H   0  0  0  0  0  0  0  0  0  0  0  0
    5.1493   -3.1081   -2.1516 H   0  0  0  0  0  0  0  0  0  0  0  0
    5.7033   -1.5635   -1.4600 H   0  0  0  0  0  0  0  0  0  0  0  0
    7.6648   -2.6781   -0.4754 H   0  0  0  0  0  0  0  0  0  0  0  0
    7.6078   -2.9960   -2.2262 H   0  0  0  0  0  0  0  0  0  0  0  0
    6.9563   -4.4836    1.0460 H   0  0  0  0  0  0  0  0  0  0  0  0
    6.4208   -6.0194    0.3210 H   0  0  0  0  0  0  0  0  0  0  0  0
    4.5003   -4.6293    1.1234 H   0  0  0  0  0  0  0  0  0  0  0  0
    4.4427   -4.9086   -0.6344 H   0  0  0  0  0  0  0  0  0  0  0  0
   -4.4826    3.6729    0.0661 H   0  0  0  0  0  0  0  0  0  0  0  0
   -1.7068   -0.8120    0.0145 H   0  0  0  0  0  0  0  0  0  0  0  0
   -3.1204   -2.4652    1.5720 H   0  0  0  0  0  0  0  0  0  0  0  0
   -4.9547   -2.3334    1.4320 H   0  0  0  0  0  0  0  0  0  0  0  0
   -6.4007   -2.5008    0.4210 H   0  0  0  0  0  0  0  0  0  0  0  0
   -8.4524   -3.1495   -0.7760 H   0  0  0  0  0  0  0  0  0  0  0  0
   -8.3375   -3.8183   -3.1430 H   0  0  0  0  0  0  0  0  0  0  0  0
   -6.1718   -3.8325   -4.3147 H   0  0  0  0  0  0  0  0  0  0  0  0
   -4.1212   -3.1768   -3.1196 H   0  0  0  0  0  0  0  0  0  0  0  0
    5.0153   -2.9543   -0.0395 N   0  3  0  0  0  0  0  0  0  0  0  0
    5.5418   -2.5164    0.7256 H   0  0  0  0  0  0  0  0  0  0  0  0
  1  2  1  0  0  0  0
  1 34  1  0  0  0  0
  1 35  1  0  0  0  0
  1 36  1  0  0  0  0
  2  3  1  0  0  0  0
  3  8  2  0  0  0  0
  3  4  1  0  0  0  0
  4  5  2  0  0  0  0
  4 37  1  0  0  0  0
  5 21  1  0  0  0  0
  5  6  1  0  0  0  0
  6  7  2  0  0  0  0
  6 18  1  0  0  0  0
  7  8  1  0  0  0  0
  7 38  1  0  0  0  0
  8  9  1  0  0  0  0
  9 10  1  0  0  0  0
 10 11  1  0  0  0  0
 10 39  1  0  0  0  0
 10 40  1  0  0  0  0
 11 12  1  0  0  0  0
 11 41  1  0  0  0  0
 11 42  1  0  0  0  0
 12 43  1  0  0  0  0
 12 44  1  0  0  0  0
 12 62  1  0  0  0  0
 13 14  1  0  0  0  0
 13 45  1  0  0  0  0
 13 46  1  0  0  0  0
 13 62  1  0  0  0  0
 14 15  1  0  0  0  0
 14 47  1  0  0  0  0
 14 48  1  0  0  0  0
 15 16  1  0  0  0  0
 16 17  1  0  0  0  0
 16 49  1  0  0  0  0
 16 50  1  0  0  0  0
 17 51  1  0  0  0  0
 17 52  1  0  0  0  0
 17 62  1  0  0  0  0
 18 19  2  0  0  0  0
 18 22  1  0  0  0  0
 19 20  1  0  0  0  0
 20 21  2  0  0  0  0
 20 53  1  0  0  0  0
 22 23  1  0  0  0  0
 22 54  1  0  0  0  0
 23 24  1  0  0  0  0
 23 26  1  0  0  0  0
 23 25  1  0  0  0  0
 25 26  1  0  0  0  0
 25 55  1  0  0  0  0
 25 56  1  0  0  0  0
 26 27  1  0  0  0  0
 26 28  1  0  0  0  0
 28 33  2  0  0  0  0
 28 29  1  0  0  0  0
 29 30  2  0  0  0  0
 29 57  1  0  0  0  0
 30 31  1  0  0  0  0
 30 58  1  0  0  0  0
 31 32  2  0  0  0  0
 31 59  1  0  0  0  0
 32 33  1  0  0  0  0
 32 60  1  0  0  0  0
 33 61  1  0  0  0  0
 62 63  1  0  0  0  0
M  CHG  1  62   1
M  END
$$$$
ZINC04617807
  -OEChem-08230709403D

 63 67  0     1  0  0  0  0  0999 V2000
   -3.8674    7.0717   -5.5261 C   0  0  0  0  0  0  0  0  0  0  0  0
   -2.9709    5.9746   -5.7123 O   0  0  0  0  0  0  0  0  0  0  0  0
   -2.5619    5.3162   -4.5966 C   0  0  0  0  0  0  0  0  0  0  0  0
   -3.0162    5.7219   -3.3612 C   0  0  0  0  0  0  0  0  0  0  0  0
   -2.5931    5.0415   -2.2130 C   0  0  0  0  0  0  0  0  0  0  0  0
   -1.7039    3.9458   -2.3407 C   0  0  0  0  0  0  0  0  0  0  0  0
   -1.2569    3.5534   -3.6081 C   0  0  0  0  0  0  0  0  0  0  0  0
   -1.6826    4.2310   -4.7151 C   0  0  0  0  0  0  0  0  0  0  0  0
   -1.2486    3.8485   -5.9458 O   0  0  0  0  0  0  0  0  0  0  0  0
   -0.3538    2.7357   -6.0013 C   0  0  0  0  0  0  0  0  0  0  0  0
    0.0220    2.4556   -7.4577 C   0  0  0  0  0  0  0  0  0  0  0  0
    0.9800    1.2641   -7.5171 C   0  0  0  0  0  0  0  0  0  0  0  0
    0.1735    0.5354   -9.6817 C   0  0  0  0  0  0  0  0  0  0  0  0
    0.5796    0.3247  -11.1428 C   0  0  0  0  0  0  0  0  0  0  0  0
    1.6656   -0.6039  -11.2013 O   0  0  0  0  0  0  0  0  0  0  0  0
    2.8195   -0.1874  -10.4662 C   0  0  0  0  0  0  0  0  0  0  0  0
    2.4362    0.0180   -8.9983 C   0  0  0  0  0  0  0  0  0  0  0  0
   -1.2941    3.2774   -1.1624 C   0  0  0  0  0  0  0  0  0  0  0  0
   -1.7673    3.7075   -0.0003 N   0  0  0  0  0  0  0  0  0  0  0  0
   -2.5931    4.7395    0.0710 C   0  0  0  0  0  0  0  0  0  0  0  0
   -3.0065    5.3966   -0.9862 N   0  0  0  0  0  0  0  0  0  0  0  0
   -0.4302    2.2035   -1.2215 N   0  0  0  0  0  0  0  0  0  0  0  0
   -0.0187    1.5258    0.0104 C   0  0  1  0  0  0  0  0  0  0  0  0
   -0.3072    2.0201    0.9381 H   0  0  0  0  0  0  0  0  0  0  0  0
    0.0021   -0.0041    0.0020 C   0  0  0  0  0  0  0  0  0  0  0  0
    1.3165    0.7789   -0.0063 C   0  0  1  0  0  0  0  0  0  0  0  0
    1.9064    0.7818    0.9103 H   0  0  0  0  0  0  0  0  0  0  0  0
    2.1077    0.7967   -1.2888 C   0  0  0  0  0  0  0  0  0  0  0  0
    1.5617    0.2715   -2.4451 C   0  0  0  0  0  0  0  0  0  0  0  0
    2.2858    0.2918   -3.6225 C   0  0  0  0  0  0  0  0  0  0  0  0
    3.5594    0.8290   -3.6415 C   0  0  0  0  0  0  0  0  0  0  0  0
    4.1074    1.3494   -2.4841 C   0  0  0  0  0  0  0  0  0  0  0  0
    3.3816    1.3331   -1.3077 C   0  0  0  0  0  0  0  0  0  0  0  0
   -4.1141    7.5076   -6.4942 H   0  0  0  0  0  0  0  0  0  0  0  0
   -4.7789    6.7183   -5.0440 H   0  0  0  0  0  0  0  0  0  0  0  0
   -3.3932    7.8259   -4.8982 H   0  0  0  0  0  0  0  0  0  0  0  0
   -3.6941    6.5586   -3.2788 H   0  0  0  0  0  0  0  0  0  0  0  0
   -0.5785    2.7193   -3.7100 H   0  0  0  0  0  0  0  0  0  0  0  0
    0.5466    2.9647   -5.4313 H   0  0  0  0  0  0  0  0  0  0  0  0
   -0.8395    1.8574   -5.5760 H   0  0  0  0  0  0  0  0  0  0  0  0
   -0.8784    2.2265   -8.0277 H   0  0  0  0  0  0  0  0  0  0  0  0
    0.5076    3.3338   -7.8830 H   0  0  0  0  0  0  0  0  0  0  0  0
    1.8804    1.4931   -6.9471 H   0  0  0  0  0  0  0  0  0  0  0  0
    0.4944    0.3858   -7.0918 H   0  0  0  0  0  0  0  0  0  0  0  0
   -0.1879   -0.4049   -9.2652 H   0  0  0  0  0  0  0  0  0  0  0  0
   -0.6157    1.2853   -9.6278 H   0  0  0  0  0  0  0  0  0  0  0  0
    0.8903    1.2759  -11.5749 H   0  0  0  0  0  0  0  0  0  0  0  0
   -0.2679   -0.0706  -11.7027 H   0  0  0  0  0  0  0  0  0  0  0  0
    3.1954    0.7489  -10.8787 H   0  0  0  0  0  0  0  0  0  0  0  0
    3.5926   -0.9526  -10.5368 H   0  0  0  0  0  0  0  0  0  0  0  0
    3.2987    0.3904   -8.4456 H   0  0  0  0  0  0  0  0  0  0  0  0
    2.1109   -0.9304   -8.5709 H   0  0  0  0  0  0  0  0  0  0  0  0
   -2.9452    5.0522    1.0429 H   0  0  0  0  0  0  0  0  0  0  0  0
   -0.0951    1.8971   -2.0787 H   0  0  0  0  0  0  0  0  0  0  0  0
   -0.2728   -0.5162    0.9241 H   0  0  0  0  0  0  0  0  0  0  0  0
   -0.2904   -0.5063   -0.9201 H   0  0  0  0  0  0  0  0  0  0  0  0
    0.5682   -0.1516   -2.4294 H   0  0  0  0  0  0  0  0  0  0  0  0
    1.8575   -0.1145   -4.5269 H   0  0  0  0  0  0  0  0  0  0  0  0
    4.1261    0.8424   -4.5608 H   0  0  0  0  0  0  0  0  0  0  0  0
    5.1024    1.7691   -2.4989 H   0  0  0  0  0  0  0  0  0  0  0  0
    3.8098    1.7397   -0.4033 H   0  0  0  0  0  0  0  0  0  0  0  0
    1.3495    1.0178   -8.9278 N   0  3  0  0  0  0  0  0  0  0  0  0
    1.6765    1.8969   -9.3455 H   0  0  0  0  0  0  0  0  0  0  0  0
  1  2  1  0  0  0  0
  1 34  1  0  0  0  0
  1 35  1  0  0  0  0
  1 36  1  0  0  0  0
  2  3  1  0  0  0  0
  3  8  2  0  0  0  0
  3  4  1  0  0  0  0
  4  5  2  0  0  0  0
  4 37  1  0  0  0  0
  5 21  1  0  0  0  0
  5  6  1  0  0  0  0
  6  7  2  0  0  0  0
  6 18  1  0  0  0  0
  7  8  1  0  0  0  0
  7 38  1  0  0  0  0
  8  9  1  0  0  0  0
  9 10  1  0  0  0  0
 10 11  1  0  0  0  0
 10 39  1  0  0  0  0
 10 40  1  0  0  0  0
 11 12  1  0  0  0  0
 11 41  1  0  0  0  0
 11 42  1  0  0  0  0
 12 43  1  0  0  0  0
 12 44  1  0  0  0  0
 12 62  1  0  0  0  0
 13 14  1  0  0  0  0
 13 45  1  0  0  0  0
 13 46  1  0  0  0  0
 13 62  1  0  0  0  0
 14 15  1  0  0  0  0
 14 47  1  0  0  0  0
 14 48  1  0  0  0  0
 15 16  1  0  0  0  0
 16 17  1  0  0  0  0
 16 49  1  0  0  0  0
 16 50  1  0  0  0  0
 17 51  1  0  0  0  0
 17 52  1  0  0  0  0
 17 62  1  0  0  0  0
 18 19  2  0  0  0  0
 18 22  1  0  0  0  0
 19 20  1  0  0  0  0
 20 21  2  0  0  0  0
 20 53  1  0  0  0  0
 22 23  1  0  0  0  0
 22 54  1  0  0  0  0
 23 24  1  0  0  0  0
 23 26  1  0  0  0  0
 23 25  1  0  0  0  0
 25 26  1  0  0  0  0
 25 55  1  0  0  0  0
 25 56  1  0  0  0  0
 26 27  1  0  0  0  0
 26 28  1  0  0  0  0
 28 33  2  0  0  0  0
 28 29  1  0  0  0  0
 29 30  2  0  0  0  0
 29 57  1  0  0  0  0
 30 31  1  0  0  0  0
 30 58  1  0  0  0  0
 31 32  2  0  0  0  0
 31 59  1  0  0  0  0
 32 33  1  0  0  0  0
 32 60  1  0  0  0  0
 33 61  1  0  0  0  0
 62 63  1  0  0  0  0
M  CHG  1  62   1
M  END
$$$$
ZINC04617808
  -OEChem-08230709403D

 40 43  0     1  0  0  0  0  0999 V2000
   -3.9024    2.0409   -8.8026 C   0  0  0  0  0  0  0  0  0  0  0  0
   -3.7889    2.6519   -7.5158 O   0  0  0  0  0  0  0  0  0  0  0  0
   -3.2186    1.9116   -6.5297 C   0  0  0  0  0  0  0  0  0  0  0  0
   -2.7834    0.6336   -6.8022 C   0  0  0  0  0  0  0  0  0  0  0  0
   -2.1961   -0.1270   -5.7840 C   0  0  0  0  0  0  0  0  0  0  0  0
   -2.0637    0.4287   -4.4873 C   0  0  0  0  0  0  0  0  0  0  0  0
   -2.5086    1.7325   -4.2380 C   0  0  0  0  0  0  0  0  0  0  0  0
   -3.0791    2.4569   -5.2458 C   0  0  0  0  0  0  0  0  0  0  0  0
   -3.5162    3.7211   -5.0011 O   0  0  0  0  0  0  0  0  0  0  0  0
   -1.4606   -0.3622   -3.4804 C   0  0  0  0  0  0  0  0  0  0  0  0
   -1.0597   -1.5856   -3.7996 N   0  0  0  0  0  0  0  0  0  0  0  0
   -1.2088   -2.0650   -5.0244 C   0  0  0  0  0  0  0  0  0  0  0  0
   -1.7554   -1.3767   -5.9980 N   0  0  0  0  0  0  0  0  0  0  0  0
   -1.2993    0.1243   -2.1996 N   0  0  0  0  0  0  0  0  0  0  0  0
   -0.6780   -0.7134   -1.1707 C   0  0  2  0  0  0  0  0  0  0  0  0
   -0.2290   -1.6405   -1.5270 H   0  0  0  0  0  0  0  0  0  0  0  0
   -1.3280   -0.7298    0.2143 C   0  0  0  0  0  0  0  0  0  0  0  0
    0.0021   -0.0041    0.0020 C   0  0  2  0  0  0  0  0  0  0  0  0
    0.8987   -0.4644    0.4170 H   0  0  0  0  0  0  0  0  0  0  0  0
   -0.0184    1.5028    0.0103 C   0  0  0  0  0  0  0  0  0  0  0  0
   -1.2248    2.1776    0.0197 C   0  0  0  0  0  0  0  0  0  0  0  0
   -1.2435    3.5598    0.0322 C   0  0  0  0  0  0  0  0  0  0  0  0
   -0.0559    4.2672    0.0251 C   0  0  0  0  0  0  0  0  0  0  0  0
    1.1505    3.5924    0.0100 C   0  0  0  0  0  0  0  0  0  0  0  0
    1.1693    2.2102    0.0028 C   0  0  0  0  0  0  0  0  0  0  0  0
   -4.5101    1.1394   -8.7244 H   0  0  0  0  0  0  0  0  0  0  0  0
   -4.3738    2.7379   -9.4954 H   0  0  0  0  0  0  0  0  0  0  0  0
   -2.9099    1.7793   -9.1694 H   0  0  0  0  0  0  0  0  0  0  0  0
   -2.8940    0.2213   -7.7943 H   0  0  0  0  0  0  0  0  0  0  0  0
   -2.4058    2.1617   -3.2523 H   0  0  0  0  0  0  0  0  0  0  0  0
   -4.4368    3.7694   -4.7092 H   0  0  0  0  0  0  0  0  0  0  0  0
   -0.8647   -3.0675   -5.2313 H   0  0  0  0  0  0  0  0  0  0  0  0
   -1.5972    1.0210   -1.9802 H   0  0  0  0  0  0  0  0  0  0  0  0
   -1.3066   -1.6677    0.7692 H   0  0  0  0  0  0  0  0  0  0  0  0
   -2.2179   -0.1174    0.3599 H   0  0  0  0  0  0  0  0  0  0  0  0
   -2.1527    1.6249    0.0211 H   0  0  0  0  0  0  0  0  0  0  0  0
   -2.1860    4.0870    0.0437 H   0  0  0  0  0  0  0  0  0  0  0  0
   -0.0705    5.3471    0.0311 H   0  0  0  0  0  0  0  0  0  0  0  0
    2.0784    4.1450    0.0041 H   0  0  0  0  0  0  0  0  0  0  0  0
    2.1118    1.6830   -0.0091 H   0  0  0  0  0  0  0  0  0  0  0  0
  1  2  1  0  0  0  0
  1 26  1  0  0  0  0
  1 27  1  0  0  0  0
  1 28  1  0  0  0  0
  2  3  1  0  0  0  0
  3  8  2  0  0  0  0
  3  4  1  0  0  0  0
  4  5  2  0  0  0  0
  4 29  1  0  0  0  0
  5 13  1  0  0  0  0
  5  6  1  0  0  0  0
  6  7  2  0  0  0  0
  6 10  1  0  0  0  0
  7  8  1  0  0  0  0
  7 30  1  0  0  0  0
  8  9  1  0  0  0  0
  9 31  1  0  0  0  0
 10 11  2  0  0  0  0
 10 14  1  0  0  0  0
 11 12  1  0  0  0  0
 12 13  2  0  0  0  0
 12 32  1  0  0  0  0
 14 15  1  0  0  0  0
 14 33  1  0  0  0  0
 15 16  1  0  0  0  0
 15 18  1  0  0  0  0
 15 17  1  0  0  0  0
 17 18  1  0  0  0  0
 17 34  1  0  0  0  0
 17 35  1  0  0  0  0
 18 19  1  0  0  0  0
 18 20  1  0  0  0  0
 20 25  2  0  0  0  0
 20 21  1  0  0  0  0
 21 22  2  0  0  0  0
 21 36  1  0  0  0  0
 22 23  1  0  0  0  0
 22 37  1  0  0  0  0
 23 24  2  0  0  0  0
 23 38  1  0  0  0  0
 24 25  1  0  0  0  0
 24 39  1  0  0  0  0
 25 40  1  0  0  0  0
M  END
$$$$
ZINC04617809
  -OEChem-08230709403D

 40 43  0     1  0  0  0  0  0999 V2000
    1.4784   12.7664    6.3147 C   0  0  0  0  0  0  0  0  0  0  0  0
    1.7445   12.4513    4.9465 O   0  0  0  0  0  0  0  0  0  0  0  0
    1.2279   11.2889    4.4696 C   0  0  0  0  0  0  0  0  0  0  0  0
    0.4866   10.4804    5.3027 C   0  0  0  0  0  0  0  0  0  0  0  0
   -0.0447    9.2830    4.8085 C   0  0  0  0  0  0  0  0  0  0  0  0
    0.1890    8.9222    3.4584 C   0  0  0  0  0  0  0  0  0  0  0  0
    0.9459    9.7617    2.6323 C   0  0  0  0  0  0  0  0  0  0  0  0
    1.4553   10.9251    3.1351 C   0  0  0  0  0  0  0  0  0  0  0  0
    2.1912   11.7394    2.3322 O   0  0  0  0  0  0  0  0  0  0  0  0
   -0.3611    7.7063    2.9873 C   0  0  0  0  0  0  0  0  0  0  0  0
   -1.0710    6.9700    3.8318 N   0  0  0  0  0  0  0  0  0  0  0  0
   -1.2592    7.3452    5.0871 C   0  0  0  0  0  0  0  0  0  0  0  0
   -0.7741    8.4604    5.5786 N   0  0  0  0  0  0  0  0  0  0  0  0
   -0.1690    7.3006    1.6828 N   0  0  0  0  0  0  0  0  0  0  0  0
   -0.7473    6.0382    1.2156 C   0  0  1  0  0  0  0  0  0  0  0  0
   -1.1777    5.4031    1.9898 H   0  0  0  0  0  0  0  0  0  0  0  0
   -1.4237    6.0362   -0.1568 C   0  0  0  0  0  0  0  0  0  0  0  0
   -0.0705    5.3471    0.0302 C   0  0  2  0  0  0  0  0  0  0  0  0
    0.8050    5.8314   -0.4024 H   0  0  0  0  0  0  0  0  0  0  0  0
   -0.0501    3.8402    0.0223 C   0  0  0  0  0  0  0  0  0  0  0  0
    1.1563    3.1654    0.0076 C   0  0  0  0  0  0  0  0  0  0  0  0
    1.1750    1.7832    0.0004 C   0  0  0  0  0  0  0  0  0  0  0  0
   -0.0126    1.0758    0.0080 C   0  0  0  0  0  0  0  0  0  0  0  0
   -1.2190    1.7506    0.0173 C   0  0  0  0  0  0  0  0  0  0  0  0
   -1.2377    3.1328    0.0303 C   0  0  0  0  0  0  0  0  0  0  0  0
    1.9469   13.7180    6.5661 H   0  0  0  0  0  0  0  0  0  0  0  0
    0.4017   12.8399    6.4678 H   0  0  0  0  0  0  0  0  0  0  0  0
    1.8836   11.9819    6.9537 H   0  0  0  0  0  0  0  0  0  0  0  0
    0.3167   10.7679    6.3297 H   0  0  0  0  0  0  0  0  0  0  0  0
    1.1268    9.4903    1.6028 H   0  0  0  0  0  0  0  0  0  0  0  0
    3.1391   11.5487    2.3415 H   0  0  0  0  0  0  0  0  0  0  0  0
   -1.8417    6.7066    5.7346 H   0  0  0  0  0  0  0  0  0  0  0  0
    0.3491    7.8511    1.0750 H   0  0  0  0  0  0  0  0  0  0  0  0
   -1.4384    6.9741   -0.7120 H   0  0  0  0  0  0  0  0  0  0  0  0
   -2.2991    5.3997   -0.2855 H   0  0  0  0  0  0  0  0  0  0  0  0
    2.0841    3.7181    0.0014 H   0  0  0  0  0  0  0  0  0  0  0  0
    2.1175    1.2560   -0.0115 H   0  0  0  0  0  0  0  0  0  0  0  0
    0.0021   -0.0041    0.0020 H   0  0  0  0  0  0  0  0  0  0  0  0
   -2.1469    1.1980    0.0188 H   0  0  0  0  0  0  0  0  0  0  0  0
   -2.1802    3.6600    0.0422 H   0  0  0  0  0  0  0  0  0  0  0  0
  1  2  1  0  0  0  0
  1 26  1  0  0  0  0
  1 27  1  0  0  0  0
  1 28  1  0  0  0  0
  2  3  1  0  0  0  0
  3  8  2  0  0  0  0
  3  4  1  0  0  0  0
  4  5  2  0  0  0  0
  4 29  1  0  0  0  0
  5 13  1  0  0  0  0
  5  6  1  0  0  0  0
  6  7  2  0  0  0  0
  6 10  1  0  0  0  0
  7  8  1  0  0  0  0
  7 30  1  0  0  0  0
  8  9  1  0  0  0  0
  9 31  1  0  0  0  0
 10 11  2  0  0  0  0
 10 14  1  0  0  0  0
 11 12  1  0  0  0  0
 12 13  2  0  0  0  0
 12 32  1  0  0  0  0
 14 15  1  0  0  0  0
 14 33  1  0  0  0  0
 15 16  1  0  0  0  0
 15 18  1  0  0  0  0
 15 17  1  0  0  0  0
 17 18  1  0  0  0  0
 17 34  1  0  0  0  0
 17 35  1  0  0  0  0
 18 19  1  0  0  0  0
 18 20  1  0  0  0  0
 20 25  2  0  0  0  0
 20 21  1  0  0  0  0
 21 22  2  0  0  0  0
 21 36  1  0  0  0  0
 22 23  1  0  0  0  0
 22 37  1  0  0  0  0
 23 24  2  0  0  0  0
 23 38  1  0  0  0  0
 24 25  1  0  0  0  0
 24 39  1  0  0  0  0
 25 40  1  0  0  0  0
M  END
$$$$
ZINC04617810
  -OEChem-08230709403D

 40 43  0     1  0  0  0  0  0999 V2000
    2.2613    5.2832    0.0089 C   0  0  0  0  0  0  0  0  0  0  0  0
    2.3323    3.8560    0.0005 O   0  0  0  0  0  0  0  0  0  0  0  0
    1.1541    3.1798    0.0082 C   0  0  0  0  0  0  0  0  0  0  0  0
   -0.0326    3.8790    0.0229 C   0  0  0  0  0  0  0  0  0  0  0  0
   -1.2453    3.1794    0.0307 C   0  0  0  0  0  0  0  0  0  0  0  0
   -1.2325    1.7626    0.0175 C   0  0  0  0  0  0  0  0  0  0  0  0
   -0.0126    1.0758    0.0080 C   0  0  0  0  0  0  0  0  0  0  0  0
    1.1590    1.7781    0.0005 C   0  0  0  0  0  0  0  0  0  0  0  0
    2.3434    1.1100   -0.0139 O   0  0  0  0  0  0  0  0  0  0  0  0
   -2.4741    1.0835    0.0326 C   0  0  0  0  0  0  0  0  0  0  0  0
   -3.5853    1.8078    0.0477 N   0  0  0  0  0  0  0  0  0  0  0  0
   -3.5485    3.1310    0.0541 C   0  0  0  0  0  0  0  0  0  0  0  0
   -2.4284    3.8134    0.0461 N   0  0  0  0  0  0  0  0  0  0  0  0
   -2.5274   -0.2950    0.0255 N   0  0  0  0  0  0  0  0  0  0  0  0
   -3.8234   -0.9780    0.0348 C   0  0  2  0  0  0  0  0  0  0  0  0
   -4.6932   -0.3378   -0.1124 H   0  0  0  0  0  0  0  0  0  0  0  0
   -3.9810   -2.1816    0.9661 C   0  0  0  0  0  0  0  0  0  0  0  0
   -3.8808   -2.3923   -0.5460 C   0  0  1  0  0  0  0  0  0  0  0  0
   -2.9543   -2.8144   -0.9353 H   0  0  0  0  0  0  0  0  0  0  0  0
   -5.1357   -2.7938   -1.2773 C   0  0  0  0  0  0  0  0  0  0  0  0
   -6.3508   -2.7909   -0.6181 C   0  0  0  0  0  0  0  0  0  0  0  0
   -7.5025   -3.1554   -1.2900 C   0  0  0  0  0  0  0  0  0  0  0  0
   -7.4380   -3.5309   -2.6188 C   0  0  0  0  0  0  0  0  0  0  0  0
   -6.2222   -3.5389   -3.2766 C   0  0  0  0  0  0  0  0  0  0  0  0
   -5.0710   -3.1706   -2.6057 C   0  0  0  0  0  0  0  0  0  0  0  0
    1.7215    5.6253   -0.8741 H   0  0  0  0  0  0  0  0  0  0  0  0
    1.7386    5.6157    0.9057 H   0  0  0  0  0  0  0  0  0  0  0  0
    3.2696    5.6972    0.0014 H   0  0  0  0  0  0  0  0  0  0  0  0
   -0.0275    4.9589    0.0279 H   0  0  0  0  0  0  0  0  0  0  0  0
    0.0021   -0.0041    0.0020 H   0  0  0  0  0  0  0  0  0  0  0  0
    2.6776    0.9212   -0.9015 H   0  0  0  0  0  0  0  0  0  0  0  0
   -4.4826    3.6729    0.0661 H   0  0  0  0  0  0  0  0  0  0  0  0
   -1.7068   -0.8120    0.0145 H   0  0  0  0  0  0  0  0  0  0  0  0
   -3.1204   -2.4652    1.5720 H   0  0  0  0  0  0  0  0  0  0  0  0
   -4.9547   -2.3334    1.4320 H   0  0  0  0  0  0  0  0  0  0  0  0
   -6.4007   -2.5008    0.4210 H   0  0  0  0  0  0  0  0  0  0  0  0
   -8.4524   -3.1495   -0.7760 H   0  0  0  0  0  0  0  0  0  0  0  0
   -8.3375   -3.8183   -3.1430 H   0  0  0  0  0  0  0  0  0  0  0  0
   -6.1718   -3.8325   -4.3147 H   0  0  0  0  0  0  0  0  0  0  0  0
   -4.1212   -3.1768   -3.1196 H   0  0  0  0  0  0  0  0  0  0  0  0
  1  2  1  0  0  0  0
  1 26  1  0  0  0  0
  1 27  1  0  0  0  0
  1 28  1  0  0  0  0
  2  3  1  0  0  0  0
  3  8  2  0  0  0  0
  3  4  1  0  0  0  0
  4  5  2  0  0  0  0
  4 29  1  0  0  0  0
  5 13  1  0  0  0  0
  5  6  1  0  0  0  0
  6  7  2  0  0  0  0
  6 10  1  0  0  0  0
  7  8  1  0  0  0  0
  7 30  1  0  0  0  0
  8  9  1  0  0  0  0
  9 31  1  0  0  0  0
 10 11  2  0  0  0  0
 10 14  1  0  0  0  0
 11 12  1  0  0  0  0
 12 13  2  0  0  0  0
 12 32  1  0  0  0  0
 14 15  1  0  0  0  0
 14 33  1  0  0  0  0
 15 16  1  0  0  0  0
 15 18  1  0  0  0  0
 15 17  1  0  0  0  0
 17 18  1  0  0  0  0
 17 34  1  0  0  0  0
 17 35  1  0  0  0  0
 18 19  1  0  0  0  0
 18 20  1  0  0  0  0
 20 25  2  0  0  0  0
 20 21  1  0  0  0  0
 21 22  2  0  0  0  0
 21 36  1  0  0  0  0
 22 23  1  0  0  0  0
 22 37  1  0  0  0  0
 23 24  2  0  0  0  0
 23 38  1  0  0  0  0
 24 25  1  0  0  0  0
 24 39  1  0  0  0  0
 25 40  1  0  0  0  0
M  END
$$$$
ZINC04617811
  -OEChem-08230709403D

 38 41  0     1  0  0  0  0  0999 V2000
   -1.6665    2.0319    1.4580 C   0  0  0  0  0  0  0  0  0  0  0  0
   -1.2896    1.6810    0.0173 C   0  0  2  0  0  0  0  0  0  0  0  0
   -1.1985    2.5963   -0.5676 H   0  0  0  0  0  0  0  0  0  0  0  0
   -2.3595    0.8057   -0.5829 C   0  0  0  0  0  0  0  0  0  0  0  0
   -2.3836   -0.5476   -0.3017 C   0  0  0  0  0  0  0  0  0  0  0  0
   -3.3676   -1.3497   -0.8488 C   0  0  0  0  0  0  0  0  0  0  0  0
   -4.3218   -0.8003   -1.6845 C   0  0  0  0  0  0  0  0  0  0  0  0
   -4.2949    0.5521   -1.9695 C   0  0  0  0  0  0  0  0  0  0  0  0
   -3.3135    1.3550   -1.4190 C   0  0  0  0  0  0  0  0  0  0  0  0
   -0.0111    0.9658    0.0074 N   0  0  0  0  0  0  0  0  0  0  0  0
    1.1800    1.6753   -0.0002 C   0  0  0  0  0  0  0  0  0  0  0  0
    2.4109    1.0051   -0.0097 C   0  0  0  0  0  0  0  0  0  0  0  0
    3.5798    1.7764   -0.0227 C   0  0  0  0  0  0  0  0  0  0  0  0
    4.7040    0.8276   -0.0386 C   0  0  0  0  0  0  0  0  0  0  0  0
    6.0899    0.9804   -0.0510 C   0  0  0  0  0  0  0  0  0  0  0  0
    6.9012   -0.1323   -0.0648 C   0  0  0  0  0  0  0  0  0  0  0  0
    6.3455   -1.4034   -0.0663 C   0  0  0  0  0  0  0  0  0  0  0  0
    4.9784   -1.5704   -0.0536 C   0  0  0  0  0  0  0  0  0  0  0  0
    4.1405   -0.4585   -0.0401 C   0  0  0  0  0  0  0  0  0  0  0  0
    2.7649   -0.3308   -0.0262 N   0  0  0  0  0  0  0  0  0  0  0  0
    2.1384   -1.0713   -0.0242 H   0  0  0  0  0  0  0  0  0  0  0  0
    3.4828    3.1057   -0.0146 N   0  0  0  0  0  0  0  0  0  0  0  0
    2.3047    3.6910   -0.0002 C   0  0  0  0  0  0  0  0  0  0  0  0
    1.1771    3.0038    0.0070 N   0  0  0  0  0  0  0  0  0  0  0  0
   -0.8927    2.6650    1.8921 H   0  0  0  0  0  0  0  0  0  0  0  0
   -2.6178    2.5640    1.4654 H   0  0  0  0  0  0  0  0  0  0  0  0
   -1.7576    1.1166    2.0430 H   0  0  0  0  0  0  0  0  0  0  0  0
   -1.6357   -0.9775    0.3480 H   0  0  0  0  0  0  0  0  0  0  0  0
   -3.3889   -2.4062   -0.6259 H   0  0  0  0  0  0  0  0  0  0  0  0
   -5.0886   -1.4276   -2.1146 H   0  0  0  0  0  0  0  0  0  0  0  0
   -5.0404    0.9814   -2.6224 H   0  0  0  0  0  0  0  0  0  0  0  0
   -3.2922    2.4116   -1.6419 H   0  0  0  0  0  0  0  0  0  0  0  0
    0.0021   -0.0041    0.0020 H   0  0  0  0  0  0  0  0  0  0  0  0
    6.5258    1.9685   -0.0496 H   0  0  0  0  0  0  0  0  0  0  0  0
    7.9747   -0.0148   -0.0741 H   0  0  0  0  0  0  0  0  0  0  0  0
    6.9905   -2.2696   -0.0771 H   0  0  0  0  0  0  0  0  0  0  0  0
    4.5561   -2.5644   -0.0542 H   0  0  0  0  0  0  0  0  0  0  0  0
    2.2581    4.7699    0.0057 H   0  0  0  0  0  0  0  0  0  0  0  0
  1  2  1  0  0  0  0
  1 25  1  0  0  0  0
  1 26  1  0  0  0  0
  1 27  1  0  0  0  0
  2  3  1  0  0  0  0
  2  4  1  0  0  0  0
  2 10  1  0  0  0  0
  4  9  2  0  0  0  0
  4  5  1  0  0  0  0
  5  6  2  0  0  0  0
  5 28  1  0  0  0  0
  6  7  1  0  0  0  0
  6 29  1  0  0  0  0
  7  8  2  0  0  0  0
  7 30  1  0  0  0  0
  8  9  1  0  0  0  0
  8 31  1  0  0  0  0
  9 32  1  0  0  0  0
 10 11  1  0  0  0  0
 10 33  1  0  0  0  0
 11 24  2  0  0  0  0
 11 12  1  0  0  0  0
 12 20  1  0  0  0  0
 12 13  2  0  0  0  0
 13 14  1  0  0  0  0
 13 22  1  0  0  0  0
 14 19  2  0  0  0  0
 14 15  1  0  0  0  0
 15 16  2  0  0  0  0
 15 34  1  0  0  0  0
 16 17  1  0  0  0  0
 16 35  1  0  0  0  0
 17 18  2  0  0  0  0
 17 36  1  0  0  0  0
 18 19  1  0  0  0  0
 18 37  1  0  0  0  0
 19 20  1  0  0  0  0
 20 21  1  0  0  0  0
 22 23  2  0  0  0  0
 23 24  1  0  0  0  0
 23 38  1  0  0  0  0
M  END
$$$$
ZINC04617812
  -OEChem-08230709403D

 37 40  0     1  0  0  0  0  0999 V2000
    3.0725    9.6993   -1.4114 C   0  0  0  0  0  0  0  0  0  0  0  0
    3.1305    9.1680    0.0223 C   0  0  2  0  0  0  0  0  0  0  0  0
    2.3624    9.6563    0.6221 H   0  0  0  0  0  0  0  0  0  0  0  0
    4.4872    9.4579    0.6108 C   0  0  0  0  0  0  0  0  0  0  0  0
    5.5609    8.6418    0.3073 C   0  0  0  0  0  0  0  0  0  0  0  0
    6.8064    8.9103    0.8437 C   0  0  0  0  0  0  0  0  0  0  0  0
    6.9760    9.9891    1.6912 C   0  0  0  0  0  0  0  0  0  0  0  0
    5.9012   10.8023    1.9985 C   0  0  0  0  0  0  0  0  0  0  0  0
    4.6567   10.5364    1.4587 C   0  0  0  0  0  0  0  0  0  0  0  0
    2.8995    7.7214    0.0167 N   0  0  0  0  0  0  0  0  0  0  0  0
    1.6049    7.2261    0.0269 C   0  0  0  0  0  0  0  0  0  0  0  0
    1.3653    5.8580    0.0214 C   0  0  0  0  0  0  0  0  0  0  0  0
    0.0585    5.3566    0.0308 C   0  0  0  0  0  0  0  0  0  0  0  0
   -0.0700    3.8862    0.0237 C   0  0  0  0  0  0  0  0  0  0  0  0
   -1.2626    3.1289    0.0301 C   0  0  0  0  0  0  0  0  0  0  0  0
   -1.2204    1.7588    0.0174 C   0  0  0  0  0  0  0  0  0  0  0  0
   -0.0126    1.0758    0.0080 C   0  0  0  0  0  0  0  0  0  0  0  0
    1.1702    1.7877    0.0005 C   0  0  0  0  0  0  0  0  0  0  0  0
    1.1371    3.1680    0.0083 C   0  0  0  0  0  0  0  0  0  0  0  0
    2.3972    4.4181    0.0035 S   0  0  0  0  0  0  0  0  0  0  0  0
   -0.9311    6.2780    0.0458 N   0  0  0  0  0  0  0  0  0  0  0  0
   -0.6686    7.5604    0.0510 C   0  0  0  0  0  0  0  0  0  0  0  0
    0.5581    8.0501    0.0418 N   0  0  0  0  0  0  0  0  0  0  0  0
    2.0912    9.4896   -1.8371 H   0  0  0  0  0  0  0  0  0  0  0  0
    3.2443   10.7756   -1.4072 H   0  0  0  0  0  0  0  0  0  0  0  0
    3.8405    9.2110   -2.0111 H   0  0  0  0  0  0  0  0  0  0  0  0
    5.4275    7.7966   -0.3515 H   0  0  0  0  0  0  0  0  0  0  0  0
    7.6462    8.2751    0.6034 H   0  0  0  0  0  0  0  0  0  0  0  0
    7.9483   10.1968    2.1130 H   0  0  0  0  0  0  0  0  0  0  0  0
    6.0338   11.6452    2.6606 H   0  0  0  0  0  0  0  0  0  0  0  0
    3.8170   11.1716    1.6990 H   0  0  0  0  0  0  0  0  0  0  0  0
    3.6526    7.1100    0.0059 H   0  0  0  0  0  0  0  0  0  0  0  0
   -2.2169    3.6344    0.0420 H   0  0  0  0  0  0  0  0  0  0  0  0
   -2.1448    1.2003    0.0183 H   0  0  0  0  0  0  0  0  0  0  0  0
    0.0021   -0.0041    0.0020 H   0  0  0  0  0  0  0  0  0  0  0  0
    2.1166    1.2676   -0.0117 H   0  0  0  0  0  0  0  0  0  0  0  0
   -1.4970    8.2532    0.0630 H   0  0  0  0  0  0  0  0  0  0  0  0
  1  2  1  0  0  0  0
  1 24  1  0  0  0  0
  1 25  1  0  0  0  0
  1 26  1  0  0  0  0
  2  3  1  0  0  0  0
  2  4  1  0  0  0  0
  2 10  1  0  0  0  0
  4  9  2  0  0  0  0
  4  5  1  0  0  0  0
  5  6  2  0  0  0  0
  5 27  1  0  0  0  0
  6  7  1  0  0  0  0
  6 28  1  0  0  0  0
  7  8  2  0  0  0  0
  7 29  1  0  0  0  0
  8  9  1  0  0  0  0
  8 30  1  0  0  0  0
  9 31  1  0  0  0  0
 10 11  1  0  0  0  0
 10 32  1  0  0  0  0
 11 23  2  0  0  0  0
 11 12  1  0  0  0  0
 12 20  1  0  0  0  0
 12 13  2  0  0  0  0
 13 14  1  0  0  0  0
 13 21  1  0  0  0  0
 14 19  2  0  0  0  0
 14 15  1  0  0  0  0
 15 16  2  0  0  0  0
 15 33  1  0  0  0  0
 16 17  1  0  0  0  0
 16 34  1  0  0  0  0
 17 18  2  0  0  0  0
 17 35  1  0  0  0  0
 18 19  1  0  0  0  0
 18 36  1  0  0  0  0
 19 20  1  0  0  0  0
 21 22  2  0  0  0  0
 22 23  1  0  0  0  0
 22 37  1  0  0  0  0
M  END
$$$$
ZINC04617813
  -OEChem-08230709403D

 36 38  0     0  0  0  0  0  0999 V2000
   -6.0417   -0.9542    0.0296 C   0  0  0  0  0  0  0  0  0  0  0  0
   -7.2855   -0.2508    0.0454 O   0  0  0  0  0  0  0  0  0  0  0  0
   -7.2265    1.1070    0.0585 C   0  0  0  0  0  0  0  0  0  0  0  0
   -6.0102    1.7304    0.0562 C   0  0  0  0  0  0  0  0  0  0  0  0
   -5.9513    3.1277    0.0698 C   0  0  0  0  0  0  0  0  0  0  0  0
   -7.1520    3.8847    0.0918 C   0  0  0  0  0  0  0  0  0  0  0  0
   -8.3852    3.2189    0.1001 C   0  0  0  0  0  0  0  0  0  0  0  0
   -8.4150    1.8529    0.0748 C   0  0  0  0  0  0  0  0  0  0  0  0
   -9.6108    1.2085    0.0767 O   0  0  0  0  0  0  0  0  0  0  0  0
  -10.7858    2.0215    0.0935 C   0  0  0  0  0  0  0  0  0  0  0  0
   -7.0693    5.2215    0.0982 N   0  0  0  0  0  0  0  0  0  0  0  0
   -5.8998    5.8179    0.0898 C   0  0  0  0  0  0  0  0  0  0  0  0
   -4.7546    5.1586    0.0752 N   0  0  0  0  0  0  0  0  0  0  0  0
   -4.7191    3.8289    0.0677 C   0  0  0  0  0  0  0  0  0  0  0  0
   -3.5309    3.1591    0.0528 N   0  0  0  0  0  0  0  0  0  0  0  0
   -2.4205    3.8155    0.0457 N   0  0  0  0  0  0  0  0  0  0  0  0
   -1.2335    3.1463    0.0307 C   0  0  0  0  0  0  0  0  0  0  0  0
   -1.2157    1.7466    0.0173 C   0  0  0  0  0  0  0  0  0  0  0  0
   -0.0126    1.0758    0.0080 C   0  0  0  0  0  0  0  0  0  0  0  0
    1.1801    1.7839    0.0004 C   0  0  0  0  0  0  0  0  0  0  0  0
    1.1703    3.1719    0.0079 C   0  0  0  0  0  0  0  0  0  0  0  0
   -0.0270    3.8555    0.0230 C   0  0  0  0  0  0  0  0  0  0  0  0
    2.6685    4.0489   -0.0023 Cl  0  0  0  0  0  0  0  0  0  0  0  0
    2.3565    1.1197   -0.0149 F   0  0  0  0  0  0  0  0  0  0  0  0
   -6.2314   -2.0275    0.0202 H   0  0  0  0  0  0  0  0  0  0  0  0
   -5.4787   -0.6769   -0.8616 H   0  0  0  0  0  0  0  0  0  0  0  0
   -5.4663   -0.6947    0.9182 H   0  0  0  0  0  0  0  0  0  0  0  0
   -5.1008    1.1480    0.0437 H   0  0  0  0  0  0  0  0  0  0  0  0
   -9.3065    3.7822    0.1127 H   0  0  0  0  0  0  0  0  0  0  0  0
  -11.6693    1.3831    0.0933 H   0  0  0  0  0  0  0  0  0  0  0  0
  -10.7858    2.6415    0.9900 H   0  0  0  0  0  0  0  0  0  0  0  0
  -10.7986    2.6599   -0.7898 H   0  0  0  0  0  0  0  0  0  0  0  0
   -5.8723    6.8975    0.0953 H   0  0  0  0  0  0  0  0  0  0  0  0
   -2.1434    1.1936    0.0183 H   0  0  0  0  0  0  0  0  0  0  0  0
    0.0021   -0.0041    0.0020 H   0  0  0  0  0  0  0  0  0  0  0  0
   -0.0338    4.9355    0.0285 H   0  0  0  0  0  0  0  0  0  0  0  0
  1  2  1  0  0  0  0
  1 25  1  0  0  0  0
  1 26  1  0  0  0  0
  1 27  1  0  0  0  0
  2  3  1  0  0  0  0
  3  8  2  0  0  0  0
  3  4  1  0  0  0  0
  4  5  2  0  0  0  0
  4 28  1  0  0  0  0
  5 14  1  0  0  0  0
  5  6  1  0  0  0  0
  6  7  2  0  0  0  0
  6 11  1  0  0  0  0
  7  8  1  0  0  0  0
  7 29  1  0  0  0  0
  8  9  1  0  0  0  0
  9 10  1  0  0  0  0
 10 30  1  0  0  0  0
 10 31  1  0  0  0  0
 10 32  1  0  0  0  0
 11 12  2  0  0  0  0
 12 13  1  0  0  0  0
 12 33  1  0  0  0  0
 13 14  2  0  0  0  0
 14 15  1  0  0  0  0
 15 16  2  0  0  0  0
 16 17  1  0  0  0  0
 17 22  2  0  0  0  0
 17 18  1  0  0  0  0
 18 19  2  0  0  0  0
 18 34  1  0  0  0  0
 19 20  1  0  0  0  0
 19 35  1  0  0  0  0
 20 21  2  0  0  0  0
 20 24  1  0  0  0  0
 21 22  1  0  0  0  0
 21 23  1  0  0  0  0
 22 36  1  0  0  0  0
M  END
$$$$
ZINC04617814
  -OEChem-08230709403D

 43 46  0     1  0  0  0  0  0999 V2000
   -5.5266    3.7206   -5.2320 C   0  0  0  0  0  0  0  0  0  0  0  0
   -6.5241    2.7819   -4.8248 O   0  0  0  0  0  0  0  0  0  0  0  0
   -6.4612    2.3311   -3.5434 C   0  0  0  0  0  0  0  0  0  0  0  0
   -5.4714    2.7816   -2.7167 C   0  0  0  0  0  0  0  0  0  0  0  0
   -5.4091    2.3226   -1.3956 C   0  0  0  0  0  0  0  0  0  0  0  0
   -6.3637    1.3860   -0.9275 C   0  0  0  0  0  0  0  0  0  0  0  0
   -7.3694    0.9373   -1.7922 C   0  0  0  0  0  0  0  0  0  0  0  0
   -7.4125    1.4089   -3.0856 C   0  0  0  0  0  0  0  0  0  0  0  0
   -8.3871    0.9752   -3.9268 O   0  0  0  0  0  0  0  0  0  0  0  0
   -9.3265    0.0353   -3.4015 C   0  0  0  0  0  0  0  0  0  0  0  0
   -6.2777    0.9570    0.3415 N   0  0  0  0  0  0  0  0  0  0  0  0
   -5.3239    1.3948    1.1282 C   0  0  0  0  0  0  0  0  0  0  0  0
   -4.4080    2.2652    0.7335 N   0  0  0  0  0  0  0  0  0  0  0  0
   -4.4012    2.7529   -0.5000 C   0  0  0  0  0  0  0  0  0  0  0  0
   -3.4407    3.6598   -0.8976 N   0  0  0  0  0  0  0  0  0  0  0  0
   -2.4100    4.0967    0.0473 C   0  0  2  0  0  0  0  0  0  0  0  0
   -2.8255    4.1696    1.0523 H   0  0  0  0  0  0  0  0  0  0  0  0
   -1.8222    5.4547   -0.3914 C   0  0  0  0  0  0  0  0  0  0  0  0
   -0.3439    5.3289    0.0340 C   0  0  0  0  0  0  0  0  0  0  0  0
   -0.0535    3.8434    0.0232 C   0  0  0  0  0  0  0  0  0  0  0  0
   -1.2410    3.1352    0.0308 C   0  0  0  0  0  0  0  0  0  0  0  0
   -1.2178    1.7509    0.0173 C   0  0  0  0  0  0  0  0  0  0  0  0
   -0.0126    1.0758    0.0080 C   0  0  0  0  0  0  0  0  0  0  0  0
    1.1744    1.7838    0.0004 C   0  0  0  0  0  0  0  0  0  0  0  0
    1.1533    3.1650    0.0080 C   0  0  0  0  0  0  0  0  0  0  0  0
   -5.5874    4.6103   -4.6052 H   0  0  0  0  0  0  0  0  0  0  0  0
   -4.5396    3.2698   -5.1283 H   0  0  0  0  0  0  0  0  0  0  0  0
   -5.6918    3.9977   -6.2731 H   0  0  0  0  0  0  0  0  0  0  0  0
   -4.7433    3.4921   -3.0792 H   0  0  0  0  0  0  0  0  0  0  0  0
   -8.1057    0.2263   -1.4476 H   0  0  0  0  0  0  0  0  0  0  0  0
  -10.0486   -0.2274   -4.1746 H   0  0  0  0  0  0  0  0  0  0  0  0
   -8.7998   -0.8619   -3.0764 H   0  0  0  0  0  0  0  0  0  0  0  0
   -9.8478    0.4782   -2.5528 H   0  0  0  0  0  0  0  0  0  0  0  0
   -5.2843    1.0292    2.1437 H   0  0  0  0  0  0  0  0  0  0  0  0
   -3.4479    4.0082   -1.8029 H   0  0  0  0  0  0  0  0  0  0  0  0
   -1.9053    5.5824   -1.4707 H   0  0  0  0  0  0  0  0  0  0  0  0
   -2.3109    6.2759    0.1329 H   0  0  0  0  0  0  0  0  0  0  0  0
   -0.2028    5.7347    1.0358 H   0  0  0  0  0  0  0  0  0  0  0  0
    0.2998    5.8453   -0.6782 H   0  0  0  0  0  0  0  0  0  0  0  0
   -2.1450    1.1971    0.0187 H   0  0  0  0  0  0  0  0  0  0  0  0
    0.0021   -0.0041    0.0020 H   0  0  0  0  0  0  0  0  0  0  0  0
    2.1175    1.2576   -0.0118 H   0  0  0  0  0  0  0  0  0  0  0  0
    2.0813    3.7175    0.0025 H   0  0  0  0  0  0  0  0  0  0  0  0
  1  2  1  0  0  0  0
  1 26  1  0  0  0  0
  1 27  1  0  0  0  0
  1 28  1  0  0  0  0
  2  3  1  0  0  0  0
  3  8  2  0  0  0  0
  3  4  1  0  0  0  0
  4  5  2  0  0  0  0
  4 29  1  0  0  0  0
  5 14  1  0  0  0  0
  5  6  1  0  0  0  0
  6  7  2  0  0  0  0
  6 11  1  0  0  0  0
  7  8  1  0  0  0  0
  7 30  1  0  0  0  0
  8  9  1  0  0  0  0
  9 10  1  0  0  0  0
 10 31  1  0  0  0  0
 10 32  1  0  0  0  0
 10 33  1  0  0  0  0
 11 12  2  0  0  0  0
 12 13  1  0  0  0  0
 12 34  1  0  0  0  0
 13 14  2  0  0  0  0
 14 15  1  0  0  0  0
 15 16  1  0  0  0  0
 15 35  1  0  0  0  0
 16 17  1  0  0  0  0
 16 21  1  0  0  0  0
 16 18  1  0  0  0  0
 18 19  1  0  0  0  0
 18 36  1  0  0  0  0
 18 37  1  0  0  0  0
 19 20  1  0  0  0  0
 19 38  1  0  0  0  0
 19 39  1  0  0  0  0
 20 25  2  0  0  0  0
 20 21  1  0  0  0  0
 21 22  2  0  0  0  0
 22 23  1  0  0  0  0
 22 40  1  0  0  0  0
 23 24  2  0  0  0  0
 23 41  1  0  0  0  0
 24 25  1  0  0  0  0
 24 42  1  0  0  0  0
 25 43  1  0  0  0  0
M  END
$$$$
