ZINC00587692
  -OEChem-08230709403D

 53 55  0     0  0  0  0  0  0999 V2000
    3.9752    1.7473   -9.7933 C   0  0  0  0  0  0  0  0  0  0  0  0
    4.4110    2.6858   -8.7562 N   0  0  0  0  0  0  0  0  0  0  0  0
    5.1726    3.8820   -9.1239 C   0  0  0  0  0  0  0  0  0  0  0  0
    4.1018    2.4411   -7.4227 C   0  0  0  0  0  0  0  0  0  0  0  0
    3.3780    1.3039   -7.0748 C   0  0  0  0  0  0  0  0  0  0  0  0
    3.0704    1.0589   -5.7562 C   0  0  0  0  0  0  0  0  0  0  0  0
    3.4855    1.9535   -4.7652 C   0  0  0  0  0  0  0  0  0  0  0  0
    4.2076    3.0974   -5.1184 C   0  0  0  0  0  0  0  0  0  0  0  0
    4.5170    3.3337   -6.4383 C   0  0  0  0  0  0  0  0  0  0  0  0
    3.1571    1.6943   -3.3509 C   0  0  0  0  0  0  0  0  0  0  0  0
    2.5245    0.7015   -3.0457 O   0  0  0  0  0  0  0  0  0  0  0  0
    3.5580    2.5576   -2.3968 N   0  0  0  0  0  0  0  0  0  0  0  0
    3.1492    2.3744   -1.0705 C   0  0  0  0  0  0  0  0  0  0  0  0
    1.8925    1.8561   -0.7959 C   0  0  0  0  0  0  0  0  0  0  0  0
    1.4905    1.6753    0.5185 C   0  0  0  0  0  0  0  0  0  0  0  0
    2.3418    2.0171    1.5596 C   0  0  0  0  0  0  0  0  0  0  0  0
    3.5968    2.5288    1.2903 C   0  0  0  0  0  0  0  0  0  0  0  0
    4.0051    2.7122   -0.0225 C   0  0  0  0  0  0  0  0  0  0  0  0
    5.2761    3.2368   -0.2955 N   0  0  0  0  0  0  0  0  0  0  0  0
    5.8901    4.0220    0.6116 C   0  0  0  0  0  0  0  0  0  0  0  0
    5.3737    4.2178    1.6951 O   0  0  0  0  0  0  0  0  0  0  0  0
    7.1891    4.6442    0.2901 C   0  0  0  0  0  0  0  0  0  0  0  0
    7.7869    4.4158   -0.9521 C   0  0  0  0  0  0  0  0  0  0  0  0
    8.9970    5.0017   -1.2499 C   0  0  0  0  0  0  0  0  0  0  0  0
    9.6286    5.8112   -0.3130 C   0  0  0  0  0  0  0  0  0  0  0  0
    9.0396    6.0370    0.9256 C   0  0  0  0  0  0  0  0  0  0  0  0
    7.8273    5.4587    1.2293 C   0  0  0  0  0  0  0  0  0  0  0  0
   10.8234    6.3830   -0.6085 O   0  0  0  0  0  0  0  0  0  0  0  0
   11.3722    6.1091   -1.8992 C   0  0  0  0  0  0  0  0  0  0  0  0
    0.2583    1.1676    0.7879 O   0  0  0  0  0  0  0  0  0  0  0  0
    2.9904    2.0399  -10.1574 H   0  0  0  0  0  0  0  0  0  0  0  0
    4.6869    1.7619  -10.6187 H   0  0  0  0  0  0  0  0  0  0  0  0
    3.9242    0.7419   -9.3753 H   0  0  0  0  0  0  0  0  0  0  0  0
    6.2382    3.6534   -9.1082 H   0  0  0  0  0  0  0  0  0  0  0  0
    4.8845    4.2026  -10.1251 H   0  0  0  0  0  0  0  0  0  0  0  0
    4.9616    4.6801   -8.4121 H   0  0  0  0  0  0  0  0  0  0  0  0
    3.0573    0.6134   -7.8408 H   0  0  0  0  0  0  0  0  0  0  0  0
    2.5092    0.1763   -5.4869 H   0  0  0  0  0  0  0  0  0  0  0  0
    4.5262    3.7925   -4.3556 H   0  0  0  0  0  0  0  0  0  0  0  0
    5.0790    4.2147   -6.7112 H   0  0  0  0  0  0  0  0  0  0  0  0
    4.1297    3.3060   -2.6291 H   0  0  0  0  0  0  0  0  0  0  0  0
    1.2276    1.5933   -1.6054 H   0  0  0  0  0  0  0  0  0  0  0  0
    2.0243    1.8793    2.5826 H   0  0  0  0  0  0  0  0  0  0  0  0
    4.2587    2.7900    2.1027 H   0  0  0  0  0  0  0  0  0  0  0  0
    5.7136    3.0346   -1.1372 H   0  0  0  0  0  0  0  0  0  0  0  0
    7.2988    3.7836   -1.6791 H   0  0  0  0  0  0  0  0  0  0  0  0
    9.4579    4.8287   -2.2112 H   0  0  0  0  0  0  0  0  0  0  0  0
    9.5335    6.6666    1.6509 H   0  0  0  0  0  0  0  0  0  0  0  0
    7.3703    5.6346    2.1919 H   0  0  0  0  0  0  0  0  0  0  0  0
   10.6827    6.4570   -2.6684 H   0  0  0  0  0  0  0  0  0  0  0  0
   12.3260    6.6257   -2.0055 H   0  0  0  0  0  0  0  0  0  0  0  0
   11.5263    5.0355   -2.0081 H   0  0  0  0  0  0  0  0  0  0  0  0
    0.2364    0.2033    0.8557 H   0  0  0  0  0  0  0  0  0  0  0  0
  1  2  1  0  0  0  0
  1 31  1  0  0  0  0
  1 32  1  0  0  0  0
  1 33  1  0  0  0  0
  2  3  1  0  0  0  0
  2  4  1  0  0  0  0
  3 34  1  0  0  0  0
  3 35  1  0  0  0  0
  3 36  1  0  0  0  0
  4  9  2  0  0  0  0
  4  5  1  0  0  0  0
  5  6  2  0  0  0  0
  5 37  1  0  0  0  0
  6  7  1  0  0  0  0
  6 38  1  0  0  0  0
  7  8  2  0  0  0  0
  7 10  1  0  0  0  0
  8  9  1  0  0  0  0
  8 39  1  0  0  0  0
  9 40  1  0  0  0  0
 10 11  2  0  0  0  0
 10 12  1  0  0  0  0
 12 13  1  0  0  0  0
 12 41  1  0  0  0  0
 13 18  2  0  0  0  0
 13 14  1  0  0  0  0
 14 15  2  0  0  0  0
 14 42  1  0  0  0  0
 15 16  1  0  0  0  0
 15 30  1  0  0  0  0
 16 17  2  0  0  0  0
 16 43  1  0  0  0  0
 17 18  1  0  0  0  0
 17 44  1  0  0  0  0
 18 19  1  0  0  0  0
 19 20  1  0  0  0  0
 19 45  1  0  0  0  0
 20 21  2  0  0  0  0
 20 22  1  0  0  0  0
 22 27  2  0  0  0  0
 22 23  1  0  0  0  0
 23 24  2  0  0  0  0
 23 46  1  0  0  0  0
 24 25  1  0  0  0  0
 24 47  1  0  0  0  0
 25 26  2  0  0  0  0
 25 28  1  0  0  0  0
 26 27  1  0  0  0  0
 26 48  1  0  0  0  0
 27 49  1  0  0  0  0
 28 29  1  0  0  0  0
 29 50  1  0  0  0  0
 29 51  1  0  0  0  0
 29 52  1  0  0  0  0
 30 53  1  0  0  0  0
M  END
$$$$
ZINC01033024
  -OEChem-08230709403D

 46 49  0     0  0  0  0  0  0999 V2000
    1.2677   -2.0879    0.1290 C   0  0  0  0  0  0  0  0  0  0  0  0
    1.2273   -0.5817    0.0976 C   0  0  0  0  0  0  0  0  0  0  0  0
    2.4038    0.1366   -0.0447 C   0  0  0  0  0  0  0  0  0  0  0  0
    2.3808    1.5161   -0.0749 C   0  0  0  0  0  0  0  0  0  0  0  0
    1.1741    2.1945    0.0366 C   0  0  0  0  0  0  0  0  0  0  0  0
   -0.0189    1.4703    0.1808 C   0  0  0  0  0  0  0  0  0  0  0  0
    0.0208    0.0741    0.2101 C   0  0  0  0  0  0  0  0  0  0  0  0
   -1.3075    2.1784    0.2946 C   0  0  0  0  0  0  0  0  0  0  0  0
   -1.3304    3.3925    0.3601 O   0  0  0  0  0  0  0  0  0  0  0  0
   -2.4598    1.4799    0.3260 N   0  0  0  0  0  0  0  0  0  0  0  0
   -3.6747    2.1432    0.5332 C   0  0  0  0  0  0  0  0  0  0  0  0
   -4.6885    1.5278    1.2556 C   0  0  0  0  0  0  0  0  0  0  0  0
   -5.8845    2.1863    1.4637 C   0  0  0  0  0  0  0  0  0  0  0  0
   -6.0775    3.4546    0.9424 C   0  0  0  0  0  0  0  0  0  0  0  0
   -5.0699    4.0678    0.2169 C   0  0  0  0  0  0  0  0  0  0  0  0
   -3.8701    3.4153    0.0117 C   0  0  0  0  0  0  0  0  0  0  0  0
   -7.2502    4.0949    1.1424 F   0  0  0  0  0  0  0  0  0  0  0  0
    1.1484    3.5856    0.0055 N   0  0  0  0  0  0  0  0  0  0  0  0
    2.0168    4.2584   -0.7753 C   0  0  0  0  0  0  0  0  0  0  0  0
    2.7576    3.6506   -1.5252 O   0  0  0  0  0  0  0  0  0  0  0  0
    2.0690    5.7242   -0.7211 C   0  0  0  0  0  0  0  0  0  0  0  0
    2.8732    6.5707   -1.4207 C   0  0  0  0  0  0  0  0  0  0  0  0
    2.7655    7.9607   -1.2263 C   0  0  0  0  0  0  0  0  0  0  0  0
    3.5039    8.9952   -1.8566 C   0  0  0  0  0  0  0  0  0  0  0  0
    3.2781   10.2978   -1.5468 C   0  0  0  0  0  0  0  0  0  0  0  0
    2.3225   10.6684   -0.6083 C   0  0  0  0  0  0  0  0  0  0  0  0
    1.5812    9.6940    0.0284 C   0  0  0  0  0  0  0  0  0  0  0  0
    1.7997    8.3670   -0.2755 C   0  0  0  0  0  0  0  0  0  0  0  0
    1.0992    6.8348    0.2838 S   0  0  0  0  0  0  0  0  0  0  0  0
    4.0260    5.9377   -2.5538 Cl  0  0  0  0  0  0  0  0  0  0  0  0
    1.1690   -2.4752   -0.8851 H   0  0  0  0  0  0  0  0  0  0  0  0
    2.2163   -2.4172    0.5530 H   0  0  0  0  0  0  0  0  0  0  0  0
    0.4469   -2.4606    0.7418 H   0  0  0  0  0  0  0  0  0  0  0  0
    3.3447   -0.3865   -0.1321 H   0  0  0  0  0  0  0  0  0  0  0  0
    3.3021    2.0687   -0.1861 H   0  0  0  0  0  0  0  0  0  0  0  0
   -0.8933   -0.4905    0.3205 H   0  0  0  0  0  0  0  0  0  0  0  0
   -2.4470    0.5176    0.2051 H   0  0  0  0  0  0  0  0  0  0  0  0
   -4.5402    0.5366    1.6582 H   0  0  0  0  0  0  0  0  0  0  0  0
   -6.6713    1.7101    2.0299 H   0  0  0  0  0  0  0  0  0  0  0  0
   -5.2223    5.0572   -0.1885 H   0  0  0  0  0  0  0  0  0  0  0  0
   -3.0843    3.8942   -0.5536 H   0  0  0  0  0  0  0  0  0  0  0  0
    0.5054    4.0710    0.5458 H   0  0  0  0  0  0  0  0  0  0  0  0
    4.2547    8.7436   -2.5911 H   0  0  0  0  0  0  0  0  0  0  0  0
    3.8550   11.0646   -2.0423 H   0  0  0  0  0  0  0  0  0  0  0  0
    2.1609   11.7114   -0.3792 H   0  0  0  0  0  0  0  0  0  0  0  0
    0.8357    9.9688    0.7598 H   0  0  0  0  0  0  0  0  0  0  0  0
  1  2  1  0  0  0  0
  1 31  1  0  0  0  0
  1 32  1  0  0  0  0
  1 33  1  0  0  0  0
  2  7  2  0  0  0  0
  2  3  1  0  0  0  0
  3  4  2  0  0  0  0
  3 34  1  0  0  0  0
  4  5  1  0  0  0  0
  4 35  1  0  0  0  0
  5  6  2  0  0  0  0
  5 18  1  0  0  0  0
  6  7  1  0  0  0  0
  6  8  1  0  0  0  0
  7 36  1  0  0  0  0
  8  9  2  0  0  0  0
  8 10  1  0  0  0  0
 10 11  1  0  0  0  0
 10 37  1  0  0  0  0
 11 16  2  0  0  0  0
 11 12  1  0  0  0  0
 12 13  2  0  0  0  0
 12 38  1  0  0  0  0
 13 14  1  0  0  0  0
 13 39  1  0  0  0  0
 14 15  2  0  0  0  0
 14 17  1  0  0  0  0
 15 16  1  0  0  0  0
 15 40  1  0  0  0  0
 16 41  1  0  0  0  0
 18 19  1  0  0  0  0
 18 42  1  0  0  0  0
 19 20  2  0  0  0  0
 19 21  1  0  0  0  0
 21 29  1  0  0  0  0
 21 22  2  0  0  0  0
 22 23  1  0  0  0  0
 22 30  1  0  0  0  0
 23 28  2  0  0  0  0
 23 24  1  0  0  0  0
 24 25  2  0  0  0  0
 24 43  1  0  0  0  0
 25 26  1  0  0  0  0
 25 44  1  0  0  0  0
 26 27  2  0  0  0  0
 26 45  1  0  0  0  0
 27 28  1  0  0  0  0
 27 46  1  0  0  0  0
 28 29  1  0  0  0  0
M  END
$$$$
ZINC01490749
  -OEChem-08230709403D

 45 48  0     1  0  0  0  0  0999 V2000
    3.6876    1.5461   -0.0304 C   0  0  0  0  0  0  0  0  0  0  0  0
    4.7489    0.6690   -0.0393 C   0  0  0  0  0  0  0  0  0  0  0  0
    4.5026   -0.6682   -0.0447 C   0  0  0  0  0  0  0  0  0  0  0  0
    2.7183   -0.7208   -0.0284 S   0  0  0  0  0  0  0  0  0  0  0  0
    2.4135    1.0383   -0.0154 C   0  0  0  0  0  0  0  0  0  0  0  0
    1.1299    1.7563    0.0007 C   0  0  0  0  0  0  0  0  0  0  0  0
   -0.0126    1.0758    0.0080 C   0  0  0  0  0  0  0  0  0  0  0  0
   -1.5503    1.9360    0.0199 S   0  0  0  0  0  0  0  0  0  0  0  0
   -2.3372    1.3468    1.0460 O   0  0  0  0  0  0  0  0  0  0  0  0
   -1.2402    3.3226   -0.0011 O   0  0  0  0  0  0  0  0  0  0  0  0
   -2.3108    1.5993   -1.4121 N   0  0  3  0  0  0  0  0  0  0  0  0
   -3.2166    0.4459   -1.5460 C   0  0  0  0  0  0  0  0  0  0  0  0
   -4.6089    0.9709   -1.9016 C   0  0  0  0  0  0  0  0  0  0  0  0
   -4.5311    1.9601   -2.9678 N   0  0  0  0  0  0  0  0  0  0  0  0
   -3.4375    2.6599   -3.2732 C   0  0  0  0  0  0  0  0  0  0  0  0
   -3.5174    3.5128   -4.1317 O   0  0  0  0  0  0  0  0  0  0  0  0
   -2.1139    2.4435   -2.5999 C   0  0  0  0  0  0  0  0  0  0  0  0
   -5.7388    2.2032   -3.7608 C   0  0  0  0  0  0  0  0  0  0  0  0
   -6.5478    3.3014   -3.1200 C   0  0  0  0  0  0  0  0  0  0  0  0
   -6.4874    4.6000   -3.4564 C   0  0  0  0  0  0  0  0  0  0  0  0
   -7.4307    5.3090   -2.5912 C   0  0  0  0  0  0  0  0  0  0  0  0
   -7.8259    6.6372   -2.4442 C   0  0  0  0  0  0  0  0  0  0  0  0
   -8.7291    6.9591   -1.5412 N   0  0  0  0  0  0  0  0  0  0  0  0
   -9.2892    6.0578   -0.7511 C   0  0  0  0  0  0  0  0  0  0  0  0
   -8.9604    4.7331   -0.8275 C   0  0  0  0  0  0  0  0  0  0  0  0
   -8.0109    4.3260   -1.7625 C   0  0  0  0  0  0  0  0  0  0  0  0
   -7.4579    3.1217   -2.1124 N   0  0  0  0  0  0  0  0  0  0  0  0
   -7.6768    2.2690   -1.7052 H   0  0  0  0  0  0  0  0  0  0  0  0
    5.6329   -1.9857   -0.0628 Cl  0  0  0  0  0  0  0  0  0  0  0  0
    3.8551    2.6130   -0.0320 H   0  0  0  0  0  0  0  0  0  0  0  0
    5.7637    1.0383   -0.0463 H   0  0  0  0  0  0  0  0  0  0  0  0
    1.1153    2.8362    0.0066 H   0  0  0  0  0  0  0  0  0  0  0  0
    0.0021   -0.0041    0.0020 H   0  0  0  0  0  0  0  0  0  0  0  0
   -2.8588   -0.2129   -2.3372 H   0  0  0  0  0  0  0  0  0  0  0  0
   -3.2584   -0.1002   -0.6036 H   0  0  0  0  0  0  0  0  0  0  0  0
   -5.2332    0.1394   -2.2286 H   0  0  0  0  0  0  0  0  0  0  0  0
   -5.0555    1.4296   -1.0195 H   0  0  0  0  0  0  0  0  0  0  0  0
   -1.6958    3.4043   -2.2997 H   0  0  0  0  0  0  0  0  0  0  0  0
   -1.4331    1.9473   -3.2916 H   0  0  0  0  0  0  0  0  0  0  0  0
   -5.4565    2.5017   -4.7704 H   0  0  0  0  0  0  0  0  0  0  0  0
   -6.3343    1.2914   -3.8046 H   0  0  0  0  0  0  0  0  0  0  0  0
   -5.8620    5.0377   -4.2204 H   0  0  0  0  0  0  0  0  0  0  0  0
   -7.3915    7.4024   -3.0704 H   0  0  0  0  0  0  0  0  0  0  0  0
  -10.0246    6.3767   -0.0272 H   0  0  0  0  0  0  0  0  0  0  0  0
   -9.4292    4.0131   -0.1730 H   0  0  0  0  0  0  0  0  0  0  0  0
  1  5  2  0  0  0  0
  1  2  1  0  0  0  0
  1 30  1  0  0  0  0
  2  3  2  0  0  0  0
  2 31  1  0  0  0  0
  3  4  1  0  0  0  0
  3 29  1  0  0  0  0
  4  5  1  0  0  0  0
  5  6  1  0  0  0  0
  6  7  2  0  0  0  0
  6 32  1  0  0  0  0
  7  8  1  0  0  0  0
  7 33  1  0  0  0  0
  8  9  2  0  0  0  0
  8 10  2  0  0  0  0
  8 11  1  0  0  0  0
 11 17  1  0  0  0  0
 11 12  1  0  0  0  0
 12 13  1  0  0  0  0
 12 34  1  0  0  0  0
 12 35  1  0  0  0  0
 13 14  1  0  0  0  0
 13 36  1  0  0  0  0
 13 37  1  0  0  0  0
 14 15  1  0  0  0  0
 14 18  1  0  0  0  0
 15 16  2  0  0  0  0
 15 17  1  0  0  0  0
 17 38  1  0  0  0  0
 17 39  1  0  0  0  0
 18 19  1  0  0  0  0
 18 40  1  0  0  0  0
 18 41  1  0  0  0  0
 19 27  1  0  0  0  0
 19 20  2  0  0  0  0
 20 21  1  0  0  0  0
 20 42  1  0  0  0  0
 21 26  2  0  0  0  0
 21 22  1  0  0  0  0
 22 23  2  0  0  0  0
 22 43  1  0  0  0  0
 23 24  1  0  0  0  0
 24 25  2  0  0  0  0
 24 44  1  0  0  0  0
 25 26  1  0  0  0  0
 25 45  1  0  0  0  0
 26 27  1  0  0  0  0
 27 28  1  0  0  0  0
M  END
$$$$
ZINC01493808
  -OEChem-08230709403D

 56 59  0     0  0  0  0  0  0999 V2000
    1.7110    0.6409    2.0098 C   0  0  0  0  0  0  0  0  0  0  0  0
    1.3836    1.5137    0.8797 N   0  0  0  0  0  0  0  0  0  0  0  0
    0.2800    2.4710    0.9892 C   0  0  0  0  0  0  0  0  0  0  0  0
    0.7771    3.7390    1.6343 C   0  0  0  0  0  0  0  0  0  0  0  0
    2.0964    3.8940    1.9184 C   0  0  0  0  0  0  0  0  0  0  0  0
    2.1666    5.4732    2.6299 S   0  0  0  0  0  0  0  0  0  0  0  0
    0.4332    5.8856    2.5397 C   0  0  0  0  0  0  0  0  0  0  0  0
   -0.0996    4.7494    1.9473 C   0  0  0  0  0  0  0  0  0  0  0  0
   -1.7983    4.6108    1.6168 Cl  0  0  0  0  0  0  0  0  0  0  0  0
   -0.2493    7.1047    2.9771 C   0  0  0  0  0  0  0  0  0  0  0  0
   -1.4535    7.2124    2.8350 O   0  0  0  0  0  0  0  0  0  0  0  0
    0.4556    8.1076    3.5372 N   0  0  0  0  0  0  0  0  0  0  0  0
   -0.1720    9.3137    3.8444 C   0  0  0  0  0  0  0  0  0  0  0  0
    0.4036   10.5288    3.4474 C   0  0  0  0  0  0  0  0  0  0  0  0
   -0.2377   11.7315    3.7566 C   0  0  0  0  0  0  0  0  0  0  0  0
   -1.4249   11.7195    4.4582 C   0  0  0  0  0  0  0  0  0  0  0  0
   -1.9917   10.5185    4.8554 C   0  0  0  0  0  0  0  0  0  0  0  0
   -1.3717    9.3184    4.5525 C   0  0  0  0  0  0  0  0  0  0  0  0
   -1.9339    8.1443    4.9456 O   0  0  0  0  0  0  0  0  0  0  0  0
   -3.1643    8.2239    5.6679 C   0  0  0  0  0  0  0  0  0  0  0  0
   -2.2135   13.2165    4.8464 Cl  0  0  0  0  0  0  0  0  0  0  0  0
    1.6764   10.5376    2.7027 C   0  0  0  0  0  0  0  0  0  0  0  0
    2.1805    9.4895    2.3479 O   0  0  0  0  0  0  0  0  0  0  0  0
    2.2809   11.7074    2.4153 N   0  0  0  0  0  0  0  0  0  0  0  0
    3.4276   11.7232    1.6233 C   0  0  0  0  0  0  0  0  0  0  0  0
    4.1105   12.9179    1.4240 C   0  0  0  0  0  0  0  0  0  0  0  0
    5.2474   12.9200    0.6357 C   0  0  0  0  0  0  0  0  0  0  0  0
    5.6643   11.7210    0.0710 C   0  0  0  0  0  0  0  0  0  0  0  0
    4.9367   10.5713    0.3117 C   0  0  0  0  0  0  0  0  0  0  0  0
    3.8592   10.5998    1.0726 N   0  0  0  0  0  0  0  0  0  0  0  0
    7.0840   11.6681   -0.9268 Cl  0  0  0  0  0  0  0  0  0  0  0  0
    2.1112    1.4346   -0.2824 C   0  0  0  0  0  0  0  0  0  0  0  0
    1.9332    2.2380   -1.2855 N   0  0  0  0  0  0  0  0  0  0  0  0
    2.8880    1.8731   -2.3503 C   0  0  0  0  0  0  0  0  0  0  0  0
    3.8827    0.9600   -1.5928 C   0  0  0  0  0  0  0  0  0  0  0  0
    3.0717    0.5115   -0.4876 O   0  0  0  0  0  0  0  0  0  0  0  0
    1.1413   -0.2849    1.9309 H   0  0  0  0  0  0  0  0  0  0  0  0
    1.4585    1.1445    2.9429 H   0  0  0  0  0  0  0  0  0  0  0  0
    2.7770    0.4138    1.9965 H   0  0  0  0  0  0  0  0  0  0  0  0
   -0.1056    2.6962   -0.0051 H   0  0  0  0  0  0  0  0  0  0  0  0
   -0.5150    2.0409    1.5984 H   0  0  0  0  0  0  0  0  0  0  0  0
    2.9061    3.2012    1.7425 H   0  0  0  0  0  0  0  0  0  0  0  0
    1.3997    7.9901    3.7265 H   0  0  0  0  0  0  0  0  0  0  0  0
    0.1988   12.6706    3.4500 H   0  0  0  0  0  0  0  0  0  0  0  0
   -2.9217   10.5190    5.4045 H   0  0  0  0  0  0  0  0  0  0  0  0
   -3.0121    8.7966    6.5828 H   0  0  0  0  0  0  0  0  0  0  0  0
   -3.9162    8.7168    5.0516 H   0  0  0  0  0  0  0  0  0  0  0  0
   -3.5031    7.2191    5.9203 H   0  0  0  0  0  0  0  0  0  0  0  0
    1.9179   12.5384    2.7597 H   0  0  0  0  0  0  0  0  0  0  0  0
    3.7579   13.8321    1.8782 H   0  0  0  0  0  0  0  0  0  0  0  0
    5.7980   13.8329    0.4630 H   0  0  0  0  0  0  0  0  0  0  0  0
    5.2564    9.6367   -0.1252 H   0  0  0  0  0  0  0  0  0  0  0  0
    3.3920    2.7557   -2.7440 H   0  0  0  0  0  0  0  0  0  0  0  0
    2.3866    1.3251   -3.1481 H   0  0  0  0  0  0  0  0  0  0  0  0
    4.7446    1.5271   -1.2411 H   0  0  0  0  0  0  0  0  0  0  0  0
    4.1955    0.1212   -2.2146 H   0  0  0  0  0  0  0  0  0  0  0  0
  1  2  1  0  0  0  0
  1 37  1  0  0  0  0
  1 38  1  0  0  0  0
  1 39  1  0  0  0  0
  2  3  1  0  0  0  0
  2 32  1  0  0  0  0
  3  4  1  0  0  0  0
  3 40  1  0  0  0  0
  3 41  1  0  0  0  0
  4  8  1  0  0  0  0
  4  5  2  0  0  0  0
  5  6  1  0  0  0  0
  5 42  1  0  0  0  0
  6  7  1  0  0  0  0
  7  8  2  0  0  0  0
  7 10  1  0  0  0  0
  8  9  1  0  0  0  0
 10 11  2  0  0  0  0
 10 12  1  0  0  0  0
 12 13  1  0  0  0  0
 12 43  1  0  0  0  0
 13 18  2  0  0  0  0
 13 14  1  0  0  0  0
 14 15  2  0  0  0  0
 14 22  1  0  0  0  0
 15 16  1  0  0  0  0
 15 44  1  0  0  0  0
 16 17  2  0  0  0  0
 16 21  1  0  0  0  0
 17 18  1  0  0  0  0
 17 45  1  0  0  0  0
 18 19  1  0  0  0  0
 19 20  1  0  0  0  0
 20 46  1  0  0  0  0
 20 47  1  0  0  0  0
 20 48  1  0  0  0  0
 22 23  2  0  0  0  0
 22 24  1  0  0  0  0
 24 25  1  0  0  0  0
 24 49  1  0  0  0  0
 25 30  2  0  0  0  0
 25 26  1  0  0  0  0
 26 27  2  0  0  0  0
 26 50  1  0  0  0  0
 27 28  1  0  0  0  0
 27 51  1  0  0  0  0
 28 29  2  0  0  0  0
 28 31  1  0  0  0  0
 29 30  1  0  0  0  0
 29 52  1  0  0  0  0
 32 36  1  0  0  0  0
 32 33  2  0  0  0  0
 33 34  1  0  0  0  0
 34 35  1  0  0  0  0
 34 53  1  0  0  0  0
 34 54  1  0  0  0  0
 35 36  1  0  0  0  0
 35 55  1  0  0  0  0
 35 56  1  0  0  0  0
M  END
$$$$
ZINC01494901
  -OEChem-08230709403D

 57 61  0     0  0  0  0  0  0999 V2000
    2.2108   -1.8337   -1.2314 C   0  0  0  0  0  0  0  0  0  0  0  0
    2.1964   -0.4297   -0.6841 C   0  0  0  0  0  0  0  0  0  0  0  0
    2.8083    0.6749   -1.2706 C   0  0  0  0  0  0  0  0  0  0  0  0
    2.5581    1.7696   -0.4665 C   0  0  0  0  0  0  0  0  0  0  0  0
    1.8138    1.3258    0.5939 N   0  0  0  0  0  0  0  0  0  0  0  0
    1.6056   -0.0483    0.4216 N   0  0  0  0  0  0  0  0  0  0  0  0
    1.3411    2.1062    1.6557 C   0  0  0  0  0  0  0  0  0  0  0  0
    2.2017    2.4784    2.6639 C   0  0  0  0  0  0  0  0  0  0  0  0
    1.7232    3.2564    3.7306 C   0  0  0  0  0  0  0  0  0  0  0  0
    2.5728    3.6594    4.7758 C   0  0  0  0  0  0  0  0  0  0  0  0
    2.0781    4.4185    5.7913 C   0  0  0  0  0  0  0  0  0  0  0  0
    0.7402    4.8084    5.8094 C   0  0  0  0  0  0  0  0  0  0  0  0
   -0.1105    4.4410    4.8126 C   0  0  0  0  0  0  0  0  0  0  0  0
    0.3633    3.6571    3.7466 C   0  0  0  0  0  0  0  0  0  0  0  0
   -0.4890    3.2608    2.7017 C   0  0  0  0  0  0  0  0  0  0  0  0
   -0.0036    2.5014    1.6814 C   0  0  0  0  0  0  0  0  0  0  0  0
   -0.8286    2.1240    0.6803 F   0  0  0  0  0  0  0  0  0  0  0  0
    3.0083    3.1492   -0.7026 C   0  0  0  0  0  0  0  0  0  0  0  0
    3.6896    3.4085   -1.6765 O   0  0  0  0  0  0  0  0  0  0  0  0
    2.6661    4.1266    0.1601 N   0  0  0  0  0  0  0  0  0  0  0  0
    2.9887    5.4557   -0.1263 C   0  0  0  0  0  0  0  0  0  0  0  0
    4.1988    5.7595   -0.7392 C   0  0  0  0  0  0  0  0  0  0  0  0
    4.5166    7.0696   -1.0278 C   0  0  0  0  0  0  0  0  0  0  0  0
    3.6284    8.0909   -0.6941 C   0  0  0  0  0  0  0  0  0  0  0  0
    2.4179    7.7844   -0.0744 C   0  0  0  0  0  0  0  0  0  0  0  0
    2.1016    6.4725    0.2072 C   0  0  0  0  0  0  0  0  0  0  0  0
    3.9710    9.5019   -0.9977 C   0  0  0  0  0  0  0  0  0  0  0  0
    5.0326   10.1210   -0.3400 C   0  0  0  0  0  0  0  0  0  0  0  0
    5.3469   11.4338   -0.6263 C   0  0  0  0  0  0  0  0  0  0  0  0
    4.6105   12.1354   -1.5642 C   0  0  0  0  0  0  0  0  0  0  0  0
    3.5564   11.5260   -2.2202 C   0  0  0  0  0  0  0  0  0  0  0  0
    3.2365   10.2116   -1.9456 C   0  0  0  0  0  0  0  0  0  0  0  0
    1.8978    9.4346   -2.7875 S   0  0  0  0  0  0  0  0  0  0  0  0
    1.0861    8.8309   -1.7896 O   0  0  0  0  0  0  0  0  0  0  0  0
    1.3888   10.3890   -3.7090 O   0  0  0  0  0  0  0  0  0  0  0  0
    2.5364    8.2006   -3.6885 N   0  0  0  0  0  0  0  0  0  0  0  0
    1.3541   -1.9756   -1.8903 H   0  0  0  0  0  0  0  0  0  0  0  0
    3.1313   -1.9956   -1.7922 H   0  0  0  0  0  0  0  0  0  0  0  0
    2.1572   -2.5454   -0.4076 H   0  0  0  0  0  0  0  0  0  0  0  0
    3.3730    0.6763   -2.1912 H   0  0  0  0  0  0  0  0  0  0  0  0
    3.2365    2.1704    2.6369 H   0  0  0  0  0  0  0  0  0  0  0  0
    3.6118    3.3647    4.7749 H   0  0  0  0  0  0  0  0  0  0  0  0
    2.7321    4.7235    6.5948 H   0  0  0  0  0  0  0  0  0  0  0  0
    0.3728    5.4108    6.6271 H   0  0  0  0  0  0  0  0  0  0  0  0
   -1.1448    4.7508    4.8403 H   0  0  0  0  0  0  0  0  0  0  0  0
   -1.5272    3.5584    2.7081 H   0  0  0  0  0  0  0  0  0  0  0  0
    2.1959    3.9074    0.9797 H   0  0  0  0  0  0  0  0  0  0  0  0
    4.8885    4.9683   -0.9935 H   0  0  0  0  0  0  0  0  0  0  0  0
    5.4549    7.3049   -1.5080 H   0  0  0  0  0  0  0  0  0  0  0  0
    1.7282    8.5741    0.1846 H   0  0  0  0  0  0  0  0  0  0  0  0
    1.1641    6.2346    0.6877 H   0  0  0  0  0  0  0  0  0  0  0  0
    5.6079    9.5744    0.3926 H   0  0  0  0  0  0  0  0  0  0  0  0
    6.1694   11.9144   -0.1175 H   0  0  0  0  0  0  0  0  0  0  0  0
    4.8600   13.1627   -1.7852 H   0  0  0  0  0  0  0  0  0  0  0  0
    2.9850   12.0783   -2.9514 H   0  0  0  0  0  0  0  0  0  0  0  0
    3.4917    8.0332   -3.6737 H   0  0  0  0  0  0  0  0  0  0  0  0
    1.9550    7.6451   -4.2311 H   0  0  0  0  0  0  0  0  0  0  0  0
  1  2  1  0  0  0  0
  1 37  1  0  0  0  0
  1 38  1  0  0  0  0
  1 39  1  0  0  0  0
  2  6  2  0  0  0  0
  2  3  1  0  0  0  0
  3  4  2  0  0  0  0
  3 40  1  0  0  0  0
  4  5  1  0  0  0  0
  4 18  1  0  0  0  0
  5  6  1  0  0  0  0
  5  7  1  0  0  0  0
  7 16  2  0  0  0  0
  7  8  1  0  0  0  0
  8  9  2  0  0  0  0
  8 41  1  0  0  0  0
  9 14  1  0  0  0  0
  9 10  1  0  0  0  0
 10 11  2  0  0  0  0
 10 42  1  0  0  0  0
 11 12  1  0  0  0  0
 11 43  1  0  0  0  0
 12 13  2  0  0  0  0
 12 44  1  0  0  0  0
 13 14  1  0  0  0  0
 13 45  1  0  0  0  0
 14 15  2  0  0  0  0
 15 16  1  0  0  0  0
 15 46  1  0  0  0  0
 16 17  1  0  0  0  0
 18 19  2  0  0  0  0
 18 20  1  0  0  0  0
 20 21  1  0  0  0  0
 20 47  1  0  0  0  0
 21 26  2  0  0  0  0
 21 22  1  0  0  0  0
 22 23  2  0  0  0  0
 22 48  1  0  0  0  0
 23 24  1  0  0  0  0
 23 49  1  0  0  0  0
 24 25  2  0  0  0  0
 24 27  1  0  0  0  0
 25 26  1  0  0  0  0
 25 50  1  0  0  0  0
 26 51  1  0  0  0  0
 27 32  2  0  0  0  0
 27 28  1  0  0  0  0
 28 29  2  0  0  0  0
 28 52  1  0  0  0  0
 29 30  1  0  0  0  0
 29 53  1  0  0  0  0
 30 31  2  0  0  0  0
 30 54  1  0  0  0  0
 31 32  1  0  0  0  0
 31 55  1  0  0  0  0
 32 33  1  0  0  0  0
 33 34  2  0  0  0  0
 33 35  2  0  0  0  0
 33 36  1  0  0  0  0
 36 56  1  0  0  0  0
 36 57  1  0  0  0  0
M  END
$$$$
ZINC01550575
  -OEChem-08230709403D

 58 61  0     0  0  0  0  0  0999 V2000
   -2.6353   10.0735   -6.9167 H   0  0  0  0  0  0  0  0  0  0  0  0
   -4.4420   10.1233   -5.9798 C   0  0  0  0  0  0  0  0  0  0  0  0
   -5.1372    9.7184   -4.7364 C   0  0  0  0  0  0  0  0  0  0  0  0
   -6.4906   10.0098   -4.5649 C   0  0  0  0  0  0  0  0  0  0  0  0
   -7.1361    9.6309   -3.4055 C   0  0  0  0  0  0  0  0  0  0  0  0
   -6.4468    8.9574   -2.4142 C   0  0  0  0  0  0  0  0  0  0  0  0
   -5.0984    8.6681   -2.5739 C   0  0  0  0  0  0  0  0  0  0  0  0
   -4.4417    9.0445   -3.7344 C   0  0  0  0  0  0  0  0  0  0  0  0
   -4.4240    8.0108   -1.5944 O   0  0  0  0  0  0  0  0  0  0  0  0
   -3.5741    8.7284   -0.8126 C   0  0  0  0  0  0  0  0  0  0  0  0
   -3.4977   10.1051   -0.9513 C   0  0  0  0  0  0  0  0  0  0  0  0
   -2.6334   10.8334   -0.1555 C   0  0  0  0  0  0  0  0  0  0  0  0
   -1.8433   10.1921    0.7810 C   0  0  0  0  0  0  0  0  0  0  0  0
   -1.9168    8.8202    0.9292 C   0  0  0  0  0  0  0  0  0  0  0  0
   -2.7780    8.0817    0.1304 C   0  0  0  0  0  0  0  0  0  0  0  0
   -2.8510    6.6909    0.2757 N   0  0  0  0  0  0  0  0  0  0  0  0
   -1.7464    5.9877    0.5948 C   0  0  0  0  0  0  0  0  0  0  0  0
   -0.7055    6.5675    0.8365 O   0  0  0  0  0  0  0  0  0  0  0  0
   -1.8006    4.5129    0.6509 C   0  0  0  0  0  0  0  0  0  0  0  0
   -0.6559    3.7833    0.9818 C   0  0  0  0  0  0  0  0  0  0  0  0
   -0.7073    2.4086    1.0334 C   0  0  0  0  0  0  0  0  0  0  0  0
   -1.9019    1.7439    0.7551 C   0  0  0  0  0  0  0  0  0  0  0  0
   -3.0441    2.4710    0.4190 C   0  0  0  0  0  0  0  0  0  0  0  0
   -2.9965    3.8460    0.3728 C   0  0  0  0  0  0  0  0  0  0  0  0
   -1.9559    0.2632    0.8105 C   0  0  0  0  0  0  0  0  0  0  0  0
   -1.1574   -0.4986   -0.0415 C   0  0  0  0  0  0  0  0  0  0  0  0
   -1.2116   -1.8762    0.0149 C   0  0  0  0  0  0  0  0  0  0  0  0
   -2.0559   -2.5017    0.9150 C   0  0  0  0  0  0  0  0  0  0  0  0
   -2.8501   -1.7511    1.7630 C   0  0  0  0  0  0  0  0  0  0  0  0
   -2.8011   -0.3724    1.7185 C   0  0  0  0  0  0  0  0  0  0  0  0
   -3.8085    0.5820    2.8041 S   0  0  0  0  0  0  0  0  0  0  0  0
   -4.5220    1.5035    1.9910 O   0  0  0  0  0  0  0  0  0  0  0  0
   -4.4630   -0.3390    3.6659 O   0  0  0  0  0  0  0  0  0  0  0  0
   -2.7912    1.4786    3.7546 N   0  0  0  0  0  0  0  0  0  0  0  0
   -5.1318   10.7894   -6.9691 N   0  0  0  0  0  0  0  0  0  0  0  0
   -7.0330   10.5322   -5.3390 H   0  0  0  0  0  0  0  0  0  0  0  0
   -8.1840    9.8570   -3.2741 H   0  0  0  0  0  0  0  0  0  0  0  0
   -6.9579    8.6592   -1.5107 H   0  0  0  0  0  0  0  0  0  0  0  0
   -3.3938    8.8165   -3.8619 H   0  0  0  0  0  0  0  0  0  0  0  0
   -4.1133   10.6092   -1.6817 H   0  0  0  0  0  0  0  0  0  0  0  0
   -2.5752   11.9063   -0.2650 H   0  0  0  0  0  0  0  0  0  0  0  0
   -1.1698   10.7655    1.4008 H   0  0  0  0  0  0  0  0  0  0  0  0
   -1.3016    8.3226    1.6642 H   0  0  0  0  0  0  0  0  0  0  0  0
   -3.6966    6.2335    0.1465 H   0  0  0  0  0  0  0  0  0  0  0  0
    0.2691    4.2977    1.1973 H   0  0  0  0  0  0  0  0  0  0  0  0
    0.1774    1.8445    1.2891 H   0  0  0  0  0  0  0  0  0  0  0  0
   -3.9670    1.9551    0.1990 H   0  0  0  0  0  0  0  0  0  0  0  0
   -3.8820    4.4089    0.1166 H   0  0  0  0  0  0  0  0  0  0  0  0
   -0.4980   -0.0114   -0.7444 H   0  0  0  0  0  0  0  0  0  0  0  0
   -0.5935   -2.4674   -0.6445 H   0  0  0  0  0  0  0  0  0  0  0  0
   -2.0948   -3.5802    0.9559 H   0  0  0  0  0  0  0  0  0  0  0  0
   -3.5070   -2.2447    2.4638 H   0  0  0  0  0  0  0  0  0  0  0  0
   -1.8307    1.4056    3.6405 H   0  0  0  0  0  0  0  0  0  0  0  0
   -3.1557    2.0768    4.4255 H   0  0  0  0  0  0  0  0  0  0  0  0
   -6.0728   10.9932   -6.8512 H   0  0  0  0  0  0  0  0  0  0  0  0
   -4.6764   11.0547   -7.7834 H   0  0  0  0  0  0  0  0  0  0  0  0
   -3.1581    9.8159   -6.0794 N   0  3  0  0  0  0  0  0  0  0  0  0
   -2.6885    9.3182   -5.3139 H   0  0  0  0  0  0  0  0  0  0  0  0
  1 57  1  0  0  0  0
  2  3  1  0  0  0  0
  2 35  1  0  0  0  0
  2 57  2  0  0  0  0
  3  8  2  0  0  0  0
  3  4  1  0  0  0  0
  4  5  2  0  0  0  0
  4 36  1  0  0  0  0
  5  6  1  0  0  0  0
  5 37  1  0  0  0  0
  6  7  2  0  0  0  0
  6 38  1  0  0  0  0
  7  8  1  0  0  0  0
  7  9  1  0  0  0  0
  8 39  1  0  0  0  0
  9 10  1  0  0  0  0
 10 15  2  0  0  0  0
 10 11  1  0  0  0  0
 11 12  2  0  0  0  0
 11 40  1  0  0  0  0
 12 13  1  0  0  0  0
 12 41  1  0  0  0  0
 13 14  2  0  0  0  0
 13 42  1  0  0  0  0
 14 15  1  0  0  0  0
 14 43  1  0  0  0  0
 15 16  1  0  0  0  0
 16 17  1  0  0  0  0
 16 44  1  0  0  0  0
 17 18  2  0  0  0  0
 17 19  1  0  0  0  0
 19 24  2  0  0  0  0
 19 20  1  0  0  0  0
 20 21  2  0  0  0  0
 20 45  1  0  0  0  0
 21 22  1  0  0  0  0
 21 46  1  0  0  0  0
 22 23  2  0  0  0  0
 22 25  1  0  0  0  0
 23 24  1  0  0  0  0
 23 47  1  0  0  0  0
 24 48  1  0  0  0  0
 25 30  2  0  0  0  0
 25 26  1  0  0  0  0
 26 27  2  0  0  0  0
 26 49  1  0  0  0  0
 27 28  1  0  0  0  0
 27 50  1  0  0  0  0
 28 29  2  0  0  0  0
 28 51  1  0  0  0  0
 29 30  1  0  0  0  0
 29 52  1  0  0  0  0
 30 31  1  0  0  0  0
 31 32  2  0  0  0  0
 31 33  2  0  0  0  0
 31 34  1  0  0  0  0
 34 53  1  0  0  0  0
 34 54  1  0  0  0  0
 35 55  1  0  0  0  0
 35 56  1  0  0  0  0
 57 58  1  0  0  0  0
M  CHG  1  57   1
M  END
$$$$
ZINC01908051
  -OEChem-08230709403D

 60 62  0     1  0  0  0  0  0999 V2000
   -0.1553   -3.7790   -0.0180 H   0  0  0  0  0  0  0  0  0  0  0  0
    1.3480   -2.4062   -0.0243 C   0  0  0  0  0  0  0  0  0  0  0  0
    1.6147   -0.9496   -0.0185 C   0  0  0  0  0  0  0  0  0  0  0  0
    2.9274   -0.4781   -0.0287 C   0  0  0  0  0  0  0  0  0  0  0  0
    3.1697    0.8802   -0.0237 C   0  0  0  0  0  0  0  0  0  0  0  0
    2.1136    1.7740   -0.0086 C   0  0  0  0  0  0  0  0  0  0  0  0
    0.8098    1.3125    0.0014 C   0  0  0  0  0  0  0  0  0  0  0  0
    0.5548   -0.0438   -0.0034 C   0  0  0  0  0  0  0  0  0  0  0  0
   -0.3348    2.2928    0.0114 C   0  0  0  0  0  0  0  0  0  0  0  0
   -0.7150    2.6180    1.4574 C   0  0  2  0  0  0  0  0  0  0  0  0
   -0.9299    1.6935    1.9933 H   0  0  0  0  0  0  0  0  0  0  0  0
   -1.9549    3.5145    1.4692 C   0  0  1  0  0  0  0  0  0  0  0  0
   -1.7400    4.4390    0.9333 H   0  0  0  0  0  0  0  0  0  0  0  0
   -3.1161    2.7880    0.7876 C   0  0  0  0  0  0  0  0  0  0  0  0
   -2.3191    3.8259    2.8537 N   0  0  0  0  0  0  0  0  0  0  0  0
   -3.0139    4.9467    3.1319 C   0  0  0  0  0  0  0  0  0  0  0  0
   -3.3387    5.6991    2.2340 O   0  0  0  0  0  0  0  0  0  0  0  0
   -3.3812    5.2607    4.5281 C   0  0  0  0  0  0  0  0  0  0  0  0
   -3.0134    4.3935    5.5596 C   0  0  0  0  0  0  0  0  0  0  0  0
   -3.3515    4.6897    6.8609 C   0  0  0  0  0  0  0  0  0  0  0  0
   -4.0709    5.8500    7.1483 C   0  0  0  0  0  0  0  0  0  0  0  0
   -4.4436    6.7138    6.1184 C   0  0  0  0  0  0  0  0  0  0  0  0
   -4.1015    6.4223    4.8169 C   0  0  0  0  0  0  0  0  0  0  0  0
   -4.4399    6.1649    8.5495 C   0  0  0  0  0  0  0  0  0  0  0  0
   -5.1558    7.3250    8.8600 C   0  0  0  0  0  0  0  0  0  0  0  0
   -5.4829    7.5777   10.1762 C   0  0  0  0  0  0  0  0  0  0  0  0
   -5.1205    6.7465   11.1359 N   0  3  0  0  0  0  0  0  0  0  0  0
   -4.4392    5.6436   10.8858 C   0  0  0  0  0  0  0  0  0  0  0  0
   -4.0762    5.3128    9.5966 C   0  0  0  0  0  0  0  0  0  0  0  0
   -5.4729    7.0473   12.4741 O   0  5  0  0  0  0  0  0  0  0  0  0
    0.4287    3.3337    2.1287 C   0  0  0  0  0  0  0  0  0  0  0  0
    1.4438    3.5603    1.5139 O   0  0  0  0  0  0  0  0  0  0  0  0
    0.3197    3.7194    3.4098 O   0  0  0  0  0  0  0  0  0  0  0  0
    1.4605    4.4035    3.9917 C   0  0  0  0  0  0  0  0  0  0  0  0
    2.3975   -3.2987   -0.0393 N   0  0  0  0  0  0  0  0  0  0  0  0
    3.7526   -1.1748   -0.0408 H   0  0  0  0  0  0  0  0  0  0  0  0
    4.1857    1.2464   -0.0311 H   0  0  0  0  0  0  0  0  0  0  0  0
    2.3082    2.8363   -0.0047 H   0  0  0  0  0  0  0  0  0  0  0  0
   -0.4637   -0.4029    0.0048 H   0  0  0  0  0  0  0  0  0  0  0  0
   -0.0343    3.2074   -0.4997 H   0  0  0  0  0  0  0  0  0  0  0  0
   -1.1922    1.8556   -0.5002 H   0  0  0  0  0  0  0  0  0  0  0  0
   -2.8452    2.5562   -0.2424 H   0  0  0  0  0  0  0  0  0  0  0  0
   -3.3310    1.8634    1.3235 H   0  0  0  0  0  0  0  0  0  0  0  0
   -3.9994    3.4265    0.7961 H   0  0  0  0  0  0  0  0  0  0  0  0
   -2.0600    3.2255    3.5701 H   0  0  0  0  0  0  0  0  0  0  0  0
   -2.4600    3.4931    5.3368 H   0  0  0  0  0  0  0  0  0  0  0  0
   -3.0637    4.0215    7.6590 H   0  0  0  0  0  0  0  0  0  0  0  0
   -5.0005    7.6118    6.3419 H   0  0  0  0  0  0  0  0  0  0  0  0
   -4.3903    7.0912    4.0197 H   0  0  0  0  0  0  0  0  0  0  0  0
   -5.4517    8.0114    8.0804 H   0  0  0  0  0  0  0  0  0  0  0  0
   -6.0393    8.4692   10.4253 H   0  0  0  0  0  0  0  0  0  0  0  0
   -4.1628    4.9915   11.7012 H   0  0  0  0  0  0  0  0  0  0  0  0
   -3.5189    4.4090    9.3991 H   0  0  0  0  0  0  0  0  0  0  0  0
    2.3328    3.7508    3.9555 H   0  0  0  0  0  0  0  0  0  0  0  0
    1.6644    5.3139    3.4280 H   0  0  0  0  0  0  0  0  0  0  0  0
    1.2409    4.6593    5.0282 H   0  0  0  0  0  0  0  0  0  0  0  0
    3.3111   -2.9730   -0.0460 H   0  0  0  0  0  0  0  0  0  0  0  0
    2.2227   -4.2528   -0.0430 H   0  0  0  0  0  0  0  0  0  0  0  0
    0.0797   -2.7863   -0.0145 N   0  3  0  0  0  0  0  0  0  0  0  0
   -0.6673   -2.0819   -0.0035 H   0  0  0  0  0  0  0  0  0  0  0  0
  1 59  1  0  0  0  0
  2  3  1  0  0  0  0
  2 35  1  0  0  0  0
  2 59  2  0  0  0  0
  3  8  2  0  0  0  0
  3  4  1  0  0  0  0
  4  5  2  0  0  0  0
  4 36  1  0  0  0  0
  5  6  1  0  0  0  0
  5 37  1  0  0  0  0
  6  7  2  0  0  0  0
  6 38  1  0  0  0  0
  7  8  1  0  0  0  0
  7  9  1  0  0  0  0
  8 39  1  0  0  0  0
  9 10  1  0  0  0  0
  9 40  1  0  0  0  0
  9 41  1  0  0  0  0
 10 11  1  0  0  0  0
 10 12  1  0  0  0  0
 10 31  1  0  0  0  0
 12 13  1  0  0  0  0
 12 14  1  0  0  0  0
 12 15  1  0  0  0  0
 14 42  1  0  0  0  0
 14 43  1  0  0  0  0
 14 44  1  0  0  0  0
 15 16  1  0  0  0  0
 15 45  1  0  0  0  0
 16 17  2  0  0  0  0
 16 18  1  0  0  0  0
 18 23  2  0  0  0  0
 18 19  1  0  0  0  0
 19 20  2  0  0  0  0
 19 46  1  0  0  0  0
 20 21  1  0  0  0  0
 20 47  1  0  0  0  0
 21 22  2  0  0  0  0
 21 24  1  0  0  0  0
 22 23  1  0  0  0  0
 22 48  1  0  0  0  0
 23 49  1  0  0  0  0
 24 29  2  0  0  0  0
 24 25  1  0  0  0  0
 25 26  2  0  0  0  0
 25 50  1  0  0  0  0
 26 27  1  0  0  0  0
 26 51  1  0  0  0  0
 27 28  2  0  0  0  0
 27 30  1  0  0  0  0
 28 29  1  0  0  0  0
 28 52  1  0  0  0  0
 29 53  1  0  0  0  0
 31 32  2  0  0  0  0
 31 33  1  0  0  0  0
 33 34  1  0  0  0  0
 34 54  1  0  0  0  0
 34 55  1  0  0  0  0
 34 56  1  0  0  0  0
 35 57  1  0  0  0  0
 35 58  1  0  0  0  0
 59 60  1  0  0  0  0
M  CHG  3  27   1  30  -1  59   1
M  END
$$$$
ZINC01912549
  -OEChem-08230709403D

 65 68  0     1  0  0  0  0  0999 V2000
   -2.6518   -4.8041    9.9145 C   0  0  0  0  0  0  0  0  0  0  0  0
   -1.6161   -4.4319    8.8850 C   0  0  0  0  0  0  0  0  0  0  0  0
   -2.0059   -3.9194    7.6757 N   0  0  0  0  0  0  0  0  0  0  0  0
   -3.4293   -3.8371    7.3211 C   0  0  0  0  0  0  0  0  0  0  0  0
   -3.6425   -4.5316    5.9725 C   0  0  0  0  0  0  0  0  0  0  0  0
   -2.6997   -3.9201    4.9336 C   0  0  0  0  0  0  0  0  0  0  0  0
   -1.2486   -4.1413    5.3668 C   0  0  0  0  0  0  0  0  0  0  0  0
   -1.0082   -3.4420    6.7085 C   0  0  0  0  0  0  0  0  0  0  0  0
   -2.9185   -4.5435    3.6666 O   0  0  0  0  0  0  0  0  0  0  0  0
   -2.5770   -3.8302    2.5601 C   0  0  0  0  0  0  0  0  0  0  0  0
   -1.9347   -2.6051    2.6987 C   0  0  0  0  0  0  0  0  0  0  0  0
   -1.5836   -1.8759    1.5812 C   0  0  0  0  0  0  0  0  0  0  0  0
   -1.8708   -2.3635    0.3136 C   0  0  0  0  0  0  0  0  0  0  0  0
   -2.5218   -3.5951    0.1627 C   0  0  0  0  0  0  0  0  0  0  0  0
   -2.8707   -4.3264    1.3058 C   0  0  0  0  0  0  0  0  0  0  0  0
   -2.8541   -4.1338   -1.1646 C   0  0  0  0  0  0  0  0  0  0  0  0
   -3.6708   -5.0312   -1.2446 O   0  0  0  0  0  0  0  0  0  0  0  0
   -2.2876   -3.6710   -2.2932 N   0  0  0  0  0  0  0  0  0  0  0  0
   -1.1588   -2.4624   -2.2056 S   0  0  0  0  0  0  0  0  0  0  0  0
   -1.4116   -1.5822   -3.2922 O   0  0  0  0  0  0  0  0  0  0  0  0
    0.0993   -3.0916   -2.0040 O   0  0  0  0  0  0  0  0  0  0  0  0
   -1.5080   -1.6231   -0.8126 N   0  0  3  0  0  0  0  0  0  0  0  0
   -1.4430   -0.1602   -0.7710 C   0  0  0  0  0  0  0  0  0  0  0  0
   -0.0965    0.2682   -0.2471 C   0  0  0  0  0  0  0  0  0  0  0  0
    0.7278   -0.5665    0.0612 O   0  0  0  0  0  0  0  0  0  0  0  0
    0.1918    1.5787   -0.1212 N   0  0  0  0  0  0  0  0  0  0  0  0
    1.4762    1.9787    0.2651 C   0  0  0  0  0  0  0  0  0  0  0  0
    2.5843    1.2451   -0.1416 C   0  0  0  0  0  0  0  0  0  0  0  0
    3.8546    1.6398    0.2327 C   0  0  0  0  0  0  0  0  0  0  0  0
    4.0305    2.7622    1.0169 C   0  0  0  0  0  0  0  0  0  0  0  0
    2.9244    3.5020    1.4341 C   0  0  0  0  0  0  0  0  0  0  0  0
    1.6428    3.1041    1.0572 C   0  0  0  0  0  0  0  0  0  0  0  0
    3.1106    4.7064    2.2753 C   0  0  0  0  0  0  0  0  0  0  0  0
    4.3784    5.0977    2.6471 N   0  0  0  0  0  0  0  0  0  0  0  0
   -3.0110   -5.8146    9.7198 H   0  0  0  0  0  0  0  0  0  0  0  0
   -2.2071   -4.7620   10.9088 H   0  0  0  0  0  0  0  0  0  0  0  0
   -3.4863   -4.1050    9.8598 H   0  0  0  0  0  0  0  0  0  0  0  0
    0.0155   -4.9520    9.9702 H   0  0  0  0  0  0  0  0  0  0  0  0
   -3.7269   -2.7913    7.2448 H   0  0  0  0  0  0  0  0  0  0  0  0
   -4.0257   -4.3339    8.0863 H   0  0  0  0  0  0  0  0  0  0  0  0
   -4.6753   -4.3945    5.6519 H   0  0  0  0  0  0  0  0  0  0  0  0
   -3.4308   -5.5961    6.0739 H   0  0  0  0  0  0  0  0  0  0  0  0
   -2.8950   -2.8509    4.8508 H   0  0  0  0  0  0  0  0  0  0  0  0
   -1.0597   -5.2094    5.4741 H   0  0  0  0  0  0  0  0  0  0  0  0
   -0.5772   -3.7263    4.6151 H   0  0  0  0  0  0  0  0  0  0  0  0
   -1.1084   -2.3640    6.5821 H   0  0  0  0  0  0  0  0  0  0  0  0
   -0.0070   -3.6759    7.0705 H   0  0  0  0  0  0  0  0  0  0  0  0
   -1.7103   -2.2231    3.6835 H   0  0  0  0  0  0  0  0  0  0  0  0
   -1.0849   -0.9245    1.6929 H   0  0  0  0  0  0  0  0  0  0  0  0
   -3.3700   -5.2789    1.2055 H   0  0  0  0  0  0  0  0  0  0  0  0
   -2.5409   -4.0403   -3.1536 H   0  0  0  0  0  0  0  0  0  0  0  0
   -2.2259    0.2198   -0.1146 H   0  0  0  0  0  0  0  0  0  0  0  0
   -1.5857    0.2386   -1.7753 H   0  0  0  0  0  0  0  0  0  0  0  0
   -0.4908    2.2447   -0.2982 H   0  0  0  0  0  0  0  0  0  0  0  0
    2.4525    0.3666   -0.7557 H   0  0  0  0  0  0  0  0  0  0  0  0
    4.7126    1.0683   -0.0896 H   0  0  0  0  0  0  0  0  0  0  0  0
    5.0249    3.0677    1.3072 H   0  0  0  0  0  0  0  0  0  0  0  0
    0.7828    3.6736    1.3771 H   0  0  0  0  0  0  0  0  0  0  0  0
    2.0959    6.1994    3.2164 H   0  0  0  0  0  0  0  0  0  0  0  0
    5.1488    4.5842    2.3578 H   0  0  0  0  0  0  0  0  0  0  0  0
    4.5005    5.8866    3.1981 H   0  0  0  0  0  0  0  0  0  0  0  0
   -0.3247   -4.5746    9.0856 N   0  3  0  0  0  0  0  0  0  0  0  0
    0.3416   -4.3061    8.3520 H   0  0  0  0  0  0  0  0  0  0  0  0
    2.0195    5.3634    2.6369 N   0  3  0  0  0  0  0  0  0  0  0  0
    1.0963    5.0314    2.3340 H   0  0  0  0  0  0  0  0  0  0  0  0
  1  2  1  0  0  0  0
  1 35  1  0  0  0  0
  1 36  1  0  0  0  0
  1 37  1  0  0  0  0
  2  3  1  0  0  0  0
  2 62  2  0  0  0  0
  3  8  1  0  0  0  0
  3  4  1  0  0  0  0
  4  5  1  0  0  0  0
  4 39  1  0  0  0  0
  4 40  1  0  0  0  0
  5  6  1  0  0  0  0
  5 41  1  0  0  0  0
  5 42  1  0  0  0  0
  6  7  1  0  0  0  0
  6  9  1  0  0  0  0
  6 43  1  0  0  0  0
  7  8  1  0  0  0  0
  7 44  1  0  0  0  0
  7 45  1  0  0  0  0
  8 46  1  0  0  0  0
  8 47  1  0  0  0  0
  9 10  1  0  0  0  0
 10 15  2  0  0  0  0
 10 11  1  0  0  0  0
 11 12  2  0  0  0  0
 11 48  1  0  0  0  0
 12 13  1  0  0  0  0
 12 49  1  0  0  0  0
 13 22  1  0  0  0  0
 13 14  2  0  0  0  0
 14 15  1  0  0  0  0
 14 16  1  0  0  0  0
 15 50  1  0  0  0  0
 16 17  2  0  0  0  0
 16 18  1  0  0  0  0
 18 19  1  0  0  0  0
 18 51  1  0  0  0  0
 19 20  2  0  0  0  0
 19 21  2  0  0  0  0
 19 22  1  0  0  0  0
 22 23  1  0  0  0  0
 23 24  1  0  0  0  0
 23 52  1  0  0  0  0
 23 53  1  0  0  0  0
 24 25  2  0  0  0  0
 24 26  1  0  0  0  0
 26 27  1  0  0  0  0
 26 54  1  0  0  0  0
 27 32  2  0  0  0  0
 27 28  1  0  0  0  0
 28 29  2  0  0  0  0
 28 55  1  0  0  0  0
 29 30  1  0  0  0  0
 29 56  1  0  0  0  0
 30 31  2  0  0  0  0
 30 57  1  0  0  0  0
 31 32  1  0  0  0  0
 31 33  1  0  0  0  0
 32 58  1  0  0  0  0
 33 34  1  0  0  0  0
 33 64  2  0  0  0  0
 34 60  1  0  0  0  0
 34 61  1  0  0  0  0
 38 62  1  0  0  0  0
 59 64  1  0  0  0  0
 62 63  1  0  0  0  0
 64 65  1  0  0  0  0
M  CHG  2  62   1  64   1
M  END
$$$$
ZINC02003646
  -OEChem-08230709403D

 53 56  0     0  0  0  0  0  0999 V2000
    2.8697    1.5784   -6.3966 H   0  0  0  0  0  0  0  0  0  0  0  0
    3.2249    3.4815   -5.7667 C   0  0  0  0  0  0  0  0  0  0  0  0
    2.7514    4.5185   -4.8214 C   0  0  0  0  0  0  0  0  0  0  0  0
    3.3840    5.7613   -4.7725 C   0  0  0  0  0  0  0  0  0  0  0  0
    2.9429    6.7291   -3.8922 C   0  0  0  0  0  0  0  0  0  0  0  0
    1.8744    6.4736   -3.0548 C   0  0  0  0  0  0  0  0  0  0  0  0
    1.2342    5.2355   -3.0946 C   0  0  0  0  0  0  0  0  0  0  0  0
    1.6736    4.2558   -3.9798 C   0  0  0  0  0  0  0  0  0  0  0  0
    0.0829    4.9653   -2.1992 C   0  0  0  0  0  0  0  0  0  0  0  0
   -0.1131    5.4491   -0.8165 C   0  0  0  0  0  0  0  0  0  0  0  0
   -1.3261    4.9074   -0.4728 C   0  0  0  0  0  0  0  0  0  0  0  0
   -1.7461    4.2125   -1.5325 O   0  0  0  0  0  0  0  0  0  0  0  0
   -0.9816    4.2519   -2.4649 N   0  0  0  0  0  0  0  0  0  0  0  0
    0.7746    6.3011   -0.0073 C   0  0  0  0  0  0  0  0  0  0  0  0
    1.8262    6.6981   -0.4720 O   0  0  0  0  0  0  0  0  0  0  0  0
    0.4216    6.6410    1.2484 N   0  0  0  0  0  0  0  0  0  0  0  0
    1.3113    7.3558    2.0550 C   0  0  0  0  0  0  0  0  0  0  0  0
    2.6799    7.1450    1.9346 C   0  0  0  0  0  0  0  0  0  0  0  0
    3.5596    7.8531    2.7253 C   0  0  0  0  0  0  0  0  0  0  0  0
    3.0751    8.7728    3.6542 C   0  0  0  0  0  0  0  0  0  0  0  0
    1.7018    8.9784    3.7773 C   0  0  0  0  0  0  0  0  0  0  0  0
    0.8261    8.2723    2.9805 C   0  0  0  0  0  0  0  0  0  0  0  0
    4.0194    9.5311    4.5108 C   0  0  0  0  0  0  0  0  0  0  0  0
    4.8027    8.8629    5.4504 C   0  0  0  0  0  0  0  0  0  0  0  0
    5.6794    9.5733    6.2445 C   0  0  0  0  0  0  0  0  0  0  0  0
    5.7821   10.9463    6.1092 C   0  0  0  0  0  0  0  0  0  0  0  0
    5.0074   11.6147    5.1786 C   0  0  0  0  0  0  0  0  0  0  0  0
    4.1309   10.9135    4.3752 C   0  0  0  0  0  0  0  0  0  0  0  0
    3.1503   11.7655    3.1848 S   0  0  0  0  0  0  0  0  0  0  0  0
    1.8054   11.3615    3.4023 O   0  0  0  0  0  0  0  0  0  0  0  0
    3.5529   13.1276    3.2269 O   0  0  0  0  0  0  0  0  0  0  0  0
    3.5818   11.1904    1.6930 N   0  0  0  0  0  0  0  0  0  0  0  0
    4.2914    3.7430   -6.5988 N   0  0  0  0  0  0  0  0  0  0  0  0
    4.2201    5.9667   -5.4245 H   0  0  0  0  0  0  0  0  0  0  0  0
    3.4352    7.6897   -3.8579 H   0  0  0  0  0  0  0  0  0  0  0  0
    1.5341    7.2343   -2.3681 H   0  0  0  0  0  0  0  0  0  0  0  0
    1.1804    3.2956   -4.0142 H   0  0  0  0  0  0  0  0  0  0  0  0
   -1.8404    5.0212    0.4701 H   0  0  0  0  0  0  0  0  0  0  0  0
   -0.4499    6.3895    1.5920 H   0  0  0  0  0  0  0  0  0  0  0  0
    3.0546    6.4292    1.2180 H   0  0  0  0  0  0  0  0  0  0  0  0
    4.6231    7.6922    2.6284 H   0  0  0  0  0  0  0  0  0  0  0  0
    1.3243    9.6907    4.4959 H   0  0  0  0  0  0  0  0  0  0  0  0
   -0.2380    8.4309    3.0757 H   0  0  0  0  0  0  0  0  0  0  0  0
    4.7234    7.7910    5.5568 H   0  0  0  0  0  0  0  0  0  0  0  0
    6.2868    9.0566    6.9728 H   0  0  0  0  0  0  0  0  0  0  0  0
    6.4701   11.4984    6.7323 H   0  0  0  0  0  0  0  0  0  0  0  0
    5.0913   12.6867    5.0775 H   0  0  0  0  0  0  0  0  0  0  0  0
    4.2653   10.5064    1.6160 H   0  0  0  0  0  0  0  0  0  0  0  0
    3.1511   11.5374    0.8962 H   0  0  0  0  0  0  0  0  0  0  0  0
    4.7321    4.6064   -6.5654 H   0  0  0  0  0  0  0  0  0  0  0  0
    4.6015    3.0638   -7.2179 H   0  0  0  0  0  0  0  0  0  0  0  0
    2.5811    2.3245   -5.7635 N   0  3  0  0  0  0  0  0  0  0  0  0
    1.7914    2.1781   -5.1238 H   0  0  0  0  0  0  0  0  0  0  0  0
  1 52  1  0  0  0  0
  2  3  1  0  0  0  0
  2 33  1  0  0  0  0
  2 52  2  0  0  0  0
  3  8  2  0  0  0  0
  3  4  1  0  0  0  0
  4  5  2  0  0  0  0
  4 34  1  0  0  0  0
  5  6  1  0  0  0  0
  5 35  1  0  0  0  0
  6  7  2  0  0  0  0
  6 36  1  0  0  0  0
  7  8  1  0  0  0  0
  7  9  1  0  0  0  0
  8 37  1  0  0  0  0
  9 13  2  0  0  0  0
  9 10  1  0  0  0  0
 10 11  2  0  0  0  0
 10 14  1  0  0  0  0
 11 12  1  0  0  0  0
 11 38  1  0  0  0  0
 12 13  1  0  0  0  0
 14 15  2  0  0  0  0
 14 16  1  0  0  0  0
 16 17  1  0  0  0  0
 16 39  1  0  0  0  0
 17 22  2  0  0  0  0
 17 18  1  0  0  0  0
 18 19  2  0  0  0  0
 18 40  1  0  0  0  0
 19 20  1  0  0  0  0
 19 41  1  0  0  0  0
 20 21  2  0  0  0  0
 20 23  1  0  0  0  0
 21 22  1  0  0  0  0
 21 42  1  0  0  0  0
 22 43  1  0  0  0  0
 23 28  2  0  0  0  0
 23 24  1  0  0  0  0
 24 25  2  0  0  0  0
 24 44  1  0  0  0  0
 25 26  1  0  0  0  0
 25 45  1  0  0  0  0
 26 27  2  0  0  0  0
 26 46  1  0  0  0  0
 27 28  1  0  0  0  0
 27 47  1  0  0  0  0
 28 29  1  0  0  0  0
 29 30  2  0  0  0  0
 29 31  2  0  0  0  0
 29 32  1  0  0  0  0
 32 48  1  0  0  0  0
 32 49  1  0  0  0  0
 33 50  1  0  0  0  0
 33 51  1  0  0  0  0
 52 53  1  0  0  0  0
M  CHG  1  52   1
M  END
$$$$
ZINC02006270
  -OEChem-08230709403D

 57 60  0     0  0  0  0  0  0999 V2000
   -2.7087   -0.1651    5.7043 H   0  0  0  0  0  0  0  0  0  0  0  0
   -1.3655   -0.7193    4.2785 C   0  0  0  0  0  0  0  0  0  0  0  0
   -0.8048   -0.3191    2.9674 C   0  0  0  0  0  0  0  0  0  0  0  0
    0.1750   -1.1026    2.3570 C   0  0  0  0  0  0  0  0  0  0  0  0
    0.6969   -0.7275    1.1358 C   0  0  0  0  0  0  0  0  0  0  0  0
    0.2559    0.4266    0.5158 C   0  0  0  0  0  0  0  0  0  0  0  0
   -0.7239    1.2100    1.1130 C   0  0  0  0  0  0  0  0  0  0  0  0
   -1.2538    0.8412    2.3402 C   0  0  0  0  0  0  0  0  0  0  0  0
   -1.1723    2.3751    0.4783 N   0  0  0  0  0  0  0  0  0  0  0  0
   -1.7242    2.4527   -0.7727 C   0  0  0  0  0  0  0  0  0  0  0  0
   -2.0221    3.7817   -1.0010 C   0  0  0  0  0  0  0  0  0  0  0  0
   -1.6419    4.5008    0.1293 C   0  0  0  0  0  0  0  0  0  0  0  0
   -1.1427    3.6700    1.0108 N   0  0  0  0  0  0  0  0  0  0  0  0
   -1.7866    5.9898    0.3111 C   0  0  0  0  0  0  0  0  0  0  0  0
   -1.9551    1.3334   -1.6977 C   0  0  0  0  0  0  0  0  0  0  0  0
   -2.3437    1.5502   -2.8300 O   0  0  0  0  0  0  0  0  0  0  0  0
   -1.7362    0.0672   -1.2913 N   0  0  0  0  0  0  0  0  0  0  0  0
   -1.8853   -0.9912   -2.1914 C   0  0  0  0  0  0  0  0  0  0  0  0
   -2.8344   -0.9126   -3.2038 C   0  0  0  0  0  0  0  0  0  0  0  0
   -2.9799   -1.9535   -4.0959 C   0  0  0  0  0  0  0  0  0  0  0  0
   -2.1820   -3.0903   -3.9752 C   0  0  0  0  0  0  0  0  0  0  0  0
   -1.2344   -3.1692   -2.9558 C   0  0  0  0  0  0  0  0  0  0  0  0
   -1.0883   -2.1235   -2.0694 C   0  0  0  0  0  0  0  0  0  0  0  0
   -2.3414   -4.2145   -4.9299 C   0  0  0  0  0  0  0  0  0  0  0  0
   -3.5479   -4.9090   -4.9975 C   0  0  0  0  0  0  0  0  0  0  0  0
   -3.6907   -5.9536   -5.8877 C   0  0  0  0  0  0  0  0  0  0  0  0
   -2.6392   -6.3119   -6.7122 C   0  0  0  0  0  0  0  0  0  0  0  0
   -1.4399   -5.6258   -6.6498 C   0  0  0  0  0  0  0  0  0  0  0  0
   -1.2875   -4.5762   -5.7664 C   0  0  0  0  0  0  0  0  0  0  0  0
    0.2388   -3.6989   -5.6930 S   0  0  0  0  0  0  0  0  0  0  0  0
    0.5769   -3.5862   -4.3174 O   0  0  0  0  0  0  0  0  0  0  0  0
    1.1033   -4.3077   -6.6424 O   0  0  0  0  0  0  0  0  0  0  0  0
   -0.0531   -2.1619   -6.2360 N   0  0  0  0  0  0  0  0  0  0  0  0
   -0.9197   -1.8667    4.8971 N   0  0  0  0  0  0  0  0  0  0  0  0
    0.5252   -2.0026    2.8405 H   0  0  0  0  0  0  0  0  0  0  0  0
    1.4556   -1.3352    0.6650 H   0  0  0  0  0  0  0  0  0  0  0  0
    0.6712    0.7179   -0.4377 H   0  0  0  0  0  0  0  0  0  0  0  0
   -2.0118    1.4515    2.8085 H   0  0  0  0  0  0  0  0  0  0  0  0
   -2.4693    4.1900   -1.8953 H   0  0  0  0  0  0  0  0  0  0  0  0
   -2.7561    6.2086    0.7586 H   0  0  0  0  0  0  0  0  0  0  0  0
   -0.9943    6.3548    0.9645 H   0  0  0  0  0  0  0  0  0  0  0  0
   -1.7143    6.4829   -0.6583 H   0  0  0  0  0  0  0  0  0  0  0  0
   -1.4750   -0.1095   -0.3740 H   0  0  0  0  0  0  0  0  0  0  0  0
   -3.4555   -0.0337   -3.2943 H   0  0  0  0  0  0  0  0  0  0  0  0
   -3.7150   -1.8905   -4.8847 H   0  0  0  0  0  0  0  0  0  0  0  0
   -0.6149   -4.0487   -2.8608 H   0  0  0  0  0  0  0  0  0  0  0  0
   -0.3543   -2.1842   -1.2796 H   0  0  0  0  0  0  0  0  0  0  0  0
   -4.3694   -4.6304   -4.3540 H   0  0  0  0  0  0  0  0  0  0  0  0
   -4.6253   -6.4923   -5.9412 H   0  0  0  0  0  0  0  0  0  0  0  0
   -2.7553   -7.1300   -7.4075 H   0  0  0  0  0  0  0  0  0  0  0  0
   -0.6223   -5.9098   -7.2958 H   0  0  0  0  0  0  0  0  0  0  0  0
   -0.9462   -1.9083   -6.5170 H   0  0  0  0  0  0  0  0  0  0  0  0
    0.6689   -1.5153   -6.2732 H   0  0  0  0  0  0  0  0  0  0  0  0
   -0.2387   -2.4125    4.4741 H   0  0  0  0  0  0  0  0  0  0  0  0
   -1.2870   -2.1288    5.7558 H   0  0  0  0  0  0  0  0  0  0  0  0
   -2.2919    0.0680    4.8029 N   0  3  0  0  0  0  0  0  0  0  0  0
   -2.5908    0.9132    4.3023 H   0  0  0  0  0  0  0  0  0  0  0  0
  1 56  1  0  0  0  0
  2  3  1  0  0  0  0
  2 34  1  0  0  0  0
  2 56  2  0  0  0  0
  3  8  2  0  0  0  0
  3  4  1  0  0  0  0
  4  5  2  0  0  0  0
  4 35  1  0  0  0  0
  5  6  1  0  0  0  0
  5 36  1  0  0  0  0
  6  7  2  0  0  0  0
  6 37  1  0  0  0  0
  7  8  1  0  0  0  0
  7  9  1  0  0  0  0
  8 38  1  0  0  0  0
  9 13  1  0  0  0  0
  9 10  1  0  0  0  0
 10 11  2  0  0  0  0
 10 15  1  0  0  0  0
 11 12  1  0  0  0  0
 11 39  1  0  0  0  0
 12 13  2  0  0  0  0
 12 14  1  0  0  0  0
 14 40  1  0  0  0  0
 14 41  1  0  0  0  0
 14 42  1  0  0  0  0
 15 16  2  0  0  0  0
 15 17  1  0  0  0  0
 17 18  1  0  0  0  0
 17 43  1  0  0  0  0
 18 23  2  0  0  0  0
 18 19  1  0  0  0  0
 19 20  2  0  0  0  0
 19 44  1  0  0  0  0
 20 21  1  0  0  0  0
 20 45  1  0  0  0  0
 21 22  2  0  0  0  0
 21 24  1  0  0  0  0
 22 23  1  0  0  0  0
 22 46  1  0  0  0  0
 23 47  1  0  0  0  0
 24 29  2  0  0  0  0
 24 25  1  0  0  0  0
 25 26  2  0  0  0  0
 25 48  1  0  0  0  0
 26 27  1  0  0  0  0
 26 49  1  0  0  0  0
 27 28  2  0  0  0  0
 27 50  1  0  0  0  0
 28 29  1  0  0  0  0
 28 51  1  0  0  0  0
 29 30  1  0  0  0  0
 30 31  2  0  0  0  0
 30 32  2  0  0  0  0
 30 33  1  0  0  0  0
 33 52  1  0  0  0  0
 33 53  1  0  0  0  0
 34 54  1  0  0  0  0
 34 55  1  0  0  0  0
 56 57  1  0  0  0  0
M  CHG  1  56   1
M  END
$$$$
ZINC02007314
  -OEChem-08230709403D

 59 62  0     0  0  0  0  0  0999 V2000
    8.4872    0.9367   -3.7549 C   0  0  0  0  0  0  0  0  0  0  0  0
    7.8623    1.5580   -2.6882 C   0  0  0  0  0  0  0  0  0  0  0  0
    8.4871    2.5976   -2.0233 C   0  0  0  0  0  0  0  0  0  0  0  0
    9.7432    3.0145   -2.4142 C   0  0  0  0  0  0  0  0  0  0  0  0
   10.3804    2.3889   -3.4852 C   0  0  0  0  0  0  0  0  0  0  0  0
    9.7430    1.3446   -4.1550 C   0  0  0  0  0  0  0  0  0  0  0  0
   11.7285    2.8310   -3.9093 C   0  0  0  0  0  0  0  0  0  0  0  0
   12.3556    2.2108   -4.9679 N   0  0  0  0  0  0  0  0  0  0  0  0
    7.7972    3.2724   -0.8658 C   0  0  0  0  0  0  0  0  0  0  0  0
    7.0018    4.3987   -1.3605 N   0  0  0  0  0  0  0  0  0  0  0  0
    6.2933    5.1539   -0.4979 C   0  0  0  0  0  0  0  0  0  0  0  0
    6.2429    4.8482    0.6787 O   0  0  0  0  0  0  0  0  0  0  0  0
    5.5817    6.3461   -0.9782 C   0  0  0  0  0  0  0  0  0  0  0  0
    5.6456    6.8475   -2.2401 C   0  0  0  0  0  0  0  0  0  0  0  0
    4.8251    7.9983   -2.2889 C   0  0  0  0  0  0  0  0  0  0  0  0
    4.2645    8.1600   -1.0070 C   0  0  0  0  0  0  0  0  0  0  0  0
    4.7376    7.1363   -0.2197 N   0  0  0  0  0  0  0  0  0  0  0  0
    4.4067    6.9220    1.1912 C   0  0  0  0  0  0  0  0  0  0  0  0
    3.1460    6.1027    1.2927 C   0  0  0  0  0  0  0  0  0  0  0  0
    3.2214    4.7216    1.3315 C   0  0  0  0  0  0  0  0  0  0  0  0
    2.0688    3.9628    1.4251 C   0  0  0  0  0  0  0  0  0  0  0  0
    0.8352    4.5797    1.4740 C   0  0  0  0  0  0  0  0  0  0  0  0
    0.7530    5.9713    1.4410 C   0  0  0  0  0  0  0  0  0  0  0  0
    1.9189    6.7311    1.3471 C   0  0  0  0  0  0  0  0  0  0  0  0
   -0.5671    6.6397    1.4999 C   0  0  0  0  0  0  0  0  0  0  0  0
   -1.7171    5.8864    1.5926 N   0  0  0  0  0  0  0  0  0  0  0  0
    3.4048    9.2269   -0.7631 C   0  0  0  0  0  0  0  0  0  0  0  0
    3.1055   10.1168   -1.7712 C   0  0  0  0  0  0  0  0  0  0  0  0
    3.6534    9.9648   -3.0368 C   0  0  0  0  0  0  0  0  0  0  0  0
    4.5095    8.9154   -3.3061 C   0  0  0  0  0  0  0  0  0  0  0  0
    5.0431    8.7703   -4.5462 O   0  0  0  0  0  0  0  0  0  0  0  0
    7.9928    0.1280   -4.2726 H   0  0  0  0  0  0  0  0  0  0  0  0
    6.8811    1.2323   -2.3757 H   0  0  0  0  0  0  0  0  0  0  0  0
   10.2317    3.8238   -1.8919 H   0  0  0  0  0  0  0  0  0  0  0  0
   10.2317    0.8559   -4.9850 H   0  0  0  0  0  0  0  0  0  0  0  0
   13.2046    4.1673   -3.4849 H   0  0  0  0  0  0  0  0  0  0  0  0
   11.9140    1.4846   -5.4354 H   0  0  0  0  0  0  0  0  0  0  0  0
   13.2387    2.5005   -5.2458 H   0  0  0  0  0  0  0  0  0  0  0  0
    8.5438    3.6370   -0.1603 H   0  0  0  0  0  0  0  0  0  0  0  0
    7.1435    2.5578   -0.3658 H   0  0  0  0  0  0  0  0  0  0  0  0
    6.9850    4.6010   -2.3091 H   0  0  0  0  0  0  0  0  0  0  0  0
    6.2231    6.4422   -3.0578 H   0  0  0  0  0  0  0  0  0  0  0  0
    4.2544    7.8848    1.6791 H   0  0  0  0  0  0  0  0  0  0  0  0
    5.2245    6.3924    1.6798 H   0  0  0  0  0  0  0  0  0  0  0  0
    4.1841    4.2342    1.2889 H   0  0  0  0  0  0  0  0  0  0  0  0
    2.1339    2.8852    1.4553 H   0  0  0  0  0  0  0  0  0  0  0  0
   -0.0645    3.9860    1.5426 H   0  0  0  0  0  0  0  0  0  0  0  0
    1.8613    7.8091    1.3168 H   0  0  0  0  0  0  0  0  0  0  0  0
   -1.4593    8.4695    1.4968 H   0  0  0  0  0  0  0  0  0  0  0  0
   -1.6620    4.9184    1.6193 H   0  0  0  0  0  0  0  0  0  0  0  0
   -2.5819    6.3243    1.6311 H   0  0  0  0  0  0  0  0  0  0  0  0
    2.9714    9.3569    0.2175 H   0  0  0  0  0  0  0  0  0  0  0  0
    2.4373   10.9421   -1.5741 H   0  0  0  0  0  0  0  0  0  0  0  0
    3.4090   10.6716   -3.8159 H   0  0  0  0  0  0  0  0  0  0  0  0
    4.5093    8.2280   -5.1429 H   0  0  0  0  0  0  0  0  0  0  0  0
   12.2770    3.8269   -3.2308 N   0  3  0  0  0  0  0  0  0  0  0  0
   11.7689    4.2567   -2.4489 H   0  0  0  0  0  0  0  0  0  0  0  0
   -0.5746    7.9631    1.4591 N   0  3  0  0  0  0  0  0  0  0  0  0
    0.3100    8.4796    1.3897 H   0  0  0  0  0  0  0  0  0  0  0  0
  1  6  2  0  0  0  0
  1  2  1  0  0  0  0
  1 32  1  0  0  0  0
  2  3  2  0  0  0  0
  2 33  1  0  0  0  0
  3  4  1  0  0  0  0
  3  9  1  0  0  0  0
  4  5  2  0  0  0  0
  4 34  1  0  0  0  0
  5  6  1  0  0  0  0
  5  7  1  0  0  0  0
  6 35  1  0  0  0  0
  7  8  1  0  0  0  0
  7 56  2  0  0  0  0
  8 37  1  0  0  0  0
  8 38  1  0  0  0  0
  9 10  1  0  0  0  0
  9 39  1  0  0  0  0
  9 40  1  0  0  0  0
 10 11  1  0  0  0  0
 10 41  1  0  0  0  0
 11 12  2  0  0  0  0
 11 13  1  0  0  0  0
 13 17  1  0  0  0  0
 13 14  2  0  0  0  0
 14 15  1  0  0  0  0
 14 42  1  0  0  0  0
 15 30  2  0  0  0  0
 15 16  1  0  0  0  0
 16 17  1  0  0  0  0
 16 27  2  0  0  0  0
 17 18  1  0  0  0  0
 18 19  1  0  0  0  0
 18 43  1  0  0  0  0
 18 44  1  0  0  0  0
 19 24  2  0  0  0  0
 19 20  1  0  0  0  0
 20 21  2  0  0  0  0
 20 45  1  0  0  0  0
 21 22  1  0  0  0  0
 21 46  1  0  0  0  0
 22 23  2  0  0  0  0
 22 47  1  0  0  0  0
 23 24  1  0  0  0  0
 23 25  1  0  0  0  0
 24 48  1  0  0  0  0
 25 26  1  0  0  0  0
 25 58  2  0  0  0  0
 26 50  1  0  0  0  0
 26 51  1  0  0  0  0
 27 28  1  0  0  0  0
 27 52  1  0  0  0  0
 28 29  2  0  0  0  0
 28 53  1  0  0  0  0
 29 30  1  0  0  0  0
 29 54  1  0  0  0  0
 30 31  1  0  0  0  0
 31 55  1  0  0  0  0
 36 56  1  0  0  0  0
 49 58  1  0  0  0  0
 56 57  1  0  0  0  0
 58 59  1  0  0  0  0
M  CHG  2  56   1  58   1
M  END
$$$$
ZINC02047636
  -OEChem-08230709403D

 50 53  0     1  0  0  0  0  0999 V2000
   -9.1194   -1.7691   -2.4835 H   0  0  0  0  0  0  0  0  0  0  0  0
   -8.0363   -1.9662   -0.7710 C   0  0  0  0  0  0  0  0  0  0  0  0
   -6.6896   -2.3106   -0.2606 C   0  0  0  0  0  0  0  0  0  0  0  0
   -5.6697   -2.6496   -1.1492 C   0  0  0  0  0  0  0  0  0  0  0  0
   -4.4169   -2.9700   -0.6673 C   0  0  0  0  0  0  0  0  0  0  0  0
   -4.1716   -2.9549    0.6939 C   0  0  0  0  0  0  0  0  0  0  0  0
   -5.1808   -2.6246    1.5807 C   0  0  0  0  0  0  0  0  0  0  0  0
   -6.4363   -2.2977    1.1108 C   0  0  0  0  0  0  0  0  0  0  0  0
   -2.8012   -3.3058    1.2135 C   0  0  0  0  0  0  0  0  0  0  0  0
   -1.9862   -2.0916    1.3004 N   0  0  0  0  0  0  0  0  0  0  0  0
   -2.0192   -1.3418    2.5486 C   0  0  0  0  0  0  0  0  0  0  0  0
   -0.7720   -0.4668    2.6891 C   0  0  0  0  0  0  0  0  0  0  0  0
   -0.5600    0.2394    1.4143 N   0  0  3  0  0  0  0  0  0  0  0  0
   -0.3223   -0.5835    0.2190 C   0  0  0  0  0  0  0  0  0  0  0  0
   -1.2657   -1.7506    0.2309 C   0  0  0  0  0  0  0  0  0  0  0  0
   -1.3813   -2.4116   -0.7792 O   0  0  0  0  0  0  0  0  0  0  0  0
   -0.5947    1.8929    1.3290 S   0  0  0  0  0  0  0  0  0  0  0  0
   -0.9188    2.2235   -0.0143 O   0  0  0  0  0  0  0  0  0  0  0  0
   -1.3707    2.3402    2.4322 O   0  0  0  0  0  0  0  0  0  0  0  0
    1.0493    2.4633    1.6054 C   0  0  0  0  0  0  0  0  0  0  0  0
    2.0145    2.6826    0.7013 C   0  0  0  0  0  0  0  0  0  0  0  0
    3.3152    3.1597    1.1484 C   0  0  0  0  0  0  0  0  0  0  0  0
    4.4639    3.4542    0.3760 C   0  0  0  0  0  0  0  0  0  0  0  0
    5.6053    3.8949    0.9680 C   0  0  0  0  0  0  0  0  0  0  0  0
    5.6883    4.0721    2.3437 C   0  0  0  0  0  0  0  0  0  0  0  0
    4.5883    3.7954    3.1326 C   0  0  0  0  0  0  0  0  0  0  0  0
    3.4254    3.3478    2.5431 C   0  0  0  0  0  0  0  0  0  0  0  0
    1.8224    2.8935    3.1530 S   0  0  0  0  0  0  0  0  0  0  0  0
    7.1625    4.6373    3.0656 Cl  0  0  0  0  0  0  0  0  0  0  0  0
   -9.0421   -1.6317    0.1094 N   0  0  0  0  0  0  0  0  0  0  0  0
   -5.8597   -2.6610   -2.2122 H   0  0  0  0  0  0  0  0  0  0  0  0
   -3.6262   -3.2327   -1.3546 H   0  0  0  0  0  0  0  0  0  0  0  0
   -4.9843   -2.6186    2.6427 H   0  0  0  0  0  0  0  0  0  0  0  0
   -7.2222   -2.0355    1.8038 H   0  0  0  0  0  0  0  0  0  0  0  0
   -2.3261   -4.0146    0.5354 H   0  0  0  0  0  0  0  0  0  0  0  0
   -2.8916   -3.7543    2.2029 H   0  0  0  0  0  0  0  0  0  0  0  0
   -2.0642   -2.0392    3.3850 H   0  0  0  0  0  0  0  0  0  0  0  0
   -2.9057   -0.7077    2.5629 H   0  0  0  0  0  0  0  0  0  0  0  0
    0.0927   -1.0920    2.9114 H   0  0  0  0  0  0  0  0  0  0  0  0
   -0.9190    0.2572    3.4905 H   0  0  0  0  0  0  0  0  0  0  0  0
   -0.4933    0.0147   -0.6760 H   0  0  0  0  0  0  0  0  0  0  0  0
    0.7048   -0.9486    0.2254 H   0  0  0  0  0  0  0  0  0  0  0  0
    1.8291    2.5070   -0.3481 H   0  0  0  0  0  0  0  0  0  0  0  0
    4.4333    3.3270   -0.6961 H   0  0  0  0  0  0  0  0  0  0  0  0
    6.4677    4.1121    0.3550 H   0  0  0  0  0  0  0  0  0  0  0  0
    4.6393    3.9283    4.2032 H   0  0  0  0  0  0  0  0  0  0  0  0
   -8.8679   -1.6218    1.0635 H   0  0  0  0  0  0  0  0  0  0  0  0
   -9.9242   -1.4062   -0.2251 H   0  0  0  0  0  0  0  0  0  0  0  0
   -8.2095   -1.9984   -2.0833 N   0  3  0  0  0  0  0  0  0  0  0  0
   -7.4279   -2.2542   -2.6982 H   0  0  0  0  0  0  0  0  0  0  0  0
  1 49  1  0  0  0  0
  2  3  1  0  0  0  0
  2 30  1  0  0  0  0
  2 49  2  0  0  0  0
  3  8  2  0  0  0  0
  3  4  1  0  0  0  0
  4  5  2  0  0  0  0
  4 31  1  0  0  0  0
  5  6  1  0  0  0  0
  5 32  1  0  0  0  0
  6  7  2  0  0  0  0
  6  9  1  0  0  0  0
  7  8  1  0  0  0  0
  7 33  1  0  0  0  0
  8 34  1  0  0  0  0
  9 10  1  0  0  0  0
  9 35  1  0  0  0  0
  9 36  1  0  0  0  0
 10 15  1  0  0  0  0
 10 11  1  0  0  0  0
 11 12  1  0  0  0  0
 11 37  1  0  0  0  0
 11 38  1  0  0  0  0
 12 13  1  0  0  0  0
 12 39  1  0  0  0  0
 12 40  1  0  0  0  0
 13 14  1  0  0  0  0
 13 17  1  0  0  0  0
 14 15  1  0  0  0  0
 14 41  1  0  0  0  0
 14 42  1  0  0  0  0
 15 16  2  0  0  0  0
 17 18  2  0  0  0  0
 17 19  2  0  0  0  0
 17 20  1  0  0  0  0
 20 28  1  0  0  0  0
 20 21  2  0  0  0  0
 21 22  1  0  0  0  0
 21 43  1  0  0  0  0
 22 27  2  0  0  0  0
 22 23  1  0  0  0  0
 23 24  2  0  0  0  0
 23 44  1  0  0  0  0
 24 25  1  0  0  0  0
 24 45  1  0  0  0  0
 25 26  2  0  0  0  0
 25 29  1  0  0  0  0
 26 27  1  0  0  0  0
 26 46  1  0  0  0  0
 27 28  1  0  0  0  0
 30 47  1  0  0  0  0
 30 48  1  0  0  0  0
 49 50  1  0  0  0  0
M  CHG  1  49   1
M  END
$$$$
ZINC02047642
  -OEChem-08230709403D

 50 53  0     1  0  0  0  0  0999 V2000
   -6.6147   -2.0720    3.9628 H   0  0  0  0  0  0  0  0  0  0  0  0
   -6.9760   -2.0947    1.9595 C   0  0  0  0  0  0  0  0  0  0  0  0
   -6.3371   -2.3533    0.6489 C   0  0  0  0  0  0  0  0  0  0  0  0
   -7.0741   -2.2204   -0.5279 C   0  0  0  0  0  0  0  0  0  0  0  0
   -6.4733   -2.4627   -1.7460 C   0  0  0  0  0  0  0  0  0  0  0  0
   -5.1425   -2.8374   -1.8017 C   0  0  0  0  0  0  0  0  0  0  0  0
   -4.4066   -2.9714   -0.6383 C   0  0  0  0  0  0  0  0  0  0  0  0
   -4.9979   -2.7367    0.5865 C   0  0  0  0  0  0  0  0  0  0  0  0
   -2.9578   -3.3803   -0.7078 C   0  0  0  0  0  0  0  0  0  0  0  0
   -2.1173   -2.1850   -0.8121 N   0  0  0  0  0  0  0  0  0  0  0  0
   -1.6509   -1.5750    0.4255 C   0  0  0  0  0  0  0  0  0  0  0  0
   -0.4046   -0.7239    0.1750 C   0  0  0  0  0  0  0  0  0  0  0  0
   -0.6519    0.1159   -1.0092 N   0  0  3  0  0  0  0  0  0  0  0  0
   -0.9121   -0.5729   -2.2820 C   0  0  0  0  0  0  0  0  0  0  0  0
   -1.8333   -1.7313   -2.0338 C   0  0  0  0  0  0  0  0  0  0  0  0
   -2.3456   -2.2780   -2.9875 O   0  0  0  0  0  0  0  0  0  0  0  0
   -0.6444    1.7690   -0.9100 S   0  0  0  0  0  0  0  0  0  0  0  0
   -1.4306    2.2445   -1.9939 O   0  0  0  0  0  0  0  0  0  0  0  0
   -0.9340    2.0960    0.4422 O   0  0  0  0  0  0  0  0  0  0  0  0
    1.0073    2.3016   -1.2143 C   0  0  0  0  0  0  0  0  0  0  0  0
    1.5752    2.6152   -2.3875 C   0  0  0  0  0  0  0  0  0  0  0  0
    2.9681    3.0373   -2.4152 C   0  0  0  0  0  0  0  0  0  0  0  0
    3.7584    3.4108   -3.5282 C   0  0  0  0  0  0  0  0  0  0  0  0
    5.0560    3.7816   -3.3663 C   0  0  0  0  0  0  0  0  0  0  0  0
    5.6527    3.8081   -2.1115 C   0  0  0  0  0  0  0  0  0  0  0  0
    4.9144    3.4503   -0.9998 C   0  0  0  0  0  0  0  0  0  0  0  0
    3.5975    3.0725   -1.1521 C   0  0  0  0  0  0  0  0  0  0  0  0
    2.3187    2.5591   -0.0346 S   0  0  0  0  0  0  0  0  0  0  0  0
    7.3125    4.2875   -1.9422 Cl  0  0  0  0  0  0  0  0  0  0  0  0
   -8.3011   -1.7219    2.0183 N   0  0  0  0  0  0  0  0  0  0  0  0
   -8.1131   -1.9286   -0.4855 H   0  0  0  0  0  0  0  0  0  0  0  0
   -7.0429   -2.3601   -2.6578 H   0  0  0  0  0  0  0  0  0  0  0  0
   -4.6766   -3.0265   -2.7576 H   0  0  0  0  0  0  0  0  0  0  0  0
   -4.4234   -2.8459    1.4945 H   0  0  0  0  0  0  0  0  0  0  0  0
   -2.8003   -4.0126   -1.5816 H   0  0  0  0  0  0  0  0  0  0  0  0
   -2.6927   -3.9334    0.1933 H   0  0  0  0  0  0  0  0  0  0  0  0
   -1.4116   -2.3591    1.1439 H   0  0  0  0  0  0  0  0  0  0  0  0
   -2.4402   -0.9438    0.8341 H   0  0  0  0  0  0  0  0  0  0  0  0
    0.4529   -1.3719   -0.0064 H   0  0  0  0  0  0  0  0  0  0  0  0
   -0.2105   -0.0909    1.0408 H   0  0  0  0  0  0  0  0  0  0  0  0
   -1.3779    0.1194   -2.9834 H   0  0  0  0  0  0  0  0  0  0  0  0
    0.0268   -0.9394   -2.6974 H   0  0  0  0  0  0  0  0  0  0  0  0
    1.0052    2.5550   -3.3028 H   0  0  0  0  0  0  0  0  0  0  0  0
    3.3254    3.4009   -4.5176 H   0  0  0  0  0  0  0  0  0  0  0  0
    5.6368    4.0616   -4.2328 H   0  0  0  0  0  0  0  0  0  0  0  0
    5.3659    3.4660   -0.0188 H   0  0  0  0  0  0  0  0  0  0  0  0
   -8.8155   -1.6288    1.2011 H   0  0  0  0  0  0  0  0  0  0  0  0
   -8.7197   -1.5524    2.8767 H   0  0  0  0  0  0  0  0  0  0  0  0
   -6.2202   -2.2390    3.0370 N   0  3  0  0  0  0  0  0  0  0  0  0
   -5.2371   -2.5189    2.9407 H   0  0  0  0  0  0  0  0  0  0  0  0
  1 49  1  0  0  0  0
  2  3  1  0  0  0  0
  2 30  1  0  0  0  0
  2 49  2  0  0  0  0
  3  8  2  0  0  0  0
  3  4  1  0  0  0  0
  4  5  2  0  0  0  0
  4 31  1  0  0  0  0
  5  6  1  0  0  0  0
  5 32  1  0  0  0  0
  6  7  2  0  0  0  0
  6 33  1  0  0  0  0
  7  8  1  0  0  0  0
  7  9  1  0  0  0  0
  8 34  1  0  0  0  0
  9 10  1  0  0  0  0
  9 35  1  0  0  0  0
  9 36  1  0  0  0  0
 10 15  1  0  0  0  0
 10 11  1  0  0  0  0
 11 12  1  0  0  0  0
 11 37  1  0  0  0  0
 11 38  1  0  0  0  0
 12 13  1  0  0  0  0
 12 39  1  0  0  0  0
 12 40  1  0  0  0  0
 13 14  1  0  0  0  0
 13 17  1  0  0  0  0
 14 15  1  0  0  0  0
 14 41  1  0  0  0  0
 14 42  1  0  0  0  0
 15 16  2  0  0  0  0
 17 18  2  0  0  0  0
 17 19  2  0  0  0  0
 17 20  1  0  0  0  0
 20 28  1  0  0  0  0
 20 21  2  0  0  0  0
 21 22  1  0  0  0  0
 21 43  1  0  0  0  0
 22 27  2  0  0  0  0
 22 23  1  0  0  0  0
 23 24  2  0  0  0  0
 23 44  1  0  0  0  0
 24 25  1  0  0  0  0
 24 45  1  0  0  0  0
 25 26  2  0  0  0  0
 25 29  1  0  0  0  0
 26 27  1  0  0  0  0
 26 46  1  0  0  0  0
 27 28  1  0  0  0  0
 30 47  1  0  0  0  0
 30 48  1  0  0  0  0
 49 50  1  0  0  0  0
M  CHG  1  49   1
M  END
$$$$
ZINC02047778
  -OEChem-08230709403D

 55 58  0     0  0  0  0  0  0999 V2000
    5.8852   -0.8468   -2.7737 H   0  0  0  0  0  0  0  0  0  0  0  0
    4.0511   -1.1180   -3.6143 C   0  0  0  0  0  0  0  0  0  0  0  0
    2.6008   -1.0865   -3.3159 C   0  0  0  0  0  0  0  0  0  0  0  0
    1.6779   -1.4779   -4.2857 C   0  0  0  0  0  0  0  0  0  0  0  0
    0.3281   -1.4468   -4.0016 C   0  0  0  0  0  0  0  0  0  0  0  0
   -0.1103   -1.0339   -2.7559 C   0  0  0  0  0  0  0  0  0  0  0  0
    0.7999   -0.6392   -1.7920 C   0  0  0  0  0  0  0  0  0  0  0  0
    2.1526   -0.6659   -2.0643 C   0  0  0  0  0  0  0  0  0  0  0  0
    0.3138   -0.1849   -0.4399 C   0  0  0  0  0  0  0  0  0  0  0  0
   -0.0939    1.2202   -0.5143 N   0  0  0  0  0  0  0  0  0  0  0  0
    0.7366    2.3041   -0.3543 C   0  0  0  0  0  0  0  0  0  0  0  0
    2.0987    2.4306   -0.0943 C   0  0  0  0  0  0  0  0  0  0  0  0
    2.6611    3.6824    0.0153 C   0  0  0  0  0  0  0  0  0  0  0  0
    1.8826    4.8239   -0.1309 C   0  0  0  0  0  0  0  0  0  0  0  0
    0.5459    4.7255   -0.3860 C   0  0  0  0  0  0  0  0  0  0  0  0
   -0.0503    3.4629   -0.5021 C   0  0  0  0  0  0  0  0  0  0  0  0
   -1.3753    3.0326   -0.7551 C   0  0  0  0  0  0  0  0  0  0  0  0
   -1.3748    1.6740   -0.7626 C   0  0  0  0  0  0  0  0  0  0  0  0
   -2.5509    0.8223   -0.9950 C   0  0  0  0  0  0  0  0  0  0  0  0
   -3.6615    1.3169   -1.0361 O   0  0  0  0  0  0  0  0  0  0  0  0
   -2.3983   -0.5063   -1.1623 N   0  0  0  0  0  0  0  0  0  0  0  0
   -3.5659   -1.3497   -1.4297 C   0  0  0  0  0  0  0  0  0  0  0  0
   -3.1480   -2.7976   -1.4394 C   0  0  0  0  0  0  0  0  0  0  0  0
   -2.6640   -3.3692   -2.6012 C   0  0  0  0  0  0  0  0  0  0  0  0
   -2.2749   -4.6969   -2.6093 C   0  0  0  0  0  0  0  0  0  0  0  0
   -2.3804   -5.4553   -1.4572 C   0  0  0  0  0  0  0  0  0  0  0  0
   -2.8700   -4.8843   -0.2964 C   0  0  0  0  0  0  0  0  0  0  0  0
   -3.2540   -3.5551   -0.2880 C   0  0  0  0  0  0  0  0  0  0  0  0
   -3.0022   -5.8352    1.1501 Cl  0  0  0  0  0  0  0  0  0  0  0  0
   -1.6605   -5.4126   -4.0667 Cl  0  0  0  0  0  0  0  0  0  0  0  0
   -0.2873    5.9715   -0.5419 C   0  0  0  0  0  0  0  0  0  0  0  0
    4.4866   -1.4286   -4.8839 N   0  0  0  0  0  0  0  0  0  0  0  0
    2.0190   -1.8049   -5.2567 H   0  0  0  0  0  0  0  0  0  0  0  0
   -0.3876   -1.7493   -4.7517 H   0  0  0  0  0  0  0  0  0  0  0  0
   -1.1676   -1.0155   -2.5367 H   0  0  0  0  0  0  0  0  0  0  0  0
    2.8626   -0.3613   -1.3096 H   0  0  0  0  0  0  0  0  0  0  0  0
    1.1165   -0.2923    0.2897 H   0  0  0  0  0  0  0  0  0  0  0  0
   -0.5373   -0.7946   -0.1361 H   0  0  0  0  0  0  0  0  0  0  0  0
    2.7121    1.5493    0.0212 H   0  0  0  0  0  0  0  0  0  0  0  0
    3.7178    3.7780    0.2169 H   0  0  0  0  0  0  0  0  0  0  0  0
    2.3399    5.7982   -0.0422 H   0  0  0  0  0  0  0  0  0  0  0  0
   -2.2319    3.6702   -0.9170 H   0  0  0  0  0  0  0  0  0  0  0  0
   -1.5153   -0.9040   -1.1059 H   0  0  0  0  0  0  0  0  0  0  0  0
   -4.3133   -1.1926   -0.6520 H   0  0  0  0  0  0  0  0  0  0  0  0
   -3.9894   -1.0874   -2.3991 H   0  0  0  0  0  0  0  0  0  0  0  0
   -2.5856   -2.7780   -3.5016 H   0  0  0  0  0  0  0  0  0  0  0  0
   -2.0808   -6.4930   -1.4643 H   0  0  0  0  0  0  0  0  0  0  0  0
   -3.6363   -3.1091    0.6182 H   0  0  0  0  0  0  0  0  0  0  0  0
   -0.6803    6.2698    0.4301 H   0  0  0  0  0  0  0  0  0  0  0  0
    0.3306    6.7735   -0.9456 H   0  0  0  0  0  0  0  0  0  0  0  0
   -1.1148    5.7724   -1.2228 H   0  0  0  0  0  0  0  0  0  0  0  0
    3.8433   -1.6268   -5.5825 H   0  0  0  0  0  0  0  0  0  0  0  0
    5.4364   -1.4492   -5.0794 H   0  0  0  0  0  0  0  0  0  0  0  0
    4.8771   -0.8383   -2.6181 N   0  3  0  0  0  0  0  0  0  0  0  0
    4.5030   -0.6127   -1.6889 H   0  0  0  0  0  0  0  0  0  0  0  0
  1 54  1  0  0  0  0
  2  3  1  0  0  0  0
  2 32  1  0  0  0  0
  2 54  2  0  0  0  0
  3  8  2  0  0  0  0
  3  4  1  0  0  0  0
  4  5  2  0  0  0  0
  4 33  1  0  0  0  0
  5  6  1  0  0  0  0
  5 34  1  0  0  0  0
  6  7  2  0  0  0  0
  6 35  1  0  0  0  0
  7  8  1  0  0  0  0
  7  9  1  0  0  0  0
  8 36  1  0  0  0  0
  9 10  1  0  0  0  0
  9 37  1  0  0  0  0
  9 38  1  0  0  0  0
 10 18  1  0  0  0  0
 10 11  1  0  0  0  0
 11 16  2  0  0  0  0
 11 12  1  0  0  0  0
 12 13  2  0  0  0  0
 12 39  1  0  0  0  0
 13 14  1  0  0  0  0
 13 40  1  0  0  0  0
 14 15  2  0  0  0  0
 14 41  1  0  0  0  0
 15 16  1  0  0  0  0
 15 31  1  0  0  0  0
 16 17  1  0  0  0  0
 17 18  2  0  0  0  0
 17 42  1  0  0  0  0
 18 19  1  0  0  0  0
 19 20  2  0  0  0  0
 19 21  1  0  0  0  0
 21 22  1  0  0  0  0
 21 43  1  0  0  0  0
 22 23  1  0  0  0  0
 22 44  1  0  0  0  0
 22 45  1  0  0  0  0
 23 28  2  0  0  0  0
 23 24  1  0  0  0  0
 24 25  2  0  0  0  0
 24 46  1  0  0  0  0
 25 26  1  0  0  0  0
 25 30  1  0  0  0  0
 26 27  2  0  0  0  0
 26 47  1  0  0  0  0
 27 28  1  0  0  0  0
 27 29  1  0  0  0  0
 28 48  1  0  0  0  0
 31 49  1  0  0  0  0
 31 50  1  0  0  0  0
 31 51  1  0  0  0  0
 32 52  1  0  0  0  0
 32 53  1  0  0  0  0
 54 55  1  0  0  0  0
M  CHG  1  54   1
M  END
$$$$
ZINC02047781
  -OEChem-08230709403D

 57 60  0     0  0  0  0  0  0999 V2000
   -7.9467    0.3114    5.9634 H   0  0  0  0  0  0  0  0  0  0  0  0
   -6.1543   -0.0908    6.8408 C   0  0  0  0  0  0  0  0  0  0  0  0
   -4.7363   -0.3945    6.5409 C   0  0  0  0  0  0  0  0  0  0  0  0
   -3.8546   -0.7119    7.5739 C   0  0  0  0  0  0  0  0  0  0  0  0
   -2.5347   -0.9944    7.2882 C   0  0  0  0  0  0  0  0  0  0  0  0
   -2.0865   -0.9688    5.9794 C   0  0  0  0  0  0  0  0  0  0  0  0
   -2.9547   -0.6491    4.9512 C   0  0  0  0  0  0  0  0  0  0  0  0
   -4.2773   -0.3647    5.2246 C   0  0  0  0  0  0  0  0  0  0  0  0
   -2.4571   -0.6174    3.5292 C   0  0  0  0  0  0  0  0  0  0  0  0
   -1.8664    0.6934    3.2477 N   0  0  0  0  0  0  0  0  0  0  0  0
   -0.5741    1.0665    3.5314 C   0  0  0  0  0  0  0  0  0  0  0  0
    0.5014    0.4049    4.1182 C   0  0  0  0  0  0  0  0  0  0  0  0
    1.7059    1.0547    4.2670 C   0  0  0  0  0  0  0  0  0  0  0  0
    1.8595    2.3684    3.8415 C   0  0  0  0  0  0  0  0  0  0  0  0
    0.8189    3.0393    3.2684 C   0  0  0  0  0  0  0  0  0  0  0  0
   -0.4175    2.4002    3.1060 C   0  0  0  0  0  0  0  0  0  0  0  0
   -1.6592    2.8093    2.5635 C   0  0  0  0  0  0  0  0  0  0  0  0
   -2.5163    1.7577    2.6525 C   0  0  0  0  0  0  0  0  0  0  0  0
   -3.9138    1.7572    2.2000 C   0  0  0  0  0  0  0  0  0  0  0  0
   -4.6195    0.7893    2.4074 O   0  0  0  0  0  0  0  0  0  0  0  0
   -4.4139    2.8303    1.5545 O   0  0  0  0  0  0  0  0  0  0  0  0
   -5.8305    2.8073    1.2366 C   0  0  0  0  0  0  0  0  0  0  0  0
   -6.2313    4.1283    0.6323 C   0  0  0  0  0  0  0  0  0  0  0  0
   -6.2616    4.2777   -0.7428 C   0  0  0  0  0  0  0  0  0  0  0  0
   -6.6293    5.4868   -1.3049 C   0  0  0  0  0  0  0  0  0  0  0  0
   -6.9679    6.5525   -0.4959 C   0  0  0  0  0  0  0  0  0  0  0  0
   -6.9388    6.4083    0.8907 C   0  0  0  0  0  0  0  0  0  0  0  0
   -6.5727    5.1848    1.4515 C   0  0  0  0  0  0  0  0  0  0  0  0
   -7.3009    7.5478    1.7644 C   0  0  0  0  0  0  0  0  0  0  0  0
   -7.4927    8.0980    3.7150 H   0  0  0  0  0  0  0  0  0  0  0  0
   -7.6676    8.7536    1.2074 N   0  0  0  0  0  0  0  0  0  0  0  0
   -6.5813   -0.0171    8.1488 N   0  0  0  0  0  0  0  0  0  0  0  0
   -4.2044   -0.7369    8.5954 H   0  0  0  0  0  0  0  0  0  0  0  0
   -1.8509   -1.2400    8.0872 H   0  0  0  0  0  0  0  0  0  0  0  0
   -1.0534   -1.1949    5.7601 H   0  0  0  0  0  0  0  0  0  0  0  0
   -4.9554   -0.1192    4.4205 H   0  0  0  0  0  0  0  0  0  0  0  0
   -3.2900   -0.7943    2.8487 H   0  0  0  0  0  0  0  0  0  0  0  0
   -1.7037   -1.3928    3.3906 H   0  0  0  0  0  0  0  0  0  0  0  0
    0.3923   -0.6165    4.4516 H   0  0  0  0  0  0  0  0  0  0  0  0
    2.5399    0.5381    4.7188 H   0  0  0  0  0  0  0  0  0  0  0  0
    2.8116    2.8630    3.9651 H   0  0  0  0  0  0  0  0  0  0  0  0
    0.9478    4.0601    2.9403 H   0  0  0  0  0  0  0  0  0  0  0  0
   -1.8820    3.7788    2.1427 H   0  0  0  0  0  0  0  0  0  0  0  0
   -6.0301    2.0066    0.5245 H   0  0  0  0  0  0  0  0  0  0  0  0
   -6.4045    2.6352    2.1471 H   0  0  0  0  0  0  0  0  0  0  0  0
   -5.9975    3.4467   -1.3800 H   0  0  0  0  0  0  0  0  0  0  0  0
   -6.6519    5.5972   -2.3790 H   0  0  0  0  0  0  0  0  0  0  0  0
   -7.2552    7.4961   -0.9359 H   0  0  0  0  0  0  0  0  0  0  0  0
   -6.5529    5.0656    2.5247 H   0  0  0  0  0  0  0  0  0  0  0  0
   -7.6885    8.8559    0.2431 H   0  0  0  0  0  0  0  0  0  0  0  0
   -7.9048    9.5000    1.7798 H   0  0  0  0  0  0  0  0  0  0  0  0
   -5.9531   -0.1641    8.8731 H   0  0  0  0  0  0  0  0  0  0  0  0
   -7.5102    0.1819    8.3452 H   0  0  0  0  0  0  0  0  0  0  0  0
   -6.9610    0.0996    5.8083 N   0  3  0  0  0  0  0  0  0  0  0  0
   -6.5944    0.0339    4.8514 H   0  0  0  0  0  0  0  0  0  0  0  0
   -7.2524    7.3437    3.0717 N   0  3  0  0  0  0  0  0  0  0  0  0
   -6.9728    6.4261    3.4380 H   0  0  0  0  0  0  0  0  0  0  0  0
  1 54  1  0  0  0  0
  2  3  1  0  0  0  0
  2 32  1  0  0  0  0
  2 54  2  0  0  0  0
  3  8  2  0  0  0  0
  3  4  1  0  0  0  0
  4  5  2  0  0  0  0
  4 33  1  0  0  0  0
  5  6  1  0  0  0  0
  5 34  1  0  0  0  0
  6  7  2  0  0  0  0
  6 35  1  0  0  0  0
  7  8  1  0  0  0  0
  7  9  1  0  0  0  0
  8 36  1  0  0  0  0
  9 10  1  0  0  0  0
  9 37  1  0  0  0  0
  9 38  1  0  0  0  0
 10 18  1  0  0  0  0
 10 11  1  0  0  0  0
 11 16  2  0  0  0  0
 11 12  1  0  0  0  0
 12 13  2  0  0  0  0
 12 39  1  0  0  0  0
 13 14  1  0  0  0  0
 13 40  1  0  0  0  0
 14 15  2  0  0  0  0
 14 41  1  0  0  0  0
 15 16  1  0  0  0  0
 15 42  1  0  0  0  0
 16 17  1  0  0  0  0
 17 18  2  0  0  0  0
 17 43  1  0  0  0  0
 18 19  1  0  0  0  0
 19 20  2  0  0  0  0
 19 21  1  0  0  0  0
 21 22  1  0  0  0  0
 22 23  1  0  0  0  0
 22 44  1  0  0  0  0
 22 45  1  0  0  0  0
 23 28  2  0  0  0  0
 23 24  1  0  0  0  0
 24 25  2  0  0  0  0
 24 46  1  0  0  0  0
 25 26  1  0  0  0  0
 25 47  1  0  0  0  0
 26 27  2  0  0  0  0
 26 48  1  0  0  0  0
 27 28  1  0  0  0  0
 27 29  1  0  0  0  0
 28 49  1  0  0  0  0
 29 31  1  0  0  0  0
 29 56  2  0  0  0  0
 30 56  1  0  0  0  0
 31 50  1  0  0  0  0
 31 51  1  0  0  0  0
 32 52  1  0  0  0  0
 32 53  1  0  0  0  0
 54 55  1  0  0  0  0
 56 57  1  0  0  0  0
M  CHG  2  54   1  56   1
M  END
$$$$
ZINC02047844
  -OEChem-08230709403D

 74 78  0     1  0  0  0  0  0999 V2000
    5.7565    1.7407   -0.0440 H   0  0  0  0  0  0  0  0  0  0  0  0
    3.8205    2.3698   -0.0216 C   0  0  0  0  0  0  0  0  0  0  0  0
    2.4223    1.8824   -0.0108 C   0  0  0  0  0  0  0  0  0  0  0  0
    1.3641    2.7909    0.0042 C   0  0  0  0  0  0  0  0  0  0  0  0
    0.0634    2.3307    0.0143 C   0  0  0  0  0  0  0  0  0  0  0  0
   -0.1922    0.9708    0.0095 C   0  0  0  0  0  0  0  0  0  0  0  0
    0.8530    0.0650   -0.0059 C   0  0  0  0  0  0  0  0  0  0  0  0
    2.1582    0.5132   -0.0160 C   0  0  0  0  0  0  0  0  0  0  0  0
    0.5657   -1.4144   -0.0120 C   0  0  0  0  0  0  0  0  0  0  0  0
    0.4549   -1.9064   -1.4565 C   0  0  2  0  0  0  0  0  0  0  0  0
   -0.2937   -1.3161   -1.9850 H   0  0  0  0  0  0  0  0  0  0  0  0
    0.0471   -3.3571   -1.4631 C   0  0  0  0  0  0  0  0  0  0  0  0
    0.7684   -4.1874   -1.9741 O   0  0  0  0  0  0  0  0  0  0  0  0
   -1.1191   -3.7319   -0.9011 N   0  0  0  0  0  0  0  0  0  0  0  0
   -1.5156   -5.1422   -0.9075 C   0  0  0  0  0  0  0  0  0  0  0  0
   -2.8695   -5.2946   -0.2115 C   0  0  0  0  0  0  0  0  0  0  0  0
   -3.2773   -6.7454   -0.2181 C   0  0  0  0  0  0  0  0  0  0  0  0
   -4.0258   -7.2482   -1.2659 C   0  0  0  0  0  0  0  0  0  0  0  0
   -4.3957   -8.5801   -1.2744 C   0  0  0  0  0  0  0  0  0  0  0  0
   -4.0257   -9.4068   -0.2301 C   0  0  0  0  0  0  0  0  0  0  0  0
   -3.2821   -8.9027    0.8205 C   0  0  0  0  0  0  0  0  0  0  0  0
   -2.9077   -7.5721    0.8264 C   0  0  0  0  0  0  0  0  0  0  0  0
    1.7513   -1.7605   -2.1229 N   0  0  0  0  0  0  0  0  0  0  0  0
    2.0910   -0.5841   -2.6860 C   0  0  0  0  0  0  0  0  0  0  0  0
    1.3214    0.3562   -2.6409 O   0  0  0  0  0  0  0  0  0  0  0  0
    3.2836   -0.4498   -3.2991 N   0  0  0  0  0  0  0  0  0  0  0  0
    3.6528    0.8289   -3.9112 C   0  0  0  0  0  0  0  0  0  0  0  0
    3.0814    0.8998   -5.3288 C   0  0  0  0  0  0  0  0  0  0  0  0
    3.4669    2.2352   -5.9680 C   0  0  0  0  0  0  0  0  0  0  0  0
    4.9914    2.3514   -6.0263 C   0  0  0  0  0  0  0  0  0  0  0  0
    5.5588    1.2030   -6.8629 C   0  0  0  0  0  0  0  0  0  0  0  0
    5.1732   -0.1325   -6.2237 C   0  0  0  0  0  0  0  0  0  0  0  0
    3.6487   -0.2488   -6.1653 C   0  0  0  0  0  0  0  0  0  0  0  0
    5.7447   -0.2033   -4.8062 C   0  0  0  0  0  0  0  0  0  0  0  0
    5.1773    0.9452   -3.9695 C   0  0  0  0  0  0  0  0  0  0  0  0
    5.5628    2.2807   -4.6089 C   0  0  0  0  0  0  0  0  0  0  0  0
    4.0783    3.7233   -0.0164 N   0  0  0  0  0  0  0  0  0  0  0  0
    1.5624    3.8526    0.0076 H   0  0  0  0  0  0  0  0  0  0  0  0
   -0.7567    3.0332    0.0214 H   0  0  0  0  0  0  0  0  0  0  0  0
   -1.2120    0.6153    0.0174 H   0  0  0  0  0  0  0  0  0  0  0  0
    2.9734   -0.1951   -0.0276 H   0  0  0  0  0  0  0  0  0  0  0  0
    1.3750   -1.9437    0.4911 H   0  0  0  0  0  0  0  0  0  0  0  0
   -0.3723   -1.6046    0.5097 H   0  0  0  0  0  0  0  0  0  0  0  0
   -1.6960   -3.0678   -0.4923 H   0  0  0  0  0  0  0  0  0  0  0  0
   -1.5945   -5.4927   -1.9365 H   0  0  0  0  0  0  0  0  0  0  0  0
   -0.7669   -5.7326   -0.3791 H   0  0  0  0  0  0  0  0  0  0  0  0
   -2.7906   -4.9441    0.8175 H   0  0  0  0  0  0  0  0  0  0  0  0
   -3.6182   -4.7044   -0.7399 H   0  0  0  0  0  0  0  0  0  0  0  0
   -4.3183   -6.6013   -2.0798 H   0  0  0  0  0  0  0  0  0  0  0  0
   -4.9769   -8.9739   -2.0950 H   0  0  0  0  0  0  0  0  0  0  0  0
   -4.3179  -10.4466   -0.2348 H   0  0  0  0  0  0  0  0  0  0  0  0
   -2.9934   -9.5485    1.6366 H   0  0  0  0  0  0  0  0  0  0  0  0
   -2.3268   -7.1782    1.6472 H   0  0  0  0  0  0  0  0  0  0  0  0
    2.3653   -2.5106   -2.1589 H   0  0  0  0  0  0  0  0  0  0  0  0
    3.8977   -1.1999   -3.3351 H   0  0  0  0  0  0  0  0  0  0  0  0
    3.2486    1.6471   -3.3152 H   0  0  0  0  0  0  0  0  0  0  0  0
    1.9953    0.8169   -5.2872 H   0  0  0  0  0  0  0  0  0  0  0  0
    3.0597    2.2856   -6.9779 H   0  0  0  0  0  0  0  0  0  0  0  0
    3.0626    3.0535   -5.3719 H   0  0  0  0  0  0  0  0  0  0  0  0
    5.2661    3.3030   -6.4817 H   0  0  0  0  0  0  0  0  0  0  0  0
    6.6448    1.2858   -6.9045 H   0  0  0  0  0  0  0  0  0  0  0  0
    5.1517    1.2533   -7.8727 H   0  0  0  0  0  0  0  0  0  0  0  0
    5.5775   -0.9507   -6.8196 H   0  0  0  0  0  0  0  0  0  0  0  0
    3.2416   -0.1984   -7.1752 H   0  0  0  0  0  0  0  0  0  0  0  0
    3.3741   -1.2002   -5.7098 H   0  0  0  0  0  0  0  0  0  0  0  0
    6.8307   -0.1205   -4.8477 H   0  0  0  0  0  0  0  0  0  0  0  0
    5.4700   -1.1548   -4.3507 H   0  0  0  0  0  0  0  0  0  0  0  0
    5.5844    0.8948   -2.9598 H   0  0  0  0  0  0  0  0  0  0  0  0
    5.1586    3.0989   -4.0128 H   0  0  0  0  0  0  0  0  0  0  0  0
    6.6489    2.3635   -4.6503 H   0  0  0  0  0  0  0  0  0  0  0  0
    3.3438    4.3568   -0.0057 H   0  0  0  0  0  0  0  0  0  0  0  0
    4.9943    4.0425   -0.0235 H   0  0  0  0  0  0  0  0  0  0  0  0
    4.7773    1.4547   -0.0361 N   0  3  0  0  0  0  0  0  0  0  0  0
    4.5337    0.4573   -0.0395 H   0  0  0  0  0  0  0  0  0  0  0  0
  1 73  1  0  0  0  0
  2  3  1  0  0  0  0
  2 37  1  0  0  0  0
  2 73  2  0  0  0  0
  3  8  2  0  0  0  0
  3  4  1  0  0  0  0
  4  5  2  0  0  0  0
  4 38  1  0  0  0  0
  5  6  1  0  0  0  0
  5 39  1  0  0  0  0
  6  7  2  0  0  0  0
  6 40  1  0  0  0  0
  7  8  1  0  0  0  0
  7  9  1  0  0  0  0
  8 41  1  0  0  0  0
  9 10  1  0  0  0  0
  9 42  1  0  0  0  0
  9 43  1  0  0  0  0
 10 11  1  0  0  0  0
 10 12  1  0  0  0  0
 10 23  1  0  0  0  0
 12 13  2  0  0  0  0
 12 14  1  0  0  0  0
 14 15  1  0  0  0  0
 14 44  1  0  0  0  0
 15 16  1  0  0  0  0
 15 45  1  0  0  0  0
 15 46  1  0  0  0  0
 16 17  1  0  0  0  0
 16 47  1  0  0  0  0
 16 48  1  0  0  0  0
 17 22  2  0  0  0  0
 17 18  1  0  0  0  0
 18 19  2  0  0  0  0
 18 49  1  0  0  0  0
 19 20  1  0  0  0  0
 19 50  1  0  0  0  0
 20 21  2  0  0  0  0
 20 51  1  0  0  0  0
 21 22  1  0  0  0  0
 21 52  1  0  0  0  0
 22 53  1  0  0  0  0
 23 24  1  0  0  0  0
 23 54  1  0  0  0  0
 24 25  2  0  0  0  0
 24 26  1  0  0  0  0
 26 27  1  0  0  0  0
 26 55  1  0  0  0  0
 27 35  1  0  0  0  0
 27 28  1  0  0  0  0
 27 56  1  0  0  0  0
 28 33  1  0  0  0  0
 28 29  1  0  0  0  0
 28 57  1  0  0  0  0
 29 30  1  0  0  0  0
 29 58  1  0  0  0  0
 29 59  1  0  0  0  0
 30 36  1  0  0  0  0
 30 31  1  0  0  0  0
 30 60  1  0  0  0  0
 31 32  1  0  0  0  0
 31 61  1  0  0  0  0
 31 62  1  0  0  0  0
 32 33  1  0  0  0  0
 32 34  1  0  0  0  0
 32 63  1  0  0  0  0
 33 64  1  0  0  0  0
 33 65  1  0  0  0  0
 34 35  1  0  0  0  0
 34 66  1  0  0  0  0
 34 67  1  0  0  0  0
 35 36  1  0  0  0  0
 35 68  1  0  0  0  0
 36 69  1  0  0  0  0
 36 70  1  0  0  0  0
 37 71  1  0  0  0  0
 37 72  1  0  0  0  0
 73 74  1  0  0  0  0
M  CHG  1  73   1
M  END
$$$$
ZINC03791107
  -OEChem-08230709403D

 62 65  0     1  0  0  0  0  0999 V2000
   -5.0940    5.9928   -0.1468 C   0  0  0  0  0  0  0  0  0  0  0  0
   -5.1629    5.2111    1.1398 C   0  0  0  0  0  0  0  0  0  0  0  0
   -6.8225    6.1036    1.8878 H   0  0  0  0  0  0  0  0  0  0  0  0
   -4.2222    4.2525    1.4101 N   0  0  0  0  0  0  0  0  0  0  0  0
   -3.0946    3.8842    0.5348 C   0  0  0  0  0  0  0  0  0  0  0  0
   -2.7351    2.4275    0.9390 C   0  0  0  0  0  0  0  0  0  0  0  0
   -2.9628    2.4709    2.4731 C   0  0  1  0  0  0  0  0  0  0  0  0
   -2.0884    2.8773    2.9814 H   0  0  0  0  0  0  0  0  0  0  0  0
   -4.1706    3.4199    2.6209 C   0  0  0  0  0  0  0  0  0  0  0  0
   -3.2776    1.1702    2.9744 O   0  0  0  0  0  0  0  0  0  0  0  0
   -2.2551    0.4498    3.5061 C   0  0  0  0  0  0  0  0  0  0  0  0
   -2.5091   -0.7673    4.1213 C   0  0  0  0  0  0  0  0  0  0  0  0
   -1.4673   -1.5006    4.6556 C   0  0  0  0  0  0  0  0  0  0  0  0
   -0.1739   -1.0166    4.5882 C   0  0  0  0  0  0  0  0  0  0  0  0
    0.0812    0.1988    3.9805 C   0  0  0  0  0  0  0  0  0  0  0  0
   -0.9564    0.9330    3.4393 C   0  0  0  0  0  0  0  0  0  0  0  0
    0.9599   -1.8155    5.1777 C   0  0  2  0  0  0  0  0  0  0  0  0
    1.8974   -1.2793    5.0301 H   0  0  0  0  0  0  0  0  0  0  0  0
    1.0374   -3.1780    4.4861 C   0  0  0  0  0  0  0  0  0  0  0  0
    2.2441   -3.9283    4.9880 C   0  0  0  0  0  0  0  0  0  0  0  0
    3.4637   -3.7873    4.3284 C   0  0  0  0  0  0  0  0  0  0  0  0
    4.5740   -4.4469    4.7588 C   0  0  0  0  0  0  0  0  0  0  0  0
    4.4920   -5.2921    5.8781 C   0  0  0  0  0  0  0  0  0  0  0  0
    5.6203   -5.9910    6.3441 C   0  0  0  0  0  0  0  0  0  0  0  0
    5.5167   -6.8018    7.4281 C   0  0  0  0  0  0  0  0  0  0  0  0
    4.2909   -6.9566    8.0981 C   0  0  0  0  0  0  0  0  0  0  0  0
    3.1632   -6.2825    7.6648 C   0  0  0  0  0  0  0  0  0  0  0  0
    3.2500   -5.4399    6.5461 C   0  0  0  0  0  0  0  0  0  0  0  0
    2.1259   -4.7380    6.0754 C   0  0  0  0  0  0  0  0  0  0  0  0
    4.2060   -7.8478    9.2769 C   0  0  0  0  0  0  0  0  0  0  0  0
    2.9162   -8.5565   10.6840 H   0  0  0  0  0  0  0  0  0  0  0  0
    5.3260   -8.5218    9.7133 N   0  0  0  0  0  0  0  0  0  0  0  0
    0.7213   -2.0136    6.6524 C   0  0  0  0  0  0  0  0  0  0  0  0
   -0.2680   -1.5533    7.1715 O   0  0  0  0  0  0  0  0  0  0  0  0
   -4.2355    5.6588   -0.7293 H   0  0  0  0  0  0  0  0  0  0  0  0
   -6.0071    5.8309   -0.7197 H   0  0  0  0  0  0  0  0  0  0  0  0
   -4.9896    7.0542    0.0782 H   0  0  0  0  0  0  0  0  0  0  0  0
   -3.3980    3.9234   -0.5114 H   0  0  0  0  0  0  0  0  0  0  0  0
   -2.2473    4.5476    0.7083 H   0  0  0  0  0  0  0  0  0  0  0  0
   -1.6954    2.1989    0.7046 H   0  0  0  0  0  0  0  0  0  0  0  0
   -3.4073    1.7128    0.4642 H   0  0  0  0  0  0  0  0  0  0  0  0
   -5.0890    2.8399    2.7113 H   0  0  0  0  0  0  0  0  0  0  0  0
   -4.0405    4.0515    3.4997 H   0  0  0  0  0  0  0  0  0  0  0  0
   -3.5198   -1.1436    4.1785 H   0  0  0  0  0  0  0  0  0  0  0  0
   -1.6640   -2.4504    5.1307 H   0  0  0  0  0  0  0  0  0  0  0  0
    1.0924    0.5744    3.9285 H   0  0  0  0  0  0  0  0  0  0  0  0
   -0.7567    1.8826    2.9651 H   0  0  0  0  0  0  0  0  0  0  0  0
    0.1361   -3.7497    4.7076 H   0  0  0  0  0  0  0  0  0  0  0  0
    1.1209   -3.0345    3.4088 H   0  0  0  0  0  0  0  0  0  0  0  0
    3.5298   -3.1419    3.4650 H   0  0  0  0  0  0  0  0  0  0  0  0
    5.5130   -4.3241    4.2395 H   0  0  0  0  0  0  0  0  0  0  0  0
    6.5692   -5.8823    5.8397 H   0  0  0  0  0  0  0  0  0  0  0  0
    6.3875   -7.3351    7.7799 H   0  0  0  0  0  0  0  0  0  0  0  0
    2.2236   -6.4040    8.1832 H   0  0  0  0  0  0  0  0  0  0  0  0
    1.1737   -4.8407    6.5746 H   0  0  0  0  0  0  0  0  0  0  0  0
    6.1699   -8.4121    9.2480 H   0  0  0  0  0  0  0  0  0  0  0  0
    5.2703   -9.1058   10.4858 H   0  0  0  0  0  0  0  0  0  0  0  0
   -6.0995    5.4010    2.0429 N   0  3  0  0  0  0  0  0  0  0  0  0
   -6.1030    4.8422    2.9042 H   0  0  0  0  0  0  0  0  0  0  0  0
    3.0255   -7.9545    9.8677 N   0  3  0  0  0  0  0  0  0  0  0  0
    2.2203   -7.4314    9.5042 H   0  0  0  0  0  0  0  0  0  0  0  0
    1.6076   -2.7013    7.3893 O   0  5  0  0  0  0  0  0  0  0  0  0
  1  2  1  0  0  0  0
  1 35  1  0  0  0  0
  1 36  1  0  0  0  0
  1 37  1  0  0  0  0
  2  4  1  0  0  0  0
  2 58  2  0  0  0  0
  3 58  1  0  0  0  0
  4  9  1  0  0  0  0
  4  5  1  0  0  0  0
  5  6  1  0  0  0  0
  5 38  1  0  0  0  0
  5 39  1  0  0  0  0
  6  7  1  0  0  0  0
  6 40  1  0  0  0  0
  6 41  1  0  0  0  0
  7  8  1  0  0  0  0
  7  9  1  0  0  0  0
  7 10  1  0  0  0  0
  9 42  1  0  0  0  0
  9 43  1  0  0  0  0
 10 11  1  0  0  0  0
 11 16  2  0  0  0  0
 11 12  1  0  0  0  0
 12 13  2  0  0  0  0
 12 44  1  0  0  0  0
 13 14  1  0  0  0  0
 13 45  1  0  0  0  0
 14 15  2  0  0  0  0
 14 17  1  0  0  0  0
 15 16  1  0  0  0  0
 15 46  1  0  0  0  0
 16 47  1  0  0  0  0
 17 18  1  0  0  0  0
 17 19  1  0  0  0  0
 17 33  1  0  0  0  0
 19 20  1  0  0  0  0
 19 48  1  0  0  0  0
 19 49  1  0  0  0  0
 20 29  2  0  0  0  0
 20 21  1  0  0  0  0
 21 22  2  0  0  0  0
 21 50  1  0  0  0  0
 22 23  1  0  0  0  0
 22 51  1  0  0  0  0
 23 28  2  0  0  0  0
 23 24  1  0  0  0  0
 24 25  2  0  0  0  0
 24 52  1  0  0  0  0
 25 26  1  0  0  0  0
 25 53  1  0  0  0  0
 26 27  2  0  0  0  0
 26 30  1  0  0  0  0
 27 28  1  0  0  0  0
 27 54  1  0  0  0  0
 28 29  1  0  0  0  0
 29 55  1  0  0  0  0
 30 32  1  0  0  0  0
 30 60  2  0  0  0  0
 31 60  1  0  0  0  0
 32 56  1  0  0  0  0
 32 57  1  0  0  0  0
 33 34  2  0  0  0  0
 33 62  1  0  0  0  0
 58 59  1  0  0  0  0
 60 61  1  0  0  0  0
M  CHG  3  58   1  60   1  62  -1
M  END
$$$$
ZINC03815572
  -OEChem-08230709403D

 51 55  0     1  0  0  0  0  0999 V2000
   -6.0996   -4.4374   -0.2055 C   0  0  0  0  0  0  0  0  0  0  0  0
   -5.0386   -5.1671   -0.7200 C   0  0  0  0  0  0  0  0  0  0  0  0
   -4.3366   -4.6311   -1.7782 C   0  0  0  0  0  0  0  0  0  0  0  0
   -4.6734   -3.3773   -2.3350 C   0  0  0  0  0  0  0  0  0  0  0  0
   -3.8303   -2.9627   -3.4445 C   0  0  0  0  0  0  0  0  0  0  0  0
   -2.8318   -3.7644   -3.8477 C   0  0  0  0  0  0  0  0  0  0  0  0
   -2.9553   -5.1660   -2.7529 S   0  0  0  0  0  0  0  0  0  0  0  0
   -1.6788   -3.4982   -5.1532 S   0  0  0  0  0  0  0  0  0  0  0  0
   -2.2921   -2.5902   -6.0580 O   0  0  0  0  0  0  0  0  0  0  0  0
   -1.2181   -4.7807   -5.5560 O   0  0  0  0  0  0  0  0  0  0  0  0
   -0.3757   -2.7102   -4.5024 N   0  0  0  0  0  0  0  0  0  0  0  0
    0.4597   -3.3787   -3.5018 C   0  0  1  0  0  0  0  0  0  0  0  0
    0.3574   -4.4611   -3.5796 H   0  0  0  0  0  0  0  0  0  0  0  0
    1.9396   -2.9617   -3.6664 C   0  0  0  0  0  0  0  0  0  0  0  0
    2.4161   -2.9048   -2.1981 C   0  0  0  0  0  0  0  0  0  0  0  0
    1.2086   -2.6480   -1.4043 N   0  0  0  0  0  0  0  0  0  0  0  0
    0.0953   -2.9167   -2.1081 C   0  0  0  0  0  0  0  0  0  0  0  0
   -1.0366   -2.8028   -1.6877 O   0  0  0  0  0  0  0  0  0  0  0  0
    1.2158   -2.1667   -0.0206 C   0  0  0  0  0  0  0  0  0  0  0  0
    1.1969   -0.6598   -0.0129 C   0  0  0  0  0  0  0  0  0  0  0  0
    2.4006    0.0408   -0.0205 C   0  0  0  0  0  0  0  0  0  0  0  0
    2.4189    1.4036   -0.0138 C   0  0  0  0  0  0  0  0  0  0  0  0
    1.2081    2.1096    0.0019 C   0  0  0  0  0  0  0  0  0  0  0  0
    1.1608    3.5176    0.0098 C   0  0  0  0  0  0  0  0  0  0  0  0
   -0.0519    4.1338    0.0247 C   0  0  0  0  0  0  0  0  0  0  0  0
   -1.2245    2.1302    0.0193 C   0  0  0  0  0  0  0  0  0  0  0  0
   -0.0169    1.3966    0.0097 C   0  0  0  0  0  0  0  0  0  0  0  0
    0.0021   -0.0041    0.0020 C   0  0  0  0  0  0  0  0  0  0  0  0
   -2.4402    1.4681    0.0215 N   0  0  0  0  0  0  0  0  0  0  0  0
   -5.7172   -2.7240   -1.7839 N   0  0  0  0  0  0  0  0  0  0  0  0
   -6.3994   -3.2108   -0.7789 C   0  0  0  0  0  0  0  0  0  0  0  0
   -6.6792   -4.8157    0.6235 H   0  0  0  0  0  0  0  0  0  0  0  0
   -4.7705   -6.1271   -0.3041 H   0  0  0  0  0  0  0  0  0  0  0  0
   -4.0054   -2.0188   -3.9393 H   0  0  0  0  0  0  0  0  0  0  0  0
   -0.1656   -1.8060   -4.7838 H   0  0  0  0  0  0  0  0  0  0  0  0
    2.0188   -1.9834   -4.1404 H   0  0  0  0  0  0  0  0  0  0  0  0
    2.4960   -3.7119   -4.2283 H   0  0  0  0  0  0  0  0  0  0  0  0
    3.1338   -2.0953   -2.0655 H   0  0  0  0  0  0  0  0  0  0  0  0
    2.8630   -3.8557   -1.9080 H   0  0  0  0  0  0  0  0  0  0  0  0
    2.1152   -2.5214    0.4827 H   0  0  0  0  0  0  0  0  0  0  0  0
    0.3355   -2.5438    0.4998 H   0  0  0  0  0  0  0  0  0  0  0  0
    3.3332   -0.5037   -0.0323 H   0  0  0  0  0  0  0  0  0  0  0  0
    3.3589    1.9353   -0.0206 H   0  0  0  0  0  0  0  0  0  0  0  0
    2.0717    4.0978    0.0045 H   0  0  0  0  0  0  0  0  0  0  0  0
   -0.0908    5.2131    0.0308 H   0  0  0  0  0  0  0  0  0  0  0  0
   -0.9235   -0.5605    0.0082 H   0  0  0  0  0  0  0  0  0  0  0  0
   -2.4643    0.4985    0.0163 H   0  0  0  0  0  0  0  0  0  0  0  0
   -3.2679    1.9739    0.0281 H   0  0  0  0  0  0  0  0  0  0  0  0
   -7.2246   -2.6377   -0.3826 H   0  0  0  0  0  0  0  0  0  0  0  0
   -1.2626    3.4922    0.0328 N   0  3  0  0  0  0  0  0  0  0  0  0
   -2.1496    4.0092    0.0482 H   0  0  0  0  0  0  0  0  0  0  0  0
  1 31  2  0  0  0  0
  1  2  1  0  0  0  0
  1 32  1  0  0  0  0
  2  3  2  0  0  0  0
  2 33  1  0  0  0  0
  3  7  1  0  0  0  0
  3  4  1  0  0  0  0
  4  5  1  0  0  0  0
  4 30  2  0  0  0  0
  5  6  2  0  0  0  0
  5 34  1  0  0  0  0
  6  7  1  0  0  0  0
  6  8  1  0  0  0  0
  8  9  2  0  0  0  0
  8 10  2  0  0  0  0
  8 11  1  0  0  0  0
 11 12  1  0  0  0  0
 11 35  1  0  0  0  0
 12 13  1  0  0  0  0
 12 17  1  0  0  0  0
 12 14  1  0  0  0  0
 14 15  1  0  0  0  0
 14 36  1  0  0  0  0
 14 37  1  0  0  0  0
 15 16  1  0  0  0  0
 15 38  1  0  0  0  0
 15 39  1  0  0  0  0
 16 17  1  0  0  0  0
 16 19  1  0  0  0  0
 17 18  2  0  0  0  0
 19 20  1  0  0  0  0
 19 40  1  0  0  0  0
 19 41  1  0  0  0  0
 20 28  2  0  0  0  0
 20 21  1  0  0  0  0
 21 22  2  0  0  0  0
 21 42  1  0  0  0  0
 22 23  1  0  0  0  0
 22 43  1  0  0  0  0
 23 27  2  0  0  0  0
 23 24  1  0  0  0  0
 24 25  2  0  0  0  0
 24 44  1  0  0  0  0
 25 45  1  0  0  0  0
 25 50  1  0  0  0  0
 26 27  1  0  0  0  0
 26 29  1  0  0  0  0
 26 50  2  0  0  0  0
 27 28  1  0  0  0  0
 28 46  1  0  0  0  0
 29 47  1  0  0  0  0
 29 48  1  0  0  0  0
 30 31  1  0  0  0  0
 31 49  1  0  0  0  0
 50 51  1  0  0  0  0
M  CHG  1  50   1
M  END
$$$$
ZINC03815573
  -OEChem-08230709403D

 46 50  0     1  0  0  0  0  0999 V2000
   -3.5400    3.3865   -5.3395 C   0  0  0  0  0  0  0  0  0  0  0  0
   -3.4945    2.2344   -4.5692 C   0  0  0  0  0  0  0  0  0  0  0  0
   -2.6111    2.1968   -3.5118 C   0  0  0  0  0  0  0  0  0  0  0  0
   -1.7695    3.2896   -3.2068 C   0  0  0  0  0  0  0  0  0  0  0  0
   -0.9004    3.0814   -2.0600 C   0  0  0  0  0  0  0  0  0  0  0  0
   -0.9538    1.9155   -1.3968 C   0  0  0  0  0  0  0  0  0  0  0  0
   -2.1926    0.9888   -2.2830 S   0  0  0  0  0  0  0  0  0  0  0  0
   -0.0172    1.4168    0.0098 S   0  0  0  0  0  0  0  0  0  0  0  0
    0.0021   -0.0041    0.0020 O   0  0  0  0  0  0  0  0  0  0  0  0
    1.1718    2.1948    0.0027 O   0  0  0  0  0  0  0  0  0  0  0  0
   -0.8720    1.8711    1.3534 N   0  0  0  0  0  0  0  0  0  0  0  0
   -2.1742    1.2613    1.6340 C   0  0  1  0  0  0  0  0  0  0  0  0
   -2.2584    0.2967    1.1336 H   0  0  0  0  0  0  0  0  0  0  0  0
   -2.3792    1.1001    3.1581 C   0  0  0  0  0  0  0  0  0  0  0  0
   -3.1417    2.3961    3.5122 C   0  0  0  0  0  0  0  0  0  0  0  0
   -3.8209    2.8011    2.2758 N   0  0  0  0  0  0  0  0  0  0  0  0
   -3.2941    2.1833    1.2045 C   0  0  0  0  0  0  0  0  0  0  0  0
   -3.6625    2.3425    0.0600 O   0  0  0  0  0  0  0  0  0  0  0  0
   -4.9304    3.7559    2.2168 C   0  0  0  0  0  0  0  0  0  0  0  0
   -4.3850    5.1492    2.0371 C   0  0  0  0  0  0  0  0  0  0  0  0
   -4.1530    6.0215    3.0337 C   0  0  0  0  0  0  0  0  0  0  0  0
   -3.6281    7.2384    2.4214 C   0  0  0  0  0  0  0  0  0  0  0  0
   -3.2003    8.4830    2.8942 C   0  0  0  0  0  0  0  0  0  0  0  0
   -2.7645    9.4128    1.9928 C   0  0  0  0  0  0  0  0  0  0  0  0
   -2.7416    9.1550    0.6954 N   0  0  0  0  0  0  0  0  0  0  0  0
   -3.1320    8.0008    0.1946 C   0  0  0  0  0  0  0  0  0  0  0  0
   -3.5918    6.9936    1.0329 C   0  0  0  0  0  0  0  0  0  0  0  0
   -4.0587    5.7149    0.8365 N   0  0  0  0  0  0  0  0  0  0  0  0
   -4.1438    5.2792   -0.0260 H   0  0  0  0  0  0  0  0  0  0  0  0
   -1.8678    4.3770   -3.9993 N   0  0  0  0  0  0  0  0  0  0  0  0
   -2.6984    4.4379   -5.0087 C   0  0  0  0  0  0  0  0  0  0  0  0
   -4.2161    3.4634   -6.1782 H   0  0  0  0  0  0  0  0  0  0  0  0
   -4.1326    1.3916   -4.7909 H   0  0  0  0  0  0  0  0  0  0  0  0
   -0.2188    3.8574   -1.7445 H   0  0  0  0  0  0  0  0  0  0  0  0
   -0.5105    2.5410    1.9546 H   0  0  0  0  0  0  0  0  0  0  0  0
   -2.9824    0.2197    3.3796 H   0  0  0  0  0  0  0  0  0  0  0  0
   -1.4221    1.0556    3.6778 H   0  0  0  0  0  0  0  0  0  0  0  0
   -3.8721    2.2014    4.2974 H   0  0  0  0  0  0  0  0  0  0  0  0
   -2.4429    3.1702    3.8295 H   0  0  0  0  0  0  0  0  0  0  0  0
   -5.5786    3.5082    1.3762 H   0  0  0  0  0  0  0  0  0  0  0  0
   -5.5021    3.7063    3.1435 H   0  0  0  0  0  0  0  0  0  0  0  0
   -4.3210    5.8531    4.0872 H   0  0  0  0  0  0  0  0  0  0  0  0
   -3.2148    8.7051    3.9510 H   0  0  0  0  0  0  0  0  0  0  0  0
   -2.4318   10.3775    2.3466 H   0  0  0  0  0  0  0  0  0  0  0  0
   -3.0948    7.8372   -0.8723 H   0  0  0  0  0  0  0  0  0  0  0  0
   -2.7292    5.3379   -5.6049 H   0  0  0  0  0  0  0  0  0  0  0  0
  1 31  2  0  0  0  0
  1  2  1  0  0  0  0
  1 32  1  0  0  0  0
  2  3  2  0  0  0  0
  2 33  1  0  0  0  0
  3  7  1  0  0  0  0
  3  4  1  0  0  0  0
  4  5  1  0  0  0  0
  4 30  2  0  0  0  0
  5  6  2  0  0  0  0
  5 34  1  0  0  0  0
  6  7  1  0  0  0  0
  6  8  1  0  0  0  0
  8  9  2  0  0  0  0
  8 10  2  0  0  0  0
  8 11  1  0  0  0  0
 11 12  1  0  0  0  0
 11 35  1  0  0  0  0
 12 13  1  0  0  0  0
 12 17  1  0  0  0  0
 12 14  1  0  0  0  0
 14 15  1  0  0  0  0
 14 36  1  0  0  0  0
 14 37  1  0  0  0  0
 15 16  1  0  0  0  0
 15 38  1  0  0  0  0
 15 39  1  0  0  0  0
 16 17  1  0  0  0  0
 16 19  1  0  0  0  0
 17 18  2  0  0  0  0
 19 20  1  0  0  0  0
 19 40  1  0  0  0  0
 19 41  1  0  0  0  0
 20 28  1  0  0  0  0
 20 21  2  0  0  0  0
 21 22  1  0  0  0  0
 21 42  1  0  0  0  0
 22 27  2  0  0  0  0
 22 23  1  0  0  0  0
 23 24  2  0  0  0  0
 23 43  1  0  0  0  0
 24 25  1  0  0  0  0
 24 44  1  0  0  0  0
 25 26  2  0  0  0  0
 26 27  1  0  0  0  0
 26 45  1  0  0  0  0
 27 28  1  0  0  0  0
 28 29  1  0  0  0  0
 30 31  1  0  0  0  0
 31 46  1  0  0  0  0
M  END
$$$$
ZINC03815576
  -OEChem-08230709403D

 54 58  0     1  0  0  0  0  0999 V2000
   10.3692   -0.8622   -1.7725 C   0  0  0  0  0  0  0  0  0  0  0  0
   11.4027   -0.6623   -0.9120 C   0  0  0  0  0  0  0  0  0  0  0  0
   11.7739    0.6136   -0.5069 C   0  0  0  0  0  0  0  0  0  0  0  0
   11.0801    1.7084   -0.9866 C   0  0  0  0  0  0  0  0  0  0  0  0
   10.0307    1.5177   -1.8593 C   0  0  0  0  0  0  0  0  0  0  0  0
    9.6338    0.2318   -2.2863 C   0  0  0  0  0  0  0  0  0  0  0  0
    8.5073    0.2197   -3.2084 C   0  0  0  0  0  0  0  0  0  0  0  0
    7.9462    1.3807   -3.5748 C   0  0  0  0  0  0  0  0  0  0  0  0
    8.9069    2.6021   -2.7013 S   0  0  0  0  0  0  0  0  0  0  0  0
    6.5872    1.6386   -4.6663 S   0  0  0  0  0  0  0  0  0  0  0  0
    6.5290    0.5025   -5.5178 O   0  0  0  0  0  0  0  0  0  0  0  0
    6.7154    2.9615   -5.1689 O   0  0  0  0  0  0  0  0  0  0  0  0
    5.2097    1.6126   -3.7476 N   0  0  3  0  0  0  0  0  0  0  0  0
    4.4778    0.3590   -3.4992 C   0  0  0  0  0  0  0  0  0  0  0  0
    4.4820    0.0977   -1.9898 C   0  0  0  0  0  0  0  0  0  0  0  0
    4.1195    1.3038   -1.2583 N   0  0  0  0  0  0  0  0  0  0  0  0
    4.2348    2.5433   -1.7373 C   0  0  0  0  0  0  0  0  0  0  0  0
    3.9797    3.4736   -1.0022 O   0  0  0  0  0  0  0  0  0  0  0  0
    4.6672    2.8405   -3.1472 C   0  0  0  0  0  0  0  0  0  0  0  0
    3.5972    1.1448    0.1012 C   0  0  0  0  0  0  0  0  0  0  0  0
    2.1124    0.8938    0.0427 C   0  0  0  0  0  0  0  0  0  0  0  0
    1.3026    1.2886   -0.9530 C   0  0  0  0  0  0  0  0  0  0  0  0
   -0.0469    0.8403   -0.6083 C   0  0  0  0  0  0  0  0  0  0  0  0
   -1.2999    0.9326   -1.2111 C   0  0  0  0  0  0  0  0  0  0  0  0
   -2.3539    0.4056   -0.6226 N   0  0  0  0  0  0  0  0  0  0  0  0
   -2.2734   -0.2208    0.5399 C   0  0  0  0  0  0  0  0  0  0  0  0
   -1.0836   -0.3612    1.1984 C   0  0  0  0  0  0  0  0  0  0  0  0
    0.0694    0.1780    0.6317 C   0  0  0  0  0  0  0  0  0  0  0  0
    1.3895    0.2288    0.9970 N   0  0  0  0  0  0  0  0  0  0  0  0
    1.9446   -0.3431    2.2262 C   0  0  0  0  0  0  0  0  0  0  0  0
    2.3153   -1.8078    1.9851 C   0  0  0  0  0  0  0  0  0  0  0  0
    2.8569   -2.3657    3.1842 O   0  0  0  0  0  0  0  0  0  0  0  0
   13.0994    0.8313    0.5928 Cl  0  0  0  0  0  0  0  0  0  0  0  0
   10.1064   -1.8675   -2.0669 H   0  0  0  0  0  0  0  0  0  0  0  0
   11.9474   -1.5151   -0.5344 H   0  0  0  0  0  0  0  0  0  0  0  0
   11.3584    2.7059   -0.6801 H   0  0  0  0  0  0  0  0  0  0  0  0
    8.1274   -0.7152   -3.5931 H   0  0  0  0  0  0  0  0  0  0  0  0
    3.4525    0.4547   -3.8565 H   0  0  0  0  0  0  0  0  0  0  0  0
    4.9720   -0.4639   -4.0157 H   0  0  0  0  0  0  0  0  0  0  0  0
    5.4765   -0.2241   -1.6808 H   0  0  0  0  0  0  0  0  0  0  0  0
    3.7638   -0.6898   -1.7615 H   0  0  0  0  0  0  0  0  0  0  0  0
    3.8102    3.1827   -3.7274 H   0  0  0  0  0  0  0  0  0  0  0  0
    5.4346    3.6145   -3.1383 H   0  0  0  0  0  0  0  0  0  0  0  0
    3.7900    2.0526    0.6729 H   0  0  0  0  0  0  0  0  0  0  0  0
    4.0898    0.3004    0.5832 H   0  0  0  0  0  0  0  0  0  0  0  0
    1.5922    1.8330   -1.8397 H   0  0  0  0  0  0  0  0  0  0  0  0
   -1.4068    1.4360   -2.1606 H   0  0  0  0  0  0  0  0  0  0  0  0
   -3.1696   -0.6346    0.9781 H   0  0  0  0  0  0  0  0  0  0  0  0
   -1.0392   -0.8764    2.1466 H   0  0  0  0  0  0  0  0  0  0  0  0
    2.8354    0.2141    2.5162 H   0  0  0  0  0  0  0  0  0  0  0  0
    1.2028   -0.2824    3.0225 H   0  0  0  0  0  0  0  0  0  0  0  0
    1.4246   -2.3651    1.6951 H   0  0  0  0  0  0  0  0  0  0  0  0
    3.0572   -1.8685    1.1888 H   0  0  0  0  0  0  0  0  0  0  0  0
    3.1146   -3.2943    3.1045 H   0  0  0  0  0  0  0  0  0  0  0  0
  1  6  2  0  0  0  0
  1  2  1  0  0  0  0
  1 34  1  0  0  0  0
  2  3  2  0  0  0  0
  2 35  1  0  0  0  0
  3  4  1  0  0  0  0
  3 33  1  0  0  0  0
  4  5  2  0  0  0  0
  4 36  1  0  0  0  0
  5  9  1  0  0  0  0
  5  6  1  0  0  0  0
  6  7  1  0  0  0  0
  7  8  2  0  0  0  0
  7 37  1  0  0  0  0
  8  9  1  0  0  0  0
  8 10  1  0  0  0  0
 10 11  2  0  0  0  0
 10 12  2  0  0  0  0
 10 13  1  0  0  0  0
 13 19  1  0  0  0  0
 13 14  1  0  0  0  0
 14 15  1  0  0  0  0
 14 38  1  0  0  0  0
 14 39  1  0  0  0  0
 15 16  1  0  0  0  0
 15 40  1  0  0  0  0
 15 41  1  0  0  0  0
 16 17  1  0  0  0  0
 16 20  1  0  0  0  0
 17 18  2  0  0  0  0
 17 19  1  0  0  0  0
 19 42  1  0  0  0  0
 19 43  1  0  0  0  0
 20 21  1  0  0  0  0
 20 44  1  0  0  0  0
 20 45  1  0  0  0  0
 21 29  1  0  0  0  0
 21 22  2  0  0  0  0
 22 23  1  0  0  0  0
 22 46  1  0  0  0  0
 23 28  2  0  0  0  0
 23 24  1  0  0  0  0
 24 25  2  0  0  0  0
 24 47  1  0  0  0  0
 25 26  1  0  0  0  0
 26 27  2  0  0  0  0
 26 48  1  0  0  0  0
 27 28  1  0  0  0  0
 27 49  1  0  0  0  0
 28 29  1  0  0  0  0
 29 30  1  0  0  0  0
 30 31  1  0  0  0  0
 30 50  1  0  0  0  0
 30 51  1  0  0  0  0
 31 32  1  0  0  0  0
 31 52  1  0  0  0  0
 31 53  1  0  0  0  0
 32 54  1  0  0  0  0
M  END
$$$$
ZINC03815578
  -OEChem-08230709403D

 59 62  0     0  0  0  0  0  0999 V2000
    8.0466   -7.1713   -3.4216 C   0  0  0  0  0  0  0  0  0  0  0  0
    8.0812   -6.6371   -1.0597 C   0  0  0  0  0  0  0  0  0  0  0  0
    7.3039   -6.7830    0.2506 C   0  0  0  0  0  0  0  0  0  0  0  0
    5.2194   -6.7039   -0.9770 C   0  0  0  0  0  0  0  0  0  0  0  0
    5.9966   -6.5581   -2.2874 C   0  0  0  0  0  0  0  0  0  0  0  0
    5.2539   -6.1697    1.3848 C   0  0  0  0  0  0  0  0  0  0  0  0
    4.1070   -5.1936    1.3320 C   0  0  0  0  0  0  0  0  0  0  0  0
    2.8371   -5.6353    1.1374 C   0  0  0  0  0  0  0  0  0  0  0  0
    1.9021   -4.1756    1.1538 S   0  0  0  0  0  0  0  0  0  0  0  0
    3.2271   -3.0109    1.4199 C   0  0  0  0  0  0  0  0  0  0  0  0
    4.3341   -3.8462    1.4741 C   0  0  0  0  0  0  0  0  0  0  0  0
    5.9338   -3.2168    1.7164 Cl  0  0  0  0  0  0  0  0  0  0  0  0
    3.1638   -1.5536    1.5426 C   0  0  0  0  0  0  0  0  0  0  0  0
    4.1830   -0.9133    1.7239 O   0  0  0  0  0  0  0  0  0  0  0  0
    1.9771   -0.9208    1.4548 N   0  0  0  0  0  0  0  0  0  0  0  0
    1.9277    0.4704    1.4638 C   0  0  0  0  0  0  0  0  0  0  0  0
    2.7440    1.1919    2.3249 C   0  0  0  0  0  0  0  0  0  0  0  0
    2.6939    2.5710    2.3326 C   0  0  0  0  0  0  0  0  0  0  0  0
    1.8300    3.2465    1.4838 C   0  0  0  0  0  0  0  0  0  0  0  0
    1.0122    2.5465    0.6221 C   0  0  0  0  0  0  0  0  0  0  0  0
    1.0527    1.1501    0.6032 C   0  0  0  0  0  0  0  0  0  0  0  0
    0.1812    0.3952   -0.3162 C   0  0  0  0  0  0  0  0  0  0  0  0
    0.1508   -0.8194   -0.2653 O   0  0  0  0  0  0  0  0  0  0  0  0
   -0.5817    1.0514   -1.2128 N   0  0  0  0  0  0  0  0  0  0  0  0
   -1.4834    0.3437   -2.0150 C   0  0  0  0  0  0  0  0  0  0  0  0
   -1.1223   -0.8865   -2.5487 C   0  0  0  0  0  0  0  0  0  0  0  0
   -2.0161   -1.5852   -3.3364 C   0  0  0  0  0  0  0  0  0  0  0  0
   -3.2666   -1.0556   -3.6025 C   0  0  0  0  0  0  0  0  0  0  0  0
   -3.6270    0.1725   -3.0762 C   0  0  0  0  0  0  0  0  0  0  0  0
   -2.7390    0.8729   -2.2836 C   0  0  0  0  0  0  0  0  0  0  0  0
   -4.3855   -1.9336   -4.5980 Cl  0  0  0  0  0  0  0  0  0  0  0  0
    1.7787    4.9816    1.5054 Cl  0  0  0  0  0  0  0  0  0  0  0  0
    8.9773   -7.7292   -3.3175 H   0  0  0  0  0  0  0  0  0  0  0  0
    7.4458   -7.6122   -4.2170 H   0  0  0  0  0  0  0  0  0  0  0  0
    8.2707   -6.1335   -3.6681 H   0  0  0  0  0  0  0  0  0  0  0  0
    8.2568   -5.5807   -1.2627 H   0  0  0  0  0  0  0  0  0  0  0  0
    9.0366   -7.1549   -0.9754 H   0  0  0  0  0  0  0  0  0  0  0  0
    7.8684   -6.3225    1.0615 H   0  0  0  0  0  0  0  0  0  0  0  0
    7.1520   -7.8402    0.4680 H   0  0  0  0  0  0  0  0  0  0  0  0
    5.0438   -7.7604   -0.7740 H   0  0  0  0  0  0  0  0  0  0  0  0
    4.2641   -6.1858   -1.0613 H   0  0  0  0  0  0  0  0  0  0  0  0
    6.1486   -5.5008   -2.5044 H   0  0  0  0  0  0  0  0  0  0  0  0
    5.4323   -7.0183   -3.0985 H   0  0  0  0  0  0  0  0  0  0  0  0
    5.9167   -5.9073    2.2094 H   0  0  0  0  0  0  0  0  0  0  0  0
    4.8668   -7.1773    1.5363 H   0  0  0  0  0  0  0  0  0  0  0  0
    2.4932   -6.6504    1.0049 H   0  0  0  0  0  0  0  0  0  0  0  0
    1.1573   -1.4348    1.3854 H   0  0  0  0  0  0  0  0  0  0  0  0
    3.4193    0.6731    2.9892 H   0  0  0  0  0  0  0  0  0  0  0  0
    3.3308    3.1275    3.0042 H   0  0  0  0  0  0  0  0  0  0  0  0
    0.3445    3.0771   -0.0405 H   0  0  0  0  0  0  0  0  0  0  0  0
   -0.5056    2.0143   -1.3019 H   0  0  0  0  0  0  0  0  0  0  0  0
   -0.1450   -1.2984   -2.3447 H   0  0  0  0  0  0  0  0  0  0  0  0
   -1.7374   -2.5438   -3.7484 H   0  0  0  0  0  0  0  0  0  0  0  0
   -4.6037    0.5834   -3.2852 H   0  0  0  0  0  0  0  0  0  0  0  0
   -3.0209    1.8312   -1.8729 H   0  0  0  0  0  0  0  0  0  0  0  0
    7.2950   -7.2508   -2.1508 N   0  3  0  0  0  0  0  0  0  0  0  0
    7.1247   -8.2378   -1.9251 H   0  0  0  0  0  0  0  0  0  0  0  0
    6.0053   -6.0902    0.1139 N   0  3  0  0  0  0  0  0  0  0  0  0
    6.1756   -5.1032   -0.1118 H   0  0  0  0  0  0  0  0  0  0  0  0
  1 33  1  0  0  0  0
  1 34  1  0  0  0  0
  1 35  1  0  0  0  0
  1 56  1  0  0  0  0
  2  3  1  0  0  0  0
  2 36  1  0  0  0  0
  2 37  1  0  0  0  0
  2 56  1  0  0  0  0
  3 38  1  0  0  0  0
  3 39  1  0  0  0  0
  3 58  1  0  0  0  0
  4  5  1  0  0  0  0
  4 40  1  0  0  0  0
  4 41  1  0  0  0  0
  4 58  1  0  0  0  0
  5 42  1  0  0  0  0
  5 43  1  0  0  0  0
  5 56  1  0  0  0  0
  6  7  1  0  0  0  0
  6 44  1  0  0  0  0
  6 45  1  0  0  0  0
  6 58  1  0  0  0  0
  7 11  1  0  0  0  0
  7  8  2  0  0  0  0
  8  9  1  0  0  0  0
  8 46  1  0  0  0  0
  9 10  1  0  0  0  0
 10 11  2  0  0  0  0
 10 13  1  0  0  0  0
 11 12  1  0  0  0  0
 13 14  2  0  0  0  0
 13 15  1  0  0  0  0
 15 16  1  0  0  0  0
 15 47  1  0  0  0  0
 16 21  2  0  0  0  0
 16 17  1  0  0  0  0
 17 18  2  0  0  0  0
 17 48  1  0  0  0  0
 18 19  1  0  0  0  0
 18 49  1  0  0  0  0
 19 20  2  0  0  0  0
 19 32  1  0  0  0  0
 20 21  1  0  0  0  0
 20 50  1  0  0  0  0
 21 22  1  0  0  0  0
 22 23  2  0  0  0  0
 22 24  1  0  0  0  0
 24 25  1  0  0  0  0
 24 51  1  0  0  0  0
 25 30  2  0  0  0  0
 25 26  1  0  0  0  0
 26 27  2  0  0  0  0
 26 52  1  0  0  0  0
 27 28  1  0  0  0  0
 27 53  1  0  0  0  0
 28 29  2  0  0  0  0
 28 31  1  0  0  0  0
 29 30  1  0  0  0  0
 29 54  1  0  0  0  0
 30 55  1  0  0  0  0
 56 57  1  0  0  0  0
 58 59  1  0  0  0  0
M  CHG  2  56   1  58   1
M  END
$$$$
ZINC03815580
  -OEChem-08230709403D

 58 60  0     0  0  0  0  0  0999 V2000
    6.4771    3.2855   -2.4926 H   0  0  0  0  0  0  0  0  0  0  0  0
    6.2192    1.5650   -1.4354 C   0  0  0  0  0  0  0  0  0  0  0  0
    5.1965    0.7499   -0.7403 C   0  0  0  0  0  0  0  0  0  0  0  0
    5.5589   -0.4478   -0.1218 C   0  0  0  0  0  0  0  0  0  0  0  0
    4.6068   -1.2098    0.5261 C   0  0  0  0  0  0  0  0  0  0  0  0
    3.2922   -0.7900    0.5723 C   0  0  0  0  0  0  0  0  0  0  0  0
    2.9155    0.4034   -0.0475 C   0  0  0  0  0  0  0  0  0  0  0  0
    3.8722    1.1764   -0.7032 C   0  0  0  0  0  0  0  0  0  0  0  0
    1.5067    0.8488   -0.0031 C   0  0  0  0  0  0  0  0  0  0  0  0
    1.1812    1.8904   -0.5389 O   0  0  0  0  0  0  0  0  0  0  0  0
    0.5829    0.1001    0.6313 N   0  0  0  0  0  0  0  0  0  0  0  0
   -0.7270    0.5741    0.7703 C   0  0  0  0  0  0  0  0  0  0  0  0
   -0.9795    1.9379    0.7472 C   0  0  0  0  0  0  0  0  0  0  0  0
   -2.2734    2.4035    0.8847 C   0  0  0  0  0  0  0  0  0  0  0  0
   -3.3198    1.5133    1.0456 C   0  0  0  0  0  0  0  0  0  0  0  0
   -3.0778    0.1530    1.0694 C   0  0  0  0  0  0  0  0  0  0  0  0
   -1.7828   -0.3237    0.9269 C   0  0  0  0  0  0  0  0  0  0  0  0
   -1.5360   -1.7016    0.9450 N   0  0  0  0  0  0  0  0  0  0  0  0
   -2.3922   -2.5315    1.5733 C   0  0  0  0  0  0  0  0  0  0  0  0
   -3.3226   -2.0766    2.2101 O   0  0  0  0  0  0  0  0  0  0  0  0
   -2.2001   -3.9946    1.4880 C   0  0  0  0  0  0  0  0  0  0  0  0
   -1.1362   -4.5202    0.7529 C   0  0  0  0  0  0  0  0  0  0  0  0
   -0.9593   -5.8866    0.6821 C   0  0  0  0  0  0  0  0  0  0  0  0
   -1.8404   -6.7357    1.3279 C   0  0  0  0  0  0  0  0  0  0  0  0
   -2.9000   -6.2213    2.0539 C   0  0  0  0  0  0  0  0  0  0  0  0
   -3.0851   -4.8568    2.1375 C   0  0  0  0  0  0  0  0  0  0  0  0
   -1.6448   -8.2274    1.2407 C   0  0  0  0  0  0  0  0  0  0  0  0
   -2.8788   -8.8670    0.6011 C   0  0  0  0  0  0  0  0  0  0  0  0
   -0.4123   -8.5310    0.3864 C   0  0  0  0  0  0  0  0  0  0  0  0
   -1.4447   -8.7986    2.6458 C   0  0  0  0  0  0  0  0  0  0  0  0
    7.5298    1.1416   -1.4714 N   0  0  0  0  0  0  0  0  0  0  0  0
    6.5864   -0.7794   -0.1502 H   0  0  0  0  0  0  0  0  0  0  0  0
    4.8926   -2.1359    1.0027 H   0  0  0  0  0  0  0  0  0  0  0  0
    2.5532   -1.3877    1.0850 H   0  0  0  0  0  0  0  0  0  0  0  0
    3.5871    2.1022   -1.1807 H   0  0  0  0  0  0  0  0  0  0  0  0
    0.8247   -0.7689    0.9882 H   0  0  0  0  0  0  0  0  0  0  0  0
   -0.1651    2.6359    0.6214 H   0  0  0  0  0  0  0  0  0  0  0  0
   -2.4683    3.4656    0.8661 H   0  0  0  0  0  0  0  0  0  0  0  0
   -4.3291    1.8826    1.1526 H   0  0  0  0  0  0  0  0  0  0  0  0
   -3.8973   -0.5392    1.1950 H   0  0  0  0  0  0  0  0  0  0  0  0
   -0.7486   -2.0591    0.5054 H   0  0  0  0  0  0  0  0  0  0  0  0
   -0.4506   -3.8587    0.2443 H   0  0  0  0  0  0  0  0  0  0  0  0
   -0.1341   -6.2945    0.1174 H   0  0  0  0  0  0  0  0  0  0  0  0
   -3.5840   -6.8896    2.5560 H   0  0  0  0  0  0  0  0  0  0  0  0
   -3.9125   -4.4566    2.7045 H   0  0  0  0  0  0  0  0  0  0  0  0
   -3.0214   -8.4601   -0.4000 H   0  0  0  0  0  0  0  0  0  0  0  0
   -2.7374   -9.9460    0.5380 H   0  0  0  0  0  0  0  0  0  0  0  0
   -3.7569   -8.6507    1.2097 H   0  0  0  0  0  0  0  0  0  0  0  0
    0.4668   -8.0754    0.8420 H   0  0  0  0  0  0  0  0  0  0  0  0
   -0.2709   -9.6100    0.3233 H   0  0  0  0  0  0  0  0  0  0  0  0
   -0.5550   -8.1241   -0.6147 H   0  0  0  0  0  0  0  0  0  0  0  0
   -2.3227   -8.5823    3.2545 H   0  0  0  0  0  0  0  0  0  0  0  0
   -1.3032   -9.8776    2.5827 H   0  0  0  0  0  0  0  0  0  0  0  0
   -0.5656   -8.3430    3.1015 H   0  0  0  0  0  0  0  0  0  0  0  0
    7.7827    0.3096   -1.0416 H   0  0  0  0  0  0  0  0  0  0  0  0
    8.1996    1.6754   -1.9266 H   0  0  0  0  0  0  0  0  0  0  0  0
    5.8101    2.6896   -2.0019 N   0  3  0  0  0  0  0  0  0  0  0  0
    4.8217    2.9620   -1.9474 H   0  0  0  0  0  0  0  0  0  0  0  0
  1 57  1  0  0  0  0
  2  3  1  0  0  0  0
  2 31  1  0  0  0  0
  2 57  2  0  0  0  0
  3  8  2  0  0  0  0
  3  4  1  0  0  0  0
  4  5  2  0  0  0  0
  4 32  1  0  0  0  0
  5  6  1  0  0  0  0
  5 33  1  0  0  0  0
  6  7  2  0  0  0  0
  6 34  1  0  0  0  0
  7  8  1  0  0  0  0
  7  9  1  0  0  0  0
  8 35  1  0  0  0  0
  9 10  2  0  0  0  0
  9 11  1  0  0  0  0
 11 12  1  0  0  0  0
 11 36  1  0  0  0  0
 12 17  2  0  0  0  0
 12 13  1  0  0  0  0
 13 14  2  0  0  0  0
 13 37  1  0  0  0  0
 14 15  1  0  0  0  0
 14 38  1  0  0  0  0
 15 16  2  0  0  0  0
 15 39  1  0  0  0  0
 16 17  1  0  0  0  0
 16 40  1  0  0  0  0
 17 18  1  0  0  0  0
 18 19  1  0  0  0  0
 18 41  1  0  0  0  0
 19 20  2  0  0  0  0
 19 21  1  0  0  0  0
 21 26  2  0  0  0  0
 21 22  1  0  0  0  0
 22 23  2  0  0  0  0
 22 42  1  0  0  0  0
 23 24  1  0  0  0  0
 23 43  1  0  0  0  0
 24 25  2  0  0  0  0
 24 27  1  0  0  0  0
 25 26  1  0  0  0  0
 25 44  1  0  0  0  0
 26 45  1  0  0  0  0
 27 28  1  0  0  0  0
 27 29  1  0  0  0  0
 27 30  1  0  0  0  0
 28 46  1  0  0  0  0
 28 47  1  0  0  0  0
 28 48  1  0  0  0  0
 29 49  1  0  0  0  0
 29 50  1  0  0  0  0
 29 51  1  0  0  0  0
 30 52  1  0  0  0  0
 30 53  1  0  0  0  0
 30 54  1  0  0  0  0
 31 55  1  0  0  0  0
 31 56  1  0  0  0  0
 57 58  1  0  0  0  0
M  CHG  1  57   1
M  END
$$$$
ZINC03815583
  -OEChem-08230709403D

 66 68  0     1  0  0  0  0  0999 V2000
   -0.1553   -3.7790   -0.0180 H   0  0  0  0  0  0  0  0  0  0  0  0
    1.3480   -2.4062   -0.0243 C   0  0  0  0  0  0  0  0  0  0  0  0
    1.6147   -0.9496   -0.0185 C   0  0  0  0  0  0  0  0  0  0  0  0
    2.9274   -0.4781   -0.0287 C   0  0  0  0  0  0  0  0  0  0  0  0
    3.1697    0.8802   -0.0237 C   0  0  0  0  0  0  0  0  0  0  0  0
    2.1136    1.7740   -0.0086 C   0  0  0  0  0  0  0  0  0  0  0  0
    0.8098    1.3125    0.0014 C   0  0  0  0  0  0  0  0  0  0  0  0
    0.5548   -0.0438   -0.0034 C   0  0  0  0  0  0  0  0  0  0  0  0
   -0.3348    2.2928    0.0114 C   0  0  0  0  0  0  0  0  0  0  0  0
   -0.7150    2.6180    1.4574 C   0  0  2  0  0  0  0  0  0  0  0  0
   -0.9299    1.6935    1.9933 H   0  0  0  0  0  0  0  0  0  0  0  0
   -1.9549    3.5145    1.4692 C   0  0  1  0  0  0  0  0  0  0  0  0
   -1.7400    4.4390    0.9333 H   0  0  0  0  0  0  0  0  0  0  0  0
   -3.1161    2.7880    0.7876 C   0  0  0  0  0  0  0  0  0  0  0  0
   -2.3191    3.8259    2.8537 N   0  0  0  0  0  0  0  0  0  0  0  0
   -3.0139    4.9467    3.1319 C   0  0  0  0  0  0  0  0  0  0  0  0
   -3.3387    5.6992    2.2340 O   0  0  0  0  0  0  0  0  0  0  0  0
   -3.3812    5.2607    4.5278 C   0  0  0  0  0  0  0  0  0  0  0  0
   -3.0132    4.3934    5.5595 C   0  0  0  0  0  0  0  0  0  0  0  0
   -3.3509    4.6899    6.8607 C   0  0  0  0  0  0  0  0  0  0  0  0
   -4.0699    5.8504    7.1481 C   0  0  0  0  0  0  0  0  0  0  0  0
   -4.4432    6.7140    6.1181 C   0  0  0  0  0  0  0  0  0  0  0  0
   -4.1015    6.4223    4.8167 C   0  0  0  0  0  0  0  0  0  0  0  0
   -4.4380    6.1659    8.5494 C   0  0  0  0  0  0  0  0  0  0  0  0
   -5.1518    7.3275    8.8408 C   0  0  0  0  0  0  0  0  0  0  0  0
   -5.4957    7.6134   10.1461 C   0  0  0  0  0  0  0  0  0  0  0  0
   -5.1244    6.7554   11.1660 C   0  0  0  0  0  0  0  0  0  0  0  0
   -4.4116    5.6043   10.8835 C   0  0  0  0  0  0  0  0  0  0  0  0
   -4.0666    5.3053    9.5810 C   0  0  0  0  0  0  0  0  0  0  0  0
   -4.0104    4.6751   12.0000 C   0  0  0  0  0  0  0  0  0  0  0  0
    0.4287    3.3337    2.1287 C   0  0  0  0  0  0  0  0  0  0  0  0
    1.4438    3.5603    1.5139 O   0  0  0  0  0  0  0  0  0  0  0  0
    0.3197    3.7194    3.4098 O   0  0  0  0  0  0  0  0  0  0  0  0
    1.4605    4.4035    3.9917 C   0  0  0  0  0  0  0  0  0  0  0  0
    2.3975   -3.2987   -0.0393 N   0  0  0  0  0  0  0  0  0  0  0  0
    3.7526   -1.1748   -0.0408 H   0  0  0  0  0  0  0  0  0  0  0  0
    4.1857    1.2464   -0.0311 H   0  0  0  0  0  0  0  0  0  0  0  0
    2.3082    2.8363   -0.0047 H   0  0  0  0  0  0  0  0  0  0  0  0
   -0.4637   -0.4029    0.0048 H   0  0  0  0  0  0  0  0  0  0  0  0
   -0.0343    3.2074   -0.4997 H   0  0  0  0  0  0  0  0  0  0  0  0
   -1.1922    1.8556   -0.5002 H   0  0  0  0  0  0  0  0  0  0  0  0
   -3.9994    3.4265    0.7961 H   0  0  0  0  0  0  0  0  0  0  0  0
   -2.8452    2.5562   -0.2424 H   0  0  0  0  0  0  0  0  0  0  0  0
   -3.3310    1.8634    1.3235 H   0  0  0  0  0  0  0  0  0  0  0  0
   -2.0600    3.2255    3.5701 H   0  0  0  0  0  0  0  0  0  0  0  0
   -2.4605    3.4927    5.3366 H   0  0  0  0  0  0  0  0  0  0  0  0
   -3.0631    4.0218    7.6588 H   0  0  0  0  0  0  0  0  0  0  0  0
   -5.0000    7.6120    6.3416 H   0  0  0  0  0  0  0  0  0  0  0  0
   -4.3906    7.0910    4.0195 H   0  0  0  0  0  0  0  0  0  0  0  0
   -5.4383    8.0003    8.0460 H   0  0  0  0  0  0  0  0  0  0  0  0
   -6.0520    8.5111   10.3727 H   0  0  0  0  0  0  0  0  0  0  0  0
   -5.3919    6.9856   12.1868 H   0  0  0  0  0  0  0  0  0  0  0  0
   -3.5096    4.4063    9.3615 H   0  0  0  0  0  0  0  0  0  0  0  0
   -4.7470    4.7308   12.8015 H   0  0  0  0  0  0  0  0  0  0  0  0
   -3.9608    3.6538   11.6225 H   0  0  0  0  0  0  0  0  0  0  0  0
   -2.6963    6.0349   12.8137 H   0  0  0  0  0  0  0  0  0  0  0  0
   -2.4019    4.4622   13.2673 H   0  0  0  0  0  0  0  0  0  0  0  0
    1.6644    5.3139    3.4280 H   0  0  0  0  0  0  0  0  0  0  0  0
    1.2409    4.6593    5.0282 H   0  0  0  0  0  0  0  0  0  0  0  0
    2.3328    3.7508    3.9555 H   0  0  0  0  0  0  0  0  0  0  0  0
    3.3111   -2.9730   -0.0460 H   0  0  0  0  0  0  0  0  0  0  0  0
    2.2227   -4.2528   -0.0430 H   0  0  0  0  0  0  0  0  0  0  0  0
    0.0797   -2.7863   -0.0145 N   0  3  0  0  0  0  0  0  0  0  0  0
   -0.6673   -2.0819   -0.0035 H   0  0  0  0  0  0  0  0  0  0  0  0
   -2.6795    5.0672   12.4961 N   0  3  0  0  0  0  0  0  0  0  0  0
   -1.9955    4.9759   11.7358 H   0  0  0  0  0  0  0  0  0  0  0  0
  1 63  1  0  0  0  0
  2  3  1  0  0  0  0
  2 35  1  0  0  0  0
  2 63  2  0  0  0  0
  3  8  2  0  0  0  0
  3  4  1  0  0  0  0
  4  5  2  0  0  0  0
  4 36  1  0  0  0  0
  5  6  1  0  0  0  0
  5 37  1  0  0  0  0
  6  7  2  0  0  0  0
  6 38  1  0  0  0  0
  7  8  1  0  0  0  0
  7  9  1  0  0  0  0
  8 39  1  0  0  0  0
  9 10  1  0  0  0  0
  9 40  1  0  0  0  0
  9 41  1  0  0  0  0
 10 11  1  0  0  0  0
 10 12  1  0  0  0  0
 10 31  1  0  0  0  0
 12 13  1  0  0  0  0
 12 14  1  0  0  0  0
 12 15  1  0  0  0  0
 14 42  1  0  0  0  0
 14 43  1  0  0  0  0
 14 44  1  0  0  0  0
 15 16  1  0  0  0  0
 15 45  1  0  0  0  0
 16 17  2  0  0  0  0
 16 18  1  0  0  0  0
 18 23  2  0  0  0  0
 18 19  1  0  0  0  0
 19 20  2  0  0  0  0
 19 46  1  0  0  0  0
 20 21  1  0  0  0  0
 20 47  1  0  0  0  0
 21 22  2  0  0  0  0
 21 24  1  0  0  0  0
 22 23  1  0  0  0  0
 22 48  1  0  0  0  0
 23 49  1  0  0  0  0
 24 29  2  0  0  0  0
 24 25  1  0  0  0  0
 25 26  2  0  0  0  0
 25 50  1  0  0  0  0
 26 27  1  0  0  0  0
 26 51  1  0  0  0  0
 27 28  2  0  0  0  0
 27 52  1  0  0  0  0
 28 29  1  0  0  0  0
 28 30  1  0  0  0  0
 29 53  1  0  0  0  0
 30 54  1  0  0  0  0
 30 55  1  0  0  0  0
 30 65  1  0  0  0  0
 31 32  2  0  0  0  0
 31 33  1  0  0  0  0
 33 34  1  0  0  0  0
 34 58  1  0  0  0  0
 34 59  1  0  0  0  0
 34 60  1  0  0  0  0
 35 61  1  0  0  0  0
 35 62  1  0  0  0  0
 56 65  1  0  0  0  0
 57 65  1  0  0  0  0
 63 64  1  0  0  0  0
 65 66  1  0  0  0  0
M  CHG  2  63   1  65   1
M  END
$$$$
ZINC03815584
  -OEChem-08230709403D

 70 73  0     1  0  0  0  0  0999 V2000
    2.8531   -1.7445   -2.8303 H   0  0  0  0  0  0  0  0  0  0  0  0
    1.0568   -0.7902   -2.9148 C   0  0  0  0  0  0  0  0  0  0  0  0
    0.3655    0.4590   -2.5217 C   0  0  0  0  0  0  0  0  0  0  0  0
   -0.9781    0.6472   -2.8454 C   0  0  0  0  0  0  0  0  0  0  0  0
   -1.6182    1.8108   -2.4713 C   0  0  0  0  0  0  0  0  0  0  0  0
   -0.9270    2.7948   -1.7871 C   0  0  0  0  0  0  0  0  0  0  0  0
    0.4071    2.6163   -1.4683 C   0  0  0  0  0  0  0  0  0  0  0  0
    1.0567    1.4541   -1.8316 C   0  0  0  0  0  0  0  0  0  0  0  0
    1.1525    3.6928   -0.7224 C   0  0  0  0  0  0  0  0  0  0  0  0
    1.9028    4.5781   -1.7195 C   0  0  2  0  0  0  0  0  0  0  0  0
    2.5389    3.9569   -2.3500 H   0  0  0  0  0  0  0  0  0  0  0  0
    2.7671    5.5849   -0.9578 C   0  0  1  0  0  0  0  0  0  0  0  0
    2.1311    6.2062   -0.3273 H   0  0  0  0  0  0  0  0  0  0  0  0
    3.7741    4.8343   -0.0841 C   0  0  0  0  0  0  0  0  0  0  0  0
    4.5420    5.8206    0.7577 C   0  0  0  0  0  0  0  0  0  0  0  0
    5.7198    6.3659    0.2817 C   0  0  0  0  0  0  0  0  0  0  0  0
    6.4218    7.2743    1.0519 C   0  0  0  0  0  0  0  0  0  0  0  0
    5.9514    7.6293    2.3024 C   0  0  0  0  0  0  0  0  0  0  0  0
    4.7764    7.0800    2.7805 C   0  0  0  0  0  0  0  0  0  0  0  0
    4.0718    6.1757    2.0082 C   0  0  0  0  0  0  0  0  0  0  0  0
    3.4855    6.4326   -1.9126 N   0  0  0  0  0  0  0  0  0  0  0  0
    3.8914    7.6648   -1.5472 C   0  0  0  0  0  0  0  0  0  0  0  0
    3.6613    8.0728   -0.4254 O   0  0  0  0  0  0  0  0  0  0  0  0
    4.6158    8.5195   -2.5099 C   0  0  0  0  0  0  0  0  0  0  0  0
    4.8854    8.0490   -3.7975 C   0  0  0  0  0  0  0  0  0  0  0  0
    5.5554    8.8487   -4.6957 C   0  0  0  0  0  0  0  0  0  0  0  0
    5.9748   10.1241   -4.3172 C   0  0  0  0  0  0  0  0  0  0  0  0
    5.7116   10.5927   -3.0298 C   0  0  0  0  0  0  0  0  0  0  0  0
    5.0366    9.7969   -2.1317 C   0  0  0  0  0  0  0  0  0  0  0  0
    6.7015   10.9823   -5.2836 C   0  0  0  0  0  0  0  0  0  0  0  0
    7.1173   12.2594   -4.9104 C   0  0  0  0  0  0  0  0  0  0  0  0
    7.7971   13.0520   -5.8128 C   0  0  0  0  0  0  0  0  0  0  0  0
    8.0570   12.5853   -7.0888 C   0  0  0  0  0  0  0  0  0  0  0  0
    7.6425   11.3206   -7.4663 C   0  0  0  0  0  0  0  0  0  0  0  0
    6.9663   10.5174   -6.5709 C   0  0  0  0  0  0  0  0  0  0  0  0
    0.9109    5.3174   -2.5801 C   0  0  0  0  0  0  0  0  0  0  0  0
   -0.1100    5.7442   -2.0949 O   0  0  0  0  0  0  0  0  0  0  0  0
    1.1616    5.5019   -3.8859 O   0  0  0  0  0  0  0  0  0  0  0  0
    0.1621    6.2227   -4.6537 C   0  0  0  0  0  0  0  0  0  0  0  0
    0.3713   -1.7717   -3.5967 N   0  0  0  0  0  0  0  0  0  0  0  0
   -1.5174   -0.1181   -3.3837 H   0  0  0  0  0  0  0  0  0  0  0  0
   -2.6599    1.9558   -2.7172 H   0  0  0  0  0  0  0  0  0  0  0  0
   -1.4312    3.7059   -1.5004 H   0  0  0  0  0  0  0  0  0  0  0  0
    2.0981    1.3155   -1.5815 H   0  0  0  0  0  0  0  0  0  0  0  0
    0.4451    4.3003   -0.1579 H   0  0  0  0  0  0  0  0  0  0  0  0
    1.8647    3.2333   -0.0370 H   0  0  0  0  0  0  0  0  0  0  0  0
    3.2435    4.1380    0.5653 H   0  0  0  0  0  0  0  0  0  0  0  0
    4.4665    4.2826   -0.7198 H   0  0  0  0  0  0  0  0  0  0  0  0
    6.0896    6.0851   -0.6934 H   0  0  0  0  0  0  0  0  0  0  0  0
    7.3399    7.7031    0.6785 H   0  0  0  0  0  0  0  0  0  0  0  0
    6.5022    8.3356    2.9059 H   0  0  0  0  0  0  0  0  0  0  0  0
    4.4092    7.3572    3.7576 H   0  0  0  0  0  0  0  0  0  0  0  0
    3.1540    5.7462    2.3818 H   0  0  0  0  0  0  0  0  0  0  0  0
    3.6690    6.1071   -2.8077 H   0  0  0  0  0  0  0  0  0  0  0  0
    4.5646    7.0599   -4.0893 H   0  0  0  0  0  0  0  0  0  0  0  0
    5.7603    8.4866   -5.6923 H   0  0  0  0  0  0  0  0  0  0  0  0
    6.0370   11.5802   -2.7376 H   0  0  0  0  0  0  0  0  0  0  0  0
    4.8329   10.1598   -1.1351 H   0  0  0  0  0  0  0  0  0  0  0  0
    6.9114   12.6264   -3.9158 H   0  0  0  0  0  0  0  0  0  0  0  0
    8.1231   14.0402   -5.5235 H   0  0  0  0  0  0  0  0  0  0  0  0
    8.5853   13.2108   -7.7931 H   0  0  0  0  0  0  0  0  0  0  0  0
    7.8482   10.9615   -8.4639 H   0  0  0  0  0  0  0  0  0  0  0  0
    6.6424    9.5304   -6.8669 H   0  0  0  0  0  0  0  0  0  0  0  0
   -0.7858    5.6863   -4.6104 H   0  0  0  0  0  0  0  0  0  0  0  0
    0.0338    7.2213   -4.2361 H   0  0  0  0  0  0  0  0  0  0  0  0
    0.4879    6.3016   -5.6908 H   0  0  0  0  0  0  0  0  0  0  0  0
   -0.5643   -1.6445   -3.8193 H   0  0  0  0  0  0  0  0  0  0  0  0
    0.8241   -2.5899   -3.8543 H   0  0  0  0  0  0  0  0  0  0  0  0
    2.3333   -0.9027   -2.5816 N   0  3  0  0  0  0  0  0  0  0  0  0
    2.8001   -0.1426   -2.0730 H   0  0  0  0  0  0  0  0  0  0  0  0
  1 69  1  0  0  0  0
  2  3  1  0  0  0  0
  2 40  1  0  0  0  0
  2 69  2  0  0  0  0
  3  8  2  0  0  0  0
  3  4  1  0  0  0  0
  4  5  2  0  0  0  0
  4 41  1  0  0  0  0
  5  6  1  0  0  0  0
  5 42  1  0  0  0  0
  6  7  2  0  0  0  0
  6 43  1  0  0  0  0
  7  8  1  0  0  0  0
  7  9  1  0  0  0  0
  8 44  1  0  0  0  0
  9 10  1  0  0  0  0
  9 45  1  0  0  0  0
  9 46  1  0  0  0  0
 10 11  1  0  0  0  0
 10 12  1  0  0  0  0
 10 36  1  0  0  0  0
 12 13  1  0  0  0  0
 12 14  1  0  0  0  0
 12 21  1  0  0  0  0
 14 15  1  0  0  0  0
 14 47  1  0  0  0  0
 14 48  1  0  0  0  0
 15 20  2  0  0  0  0
 15 16  1  0  0  0  0
 16 17  2  0  0  0  0
 16 49  1  0  0  0  0
 17 18  1  0  0  0  0
 17 50  1  0  0  0  0
 18 19  2  0  0  0  0
 18 51  1  0  0  0  0
 19 20  1  0  0  0  0
 19 52  1  0  0  0  0
 20 53  1  0  0  0  0
 21 22  1  0  0  0  0
 21 54  1  0  0  0  0
 22 23  2  0  0  0  0
 22 24  1  0  0  0  0
 24 29  2  0  0  0  0
 24 25  1  0  0  0  0
 25 26  2  0  0  0  0
 25 55  1  0  0  0  0
 26 27  1  0  0  0  0
 26 56  1  0  0  0  0
 27 28  2  0  0  0  0
 27 30  1  0  0  0  0
 28 29  1  0  0  0  0
 28 57  1  0  0  0  0
 29 58  1  0  0  0  0
 30 35  2  0  0  0  0
 30 31  1  0  0  0  0
 31 32  2  0  0  0  0
 31 59  1  0  0  0  0
 32 33  1  0  0  0  0
 32 60  1  0  0  0  0
 33 34  2  0  0  0  0
 33 61  1  0  0  0  0
 34 35  1  0  0  0  0
 34 62  1  0  0  0  0
 35 63  1  0  0  0  0
 36 37  2  0  0  0  0
 36 38  1  0  0  0  0
 38 39  1  0  0  0  0
 39 64  1  0  0  0  0
 39 65  1  0  0  0  0
 39 66  1  0  0  0  0
 40 67  1  0  0  0  0
 40 68  1  0  0  0  0
 69 70  1  0  0  0  0
M  CHG  1  69   1
M  END
$$$$
ZINC03815585
  -OEChem-08230709403D

 54 56  0     1  0  0  0  0  0999 V2000
  -16.0580    0.8731   -2.5423 H   0  0  0  0  0  0  0  0  0  0  0  0
  -15.1949    2.2885   -3.7240 C   0  0  0  0  0  0  0  0  0  0  0  0
  -13.9909    3.1408   -3.8555 C   0  0  0  0  0  0  0  0  0  0  0  0
  -13.8684    4.0163   -4.9352 C   0  0  0  0  0  0  0  0  0  0  0  0
  -12.7462    4.8108   -5.0588 C   0  0  0  0  0  0  0  0  0  0  0  0
  -11.7389    4.7443   -4.1158 C   0  0  0  0  0  0  0  0  0  0  0  0
  -11.8500    3.8735   -3.0329 C   0  0  0  0  0  0  0  0  0  0  0  0
  -12.9759    3.0662   -2.9051 C   0  0  0  0  0  0  0  0  0  0  0  0
  -10.7664    3.8034   -2.0214 C   0  0  0  0  0  0  0  0  0  0  0  0
  -10.8763    2.9337   -0.9380 C   0  0  0  0  0  0  0  0  0  0  0  0
   -9.8659    2.8728   -0.0001 C   0  0  0  0  0  0  0  0  0  0  0  0
   -8.7428    3.6691   -0.1369 C   0  0  0  0  0  0  0  0  0  0  0  0
   -8.6311    4.5380   -1.2069 C   0  0  0  0  0  0  0  0  0  0  0  0
   -9.6359    4.6070   -2.1511 C   0  0  0  0  0  0  0  0  0  0  0  0
   -7.4076    5.4068   -1.3458 C   0  0  2  0  0  0  0  0  0  0  0  0
   -7.4952    6.0167   -2.2449 H   0  0  0  0  0  0  0  0  0  0  0  0
   -6.1633    4.5225   -1.4487 C   0  0  0  0  0  0  0  0  0  0  0  0
   -4.9365    5.3973   -1.7143 C   0  0  0  0  0  0  0  0  0  0  0  0
   -3.6922    4.5130   -1.8172 C   0  0  0  0  0  0  0  0  0  0  0  0
   -2.5175    5.3507   -2.0717 N   0  0  0  0  0  0  0  0  0  0  0  0
   -1.2616    4.7660   -2.2044 C   0  0  0  0  0  0  0  0  0  0  0  0
   -1.1012    3.3841   -2.1037 C   0  0  0  0  0  0  0  0  0  0  0  0
    0.1608    2.8447   -2.2362 C   0  0  0  0  0  0  0  0  0  0  0  0
    1.0952    4.9282   -2.5720 C   0  0  0  0  0  0  0  0  0  0  0  0
   -0.1311    5.5462   -2.4468 C   0  0  0  0  0  0  0  0  0  0  0  0
   -7.2886    6.3033   -0.1404 C   0  0  0  0  0  0  0  0  0  0  0  0
   -6.3090    6.2413    0.5642 O   0  0  0  0  0  0  0  0  0  0  0  0
  -16.1957    2.3595   -4.6682 N   0  0  0  0  0  0  0  0  0  0  0  0
  -14.6527    4.0722   -5.6755 H   0  0  0  0  0  0  0  0  0  0  0  0
  -12.6553    5.4867   -5.8960 H   0  0  0  0  0  0  0  0  0  0  0  0
  -10.8632    5.3681   -4.2180 H   0  0  0  0  0  0  0  0  0  0  0  0
  -13.0640    2.3869   -2.0701 H   0  0  0  0  0  0  0  0  0  0  0  0
  -11.7507    2.3087   -0.8326 H   0  0  0  0  0  0  0  0  0  0  0  0
   -9.9499    2.1993    0.8399 H   0  0  0  0  0  0  0  0  0  0  0  0
   -7.9522    3.6149    0.5969 H   0  0  0  0  0  0  0  0  0  0  0  0
   -9.5459    5.2830   -2.9884 H   0  0  0  0  0  0  0  0  0  0  0  0
   -6.2881    3.8135   -2.2670 H   0  0  0  0  0  0  0  0  0  0  0  0
   -6.0260    3.9785   -0.5142 H   0  0  0  0  0  0  0  0  0  0  0  0
   -4.8117    6.1063   -0.8960 H   0  0  0  0  0  0  0  0  0  0  0  0
   -5.0738    5.9415   -2.6488 H   0  0  0  0  0  0  0  0  0  0  0  0
   -3.8170    3.8040   -2.6355 H   0  0  0  0  0  0  0  0  0  0  0  0
   -3.5549    3.9689   -0.8828 H   0  0  0  0  0  0  0  0  0  0  0  0
   -2.6151    6.3127   -2.1476 H   0  0  0  0  0  0  0  0  0  0  0  0
   -1.9530    2.7460   -1.9205 H   0  0  0  0  0  0  0  0  0  0  0  0
    0.2950    1.7760   -2.1561 H   0  0  0  0  0  0  0  0  0  0  0  0
    1.9759    5.5243   -2.7601 H   0  0  0  0  0  0  0  0  0  0  0  0
   -0.2151    6.6193   -2.5356 H   0  0  0  0  0  0  0  0  0  0  0  0
  -16.1117    2.9677   -5.4191 H   0  0  0  0  0  0  0  0  0  0  0  0
  -16.9843    1.8013   -4.5820 H   0  0  0  0  0  0  0  0  0  0  0  0
  -15.2491    1.4799   -2.6769 N   0  3  0  0  0  0  0  0  0  0  0  0
  -14.4769    1.4637   -2.0004 H   0  0  0  0  0  0  0  0  0  0  0  0
    1.2793    3.5833   -2.4729 N   0  3  0  0  0  0  0  0  0  0  0  0
    2.2059    3.1519   -2.5709 H   0  0  0  0  0  0  0  0  0  0  0  0
   -8.2708    7.1707    0.1505 O   0  5  0  0  0  0  0  0  0  0  0  0
  1 50  1  0  0  0  0
  2  3  1  0  0  0  0
  2 28  1  0  0  0  0
  2 50  2  0  0  0  0
  3  8  2  0  0  0  0
  3  4  1  0  0  0  0
  4  5  2  0  0  0  0
  4 29  1  0  0  0  0
  5  6  1  0  0  0  0
  5 30  1  0  0  0  0
  6  7  2  0  0  0  0
  6 31  1  0  0  0  0
  7  8  1  0  0  0  0
  7  9  1  0  0  0  0
  8 32  1  0  0  0  0
  9 14  2  0  0  0  0
  9 10  1  0  0  0  0
 10 11  2  0  0  0  0
 10 33  1  0  0  0  0
 11 12  1  0  0  0  0
 11 34  1  0  0  0  0
 12 13  2  0  0  0  0
 12 35  1  0  0  0  0
 13 14  1  0  0  0  0
 13 15  1  0  0  0  0
 14 36  1  0  0  0  0
 15 16  1  0  0  0  0
 15 17  1  0  0  0  0
 15 26  1  0  0  0  0
 17 18  1  0  0  0  0
 17 37  1  0  0  0  0
 17 38  1  0  0  0  0
 18 19  1  0  0  0  0
 18 39  1  0  0  0  0
 18 40  1  0  0  0  0
 19 20  1  0  0  0  0
 19 41  1  0  0  0  0
 19 42  1  0  0  0  0
 20 21  1  0  0  0  0
 20 43  1  0  0  0  0
 21 25  2  0  0  0  0
 21 22  1  0  0  0  0
 22 23  2  0  0  0  0
 22 44  1  0  0  0  0
 23 45  1  0  0  0  0
 23 52  1  0  0  0  0
 24 25  1  0  0  0  0
 24 46  1  0  0  0  0
 24 52  2  0  0  0  0
 25 47  1  0  0  0  0
 26 27  2  0  0  0  0
 26 54  1  0  0  0  0
 28 48  1  0  0  0  0
 28 49  1  0  0  0  0
 50 51  1  0  0  0  0
 52 53  1  0  0  0  0
M  CHG  3  50   1  52   1  54  -1
M  END
$$$$
ZINC03815586
  -OEChem-08230709403D

 58 61  0     0  0  0  0  0  0999 V2000
   -3.7514   -2.2333   -3.1956 C   0  0  0  0  0  0  0  0  0  0  0  0
   -4.1321   -3.5256   -1.9809 S   0  0  0  0  0  0  0  0  0  0  0  0
   -3.2706   -3.4098   -0.8568 O   0  0  0  0  0  0  0  0  0  0  0  0
   -4.3065   -4.7754   -2.6342 O   0  0  0  0  0  0  0  0  0  0  0  0
   -5.7310   -3.1126   -1.3664 C   0  0  0  0  0  0  0  0  0  0  0  0
   -6.7916   -3.9735   -1.5646 C   0  0  0  0  0  0  0  0  0  0  0  0
   -8.0482   -3.6480   -1.0874 C   0  0  0  0  0  0  0  0  0  0  0  0
   -8.2489   -2.4614   -0.4050 C   0  0  0  0  0  0  0  0  0  0  0  0
   -7.1948   -1.5956   -0.1968 C   0  0  0  0  0  0  0  0  0  0  0  0
   -5.9261   -1.9186   -0.6751 C   0  0  0  0  0  0  0  0  0  0  0  0
   -4.7890   -0.9918   -0.4543 C   0  0  0  0  0  0  0  0  0  0  0  0
   -3.7269   -1.3729    0.3642 C   0  0  0  0  0  0  0  0  0  0  0  0
   -2.6679   -0.5127    0.5645 C   0  0  0  0  0  0  0  0  0  0  0  0
   -2.6633    0.7384   -0.0398 C   0  0  0  0  0  0  0  0  0  0  0  0
   -3.7224    1.1222   -0.8572 C   0  0  0  0  0  0  0  0  0  0  0  0
   -4.7816    0.2614   -1.0646 C   0  0  0  0  0  0  0  0  0  0  0  0
   -3.7137    2.3372   -1.4480 F   0  0  0  0  0  0  0  0  0  0  0  0
   -1.5905    1.6108    0.1689 N   0  0  0  0  0  0  0  0  0  0  0  0
   -0.3957    1.1274    0.5630 C   0  0  0  0  0  0  0  0  0  0  0  0
   -0.2187   -0.0742    0.6329 O   0  0  0  0  0  0  0  0  0  0  0  0
    0.6958    2.0523    0.9027 C   0  0  0  0  0  0  0  0  0  0  0  0
    2.0127    1.7149    1.1456 C   0  0  0  0  0  0  0  0  0  0  0  0
    2.7053    2.8894    1.4281 C   0  0  0  0  0  0  0  0  0  0  0  0
    1.8711    3.8977    1.3653 N   0  0  0  0  0  0  0  0  0  0  0  0
    0.6003    3.4123    1.0324 N   0  0  0  0  0  0  0  0  0  0  0  0
   -0.5592    4.1790    0.8647 C   0  0  0  0  0  0  0  0  0  0  0  0
   -0.5591    5.2593   -0.0085 C   0  0  0  0  0  0  0  0  0  0  0  0
   -1.7056    6.0107   -0.1748 C   0  0  0  0  0  0  0  0  0  0  0  0
   -2.8502    5.6950    0.5344 C   0  0  0  0  0  0  0  0  0  0  0  0
   -2.8522    4.6232    1.4080 C   0  0  0  0  0  0  0  0  0  0  0  0
   -1.7101    3.8646    1.5753 C   0  0  0  0  0  0  0  0  0  0  0  0
   -4.1016    4.2827    2.1788 C   0  0  0  0  0  0  0  0  0  0  0  0
    4.1739    2.9850    1.7525 C   0  0  0  0  0  0  0  0  0  0  0  0
    4.9019    3.1616    0.5710 F   0  0  0  0  0  0  0  0  0  0  0  0
    4.3937    4.0739    2.6029 F   0  0  0  0  0  0  0  0  0  0  0  0
    4.5894    1.8082    2.3848 F   0  0  0  0  0  0  0  0  0  0  0  0
   -3.7555   -1.2603   -2.7043 H   0  0  0  0  0  0  0  0  0  0  0  0
   -2.7675   -2.4184   -3.6268 H   0  0  0  0  0  0  0  0  0  0  0  0
   -4.5023   -2.2447   -3.9856 H   0  0  0  0  0  0  0  0  0  0  0  0
   -6.6407   -4.9009   -2.0970 H   0  0  0  0  0  0  0  0  0  0  0  0
   -8.8761   -4.3226   -1.2484 H   0  0  0  0  0  0  0  0  0  0  0  0
   -9.2323   -2.2122   -0.0348 H   0  0  0  0  0  0  0  0  0  0  0  0
   -7.3527   -0.6692    0.3355 H   0  0  0  0  0  0  0  0  0  0  0  0
   -3.7312   -2.3435    0.8377 H   0  0  0  0  0  0  0  0  0  0  0  0
   -1.8430   -0.8103    1.1948 H   0  0  0  0  0  0  0  0  0  0  0  0
   -5.6036    0.5588   -1.6988 H   0  0  0  0  0  0  0  0  0  0  0  0
   -1.7062    2.5638    0.0301 H   0  0  0  0  0  0  0  0  0  0  0  0
    2.4302    0.7192    1.1208 H   0  0  0  0  0  0  0  0  0  0  0  0
    0.3357    5.5091   -0.5592 H   0  0  0  0  0  0  0  0  0  0  0  0
   -1.7072    6.8487   -0.8562 H   0  0  0  0  0  0  0  0  0  0  0  0
   -3.7443    6.2870    0.4059 H   0  0  0  0  0  0  0  0  0  0  0  0
   -1.7120    3.0280    2.2584 H   0  0  0  0  0  0  0  0  0  0  0  0
   -4.9739    4.6475    1.6364 H   0  0  0  0  0  0  0  0  0  0  0  0
   -4.1727    3.2014    2.2962 H   0  0  0  0  0  0  0  0  0  0  0  0
   -3.9172    5.9137    3.4215 H   0  0  0  0  0  0  0  0  0  0  0  0
   -4.8754    4.7031    4.0397 H   0  0  0  0  0  0  0  0  0  0  0  0
   -4.0276    4.9051    3.5124 N   0  3  0  0  0  0  0  0  0  0  0  0
   -3.2195    4.5239    4.0183 H   0  0  0  0  0  0  0  0  0  0  0  0
  1  2  1  0  0  0  0
  1 37  1  0  0  0  0
  1 38  1  0  0  0  0
  1 39  1  0  0  0  0
  2  3  2  0  0  0  0
  2  4  2  0  0  0  0
  2  5  1  0  0  0  0
  5 10  2  0  0  0  0
  5  6  1  0  0  0  0
  6  7  2  0  0  0  0
  6 40  1  0  0  0  0
  7  8  1  0  0  0  0
  7 41  1  0  0  0  0
  8  9  2  0  0  0  0
  8 42  1  0  0  0  0
  9 10  1  0  0  0  0
  9 43  1  0  0  0  0
 10 11  1  0  0  0  0
 11 16  2  0  0  0  0
 11 12  1  0  0  0  0
 12 13  2  0  0  0  0
 12 44  1  0  0  0  0
 13 14  1  0  0  0  0
 13 45  1  0  0  0  0
 14 15  2  0  0  0  0
 14 18  1  0  0  0  0
 15 16  1  0  0  0  0
 15 17  1  0  0  0  0
 16 46  1  0  0  0  0
 18 19  1  0  0  0  0
 18 47  1  0  0  0  0
 19 20  2  0  0  0  0
 19 21  1  0  0  0  0
 21 25  1  0  0  0  0
 21 22  2  0  0  0  0
 22 23  1  0  0  0  0
 22 48  1  0  0  0  0
 23 24  2  0  0  0  0
 23 33  1  0  0  0  0
 24 25  1  0  0  0  0
 25 26  1  0  0  0  0
 26 31  2  0  0  0  0
 26 27  1  0  0  0  0
 27 28  2  0  0  0  0
 27 49  1  0  0  0  0
 28 29  1  0  0  0  0
 28 50  1  0  0  0  0
 29 30  2  0  0  0  0
 29 51  1  0  0  0  0
 30 31  1  0  0  0  0
 30 32  1  0  0  0  0
 31 52  1  0  0  0  0
 32 53  1  0  0  0  0
 32 54  1  0  0  0  0
 32 57  1  0  0  0  0
 33 34  1  0  0  0  0
 33 35  1  0  0  0  0
 33 36  1  0  0  0  0
 55 57  1  0  0  0  0
 56 57  1  0  0  0  0
 57 58  1  0  0  0  0
M  CHG  1  57   1
M  END
$$$$
ZINC03815587
  -OEChem-08230709403D

 57 60  0     0  0  0  0  0  0999 V2000
   -0.3127   -0.4851    4.4967 H   0  0  0  0  0  0  0  0  0  0  0  0
    0.4767    0.2506    2.7705 C   0  0  0  0  0  0  0  0  0  0  0  0
    0.1597    1.0905    1.5926 C   0  0  0  0  0  0  0  0  0  0  0  0
    1.1248    1.3068    0.6080 C   0  0  0  0  0  0  0  0  0  0  0  0
    0.8309    2.0904   -0.4902 C   0  0  0  0  0  0  0  0  0  0  0  0
   -0.4167    2.6688   -0.6191 C   0  0  0  0  0  0  0  0  0  0  0  0
   -1.3917    2.4548    0.3554 C   0  0  0  0  0  0  0  0  0  0  0  0
   -1.1014    1.6661    1.4655 C   0  0  0  0  0  0  0  0  0  0  0  0
   -2.7320    3.0713    0.2125 C   0  0  0  0  0  0  0  0  0  0  0  0
   -3.2100    3.9415    1.1881 C   0  0  0  0  0  0  0  0  0  0  0  0
   -4.4568    4.5172    1.0489 C   0  0  0  0  0  0  0  0  0  0  0  0
   -5.2446    4.2271   -0.0530 C   0  0  0  0  0  0  0  0  0  0  0  0
   -4.7907    3.3631   -1.0276 C   0  0  0  0  0  0  0  0  0  0  0  0
   -3.5308    2.7758   -0.9065 C   0  0  0  0  0  0  0  0  0  0  0  0
   -3.0399    1.8502   -1.9460 C   0  0  0  0  0  0  0  0  0  0  0  0
   -1.9958    1.2492   -1.7810 O   0  0  0  0  0  0  0  0  0  0  0  0
   -3.7489    1.6710   -3.0782 N   0  0  0  0  0  0  0  0  0  0  0  0
   -3.3357    0.7238   -4.0188 C   0  0  0  0  0  0  0  0  0  0  0  0
   -1.9800    0.5091   -4.2380 C   0  0  0  0  0  0  0  0  0  0  0  0
   -1.5702   -0.4288   -5.1614 C   0  0  0  0  0  0  0  0  0  0  0  0
   -2.5165   -1.1537   -5.8841 C   0  0  0  0  0  0  0  0  0  0  0  0
   -3.8756   -0.9327   -5.6668 C   0  0  0  0  0  0  0  0  0  0  0  0
   -4.2811    0.0018   -4.7379 C   0  0  0  0  0  0  0  0  0  0  0  0
   -2.0778   -2.1586   -6.8834 C   0  0  0  0  0  0  0  0  0  0  0  0
   -2.4683   -2.0366   -8.2159 C   0  0  0  0  0  0  0  0  0  0  0  0
   -2.0573   -2.9743   -9.1411 C   0  0  0  0  0  0  0  0  0  0  0  0
   -1.2589   -4.0337   -8.7484 C   0  0  0  0  0  0  0  0  0  0  0  0
   -0.8680   -4.1593   -7.4277 C   0  0  0  0  0  0  0  0  0  0  0  0
   -1.2691   -3.2247   -6.4946 C   0  0  0  0  0  0  0  0  0  0  0  0
   -0.7647   -3.3826   -4.8137 S   0  0  0  0  0  0  0  0  0  0  0  0
   -1.9084   -3.1022   -4.0184 O   0  0  0  0  0  0  0  0  0  0  0  0
   -0.0515   -4.6079   -4.7172 O   0  0  0  0  0  0  0  0  0  0  0  0
    0.3276   -2.1745   -4.5147 N   0  0  0  0  0  0  0  0  0  0  0  0
    1.7255   -0.3180    2.8951 N   0  0  0  0  0  0  0  0  0  0  0  0
    2.1036    0.8609    0.7054 H   0  0  0  0  0  0  0  0  0  0  0  0
    1.5811    2.2553   -1.2495 H   0  0  0  0  0  0  0  0  0  0  0  0
   -0.6392    3.2842   -1.4782 H   0  0  0  0  0  0  0  0  0  0  0  0
   -1.8515    1.5018    2.2249 H   0  0  0  0  0  0  0  0  0  0  0  0
   -2.6036    4.1693    2.0522 H   0  0  0  0  0  0  0  0  0  0  0  0
   -4.8224    5.1949    1.8062 H   0  0  0  0  0  0  0  0  0  0  0  0
   -6.2204    4.6798   -0.1493 H   0  0  0  0  0  0  0  0  0  0  0  0
   -5.4104    3.1411   -1.8839 H   0  0  0  0  0  0  0  0  0  0  0  0
   -4.5460    2.1995   -3.2400 H   0  0  0  0  0  0  0  0  0  0  0  0
   -1.2472    1.0743   -3.6813 H   0  0  0  0  0  0  0  0  0  0  0  0
   -0.5166   -0.5982   -5.3285 H   0  0  0  0  0  0  0  0  0  0  0  0
   -4.6104   -1.4935   -6.2253 H   0  0  0  0  0  0  0  0  0  0  0  0
   -5.3339    0.1734   -4.5692 H   0  0  0  0  0  0  0  0  0  0  0  0
   -3.0916   -1.2101   -8.5235 H   0  0  0  0  0  0  0  0  0  0  0  0
   -2.3594   -2.8808  -10.1738 H   0  0  0  0  0  0  0  0  0  0  0  0
   -0.9392   -4.7650   -9.4760 H   0  0  0  0  0  0  0  0  0  0  0  0
   -0.2443   -4.9881   -7.1268 H   0  0  0  0  0  0  0  0  0  0  0  0
    0.4205   -1.8155   -3.6183 H   0  0  0  0  0  0  0  0  0  0  0  0
    0.8745   -1.8255   -5.2359 H   0  0  0  0  0  0  0  0  0  0  0  0
    2.3970   -0.1683    2.2113 H   0  0  0  0  0  0  0  0  0  0  0  0
    1.9332   -0.8681    3.6666 H   0  0  0  0  0  0  0  0  0  0  0  0
   -0.4825    0.0849    3.6679 N   0  3  0  0  0  0  0  0  0  0  0  0
   -1.3974    0.5301    3.5295 H   0  0  0  0  0  0  0  0  0  0  0  0
  1 56  1  0  0  0  0
  2  3  1  0  0  0  0
  2 34  1  0  0  0  0
  2 56  2  0  0  0  0
  3  8  2  0  0  0  0
  3  4  1  0  0  0  0
  4  5  2  0  0  0  0
  4 35  1  0  0  0  0
  5  6  1  0  0  0  0
  5 36  1  0  0  0  0
  6  7  2  0  0  0  0
  6 37  1  0  0  0  0
  7  8  1  0  0  0  0
  7  9  1  0  0  0  0
  8 38  1  0  0  0  0
  9 14  2  0  0  0  0
  9 10  1  0  0  0  0
 10 11  2  0  0  0  0
 10 39  1  0  0  0  0
 11 12  1  0  0  0  0
 11 40  1  0  0  0  0
 12 13  2  0  0  0  0
 12 41  1  0  0  0  0
 13 14  1  0  0  0  0
 13 42  1  0  0  0  0
 14 15  1  0  0  0  0
 15 16  2  0  0  0  0
 15 17  1  0  0  0  0
 17 18  1  0  0  0  0
 17 43  1  0  0  0  0
 18 23  2  0  0  0  0
 18 19  1  0  0  0  0
 19 20  2  0  0  0  0
 19 44  1  0  0  0  0
 20 21  1  0  0  0  0
 20 45  1  0  0  0  0
 21 22  2  0  0  0  0
 21 24  1  0  0  0  0
 22 23  1  0  0  0  0
 22 46  1  0  0  0  0
 23 47  1  0  0  0  0
 24 29  2  0  0  0  0
 24 25  1  0  0  0  0
 25 26  2  0  0  0  0
 25 48  1  0  0  0  0
 26 27  1  0  0  0  0
 26 49  1  0  0  0  0
 27 28  2  0  0  0  0
 27 50  1  0  0  0  0
 28 29  1  0  0  0  0
 28 51  1  0  0  0  0
 29 30  1  0  0  0  0
 30 31  2  0  0  0  0
 30 32  2  0  0  0  0
 30 33  1  0  0  0  0
 33 52  1  0  0  0  0
 33 53  1  0  0  0  0
 34 54  1  0  0  0  0
 34 55  1  0  0  0  0
 56 57  1  0  0  0  0
M  CHG  1  56   1
M  END
$$$$
ZINC03815588
  -OEChem-08230709403D

 50 54  0     0  0  0  0  0  0999 V2000
    1.1577   11.3214   -3.4126 C   0  0  0  0  0  0  0  0  0  0  0  0
    2.2273   12.0108   -2.8696 C   0  0  0  0  0  0  0  0  0  0  0  0
    3.0682   11.3906   -1.9635 C   0  0  0  0  0  0  0  0  0  0  0  0
    2.8412   10.0808   -1.5919 C   0  0  0  0  0  0  0  0  0  0  0  0
    1.7683    9.3801   -2.1393 C   0  0  0  0  0  0  0  0  0  0  0  0
    0.9241   10.0101   -3.0521 C   0  0  0  0  0  0  0  0  0  0  0  0
    1.5220    7.9707   -1.7475 C   0  0  0  0  0  0  0  0  0  0  0  0
    2.4783    6.9935   -2.0191 C   0  0  0  0  0  0  0  0  0  0  0  0
    2.2504    5.6846   -1.6501 C   0  0  0  0  0  0  0  0  0  0  0  0
    1.0636    5.3362   -1.0171 C   0  0  0  0  0  0  0  0  0  0  0  0
    0.1066    6.3094   -0.7445 C   0  0  0  0  0  0  0  0  0  0  0  0
    0.3337    7.6218   -1.1077 C   0  0  0  0  0  0  0  0  0  0  0  0
   -1.0443    5.9698   -0.1239 F   0  0  0  0  0  0  0  0  0  0  0  0
    0.8329    4.0074   -0.6484 N   0  0  0  0  0  0  0  0  0  0  0  0
    1.3066    3.0038   -1.4132 C   0  0  0  0  0  0  0  0  0  0  0  0
    2.0070    3.2515   -2.3756 O   0  0  0  0  0  0  0  0  0  0  0  0
    0.9749    1.6035   -1.0823 C   0  0  0  0  0  0  0  0  0  0  0  0
    0.1459    1.1858   -0.1425 N   0  0  0  0  0  0  0  0  0  0  0  0
    0.1299   -0.1018   -0.1723 N   0  0  0  0  0  0  0  0  0  0  0  0
    0.9177   -0.5274   -1.0960 N   0  0  0  0  0  0  0  0  0  0  0  0
    1.4624    0.4825   -1.6860 N   0  0  0  0  0  0  0  0  0  0  0  0
    2.3793    0.4360   -2.7444 C   0  0  0  0  0  0  0  0  0  0  0  0
    2.1524   -0.4164   -3.8234 C   0  0  0  0  0  0  0  0  0  0  0  0
    3.0420   -0.4675   -4.8727 C   0  0  0  0  0  0  0  0  0  0  0  0
    4.1837    0.3258   -4.8565 C   0  0  0  0  0  0  0  0  0  0  0  0
    4.4188    1.1813   -3.7692 C   0  0  0  0  0  0  0  0  0  0  0  0
    3.5101    1.2321   -2.7128 C   0  0  0  0  0  0  0  0  0  0  0  0
    5.6870    1.8721   -4.0504 C   0  0  0  0  0  0  0  0  0  0  0  0
    6.1187    1.4341   -5.2004 N   0  0  0  0  0  0  0  0  0  0  0  0
    5.2114    0.4817   -5.7170 O   0  0  0  0  0  0  0  0  0  0  0  0
    6.3080    2.8140   -3.2425 N   0  0  0  0  0  0  0  0  0  0  0  0
    3.9092    9.2945   -0.4318 S   0  0  0  0  0  0  0  0  0  0  0  0
    4.3337    8.0777   -1.0305 O   0  0  0  0  0  0  0  0  0  0  0  0
    4.8258   10.2853    0.0126 O   0  0  0  0  0  0  0  0  0  0  0  0
    2.9872    8.8802    0.8799 N   0  0  0  0  0  0  0  0  0  0  0  0
    0.5043   11.8106   -4.1197 H   0  0  0  0  0  0  0  0  0  0  0  0
    2.4060   13.0372   -3.1540 H   0  0  0  0  0  0  0  0  0  0  0  0
    3.9019   11.9334   -1.5429 H   0  0  0  0  0  0  0  0  0  0  0  0
    0.0885    9.4731   -3.4761 H   0  0  0  0  0  0  0  0  0  0  0  0
    3.3996    7.2623   -2.5144 H   0  0  0  0  0  0  0  0  0  0  0  0
    2.9936    4.9287   -1.8568 H   0  0  0  0  0  0  0  0  0  0  0  0
   -0.4087    8.3773   -0.8967 H   0  0  0  0  0  0  0  0  0  0  0  0
    0.3318    3.8078    0.1578 H   0  0  0  0  0  0  0  0  0  0  0  0
    1.2697   -1.0384   -3.8385 H   0  0  0  0  0  0  0  0  0  0  0  0
    2.8555   -1.1279   -5.7067 H   0  0  0  0  0  0  0  0  0  0  0  0
    3.6879    1.8897   -1.8747 H   0  0  0  0  0  0  0  0  0  0  0  0
    5.9026    3.0735   -2.4003 H   0  0  0  0  0  0  0  0  0  0  0  0
    7.1475    3.2130   -3.5199 H   0  0  0  0  0  0  0  0  0  0  0  0
    2.0394    9.0862    0.8910 H   0  0  0  0  0  0  0  0  0  0  0  0
    3.3949    8.4315    1.6370 H   0  0  0  0  0  0  0  0  0  0  0  0
  1  6  2  0  0  0  0
  1  2  1  0  0  0  0
  1 36  1  0  0  0  0
  2  3  2  0  0  0  0
  2 37  1  0  0  0  0
  3  4  1  0  0  0  0
  3 38  1  0  0  0  0
  4  5  2  0  0  0  0
  4 32  1  0  0  0  0
  5  6  1  0  0  0  0
  5  7  1  0  0  0  0
  6 39  1  0  0  0  0
  7 12  2  0  0  0  0
  7  8  1  0  0  0  0
  8  9  2  0  0  0  0
  8 40  1  0  0  0  0
  9 10  1  0  0  0  0
  9 41  1  0  0  0  0
 10 11  2  0  0  0  0
 10 14  1  0  0  0  0
 11 12  1  0  0  0  0
 11 13  1  0  0  0  0
 12 42  1  0  0  0  0
 14 15  1  0  0  0  0
 14 43  1  0  0  0  0
 15 16  2  0  0  0  0
 15 17  1  0  0  0  0
 17 21  1  0  0  0  0
 17 18  2  0  0  0  0
 18 19  1  0  0  0  0
 19 20  2  0  0  0  0
 20 21  1  0  0  0  0
 21 22  1  0  0  0  0
 22 27  2  0  0  0  0
 22 23  1  0  0  0  0
 23 24  2  0  0  0  0
 23 44  1  0  0  0  0
 24 25  1  0  0  0  0
 24 45  1  0  0  0  0
 25 30  1  0  0  0  0
 25 26  2  0  0  0  0
 26 27  1  0  0  0  0
 26 28  1  0  0  0  0
 27 46  1  0  0  0  0
 28 29  2  0  0  0  0
 28 31  1  0  0  0  0
 29 30  1  0  0  0  0
 31 47  1  0  0  0  0
 31 48  1  0  0  0  0
 32 33  2  0  0  0  0
 32 34  2  0  0  0  0
 32 35  1  0  0  0  0
 35 49  1  0  0  0  0
 35 50  1  0  0  0  0
M  END
$$$$
ZINC03815589
  -OEChem-08230709403D

 67 71  0     1  0  0  0  0  0999 V2000
    4.9015    9.7390    1.8891 H   0  0  0  0  0  0  0  0  0  0  0  0
    5.5611    8.4431    3.3018 C   0  0  0  0  0  0  0  0  0  0  0  0
    6.4516    8.3420    4.5134 C   0  0  0  0  0  0  0  0  0  0  0  0
    4.8101    7.3657    2.9119 N   0  0  0  0  0  0  0  0  0  0  0  0
    4.7969    6.1334    3.7121 C   0  0  0  0  0  0  0  0  0  0  0  0
    5.1542    4.9523    2.8043 C   0  0  0  0  0  0  0  0  0  0  0  0
    4.2060    4.9320    1.6033 C   0  0  0  0  0  0  0  0  0  0  0  0
    4.3695    6.2246    0.8006 C   0  0  0  0  0  0  0  0  0  0  0  0
    4.0029    7.4203    1.6855 C   0  0  0  0  0  0  0  0  0  0  0  0
    4.5159    3.8124    0.7710 O   0  0  0  0  0  0  0  0  0  0  0  0
    3.5224    3.3470   -0.0330 C   0  0  0  0  0  0  0  0  0  0  0  0
    2.3087    4.0220   -0.0933 C   0  0  0  0  0  0  0  0  0  0  0  0
    1.2970    3.5583   -0.9089 C   0  0  0  0  0  0  0  0  0  0  0  0
    1.4877    2.4148   -1.6724 C   0  0  0  0  0  0  0  0  0  0  0  0
    2.7054    1.7239   -1.6153 C   0  0  0  0  0  0  0  0  0  0  0  0
    3.7252    2.2069   -0.7846 C   0  0  0  0  0  0  0  0  0  0  0  0
    2.9374    0.5042   -2.4034 C   0  0  0  0  0  0  0  0  0  0  0  0
    3.8648   -0.2215   -2.1000 O   0  0  0  0  0  0  0  0  0  0  0  0
    2.1619    0.1624   -3.4477 N   0  0  0  0  0  0  0  0  0  0  0  0
    0.9043    1.1512   -3.8922 S   0  0  0  0  0  0  0  0  0  0  0  0
    1.4373    2.1214   -4.7831 O   0  0  0  0  0  0  0  0  0  0  0  0
   -0.1828    0.3050   -4.2406 O   0  0  0  0  0  0  0  0  0  0  0  0
    0.4649    1.9586   -2.5055 N   0  0  3  0  0  0  0  0  0  0  0  0
   -0.9437    2.1822   -2.1709 C   0  0  0  0  0  0  0  0  0  0  0  0
   -1.4024    1.1273   -1.1975 C   0  0  0  0  0  0  0  0  0  0  0  0
   -1.9051   -0.0798   -1.6796 C   0  0  0  0  0  0  0  0  0  0  0  0
   -2.3225   -1.0560   -0.8274 C   0  0  0  0  0  0  0  0  0  0  0  0
   -2.2584   -0.8434    0.5600 C   0  0  0  0  0  0  0  0  0  0  0  0
   -2.6871   -1.8305    1.4661 C   0  0  0  0  0  0  0  0  0  0  0  0
   -2.6151   -1.6025    2.8024 C   0  0  0  0  0  0  0  0  0  0  0  0
   -2.1158   -0.3867    3.3005 C   0  0  0  0  0  0  0  0  0  0  0  0
   -1.6860    0.6036    2.4354 C   0  0  0  0  0  0  0  0  0  0  0  0
   -1.7524    0.3869    1.0505 C   0  0  0  0  0  0  0  0  0  0  0  0
   -1.3252    1.3694    0.1394 C   0  0  0  0  0  0  0  0  0  0  0  0
   -2.0485   -0.1645    4.7624 C   0  0  0  0  0  0  0  0  0  0  0  0
   -1.5029    1.2002    6.1715 H   0  0  0  0  0  0  0  0  0  0  0  0
   -2.4742   -1.1477    5.6291 N   0  0  0  0  0  0  0  0  0  0  0  0
    7.4076    7.9043    4.2263 H   0  0  0  0  0  0  0  0  0  0  0  0
    6.6170    9.3370    4.9267 H   0  0  0  0  0  0  0  0  0  0  0  0
    5.9740    7.7118    5.2636 H   0  0  0  0  0  0  0  0  0  0  0  0
    3.8033    5.9824    4.1341 H   0  0  0  0  0  0  0  0  0  0  0  0
    5.5294    6.2115    4.5154 H   0  0  0  0  0  0  0  0  0  0  0  0
    5.0544    4.0213    3.3625 H   0  0  0  0  0  0  0  0  0  0  0  0
    6.1813    5.0588    2.4553 H   0  0  0  0  0  0  0  0  0  0  0  0
    3.1773    4.8499    1.9541 H   0  0  0  0  0  0  0  0  0  0  0  0
    5.4039    6.3197    0.4706 H   0  0  0  0  0  0  0  0  0  0  0  0
    3.7110    6.1995   -0.0677 H   0  0  0  0  0  0  0  0  0  0  0  0
    2.9446    7.3742    1.9423 H   0  0  0  0  0  0  0  0  0  0  0  0
    4.2115    8.3474    1.1518 H   0  0  0  0  0  0  0  0  0  0  0  0
    2.1575    4.9122    0.4994 H   0  0  0  0  0  0  0  0  0  0  0  0
    0.3572    4.0882   -0.9566 H   0  0  0  0  0  0  0  0  0  0  0  0
    4.6704    1.6871   -0.7325 H   0  0  0  0  0  0  0  0  0  0  0  0
    2.3363   -0.6563   -3.9380 H   0  0  0  0  0  0  0  0  0  0  0  0
   -1.0578    3.1677   -1.7192 H   0  0  0  0  0  0  0  0  0  0  0  0
   -1.5458    2.1263   -3.0778 H   0  0  0  0  0  0  0  0  0  0  0  0
   -1.9600   -0.2453   -2.7454 H   0  0  0  0  0  0  0  0  0  0  0  0
   -2.7058   -1.9878   -1.2162 H   0  0  0  0  0  0  0  0  0  0  0  0
   -3.0730   -2.7698    1.0985 H   0  0  0  0  0  0  0  0  0  0  0  0
   -2.9461   -2.3652    3.4918 H   0  0  0  0  0  0  0  0  0  0  0  0
   -1.3026    1.5360    2.8228 H   0  0  0  0  0  0  0  0  0  0  0  0
   -0.9380    2.3113    0.4990 H   0  0  0  0  0  0  0  0  0  0  0  0
   -2.8181   -1.9852    5.2811 H   0  0  0  0  0  0  0  0  0  0  0  0
   -2.4301   -1.0020    6.5871 H   0  0  0  0  0  0  0  0  0  0  0  0
    5.5551    9.5893    2.6578 N   0  3  0  0  0  0  0  0  0  0  0  0
    6.2084   10.3337    2.9285 H   0  0  0  0  0  0  0  0  0  0  0  0
   -1.5693    0.9997    5.1735 N   0  3  0  0  0  0  0  0  0  0  0  0
   -1.2646    1.7004    4.4877 H   0  0  0  0  0  0  0  0  0  0  0  0
  1 64  1  0  0  0  0
  2  3  1  0  0  0  0
  2  4  1  0  0  0  0
  2 64  2  0  0  0  0
  3 38  1  0  0  0  0
  3 39  1  0  0  0  0
  3 40  1  0  0  0  0
  4  9  1  0  0  0  0
  4  5  1  0  0  0  0
  5  6  1  0  0  0  0
  5 41  1  0  0  0  0
  5 42  1  0  0  0  0
  6  7  1  0  0  0  0
  6 43  1  0  0  0  0
  6 44  1  0  0  0  0
  7  8  1  0  0  0  0
  7 10  1  0  0  0  0
  7 45  1  0  0  0  0
  8  9  1  0  0  0  0
  8 46  1  0  0  0  0
  8 47  1  0  0  0  0
  9 48  1  0  0  0  0
  9 49  1  0  0  0  0
 10 11  1  0  0  0  0
 11 16  2  0  0  0  0
 11 12  1  0  0  0  0
 12 13  2  0  0  0  0
 12 50  1  0  0  0  0
 13 14  1  0  0  0  0
 13 51  1  0  0  0  0
 14 23  1  0  0  0  0
 14 15  2  0  0  0  0
 15 16  1  0  0  0  0
 15 17  1  0  0  0  0
 16 52  1  0  0  0  0
 17 18  2  0  0  0  0
 17 19  1  0  0  0  0
 19 20  1  0  0  0  0
 19 53  1  0  0  0  0
 20 21  2  0  0  0  0
 20 22  2  0  0  0  0
 20 23  1  0  0  0  0
 23 24  1  0  0  0  0
 24 25  1  0  0  0  0
 24 54  1  0  0  0  0
 24 55  1  0  0  0  0
 25 34  2  0  0  0  0
 25 26  1  0  0  0  0
 26 27  2  0  0  0  0
 26 56  1  0  0  0  0
 27 28  1  0  0  0  0
 27 57  1  0  0  0  0
 28 33  2  0  0  0  0
 28 29  1  0  0  0  0
 29 30  2  0  0  0  0
 29 58  1  0  0  0  0
 30 31  1  0  0  0  0
 30 59  1  0  0  0  0
 31 32  2  0  0  0  0
 31 35  1  0  0  0  0
 32 33  1  0  0  0  0
 32 60  1  0  0  0  0
 33 34  1  0  0  0  0
 34 61  1  0  0  0  0
 35 37  1  0  0  0  0
 35 66  2  0  0  0  0
 36 66  1  0  0  0  0
 37 62  1  0  0  0  0
 37 63  1  0  0  0  0
 64 65  1  0  0  0  0
 66 67  1  0  0  0  0
M  CHG  2  64   1  66   1
M  END
$$$$
ZINC03815591
  -OEChem-08230709403D

 47 48  0     1  0  0  0  0  0999 V2000
    1.3888    3.6235    2.6456 H   0  0  0  0  0  0  0  0  0  0  0  0
    0.6764    1.7486    2.3002 C   0  0  0  0  0  0  0  0  0  0  0  0
   -0.5663    0.9419    2.2895 C   0  0  0  0  0  0  0  0  0  0  0  0
   -0.5168   -0.4107    1.9514 C   0  0  0  0  0  0  0  0  0  0  0  0
   -1.6712   -1.1626    1.9468 C   0  0  0  0  0  0  0  0  0  0  0  0
   -2.8925   -0.5680    2.2693 C   0  0  0  0  0  0  0  0  0  0  0  0
   -2.9423    0.7870    2.6021 C   0  0  0  0  0  0  0  0  0  0  0  0
   -1.7864    1.5366    2.6119 C   0  0  0  0  0  0  0  0  0  0  0  0
   -4.1333   -1.3732    2.2581 C   0  0  0  0  0  0  0  0  0  0  0  0
   -5.1964   -0.8552    2.5386 O   0  0  0  0  0  0  0  0  0  0  0  0
   -4.0849   -2.6812    1.9369 N   0  0  0  0  0  0  0  0  0  0  0  0
   -5.3137   -3.4787    1.9257 C   0  0  1  0  0  0  0  0  0  0  0  0
   -6.1443   -2.8614    1.5837 H   0  0  0  0  0  0  0  0  0  0  0  0
   -5.1403   -4.6696    0.9811 C   0  0  0  0  0  0  0  0  0  0  0  0
   -4.1293   -5.5402    1.4927 O   0  0  0  0  0  0  0  0  0  0  0  0
   -3.8501   -6.6551    0.7672 C   0  0  0  0  0  0  0  0  0  0  0  0
   -4.5405   -6.9076   -0.4106 C   0  0  0  0  0  0  0  0  0  0  0  0
   -4.2563   -8.0370   -1.1550 C   0  0  0  0  0  0  0  0  0  0  0  0
   -3.2921   -8.9268   -0.7260 C   0  0  0  0  0  0  0  0  0  0  0  0
   -2.5977   -8.6840    0.4588 C   0  0  0  0  0  0  0  0  0  0  0  0
   -2.8809   -7.5418    1.2059 C   0  0  0  0  0  0  0  0  0  0  0  0
   -1.5630   -9.6370    0.9219 C   0  0  0  0  0  0  0  0  0  0  0  0
   -0.2208   -9.9731    2.4152 H   0  0  0  0  0  0  0  0  0  0  0  0
   -1.2848  -10.7652    0.1818 N   0  0  0  0  0  0  0  0  0  0  0  0
   -5.6002   -3.9795    3.3179 C   0  0  0  0  0  0  0  0  0  0  0  0
   -4.8544   -3.6991    4.2263 O   0  0  0  0  0  0  0  0  0  0  0  0
    1.8816    1.1614    1.9819 N   0  0  0  0  0  0  0  0  0  0  0  0
    0.4273   -0.8695    1.6972 H   0  0  0  0  0  0  0  0  0  0  0  0
   -1.6321   -2.2108    1.6896 H   0  0  0  0  0  0  0  0  0  0  0  0
   -3.8867    1.2473    2.8520 H   0  0  0  0  0  0  0  0  0  0  0  0
   -1.8248    2.5847    2.8696 H   0  0  0  0  0  0  0  0  0  0  0  0
   -3.2363   -3.0946    1.7131 H   0  0  0  0  0  0  0  0  0  0  0  0
   -6.0823   -5.2125    0.9041 H   0  0  0  0  0  0  0  0  0  0  0  0
   -4.8460   -4.3111   -0.0053 H   0  0  0  0  0  0  0  0  0  0  0  0
   -5.2990   -6.2169   -0.7485 H   0  0  0  0  0  0  0  0  0  0  0  0
   -4.7933   -8.2262   -2.0727 H   0  0  0  0  0  0  0  0  0  0  0  0
   -3.0758   -9.8108   -1.3075 H   0  0  0  0  0  0  0  0  0  0  0  0
   -2.3460   -7.3486    2.1240 H   0  0  0  0  0  0  0  0  0  0  0  0
   -1.7666  -10.9355   -0.6426 H   0  0  0  0  0  0  0  0  0  0  0  0
   -0.6070  -11.3894    0.4852 H   0  0  0  0  0  0  0  0  0  0  0  0
    1.9165    0.2200    1.7506 H   0  0  0  0  0  0  0  0  0  0  0  0
    2.6947    1.6904    1.9850 H   0  0  0  0  0  0  0  0  0  0  0  0
    0.5618    3.0266    2.6241 N   0  3  0  0  0  0  0  0  0  0  0  0
   -0.3595    3.4175    2.8536 H   0  0  0  0  0  0  0  0  0  0  0  0
   -0.9415   -9.3476    2.0547 N   0  3  0  0  0  0  0  0  0  0  0  0
   -1.1849   -8.4937    2.5702 H   0  0  0  0  0  0  0  0  0  0  0  0
   -6.6839   -4.7371    3.5490 O   0  5  0  0  0  0  0  0  0  0  0  0
  1 43  1  0  0  0  0
  2  3  1  0  0  0  0
  2 27  1  0  0  0  0
  2 43  2  0  0  0  0
  3  8  2  0  0  0  0
  3  4  1  0  0  0  0
  4  5  2  0  0  0  0
  4 28  1  0  0  0  0
  5  6  1  0  0  0  0
  5 29  1  0  0  0  0
  6  7  2  0  0  0  0
  6  9  1  0  0  0  0
  7  8  1  0  0  0  0
  7 30  1  0  0  0  0
  8 31  1  0  0  0  0
  9 10  2  0  0  0  0
  9 11  1  0  0  0  0
 11 12  1  0  0  0  0
 11 32  1  0  0  0  0
 12 13  1  0  0  0  0
 12 14  1  0  0  0  0
 12 25  1  0  0  0  0
 14 15  1  0  0  0  0
 14 33  1  0  0  0  0
 14 34  1  0  0  0  0
 15 16  1  0  0  0  0
 16 21  2  0  0  0  0
 16 17  1  0  0  0  0
 17 18  2  0  0  0  0
 17 35  1  0  0  0  0
 18 19  1  0  0  0  0
 18 36  1  0  0  0  0
 19 20  2  0  0  0  0
 19 37  1  0  0  0  0
 20 21  1  0  0  0  0
 20 22  1  0  0  0  0
 21 38  1  0  0  0  0
 22 24  1  0  0  0  0
 22 45  2  0  0  0  0
 23 45  1  0  0  0  0
 24 39  1  0  0  0  0
 24 40  1  0  0  0  0
 25 26  2  0  0  0  0
 25 47  1  0  0  0  0
 27 41  1  0  0  0  0
 27 42  1  0  0  0  0
 43 44  1  0  0  0  0
 45 46  1  0  0  0  0
M  CHG  3  43   1  45   1  47  -1
M  END
$$$$
ZINC03815592
  -OEChem-08230709403D

 60 62  0     0  0  0  0  0  0999 V2000
   -3.6978    3.7929    7.3163 C   0  0  0  0  0  0  0  0  0  0  0  0
   -3.9485    5.0976    7.6827 C   0  0  0  0  0  0  0  0  0  0  0  0
   -3.5363    5.5629    8.9323 C   0  0  0  0  0  0  0  0  0  0  0  0
   -2.8730    4.7061    9.8119 C   0  0  0  0  0  0  0  0  0  0  0  0
   -2.6260    3.4003    9.4470 C   0  0  0  0  0  0  0  0  0  0  0  0
   -3.0393    2.9347    8.1980 C   0  0  0  0  0  0  0  0  0  0  0  0
   -2.7737    1.5321    7.8060 C   0  0  0  0  0  0  0  0  0  0  0  0
   -2.1959    0.7861    8.5718 O   0  0  0  0  0  0  0  0  0  0  0  0
   -3.1730    1.0824    6.5998 N   0  0  0  0  0  0  0  0  0  0  0  0
   -2.9102   -0.3057    6.2119 C   0  0  0  0  0  0  0  0  0  0  0  0
   -3.4615   -0.5556    4.8067 C   0  0  0  0  0  0  0  0  0  0  0  0
   -2.7430    0.2428    3.8643 O   0  0  0  0  0  0  0  0  0  0  0  0
   -3.1107    0.1386    2.5600 C   0  0  0  0  0  0  0  0  0  0  0  0
   -4.1437   -0.7101    2.1976 C   0  0  0  0  0  0  0  0  0  0  0  0
   -4.5140   -0.8184    0.8584 C   0  0  0  0  0  0  0  0  0  0  0  0
   -3.8452   -0.0673   -0.1083 C   0  0  0  0  0  0  0  0  0  0  0  0
   -2.8208    0.7794    0.2632 C   0  0  0  0  0  0  0  0  0  0  0  0
   -2.4542    0.8861    1.5922 C   0  0  0  0  0  0  0  0  0  0  0  0
   -1.3342    1.8125    1.9903 C   0  0  0  0  0  0  0  0  0  0  0  0
   -0.0447    1.0367    2.0691 C   0  0  0  0  0  0  0  0  0  0  0  0
   -0.0360   -0.1467    1.8269 O   0  0  0  0  0  0  0  0  0  0  0  0
    1.2213    1.7308    2.4399 C   0  0  0  0  0  0  0  0  0  0  0  0
    1.2125    2.9188    2.6831 O   0  0  0  0  0  0  0  0  0  0  0  0
   -5.6140   -1.7275    0.4629 C   0  0  0  0  0  0  0  0  0  0  0  0
   -6.9703   -3.0508    1.2070 H   0  0  0  0  0  0  0  0  0  0  0  0
   -5.9784   -1.8325   -0.8617 N   0  0  0  0  0  0  0  0  0  0  0  0
   -3.8022    6.9653    9.3245 C   0  0  0  0  0  0  0  0  0  0  0  0
   -3.5762    7.3317   10.4610 O   0  0  0  0  0  0  0  0  0  0  0  0
   -4.2951    7.8357    8.4212 N   0  0  0  0  0  0  0  0  0  0  0  0
   -4.7082    7.5051    7.0495 C   0  0  0  0  0  0  0  0  0  0  0  0
   -5.1800    8.8153    6.3846 C   0  0  0  0  0  0  0  0  0  0  0  0
   -4.4677    9.9062    7.2272 C   0  0  0  0  0  0  0  0  0  0  0  0
   -4.5033    9.2783    8.6429 C   0  0  0  0  0  0  0  0  0  0  0  0
   -4.0137    3.4338    6.3480 H   0  0  0  0  0  0  0  0  0  0  0  0
   -4.4614    5.7607    7.0020 H   0  0  0  0  0  0  0  0  0  0  0  0
   -2.5539    5.0663   10.7787 H   0  0  0  0  0  0  0  0  0  0  0  0
   -2.1126    2.7372   10.1277 H   0  0  0  0  0  0  0  0  0  0  0  0
   -3.6342    1.6778    5.9885 H   0  0  0  0  0  0  0  0  0  0  0  0
   -3.3968   -0.9786    6.9180 H   0  0  0  0  0  0  0  0  0  0  0  0
   -1.8356   -0.4875    6.2183 H   0  0  0  0  0  0  0  0  0  0  0  0
   -4.5180   -0.2889    4.7781 H   0  0  0  0  0  0  0  0  0  0  0  0
   -3.3458   -1.6093    4.5531 H   0  0  0  0  0  0  0  0  0  0  0  0
   -4.6579   -1.2896    2.9501 H   0  0  0  0  0  0  0  0  0  0  0  0
   -4.1288   -0.1486   -1.1472 H   0  0  0  0  0  0  0  0  0  0  0  0
   -2.3036    1.3601   -0.4862 H   0  0  0  0  0  0  0  0  0  0  0  0
   -1.5361    2.2151    2.8831 H   0  0  0  0  0  0  0  0  0  0  0  0
   -1.2368    2.6048    1.2481 H   0  0  0  0  0  0  0  0  0  0  0  0
   -5.5145   -1.3109   -1.5352 H   0  0  0  0  0  0  0  0  0  0  0  0
   -6.6990   -2.4279   -1.1208 H   0  0  0  0  0  0  0  0  0  0  0  0
   -3.8644    7.0903    6.4981 H   0  0  0  0  0  0  0  0  0  0  0  0
   -5.5280    6.7871    7.0721 H   0  0  0  0  0  0  0  0  0  0  0  0
   -6.2627    8.9195    6.4548 H   0  0  0  0  0  0  0  0  0  0  0  0
   -4.8563    8.8588    5.3447 H   0  0  0  0  0  0  0  0  0  0  0  0
   -5.0227   10.8440    7.2017 H   0  0  0  0  0  0  0  0  0  0  0  0
   -3.4414   10.0522    6.8902 H   0  0  0  0  0  0  0  0  0  0  0  0
   -5.4714    9.4542    9.1117 H   0  0  0  0  0  0  0  0  0  0  0  0
   -3.7025    9.6868    9.2593 H   0  0  0  0  0  0  0  0  0  0  0  0
    2.3739    1.0390    2.5049 O   0  5  0  0  0  0  0  0  0  0  0  0
   -6.2071   -2.4114    1.4291 N   0  3  0  0  0  0  0  0  0  0  0  0
   -5.8988   -2.2983    2.4020 H   0  0  0  0  0  0  0  0  0  0  0  0
  1  6  2  0  0  0  0
  1  2  1  0  0  0  0
  1 34  1  0  0  0  0
  2  3  2  0  0  0  0
  2 35  1  0  0  0  0
  3  4  1  0  0  0  0
  3 27  1  0  0  0  0
  4  5  2  0  0  0  0
  4 36  1  0  0  0  0
  5  6  1  0  0  0  0
  5 37  1  0  0  0  0
  6  7  1  0  0  0  0
  7  8  2  0  0  0  0
  7  9  1  0  0  0  0
  9 10  1  0  0  0  0
  9 38  1  0  0  0  0
 10 11  1  0  0  0  0
 10 39  1  0  0  0  0
 10 40  1  0  0  0  0
 11 12  1  0  0  0  0
 11 41  1  0  0  0  0
 11 42  1  0  0  0  0
 12 13  1  0  0  0  0
 13 18  2  0  0  0  0
 13 14  1  0  0  0  0
 14 15  2  0  0  0  0
 14 43  1  0  0  0  0
 15 16  1  0  0  0  0
 15 24  1  0  0  0  0
 16 17  2  0  0  0  0
 16 44  1  0  0  0  0
 17 18  1  0  0  0  0
 17 45  1  0  0  0  0
 18 19  1  0  0  0  0
 19 20  1  0  0  0  0
 19 46  1  0  0  0  0
 19 47  1  0  0  0  0
 20 21  2  0  0  0  0
 20 22  1  0  0  0  0
 22 23  2  0  0  0  0
 22 58  1  0  0  0  0
 24 26  1  0  0  0  0
 24 59  2  0  0  0  0
 25 59  1  0  0  0  0
 26 48  1  0  0  0  0
 26 49  1  0  0  0  0
 27 28  2  0  0  0  0
 27 29  1  0  0  0  0
 29 33  1  0  0  0  0
 29 30  1  0  0  0  0
 30 31  1  0  0  0  0
 30 50  1  0  0  0  0
 30 51  1  0  0  0  0
 31 32  1  0  0  0  0
 31 52  1  0  0  0  0
 31 53  1  0  0  0  0
 32 33  1  0  0  0  0
 32 54  1  0  0  0  0
 32 55  1  0  0  0  0
 33 56  1  0  0  0  0
 33 57  1  0  0  0  0
 59 60  1  0  0  0  0
M  CHG  2  58  -1  59   1
M  END
$$$$
ZINC03815593
  -OEChem-08230709403D

 71 75  0     0  0  0  0  0  0999 V2000
   -8.6262   -2.3120   -4.3005 H   0  0  0  0  0  0  0  0  0  0  0  0
   -7.5989   -0.5885   -3.9500 C   0  0  0  0  0  0  0  0  0  0  0  0
   -6.5811    0.0160   -3.0639 C   0  0  0  0  0  0  0  0  0  0  0  0
   -6.0125   -0.7382   -2.0356 C   0  0  0  0  0  0  0  0  0  0  0  0
   -5.0652   -0.1726   -1.2114 C   0  0  0  0  0  0  0  0  0  0  0  0
   -4.6746    1.1489   -1.4028 C   0  0  0  0  0  0  0  0  0  0  0  0
   -5.2438    1.9044   -2.4232 C   0  0  0  0  0  0  0  0  0  0  0  0
   -6.1873    1.3420   -3.2537 C   0  0  0  0  0  0  0  0  0  0  0  0
   -3.7165    1.7183   -0.5681 N   0  0  0  0  0  0  0  0  0  0  0  0
   -3.3042    3.1098   -0.7685 C   0  0  0  0  0  0  0  0  0  0  0  0
   -2.2648    3.4786    0.2586 C   0  0  0  0  0  0  0  0  0  0  0  0
   -2.5209    3.9821    1.4307 N   0  0  0  0  0  0  0  0  0  0  0  0
   -1.3585    4.2001    2.0976 C   0  0  0  0  0  0  0  0  0  0  0  0
   -1.0539    4.7177    3.3595 C   0  0  0  0  0  0  0  0  0  0  0  0
    0.2488    4.8153    3.7588 C   0  0  0  0  0  0  0  0  0  0  0  0
    1.2780    4.4058    2.9228 C   0  0  0  0  0  0  0  0  0  0  0  0
    1.0012    3.8926    1.6736 C   0  0  0  0  0  0  0  0  0  0  0  0
   -0.3168    3.7854    1.2509 C   0  0  0  0  0  0  0  0  0  0  0  0
   -0.9222    3.3310    0.0964 N   0  0  0  0  0  0  0  0  0  0  0  0
   -0.2443    2.7951   -1.0865 C   0  0  0  0  0  0  0  0  0  0  0  0
    0.5716    5.3738    5.1208 C   0  0  0  0  0  0  0  0  0  0  0  0
    1.3642    6.6811    5.1785 C   0  0  0  0  0  0  0  0  0  0  0  0
    2.0369    5.3602    5.5607 C   0  0  0  0  0  0  0  0  0  0  0  0
   -0.4753    5.1473    6.1809 C   0  0  0  0  0  0  0  0  0  0  0  0
   -1.1256    6.1510    6.6720 N   0  0  0  0  0  0  0  0  0  0  0  0
   -0.9540    7.4439    6.1207 O   0  0  0  0  0  0  0  0  0  0  0  0
   -1.7332    8.4567    6.7604 C   0  0  0  0  0  0  0  0  0  0  0  0
   -1.4738    9.7844    6.0965 C   0  0  0  0  0  0  0  0  0  0  0  0
   -0.7009    9.8561    5.1705 O   0  0  0  0  0  0  0  0  0  0  0  0
   -2.1012   10.8874    6.5340 O   0  0  0  0  0  0  0  0  0  0  0  0
   -1.8031   12.1315    5.8473 C   0  0  0  0  0  0  0  0  0  0  0  0
   -2.6061   13.2692    6.4813 C   0  0  0  0  0  0  0  0  0  0  0  0
   -0.7584    3.7785    6.6589 C   0  0  0  0  0  0  0  0  0  0  0  0
   -1.6482    3.5847    7.7160 C   0  0  0  0  0  0  0  0  0  0  0  0
   -1.9066    2.2957    8.1491 C   0  0  0  0  0  0  0  0  0  0  0  0
   -1.2593    1.2426    7.5187 C   0  0  0  0  0  0  0  0  0  0  0  0
   -0.3848    1.5073    6.4795 C   0  0  0  0  0  0  0  0  0  0  0  0
   -0.1598    2.7424    6.0827 N   0  0  0  0  0  0  0  0  0  0  0  0
   -8.1594    0.1571   -4.9647 N   0  0  0  0  0  0  0  0  0  0  0  0
   -6.3151   -1.7641   -1.8869 H   0  0  0  0  0  0  0  0  0  0  0  0
   -4.6248   -0.7557   -0.4161 H   0  0  0  0  0  0  0  0  0  0  0  0
   -4.9421    2.9314   -2.5668 H   0  0  0  0  0  0  0  0  0  0  0  0
   -6.6257    1.9275   -4.0484 H   0  0  0  0  0  0  0  0  0  0  0  0
   -3.3220    1.1936    0.1460 H   0  0  0  0  0  0  0  0  0  0  0  0
   -4.1693    3.7641   -0.6610 H   0  0  0  0  0  0  0  0  0  0  0  0
   -2.8842    3.2240   -1.7677 H   0  0  0  0  0  0  0  0  0  0  0  0
   -1.8471    5.0400    4.0178 H   0  0  0  0  0  0  0  0  0  0  0  0
    2.3028    4.4895    3.2532 H   0  0  0  0  0  0  0  0  0  0  0  0
    1.8059    3.5758    1.0268 H   0  0  0  0  0  0  0  0  0  0  0  0
   -0.1273    1.7165   -0.9808 H   0  0  0  0  0  0  0  0  0  0  0  0
    0.7371    3.2591   -1.1843 H   0  0  0  0  0  0  0  0  0  0  0  0
   -0.8383    3.0107   -1.9746 H   0  0  0  0  0  0  0  0  0  0  0  0
    1.6523    7.1373    4.2315 H   0  0  0  0  0  0  0  0  0  0  0  0
    1.1288    7.3773    5.9835 H   0  0  0  0  0  0  0  0  0  0  0  0
    2.2438    5.1880    6.6169 H   0  0  0  0  0  0  0  0  0  0  0  0
    2.7674    4.9475    4.8650 H   0  0  0  0  0  0  0  0  0  0  0  0
   -2.7912    8.2087    6.6759 H   0  0  0  0  0  0  0  0  0  0  0  0
   -1.4571    8.5167    7.8132 H   0  0  0  0  0  0  0  0  0  0  0  0
   -0.7380   12.3473    5.9323 H   0  0  0  0  0  0  0  0  0  0  0  0
   -2.0722   12.0393    4.7950 H   0  0  0  0  0  0  0  0  0  0  0  0
   -3.6712   13.0535    6.3962 H   0  0  0  0  0  0  0  0  0  0  0  0
   -2.3370   13.3615    7.5334 H   0  0  0  0  0  0  0  0  0  0  0  0
   -2.3822   14.2031    5.9657 H   0  0  0  0  0  0  0  0  0  0  0  0
   -2.1314    4.4281    8.1868 H   0  0  0  0  0  0  0  0  0  0  0  0
   -2.5935    2.1140    8.9625 H   0  0  0  0  0  0  0  0  0  0  0  0
   -1.4368    0.2257    7.8359 H   0  0  0  0  0  0  0  0  0  0  0  0
    0.1199    0.6894    5.9869 H   0  0  0  0  0  0  0  0  0  0  0  0
   -7.8863    1.0783   -5.0976 H   0  0  0  0  0  0  0  0  0  0  0  0
   -8.8271   -0.2395   -5.5461 H   0  0  0  0  0  0  0  0  0  0  0  0
   -7.9287   -1.8506   -3.7164 N   0  3  0  0  0  0  0  0  0  0  0  0
   -7.4822   -2.3639   -2.9474 H   0  0  0  0  0  0  0  0  0  0  0  0
  1 70  1  0  0  0  0
  2  3  1  0  0  0  0
  2 39  1  0  0  0  0
  2 70  2  0  0  0  0
  3  8  2  0  0  0  0
  3  4  1  0  0  0  0
  4  5  2  0  0  0  0
  4 40  1  0  0  0  0
  5  6  1  0  0  0  0
  5 41  1  0  0  0  0
  6  7  2  0  0  0  0
  6  9  1  0  0  0  0
  7  8  1  0  0  0  0
  7 42  1  0  0  0  0
  8 43  1  0  0  0  0
  9 10  1  0  0  0  0
  9 44  1  0  0  0  0
 10 11  1  0  0  0  0
 10 45  1  0  0  0  0
 10 46  1  0  0  0  0
 11 19  1  0  0  0  0
 11 12  2  0  0  0  0
 12 13  1  0  0  0  0
 13 18  2  0  0  0  0
 13 14  1  0  0  0  0
 14 15  2  0  0  0  0
 14 47  1  0  0  0  0
 15 16  1  0  0  0  0
 15 21  1  0  0  0  0
 16 17  2  0  0  0  0
 16 48  1  0  0  0  0
 17 18  1  0  0  0  0
 17 49  1  0  0  0  0
 18 19  1  0  0  0  0
 19 20  1  0  0  0  0
 20 50  1  0  0  0  0
 20 51  1  0  0  0  0
 20 52  1  0  0  0  0
 21 23  1  0  0  0  0
 21 22  1  0  0  0  0
 21 24  1  0  0  0  0
 22 23  1  0  0  0  0
 22 53  1  0  0  0  0
 22 54  1  0  0  0  0
 23 55  1  0  0  0  0
 23 56  1  0  0  0  0
 24 25  2  0  0  0  0
 24 33  1  0  0  0  0
 25 26  1  0  0  0  0
 26 27  1  0  0  0  0
 27 28  1  0  0  0  0
 27 57  1  0  0  0  0
 27 58  1  0  0  0  0
 28 29  2  0  0  0  0
 28 30  1  0  0  0  0
 30 31  1  0  0  0  0
 31 32  1  0  0  0  0
 31 59  1  0  0  0  0
 31 60  1  0  0  0  0
 32 61  1  0  0  0  0
 32 62  1  0  0  0  0
 32 63  1  0  0  0  0
 33 38  2  0  0  0  0
 33 34  1  0  0  0  0
 34 35  2  0  0  0  0
 34 64  1  0  0  0  0
 35 36  1  0  0  0  0
 35 65  1  0  0  0  0
 36 37  2  0  0  0  0
 36 66  1  0  0  0  0
 37 38  1  0  0  0  0
 37 67  1  0  0  0  0
 39 68  1  0  0  0  0
 39 69  1  0  0  0  0
 70 71  1  0  0  0  0
M  CHG  1  70   1
M  END
$$$$
ZINC03815593
  -OEChem-08230709403D

 72 76  0     0  0  0  0  0  0999 V2000
   -8.6262   -2.3120   -4.3005 H   0  0  0  0  0  0  0  0  0  0  0  0
   -7.5989   -0.5885   -3.9500 C   0  0  0  0  0  0  0  0  0  0  0  0
   -6.5811    0.0160   -3.0639 C   0  0  0  0  0  0  0  0  0  0  0  0
   -6.0125   -0.7382   -2.0356 C   0  0  0  0  0  0  0  0  0  0  0  0
   -5.0652   -0.1726   -1.2114 C   0  0  0  0  0  0  0  0  0  0  0  0
   -4.6746    1.1489   -1.4028 C   0  0  0  0  0  0  0  0  0  0  0  0
   -5.2438    1.9044   -2.4232 C   0  0  0  0  0  0  0  0  0  0  0  0
   -6.1873    1.3420   -3.2537 C   0  0  0  0  0  0  0  0  0  0  0  0
   -3.7165    1.7183   -0.5681 N   0  0  0  0  0  0  0  0  0  0  0  0
   -3.3042    3.1098   -0.7685 C   0  0  0  0  0  0  0  0  0  0  0  0
   -2.2648    3.4786    0.2586 C   0  0  0  0  0  0  0  0  0  0  0  0
   -1.3585    4.2001    2.0976 C   0  0  0  0  0  0  0  0  0  0  0  0
   -1.0539    4.7177    3.3595 C   0  0  0  0  0  0  0  0  0  0  0  0
    0.2488    4.8153    3.7588 C   0  0  0  0  0  0  0  0  0  0  0  0
    1.2780    4.4058    2.9228 C   0  0  0  0  0  0  0  0  0  0  0  0
    1.0012    3.8926    1.6736 C   0  0  0  0  0  0  0  0  0  0  0  0
   -0.3168    3.7854    1.2509 C   0  0  0  0  0  0  0  0  0  0  0  0
   -0.9222    3.3310    0.0964 N   0  0  0  0  0  0  0  0  0  0  0  0
   -0.2443    2.7951   -1.0865 C   0  0  0  0  0  0  0  0  0  0  0  0
    0.5716    5.3738    5.1208 C   0  0  0  0  0  0  0  0  0  0  0  0
    1.3642    6.6811    5.1785 C   0  0  0  0  0  0  0  0  0  0  0  0
    2.0369    5.3602    5.5607 C   0  0  0  0  0  0  0  0  0  0  0  0
   -0.4753    5.1473    6.1809 C   0  0  0  0  0  0  0  0  0  0  0  0
   -1.1256    6.1510    6.6720 N   0  0  0  0  0  0  0  0  0  0  0  0
   -0.9540    7.4439    6.1207 O   0  0  0  0  0  0  0  0  0  0  0  0
   -1.7332    8.4567    6.7604 C   0  0  0  0  0  0  0  0  0  0  0  0
   -1.4738    9.7844    6.0965 C   0  0  0  0  0  0  0  0  0  0  0  0
   -0.7009    9.8561    5.1705 O   0  0  0  0  0  0  0  0  0  0  0  0
   -2.1012   10.8874    6.5340 O   0  0  0  0  0  0  0  0  0  0  0  0
   -1.8031   12.1315    5.8473 C   0  0  0  0  0  0  0  0  0  0  0  0
   -2.6061   13.2692    6.4813 C   0  0  0  0  0  0  0  0  0  0  0  0
   -0.7584    3.7785    6.6589 C   0  0  0  0  0  0  0  0  0  0  0  0
   -1.6482    3.5847    7.7160 C   0  0  0  0  0  0  0  0  0  0  0  0
   -1.9066    2.2957    8.1491 C   0  0  0  0  0  0  0  0  0  0  0  0
   -1.2593    1.2426    7.5187 C   0  0  0  0  0  0  0  0  0  0  0  0
   -0.3848    1.5073    6.4795 C   0  0  0  0  0  0  0  0  0  0  0  0
   -0.1598    2.7424    6.0827 N   0  0  0  0  0  0  0  0  0  0  0  0
   -8.1594    0.1571   -4.9647 N   0  0  0  0  0  0  0  0  0  0  0  0
   -6.3151   -1.7641   -1.8869 H   0  0  0  0  0  0  0  0  0  0  0  0
   -4.6248   -0.7557   -0.4161 H   0  0  0  0  0  0  0  0  0  0  0  0
   -4.9421    2.9314   -2.5668 H   0  0  0  0  0  0  0  0  0  0  0  0
   -6.6257    1.9275   -4.0484 H   0  0  0  0  0  0  0  0  0  0  0  0
   -3.3220    1.1936    0.1460 H   0  0  0  0  0  0  0  0  0  0  0  0
   -4.1693    3.7641   -0.6610 H   0  0  0  0  0  0  0  0  0  0  0  0
   -2.8842    3.2240   -1.7677 H   0  0  0  0  0  0  0  0  0  0  0  0
   -1.8471    5.0400    4.0178 H   0  0  0  0  0  0  0  0  0  0  0  0
    2.3028    4.4895    3.2532 H   0  0  0  0  0  0  0  0  0  0  0  0
    1.8059    3.5758    1.0268 H   0  0  0  0  0  0  0  0  0  0  0  0
   -0.1273    1.7165   -0.9808 H   0  0  0  0  0  0  0  0  0  0  0  0
    0.7371    3.2591   -1.1843 H   0  0  0  0  0  0  0  0  0  0  0  0
   -0.8383    3.0107   -1.9746 H   0  0  0  0  0  0  0  0  0  0  0  0
    1.6523    7.1373    4.2315 H   0  0  0  0  0  0  0  0  0  0  0  0
    1.1288    7.3773    5.9835 H   0  0  0  0  0  0  0  0  0  0  0  0
    2.2438    5.1880    6.6169 H   0  0  0  0  0  0  0  0  0  0  0  0
    2.7674    4.9475    4.8650 H   0  0  0  0  0  0  0  0  0  0  0  0
   -2.7912    8.2087    6.6759 H   0  0  0  0  0  0  0  0  0  0  0  0
   -1.4571    8.5167    7.8132 H   0  0  0  0  0  0  0  0  0  0  0  0
   -0.7380   12.3473    5.9323 H   0  0  0  0  0  0  0  0  0  0  0  0
   -2.0722   12.0393    4.7950 H   0  0  0  0  0  0  0  0  0  0  0  0
   -3.6712   13.0535    6.3962 H   0  0  0  0  0  0  0  0  0  0  0  0
   -2.3370   13.3615    7.5334 H   0  0  0  0  0  0  0  0  0  0  0  0
   -2.3822   14.2031    5.9657 H   0  0  0  0  0  0  0  0  0  0  0  0
   -2.1314    4.4281    8.1868 H   0  0  0  0  0  0  0  0  0  0  0  0
   -2.5935    2.1140    8.9625 H   0  0  0  0  0  0  0  0  0  0  0  0
   -1.4368    0.2257    7.8359 H   0  0  0  0  0  0  0  0  0  0  0  0
    0.1199    0.6894    5.9869 H   0  0  0  0  0  0  0  0  0  0  0  0
   -7.8863    1.0783   -5.0976 H   0  0  0  0  0  0  0  0  0  0  0  0
   -8.8271   -0.2395   -5.5461 H   0  0  0  0  0  0  0  0  0  0  0  0
   -7.9287   -1.8506   -3.7164 N   0  3  0  0  0  0  0  0  0  0  0  0
   -7.4822   -2.3639   -2.9474 H   0  0  0  0  0  0  0  0  0  0  0  0
   -2.5219    3.9823    1.4311 N   0  3  0  0  0  0  0  0  0  0  0  0
   -3.4601    4.1840    1.7961 H   0  0  0  0  0  0  0  0  0  0  0  0
  1 69  1  0  0  0  0
  2  3  1  0  0  0  0
  2 38  1  0  0  0  0
  2 69  2  0  0  0  0
  3  8  2  0  0  0  0
  3  4  1  0  0  0  0
  4  5  2  0  0  0  0
  4 39  1  0  0  0  0
  5  6  1  0  0  0  0
  5 40  1  0  0  0  0
  6  7  2  0  0  0  0
  6  9  1  0  0  0  0
  7  8  1  0  0  0  0
  7 41  1  0  0  0  0
  8 42  1  0  0  0  0
  9 10  1  0  0  0  0
  9 43  1  0  0  0  0
 10 11  1  0  0  0  0
 10 44  1  0  0  0  0
 10 45  1  0  0  0  0
 11 18  1  0  0  0  0
 11 71  2  0  0  0  0
 12 17  2  0  0  0  0
 12 13  1  0  0  0  0
 12 71  1  0  0  0  0
 13 14  2  0  0  0  0
 13 46  1  0  0  0  0
 14 15  1  0  0  0  0
 14 20  1  0  0  0  0
 15 16  2  0  0  0  0
 15 47  1  0  0  0  0
 16 17  1  0  0  0  0
 16 48  1  0  0  0  0
 17 18  1  0  0  0  0
 18 19  1  0  0  0  0
 19 49  1  0  0  0  0
 19 50  1  0  0  0  0
 19 51  1  0  0  0  0
 20 22  1  0  0  0  0
 20 21  1  0  0  0  0
 20 23  1  0  0  0  0
 21 22  1  0  0  0  0
 21 52  1  0  0  0  0
 21 53  1  0  0  0  0
 22 54  1  0  0  0  0
 22 55  1  0  0  0  0
 23 24  2  0  0  0  0
 23 32  1  0  0  0  0
 24 25  1  0  0  0  0
 25 26  1  0  0  0  0
 26 27  1  0  0  0  0
 26 56  1  0  0  0  0
 26 57  1  0  0  0  0
 27 28  2  0  0  0  0
 27 29  1  0  0  0  0
 29 30  1  0  0  0  0
 30 31  1  0  0  0  0
 30 58  1  0  0  0  0
 30 59  1  0  0  0  0
 31 60  1  0  0  0  0
 31 61  1  0  0  0  0
 31 62  1  0  0  0  0
 32 37  2  0  0  0  0
 32 33  1  0  0  0  0
 33 34  2  0  0  0  0
 33 63  1  0  0  0  0
 34 35  1  0  0  0  0
 34 64  1  0  0  0  0
 35 36  2  0  0  0  0
 35 65  1  0  0  0  0
 36 37  1  0  0  0  0
 36 66  1  0  0  0  0
 38 67  1  0  0  0  0
 38 68  1  0  0  0  0
 69 70  1  0  0  0  0
 71 72  1  0  0  0  0
M  CHG  2  69   1  71   1
M  END
$$$$
ZINC03815594
  -OEChem-08230709403D

 58 62  0     0  0  0  0  0  0999 V2000
   12.1720   -4.6931  -11.2705 H   0  0  0  0  0  0  0  0  0  0  0  0
   10.1939   -4.2950  -10.9921 C   0  0  0  0  0  0  0  0  0  0  0  0
    9.2418   -3.6550  -10.0592 C   0  0  0  0  0  0  0  0  0  0  0  0
    9.7072   -3.0542   -8.8880 C   0  0  0  0  0  0  0  0  0  0  0  0
    8.8182   -2.4592   -8.0207 C   0  0  0  0  0  0  0  0  0  0  0  0
    7.4575   -2.4563   -8.3108 C   0  0  0  0  0  0  0  0  0  0  0  0
    6.9905   -3.0592   -9.4745 C   0  0  0  0  0  0  0  0  0  0  0  0
    7.8757   -3.6506  -10.3479 C   0  0  0  0  0  0  0  0  0  0  0  0
    6.5609   -1.8540   -7.4321 N   0  0  0  0  0  0  0  0  0  0  0  0
    5.1278   -1.8502   -7.7363 C   0  0  0  0  0  0  0  0  0  0  0  0
    4.3823   -1.1413   -6.6350 C   0  0  0  0  0  0  0  0  0  0  0  0
    3.9004   -1.7156   -5.5716 N   0  0  0  0  0  0  0  0  0  0  0  0
    3.2899   -0.7888   -4.7892 C   0  0  0  0  0  0  0  0  0  0  0  0
    2.6259   -0.8509   -3.5612 C   0  0  0  0  0  0  0  0  0  0  0  0
    2.0998    0.2846   -3.0137 C   0  0  0  0  0  0  0  0  0  0  0  0
    2.2270    1.5063   -3.6595 C   0  0  0  0  0  0  0  0  0  0  0  0
    2.8827    1.5925   -4.8690 C   0  0  0  0  0  0  0  0  0  0  0  0
    3.4190    0.4479   -5.4435 C   0  0  0  0  0  0  0  0  0  0  0  0
    4.1146    0.1922   -6.6082 N   0  0  0  0  0  0  0  0  0  0  0  0
    4.4937    1.1746   -7.6267 C   0  0  0  0  0  0  0  0  0  0  0  0
    1.3795    0.2109   -1.6921 C   0  0  0  0  0  0  0  0  0  0  0  0
   -0.0451   -0.0389   -1.9256 N   0  0  0  0  0  0  0  0  0  0  0  0
   -1.0120    0.9033   -2.0931 C   0  0  0  0  0  0  0  0  0  0  0  0
   -2.1659    0.3319   -2.2789 N   0  0  0  0  0  0  0  0  0  0  0  0
   -2.0182   -1.0175   -2.2433 C   0  0  0  0  0  0  0  0  0  0  0  0
   -0.6551   -1.2740   -2.0161 C   0  0  0  0  0  0  0  0  0  0  0  0
   -0.2037   -2.5837   -1.9313 C   0  0  0  0  0  0  0  0  0  0  0  0
   -1.0975   -3.6245   -2.0705 C   0  0  0  0  0  0  0  0  0  0  0  0
   -2.4429   -3.3708   -2.2951 C   0  0  0  0  0  0  0  0  0  0  0  0
   -2.9052   -2.0879   -2.3815 C   0  0  0  0  0  0  0  0  0  0  0  0
   -0.7802    2.3922   -2.0673 C   0  0  0  0  0  0  0  0  0  0  0  0
    9.7333   -4.8877  -12.1480 N   0  0  0  0  0  0  0  0  0  0  0  0
   10.7633   -3.0559   -8.6625 H   0  0  0  0  0  0  0  0  0  0  0  0
    9.1778   -1.9940   -7.1146 H   0  0  0  0  0  0  0  0  0  0  0  0
    5.9333   -3.0595   -9.6951 H   0  0  0  0  0  0  0  0  0  0  0  0
    7.5133   -4.1147  -11.2533 H   0  0  0  0  0  0  0  0  0  0  0  0
    6.8851   -1.4369   -6.6186 H   0  0  0  0  0  0  0  0  0  0  0  0
    4.7703   -2.8769   -7.8146 H   0  0  0  0  0  0  0  0  0  0  0  0
    4.9582   -1.3335   -8.6809 H   0  0  0  0  0  0  0  0  0  0  0  0
    2.5254   -1.7958   -3.0479 H   0  0  0  0  0  0  0  0  0  0  0  0
    1.8090    2.3958   -3.2115 H   0  0  0  0  0  0  0  0  0  0  0  0
    2.9785    2.5457   -5.3675 H   0  0  0  0  0  0  0  0  0  0  0  0
    5.4739    1.5866   -7.3870 H   0  0  0  0  0  0  0  0  0  0  0  0
    4.5319    0.6901   -8.6024 H   0  0  0  0  0  0  0  0  0  0  0  0
    3.7573    1.9779   -7.6486 H   0  0  0  0  0  0  0  0  0  0  0  0
    1.5004    1.1541   -1.1593 H   0  0  0  0  0  0  0  0  0  0  0  0
    1.7975   -0.5998   -1.0952 H   0  0  0  0  0  0  0  0  0  0  0  0
    0.8426   -2.7867   -1.7572 H   0  0  0  0  0  0  0  0  0  0  0  0
   -0.7478   -4.6442   -2.0044 H   0  0  0  0  0  0  0  0  0  0  0  0
   -3.1317   -4.1956   -2.4025 H   0  0  0  0  0  0  0  0  0  0  0  0
   -3.9545   -1.9018   -2.5567 H   0  0  0  0  0  0  0  0  0  0  0  0
   -0.8912    2.7595   -1.0471 H   0  0  0  0  0  0  0  0  0  0  0  0
    0.2266    2.6094   -2.4241 H   0  0  0  0  0  0  0  0  0  0  0  0
   -1.5082    2.8844   -2.7120 H   0  0  0  0  0  0  0  0  0  0  0  0
    8.7844   -4.8850  -12.3496 H   0  0  0  0  0  0  0  0  0  0  0  0
   10.3578   -5.3076  -12.7599 H   0  0  0  0  0  0  0  0  0  0  0  0
   11.4764   -4.2650  -10.6594 N   0  3  0  0  0  0  0  0  0  0  0  0
   11.7698   -3.8109   -9.7865 H   0  0  0  0  0  0  0  0  0  0  0  0
  1 57  1  0  0  0  0
  2  3  1  0  0  0  0
  2 32  1  0  0  0  0
  2 57  2  0  0  0  0
  3  8  2  0  0  0  0
  3  4  1  0  0  0  0
  4  5  2  0  0  0  0
  4 33  1  0  0  0  0
  5  6  1  0  0  0  0
  5 34  1  0  0  0  0
  6  7  2  0  0  0  0
  6  9  1  0  0  0  0
  7  8  1  0  0  0  0
  7 35  1  0  0  0  0
  8 36  1  0  0  0  0
  9 10  1  0  0  0  0
  9 37  1  0  0  0  0
 10 11  1  0  0  0  0
 10 38  1  0  0  0  0
 10 39  1  0  0  0  0
 11 19  1  0  0  0  0
 11 12  2  0  0  0  0
 12 13  1  0  0  0  0
 13 18  2  0  0  0  0
 13 14  1  0  0  0  0
 14 15  2  0  0  0  0
 14 40  1  0  0  0  0
 15 16  1  0  0  0  0
 15 21  1  0  0  0  0
 16 17  2  0  0  0  0
 16 41  1  0  0  0  0
 17 18  1  0  0  0  0
 17 42  1  0  0  0  0
 18 19  1  0  0  0  0
 19 20  1  0  0  0  0
 20 43  1  0  0  0  0
 20 44  1  0  0  0  0
 20 45  1  0  0  0  0
 21 22  1  0  0  0  0
 21 46  1  0  0  0  0
 21 47  1  0  0  0  0
 22 26  1  0  0  0  0
 22 23  1  0  0  0  0
 23 24  2  0  0  0  0
 23 31  1  0  0  0  0
 24 25  1  0  0  0  0
 25 30  2  0  0  0  0
 25 26  1  0  0  0  0
 26 27  2  0  0  0  0
 27 28  1  0  0  0  0
 27 48  1  0  0  0  0
 28 29  2  0  0  0  0
 28 49  1  0  0  0  0
 29 30  1  0  0  0  0
 29 50  1  0  0  0  0
 30 51  1  0  0  0  0
 31 52  1  0  0  0  0
 31 53  1  0  0  0  0
 31 54  1  0  0  0  0
 32 55  1  0  0  0  0
 32 56  1  0  0  0  0
 57 58  1  0  0  0  0
M  CHG  1  57   1
M  END
$$$$
ZINC03815594
  -OEChem-08230709403D

 59 63  0     0  0  0  0  0  0999 V2000
   12.1720   -4.6931  -11.2705 H   0  0  0  0  0  0  0  0  0  0  0  0
   10.1939   -4.2950  -10.9921 C   0  0  0  0  0  0  0  0  0  0  0  0
    9.2418   -3.6550  -10.0592 C   0  0  0  0  0  0  0  0  0  0  0  0
    9.7072   -3.0542   -8.8880 C   0  0  0  0  0  0  0  0  0  0  0  0
    8.8182   -2.4592   -8.0207 C   0  0  0  0  0  0  0  0  0  0  0  0
    7.4575   -2.4563   -8.3108 C   0  0  0  0  0  0  0  0  0  0  0  0
    6.9905   -3.0592   -9.4745 C   0  0  0  0  0  0  0  0  0  0  0  0
    7.8757   -3.6506  -10.3479 C   0  0  0  0  0  0  0  0  0  0  0  0
    6.5609   -1.8540   -7.4321 N   0  0  0  0  0  0  0  0  0  0  0  0
    5.1278   -1.8502   -7.7363 C   0  0  0  0  0  0  0  0  0  0  0  0
    4.3823   -1.1413   -6.6350 C   0  0  0  0  0  0  0  0  0  0  0  0
    3.2899   -0.7888   -4.7892 C   0  0  0  0  0  0  0  0  0  0  0  0
    2.6259   -0.8509   -3.5612 C   0  0  0  0  0  0  0  0  0  0  0  0
    2.0998    0.2846   -3.0137 C   0  0  0  0  0  0  0  0  0  0  0  0
    2.2270    1.5063   -3.6595 C   0  0  0  0  0  0  0  0  0  0  0  0
    2.8827    1.5925   -4.8690 C   0  0  0  0  0  0  0  0  0  0  0  0
    3.4190    0.4479   -5.4435 C   0  0  0  0  0  0  0  0  0  0  0  0
    4.1146    0.1922   -6.6082 N   0  0  0  0  0  0  0  0  0  0  0  0
    4.4937    1.1746   -7.6267 C   0  0  0  0  0  0  0  0  0  0  0  0
    1.3795    0.2109   -1.6921 C   0  0  0  0  0  0  0  0  0  0  0  0
   -0.0451   -0.0389   -1.9256 N   0  0  0  0  0  0  0  0  0  0  0  0
   -1.0120    0.9033   -2.0931 C   0  0  0  0  0  0  0  0  0  0  0  0
   -2.1659    0.3319   -2.2789 N   0  0  0  0  0  0  0  0  0  0  0  0
   -2.0182   -1.0175   -2.2433 C   0  0  0  0  0  0  0  0  0  0  0  0
   -0.6551   -1.2740   -2.0161 C   0  0  0  0  0  0  0  0  0  0  0  0
   -0.2037   -2.5837   -1.9313 C   0  0  0  0  0  0  0  0  0  0  0  0
   -1.0975   -3.6245   -2.0705 C   0  0  0  0  0  0  0  0  0  0  0  0
   -2.4429   -3.3708   -2.2951 C   0  0  0  0  0  0  0  0  0  0  0  0
   -2.9052   -2.0879   -2.3815 C   0  0  0  0  0  0  0  0  0  0  0  0
   -0.7802    2.3922   -2.0673 C   0  0  0  0  0  0  0  0  0  0  0  0
    9.7333   -4.8877  -12.1480 N   0  0  0  0  0  0  0  0  0  0  0  0
   10.7633   -3.0559   -8.6625 H   0  0  0  0  0  0  0  0  0  0  0  0
    9.1778   -1.9940   -7.1146 H   0  0  0  0  0  0  0  0  0  0  0  0
    5.9333   -3.0595   -9.6951 H   0  0  0  0  0  0  0  0  0  0  0  0
    7.5133   -4.1147  -11.2533 H   0  0  0  0  0  0  0  0  0  0  0  0
    6.8851   -1.4369   -6.6186 H   0  0  0  0  0  0  0  0  0  0  0  0
    4.7703   -2.8769   -7.8146 H   0  0  0  0  0  0  0  0  0  0  0  0
    4.9582   -1.3335   -8.6809 H   0  0  0  0  0  0  0  0  0  0  0  0
    2.5254   -1.7958   -3.0479 H   0  0  0  0  0  0  0  0  0  0  0  0
    1.8090    2.3958   -3.2115 H   0  0  0  0  0  0  0  0  0  0  0  0
    2.9785    2.5457   -5.3675 H   0  0  0  0  0  0  0  0  0  0  0  0
    5.4739    1.5866   -7.3870 H   0  0  0  0  0  0  0  0  0  0  0  0
    4.5319    0.6901   -8.6024 H   0  0  0  0  0  0  0  0  0  0  0  0
    3.7573    1.9779   -7.6486 H   0  0  0  0  0  0  0  0  0  0  0  0
    1.5004    1.1541   -1.1593 H   0  0  0  0  0  0  0  0  0  0  0  0
    1.7975   -0.5998   -1.0952 H   0  0  0  0  0  0  0  0  0  0  0  0
    0.8426   -2.7867   -1.7572 H   0  0  0  0  0  0  0  0  0  0  0  0
   -0.7478   -4.6442   -2.0044 H   0  0  0  0  0  0  0  0  0  0  0  0
   -3.1317   -4.1956   -2.4025 H   0  0  0  0  0  0  0  0  0  0  0  0
   -3.9545   -1.9018   -2.5567 H   0  0  0  0  0  0  0  0  0  0  0  0
   -0.8912    2.7595   -1.0471 H   0  0  0  0  0  0  0  0  0  0  0  0
    0.2266    2.6094   -2.4241 H   0  0  0  0  0  0  0  0  0  0  0  0
   -1.5082    2.8844   -2.7120 H   0  0  0  0  0  0  0  0  0  0  0  0
    8.7844   -4.8850  -12.3496 H   0  0  0  0  0  0  0  0  0  0  0  0
   10.3578   -5.3076  -12.7599 H   0  0  0  0  0  0  0  0  0  0  0  0
   11.4764   -4.2650  -10.6594 N   0  3  0  0  0  0  0  0  0  0  0  0
   11.7698   -3.8109   -9.7865 H   0  0  0  0  0  0  0  0  0  0  0  0
    3.9005   -1.7167   -5.5714 N   0  3  0  0  0  0  0  0  0  0  0  0
    3.9711   -2.7182   -5.3565 H   0  0  0  0  0  0  0  0  0  0  0  0
  1 56  1  0  0  0  0
  2  3  1  0  0  0  0
  2 31  1  0  0  0  0
  2 56  2  0  0  0  0
  3  8  2  0  0  0  0
  3  4  1  0  0  0  0
  4  5  2  0  0  0  0
  4 32  1  0  0  0  0
  5  6  1  0  0  0  0
  5 33  1  0  0  0  0
  6  7  2  0  0  0  0
  6  9  1  0  0  0  0
  7  8  1  0  0  0  0
  7 34  1  0  0  0  0
  8 35  1  0  0  0  0
  9 10  1  0  0  0  0
  9 36  1  0  0  0  0
 10 11  1  0  0  0  0
 10 37  1  0  0  0  0
 10 38  1  0  0  0  0
 11 18  1  0  0  0  0
 11 58  2  0  0  0  0
 12 17  2  0  0  0  0
 12 13  1  0  0  0  0
 12 58  1  0  0  0  0
 13 14  2  0  0  0  0
 13 39  1  0  0  0  0
 14 15  1  0  0  0  0
 14 20  1  0  0  0  0
 15 16  2  0  0  0  0
 15 40  1  0  0  0  0
 16 17  1  0  0  0  0
 16 41  1  0  0  0  0
 17 18  1  0  0  0  0
 18 19  1  0  0  0  0
 19 42  1  0  0  0  0
 19 43  1  0  0  0  0
 19 44  1  0  0  0  0
 20 21  1  0  0  0  0
 20 45  1  0  0  0  0
 20 46  1  0  0  0  0
 21 25  1  0  0  0  0
 21 22  1  0  0  0  0
 22 23  2  0  0  0  0
 22 30  1  0  0  0  0
 23 24  1  0  0  0  0
 24 29  2  0  0  0  0
 24 25  1  0  0  0  0
 25 26  2  0  0  0  0
 26 27  1  0  0  0  0
 26 47  1  0  0  0  0
 27 28  2  0  0  0  0
 27 48  1  0  0  0  0
 28 29  1  0  0  0  0
 28 49  1  0  0  0  0
 29 50  1  0  0  0  0
 30 51  1  0  0  0  0
 30 52  1  0  0  0  0
 30 53  1  0  0  0  0
 31 54  1  0  0  0  0
 31 55  1  0  0  0  0
 56 57  1  0  0  0  0
 58 59  1  0  0  0  0
M  CHG  2  56   1  58   1
M  END
$$$$
ZINC03815595
  -OEChem-08230709403D

 78 82  0     0  0  0  0  0  0999 V2000
    0.7396   -1.3449   -0.3853 H   0  0  0  0  0  0  0  0  0  0  0  0
   -0.6284    0.1324   -0.0840 C   0  0  0  0  0  0  0  0  0  0  0  0
   -0.7692    1.6010    0.0441 C   0  0  0  0  0  0  0  0  0  0  0  0
   -2.0356    2.1772    0.1412 C   0  0  0  0  0  0  0  0  0  0  0  0
   -2.1601    3.5455    0.2662 C   0  0  0  0  0  0  0  0  0  0  0  0
   -1.0323    4.3469    0.2833 C   0  0  0  0  0  0  0  0  0  0  0  0
    0.2260    3.7819    0.1816 C   0  0  0  0  0  0  0  0  0  0  0  0
    0.3637    2.4138    0.0624 C   0  0  0  0  0  0  0  0  0  0  0  0
    1.4494    4.6618    0.2016 C   0  0  0  0  0  0  0  0  0  0  0  0
    1.7134    5.1617   -1.1499 N   0  0  0  0  0  0  0  0  0  0  0  0
    1.1672    6.2966   -1.7058 C   0  0  0  0  0  0  0  0  0  0  0  0
    0.2750    7.2531   -1.2293 C   0  0  0  0  0  0  0  0  0  0  0  0
   -0.1009    8.3048   -2.0330 C   0  0  0  0  0  0  0  0  0  0  0  0
    0.4050    8.4260   -3.3260 C   0  0  0  0  0  0  0  0  0  0  0  0
    1.2899    7.4908   -3.8183 C   0  0  0  0  0  0  0  0  0  0  0  0
    1.6812    6.4138   -3.0115 C   0  0  0  0  0  0  0  0  0  0  0  0
    2.5495    5.3139   -3.2145 C   0  0  0  0  0  0  0  0  0  0  0  0
    2.5560    4.5753   -2.0740 C   0  0  0  0  0  0  0  0  0  0  0  0
    3.3336    3.3459   -1.8589 C   0  0  0  0  0  0  0  0  0  0  0  0
    3.3242    2.8028   -0.7705 O   0  0  0  0  0  0  0  0  0  0  0  0
    4.0568    2.8209   -2.8678 N   0  0  0  0  0  0  0  0  0  0  0  0
    4.7401    1.5374   -2.6885 C   0  0  0  0  0  0  0  0  0  0  0  0
    5.5690    1.2347   -3.9102 C   0  0  0  0  0  0  0  0  0  0  0  0
    4.9902    0.6151   -5.0020 C   0  0  0  0  0  0  0  0  0  0  0  0
    5.7494    0.3414   -6.1242 C   0  0  0  0  0  0  0  0  0  0  0  0
    7.0897    0.6786   -6.1512 C   0  0  0  0  0  0  0  0  0  0  0  0
    7.6696    1.2940   -5.0576 C   0  0  0  0  0  0  0  0  0  0  0  0
    6.9093    1.5716   -3.9369 C   0  0  0  0  0  0  0  0  0  0  0  0
    7.8585    0.3979   -7.2844 N   0  3  0  0  0  0  0  0  0  0  0  0
    8.9629   -0.4984   -6.9172 C   0  0  0  0  0  0  0  0  0  0  0  0
    7.0171   -0.2518   -8.2984 C   0  0  0  0  0  0  0  0  0  0  0  0
    8.4034    1.6488   -7.8287 C   0  0  0  0  0  0  0  0  0  0  0  0
    0.0232    9.4723   -4.1062 O   0  0  0  0  0  0  0  0  0  0  0  0
   -0.8961   10.4055   -3.5355 C   0  0  0  0  0  0  0  0  0  0  0  0
   -1.2012   11.4878   -4.5390 C   0  0  0  0  0  0  0  0  0  0  0  0
   -0.4283   12.6332   -4.5767 C   0  0  0  0  0  0  0  0  0  0  0  0
   -0.7049   13.6235   -5.5006 C   0  0  0  0  0  0  0  0  0  0  0  0
   -1.7611   13.4732   -6.3796 C   0  0  0  0  0  0  0  0  0  0  0  0
   -2.5376   12.3303   -6.3381 C   0  0  0  0  0  0  0  0  0  0  0  0
   -2.2574   11.3374   -5.4179 C   0  0  0  0  0  0  0  0  0  0  0  0
   -1.7391   -0.6771    0.0124 N   0  0  0  0  0  0  0  0  0  0  0  0
   -2.9168    1.5531    0.1231 H   0  0  0  0  0  0  0  0  0  0  0  0
   -3.1400    3.9925    0.3462 H   0  0  0  0  0  0  0  0  0  0  0  0
   -1.1349    5.4180    0.3768 H   0  0  0  0  0  0  0  0  0  0  0  0
    1.3468    1.9737   -0.0161 H   0  0  0  0  0  0  0  0  0  0  0  0
    1.2807    5.5031    0.8737 H   0  0  0  0  0  0  0  0  0  0  0  0
    2.3062    4.0849    0.5496 H   0  0  0  0  0  0  0  0  0  0  0  0
   -0.1231    7.1688   -0.2289 H   0  0  0  0  0  0  0  0  0  0  0  0
   -0.7937    9.0436   -1.6580 H   0  0  0  0  0  0  0  0  0  0  0  0
    1.6801    7.5877   -4.8207 H   0  0  0  0  0  0  0  0  0  0  0  0
    3.1095    5.1022   -4.1134 H   0  0  0  0  0  0  0  0  0  0  0  0
    4.1249    3.2927   -3.7125 H   0  0  0  0  0  0  0  0  0  0  0  0
    5.3882    1.5899   -1.8137 H   0  0  0  0  0  0  0  0  0  0  0  0
    4.0010    0.7490   -2.5464 H   0  0  0  0  0  0  0  0  0  0  0  0
    3.9440    0.3479   -4.9794 H   0  0  0  0  0  0  0  0  0  0  0  0
    5.2961   -0.1391   -6.9788 H   0  0  0  0  0  0  0  0  0  0  0  0
    8.7167    1.5575   -5.0786 H   0  0  0  0  0  0  0  0  0  0  0  0
    7.3626    2.0521   -3.0824 H   0  0  0  0  0  0  0  0  0  0  0  0
    8.5585   -1.4267   -6.5134 H   0  0  0  0  0  0  0  0  0  0  0  0
    9.5624   -0.7174   -7.8009 H   0  0  0  0  0  0  0  0  0  0  0  0
    9.5872   -0.0165   -6.1649 H   0  0  0  0  0  0  0  0  0  0  0  0
    6.1976    0.4133   -8.5709 H   0  0  0  0  0  0  0  0  0  0  0  0
    7.6166   -0.4706   -9.1820 H   0  0  0  0  0  0  0  0  0  0  0  0
    6.6128   -1.1800   -7.8946 H   0  0  0  0  0  0  0  0  0  0  0  0
    9.0278    2.1309   -7.0764 H   0  0  0  0  0  0  0  0  0  0  0  0
    9.0029    1.4299   -8.7124 H   0  0  0  0  0  0  0  0  0  0  0  0
    7.5839    2.3139   -8.1013 H   0  0  0  0  0  0  0  0  0  0  0  0
   -1.8177    9.8894   -3.2663 H   0  0  0  0  0  0  0  0  0  0  0  0
   -0.4552   10.8509   -2.6437 H   0  0  0  0  0  0  0  0  0  0  0  0
    0.3942   12.7526   -3.8870 H   0  0  0  0  0  0  0  0  0  0  0  0
   -0.0980   14.5163   -5.5332 H   0  0  0  0  0  0  0  0  0  0  0  0
   -1.9795   14.2486   -7.0990 H   0  0  0  0  0  0  0  0  0  0  0  0
   -3.3628   12.2129   -7.0248 H   0  0  0  0  0  0  0  0  0  0  0  0
   -2.8640   10.4445   -5.3855 H   0  0  0  0  0  0  0  0  0  0  0  0
   -2.6133   -0.2851    0.1641 H   0  0  0  0  0  0  0  0  0  0  0  0
   -1.6470   -1.6391   -0.0716 H   0  0  0  0  0  0  0  0  0  0  0  0
    0.5912   -0.3401   -0.2903 N   0  3  0  0  0  0  0  0  0  0  0  0
    1.3875    0.3049   -0.3545 H   0  0  0  0  0  0  0  0  0  0  0  0
  1 77  1  0  0  0  0
  2  3  1  0  0  0  0
  2 41  1  0  0  0  0
  2 77  2  0  0  0  0
  3  8  2  0  0  0  0
  3  4  1  0  0  0  0
  4  5  2  0  0  0  0
  4 42  1  0  0  0  0
  5  6  1  0  0  0  0
  5 43  1  0  0  0  0
  6  7  2  0  0  0  0
  6 44  1  0  0  0  0
  7  8  1  0  0  0  0
  7  9  1  0  0  0  0
  8 45  1  0  0  0  0
  9 10  1  0  0  0  0
  9 46  1  0  0  0  0
  9 47  1  0  0  0  0
 10 18  1  0  0  0  0
 10 11  1  0  0  0  0
 11 16  2  0  0  0  0
 11 12  1  0  0  0  0
 12 13  2  0  0  0  0
 12 48  1  0  0  0  0
 13 14  1  0  0  0  0
 13 49  1  0  0  0  0
 14 15  2  0  0  0  0
 14 33  1  0  0  0  0
 15 16  1  0  0  0  0
 15 50  1  0  0  0  0
 16 17  1  0  0  0  0
 17 18  2  0  0  0  0
 17 51  1  0  0  0  0
 18 19  1  0  0  0  0
 19 20  2  0  0  0  0
 19 21  1  0  0  0  0
 21 22  1  0  0  0  0
 21 52  1  0  0  0  0
 22 23  1  0  0  0  0
 22 53  1  0  0  0  0
 22 54  1  0  0  0  0
 23 28  2  0  0  0  0
 23 24  1  0  0  0  0
 24 25  2  0  0  0  0
 24 55  1  0  0  0  0
 25 26  1  0  0  0  0
 25 56  1  0  0  0  0
 26 27  2  0  0  0  0
 26 29  1  0  0  0  0
 27 28  1  0  0  0  0
 27 57  1  0  0  0  0
 28 58  1  0  0  0  0
 29 30  1  0  0  0  0
 29 31  1  0  0  0  0
 29 32  1  0  0  0  0
 30 59  1  0  0  0  0
 30 60  1  0  0  0  0
 30 61  1  0  0  0  0
 31 62  1  0  0  0  0
 31 63  1  0  0  0  0
 31 64  1  0  0  0  0
 32 65  1  0  0  0  0
 32 66  1  0  0  0  0
 32 67  1  0  0  0  0
 33 34  1  0  0  0  0
 34 35  1  0  0  0  0
 34 68  1  0  0  0  0
 34 69  1  0  0  0  0
 35 40  2  0  0  0  0
 35 36  1  0  0  0  0
 36 37  2  0  0  0  0
 36 70  1  0  0  0  0
 37 38  1  0  0  0  0
 37 71  1  0  0  0  0
 38 39  2  0  0  0  0
 38 72  1  0  0  0  0
 39 40  1  0  0  0  0
 39 73  1  0  0  0  0
 40 74  1  0  0  0  0
 41 75  1  0  0  0  0
 41 76  1  0  0  0  0
 77 78  1  0  0  0  0
M  CHG  2  29   1  77   1
M  END
$$$$
ZINC03815596
  -OEChem-08230709403D

 61 64  0     0  0  0  0  0  0999 V2000
    5.8858   -0.8487   -2.7729 H   0  0  0  0  0  0  0  0  0  0  0  0
    4.0513   -1.1173   -3.6139 C   0  0  0  0  0  0  0  0  0  0  0  0
    2.6012   -1.0848   -3.3157 C   0  0  0  0  0  0  0  0  0  0  0  0
    1.6779   -1.4742   -4.2859 C   0  0  0  0  0  0  0  0  0  0  0  0
    0.3282   -1.4422   -4.0019 C   0  0  0  0  0  0  0  0  0  0  0  0
   -0.1099   -1.0304   -2.7558 C   0  0  0  0  0  0  0  0  0  0  0  0
    0.8005   -0.6376   -1.7914 C   0  0  0  0  0  0  0  0  0  0  0  0
    2.1533   -0.6653   -2.0636 C   0  0  0  0  0  0  0  0  0  0  0  0
    0.3148   -0.1845   -0.4387 C   0  0  0  0  0  0  0  0  0  0  0  0
   -0.0916    1.2211   -0.5115 N   0  0  0  0  0  0  0  0  0  0  0  0
    0.7398    2.3041   -0.3502 C   0  0  0  0  0  0  0  0  0  0  0  0
    2.1018    2.4291   -0.0902 C   0  0  0  0  0  0  0  0  0  0  0  0
    2.6653    3.6803    0.0210 C   0  0  0  0  0  0  0  0  0  0  0  0
    1.8878    4.8226   -0.1240 C   0  0  0  0  0  0  0  0  0  0  0  0
    0.5510    4.7256   -0.3792 C   0  0  0  0  0  0  0  0  0  0  0  0
   -0.0462    3.4637   -0.4968 C   0  0  0  0  0  0  0  0  0  0  0  0
   -1.3716    3.0349   -0.7504 C   0  0  0  0  0  0  0  0  0  0  0  0
   -1.3722    1.6763   -0.7595 C   0  0  0  0  0  0  0  0  0  0  0  0
   -2.5490    0.8258   -0.9928 C   0  0  0  0  0  0  0  0  0  0  0  0
   -3.6592    1.3215   -1.0335 O   0  0  0  0  0  0  0  0  0  0  0  0
   -2.3975   -0.5027   -1.1617 N   0  0  0  0  0  0  0  0  0  0  0  0
   -3.5659   -1.3449   -1.4298 C   0  0  0  0  0  0  0  0  0  0  0  0
   -3.1492   -2.7931   -1.4408 C   0  0  0  0  0  0  0  0  0  0  0  0
   -2.6660   -3.3645   -2.6031 C   0  0  0  0  0  0  0  0  0  0  0  0
   -2.2797   -4.6918   -2.6121 C   0  0  0  0  0  0  0  0  0  0  0  0
   -2.3853   -5.4501   -1.4611 C   0  0  0  0  0  0  0  0  0  0  0  0
   -2.8734   -4.8801   -0.3001 C   0  0  0  0  0  0  0  0  0  0  0  0
   -3.2556   -3.5517   -0.2901 C   0  0  0  0  0  0  0  0  0  0  0  0
   -2.9884   -5.7069    0.9546 C   0  0  0  0  0  0  0  0  0  0  0  0
   -1.7472   -5.3130   -3.8775 C   0  0  0  0  0  0  0  0  0  0  0  0
   -0.2811    5.9725   -0.5337 C   0  0  0  0  0  0  0  0  0  0  0  0
    4.4867   -1.4268   -4.8839 N   0  0  0  0  0  0  0  0  0  0  0  0
    2.0189   -1.8004   -5.2573 H   0  0  0  0  0  0  0  0  0  0  0  0
   -0.3877   -1.7432   -4.7525 H   0  0  0  0  0  0  0  0  0  0  0  0
   -1.1673   -1.0112   -2.5367 H   0  0  0  0  0  0  0  0  0  0  0  0
    2.8634   -0.3623   -1.3084 H   0  0  0  0  0  0  0  0  0  0  0  0
    1.1173   -0.2934    0.2907 H   0  0  0  0  0  0  0  0  0  0  0  0
   -0.5368   -0.7937   -0.1357 H   0  0  0  0  0  0  0  0  0  0  0  0
    2.7145    1.5472    0.0244 H   0  0  0  0  0  0  0  0  0  0  0  0
    3.7221    3.7747    0.2228 H   0  0  0  0  0  0  0  0  0  0  0  0
    2.3460    5.7965   -0.0342 H   0  0  0  0  0  0  0  0  0  0  0  0
   -2.2276    3.6733   -0.9116 H   0  0  0  0  0  0  0  0  0  0  0  0
   -1.5149   -0.9012   -1.1057 H   0  0  0  0  0  0  0  0  0  0  0  0
   -4.3132   -1.1878   -0.6521 H   0  0  0  0  0  0  0  0  0  0  0  0
   -3.9891   -1.0812   -2.3990 H   0  0  0  0  0  0  0  0  0  0  0  0
   -2.5871   -2.7730   -3.5033 H   0  0  0  0  0  0  0  0  0  0  0  0
   -2.0860   -6.4878   -1.4688 H   0  0  0  0  0  0  0  0  0  0  0  0
   -3.6370   -3.1065    0.6170 H   0  0  0  0  0  0  0  0  0  0  0  0
   -3.9703   -6.1787    0.9900 H   0  0  0  0  0  0  0  0  0  0  0  0
   -2.2157   -6.4756    0.9553 H   0  0  0  0  0  0  0  0  0  0  0  0
   -2.8624   -5.0642    1.8259 H   0  0  0  0  0  0  0  0  0  0  0  0
   -2.5727   -5.7359   -4.4501 H   0  0  0  0  0  0  0  0  0  0  0  0
   -1.2449   -4.5506   -4.4731 H   0  0  0  0  0  0  0  0  0  0  0  0
   -1.0386   -6.1018   -3.6248 H   0  0  0  0  0  0  0  0  0  0  0  0
   -0.6738    6.2700    0.4386 H   0  0  0  0  0  0  0  0  0  0  0  0
    0.3376    6.7745   -0.9366 H   0  0  0  0  0  0  0  0  0  0  0  0
   -1.1087    5.7750   -1.2150 H   0  0  0  0  0  0  0  0  0  0  0  0
    3.8433   -1.6235   -5.5827 H   0  0  0  0  0  0  0  0  0  0  0  0
    5.4366   -1.4481   -5.0793 H   0  0  0  0  0  0  0  0  0  0  0  0
    4.8777   -0.8394   -2.6173 N   0  3  0  0  0  0  0  0  0  0  0  0
    4.5037   -0.6145   -1.6879 H   0  0  0  0  0  0  0  0  0  0  0  0
  1 60  1  0  0  0  0
  2  3  1  0  0  0  0
  2 32  1  0  0  0  0
  2 60  2  0  0  0  0
  3  8  2  0  0  0  0
  3  4  1  0  0  0  0
  4  5  2  0  0  0  0
  4 33  1  0  0  0  0
  5  6  1  0  0  0  0
  5 34  1  0  0  0  0
  6  7  2  0  0  0  0
  6 35  1  0  0  0  0
  7  8  1  0  0  0  0
  7  9  1  0  0  0  0
  8 36  1  0  0  0  0
  9 10  1  0  0  0  0
  9 37  1  0  0  0  0
  9 38  1  0  0  0  0
 10 18  1  0  0  0  0
 10 11  1  0  0  0  0
 11 16  2  0  0  0  0
 11 12  1  0  0  0  0
 12 13  2  0  0  0  0
 12 39  1  0  0  0  0
 13 14  1  0  0  0  0
 13 40  1  0  0  0  0
 14 15  2  0  0  0  0
 14 41  1  0  0  0  0
 15 16  1  0  0  0  0
 15 31  1  0  0  0  0
 16 17  1  0  0  0  0
 17 18  2  0  0  0  0
 17 42  1  0  0  0  0
 18 19  1  0  0  0  0
 19 20  2  0  0  0  0
 19 21  1  0  0  0  0
 21 22  1  0  0  0  0
 21 43  1  0  0  0  0
 22 23  1  0  0  0  0
 22 44  1  0  0  0  0
 22 45  1  0  0  0  0
 23 28  2  0  0  0  0
 23 24  1  0  0  0  0
 24 25  2  0  0  0  0
 24 46  1  0  0  0  0
 25 26  1  0  0  0  0
 25 30  1  0  0  0  0
 26 27  2  0  0  0  0
 26 47  1  0  0  0  0
 27 28  1  0  0  0  0
 27 29  1  0  0  0  0
 28 48  1  0  0  0  0
 29 49  1  0  0  0  0
 29 50  1  0  0  0  0
 29 51  1  0  0  0  0
 30 52  1  0  0  0  0
 30 53  1  0  0  0  0
 30 54  1  0  0  0  0
 31 55  1  0  0  0  0
 31 56  1  0  0  0  0
 31 57  1  0  0  0  0
 32 58  1  0  0  0  0
 32 59  1  0  0  0  0
 60 61  1  0  0  0  0
M  CHG  1  60   1
M  END
$$$$
ZINC03815598
  -OEChem-08230709403D

 48 50  0     0  0  0  0  0  0999 V2000
    1.5748    7.9501    4.3737 H   0  0  0  0  0  0  0  0  0  0  0  0
   -0.4052    7.5154    4.5609 C   0  0  0  0  0  0  0  0  0  0  0  0
   -1.4813    6.6583    4.0128 C   0  0  0  0  0  0  0  0  0  0  0  0
   -2.7756    6.7471    4.5249 C   0  0  0  0  0  0  0  0  0  0  0  0
   -3.7768    5.9474    4.0119 C   0  0  0  0  0  0  0  0  0  0  0  0
   -3.5023    5.0611    2.9871 C   0  0  0  0  0  0  0  0  0  0  0  0
   -2.2156    4.9622    2.4749 C   0  0  0  0  0  0  0  0  0  0  0  0
   -1.2042    5.7607    2.9832 C   0  0  0  0  0  0  0  0  0  0  0  0
   -1.9495    4.0859    1.4708 O   0  0  0  0  0  0  0  0  0  0  0  0
   -2.7633    3.0079    1.3335 C   0  0  0  0  0  0  0  0  0  0  0  0
   -2.6114    2.1677    0.2375 C   0  0  0  0  0  0  0  0  0  0  0  0
   -3.4476    1.0686    0.1059 C   0  0  0  0  0  0  0  0  0  0  0  0
   -4.4138    0.8517    1.0773 C   0  0  0  0  0  0  0  0  0  0  0  0
   -4.5060    1.7298    2.1501 C   0  0  0  0  0  0  0  0  0  0  0  0
   -3.6921    2.7687    2.2450 N   0  0  0  0  0  0  0  0  0  0  0  0
   -5.4451    1.5228    3.1084 O   0  0  0  0  0  0  0  0  0  0  0  0
   -5.4100    2.3090    4.2163 C   0  0  0  0  0  0  0  0  0  0  0  0
   -4.2086    2.8645    4.6355 C   0  0  0  0  0  0  0  0  0  0  0  0
   -4.1687    3.6688    5.7591 C   0  0  0  0  0  0  0  0  0  0  0  0
   -5.3212    3.9160    6.4772 C   0  0  0  0  0  0  0  0  0  0  0  0
   -6.5316    3.3578    6.0665 C   0  0  0  0  0  0  0  0  0  0  0  0
   -6.5720    2.5513    4.9306 C   0  0  0  0  0  0  0  0  0  0  0  0
   -7.7697    3.6209    6.8353 C   0  0  0  0  0  0  0  0  0  0  0  0
   -9.7633    3.2120    6.8872 H   0  0  0  0  0  0  0  0  0  0  0  0
   -7.7272    4.4185    7.9579 N   0  0  0  0  0  0  0  0  0  0  0  0
   -5.2520   -0.2037    0.9841 F   0  0  0  0  0  0  0  0  0  0  0  0
   -3.3135    0.1348   -1.0694 C   0  0  0  0  0  0  0  0  0  0  0  0
   -1.6608    2.4182   -0.6893 F   0  0  0  0  0  0  0  0  0  0  0  0
   -0.6817    8.4021    5.5786 N   0  0  0  0  0  0  0  0  0  0  0  0
   -2.9944    7.4413    5.3229 H   0  0  0  0  0  0  0  0  0  0  0  0
   -4.7785    6.0173    4.4094 H   0  0  0  0  0  0  0  0  0  0  0  0
   -4.2903    4.4408    2.5863 H   0  0  0  0  0  0  0  0  0  0  0  0
   -0.2036    5.6876    2.5832 H   0  0  0  0  0  0  0  0  0  0  0  0
   -3.3031    2.6706    4.0798 H   0  0  0  0  0  0  0  0  0  0  0  0
   -3.2321    4.1017    6.0782 H   0  0  0  0  0  0  0  0  0  0  0  0
   -5.2858    4.5418    7.3567 H   0  0  0  0  0  0  0  0  0  0  0  0
   -7.5066    2.1168    4.6078 H   0  0  0  0  0  0  0  0  0  0  0  0
   -6.8863    4.8078    8.2447 H   0  0  0  0  0  0  0  0  0  0  0  0
   -8.5381    4.5908    8.4614 H   0  0  0  0  0  0  0  0  0  0  0  0
   -2.6127   -0.6624   -0.8218 H   0  0  0  0  0  0  0  0  0  0  0  0
   -2.9440    0.6881   -1.9327 H   0  0  0  0  0  0  0  0  0  0  0  0
   -4.2867   -0.2966   -1.3035 H   0  0  0  0  0  0  0  0  0  0  0  0
   -1.5812    8.4649    5.9361 H   0  0  0  0  0  0  0  0  0  0  0  0
    0.0232    8.9635    5.9377 H   0  0  0  0  0  0  0  0  0  0  0  0
    0.8004    7.3819    4.0301 N   0  3  0  0  0  0  0  0  0  0  0  0
    0.9559    6.7063    3.2726 H   0  0  0  0  0  0  0  0  0  0  0  0
   -8.8844    3.0606    6.3920 N   0  3  0  0  0  0  0  0  0  0  0  0
   -8.8643    2.4737    5.5497 H   0  0  0  0  0  0  0  0  0  0  0  0
  1 45  1  0  0  0  0
  2  3  1  0  0  0  0
  2 29  1  0  0  0  0
  2 45  2  0  0  0  0
  3  8  2  0  0  0  0
  3  4  1  0  0  0  0
  4  5  2  0  0  0  0
  4 30  1  0  0  0  0
  5  6  1  0  0  0  0
  5 31  1  0  0  0  0
  6  7  2  0  0  0  0
  6 32  1  0  0  0  0
  7  8  1  0  0  0  0
  7  9  1  0  0  0  0
  8 33  1  0  0  0  0
  9 10  1  0  0  0  0
 10 15  2  0  0  0  0
 10 11  1  0  0  0  0
 11 12  2  0  0  0  0
 11 28  1  0  0  0  0
 12 13  1  0  0  0  0
 12 27  1  0  0  0  0
 13 14  2  0  0  0  0
 13 26  1  0  0  0  0
 14 15  1  0  0  0  0
 14 16  1  0  0  0  0
 16 17  1  0  0  0  0
 17 22  2  0  0  0  0
 17 18  1  0  0  0  0
 18 19  2  0  0  0  0
 18 34  1  0  0  0  0
 19 20  1  0  0  0  0
 19 35  1  0  0  0  0
 20 21  2  0  0  0  0
 20 36  1  0  0  0  0
 21 22  1  0  0  0  0
 21 23  1  0  0  0  0
 22 37  1  0  0  0  0
 23 25  1  0  0  0  0
 23 47  2  0  0  0  0
 24 47  1  0  0  0  0
 25 38  1  0  0  0  0
 25 39  1  0  0  0  0
 27 40  1  0  0  0  0
 27 41  1  0  0  0  0
 27 42  1  0  0  0  0
 29 43  1  0  0  0  0
 29 44  1  0  0  0  0
 45 46  1  0  0  0  0
 47 48  1  0  0  0  0
M  CHG  2  45   1  47   1
M  END
$$$$
ZINC03815599
  -OEChem-08230709403D

 54 56  0     0  0  0  0  0  0999 V2000
    6.1024   -0.4165   -0.3147 H   0  0  0  0  0  0  0  0  0  0  0  0
    5.0247   -0.0533    1.3751 C   0  0  0  0  0  0  0  0  0  0  0  0
    3.6883    0.3659    1.8496 C   0  0  0  0  0  0  0  0  0  0  0  0
    3.4483    0.5192    3.2161 C   0  0  0  0  0  0  0  0  0  0  0  0
    2.2029    0.9102    3.6582 C   0  0  0  0  0  0  0  0  0  0  0  0
    1.1835    1.1528    2.7455 C   0  0  0  0  0  0  0  0  0  0  0  0
    1.4180    1.0011    1.3782 C   0  0  0  0  0  0  0  0  0  0  0  0
    2.6652    0.6093    0.9312 C   0  0  0  0  0  0  0  0  0  0  0  0
    0.4195    1.2394    0.4862 O   0  0  0  0  0  0  0  0  0  0  0  0
    0.4078    0.5194   -0.6646 C   0  0  0  0  0  0  0  0  0  0  0  0
   -0.5011    0.8390   -1.6661 C   0  0  0  0  0  0  0  0  0  0  0  0
   -0.5053    0.0975   -2.8381 C   0  0  0  0  0  0  0  0  0  0  0  0
    0.4041   -0.9423   -2.9673 C   0  0  0  0  0  0  0  0  0  0  0  0
    1.2844   -1.2065   -1.9258 C   0  0  0  0  0  0  0  0  0  0  0  0
    1.2654   -0.4758   -0.8227 N   0  0  0  0  0  0  0  0  0  0  0  0
    2.1776   -2.2223   -2.0428 O   0  0  0  0  0  0  0  0  0  0  0  0
    2.9060   -2.5608   -0.9466 C   0  0  0  0  0  0  0  0  0  0  0  0
    2.3842   -2.3559    0.3239 C   0  0  0  0  0  0  0  0  0  0  0  0
    3.1206   -2.6984    1.4425 C   0  0  0  0  0  0  0  0  0  0  0  0
    4.3795   -3.2469    1.3040 C   0  0  0  0  0  0  0  0  0  0  0  0
    4.9121   -3.4571    0.0312 C   0  0  0  0  0  0  0  0  0  0  0  0
    4.1660   -3.1155   -1.0972 C   0  0  0  0  0  0  0  0  0  0  0  0
    6.2603   -4.0451   -0.1211 C   0  0  0  0  0  0  0  0  0  0  0  0
    7.2462   -3.3451    0.0040 O   0  0  0  0  0  0  0  0  0  0  0  0
    6.3960   -5.3569   -0.3985 N   0  0  0  0  0  0  0  0  0  0  0  0
    7.7282   -5.9656   -0.4271 C   0  0  0  0  0  0  0  0  0  0  0  0
    5.2112   -6.1742   -0.6716 C   0  0  0  0  0  0  0  0  0  0  0  0
    0.4328   -1.6895   -4.0926 F   0  0  0  0  0  0  0  0  0  0  0  0
   -1.4762    0.4138   -3.9464 C   0  0  0  0  0  0  0  0  0  0  0  0
   -1.3704    1.8596   -1.4997 F   0  0  0  0  0  0  0  0  0  0  0  0
   -0.0740    1.5540    3.1962 N   0  0  0  0  0  0  0  0  0  0  0  0
    5.9998   -0.4041    2.2837 N   0  0  0  0  0  0  0  0  0  0  0  0
    4.2390    0.3312    3.9274 H   0  0  0  0  0  0  0  0  0  0  0  0
    2.0190    1.0285    4.7158 H   0  0  0  0  0  0  0  0  0  0  0  0
    2.8483    0.4910   -0.1265 H   0  0  0  0  0  0  0  0  0  0  0  0
    1.3997   -1.9270    0.4385 H   0  0  0  0  0  0  0  0  0  0  0  0
    2.7095   -2.5365    2.4280 H   0  0  0  0  0  0  0  0  0  0  0  0
    4.9520   -3.5137    2.1801 H   0  0  0  0  0  0  0  0  0  0  0  0
    4.5713   -3.2792   -2.0847 H   0  0  0  0  0  0  0  0  0  0  0  0
    7.9796   -6.3365    0.5666 H   0  0  0  0  0  0  0  0  0  0  0  0
    7.7342   -6.7935   -1.1361 H   0  0  0  0  0  0  0  0  0  0  0  0
    8.4619   -5.2199   -0.7330 H   0  0  0  0  0  0  0  0  0  0  0  0
    5.0236   -6.1950   -1.7451 H   0  0  0  0  0  0  0  0  0  0  0  0
    5.3794   -7.1895   -0.3124 H   0  0  0  0  0  0  0  0  0  0  0  0
    4.3488   -5.7462   -0.1604 H   0  0  0  0  0  0  0  0  0  0  0  0
   -1.0281    1.1385   -4.6262 H   0  0  0  0  0  0  0  0  0  0  0  0
   -1.7136   -0.4988   -4.4931 H   0  0  0  0  0  0  0  0  0  0  0  0
   -2.3894    0.8306   -3.5215 H   0  0  0  0  0  0  0  0  0  0  0  0
   -0.7848    1.7275    2.5594 H   0  0  0  0  0  0  0  0  0  0  0  0
   -0.2377    1.6597    4.1465 H   0  0  0  0  0  0  0  0  0  0  0  0
    5.7881   -0.4493    3.2293 H   0  0  0  0  0  0  0  0  0  0  0  0
    6.8979   -0.6059    1.9778 H   0  0  0  0  0  0  0  0  0  0  0  0
    5.2233   -0.0648    0.0648 N   0  3  0  0  0  0  0  0  0  0  0  0
    4.4923    0.2803   -0.5682 H   0  0  0  0  0  0  0  0  0  0  0  0
  1 53  1  0  0  0  0
  2  3  1  0  0  0  0
  2 32  1  0  0  0  0
  2 53  2  0  0  0  0
  3  8  2  0  0  0  0
  3  4  1  0  0  0  0
  4  5  2  0  0  0  0
  4 33  1  0  0  0  0
  5  6  1  0  0  0  0
  5 34  1  0  0  0  0
  6  7  2  0  0  0  0
  6 31  1  0  0  0  0
  7  8  1  0  0  0  0
  7  9  1  0  0  0  0
  8 35  1  0  0  0  0
  9 10  1  0  0  0  0
 10 15  2  0  0  0  0
 10 11  1  0  0  0  0
 11 12  2  0  0  0  0
 11 30  1  0  0  0  0
 12 13  1  0  0  0  0
 12 29  1  0  0  0  0
 13 14  2  0  0  0  0
 13 28  1  0  0  0  0
 14 15  1  0  0  0  0
 14 16  1  0  0  0  0
 16 17  1  0  0  0  0
 17 22  2  0  0  0  0
 17 18  1  0  0  0  0
 18 19  2  0  0  0  0
 18 36  1  0  0  0  0
 19 20  1  0  0  0  0
 19 37  1  0  0  0  0
 20 21  2  0  0  0  0
 20 38  1  0  0  0  0
 21 22  1  0  0  0  0
 21 23  1  0  0  0  0
 22 39  1  0  0  0  0
 23 24  2  0  0  0  0
 23 25  1  0  0  0  0
 25 26  1  0  0  0  0
 25 27  1  0  0  0  0
 26 40  1  0  0  0  0
 26 41  1  0  0  0  0
 26 42  1  0  0  0  0
 27 43  1  0  0  0  0
 27 44  1  0  0  0  0
 27 45  1  0  0  0  0
 29 46  1  0  0  0  0
 29 47  1  0  0  0  0
 29 48  1  0  0  0  0
 31 49  1  0  0  0  0
 31 50  1  0  0  0  0
 32 51  1  0  0  0  0
 32 52  1  0  0  0  0
 53 54  1  0  0  0  0
M  CHG  1  53   1
M  END
$$$$
ZINC03815600
  -OEChem-08230709403D

 65 68  0     0  0  0  0  0  0999 V2000
   -0.8690    2.4342   -0.1953 H   0  0  0  0  0  0  0  0  0  0  0  0
   -0.5988    0.4159   -0.2315 C   0  0  0  0  0  0  0  0  0  0  0  0
    0.4438   -0.6321   -0.1769 C   0  0  0  0  0  0  0  0  0  0  0  0
    0.0895   -1.9771   -0.2912 C   0  0  0  0  0  0  0  0  0  0  0  0
    1.0618   -2.9533   -0.2397 C   0  0  0  0  0  0  0  0  0  0  0  0
    2.3939   -2.6018   -0.0737 C   0  0  0  0  0  0  0  0  0  0  0  0
    2.7542   -1.2604    0.0406 C   0  0  0  0  0  0  0  0  0  0  0  0
    1.7826   -0.2779   -0.0056 C   0  0  0  0  0  0  0  0  0  0  0  0
    4.0601   -0.9185    0.2032 O   0  0  0  0  0  0  0  0  0  0  0  0
    4.3820    0.4001    0.1748 C   0  0  0  0  0  0  0  0  0  0  0  0
    5.5465    0.8081   -0.4594 C   0  0  0  0  0  0  0  0  0  0  0  0
    5.8673    2.1629   -0.4828 C   0  0  0  0  0  0  0  0  0  0  0  0
    4.9998    3.0601    0.1360 C   0  0  0  0  0  0  0  0  0  0  0  0
    3.8539    2.5777    0.7502 C   0  0  0  0  0  0  0  0  0  0  0  0
    3.5835    1.2813    0.7571 N   0  0  0  0  0  0  0  0  0  0  0  0
    3.0023    3.4438    1.3564 O   0  0  0  0  0  0  0  0  0  0  0  0
    2.4593    3.0768    2.5469 C   0  0  0  0  0  0  0  0  0  0  0  0
    2.6871    1.8034    3.0510 C   0  0  0  0  0  0  0  0  0  0  0  0
    2.1354    1.4285    4.2610 C   0  0  0  0  0  0  0  0  0  0  0  0
    1.3509    2.3172    4.9706 C   0  0  0  0  0  0  0  0  0  0  0  0
    1.1237    3.5947    4.4738 C   0  0  0  0  0  0  0  0  0  0  0  0
    1.6772    3.9732    3.2581 C   0  0  0  0  0  0  0  0  0  0  0  0
    0.3351    4.4950    5.1936 N   0  0  0  0  0  0  0  0  0  0  0  0
   -0.0073    5.7957    4.6129 C   0  0  0  0  0  0  0  0  0  0  0  0
   -0.1497    4.1387    6.5293 C   0  0  0  0  0  0  0  0  0  0  0  0
    5.2711    4.3836    0.1373 F   0  0  0  0  0  0  0  0  0  0  0  0
    6.9989    2.5992   -1.0948 O   0  0  0  0  0  0  0  0  0  0  0  0
    8.1338    2.6791   -0.3540 C   0  0  0  0  0  0  0  0  0  0  0  0
    8.1126    2.3196    0.9873 C   0  0  0  0  0  0  0  0  0  0  0  0
    9.2616    2.3979    1.7430 C   0  0  0  0  0  0  0  0  0  0  0  0
   10.4525    2.8404    1.1603 C   0  0  0  0  0  0  0  0  0  0  0  0
   10.4740    3.2027   -0.1897 C   0  0  0  0  0  0  0  0  0  0  0  0
    9.3197    3.1163   -0.9431 C   0  0  0  0  0  0  0  0  0  0  0  0
    9.3384    3.4622   -2.2582 O   0  0  0  0  0  0  0  0  0  0  0  0
   10.5876    3.9012   -2.7957 C   0  0  0  0  0  0  0  0  0  0  0  0
   11.6834    2.9254    1.9680 C   0  0  0  0  0  0  0  0  0  0  0  0
   12.7181    3.3102    1.4600 O   0  0  0  0  0  0  0  0  0  0  0  0
    6.3586   -0.0976   -1.0473 F   0  0  0  0  0  0  0  0  0  0  0  0
    3.3487   -3.5670   -0.0231 O   0  0  0  0  0  0  0  0  0  0  0  0
   -1.9297    0.0619   -0.2834 N   0  0  0  0  0  0  0  0  0  0  0  0
   -0.9466   -2.2534   -0.4205 H   0  0  0  0  0  0  0  0  0  0  0  0
    0.7860   -3.9937   -0.3284 H   0  0  0  0  0  0  0  0  0  0  0  0
    2.0597    0.7618    0.0874 H   0  0  0  0  0  0  0  0  0  0  0  0
    3.2969    1.1052    2.4969 H   0  0  0  0  0  0  0  0  0  0  0  0
    2.3141    0.4372    4.6507 H   0  0  0  0  0  0  0  0  0  0  0  0
    0.9176    2.0202    5.9142 H   0  0  0  0  0  0  0  0  0  0  0  0
    1.4985    4.9640    2.8673 H   0  0  0  0  0  0  0  0  0  0  0  0
   -0.9384    5.7098    4.0528 H   0  0  0  0  0  0  0  0  0  0  0  0
   -0.1293    6.5288    5.4103 H   0  0  0  0  0  0  0  0  0  0  0  0
    0.7910    6.1163    3.9436 H   0  0  0  0  0  0  0  0  0  0  0  0
    0.2679    3.1754    6.8225 H   0  0  0  0  0  0  0  0  0  0  0  0
    0.1600    4.9014    7.2437 H   0  0  0  0  0  0  0  0  0  0  0  0
   -1.2377    4.0739    6.5157 H   0  0  0  0  0  0  0  0  0  0  0  0
    7.1930    1.9775    1.4388 H   0  0  0  0  0  0  0  0  0  0  0  0
    9.2424    2.1171    2.7856 H   0  0  0  0  0  0  0  0  0  0  0  0
   11.3923    3.5448   -0.6438 H   0  0  0  0  0  0  0  0  0  0  0  0
   10.9249    4.7858   -2.2555 H   0  0  0  0  0  0  0  0  0  0  0  0
   11.3273    3.1075   -2.6911 H   0  0  0  0  0  0  0  0  0  0  0  0
   10.4634    4.1453   -3.8508 H   0  0  0  0  0  0  0  0  0  0  0  0
    3.5290   -3.8955    0.8684 H   0  0  0  0  0  0  0  0  0  0  0  0
   -2.1869   -0.8703   -0.2076 H   0  0  0  0  0  0  0  0  0  0  0  0
   -2.6092    0.7450   -0.3957 H   0  0  0  0  0  0  0  0  0  0  0  0
   -0.1880    1.6756   -0.2337 N   0  3  0  0  0  0  0  0  0  0  0  0
    0.8157    1.8882   -0.2739 H   0  0  0  0  0  0  0  0  0  0  0  0
   11.6609    2.5761    3.2693 O   0  5  0  0  0  0  0  0  0  0  0  0
  1 63  1  0  0  0  0
  2  3  1  0  0  0  0
  2 40  1  0  0  0  0
  2 63  2  0  0  0  0
  3  8  2  0  0  0  0
  3  4  1  0  0  0  0
  4  5  2  0  0  0  0
  4 41  1  0  0  0  0
  5  6  1  0  0  0  0
  5 42  1  0  0  0  0
  6  7  2  0  0  0  0
  6 39  1  0  0  0  0
  7  8  1  0  0  0  0
  7  9  1  0  0  0  0
  8 43  1  0  0  0  0
  9 10  1  0  0  0  0
 10 15  2  0  0  0  0
 10 11  1  0  0  0  0
 11 12  2  0  0  0  0
 11 38  1  0  0  0  0
 12 13  1  0  0  0  0
 12 27  1  0  0  0  0
 13 14  2  0  0  0  0
 13 26  1  0  0  0  0
 14 15  1  0  0  0  0
 14 16  1  0  0  0  0
 16 17  1  0  0  0  0
 17 22  2  0  0  0  0
 17 18  1  0  0  0  0
 18 19  2  0  0  0  0
 18 44  1  0  0  0  0
 19 20  1  0  0  0  0
 19 45  1  0  0  0  0
 20 21  2  0  0  0  0
 20 46  1  0  0  0  0
 21 22  1  0  0  0  0
 21 23  1  0  0  0  0
 22 47  1  0  0  0  0
 23 24  1  0  0  0  0
 23 25  1  0  0  0  0
 24 48  1  0  0  0  0
 24 49  1  0  0  0  0
 24 50  1  0  0  0  0
 25 51  1  0  0  0  0
 25 52  1  0  0  0  0
 25 53  1  0  0  0  0
 27 28  1  0  0  0  0
 28 33  2  0  0  0  0
 28 29  1  0  0  0  0
 29 30  2  0  0  0  0
 29 54  1  0  0  0  0
 30 31  1  0  0  0  0
 30 55  1  0  0  0  0
 31 32  2  0  0  0  0
 31 36  1  0  0  0  0
 32 33  1  0  0  0  0
 32 56  1  0  0  0  0
 33 34  1  0  0  0  0
 34 35  1  0  0  0  0
 35 57  1  0  0  0  0
 35 58  1  0  0  0  0
 35 59  1  0  0  0  0
 36 37  2  0  0  0  0
 36 65  1  0  0  0  0
 39 60  1  0  0  0  0
 40 61  1  0  0  0  0
 40 62  1  0  0  0  0
 63 64  1  0  0  0  0
M  CHG  2  63   1  65  -1
M  END
$$$$
ZINC03815601
  -OEChem-08230709403D

 52 55  0     0  0  0  0  0  0999 V2000
    0.7672    2.4278   -2.7681 H   0  0  0  0  0  0  0  0  0  0  0  0
    2.2393    1.1925   -3.4425 C   0  0  0  0  0  0  0  0  0  0  0  0
    2.7736   -0.1808   -3.3119 C   0  0  0  0  0  0  0  0  0  0  0  0
    3.9207   -0.5542   -4.0136 C   0  0  0  0  0  0  0  0  0  0  0  0
    4.4178   -1.8344   -3.8917 C   0  0  0  0  0  0  0  0  0  0  0  0
    3.7795   -2.7545   -3.0721 C   0  0  0  0  0  0  0  0  0  0  0  0
    2.6340   -2.3877   -2.3683 C   0  0  0  0  0  0  0  0  0  0  0  0
    2.1283   -1.1068   -2.4912 C   0  0  0  0  0  0  0  0  0  0  0  0
    2.0106   -3.2909   -1.5654 O   0  0  0  0  0  0  0  0  0  0  0  0
    0.9723   -2.8587   -0.8066 C   0  0  0  0  0  0  0  0  0  0  0  0
   -0.1762   -3.6323   -0.7124 C   0  0  0  0  0  0  0  0  0  0  0  0
   -1.2391   -3.1768    0.0722 C   0  0  0  0  0  0  0  0  0  0  0  0
   -1.0977   -1.9528    0.7325 C   0  0  0  0  0  0  0  0  0  0  0  0
    0.0836   -1.2403    0.5860 C   0  0  0  0  0  0  0  0  0  0  0  0
    1.0653   -1.7029   -0.1703 N   0  0  0  0  0  0  0  0  0  0  0  0
    0.2319   -0.0512    1.2224 O   0  0  0  0  0  0  0  0  0  0  0  0
    1.3956    0.1766    1.8863 C   0  0  0  0  0  0  0  0  0  0  0  0
    2.3319   -0.8410    2.0149 C   0  0  0  0  0  0  0  0  0  0  0  0
    3.5194   -0.6135    2.6849 C   0  0  0  0  0  0  0  0  0  0  0  0
    3.7775    0.6237    3.2398 C   0  0  0  0  0  0  0  0  0  0  0  0
    2.8403    1.6506    3.1201 C   0  0  0  0  0  0  0  0  0  0  0  0
    1.6449    1.4214    2.4393 C   0  0  0  0  0  0  0  0  0  0  0  0
    3.1135    2.9776    3.7140 C   0  0  0  0  0  0  0  0  0  0  0  0
    3.9918    3.2320    4.6581 N   0  0  0  0  0  0  0  0  0  0  0  0
    3.9654    4.5386    4.9447 C   0  0  0  0  0  0  0  0  0  0  0  0
    3.0424    5.1281    4.1576 C   0  0  0  0  0  0  0  0  0  0  0  0
    2.5012    4.1473    3.3710 N   0  0  0  0  0  0  0  0  0  0  0  0
    1.4599    4.3207    2.3551 C   0  0  0  0  0  0  0  0  0  0  0  0
   -2.4830   -3.9698    0.2003 C   0  0  0  0  0  0  0  0  0  0  0  0
   -2.5890   -5.0311   -0.3802 O   0  0  0  0  0  0  0  0  0  0  0  0
    4.2725   -4.0150   -2.9552 O   0  0  0  0  0  0  0  0  0  0  0  0
    2.8064    2.0700   -4.3411 N   0  0  0  0  0  0  0  0  0  0  0  0
    4.4193    0.1600   -4.6522 H   0  0  0  0  0  0  0  0  0  0  0  0
    5.3055   -2.1219   -4.4354 H   0  0  0  0  0  0  0  0  0  0  0  0
    1.2379   -0.8224   -1.9502 H   0  0  0  0  0  0  0  0  0  0  0  0
   -0.2473   -4.5732   -1.2377 H   0  0  0  0  0  0  0  0  0  0  0  0
   -1.8971   -1.5671    1.3479 H   0  0  0  0  0  0  0  0  0  0  0  0
    2.1334   -1.8123    1.5863 H   0  0  0  0  0  0  0  0  0  0  0  0
    4.2456   -1.4074    2.7782 H   0  0  0  0  0  0  0  0  0  0  0  0
    4.7043    0.7969    3.7664 H   0  0  0  0  0  0  0  0  0  0  0  0
    0.9156    2.2123    2.3439 H   0  0  0  0  0  0  0  0  0  0  0  0
    4.5790    5.0366    5.6809 H   0  0  0  0  0  0  0  0  0  0  0  0
    2.7823    6.1763    4.1473 H   0  0  0  0  0  0  0  0  0  0  0  0
    0.4810    4.1621    2.8075 H   0  0  0  0  0  0  0  0  0  0  0  0
    1.5131    5.3308    1.9490 H   0  0  0  0  0  0  0  0  0  0  0  0
    1.6110    3.5982    1.5531 H   0  0  0  0  0  0  0  0  0  0  0  0
    3.9145   -4.6389   -3.6014 H   0  0  0  0  0  0  0  0  0  0  0  0
    3.5051    1.7656   -4.9412 H   0  0  0  0  0  0  0  0  0  0  0  0
    2.5069    2.9920   -4.3736 H   0  0  0  0  0  0  0  0  0  0  0  0
    1.2186    1.5190   -2.6634 N   0  3  0  0  0  0  0  0  0  0  0  0
    0.8818    0.8573   -1.9541 H   0  0  0  0  0  0  0  0  0  0  0  0
   -3.4967   -3.5142    0.9607 O   0  5  0  0  0  0  0  0  0  0  0  0
  1 50  1  0  0  0  0
  2  3  1  0  0  0  0
  2 32  1  0  0  0  0
  2 50  2  0  0  0  0
  3  8  2  0  0  0  0
  3  4  1  0  0  0  0
  4  5  2  0  0  0  0
  4 33  1  0  0  0  0
  5  6  1  0  0  0  0
  5 34  1  0  0  0  0
  6  7  2  0  0  0  0
  6 31  1  0  0  0  0
  7  8  1  0  0  0  0
  7  9  1  0  0  0  0
  8 35  1  0  0  0  0
  9 10  1  0  0  0  0
 10 15  2  0  0  0  0
 10 11  1  0  0  0  0
 11 12  2  0  0  0  0
 11 36  1  0  0  0  0
 12 13  1  0  0  0  0
 12 29  1  0  0  0  0
 13 14  2  0  0  0  0
 13 37  1  0  0  0  0
 14 15  1  0  0  0  0
 14 16  1  0  0  0  0
 16 17  1  0  0  0  0
 17 22  2  0  0  0  0
 17 18  1  0  0  0  0
 18 19  2  0  0  0  0
 18 38  1  0  0  0  0
 19 20  1  0  0  0  0
 19 39  1  0  0  0  0
 20 21  2  0  0  0  0
 20 40  1  0  0  0  0
 21 22  1  0  0  0  0
 21 23  1  0  0  0  0
 22 41  1  0  0  0  0
 23 27  1  0  0  0  0
 23 24  2  0  0  0  0
 24 25  1  0  0  0  0
 25 26  2  0  0  0  0
 25 42  1  0  0  0  0
 26 27  1  0  0  0  0
 26 43  1  0  0  0  0
 27 28  1  0  0  0  0
 28 44  1  0  0  0  0
 28 45  1  0  0  0  0
 28 46  1  0  0  0  0
 29 30  2  0  0  0  0
 29 52  1  0  0  0  0
 31 47  1  0  0  0  0
 32 48  1  0  0  0  0
 32 49  1  0  0  0  0
 50 51  1  0  0  0  0
M  CHG  2  50   1  52  -1
M  END
$$$$
ZINC03815601
  -OEChem-08230709403D

 53 56  0     0  0  0  0  0  0999 V2000
    0.7672    2.4278   -2.7681 H   0  0  0  0  0  0  0  0  0  0  0  0
    2.2393    1.1925   -3.4425 C   0  0  0  0  0  0  0  0  0  0  0  0
    2.7736   -0.1808   -3.3119 C   0  0  0  0  0  0  0  0  0  0  0  0
    3.9207   -0.5542   -4.0136 C   0  0  0  0  0  0  0  0  0  0  0  0
    4.4178   -1.8344   -3.8917 C   0  0  0  0  0  0  0  0  0  0  0  0
    3.7795   -2.7545   -3.0721 C   0  0  0  0  0  0  0  0  0  0  0  0
    2.6340   -2.3877   -2.3683 C   0  0  0  0  0  0  0  0  0  0  0  0
    2.1283   -1.1068   -2.4912 C   0  0  0  0  0  0  0  0  0  0  0  0
    2.0106   -3.2909   -1.5654 O   0  0  0  0  0  0  0  0  0  0  0  0
    0.9723   -2.8587   -0.8066 C   0  0  0  0  0  0  0  0  0  0  0  0
   -0.1762   -3.6323   -0.7124 C   0  0  0  0  0  0  0  0  0  0  0  0
   -1.2391   -3.1768    0.0722 C   0  0  0  0  0  0  0  0  0  0  0  0
   -1.0977   -1.9528    0.7325 C   0  0  0  0  0  0  0  0  0  0  0  0
    0.0836   -1.2403    0.5860 C   0  0  0  0  0  0  0  0  0  0  0  0
    1.0653   -1.7029   -0.1703 N   0  0  0  0  0  0  0  0  0  0  0  0
    0.2319   -0.0512    1.2224 O   0  0  0  0  0  0  0  0  0  0  0  0
    1.3956    0.1766    1.8863 C   0  0  0  0  0  0  0  0  0  0  0  0
    2.3319   -0.8410    2.0149 C   0  0  0  0  0  0  0  0  0  0  0  0
    3.5194   -0.6135    2.6849 C   0  0  0  0  0  0  0  0  0  0  0  0
    3.7775    0.6237    3.2398 C   0  0  0  0  0  0  0  0  0  0  0  0
    2.8403    1.6506    3.1201 C   0  0  0  0  0  0  0  0  0  0  0  0
    1.6449    1.4214    2.4393 C   0  0  0  0  0  0  0  0  0  0  0  0
    3.1135    2.9776    3.7140 C   0  0  0  0  0  0  0  0  0  0  0  0
    3.9654    4.5386    4.9447 C   0  0  0  0  0  0  0  0  0  0  0  0
    3.0424    5.1281    4.1576 C   0  0  0  0  0  0  0  0  0  0  0  0
    2.5012    4.1473    3.3710 N   0  0  0  0  0  0  0  0  0  0  0  0
    1.4599    4.3207    2.3551 C   0  0  0  0  0  0  0  0  0  0  0  0
   -2.4830   -3.9698    0.2003 C   0  0  0  0  0  0  0  0  0  0  0  0
   -2.5890   -5.0311   -0.3802 O   0  0  0  0  0  0  0  0  0  0  0  0
    4.2725   -4.0150   -2.9552 O   0  0  0  0  0  0  0  0  0  0  0  0
    2.8064    2.0700   -4.3411 N   0  0  0  0  0  0  0  0  0  0  0  0
    4.4193    0.1600   -4.6522 H   0  0  0  0  0  0  0  0  0  0  0  0
    5.3055   -2.1219   -4.4354 H   0  0  0  0  0  0  0  0  0  0  0  0
    1.2379   -0.8224   -1.9502 H   0  0  0  0  0  0  0  0  0  0  0  0
   -0.2473   -4.5732   -1.2377 H   0  0  0  0  0  0  0  0  0  0  0  0
   -1.8971   -1.5671    1.3479 H   0  0  0  0  0  0  0  0  0  0  0  0
    2.1334   -1.8123    1.5863 H   0  0  0  0  0  0  0  0  0  0  0  0
    4.2456   -1.4074    2.7782 H   0  0  0  0  0  0  0  0  0  0  0  0
    4.7043    0.7969    3.7664 H   0  0  0  0  0  0  0  0  0  0  0  0
    0.9156    2.2123    2.3439 H   0  0  0  0  0  0  0  0  0  0  0  0
    4.5790    5.0366    5.6809 H   0  0  0  0  0  0  0  0  0  0  0  0
    2.7823    6.1763    4.1473 H   0  0  0  0  0  0  0  0  0  0  0  0
    0.4810    4.1621    2.8075 H   0  0  0  0  0  0  0  0  0  0  0  0
    1.5131    5.3308    1.9490 H   0  0  0  0  0  0  0  0  0  0  0  0
    1.6110    3.5982    1.5531 H   0  0  0  0  0  0  0  0  0  0  0  0
    3.9145   -4.6389   -3.6014 H   0  0  0  0  0  0  0  0  0  0  0  0
    3.5051    1.7656   -4.9412 H   0  0  0  0  0  0  0  0  0  0  0  0
    2.5069    2.9920   -4.3736 H   0  0  0  0  0  0  0  0  0  0  0  0
    1.2186    1.5190   -2.6634 N   0  3  0  0  0  0  0  0  0  0  0  0
    0.8818    0.8573   -1.9541 H   0  0  0  0  0  0  0  0  0  0  0  0
   -3.4967   -3.5142    0.9607 O   0  5  0  0  0  0  0  0  0  0  0  0
    3.9910    3.2329    4.6575 N   0  3  0  0  0  0  0  0  0  0  0  0
    4.6011    2.5386    5.1045 H   0  0  0  0  0  0  0  0  0  0  0  0
  1 49  1  0  0  0  0
  2  3  1  0  0  0  0
  2 31  1  0  0  0  0
  2 49  2  0  0  0  0
  3  8  2  0  0  0  0
  3  4  1  0  0  0  0
  4  5  2  0  0  0  0
  4 32  1  0  0  0  0
  5  6  1  0  0  0  0
  5 33  1  0  0  0  0
  6  7  2  0  0  0  0
  6 30  1  0  0  0  0
  7  8  1  0  0  0  0
  7  9  1  0  0  0  0
  8 34  1  0  0  0  0
  9 10  1  0  0  0  0
 10 15  2  0  0  0  0
 10 11  1  0  0  0  0
 11 12  2  0  0  0  0
 11 35  1  0  0  0  0
 12 13  1  0  0  0  0
 12 28  1  0  0  0  0
 13 14  2  0  0  0  0
 13 36  1  0  0  0  0
 14 15  1  0  0  0  0
 14 16  1  0  0  0  0
 16 17  1  0  0  0  0
 17 22  2  0  0  0  0
 17 18  1  0  0  0  0
 18 19  2  0  0  0  0
 18 37  1  0  0  0  0
 19 20  1  0  0  0  0
 19 38  1  0  0  0  0
 20 21  2  0  0  0  0
 20 39  1  0  0  0  0
 21 22  1  0  0  0  0
 21 23  1  0  0  0  0
 22 40  1  0  0  0  0
 23 26  1  0  0  0  0
 23 52  2  0  0  0  0
 24 25  2  0  0  0  0
 24 41  1  0  0  0  0
 24 52  1  0  0  0  0
 25 26  1  0  0  0  0
 25 42  1  0  0  0  0
 26 27  1  0  0  0  0
 27 43  1  0  0  0  0
 27 44  1  0  0  0  0
 27 45  1  0  0  0  0
 28 29  2  0  0  0  0
 28 51  1  0  0  0  0
 30 46  1  0  0  0  0
 31 47  1  0  0  0  0
 31 48  1  0  0  0  0
 49 50  1  0  0  0  0
 52 53  1  0  0  0  0
M  CHG  3  49   1  51  -1  52   1
M  END
$$$$
ZINC03815602
  -OEChem-08230709403D

 64 69  0     0  0  0  0  0  0999 V2000
    5.2830   -8.4107   -3.1408 H   0  0  0  0  0  0  0  0  0  0  0  0
    3.5134   -9.3566   -2.7972 C   0  0  0  0  0  0  0  0  0  0  0  0
    2.0683   -9.1134   -2.5831 C   0  0  0  0  0  0  0  0  0  0  0  0
    1.2015  -10.1864   -2.3748 C   0  0  0  0  0  0  0  0  0  0  0  0
   -0.1445   -9.9569   -2.1755 C   0  0  0  0  0  0  0  0  0  0  0  0
   -0.6383   -8.6655   -2.1819 C   0  0  0  0  0  0  0  0  0  0  0  0
    0.2171   -7.5917   -2.3883 C   0  0  0  0  0  0  0  0  0  0  0  0
    1.5692   -7.8124   -2.5945 C   0  0  0  0  0  0  0  0  0  0  0  0
   -0.2729   -6.3242   -2.3936 O   0  0  0  0  0  0  0  0  0  0  0  0
    0.5738   -5.3143   -2.7245 C   0  0  0  0  0  0  0  0  0  0  0  0
    1.0642   -5.2211   -4.0236 C   0  0  0  0  0  0  0  0  0  0  0  0
    1.9220   -4.2005   -4.3681 C   0  0  0  0  0  0  0  0  0  0  0  0
    2.2997   -3.2595   -3.4124 C   0  0  0  0  0  0  0  0  0  0  0  0
    3.1775   -2.0751   -3.4495 C   0  0  0  0  0  0  0  0  0  0  0  0
    3.9389   -1.4785   -4.4518 C   0  0  0  0  0  0  0  0  0  0  0  0
    4.6746   -0.3474   -4.1708 C   0  0  0  0  0  0  0  0  0  0  0  0
    4.6586    0.1969   -2.8958 C   0  0  0  0  0  0  0  0  0  0  0  0
    3.9095   -0.3836   -1.8949 C   0  0  0  0  0  0  0  0  0  0  0  0
    3.1601   -1.5259   -2.1589 C   0  0  0  0  0  0  0  0  0  0  0  0
    2.3345   -2.3030   -1.3652 N   0  0  0  0  0  0  0  0  0  0  0  0
    1.8126   -3.3529   -2.1001 C   0  0  0  0  0  0  0  0  0  0  0  0
    0.9422   -4.3856   -1.7678 C   0  0  0  0  0  0  0  0  0  0  0  0
    2.0577   -2.0534    0.0515 C   0  0  0  0  0  0  0  0  0  0  0  0
    0.8529   -1.1569    0.1777 C   0  0  0  0  0  0  0  0  0  0  0  0
    1.0257    0.2257    0.2050 C   0  0  0  0  0  0  0  0  0  0  0  0
   -0.0411    1.0637    0.3181 C   0  0  0  0  0  0  0  0  0  0  0  0
   -1.3382    0.5313    0.4095 C   0  0  0  0  0  0  0  0  0  0  0  0
   -2.4607    1.3709    0.5276 C   0  0  0  0  0  0  0  0  0  0  0  0
   -3.7043    0.8334    0.6149 C   0  0  0  0  0  0  0  0  0  0  0  0
   -3.8912   -0.5594    0.5887 C   0  0  0  0  0  0  0  0  0  0  0  0
   -2.8077   -1.4118    0.4729 C   0  0  0  0  0  0  0  0  0  0  0  0
   -1.5146   -0.8753    0.3767 C   0  0  0  0  0  0  0  0  0  0  0  0
   -0.3878   -1.7093    0.2638 C   0  0  0  0  0  0  0  0  0  0  0  0
   -5.2583   -1.1188    0.6854 C   0  0  0  0  0  0  0  0  0  0  0  0
   -6.2943   -2.8712    0.7190 H   0  0  0  0  0  0  0  0  0  0  0  0
   -6.3415   -0.2748    0.8005 N   0  0  0  0  0  0  0  0  0  0  0  0
    4.0037  -10.6442   -2.7910 N   0  0  0  0  0  0  0  0  0  0  0  0
    1.5839  -11.1965   -2.3692 H   0  0  0  0  0  0  0  0  0  0  0  0
   -0.8145  -10.7886   -2.0144 H   0  0  0  0  0  0  0  0  0  0  0  0
   -1.6926   -8.4915   -2.0253 H   0  0  0  0  0  0  0  0  0  0  0  0
    2.2351   -6.9783   -2.7596 H   0  0  0  0  0  0  0  0  0  0  0  0
    0.7707   -5.9509   -4.7636 H   0  0  0  0  0  0  0  0  0  0  0  0
    2.3009   -4.1295   -5.3769 H   0  0  0  0  0  0  0  0  0  0  0  0
    3.9524   -1.9007   -5.4457 H   0  0  0  0  0  0  0  0  0  0  0  0
    5.2658    0.1164   -4.9465 H   0  0  0  0  0  0  0  0  0  0  0  0
    5.2382    1.0835   -2.6848 H   0  0  0  0  0  0  0  0  0  0  0  0
    3.9038    0.0488   -0.9052 H   0  0  0  0  0  0  0  0  0  0  0  0
    0.5577   -4.4651   -0.7617 H   0  0  0  0  0  0  0  0  0  0  0  0
    2.9201   -1.5699    0.5105 H   0  0  0  0  0  0  0  0  0  0  0  0
    1.8608   -2.9997    0.5555 H   0  0  0  0  0  0  0  0  0  0  0  0
    2.0212    0.6388    0.1350 H   0  0  0  0  0  0  0  0  0  0  0  0
    0.1088    2.1330    0.3371 H   0  0  0  0  0  0  0  0  0  0  0  0
   -2.3332    2.4432    0.5488 H   0  0  0  0  0  0  0  0  0  0  0  0
   -4.5613    1.4843    0.7058 H   0  0  0  0  0  0  0  0  0  0  0  0
   -2.9561   -2.4814    0.4529 H   0  0  0  0  0  0  0  0  0  0  0  0
   -0.5069   -2.7824    0.2410 H   0  0  0  0  0  0  0  0  0  0  0  0
   -6.2081    0.6858    0.8182 H   0  0  0  0  0  0  0  0  0  0  0  0
   -7.2373   -0.6414    0.8638 H   0  0  0  0  0  0  0  0  0  0  0  0
    3.4023  -11.3915   -2.6463 H   0  0  0  0  0  0  0  0  0  0  0  0
    4.9501  -10.8035   -2.9313 H   0  0  0  0  0  0  0  0  0  0  0  0
    4.2809   -8.2949   -2.9888 N   0  3  0  0  0  0  0  0  0  0  0  0
    3.8675   -7.3551   -2.9845 H   0  0  0  0  0  0  0  0  0  0  0  0
   -5.3731   -2.4378    0.6555 N   0  3  0  0  0  0  0  0  0  0  0  0
   -4.5348   -3.0242    0.5683 H   0  0  0  0  0  0  0  0  0  0  0  0
  1 61  1  0  0  0  0
  2  3  1  0  0  0  0
  2 37  1  0  0  0  0
  2 61  2  0  0  0  0
  3  8  2  0  0  0  0
  3  4  1  0  0  0  0
  4  5  2  0  0  0  0
  4 38  1  0  0  0  0
  5  6  1  0  0  0  0
  5 39  1  0  0  0  0
  6  7  2  0  0  0  0
  6 40  1  0  0  0  0
  7  8  1  0  0  0  0
  7  9  1  0  0  0  0
  8 41  1  0  0  0  0
  9 10  1  0  0  0  0
 10 22  2  0  0  0  0
 10 11  1  0  0  0  0
 11 12  2  0  0  0  0
 11 42  1  0  0  0  0
 12 13  1  0  0  0  0
 12 43  1  0  0  0  0
 13 21  2  0  0  0  0
 13 14  1  0  0  0  0
 14 19  2  0  0  0  0
 14 15  1  0  0  0  0
 15 16  2  0  0  0  0
 15 44  1  0  0  0  0
 16 17  1  0  0  0  0
 16 45  1  0  0  0  0
 17 18  2  0  0  0  0
 17 46  1  0  0  0  0
 18 19  1  0  0  0  0
 18 47  1  0  0  0  0
 19 20  1  0  0  0  0
 20 21  1  0  0  0  0
 20 23  1  0  0  0  0
 21 22  1  0  0  0  0
 22 48  1  0  0  0  0
 23 24  1  0  0  0  0
 23 49  1  0  0  0  0
 23 50  1  0  0  0  0
 24 33  2  0  0  0  0
 24 25  1  0  0  0  0
 25 26  2  0  0  0  0
 25 51  1  0  0  0  0
 26 27  1  0  0  0  0
 26 52  1  0  0  0  0
 27 32  2  0  0  0  0
 27 28  1  0  0  0  0
 28 29  2  0  0  0  0
 28 53  1  0  0  0  0
 29 30  1  0  0  0  0
 29 54  1  0  0  0  0
 30 31  2  0  0  0  0
 30 34  1  0  0  0  0
 31 32  1  0  0  0  0
 31 55  1  0  0  0  0
 32 33  1  0  0  0  0
 33 56  1  0  0  0  0
 34 36  1  0  0  0  0
 34 63  2  0  0  0  0
 35 63  1  0  0  0  0
 36 57  1  0  0  0  0
 36 58  1  0  0  0  0
 37 59  1  0  0  0  0
 37 60  1  0  0  0  0
 61 62  1  0  0  0  0
 63 64  1  0  0  0  0
M  CHG  2  61   1  63   1
M  END
$$$$
ZINC03815603
  -OEChem-08230709403D

 66 70  0     0  0  0  0  0  0999 V2000
   13.5503    1.1482   -4.3982 H   0  0  0  0  0  0  0  0  0  0  0  0
   12.3999    2.8081   -4.2197 C   0  0  0  0  0  0  0  0  0  0  0  0
   12.4710    4.3073   -4.0837 C   0  0  0  0  0  0  0  0  0  0  0  0
   11.1835    2.1869   -4.3256 N   0  0  0  0  0  0  0  0  0  0  0  0
    9.9472    2.9742   -4.4285 C   0  0  0  0  0  0  0  0  0  0  0  0
    8.9741    2.5083   -3.3411 C   0  0  0  0  0  0  0  0  0  0  0  0
    8.7680    0.9965   -3.4599 C   0  0  0  0  0  0  0  0  0  0  0  0
   10.1043    0.2803   -3.2513 C   0  0  0  0  0  0  0  0  0  0  0  0
   11.0903    0.7206   -4.3379 C   0  0  0  0  0  0  0  0  0  0  0  0
    7.8357    0.5636   -2.4673 O   0  0  0  0  0  0  0  0  0  0  0  0
    7.1745   -0.5984   -2.7075 C   0  0  0  0  0  0  0  0  0  0  0  0
    7.3667   -1.2667   -3.9166 C   0  0  0  0  0  0  0  0  0  0  0  0
    6.7116   -2.4335   -4.1752 C   0  0  0  0  0  0  0  0  0  0  0  0
    5.8360   -2.9700   -3.2205 C   0  0  0  0  0  0  0  0  0  0  0  0
    5.0290   -4.1316   -3.1897 C   0  0  0  0  0  0  0  0  0  0  0  0
    4.3805   -4.1546   -1.9944 C   0  0  0  0  0  0  0  0  0  0  0  0
    4.7419   -3.0376   -1.2620 N   0  0  0  0  0  0  0  0  0  0  0  0
    5.6384   -2.2985   -1.9973 C   0  0  0  0  0  0  0  0  0  0  0  0
    6.3162   -1.1089   -1.7520 C   0  0  0  0  0  0  0  0  0  0  0  0
    4.2545   -2.7014    0.0780 C   0  0  0  0  0  0  0  0  0  0  0  0
    3.0134   -1.8544   -0.0367 C   0  0  0  0  0  0  0  0  0  0  0  0
    3.1315   -0.4669   -0.0912 C   0  0  0  0  0  0  0  0  0  0  0  0
    2.0305    0.3272   -0.1939 C   0  0  0  0  0  0  0  0  0  0  0  0
    0.7535   -0.2563   -0.2465 C   0  0  0  0  0  0  0  0  0  0  0  0
   -0.4033    0.5373   -0.3522 C   0  0  0  0  0  0  0  0  0  0  0  0
   -1.6267   -0.0493   -0.4010 C   0  0  0  0  0  0  0  0  0  0  0  0
   -1.7585   -1.4475   -0.3474 C   0  0  0  0  0  0  0  0  0  0  0  0
   -0.6402   -2.2554   -0.2440 C   0  0  0  0  0  0  0  0  0  0  0  0
    0.6334   -1.6682   -0.1970 C   0  0  0  0  0  0  0  0  0  0  0  0
    1.7935   -2.4555   -0.0851 C   0  0  0  0  0  0  0  0  0  0  0  0
   -3.1046   -2.0608   -0.4026 C   0  0  0  0  0  0  0  0  0  0  0  0
   -4.0722   -3.8521   -0.3829 H   0  0  0  0  0  0  0  0  0  0  0  0
   -4.2223   -1.2613   -0.5061 N   0  0  0  0  0  0  0  0  0  0  0  0
    3.4451   -5.1955   -1.5533 C   0  0  0  0  0  0  0  0  0  0  0  0
    3.1979   -6.1384   -2.2802 O   0  0  0  0  0  0  0  0  0  0  0  0
   12.3491    4.5833   -3.0363 H   0  0  0  0  0  0  0  0  0  0  0  0
   13.4385    4.6591   -4.4419 H   0  0  0  0  0  0  0  0  0  0  0  0
   11.6770    4.7638   -4.6746 H   0  0  0  0  0  0  0  0  0  0  0  0
    9.4982    2.8226   -5.4102 H   0  0  0  0  0  0  0  0  0  0  0  0
   10.1722    4.0315   -4.2890 H   0  0  0  0  0  0  0  0  0  0  0  0
    8.0180    3.0167   -3.4665 H   0  0  0  0  0  0  0  0  0  0  0  0
    9.3850    2.7434   -2.3593 H   0  0  0  0  0  0  0  0  0  0  0  0
    8.3799    0.7597   -4.4506 H   0  0  0  0  0  0  0  0  0  0  0  0
   10.5052    0.5366   -2.2706 H   0  0  0  0  0  0  0  0  0  0  0  0
    9.9530   -0.7974   -3.3127 H   0  0  0  0  0  0  0  0  0  0  0  0
   10.7344    0.3852   -5.3121 H   0  0  0  0  0  0  0  0  0  0  0  0
   12.0720    0.2904   -4.1396 H   0  0  0  0  0  0  0  0  0  0  0  0
    8.0402   -0.8559   -4.6543 H   0  0  0  0  0  0  0  0  0  0  0  0
    6.8669   -2.9442   -5.1140 H   0  0  0  0  0  0  0  0  0  0  0  0
    4.9456   -4.8697   -3.9736 H   0  0  0  0  0  0  0  0  0  0  0  0
    6.1720   -0.5857   -0.8181 H   0  0  0  0  0  0  0  0  0  0  0  0
    5.0239   -2.1476    0.6160 H   0  0  0  0  0  0  0  0  0  0  0  0
    4.0203   -3.6176    0.6200 H   0  0  0  0  0  0  0  0  0  0  0  0
    4.1114   -0.0145   -0.0510 H   0  0  0  0  0  0  0  0  0  0  0  0
    2.1383    1.4010   -0.2351 H   0  0  0  0  0  0  0  0  0  0  0  0
   -0.3181    1.6130   -0.3947 H   0  0  0  0  0  0  0  0  0  0  0  0
   -2.5102    0.5666   -0.4817 H   0  0  0  0  0  0  0  0  0  0  0  0
   -0.7463   -3.3295   -0.2036 H   0  0  0  0  0  0  0  0  0  0  0  0
    1.7168   -3.5319   -0.0422 H   0  0  0  0  0  0  0  0  0  0  0  0
   -4.1268   -0.2967   -0.5428 H   0  0  0  0  0  0  0  0  0  0  0  0
   -5.1043   -1.6631   -0.5424 H   0  0  0  0  0  0  0  0  0  0  0  0
   13.5400    2.1531   -4.2233 N   0  3  0  0  0  0  0  0  0  0  0  0
   14.4198    2.6531   -4.0500 H   0  0  0  0  0  0  0  0  0  0  0  0
   -3.1673   -3.3825   -0.3482 N   0  3  0  0  0  0  0  0  0  0  0  0
   -2.3050   -3.9346   -0.2712 H   0  0  0  0  0  0  0  0  0  0  0  0
    2.8594   -5.1065   -0.3417 O   0  5  0  0  0  0  0  0  0  0  0  0
  1 62  1  0  0  0  0
  2  3  1  0  0  0  0
  2  4  1  0  0  0  0
  2 62  2  0  0  0  0
  3 36  1  0  0  0  0
  3 37  1  0  0  0  0
  3 38  1  0  0  0  0
  4  9  1  0  0  0  0
  4  5  1  0  0  0  0
  5  6  1  0  0  0  0
  5 39  1  0  0  0  0
  5 40  1  0  0  0  0
  6  7  1  0  0  0  0
  6 41  1  0  0  0  0
  6 42  1  0  0  0  0
  7  8  1  0  0  0  0
  7 10  1  0  0  0  0
  7 43  1  0  0  0  0
  8  9  1  0  0  0  0
  8 44  1  0  0  0  0
  8 45  1  0  0  0  0
  9 46  1  0  0  0  0
  9 47  1  0  0  0  0
 10 11  1  0  0  0  0
 11 19  2  0  0  0  0
 11 12  1  0  0  0  0
 12 13  2  0  0  0  0
 12 48  1  0  0  0  0
 13 14  1  0  0  0  0
 13 49  1  0  0  0  0
 14 18  2  0  0  0  0
 14 15  1  0  0  0  0
 15 16  2  0  0  0  0
 15 50  1  0  0  0  0
 16 17  1  0  0  0  0
 16 34  1  0  0  0  0
 17 18  1  0  0  0  0
 17 20  1  0  0  0  0
 18 19  1  0  0  0  0
 19 51  1  0  0  0  0
 20 21  1  0  0  0  0
 20 52  1  0  0  0  0
 20 53  1  0  0  0  0
 21 30  2  0  0  0  0
 21 22  1  0  0  0  0
 22 23  2  0  0  0  0
 22 54  1  0  0  0  0
 23 24  1  0  0  0  0
 23 55  1  0  0  0  0
 24 29  2  0  0  0  0
 24 25  1  0  0  0  0
 25 26  2  0  0  0  0
 25 56  1  0  0  0  0
 26 27  1  0  0  0  0
 26 57  1  0  0  0  0
 27 28  2  0  0  0  0
 27 31  1  0  0  0  0
 28 29  1  0  0  0  0
 28 58  1  0  0  0  0
 29 30  1  0  0  0  0
 30 59  1  0  0  0  0
 31 33  1  0  0  0  0
 31 64  2  0  0  0  0
 32 64  1  0  0  0  0
 33 60  1  0  0  0  0
 33 61  1  0  0  0  0
 34 35  2  0  0  0  0
 34 66  1  0  0  0  0
 62 63  1  0  0  0  0
 64 65  1  0  0  0  0
M  CHG  3  62   1  64   1  66  -1
M  END
$$$$
ZINC03815604
  -OEChem-08230709403D

 54 56  0     0  0  0  0  0  0999 V2000
   -3.8553    8.8345    0.2996 H   0  0  0  0  0  0  0  0  0  0  0  0
   -1.9928    8.0143    0.3497 C   0  0  0  0  0  0  0  0  0  0  0  0
   -1.2746    6.7194    0.3680 C   0  0  0  0  0  0  0  0  0  0  0  0
    0.1196    6.6930    0.4061 C   0  0  0  0  0  0  0  0  0  0  0  0
    0.7862    5.4847    0.4226 C   0  0  0  0  0  0  0  0  0  0  0  0
    0.0762    4.2985    0.4011 C   0  0  0  0  0  0  0  0  0  0  0  0
   -1.3110    4.3155    0.3574 C   0  0  0  0  0  0  0  0  0  0  0  0
   -1.9894    5.5232    0.3467 C   0  0  0  0  0  0  0  0  0  0  0  0
   -2.0041    3.1467    0.3301 O   0  0  0  0  0  0  0  0  0  0  0  0
   -1.2405    1.9390    0.3487 C   0  0  0  0  0  0  0  0  0  0  0  0
   -2.1864    0.7370    0.3134 C   0  0  0  0  0  0  0  0  0  0  0  0
   -2.9073    0.7200   -0.9619 N   0  0  0  0  0  0  0  0  0  0  0  0
   -3.8011   -0.2556   -1.2178 C   0  0  0  0  0  0  0  0  0  0  0  0
   -4.0093   -1.1216   -0.3904 O   0  0  0  0  0  0  0  0  0  0  0  0
   -4.5280   -0.2726   -2.5038 C   0  0  0  0  0  0  0  0  0  0  0  0
   -4.2933    0.7256   -3.4526 C   0  0  0  0  0  0  0  0  0  0  0  0
   -4.9666    0.7053   -4.6532 C   0  0  0  0  0  0  0  0  0  0  0  0
   -5.8921   -0.3046   -4.9175 C   0  0  0  0  0  0  0  0  0  0  0  0
   -6.1314   -1.2987   -3.9684 C   0  0  0  0  0  0  0  0  0  0  0  0
   -5.4547   -1.2837   -2.7696 C   0  0  0  0  0  0  0  0  0  0  0  0
   -6.6216   -0.3217   -6.2082 C   0  0  0  0  0  0  0  0  0  0  0  0
   -5.9172   -0.3913   -7.4094 C   0  0  0  0  0  0  0  0  0  0  0  0
   -6.6013   -0.4068   -8.6074 C   0  0  0  0  0  0  0  0  0  0  0  0
   -7.9839   -0.3540   -8.6183 C   0  0  0  0  0  0  0  0  0  0  0  0
   -8.6880   -0.2853   -7.4299 C   0  0  0  0  0  0  0  0  0  0  0  0
   -8.0145   -0.2741   -6.2253 C   0  0  0  0  0  0  0  0  0  0  0  0
   -8.9135   -0.1939   -4.7120 S   0  0  0  0  0  0  0  0  0  0  0  0
   -8.2515    0.7631   -3.8964 O   0  0  0  0  0  0  0  0  0  0  0  0
  -10.2863   -0.0781   -5.0607 O   0  0  0  0  0  0  0  0  0  0  0  0
   -8.7382   -1.6589   -3.9601 N   0  0  0  0  0  0  0  0  0  0  0  0
   -1.2839    9.1957    0.3703 N   0  0  0  0  0  0  0  0  0  0  0  0
    0.6772    7.6177    0.4223 H   0  0  0  0  0  0  0  0  0  0  0  0
    1.8656    5.4658    0.4522 H   0  0  0  0  0  0  0  0  0  0  0  0
    0.6029    3.3557    0.4138 H   0  0  0  0  0  0  0  0  0  0  0  0
   -3.0688    5.5378    0.3168 H   0  0  0  0  0  0  0  0  0  0  0  0
   -0.5843    1.9106   -0.5210 H   0  0  0  0  0  0  0  0  0  0  0  0
   -0.6404    1.9026    1.2580 H   0  0  0  0  0  0  0  0  0  0  0  0
   -1.6098   -0.1822    0.4171 H   0  0  0  0  0  0  0  0  0  0  0  0
   -2.9005    0.8123    1.1335 H   0  0  0  0  0  0  0  0  0  0  0  0
   -2.7411    1.4111   -1.6220 H   0  0  0  0  0  0  0  0  0  0  0  0
   -3.5804    1.5102   -3.2463 H   0  0  0  0  0  0  0  0  0  0  0  0
   -4.7818    1.4741   -5.3888 H   0  0  0  0  0  0  0  0  0  0  0  0
   -6.8475   -2.0804   -4.1742 H   0  0  0  0  0  0  0  0  0  0  0  0
   -5.6403   -2.0531   -2.0349 H   0  0  0  0  0  0  0  0  0  0  0  0
   -4.8379   -0.4325   -7.4020 H   0  0  0  0  0  0  0  0  0  0  0  0
   -6.0567   -0.4607   -9.5385 H   0  0  0  0  0  0  0  0  0  0  0  0
   -8.5152   -0.3668   -9.5585 H   0  0  0  0  0  0  0  0  0  0  0  0
   -9.7672   -0.2443   -7.4445 H   0  0  0  0  0  0  0  0  0  0  0  0
   -8.7950   -1.7178   -2.9935 H   0  0  0  0  0  0  0  0  0  0  0  0
   -8.5786   -2.4581   -4.4862 H   0  0  0  0  0  0  0  0  0  0  0  0
   -0.3144    9.1791    0.3969 H   0  0  0  0  0  0  0  0  0  0  0  0
   -1.7543   10.0438    0.3583 H   0  0  0  0  0  0  0  0  0  0  0  0
   -3.3155    7.9690    0.3134 N   0  3  0  0  0  0  0  0  0  0  0  0
   -3.7979    7.0628    0.2992 H   0  0  0  0  0  0  0  0  0  0  0  0
  1 53  1  0  0  0  0
  2  3  1  0  0  0  0
  2 31  1  0  0  0  0
  2 53  2  0  0  0  0
  3  8  2  0  0  0  0
  3  4  1  0  0  0  0
  4  5  2  0  0  0  0
  4 32  1  0  0  0  0
  5  6  1  0  0  0  0
  5 33  1  0  0  0  0
  6  7  2  0  0  0  0
  6 34  1  0  0  0  0
  7  8  1  0  0  0  0
  7  9  1  0  0  0  0
  8 35  1  0  0  0  0
  9 10  1  0  0  0  0
 10 11  1  0  0  0  0
 10 36  1  0  0  0  0
 10 37  1  0  0  0  0
 11 12  1  0  0  0  0
 11 38  1  0  0  0  0
 11 39  1  0  0  0  0
 12 13  1  0  0  0  0
 12 40  1  0  0  0  0
 13 14  2  0  0  0  0
 13 15  1  0  0  0  0
 15 20  2  0  0  0  0
 15 16  1  0  0  0  0
 16 17  2  0  0  0  0
 16 41  1  0  0  0  0
 17 18  1  0  0  0  0
 17 42  1  0  0  0  0
 18 19  2  0  0  0  0
 18 21  1  0  0  0  0
 19 20  1  0  0  0  0
 19 43  1  0  0  0  0
 20 44  1  0  0  0  0
 21 26  2  0  0  0  0
 21 22  1  0  0  0  0
 22 23  2  0  0  0  0
 22 45  1  0  0  0  0
 23 24  1  0  0  0  0
 23 46  1  0  0  0  0
 24 25  2  0  0  0  0
 24 47  1  0  0  0  0
 25 26  1  0  0  0  0
 25 48  1  0  0  0  0
 26 27  1  0  0  0  0
 27 28  2  0  0  0  0
 27 29  2  0  0  0  0
 27 30  1  0  0  0  0
 30 49  1  0  0  0  0
 30 50  1  0  0  0  0
 31 51  1  0  0  0  0
 31 52  1  0  0  0  0
 53 54  1  0  0  0  0
M  CHG  1  53   1
M  END
$$$$
ZINC03815605
  -OEChem-08230709403D

 58 61  0     0  0  0  0  0  0999 V2000
   -8.0153    4.6092    0.8233 H   0  0  0  0  0  0  0  0  0  0  0  0
   -6.9040    5.2656    2.3976 C   0  0  0  0  0  0  0  0  0  0  0  0
   -5.6686    6.0062    2.7417 C   0  0  0  0  0  0  0  0  0  0  0  0
   -5.3212    6.2050    4.0781 C   0  0  0  0  0  0  0  0  0  0  0  0
   -4.1696    6.8959    4.3958 C   0  0  0  0  0  0  0  0  0  0  0  0
   -3.3579    7.3930    3.3931 C   0  0  0  0  0  0  0  0  0  0  0  0
   -3.6955    7.1996    2.0606 C   0  0  0  0  0  0  0  0  0  0  0  0
   -4.8523    6.5118    1.7316 C   0  0  0  0  0  0  0  0  0  0  0  0
   -2.8941    7.6897    1.0786 O   0  0  0  0  0  0  0  0  0  0  0  0
   -1.7215    8.2664    1.4422 C   0  0  0  0  0  0  0  0  0  0  0  0
   -1.6542    9.6357    1.6514 C   0  0  0  0  0  0  0  0  0  0  0  0
   -0.4574   10.2223    2.0158 C   0  0  0  0  0  0  0  0  0  0  0  0
    0.6814    9.4485    2.1805 C   0  0  0  0  0  0  0  0  0  0  0  0
    0.6306    8.0864    1.9817 C   0  0  0  0  0  0  0  0  0  0  0  0
   -0.5732    7.4802    1.6129 C   0  0  0  0  0  0  0  0  0  0  0  0
   -0.6342    6.0226    1.3987 C   0  0  0  0  0  0  0  0  0  0  0  0
   -1.6836    5.4985    1.0779 O   0  0  0  0  0  0  0  0  0  0  0  0
    0.4732    5.2710    1.5585 N   0  0  0  0  0  0  0  0  0  0  0  0
    0.3942    3.8796    1.4551 C   0  0  0  0  0  0  0  0  0  0  0  0
   -0.4798    3.3000    0.5429 C   0  0  0  0  0  0  0  0  0  0  0  0
   -0.5592    1.9275    0.4392 C   0  0  0  0  0  0  0  0  0  0  0  0
    0.2377    1.1210    1.2502 C   0  0  0  0  0  0  0  0  0  0  0  0
    1.1098    1.7045    2.1681 C   0  0  0  0  0  0  0  0  0  0  0  0
    1.1895    3.0774    2.2650 C   0  0  0  0  0  0  0  0  0  0  0  0
    0.1535   -0.3560    1.1408 C   0  0  0  0  0  0  0  0  0  0  0  0
   -1.0464   -1.0104    1.4137 C   0  0  0  0  0  0  0  0  0  0  0  0
   -1.1191   -2.3845    1.3100 C   0  0  0  0  0  0  0  0  0  0  0  0
   -0.0038   -3.1124    0.9353 C   0  0  0  0  0  0  0  0  0  0  0  0
    1.1893   -2.4682    0.6627 C   0  0  0  0  0  0  0  0  0  0  0  0
    1.2724   -1.0938    0.7591 C   0  0  0  0  0  0  0  0  0  0  0  0
    2.7916   -0.2743    0.4057 S   0  0  0  0  0  0  0  0  0  0  0  0
    3.0746    0.5564    1.5233 O   0  0  0  0  0  0  0  0  0  0  0  0
    3.6949   -1.2722   -0.0499 O   0  0  0  0  0  0  0  0  0  0  0  0
    2.5160    0.7360   -0.8772 N   0  0  0  0  0  0  0  0  0  0  0  0
   -0.3723   12.0911    2.2922 Br  0  0  0  0  0  0  0  0  0  0  0  0
   -7.7123    4.7717    3.3981 N   0  0  0  0  0  0  0  0  0  0  0  0
   -5.9531    5.8180    4.8638 H   0  0  0  0  0  0  0  0  0  0  0  0
   -3.9019    7.0490    5.4308 H   0  0  0  0  0  0  0  0  0  0  0  0
   -2.4579    7.9334    3.6474 H   0  0  0  0  0  0  0  0  0  0  0  0
   -5.1187    6.3642    0.6954 H   0  0  0  0  0  0  0  0  0  0  0  0
   -2.5369   10.2447    1.5248 H   0  0  0  0  0  0  0  0  0  0  0  0
    1.6124    9.9159    2.4654 H   0  0  0  0  0  0  0  0  0  0  0  0
    1.5202    7.4877    2.1103 H   0  0  0  0  0  0  0  0  0  0  0  0
    1.3249    5.6959    1.7451 H   0  0  0  0  0  0  0  0  0  0  0  0
   -1.0969    3.9252   -0.0854 H   0  0  0  0  0  0  0  0  0  0  0  0
   -1.2388    1.4776   -0.2694 H   0  0  0  0  0  0  0  0  0  0  0  0
    1.7250    1.0815    2.8003 H   0  0  0  0  0  0  0  0  0  0  0  0
    1.8675    3.5298    2.9735 H   0  0  0  0  0  0  0  0  0  0  0  0
   -1.9176   -0.4431    1.7064 H   0  0  0  0  0  0  0  0  0  0  0  0
   -2.0483   -2.8926    1.5213 H   0  0  0  0  0  0  0  0  0  0  0  0
   -0.0653   -4.1876    0.8550 H   0  0  0  0  0  0  0  0  0  0  0  0
    2.0568   -3.0414    0.3704 H   0  0  0  0  0  0  0  0  0  0  0  0
    1.6338    0.7815   -1.2780 H   0  0  0  0  0  0  0  0  0  0  0  0
    3.2368    1.2823   -1.2279 H   0  0  0  0  0  0  0  0  0  0  0  0
   -7.4723    4.9090    4.3278 H   0  0  0  0  0  0  0  0  0  0  0  0
   -8.5215    4.2866    3.1727 H   0  0  0  0  0  0  0  0  0  0  0  0
   -7.1756    5.1121    1.1109 N   0  3  0  0  0  0  0  0  0  0  0  0
   -6.5411    5.4991    0.4025 H   0  0  0  0  0  0  0  0  0  0  0  0
  1 57  1  0  0  0  0
  2  3  1  0  0  0  0
  2 36  1  0  0  0  0
  2 57  2  0  0  0  0
  3  8  2  0  0  0  0
  3  4  1  0  0  0  0
  4  5  2  0  0  0  0
  4 37  1  0  0  0  0
  5  6  1  0  0  0  0
  5 38  1  0  0  0  0
  6  7  2  0  0  0  0
  6 39  1  0  0  0  0
  7  8  1  0  0  0  0
  7  9  1  0  0  0  0
  8 40  1  0  0  0  0
  9 10  1  0  0  0  0
 10 15  2  0  0  0  0
 10 11  1  0  0  0  0
 11 12  2  0  0  0  0
 11 41  1  0  0  0  0
 12 13  1  0  0  0  0
 12 35  1  0  0  0  0
 13 14  2  0  0  0  0
 13 42  1  0  0  0  0
 14 15  1  0  0  0  0
 14 43  1  0  0  0  0
 15 16  1  0  0  0  0
 16 17  2  0  0  0  0
 16 18  1  0  0  0  0
 18 19  1  0  0  0  0
 18 44  1  0  0  0  0
 19 24  2  0  0  0  0
 19 20  1  0  0  0  0
 20 21  2  0  0  0  0
 20 45  1  0  0  0  0
 21 22  1  0  0  0  0
 21 46  1  0  0  0  0
 22 23  2  0  0  0  0
 22 25  1  0  0  0  0
 23 24  1  0  0  0  0
 23 47  1  0  0  0  0
 24 48  1  0  0  0  0
 25 30  2  0  0  0  0
 25 26  1  0  0  0  0
 26 27  2  0  0  0  0
 26 49  1  0  0  0  0
 27 28  1  0  0  0  0
 27 50  1  0  0  0  0
 28 29  2  0  0  0  0
 28 51  1  0  0  0  0
 29 30  1  0  0  0  0
 29 52  1  0  0  0  0
 30 31  1  0  0  0  0
 31 32  2  0  0  0  0
 31 33  2  0  0  0  0
 31 34  1  0  0  0  0
 34 53  1  0  0  0  0
 34 54  1  0  0  0  0
 36 55  1  0  0  0  0
 36 56  1  0  0  0  0
 57 58  1  0  0  0  0
M  CHG  1  57   1
M  END
$$$$
ZINC03815607
  -OEChem-08230709403D

 48 50  0     0  0  0  0  0  0999 V2000
    8.7847    8.7806   -1.9892 H   0  0  0  0  0  0  0  0  0  0  0  0
    7.1356    9.7487   -1.2910 C   0  0  0  0  0  0  0  0  0  0  0  0
    5.7487    9.5272   -0.8213 C   0  0  0  0  0  0  0  0  0  0  0  0
    4.9651   10.6089   -0.4190 C   0  0  0  0  0  0  0  0  0  0  0  0
    3.6732   10.3994    0.0187 C   0  0  0  0  0  0  0  0  0  0  0  0
    3.1521    9.1193    0.0605 C   0  0  0  0  0  0  0  0  0  0  0  0
    3.9249    8.0373   -0.3374 C   0  0  0  0  0  0  0  0  0  0  0  0
    5.2245    8.2368   -0.7734 C   0  0  0  0  0  0  0  0  0  0  0  0
    3.4083    6.7810   -0.2940 O   0  0  0  0  0  0  0  0  0  0  0  0
    2.0638    6.6481    0.1715 C   0  0  0  0  0  0  0  0  0  0  0  0
    1.6661    5.1947    0.1502 C   0  0  0  0  0  0  0  0  0  0  0  0
    2.4562    4.3553   -0.2267 O   0  0  0  0  0  0  0  0  0  0  0  0
    0.4323    4.8277    0.5499 N   0  0  0  0  0  0  0  0  0  0  0  0
    0.1052    3.4758    0.6497 C   0  0  0  0  0  0  0  0  0  0  0  0
   -1.1903    3.0527    0.3699 C   0  0  0  0  0  0  0  0  0  0  0  0
   -1.5166    1.7188    0.4670 C   0  0  0  0  0  0  0  0  0  0  0  0
   -0.5448    0.7893    0.8472 C   0  0  0  0  0  0  0  0  0  0  0  0
    0.7556    1.2177    1.1276 C   0  0  0  0  0  0  0  0  0  0  0  0
    1.0752    2.5531    1.0285 C   0  0  0  0  0  0  0  0  0  0  0  0
   -0.8911   -0.6415    0.9528 C   0  0  0  0  0  0  0  0  0  0  0  0
   -1.9780   -1.0335    0.5745 O   0  0  0  0  0  0  0  0  0  0  0  0
   -0.0024   -1.5136    1.4688 N   0  0  0  0  0  0  0  0  0  0  0  0
    1.3867   -1.2397    1.8635 C   0  0  0  0  0  0  0  0  0  0  0  0
    1.9631   -2.5304    2.3829 C   0  0  0  0  0  0  0  0  0  0  0  0
    1.0709   -3.4789    2.3162 C   0  0  0  0  0  0  0  0  0  0  0  0
   -0.2161   -2.9405    1.7492 C   0  0  0  0  0  0  0  0  0  0  0  0
    7.6538   11.0247   -1.3312 N   0  0  0  0  0  0  0  0  0  0  0  0
    5.3694   11.6099   -0.4497 H   0  0  0  0  0  0  0  0  0  0  0  0
    3.0676   11.2376    0.3299 H   0  0  0  0  0  0  0  0  0  0  0  0
    2.1406    8.9609    0.4043 H   0  0  0  0  0  0  0  0  0  0  0  0
    5.8284    7.3952   -1.0788 H   0  0  0  0  0  0  0  0  0  0  0  0
    1.3969    7.2168   -0.4766 H   0  0  0  0  0  0  0  0  0  0  0  0
    1.9927    7.0294    1.1902 H   0  0  0  0  0  0  0  0  0  0  0  0
   -0.2279    5.5039    0.7681 H   0  0  0  0  0  0  0  0  0  0  0  0
   -1.9398    3.7710    0.0717 H   0  0  0  0  0  0  0  0  0  0  0  0
   -2.5225    1.3911    0.2500 H   0  0  0  0  0  0  0  0  0  0  0  0
    1.5089    0.5020    1.4220 H   0  0  0  0  0  0  0  0  0  0  0  0
    2.0797    2.8848    1.2454 H   0  0  0  0  0  0  0  0  0  0  0  0
    1.9571   -0.8971    1.0002 H   0  0  0  0  0  0  0  0  0  0  0  0
    1.4072   -0.4838    2.6486 H   0  0  0  0  0  0  0  0  0  0  0  0
    2.9702   -2.6533    2.7530 H   0  0  0  0  0  0  0  0  0  0  0  0
    1.2314   -4.5018    2.6235 H   0  0  0  0  0  0  0  0  0  0  0  0
   -1.0201   -3.0597    2.4754 H   0  0  0  0  0  0  0  0  0  0  0  0
   -0.4643   -3.4668    0.8274 H   0  0  0  0  0  0  0  0  0  0  0  0
    7.1102   11.7780   -1.0518 H   0  0  0  0  0  0  0  0  0  0  0  0
    8.5622   11.1698   -1.6389 H   0  0  0  0  0  0  0  0  0  0  0  0
    7.8251    8.6797   -1.6582 N   0  3  0  0  0  0  0  0  0  0  0  0
    7.3939    7.7491   -1.6098 H   0  0  0  0  0  0  0  0  0  0  0  0
  1 47  1  0  0  0  0
  2  3  1  0  0  0  0
  2 27  1  0  0  0  0
  2 47  2  0  0  0  0
  3  8  2  0  0  0  0
  3  4  1  0  0  0  0
  4  5  2  0  0  0  0
  4 28  1  0  0  0  0
  5  6  1  0  0  0  0
  5 29  1  0  0  0  0
  6  7  2  0  0  0  0
  6 30  1  0  0  0  0
  7  8  1  0  0  0  0
  7  9  1  0  0  0  0
  8 31  1  0  0  0  0
  9 10  1  0  0  0  0
 10 11  1  0  0  0  0
 10 32  1  0  0  0  0
 10 33  1  0  0  0  0
 11 12  2  0  0  0  0
 11 13  1  0  0  0  0
 13 14  1  0  0  0  0
 13 34  1  0  0  0  0
 14 19  2  0  0  0  0
 14 15  1  0  0  0  0
 15 16  2  0  0  0  0
 15 35  1  0  0  0  0
 16 17  1  0  0  0  0
 16 36  1  0  0  0  0
 17 18  2  0  0  0  0
 17 20  1  0  0  0  0
 18 19  1  0  0  0  0
 18 37  1  0  0  0  0
 19 38  1  0  0  0  0
 20 21  2  0  0  0  0
 20 22  1  0  0  0  0
 22 26  1  0  0  0  0
 22 23  1  0  0  0  0
 23 24  1  0  0  0  0
 23 39  1  0  0  0  0
 23 40  1  0  0  0  0
 24 25  2  0  0  0  0
 24 41  1  0  0  0  0
 25 26  1  0  0  0  0
 25 42  1  0  0  0  0
 26 43  1  0  0  0  0
 26 44  1  0  0  0  0
 27 45  1  0  0  0  0
 27 46  1  0  0  0  0
 47 48  1  0  0  0  0
M  CHG  1  47   1
M  END
$$$$
ZINC03815608
  -OEChem-08230709403D

 53 56  0     0  0  0  0  0  0999 V2000
    6.5288    0.1931    5.8684 H   0  0  0  0  0  0  0  0  0  0  0  0
    7.7222    1.7130    5.2255 C   0  0  0  0  0  0  0  0  0  0  0  0
    8.1676    2.4270    4.0089 C   0  0  0  0  0  0  0  0  0  0  0  0
    9.0725    3.4903    4.1149 C   0  0  0  0  0  0  0  0  0  0  0  0
    9.4913    4.1562    3.0023 C   0  0  0  0  0  0  0  0  0  0  0  0
    9.0173    3.7805    1.7403 C   0  0  0  0  0  0  0  0  0  0  0  0
    8.1077    2.7135    1.6270 C   0  0  0  0  0  0  0  0  0  0  0  0
    7.6852    2.0408    2.7616 C   0  0  0  0  0  0  0  0  0  0  0  0
    7.8334    2.5885    0.2787 N   0  0  0  0  0  0  0  0  0  0  0  0
    8.5562    3.5393   -0.3701 C   0  0  0  0  0  0  0  0  0  0  0  0
    9.2446    4.2397    0.4845 N   0  0  0  0  0  0  0  0  0  0  0  0
    6.9350    1.6091   -0.3378 C   0  0  0  0  0  0  0  0  0  0  0  0
    5.5218    2.1311   -0.3015 C   0  0  0  0  0  0  0  0  0  0  0  0
    5.2880    3.2146    0.1908 O   0  0  0  0  0  0  0  0  0  0  0  0
    4.5177    1.3940   -0.8162 N   0  0  0  0  0  0  0  0  0  0  0  0
    3.2241    1.9211   -0.8782 C   0  0  0  0  0  0  0  0  0  0  0  0
    3.0387    3.2797   -1.1049 C   0  0  0  0  0  0  0  0  0  0  0  0
    1.7641    3.8017   -1.1665 C   0  0  0  0  0  0  0  0  0  0  0  0
    0.6609    2.9657   -1.0009 C   0  0  0  0  0  0  0  0  0  0  0  0
    0.8495    1.6034   -0.7732 C   0  0  0  0  0  0  0  0  0  0  0  0
    2.1258    1.0858   -0.7128 C   0  0  0  0  0  0  0  0  0  0  0  0
   -0.7113    3.5259   -1.0608 C   0  0  0  0  0  0  0  0  0  0  0  0
   -1.5629    3.4094    0.0365 C   0  0  0  0  0  0  0  0  0  0  0  0
   -2.8382    3.9328   -0.0246 C   0  0  0  0  0  0  0  0  0  0  0  0
   -3.2718    4.5728   -1.1719 C   0  0  0  0  0  0  0  0  0  0  0  0
   -2.4311    4.6914   -2.2636 C   0  0  0  0  0  0  0  0  0  0  0  0
   -1.1517    4.1758   -2.2119 C   0  0  0  0  0  0  0  0  0  0  0  0
   -0.0797    4.3337   -3.6014 S   0  0  0  0  0  0  0  0  0  0  0  0
    0.5659    3.0779   -3.7609 O   0  0  0  0  0  0  0  0  0  0  0  0
   -0.8439    4.9346   -4.6378 O   0  0  0  0  0  0  0  0  0  0  0  0
    1.0982    5.4224   -3.1897 N   0  0  0  0  0  0  0  0  0  0  0  0
    8.1979    2.0947    6.4615 N   0  0  0  0  0  0  0  0  0  0  0  0
    9.4416    3.7847    5.0862 H   0  0  0  0  0  0  0  0  0  0  0  0
   10.1895    4.9750    3.0946 H   0  0  0  0  0  0  0  0  0  0  0  0
    6.9868    1.2213    2.6789 H   0  0  0  0  0  0  0  0  0  0  0  0
    8.5575    3.6929   -1.4391 H   0  0  0  0  0  0  0  0  0  0  0  0
    6.9896    0.6695    0.2122 H   0  0  0  0  0  0  0  0  0  0  0  0
    7.2344    1.4424   -1.3725 H   0  0  0  0  0  0  0  0  0  0  0  0
    4.6925    0.4977   -1.1435 H   0  0  0  0  0  0  0  0  0  0  0  0
    3.8936    3.9269   -1.2332 H   0  0  0  0  0  0  0  0  0  0  0  0
    1.6205    4.8574   -1.3428 H   0  0  0  0  0  0  0  0  0  0  0  0
   -0.0038    0.9539   -0.6442 H   0  0  0  0  0  0  0  0  0  0  0  0
    2.2723    0.0304   -0.5365 H   0  0  0  0  0  0  0  0  0  0  0  0
   -1.2254    2.9100    0.9327 H   0  0  0  0  0  0  0  0  0  0  0  0
   -3.4989    3.8431    0.8251 H   0  0  0  0  0  0  0  0  0  0  0  0
   -4.2705    4.9818   -1.2150 H   0  0  0  0  0  0  0  0  0  0  0  0
   -2.7748    5.1920   -3.1567 H   0  0  0  0  0  0  0  0  0  0  0  0
    1.9659    5.3848   -3.6217 H   0  0  0  0  0  0  0  0  0  0  0  0
    0.9205    6.0979   -2.5165 H   0  0  0  0  0  0  0  0  0  0  0  0
    8.8247    2.8314    6.5336 H   0  0  0  0  0  0  0  0  0  0  0  0
    7.9058    1.6265    7.2592 H   0  0  0  0  0  0  0  0  0  0  0  0
    6.8654    0.7161    5.0598 N   0  3  0  0  0  0  0  0  0  0  0  0
    6.5402    0.4699    4.1175 H   0  0  0  0  0  0  0  0  0  0  0  0
  1 52  1  0  0  0  0
  2  3  1  0  0  0  0
  2 32  1  0  0  0  0
  2 52  2  0  0  0  0
  3  8  2  0  0  0  0
  3  4  1  0  0  0  0
  4  5  2  0  0  0  0
  4 33  1  0  0  0  0
  5  6  1  0  0  0  0
  5 34  1  0  0  0  0
  6 11  1  0  0  0  0
  6  7  2  0  0  0  0
  7  8  1  0  0  0  0
  7  9  1  0  0  0  0
  8 35  1  0  0  0  0
  9 10  1  0  0  0  0
  9 12  1  0  0  0  0
 10 11  2  0  0  0  0
 10 36  1  0  0  0  0
 12 13  1  0  0  0  0
 12 37  1  0  0  0  0
 12 38  1  0  0  0  0
 13 14  2  0  0  0  0
 13 15  1  0  0  0  0
 15 16  1  0  0  0  0
 15 39  1  0  0  0  0
 16 21  2  0  0  0  0
 16 17  1  0  0  0  0
 17 18  2  0  0  0  0
 17 40  1  0  0  0  0
 18 19  1  0  0  0  0
 18 41  1  0  0  0  0
 19 20  2  0  0  0  0
 19 22  1  0  0  0  0
 20 21  1  0  0  0  0
 20 42  1  0  0  0  0
 21 43  1  0  0  0  0
 22 27  2  0  0  0  0
 22 23  1  0  0  0  0
 23 24  2  0  0  0  0
 23 44  1  0  0  0  0
 24 25  1  0  0  0  0
 24 45  1  0  0  0  0
 25 26  2  0  0  0  0
 25 46  1  0  0  0  0
 26 27  1  0  0  0  0
 26 47  1  0  0  0  0
 27 28  1  0  0  0  0
 28 29  2  0  0  0  0
 28 30  2  0  0  0  0
 28 31  1  0  0  0  0
 31 48  1  0  0  0  0
 31 49  1  0  0  0  0
 32 50  1  0  0  0  0
 32 51  1  0  0  0  0
 52 53  1  0  0  0  0
M  CHG  1  52   1
M  END
$$$$
ZINC03815608
  -OEChem-08230709403D

 54 57  0     0  0  0  0  0  0999 V2000
    6.5288    0.1931    5.8684 H   0  0  0  0  0  0  0  0  0  0  0  0
    7.7222    1.7130    5.2255 C   0  0  0  0  0  0  0  0  0  0  0  0
    8.1676    2.4270    4.0089 C   0  0  0  0  0  0  0  0  0  0  0  0
    9.0725    3.4903    4.1149 C   0  0  0  0  0  0  0  0  0  0  0  0
    9.4913    4.1562    3.0023 C   0  0  0  0  0  0  0  0  0  0  0  0
    9.0173    3.7805    1.7403 C   0  0  0  0  0  0  0  0  0  0  0  0
    8.1077    2.7135    1.6270 C   0  0  0  0  0  0  0  0  0  0  0  0
    7.6852    2.0408    2.7616 C   0  0  0  0  0  0  0  0  0  0  0  0
    7.8334    2.5885    0.2787 N   0  0  0  0  0  0  0  0  0  0  0  0
    8.5562    3.5393   -0.3701 C   0  0  0  0  0  0  0  0  0  0  0  0
    6.9350    1.6091   -0.3378 C   0  0  0  0  0  0  0  0  0  0  0  0
    5.5218    2.1311   -0.3015 C   0  0  0  0  0  0  0  0  0  0  0  0
    5.2880    3.2146    0.1908 O   0  0  0  0  0  0  0  0  0  0  0  0
    4.5177    1.3940   -0.8162 N   0  0  0  0  0  0  0  0  0  0  0  0
    3.2241    1.9211   -0.8782 C   0  0  0  0  0  0  0  0  0  0  0  0
    3.0387    3.2797   -1.1049 C   0  0  0  0  0  0  0  0  0  0  0  0
    1.7641    3.8017   -1.1665 C   0  0  0  0  0  0  0  0  0  0  0  0
    0.6609    2.9657   -1.0009 C   0  0  0  0  0  0  0  0  0  0  0  0
    0.8495    1.6034   -0.7732 C   0  0  0  0  0  0  0  0  0  0  0  0
    2.1258    1.0858   -0.7128 C   0  0  0  0  0  0  0  0  0  0  0  0
   -0.7113    3.5259   -1.0608 C   0  0  0  0  0  0  0  0  0  0  0  0
   -1.5629    3.4094    0.0365 C   0  0  0  0  0  0  0  0  0  0  0  0
   -2.8382    3.9328   -0.0246 C   0  0  0  0  0  0  0  0  0  0  0  0
   -3.2718    4.5728   -1.1719 C   0  0  0  0  0  0  0  0  0  0  0  0
   -2.4311    4.6914   -2.2636 C   0  0  0  0  0  0  0  0  0  0  0  0
   -1.1517    4.1758   -2.2119 C   0  0  0  0  0  0  0  0  0  0  0  0
   -0.0797    4.3337   -3.6014 S   0  0  0  0  0  0  0  0  0  0  0  0
    0.5659    3.0779   -3.7609 O   0  0  0  0  0  0  0  0  0  0  0  0
   -0.8439    4.9346   -4.6378 O   0  0  0  0  0  0  0  0  0  0  0  0
    1.0982    5.4224   -3.1897 N   0  0  0  0  0  0  0  0  0  0  0  0
    8.1979    2.0947    6.4615 N   0  0  0  0  0  0  0  0  0  0  0  0
    9.4416    3.7847    5.0862 H   0  0  0  0  0  0  0  0  0  0  0  0
   10.1895    4.9750    3.0946 H   0  0  0  0  0  0  0  0  0  0  0  0
    6.9868    1.2213    2.6789 H   0  0  0  0  0  0  0  0  0  0  0  0
    8.5575    3.6929   -1.4391 H   0  0  0  0  0  0  0  0  0  0  0  0
    6.9896    0.6695    0.2122 H   0  0  0  0  0  0  0  0  0  0  0  0
    7.2344    1.4424   -1.3725 H   0  0  0  0  0  0  0  0  0  0  0  0
    4.6925    0.4977   -1.1435 H   0  0  0  0  0  0  0  0  0  0  0  0
    3.8936    3.9269   -1.2332 H   0  0  0  0  0  0  0  0  0  0  0  0
    1.6205    4.8574   -1.3428 H   0  0  0  0  0  0  0  0  0  0  0  0
   -0.0038    0.9539   -0.6442 H   0  0  0  0  0  0  0  0  0  0  0  0
    2.2723    0.0304   -0.5365 H   0  0  0  0  0  0  0  0  0  0  0  0
   -1.2254    2.9100    0.9327 H   0  0  0  0  0  0  0  0  0  0  0  0
   -3.4989    3.8431    0.8251 H   0  0  0  0  0  0  0  0  0  0  0  0
   -4.2705    4.9818   -1.2150 H   0  0  0  0  0  0  0  0  0  0  0  0
   -2.7748    5.1920   -3.1567 H   0  0  0  0  0  0  0  0  0  0  0  0
    1.9659    5.3848   -3.6217 H   0  0  0  0  0  0  0  0  0  0  0  0
    0.9205    6.0979   -2.5165 H   0  0  0  0  0  0  0  0  0  0  0  0
    8.8247    2.8314    6.5336 H   0  0  0  0  0  0  0  0  0  0  0  0
    7.9058    1.6265    7.2592 H   0  0  0  0  0  0  0  0  0  0  0  0
    6.8654    0.7161    5.0598 N   0  3  0  0  0  0  0  0  0  0  0  0
    6.5402    0.4699    4.1175 H   0  0  0  0  0  0  0  0  0  0  0  0
    9.2455    4.2408    0.4842 N   0  3  0  0  0  0  0  0  0  0  0  0
    9.8664    5.0224    0.2439 H   0  0  0  0  0  0  0  0  0  0  0  0
  1 51  1  0  0  0  0
  2  3  1  0  0  0  0
  2 31  1  0  0  0  0
  2 51  2  0  0  0  0
  3  8  2  0  0  0  0
  3  4  1  0  0  0  0
  4  5  2  0  0  0  0
  4 32  1  0  0  0  0
  5  6  1  0  0  0  0
  5 33  1  0  0  0  0
  6  7  2  0  0  0  0
  6 53  1  0  0  0  0
  7  8  1  0  0  0  0
  7  9  1  0  0  0  0
  8 34  1  0  0  0  0
  9 10  1  0  0  0  0
  9 11  1  0  0  0  0
 10 35  1  0  0  0  0
 10 53  2  0  0  0  0
 11 12  1  0  0  0  0
 11 36  1  0  0  0  0
 11 37  1  0  0  0  0
 12 13  2  0  0  0  0
 12 14  1  0  0  0  0
 14 15  1  0  0  0  0
 14 38  1  0  0  0  0
 15 20  2  0  0  0  0
 15 16  1  0  0  0  0
 16 17  2  0  0  0  0
 16 39  1  0  0  0  0
 17 18  1  0  0  0  0
 17 40  1  0  0  0  0
 18 19  2  0  0  0  0
 18 21  1  0  0  0  0
 19 20  1  0  0  0  0
 19 41  1  0  0  0  0
 20 42  1  0  0  0  0
 21 26  2  0  0  0  0
 21 22  1  0  0  0  0
 22 23  2  0  0  0  0
 22 43  1  0  0  0  0
 23 24  1  0  0  0  0
 23 44  1  0  0  0  0
 24 25  2  0  0  0  0
 24 45  1  0  0  0  0
 25 26  1  0  0  0  0
 25 46  1  0  0  0  0
 26 27  1  0  0  0  0
 27 28  2  0  0  0  0
 27 29  2  0  0  0  0
 27 30  1  0  0  0  0
 30 47  1  0  0  0  0
 30 48  1  0  0  0  0
 31 49  1  0  0  0  0
 31 50  1  0  0  0  0
 51 52  1  0  0  0  0
 53 54  1  0  0  0  0
M  CHG  2  51   1  53   1
M  END
$$$$
ZINC03815609
  -OEChem-08230709403D

 54 57  0     0  0  0  0  0  0999 V2000
    6.5364    4.8817    5.3664 H   0  0  0  0  0  0  0  0  0  0  0  0
    7.6850    5.2548    3.7268 C   0  0  0  0  0  0  0  0  0  0  0  0
    7.8534    4.8989    2.3005 C   0  0  0  0  0  0  0  0  0  0  0  0
    8.8827    5.4823    1.5507 C   0  0  0  0  0  0  0  0  0  0  0  0
    9.0514    5.1649    0.2352 C   0  0  0  0  0  0  0  0  0  0  0  0
    8.1979    4.2526   -0.3811 C   0  0  0  0  0  0  0  0  0  0  0  0
    7.1557    3.6637    0.3606 C   0  0  0  0  0  0  0  0  0  0  0  0
    6.9905    3.9858    1.7064 C   0  0  0  0  0  0  0  0  0  0  0  0
    6.4585    2.7649   -0.5635 C   0  0  0  0  0  0  0  0  0  0  0  0
    7.0802    2.8638   -1.7486 C   0  0  0  0  0  0  0  0  0  0  0  0
    8.1210    3.7477   -1.6579 N   0  0  0  0  0  0  0  0  0  0  0  0
    8.7163    3.9835   -2.3865 H   0  0  0  0  0  0  0  0  0  0  0  0
    5.2666    1.8995   -0.2451 C   0  0  0  0  0  0  0  0  0  0  0  0
    4.0044    2.7103   -0.3888 C   0  0  0  0  0  0  0  0  0  0  0  0
    4.0667    3.8761   -0.7173 O   0  0  0  0  0  0  0  0  0  0  0  0
    2.8064    2.1399   -0.1522 N   0  0  0  0  0  0  0  0  0  0  0  0
    1.6304    2.8535   -0.4036 C   0  0  0  0  0  0  0  0  0  0  0  0
    1.6503    3.9419   -1.2675 C   0  0  0  0  0  0  0  0  0  0  0  0
    0.4922    4.6469   -1.5169 C   0  0  0  0  0  0  0  0  0  0  0  0
   -0.6999    4.2675   -0.9017 C   0  0  0  0  0  0  0  0  0  0  0  0
   -0.7193    3.1723   -0.0399 C   0  0  0  0  0  0  0  0  0  0  0  0
    0.4429    2.4729    0.2108 C   0  0  0  0  0  0  0  0  0  0  0  0
    0.4166    0.8308    1.5115 I   0  0  0  0  0  0  0  0  0  0  0  0
   -1.9474    5.0245   -1.1690 C   0  0  0  0  0  0  0  0  0  0  0  0
   -3.0118    4.4094   -1.8258 C   0  0  0  0  0  0  0  0  0  0  0  0
   -4.1697    5.1183   -2.0719 C   0  0  0  0  0  0  0  0  0  0  0  0
   -4.2754    6.4372   -1.6679 C   0  0  0  0  0  0  0  0  0  0  0  0
   -3.2227    7.0526   -1.0153 C   0  0  0  0  0  0  0  0  0  0  0  0
   -2.0616    6.3514   -0.7592 C   0  0  0  0  0  0  0  0  0  0  0  0
   -0.7241    7.1348    0.0786 S   0  0  0  0  0  0  0  0  0  0  0  0
    0.4316    6.9324   -0.7229 O   0  0  0  0  0  0  0  0  0  0  0  0
   -1.1784    8.4297    0.4473 O   0  0  0  0  0  0  0  0  0  0  0  0
   -0.4742    6.3019    1.4880 N   0  0  0  0  0  0  0  0  0  0  0  0
    8.5405    6.1597    4.3168 N   0  0  0  0  0  0  0  0  0  0  0  0
    9.5500    6.1906    2.0195 H   0  0  0  0  0  0  0  0  0  0  0  0
    9.8495    5.6222   -0.3307 H   0  0  0  0  0  0  0  0  0  0  0  0
    6.1956    3.5338    2.2812 H   0  0  0  0  0  0  0  0  0  0  0  0
    6.8002    2.3258   -2.6422 H   0  0  0  0  0  0  0  0  0  0  0  0
    5.3476    1.5316    0.7777 H   0  0  0  0  0  0  0  0  0  0  0  0
    5.2364    1.0551   -0.9337 H   0  0  0  0  0  0  0  0  0  0  0  0
    2.7601    1.2343    0.1924 H   0  0  0  0  0  0  0  0  0  0  0  0
    2.5741    4.2358   -1.7437 H   0  0  0  0  0  0  0  0  0  0  0  0
    0.5084    5.4923   -2.1887 H   0  0  0  0  0  0  0  0  0  0  0  0
   -1.6426    2.8739    0.4343 H   0  0  0  0  0  0  0  0  0  0  0  0
   -2.9304    3.3797   -2.1414 H   0  0  0  0  0  0  0  0  0  0  0  0
   -4.9952    4.6426   -2.5805 H   0  0  0  0  0  0  0  0  0  0  0  0
   -5.1836    6.9884   -1.8626 H   0  0  0  0  0  0  0  0  0  0  0  0
   -3.3108    8.0823   -0.7019 H   0  0  0  0  0  0  0  0  0  0  0  0
   -1.0293    5.5363    1.7038 H   0  0  0  0  0  0  0  0  0  0  0  0
    0.2272    6.5796    2.0977 H   0  0  0  0  0  0  0  0  0  0  0  0
    9.2532    6.5634    3.7971 H   0  0  0  0  0  0  0  0  0  0  0  0
    8.4302    6.3930    5.2518 H   0  0  0  0  0  0  0  0  0  0  0  0
    6.6932    4.6690    4.3811 N   0  3  0  0  0  0  0  0  0  0  0  0
    6.0823    4.0010    3.8965 H   0  0  0  0  0  0  0  0  0  0  0  0
  1 53  1  0  0  0  0
  2  3  1  0  0  0  0
  2 34  1  0  0  0  0
  2 53  2  0  0  0  0
  3  8  2  0  0  0  0
  3  4  1  0  0  0  0
  4  5  2  0  0  0  0
  4 35  1  0  0  0  0
  5  6  1  0  0  0  0
  5 36  1  0  0  0  0
  6 11  1  0  0  0  0
  6  7  2  0  0  0  0
  7  8  1  0  0  0  0
  7  9  1  0  0  0  0
  8 37  1  0  0  0  0
  9 10  2  0  0  0  0
  9 13  1  0  0  0  0
 10 11  1  0  0  0  0
 10 38  1  0  0  0  0
 11 12  1  0  0  0  0
 13 14  1  0  0  0  0
 13 39  1  0  0  0  0
 13 40  1  0  0  0  0
 14 15  2  0  0  0  0
 14 16  1  0  0  0  0
 16 17  1  0  0  0  0
 16 41  1  0  0  0  0
 17 22  2  0  0  0  0
 17 18  1  0  0  0  0
 18 19  2  0  0  0  0
 18 42  1  0  0  0  0
 19 20  1  0  0  0  0
 19 43  1  0  0  0  0
 20 21  2  0  0  0  0
 20 24  1  0  0  0  0
 21 22  1  0  0  0  0
 21 44  1  0  0  0  0
 22 23  1  0  0  0  0
 24 29  2  0  0  0  0
 24 25  1  0  0  0  0
 25 26  2  0  0  0  0
 25 45  1  0  0  0  0
 26 27  1  0  0  0  0
 26 46  1  0  0  0  0
 27 28  2  0  0  0  0
 27 47  1  0  0  0  0
 28 29  1  0  0  0  0
 28 48  1  0  0  0  0
 29 30  1  0  0  0  0
 30 31  2  0  0  0  0
 30 32  2  0  0  0  0
 30 33  1  0  0  0  0
 33 49  1  0  0  0  0
 33 50  1  0  0  0  0
 34 51  1  0  0  0  0
 34 52  1  0  0  0  0
 53 54  1  0  0  0  0
M  CHG  1  53   1
M  END
$$$$
ZINC03815610
  -OEChem-08230709403D

 50 52  0     1  0  0  0  0  0999 V2000
   -1.7786    8.1158   -1.5372 C   0  0  0  0  0  0  0  0  0  0  0  0
   -1.8447    7.5556   -0.1150 C   0  0  2  0  0  0  0  0  0  0  0  0
   -1.1869    8.1335    0.5341 H   0  0  0  0  0  0  0  0  0  0  0  0
   -1.4040    6.1144   -0.1218 C   0  0  0  0  0  0  0  0  0  0  0  0
   -2.1644    5.2460    0.2510 O   0  0  0  0  0  0  0  0  0  0  0  0
   -0.1651    5.7905   -0.5422 N   0  0  0  0  0  0  0  0  0  0  0  0
    0.2094    4.4449   -0.6468 C   0  0  0  0  0  0  0  0  0  0  0  0
    1.5238    4.0690   -0.4027 C   0  0  0  0  0  0  0  0  0  0  0  0
    1.8930    2.7428   -0.5059 C   0  0  0  0  0  0  0  0  0  0  0  0
    0.9500    1.7846   -0.8538 C   0  0  0  0  0  0  0  0  0  0  0  0
   -0.3633    2.1612   -1.1030 C   0  0  0  0  0  0  0  0  0  0  0  0
   -0.7337    3.4866   -0.9943 C   0  0  0  0  0  0  0  0  0  0  0  0
    1.3247    0.4390   -0.9589 N   0  0  0  0  0  0  0  0  0  0  0  0
    1.8564   -0.2362    0.2225 C   0  0  0  0  0  0  0  0  0  0  0  0
    1.7705   -1.7529    0.0391 C   0  0  0  0  0  0  0  0  0  0  0  0
    2.3189   -2.0920   -1.2401 O   0  0  0  0  0  0  0  0  0  0  0  0
    1.5179   -1.6312   -2.3309 C   0  0  0  0  0  0  0  0  0  0  0  0
    1.1766   -0.1800   -2.1366 C   0  0  0  0  0  0  0  0  0  0  0  0
    0.7562    0.4535   -3.0817 O   0  0  0  0  0  0  0  0  0  0  0  0
   -3.2203    7.6433    0.3810 N   0  0  0  0  0  0  0  0  0  0  0  0
   -3.6607    8.7837    0.9484 C   0  0  0  0  0  0  0  0  0  0  0  0
   -2.9163    9.7398    1.0485 O   0  0  0  0  0  0  0  0  0  0  0  0
   -4.9263    8.8644    1.4047 N   0  0  0  0  0  0  0  0  0  0  0  0
   -5.3514   10.0082    2.0911 C   0  0  0  0  0  0  0  0  0  0  0  0
   -4.4663   10.6972    2.9095 C   0  0  0  0  0  0  0  0  0  0  0  0
   -4.8866   11.8282    3.5815 C   0  0  0  0  0  0  0  0  0  0  0  0
   -6.1918   12.2684    3.4486 C   0  0  0  0  0  0  0  0  0  0  0  0
   -7.0773   11.5805    2.6376 C   0  0  0  0  0  0  0  0  0  0  0  0
   -6.6604   10.4522    1.9590 C   0  0  0  0  0  0  0  0  0  0  0  0
   -6.7191   13.6864    4.3002 Cl  0  0  0  0  0  0  0  0  0  0  0  0
   -2.0973    9.1582   -1.5322 H   0  0  0  0  0  0  0  0  0  0  0  0
   -0.7551    8.0506   -1.9062 H   0  0  0  0  0  0  0  0  0  0  0  0
   -2.4364    7.5379   -2.1863 H   0  0  0  0  0  0  0  0  0  0  0  0
    0.4671    6.4893   -0.7722 H   0  0  0  0  0  0  0  0  0  0  0  0
    2.2572    4.8142   -0.1318 H   0  0  0  0  0  0  0  0  0  0  0  0
    2.9151    2.4505   -0.3157 H   0  0  0  0  0  0  0  0  0  0  0  0
   -1.0957    1.4166   -1.3775 H   0  0  0  0  0  0  0  0  0  0  0  0
   -1.7559    3.7789   -1.1841 H   0  0  0  0  0  0  0  0  0  0  0  0
    2.8975    0.0526    0.3666 H   0  0  0  0  0  0  0  0  0  0  0  0
    1.2766    0.0559    1.0980 H   0  0  0  0  0  0  0  0  0  0  0  0
    2.3404   -2.2492    0.8245 H   0  0  0  0  0  0  0  0  0  0  0  0
    0.7284   -2.0688    0.0882 H   0  0  0  0  0  0  0  0  0  0  0  0
    2.0695   -1.7545   -3.2629 H   0  0  0  0  0  0  0  0  0  0  0  0
    0.5971   -2.2127   -2.3752 H   0  0  0  0  0  0  0  0  0  0  0  0
   -3.8143    6.8805    0.3012 H   0  0  0  0  0  0  0  0  0  0  0  0
   -5.5427    8.1300    1.2575 H   0  0  0  0  0  0  0  0  0  0  0  0
   -3.4488   10.3513    3.0174 H   0  0  0  0  0  0  0  0  0  0  0  0
   -4.1973   12.3673    4.2144 H   0  0  0  0  0  0  0  0  0  0  0  0
   -8.0953   11.9265    2.5350 H   0  0  0  0  0  0  0  0  0  0  0  0
   -7.3518    9.9159    1.3260 H   0  0  0  0  0  0  0  0  0  0  0  0
  1  2  1  0  0  0  0
  1 31  1  0  0  0  0
  1 32  1  0  0  0  0
  1 33  1  0  0  0  0
  2  3  1  0  0  0  0
  2  4  1  0  0  0  0
  2 20  1  0  0  0  0
  4  5  2  0  0  0  0
  4  6  1  0  0  0  0
  6  7  1  0  0  0  0
  6 34  1  0  0  0  0
  7 12  2  0  0  0  0
  7  8  1  0  0  0  0
  8  9  2  0  0  0  0
  8 35  1  0  0  0  0
  9 10  1  0  0  0  0
  9 36  1  0  0  0  0
 10 11  2  0  0  0  0
 10 13  1  0  0  0  0
 11 12  1  0  0  0  0
 11 37  1  0  0  0  0
 12 38  1  0  0  0  0
 13 18  1  0  0  0  0
 13 14  1  0  0  0  0
 14 15  1  0  0  0  0
 14 39  1  0  0  0  0
 14 40  1  0  0  0  0
 15 16  1  0  0  0  0
 15 41  1  0  0  0  0
 15 42  1  0  0  0  0
 16 17  1  0  0  0  0
 17 18  1  0  0  0  0
 17 43  1  0  0  0  0
 17 44  1  0  0  0  0
 18 19  2  0  0  0  0
 20 21  1  0  0  0  0
 20 45  1  0  0  0  0
 21 22  2  0  0  0  0
 21 23  1  0  0  0  0
 23 24  1  0  0  0  0
 23 46  1  0  0  0  0
 24 29  2  0  0  0  0
 24 25  1  0  0  0  0
 25 26  2  0  0  0  0
 25 47  1  0  0  0  0
 26 27  1  0  0  0  0
 26 48  1  0  0  0  0
 27 28  2  0  0  0  0
 27 30  1  0  0  0  0
 28 29  1  0  0  0  0
 28 49  1  0  0  0  0
 29 50  1  0  0  0  0
M  END
$$$$
ZINC03815611
  -OEChem-08230709403D

 55 57  0     0  0  0  0  0  0999 V2000
    4.9914    3.4881    1.6162 C   0  0  0  0  0  0  0  0  0  0  0  0
    3.7560    2.5878    1.5511 C   0  0  0  0  0  0  0  0  0  0  0  0
    3.4976    2.1806    0.0991 C   0  0  0  0  0  0  0  0  0  0  0  0
    2.3147    1.3186    0.0368 N   0  0  0  0  0  0  0  0  0  0  0  0
    1.0933    1.8618   -0.1350 C   0  0  0  0  0  0  0  0  0  0  0  0
    0.9732    3.0674   -0.2382 O   0  0  0  0  0  0  0  0  0  0  0  0
    0.0051    1.0688   -0.1924 N   0  0  0  0  0  0  0  0  0  0  0  0
   -1.2724    1.6376   -0.2805 C   0  0  0  0  0  0  0  0  0  0  0  0
   -2.3492    1.0268    0.3485 C   0  0  0  0  0  0  0  0  0  0  0  0
   -3.6068    1.5903    0.2664 C   0  0  0  0  0  0  0  0  0  0  0  0
   -3.7972    2.7614   -0.4551 C   0  0  0  0  0  0  0  0  0  0  0  0
   -2.7213    3.3691   -1.0889 C   0  0  0  0  0  0  0  0  0  0  0  0
   -1.4626    2.8089   -1.0016 C   0  0  0  0  0  0  0  0  0  0  0  0
   -5.0746    3.3296   -0.5440 N   0  0  0  0  0  0  0  0  0  0  0  0
   -5.7034    3.8377    0.6728 C   0  0  0  0  0  0  0  0  0  0  0  0
   -6.8376    4.8010    0.3083 C   0  0  0  0  0  0  0  0  0  0  0  0
   -7.6725    4.1710   -0.6704 O   0  0  0  0  0  0  0  0  0  0  0  0
   -7.0259    4.0095   -1.9353 C   0  0  0  0  0  0  0  0  0  0  0  0
   -5.6741    3.3811   -1.7399 C   0  0  0  0  0  0  0  0  0  0  0  0
   -5.1068    2.9035   -2.6997 O   0  0  0  0  0  0  0  0  0  0  0  0
    2.4531   -0.0705    0.1557 N   0  0  0  0  0  0  0  0  0  0  0  0
    2.9386   -0.7901   -0.8753 C   0  0  0  0  0  0  0  0  0  0  0  0
    3.0587   -1.9956   -0.7721 O   0  0  0  0  0  0  0  0  0  0  0  0
    3.2909   -0.1734   -2.0208 N   0  0  0  0  0  0  0  0  0  0  0  0
    3.7046   -0.9293   -3.1241 C   0  0  0  0  0  0  0  0  0  0  0  0
    4.4396   -2.0920   -2.9344 C   0  0  0  0  0  0  0  0  0  0  0  0
    4.8412   -2.8392   -4.0243 C   0  0  0  0  0  0  0  0  0  0  0  0
    4.5225   -2.4235   -5.3051 C   0  0  0  0  0  0  0  0  0  0  0  0
    3.7951   -1.2621   -5.4971 C   0  0  0  0  0  0  0  0  0  0  0  0
    3.3857   -0.5145   -4.4103 C   0  0  0  0  0  0  0  0  0  0  0  0
    5.0355   -3.3608   -6.6732 Cl  0  0  0  0  0  0  0  0  0  0  0  0
    5.1754    3.7782    2.6507 H   0  0  0  0  0  0  0  0  0  0  0  0
    5.8558    2.9471    1.2313 H   0  0  0  0  0  0  0  0  0  0  0  0
    4.8230    4.3802    1.0131 H   0  0  0  0  0  0  0  0  0  0  0  0
    2.8915    3.1288    1.9360 H   0  0  0  0  0  0  0  0  0  0  0  0
    3.9243    1.6956    2.1543 H   0  0  0  0  0  0  0  0  0  0  0  0
    4.3621    1.6396   -0.2858 H   0  0  0  0  0  0  0  0  0  0  0  0
    3.3293    3.0727   -0.5040 H   0  0  0  0  0  0  0  0  0  0  0  0
    0.1065    0.1042   -0.1766 H   0  0  0  0  0  0  0  0  0  0  0  0
   -2.2021    0.1132    0.9054 H   0  0  0  0  0  0  0  0  0  0  0  0
   -4.4435    1.1177    0.7593 H   0  0  0  0  0  0  0  0  0  0  0  0
   -2.8692    4.2801   -1.6497 H   0  0  0  0  0  0  0  0  0  0  0  0
   -0.6259    3.2815   -1.4945 H   0  0  0  0  0  0  0  0  0  0  0  0
   -6.1035    3.0034    1.2490 H   0  0  0  0  0  0  0  0  0  0  0  0
   -4.9605    4.3655    1.2709 H   0  0  0  0  0  0  0  0  0  0  0  0
   -6.4231    5.7216   -0.1026 H   0  0  0  0  0  0  0  0  0  0  0  0
   -7.4243    5.0268    1.1987 H   0  0  0  0  0  0  0  0  0  0  0  0
   -6.9074    4.9842   -2.4086 H   0  0  0  0  0  0  0  0  0  0  0  0
   -7.6347    3.3686   -2.5730 H   0  0  0  0  0  0  0  0  0  0  0  0
    2.1996   -0.5144    0.9801 H   0  0  0  0  0  0  0  0  0  0  0  0
    3.2577    0.7942   -2.0807 H   0  0  0  0  0  0  0  0  0  0  0  0
    4.6931   -2.4142   -1.9352 H   0  0  0  0  0  0  0  0  0  0  0  0
    5.4084   -3.7464   -3.8770 H   0  0  0  0  0  0  0  0  0  0  0  0
    3.5469   -0.9401   -6.4977 H   0  0  0  0  0  0  0  0  0  0  0  0
    2.8177    0.3917   -4.5607 H   0  0  0  0  0  0  0  0  0  0  0  0
  1  2  1  0  0  0  0
  1 32  1  0  0  0  0
  1 33  1  0  0  0  0
  1 34  1  0  0  0  0
  2  3  1  0  0  0  0
  2 35  1  0  0  0  0
  2 36  1  0  0  0  0
  3  4  1  0  0  0  0
  3 37  1  0  0  0  0
  3 38  1  0  0  0  0
  4  5  1  0  0  0  0
  4 21  1  0  0  0  0
  5  6  2  0  0  0  0
  5  7  1  0  0  0  0
  7  8  1  0  0  0  0
  7 39  1  0  0  0  0
  8 13  2  0  0  0  0
  8  9  1  0  0  0  0
  9 10  2  0  0  0  0
  9 40  1  0  0  0  0
 10 11  1  0  0  0  0
 10 41  1  0  0  0  0
 11 12  2  0  0  0  0
 11 14  1  0  0  0  0
 12 13  1  0  0  0  0
 12 42  1  0  0  0  0
 13 43  1  0  0  0  0
 14 19  1  0  0  0  0
 14 15  1  0  0  0  0
 15 16  1  0  0  0  0
 15 44  1  0  0  0  0
 15 45  1  0  0  0  0
 16 17  1  0  0  0  0
 16 46  1  0  0  0  0
 16 47  1  0  0  0  0
 17 18  1  0  0  0  0
 18 19  1  0  0  0  0
 18 48  1  0  0  0  0
 18 49  1  0  0  0  0
 19 20  2  0  0  0  0
 21 22  1  0  0  0  0
 21 50  1  0  0  0  0
 22 23  2  0  0  0  0
 22 24  1  0  0  0  0
 24 25  1  0  0  0  0
 24 51  1  0  0  0  0
 25 30  2  0  0  0  0
 25 26  1  0  0  0  0
 26 27  2  0  0  0  0
 26 52  1  0  0  0  0
 27 28  1  0  0  0  0
 27 53  1  0  0  0  0
 28 29  2  0  0  0  0
 28 31  1  0  0  0  0
 29 30  1  0  0  0  0
 29 54  1  0  0  0  0
 30 55  1  0  0  0  0
M  END
$$$$
ZINC03815612
  -OEChem-08230709403D

 60 64  0     0  0  0  0  0  0999 V2000
   10.3777   -0.9395   -1.6367 H   0  0  0  0  0  0  0  0  0  0  0  0
    9.4167   -0.0217   -0.0945 C   0  0  0  0  0  0  0  0  0  0  0  0
    8.3537    0.9618    0.2144 C   0  0  0  0  0  0  0  0  0  0  0  0
    7.6525    1.5825   -0.8190 C   0  0  0  0  0  0  0  0  0  0  0  0
    6.6632    2.4985   -0.5249 C   0  0  0  0  0  0  0  0  0  0  0  0
    6.3663    2.8012    0.7919 C   0  0  0  0  0  0  0  0  0  0  0  0
    7.0619    2.1928    1.8212 C   0  0  0  0  0  0  0  0  0  0  0  0
    8.0501    1.2715    1.5398 C   0  0  0  0  0  0  0  0  0  0  0  0
    5.2848    3.8025    1.1062 C   0  0  0  0  0  0  0  0  0  0  0  0
    3.9628    3.0904    1.2346 C   0  0  0  0  0  0  0  0  0  0  0  0
    2.7481    3.8540    1.5405 C   0  0  0  0  0  0  0  0  0  0  0  0
    2.8007    5.0611    1.6918 O   0  0  0  0  0  0  0  0  0  0  0  0
    1.5703    3.2015    1.6524 N   0  0  0  0  0  0  0  0  0  0  0  0
    1.5452    1.8326    1.4758 C   0  0  0  0  0  0  0  0  0  0  0  0
    0.3478    1.1314    1.5852 C   0  0  0  0  0  0  0  0  0  0  0  0
    0.3348   -0.2344    1.4070 C   0  0  0  0  0  0  0  0  0  0  0  0
    1.5084   -0.9190    1.1184 C   0  0  0  0  0  0  0  0  0  0  0  0
    2.6933   -0.2527    1.0066 C   0  0  0  0  0  0  0  0  0  0  0  0
    2.7344    1.1392    1.1835 C   0  0  0  0  0  0  0  0  0  0  0  0
    3.9031    1.7996    1.0741 N   0  0  0  0  0  0  0  0  0  0  0  0
    1.4723   -2.4135    0.9276 C   0  0  0  0  0  0  0  0  0  0  0  0
    0.6658   -2.9554   -0.2543 C   0  0  0  0  0  0  0  0  0  0  0  0
    0.1402   -3.1251    1.1725 C   0  0  0  0  0  0  0  0  0  0  0  0
    2.7331   -3.1476    1.3053 C   0  0  0  0  0  0  0  0  0  0  0  0
    3.3852   -3.7114    0.4521 O   0  0  0  0  0  0  0  0  0  0  0  0
    3.1359   -3.1777    2.5910 N   0  0  0  0  0  0  0  0  0  0  0  0
    2.3924   -2.6296    3.7349 C   0  0  0  0  0  0  0  0  0  0  0  0
    3.2483   -2.8712    4.9960 C   0  0  0  0  0  0  0  0  0  0  0  0
    4.6797   -3.0262    4.4175 C   0  0  0  0  0  0  0  0  0  0  0  0
    4.3978   -3.7600    3.0827 C   0  0  0  0  0  0  0  0  0  0  0  0
    0.3394    3.9351    1.9570 C   0  0  0  0  0  0  0  0  0  0  0  0
   10.1078   -0.6332    0.9287 N   0  0  0  0  0  0  0  0  0  0  0  0
    7.8829    1.3464   -1.8474 H   0  0  0  0  0  0  0  0  0  0  0  0
    6.1195    2.9798   -1.3243 H   0  0  0  0  0  0  0  0  0  0  0  0
    6.8285    2.4362    2.8472 H   0  0  0  0  0  0  0  0  0  0  0  0
    8.5895    0.7938    2.3444 H   0  0  0  0  0  0  0  0  0  0  0  0
    5.2252    4.5371    0.3031 H   0  0  0  0  0  0  0  0  0  0  0  0
    5.5182    4.3072    2.0437 H   0  0  0  0  0  0  0  0  0  0  0  0
   -0.5695    1.6575    1.8049 H   0  0  0  0  0  0  0  0  0  0  0  0
   -0.5950   -0.7771    1.4918 H   0  0  0  0  0  0  0  0  0  0  0  0
    3.5993   -0.7956    0.7816 H   0  0  0  0  0  0  0  0  0  0  0  0
    0.1613   -2.2311   -0.8937 H   0  0  0  0  0  0  0  0  0  0  0  0
    1.0471   -3.8432   -0.7590 H   0  0  0  0  0  0  0  0  0  0  0  0
    0.1757   -4.1242    1.6065 H   0  0  0  0  0  0  0  0  0  0  0  0
   -0.7101   -2.5122    1.4718 H   0  0  0  0  0  0  0  0  0  0  0  0
    2.2303   -1.5610    3.5938 H   0  0  0  0  0  0  0  0  0  0  0  0
    1.4355   -3.1419    3.8349 H   0  0  0  0  0  0  0  0  0  0  0  0
    2.9385   -3.7823    5.5080 H   0  0  0  0  0  0  0  0  0  0  0  0
    3.1941   -2.0134    5.6663 H   0  0  0  0  0  0  0  0  0  0  0  0
    5.3025   -3.6342    5.0737 H   0  0  0  0  0  0  0  0  0  0  0  0
    5.1366   -2.0528    4.2394 H   0  0  0  0  0  0  0  0  0  0  0  0
    4.2801   -4.8298    3.2554 H   0  0  0  0  0  0  0  0  0  0  0  0
    5.2031   -3.5760    2.3713 H   0  0  0  0  0  0  0  0  0  0  0  0
    0.5649    4.9966    2.0596 H   0  0  0  0  0  0  0  0  0  0  0  0
   -0.3780    3.7926    1.1489 H   0  0  0  0  0  0  0  0  0  0  0  0
   -0.0847    3.5621    2.8893 H   0  0  0  0  0  0  0  0  0  0  0  0
    9.8981   -0.4195    1.8513 H   0  0  0  0  0  0  0  0  0  0  0  0
   10.8042   -1.2775    0.7264 H   0  0  0  0  0  0  0  0  0  0  0  0
    9.6550   -0.2696   -1.3731 N   0  3  0  0  0  0  0  0  0  0  0  0
    9.1123    0.2124   -2.0993 H   0  0  0  0  0  0  0  0  0  0  0  0
  1 59  1  0  0  0  0
  2  3  1  0  0  0  0
  2 32  1  0  0  0  0
  2 59  2  0  0  0  0
  3  8  2  0  0  0  0
  3  4  1  0  0  0  0
  4  5  2  0  0  0  0
  4 33  1  0  0  0  0
  5  6  1  0  0  0  0
  5 34  1  0  0  0  0
  6  7  2  0  0  0  0
  6  9  1  0  0  0  0
  7  8  1  0  0  0  0
  7 35  1  0  0  0  0
  8 36  1  0  0  0  0
  9 10  1  0  0  0  0
  9 37  1  0  0  0  0
  9 38  1  0  0  0  0
 10 20  2  0  0  0  0
 10 11  1  0  0  0  0
 11 12  2  0  0  0  0
 11 13  1  0  0  0  0
 13 14  1  0  0  0  0
 13 31  1  0  0  0  0
 14 19  2  0  0  0  0
 14 15  1  0  0  0  0
 15 16  2  0  0  0  0
 15 39  1  0  0  0  0
 16 17  1  0  0  0  0
 16 40  1  0  0  0  0
 17 18  2  0  0  0  0
 17 21  1  0  0  0  0
 18 19  1  0  0  0  0
 18 41  1  0  0  0  0
 19 20  1  0  0  0  0
 21 23  1  0  0  0  0
 21 22  1  0  0  0  0
 21 24  1  0  0  0  0
 22 23  1  0  0  0  0
 22 42  1  0  0  0  0
 22 43  1  0  0  0  0
 23 44  1  0  0  0  0
 23 45  1  0  0  0  0
 24 25  2  0  0  0  0
 24 26  1  0  0  0  0
 26 30  1  0  0  0  0
 26 27  1  0  0  0  0
 27 28  1  0  0  0  0
 27 46  1  0  0  0  0
 27 47  1  0  0  0  0
 28 29  1  0  0  0  0
 28 48  1  0  0  0  0
 28 49  1  0  0  0  0
 29 30  1  0  0  0  0
 29 50  1  0  0  0  0
 29 51  1  0  0  0  0
 30 52  1  0  0  0  0
 30 53  1  0  0  0  0
 31 54  1  0  0  0  0
 31 55  1  0  0  0  0
 31 56  1  0  0  0  0
 32 57  1  0  0  0  0
 32 58  1  0  0  0  0
 59 60  1  0  0  0  0
M  CHG  1  59   1
M  END
$$$$
ZINC03815613
  -OEChem-08230709403D

 65 69  0     1  0  0  0  0  0999 V2000
    1.5372    7.2099   -2.8128 C   0  0  0  0  0  0  0  0  0  0  0  0
    1.3053    8.2138   -3.7040 C   0  0  0  0  0  0  0  0  0  0  0  0
    1.6215    8.0356   -5.0548 C   0  0  0  0  0  0  0  0  0  0  0  0
    2.1800    6.8196   -5.4970 C   0  0  0  0  0  0  0  0  0  0  0  0
    2.4177    5.8051   -4.5823 C   0  0  0  0  0  0  0  0  0  0  0  0
    2.0924    5.9957   -3.2411 C   0  0  0  0  0  0  0  0  0  0  0  0
    2.3392    4.9165   -2.2653 C   0  0  0  0  0  0  0  0  0  0  0  0
    2.8205    3.8624   -2.6334 O   0  0  0  0  0  0  0  0  0  0  0  0
    2.0309    5.0994   -0.9660 N   0  0  0  0  0  0  0  0  0  0  0  0
    2.2759    4.0280    0.0027 C   0  0  2  0  0  0  0  0  0  0  0  0
    3.1810    3.4876   -0.2743 H   0  0  0  0  0  0  0  0  0  0  0  0
    1.1057    3.0785    0.0081 C   0  0  0  0  0  0  0  0  0  0  0  0
    1.1089    1.7655    0.0010 N   0  0  0  0  0  0  0  0  0  0  0  0
   -0.0126    1.0758    0.0080 C   0  0  0  0  0  0  0  0  0  0  0  0
   -1.1877    1.7552    0.0171 C   0  0  0  0  0  0  0  0  0  0  0  0
   -0.5927    3.4402    0.0263 S   0  0  0  0  0  0  0  0  0  0  0  0
    2.4465    4.6227    1.3769 C   0  0  0  0  0  0  0  0  0  0  0  0
    2.3710    5.8232    1.5318 O   0  0  0  0  0  0  0  0  0  0  0  0
    2.6831    3.8204    2.4337 N   0  0  0  0  0  0  0  0  0  0  0  0
    2.8490    4.3985    3.7696 C   0  0  0  0  0  0  0  0  0  0  0  0
    3.1048    3.2796    4.7813 C   0  0  0  0  0  0  0  0  0  0  0  0
    1.8649    2.3867    4.8811 C   0  0  0  0  0  0  0  0  0  0  0  0
    2.1036    1.3073    5.9394 C   0  0  0  0  0  0  0  0  0  0  0  0
    3.5934    2.7652    7.1751 C   0  0  0  0  0  0  0  0  0  0  0  0
    3.3987    3.8891    6.1549 C   0  0  0  0  0  0  0  0  0  0  0  0
    2.4775    0.9363    8.3023 C   0  0  0  0  0  0  0  0  0  0  0  0
    3.6403   -0.0342    8.0093 C   0  0  0  0  0  0  0  0  0  0  0  0
    3.1166   -1.4105    8.4895 C   0  0  0  0  0  0  0  0  0  0  0  0
    1.6242   -1.3712    8.0768 C   0  0  0  0  0  0  0  0  0  0  0  0
    1.1956    0.0862    8.3452 C   0  0  0  0  0  0  0  0  0  0  0  0
    2.3814    6.9351   -6.8555 N   0  0  0  0  0  0  0  0  0  0  0  0
    2.7560    6.2444   -7.4242 H   0  0  0  0  0  0  0  0  0  0  0  0
    1.9740    8.1685   -7.2820 C   0  0  0  0  0  0  0  0  0  0  0  0
    1.5048    8.8817   -6.2426 C   0  0  0  0  0  0  0  0  0  0  0  0
    0.8785   10.4998   -6.2998 Cl  0  0  0  0  0  0  0  0  0  0  0  0
    1.2918    7.3499   -1.7704 H   0  0  0  0  0  0  0  0  0  0  0  0
    0.8777    9.1468   -3.3676 H   0  0  0  0  0  0  0  0  0  0  0  0
    2.8490    4.8702   -4.9085 H   0  0  0  0  0  0  0  0  0  0  0  0
    1.6469    5.9403   -0.6723 H   0  0  0  0  0  0  0  0  0  0  0  0
    0.0021   -0.0041    0.0020 H   0  0  0  0  0  0  0  0  0  0  0  0
   -2.2009    1.3812    0.0198 H   0  0  0  0  0  0  0  0  0  0  0  0
    2.7435    2.8603    2.3098 H   0  0  0  0  0  0  0  0  0  0  0  0
    3.6953    5.0853    3.7657 H   0  0  0  0  0  0  0  0  0  0  0  0
    1.9438    4.9389    4.0466 H   0  0  0  0  0  0  0  0  0  0  0  0
    3.9578    2.6835    4.4572 H   0  0  0  0  0  0  0  0  0  0  0  0
    1.0035    2.9906    5.1664 H   0  0  0  0  0  0  0  0  0  0  0  0
    1.6766    1.9162    3.9161 H   0  0  0  0  0  0  0  0  0  0  0  0
    2.9559    0.6944    5.6460 H   0  0  0  0  0  0  0  0  0  0  0  0
    1.2166    0.6793    6.0239 H   0  0  0  0  0  0  0  0  0  0  0  0
    4.4388    2.1455    6.8759 H   0  0  0  0  0  0  0  0  0  0  0  0
    3.7886    3.1960    8.1572 H   0  0  0  0  0  0  0  0  0  0  0  0
    4.3055    4.4913    6.0993 H   0  0  0  0  0  0  0  0  0  0  0  0
    2.5624    4.5179    6.4604 H   0  0  0  0  0  0  0  0  0  0  0  0
    2.6327    1.4267    9.2633 H   0  0  0  0  0  0  0  0  0  0  0  0
    3.8560   -0.0597    6.9411 H   0  0  0  0  0  0  0  0  0  0  0  0
    4.5284    0.2535    8.5720 H   0  0  0  0  0  0  0  0  0  0  0  0
    3.2160   -1.5057    9.5708 H   0  0  0  0  0  0  0  0  0  0  0  0
    3.6371   -2.2212    7.9798 H   0  0  0  0  0  0  0  0  0  0  0  0
    1.0409   -2.0592    8.6888 H   0  0  0  0  0  0  0  0  0  0  0  0
    1.5143   -1.6126    7.0196 H   0  0  0  0  0  0  0  0  0  0  0  0
    0.7292    0.1634    9.3273 H   0  0  0  0  0  0  0  0  0  0  0  0
    0.5005    0.4197    7.5748 H   0  0  0  0  0  0  0  0  0  0  0  0
    2.0219    8.5185   -8.3026 H   0  0  0  0  0  0  0  0  0  0  0  0
    2.3564    1.9586    7.2424 N   0  3  0  0  0  0  0  0  0  0  0  0
    1.5674    2.5770    7.4643 H   0  0  0  0  0  0  0  0  0  0  0  0
  1  6  2  0  0  0  0
  1  2  1  0  0  0  0
  1 36  1  0  0  0  0
  2  3  2  0  0  0  0
  2 37  1  0  0  0  0
  3 34  1  0  0  0  0
  3  4  1  0  0  0  0
  4  5  2  0  0  0  0
  4 31  1  0  0  0  0
  5  6  1  0  0  0  0
  5 38  1  0  0  0  0
  6  7  1  0  0  0  0
  7  8  2  0  0  0  0
  7  9  1  0  0  0  0
  9 10  1  0  0  0  0
  9 39  1  0  0  0  0
 10 11  1  0  0  0  0
 10 12  1  0  0  0  0
 10 17  1  0  0  0  0
 12 16  1  0  0  0  0
 12 13  2  0  0  0  0
 13 14  1  0  0  0  0
 14 15  2  0  0  0  0
 14 40  1  0  0  0  0
 15 16  1  0  0  0  0
 15 41  1  0  0  0  0
 17 18  2  0  0  0  0
 17 19  1  0  0  0  0
 19 20  1  0  0  0  0
 19 42  1  0  0  0  0
 20 21  1  0  0  0  0
 20 43  1  0  0  0  0
 20 44  1  0  0  0  0
 21 25  1  0  0  0  0
 21 22  1  0  0  0  0
 21 45  1  0  0  0  0
 22 23  1  0  0  0  0
 22 46  1  0  0  0  0
 22 47  1  0  0  0  0
 23 48  1  0  0  0  0
 23 49  1  0  0  0  0
 23 64  1  0  0  0  0
 24 25  1  0  0  0  0
 24 50  1  0  0  0  0
 24 51  1  0  0  0  0
 24 64  1  0  0  0  0
 25 52  1  0  0  0  0
 25 53  1  0  0  0  0
 26 30  1  0  0  0  0
 26 27  1  0  0  0  0
 26 54  1  0  0  0  0
 26 64  1  0  0  0  0
 27 28  1  0  0  0  0
 27 55  1  0  0  0  0
 27 56  1  0  0  0  0
 28 29  1  0  0  0  0
 28 57  1  0  0  0  0
 28 58  1  0  0  0  0
 29 30  1  0  0  0  0
 29 59  1  0  0  0  0
 29 60  1  0  0  0  0
 30 61  1  0  0  0  0
 30 62  1  0  0  0  0
 31 32  1  0  0  0  0
 31 33  1  0  0  0  0
 33 34  2  0  0  0  0
 33 63  1  0  0  0  0
 34 35  1  0  0  0  0
 64 65  1  0  0  0  0
M  CHG  1  64   1
M  END
$$$$
ZINC03815848
  -OEChem-08230709403D

 60 63  0     1  0  0  0  0  0999 V2000
    6.1545    1.1304   -1.5441 C   0  0  0  0  0  0  0  0  0  0  0  0
    6.7794    2.5210   -1.4151 C   0  0  1  0  0  0  0  0  0  0  0  0
    6.9071    2.7654   -0.3607 H   0  0  0  0  0  0  0  0  0  0  0  0
    8.1216    2.5342   -2.1000 C   0  0  0  0  0  0  0  0  0  0  0  0
    9.2312    2.7193   -1.3869 C   0  0  0  0  0  0  0  0  0  0  0  0
   10.5727    2.7387   -2.0765 C   0  0  0  0  0  0  0  0  0  0  0  0
    9.3897    2.0339   -4.1101 C   0  0  0  0  0  0  0  0  0  0  0  0
    8.2065    2.3367   -3.5528 C   0  0  0  0  0  0  0  0  0  0  0  0
   11.5752    0.9745   -3.6191 C   0  0  0  0  0  0  0  0  0  0  0  0
    5.9010    3.5112   -2.0431 N   0  0  0  0  0  0  0  0  0  0  0  0
    4.8805    4.0463   -1.3439 C   0  0  0  0  0  0  0  0  0  0  0  0
    4.6327    3.6421   -0.2236 O   0  0  0  0  0  0  0  0  0  0  0  0
    4.0667    5.1189   -1.9353 C   0  0  0  0  0  0  0  0  0  0  0  0
    4.3073    5.7238   -3.1279 C   0  0  0  0  0  0  0  0  0  0  0  0
    3.3007    6.6994   -3.3274 C   0  0  0  0  0  0  0  0  0  0  0  0
    3.0399    7.6171   -4.3533 C   0  0  0  0  0  0  0  0  0  0  0  0
    1.9641    8.4512   -4.2606 C   0  0  0  0  0  0  0  0  0  0  0  0
    1.1222    8.3999   -3.1565 C   0  0  0  0  0  0  0  0  0  0  0  0
    1.3575    7.5073   -2.1353 C   0  0  0  0  0  0  0  0  0  0  0  0
    2.4489    6.6457   -2.2068 C   0  0  0  0  0  0  0  0  0  0  0  0
    2.9337    5.6699   -1.3685 N   0  0  0  0  0  0  0  0  0  0  0  0
    2.3486    5.2822   -0.0827 C   0  0  0  0  0  0  0  0  0  0  0  0
    1.2907    4.2329   -0.3080 C   0  0  0  0  0  0  0  0  0  0  0  0
    1.6348    2.8928   -0.3008 C   0  0  0  0  0  0  0  0  0  0  0  0
    0.6694    1.9239   -0.5065 C   0  0  0  0  0  0  0  0  0  0  0  0
   -0.6431    2.2893   -0.7264 C   0  0  0  0  0  0  0  0  0  0  0  0
   -0.9972    3.6381   -0.7291 C   0  0  0  0  0  0  0  0  0  0  0  0
   -0.0191    4.6105   -0.5207 C   0  0  0  0  0  0  0  0  0  0  0  0
   -2.4049    4.0366   -0.9580 C   0  0  0  0  0  0  0  0  0  0  0  0
   -3.6271    5.6580   -1.1062 H   0  0  0  0  0  0  0  0  0  0  0  0
   -3.3688    3.0738   -1.1636 N   0  0  0  0  0  0  0  0  0  0  0  0
    6.0268    0.8858   -2.5987 H   0  0  0  0  0  0  0  0  0  0  0  0
    6.8081    0.3936   -1.0769 H   0  0  0  0  0  0  0  0  0  0  0  0
    5.1837    1.1208   -1.0488 H   0  0  0  0  0  0  0  0  0  0  0  0
    9.1707    2.8551   -0.3172 H   0  0  0  0  0  0  0  0  0  0  0  0
   10.8281    3.7626   -2.3494 H   0  0  0  0  0  0  0  0  0  0  0  0
   11.3333    2.3376   -1.4065 H   0  0  0  0  0  0  0  0  0  0  0  0
    9.4752    1.8848   -5.1763 H   0  0  0  0  0  0  0  0  0  0  0  0
    7.3254    2.4382   -4.1691 H   0  0  0  0  0  0  0  0  0  0  0  0
   11.3647    0.0047   -3.1682 H   0  0  0  0  0  0  0  0  0  0  0  0
   11.6411    0.8653   -4.7016 H   0  0  0  0  0  0  0  0  0  0  0  0
   12.5208    1.3565   -3.2342 H   0  0  0  0  0  0  0  0  0  0  0  0
    6.0537    3.7815   -2.9619 H   0  0  0  0  0  0  0  0  0  0  0  0
    5.1224    5.5029   -3.8011 H   0  0  0  0  0  0  0  0  0  0  0  0
    3.6890    7.6645   -5.2152 H   0  0  0  0  0  0  0  0  0  0  0  0
    1.7655    9.1580   -5.0526 H   0  0  0  0  0  0  0  0  0  0  0  0
    0.2749    9.0672   -3.0989 H   0  0  0  0  0  0  0  0  0  0  0  0
    0.6976    7.4755   -1.2810 H   0  0  0  0  0  0  0  0  0  0  0  0
    1.8992    6.1555    0.3901 H   0  0  0  0  0  0  0  0  0  0  0  0
    3.1278    4.8794    0.5645 H   0  0  0  0  0  0  0  0  0  0  0  0
    2.6615    2.6021   -0.1336 H   0  0  0  0  0  0  0  0  0  0  0  0
    0.9440    0.8794   -0.4995 H   0  0  0  0  0  0  0  0  0  0  0  0
   -1.3954    1.5321   -0.8913 H   0  0  0  0  0  0  0  0  0  0  0  0
   -0.2867    5.6568   -0.5260 H   0  0  0  0  0  0  0  0  0  0  0  0
   -3.1252    2.1349   -1.1584 H   0  0  0  0  0  0  0  0  0  0  0  0
   -4.2909    3.3349   -1.3135 H   0  0  0  0  0  0  0  0  0  0  0  0
   10.6569    2.1738   -3.4755 N   0  3  2  0  0  0  0  0  0  0  0  0
   11.1211    2.9107   -4.0192 H   0  0  0  0  0  0  0  0  0  0  0  0
   -2.6722    5.3334   -0.9531 N   0  3  0  0  0  0  0  0  0  0  0  0
   -1.9183    6.0123   -0.7952 H   0  0  0  0  0  0  0  0  0  0  0  0
  1  2  1  0  0  0  0
  1 32  1  0  0  0  0
  1 33  1  0  0  0  0
  1 34  1  0  0  0  0
  2  3  1  0  0  0  0
  2  4  1  0  0  0  0
  2 10  1  0  0  0  0
  4  8  1  0  0  0  0
  4  5  2  0  0  0  0
  5  6  1  0  0  0  0
  5 35  1  0  0  0  0
  6 36  1  0  0  0  0
  6 37  1  0  0  0  0
  6 57  1  0  0  0  0
  7  8  2  0  0  0  0
  7 38  1  0  0  0  0
  7 57  1  0  0  0  0
  8 39  1  0  0  0  0
  9 40  1  0  0  0  0
  9 41  1  0  0  0  0
  9 42  1  0  0  0  0
  9 57  1  0  0  0  0
 10 11  1  0  0  0  0
 10 43  1  0  0  0  0
 11 12  2  0  0  0  0
 11 13  1  0  0  0  0
 13 21  1  0  0  0  0
 13 14  2  0  0  0  0
 14 15  1  0  0  0  0
 14 44  1  0  0  0  0
 15 20  2  0  0  0  0
 15 16  1  0  0  0  0
 16 17  2  0  0  0  0
 16 45  1  0  0  0  0
 17 18  1  0  0  0  0
 17 46  1  0  0  0  0
 18 19  2  0  0  0  0
 18 47  1  0  0  0  0
 19 20  1  0  0  0  0
 19 48  1  0  0  0  0
 20 21  1  0  0  0  0
 21 22  1  0  0  0  0
 22 23  1  0  0  0  0
 22 49  1  0  0  0  0
 22 50  1  0  0  0  0
 23 28  2  0  0  0  0
 23 24  1  0  0  0  0
 24 25  2  0  0  0  0
 24 51  1  0  0  0  0
 25 26  1  0  0  0  0
 25 52  1  0  0  0  0
 26 27  2  0  0  0  0
 26 53  1  0  0  0  0
 27 28  1  0  0  0  0
 27 29  1  0  0  0  0
 28 54  1  0  0  0  0
 29 31  1  0  0  0  0
 29 59  2  0  0  0  0
 30 59  1  0  0  0  0
 31 55  1  0  0  0  0
 31 56  1  0  0  0  0
 57 58  1  0  0  0  0
 59 60  1  0  0  0  0
M  CHG  2  57   1  59   1
M  END
$$$$
ZINC03815850
  -OEChem-08230709403D

 57 60  0     1  0  0  0  0  0999 V2000
   -2.4482   14.0405   -4.6077 C   0  0  0  0  0  0  0  0  0  0  0  0
   -2.2141   11.5064   -4.7493 C   0  0  0  0  0  0  0  0  0  0  0  0
   -1.7901   10.5480   -3.6642 C   0  0  0  0  0  0  0  0  0  0  0  0
   -0.6408   10.7422   -3.0198 C   0  0  0  0  0  0  0  0  0  0  0  0
    0.2049   11.8945   -3.3571 C   0  0  0  0  0  0  0  0  0  0  0  0
   -0.3114   12.9049   -4.0746 C   0  0  0  0  0  0  0  0  0  0  0  0
   -0.2111    9.7829   -1.9400 C   0  0  0  0  0  0  0  0  0  0  0  0
    0.6908    8.7786   -2.5094 N   0  0  0  0  0  0  0  0  0  0  0  0
    1.1251    7.7543   -1.7489 C   0  0  0  0  0  0  0  0  0  0  0  0
    0.6982    7.6121   -0.6186 O   0  0  0  0  0  0  0  0  0  0  0  0
    2.1152    6.8084   -2.2851 C   0  0  0  0  0  0  0  0  0  0  0  0
    2.5959    6.8076   -3.5560 C   0  0  0  0  0  0  0  0  0  0  0  0
    3.5234    5.7435   -3.6658 C   0  0  0  0  0  0  0  0  0  0  0  0
    4.3184    5.2648   -4.7157 C   0  0  0  0  0  0  0  0  0  0  0  0
    5.1473    4.1989   -4.5085 C   0  0  0  0  0  0  0  0  0  0  0  0
    5.2003    3.5749   -3.2662 C   0  0  0  0  0  0  0  0  0  0  0  0
    4.4248    4.0251   -2.2216 C   0  0  0  0  0  0  0  0  0  0  0  0
    3.5783    5.1148   -2.4067 C   0  0  0  0  0  0  0  0  0  0  0  0
    2.7048    5.7792   -1.5772 N   0  0  0  0  0  0  0  0  0  0  0  0
    2.4470    5.4528   -0.1725 C   0  0  0  0  0  0  0  0  0  0  0  0
    1.4008    4.3711   -0.0919 C   0  0  0  0  0  0  0  0  0  0  0  0
    1.7713    3.0426   -0.2020 C   0  0  0  0  0  0  0  0  0  0  0  0
    0.8169    2.0442   -0.1286 C   0  0  0  0  0  0  0  0  0  0  0  0
   -0.5127    2.3685    0.0490 C   0  0  0  0  0  0  0  0  0  0  0  0
   -0.8917    3.7052    0.1664 C   0  0  0  0  0  0  0  0  0  0  0  0
    0.0755    4.7075    0.0920 C   0  0  0  0  0  0  0  0  0  0  0  0
   -2.3159    4.0596    0.3637 C   0  0  0  0  0  0  0  0  0  0  0  0
   -3.5905    5.6422    0.4872 H   0  0  0  0  0  0  0  0  0  0  0  0
   -3.2540    3.0670    0.5450 N   0  0  0  0  0  0  0  0  0  0  0  0
    5.9164    3.7418   -5.5209 F   0  0  0  0  0  0  0  0  0  0  0  0
   -2.9376   14.2597   -3.6588 H   0  0  0  0  0  0  0  0  0  0  0  0
   -1.8069   14.8763   -4.8875 H   0  0  0  0  0  0  0  0  0  0  0  0
   -3.2030   13.8877   -5.3791 H   0  0  0  0  0  0  0  0  0  0  0  0
   -1.8548   11.1477   -5.7138 H   0  0  0  0  0  0  0  0  0  0  0  0
   -3.3016   11.5777   -4.7686 H   0  0  0  0  0  0  0  0  0  0  0  0
   -2.4170    9.7058   -3.4108 H   0  0  0  0  0  0  0  0  0  0  0  0
    1.2351   11.9275   -3.0346 H   0  0  0  0  0  0  0  0  0  0  0  0
    0.2924   13.7619   -4.3343 H   0  0  0  0  0  0  0  0  0  0  0  0
   -1.0885    9.2886   -1.5229 H   0  0  0  0  0  0  0  0  0  0  0  0
    0.3061   10.3306   -1.1521 H   0  0  0  0  0  0  0  0  0  0  0  0
    0.9752    8.8508   -3.4339 H   0  0  0  0  0  0  0  0  0  0  0  0
    2.3195    7.4951   -4.3418 H   0  0  0  0  0  0  0  0  0  0  0  0
    4.2843    5.7444   -5.6829 H   0  0  0  0  0  0  0  0  0  0  0  0
    5.8563    2.7297   -3.1197 H   0  0  0  0  0  0  0  0  0  0  0  0
    4.4726    3.5339   -1.2610 H   0  0  0  0  0  0  0  0  0  0  0  0
    2.0911    6.3420    0.3477 H   0  0  0  0  0  0  0  0  0  0  0  0
    3.3679    5.1031    0.2941 H   0  0  0  0  0  0  0  0  0  0  0  0
    2.8101    2.7842   -0.3456 H   0  0  0  0  0  0  0  0  0  0  0  0
    1.1123    1.0089   -0.2149 H   0  0  0  0  0  0  0  0  0  0  0  0
   -1.2575    1.5883    0.1017 H   0  0  0  0  0  0  0  0  0  0  0  0
   -0.2126    5.7449    0.1778 H   0  0  0  0  0  0  0  0  0  0  0  0
   -2.9816    2.1360    0.5434 H   0  0  0  0  0  0  0  0  0  0  0  0
   -4.1870    3.2991    0.6742 H   0  0  0  0  0  0  0  0  0  0  0  0
   -1.5281   12.8497   -4.8125 N   0  3  2  0  0  0  0  0  0  0  0  0
   -1.2240   12.9329   -5.7896 H   0  0  0  0  0  0  0  0  0  0  0  0
   -2.6228    5.3476    0.3554 N   0  3  0  0  0  0  0  0  0  0  0  0
   -1.8868    6.0499    0.2163 H   0  0  0  0  0  0  0  0  0  0  0  0
  1 31  1  0  0  0  0
  1 32  1  0  0  0  0
  1 33  1  0  0  0  0
  1 54  1  0  0  0  0
  2  3  1  0  0  0  0
  2 34  1  0  0  0  0
  2 35  1  0  0  0  0
  2 54  1  0  0  0  0
  3  4  2  0  0  0  0
  3 36  1  0  0  0  0
  4  5  1  0  0  0  0
  4  7  1  0  0  0  0
  5  6  2  0  0  0  0
  5 37  1  0  0  0  0
  6 38  1  0  0  0  0
  6 54  1  0  0  0  0
  7  8  1  0  0  0  0
  7 39  1  0  0  0  0
  7 40  1  0  0  0  0
  8  9  1  0  0  0  0
  8 41  1  0  0  0  0
  9 10  2  0  0  0  0
  9 11  1  0  0  0  0
 11 19  1  0  0  0  0
 11 12  2  0  0  0  0
 12 13  1  0  0  0  0
 12 42  1  0  0  0  0
 13 18  2  0  0  0  0
 13 14  1  0  0  0  0
 14 15  2  0  0  0  0
 14 43  1  0  0  0  0
 15 16  1  0  0  0  0
 15 30  1  0  0  0  0
 16 17  2  0  0  0  0
 16 44  1  0  0  0  0
 17 18  1  0  0  0  0
 17 45  1  0  0  0  0
 18 19  1  0  0  0  0
 19 20  1  0  0  0  0
 20 21  1  0  0  0  0
 20 46  1  0  0  0  0
 20 47  1  0  0  0  0
 21 26  2  0  0  0  0
 21 22  1  0  0  0  0
 22 23  2  0  0  0  0
 22 48  1  0  0  0  0
 23 24  1  0  0  0  0
 23 49  1  0  0  0  0
 24 25  2  0  0  0  0
 24 50  1  0  0  0  0
 25 26  1  0  0  0  0
 25 27  1  0  0  0  0
 26 51  1  0  0  0  0
 27 29  1  0  0  0  0
 27 56  2  0  0  0  0
 28 56  1  0  0  0  0
 29 52  1  0  0  0  0
 29 53  1  0  0  0  0
 54 55  1  0  0  0  0
 56 57  1  0  0  0  0
M  CHG  2  54   1  56   1
M  END
$$$$
ZINC03831867
  -OEChem-08230709403D

 63 66  0     1  0  0  0  0  0999 V2000
    1.8658    9.3174    8.4793 C   0  0  0  0  0  0  0  0  0  0  0  0
    2.1707    7.0408    7.3742 C   0  0  0  0  0  0  0  0  0  0  0  0
    2.4954    6.7415    5.9318 C   0  0  0  0  0  0  0  0  0  0  0  0
    1.7361    7.2487    4.9620 C   0  0  0  0  0  0  0  0  0  0  0  0
    0.5932    8.1076    5.2972 C   0  0  0  0  0  0  0  0  0  0  0  0
    0.4987    8.6296    6.5305 C   0  0  0  0  0  0  0  0  0  0  0  0
    2.0538    6.9461    3.5203 C   0  0  0  0  0  0  0  0  0  0  0  0
    1.2519    5.8047    3.0727 N   0  0  0  0  0  0  0  0  0  0  0  0
    1.3699    5.3527    1.8085 C   0  0  0  0  0  0  0  0  0  0  0  0
    2.0713    5.9473    1.0133 O   0  0  0  0  0  0  0  0  0  0  0  0
    0.6473    4.1353    1.3893 C   0  0  0  0  0  0  0  0  0  0  0  0
    1.1998    2.8691    1.2873 C   0  0  0  0  0  0  0  0  0  0  0  0
    0.1170    1.9822    0.8404 C   0  0  0  0  0  0  0  0  0  0  0  0
    0.0410    0.6169    0.5595 C   0  0  0  0  0  0  0  0  0  0  0  0
   -1.1440    0.0726    0.1530 C   0  0  0  0  0  0  0  0  0  0  0  0
   -2.2734    0.8686    0.0119 C   0  0  0  0  0  0  0  0  0  0  0  0
   -2.2224    2.2161    0.2882 C   0  0  0  0  0  0  0  0  0  0  0  0
   -1.0243    2.7935    0.7047 C   0  0  0  0  0  0  0  0  0  0  0  0
   -0.6722    4.0787    1.0415 N   0  0  0  0  0  0  0  0  0  0  0  0
   -1.5835    5.2257    1.0290 C   0  0  0  0  0  0  0  0  0  0  0  0
   -1.6482    5.8008   -0.3625 C   0  0  0  0  0  0  0  0  0  0  0  0
   -0.7045    6.7262   -0.7716 C   0  0  0  0  0  0  0  0  0  0  0  0
   -0.7545    7.2549   -2.0487 C   0  0  0  0  0  0  0  0  0  0  0  0
   -1.7534    6.8695   -2.9195 C   0  0  0  0  0  0  0  0  0  0  0  0
   -2.7104    5.9412   -2.5112 C   0  0  0  0  0  0  0  0  0  0  0  0
   -2.6517    5.4077   -1.2239 C   0  0  0  0  0  0  0  0  0  0  0  0
   -3.7852    5.5239   -3.4406 C   0  0  0  0  0  0  0  0  0  0  0  0
   -5.4204    4.3208   -3.5923 H   0  0  0  0  0  0  0  0  0  0  0  0
   -3.8407    6.0526   -4.7117 N   0  0  0  0  0  0  0  0  0  0  0  0
    2.5944    2.4881    1.5702 C   0  0  0  0  0  0  0  0  0  0  0  0
    3.4255    2.5230    0.6844 O   0  0  0  0  0  0  0  0  0  0  0  0
    2.9485    2.1006    2.8117 O   0  0  0  0  0  0  0  0  0  0  0  0
    4.3397    1.7394    3.0178 C   0  0  0  0  0  0  0  0  0  0  0  0
    2.6595    9.9611    8.1000 H   0  0  0  0  0  0  0  0  0  0  0  0
    0.9972    9.9239    8.7352 H   0  0  0  0  0  0  0  0  0  0  0  0
    2.2170    8.7927    9.3678 H   0  0  0  0  0  0  0  0  0  0  0  0
    1.5146    6.2651    7.7691 H   0  0  0  0  0  0  0  0  0  0  0  0
    3.0914    7.0714    7.9567 H   0  0  0  0  0  0  0  0  0  0  0  0
    3.3415    6.1169    5.6860 H   0  0  0  0  0  0  0  0  0  0  0  0
   -0.1679    8.3149    4.5595 H   0  0  0  0  0  0  0  0  0  0  0  0
   -0.3334    9.2636    6.7989 H   0  0  0  0  0  0  0  0  0  0  0  0
    3.1127    6.7062    3.4242 H   0  0  0  0  0  0  0  0  0  0  0  0
    1.8214    7.8165    2.9066 H   0  0  0  0  0  0  0  0  0  0  0  0
    0.6360    5.3744    3.6861 H   0  0  0  0  0  0  0  0  0  0  0  0
    0.9164   -0.0071    0.6629 H   0  0  0  0  0  0  0  0  0  0  0  0
   -1.2022   -0.9837   -0.0645 H   0  0  0  0  0  0  0  0  0  0  0  0
   -3.2025    0.4249   -0.3144 H   0  0  0  0  0  0  0  0  0  0  0  0
   -3.1078    2.8250    0.1790 H   0  0  0  0  0  0  0  0  0  0  0  0
   -2.5785    4.9026    1.3352 H   0  0  0  0  0  0  0  0  0  0  0  0
   -1.2198    5.9863    1.7199 H   0  0  0  0  0  0  0  0  0  0  0  0
    0.0767    7.0340   -0.0922 H   0  0  0  0  0  0  0  0  0  0  0  0
   -0.0124    7.9736   -2.3639 H   0  0  0  0  0  0  0  0  0  0  0  0
   -1.7936    7.2858   -3.9153 H   0  0  0  0  0  0  0  0  0  0  0  0
   -3.3903    4.6886   -0.9019 H   0  0  0  0  0  0  0  0  0  0  0  0
   -3.1757    6.6983   -4.9978 H   0  0  0  0  0  0  0  0  0  0  0  0
   -4.5446    5.7792   -5.3204 H   0  0  0  0  0  0  0  0  0  0  0  0
    4.9752    2.5938    2.7851 H   0  0  0  0  0  0  0  0  0  0  0  0
    4.4891    1.4478    4.0573 H   0  0  0  0  0  0  0  0  0  0  0  0
    4.5990    0.9054    2.3656 H   0  0  0  0  0  0  0  0  0  0  0  0
    1.2441    8.1969    7.6641 N   0  3  2  0  0  0  0  0  0  0  0  0
    0.5309    7.7997    8.2869 H   0  0  0  0  0  0  0  0  0  0  0  0
   -4.6616    4.6396   -2.9897 N   0  3  0  0  0  0  0  0  0  0  0  0
   -4.5773    4.2749   -2.0337 H   0  0  0  0  0  0  0  0  0  0  0  0
  1 34  1  0  0  0  0
  1 35  1  0  0  0  0
  1 36  1  0  0  0  0
  1 60  1  0  0  0  0
  2  3  1  0  0  0  0
  2 37  1  0  0  0  0
  2 38  1  0  0  0  0
  2 60  1  0  0  0  0
  3  4  2  0  0  0  0
  3 39  1  0  0  0  0
  4  5  1  0  0  0  0
  4  7  1  0  0  0  0
  5  6  2  0  0  0  0
  5 40  1  0  0  0  0
  6 41  1  0  0  0  0
  6 60  1  0  0  0  0
  7  8  1  0  0  0  0
  7 42  1  0  0  0  0
  7 43  1  0  0  0  0
  8  9  1  0  0  0  0
  8 44  1  0  0  0  0
  9 10  2  0  0  0  0
  9 11  1  0  0  0  0
 11 19  1  0  0  0  0
 11 12  2  0  0  0  0
 12 13  1  0  0  0  0
 12 30  1  0  0  0  0
 13 18  2  0  0  0  0
 13 14  1  0  0  0  0
 14 15  2  0  0  0  0
 14 45  1  0  0  0  0
 15 16  1  0  0  0  0
 15 46  1  0  0  0  0
 16 17  2  0  0  0  0
 16 47  1  0  0  0  0
 17 18  1  0  0  0  0
 17 48  1  0  0  0  0
 18 19  1  0  0  0  0
 19 20  1  0  0  0  0
 20 21  1  0  0  0  0
 20 49  1  0  0  0  0
 20 50  1  0  0  0  0
 21 26  2  0  0  0  0
 21 22  1  0  0  0  0
 22 23  2  0  0  0  0
 22 51  1  0  0  0  0
 23 24  1  0  0  0  0
 23 52  1  0  0  0  0
 24 25  2  0  0  0  0
 24 53  1  0  0  0  0
 25 26  1  0  0  0  0
 25 27  1  0  0  0  0
 26 54  1  0  0  0  0
 27 29  1  0  0  0  0
 27 62  2  0  0  0  0
 28 62  1  0  0  0  0
 29 55  1  0  0  0  0
 29 56  1  0  0  0  0
 30 31  2  0  0  0  0
 30 32  1  0  0  0  0
 32 33  1  0  0  0  0
 33 57  1  0  0  0  0
 33 58  1  0  0  0  0
 33 59  1  0  0  0  0
 60 61  1  0  0  0  0
 62 63  1  0  0  0  0
M  CHG  2  60   1  62   1
M  END
$$$$
ZINC03831885
  -OEChem-08230709403D

 60 63  0     1  0  0  0  0  0999 V2000
    4.2295    2.8783   -7.2456 C   0  0  0  0  0  0  0  0  0  0  0  0
    4.8742    1.1647   -5.4723 C   0  0  0  0  0  0  0  0  0  0  0  0
    4.4704   -0.2861   -5.3839 C   0  0  0  0  0  0  0  0  0  0  0  0
    3.1812   -0.6190   -5.4190 C   0  0  0  0  0  0  0  0  0  0  0  0
    2.1558    0.4253   -5.5400 C   0  0  0  0  0  0  0  0  0  0  0  0
    2.5140    1.6575   -5.9394 C   0  0  0  0  0  0  0  0  0  0  0  0
    2.7743   -2.0672   -5.3282 C   0  0  0  0  0  0  0  0  0  0  0  0
    2.4554   -2.4172   -3.8734 C   0  0  0  0  0  0  0  0  0  0  0  0
    2.0599   -3.8251   -3.7852 N   0  0  0  0  0  0  0  0  0  0  0  0
    1.7313   -4.3592   -2.5922 C   0  0  0  0  0  0  0  0  0  0  0  0
    1.8517   -3.7003   -1.5769 O   0  0  0  0  0  0  0  0  0  0  0  0
    1.2273   -5.7388   -2.5181 C   0  0  0  0  0  0  0  0  0  0  0  0
    1.1484   -6.6056   -3.5613 C   0  0  0  0  0  0  0  0  0  0  0  0
    0.6118   -7.8212   -3.0721 C   0  0  0  0  0  0  0  0  0  0  0  0
    0.3088   -9.0500   -3.6729 C   0  0  0  0  0  0  0  0  0  0  0  0
   -0.2136  -10.0622   -2.9218 C   0  0  0  0  0  0  0  0  0  0  0  0
   -0.4480   -9.8871   -1.5635 C   0  0  0  0  0  0  0  0  0  0  0  0
   -0.1583   -8.6891   -0.9500 C   0  0  0  0  0  0  0  0  0  0  0  0
    0.3750   -7.6410   -1.6953 C   0  0  0  0  0  0  0  0  0  0  0  0
    0.7641   -6.3618   -1.3754 N   0  0  0  0  0  0  0  0  0  0  0  0
    0.6950   -5.7574   -0.0427 C   0  0  0  0  0  0  0  0  0  0  0  0
   -0.6809   -5.1834    0.1778 C   0  0  0  0  0  0  0  0  0  0  0  0
   -0.9192   -3.8444   -0.0762 C   0  0  0  0  0  0  0  0  0  0  0  0
   -2.1806   -3.3114    0.1192 C   0  0  0  0  0  0  0  0  0  0  0  0
   -3.2069   -4.1112    0.5792 C   0  0  0  0  0  0  0  0  0  0  0  0
   -2.9717   -5.4602    0.8421 C   0  0  0  0  0  0  0  0  0  0  0  0
   -1.6989   -5.9930    0.6380 C   0  0  0  0  0  0  0  0  0  0  0  0
   -4.0686   -6.3236    1.3363 C   0  0  0  0  0  0  0  0  0  0  0  0
   -4.4995   -8.2294    1.9076 H   0  0  0  0  0  0  0  0  0  0  0  0
   -5.3248   -5.7944    1.5369 N   0  0  0  0  0  0  0  0  0  0  0  0
    3.3316    3.3148   -7.6830 H   0  0  0  0  0  0  0  0  0  0  0  0
    4.8320    3.6653   -6.7919 H   0  0  0  0  0  0  0  0  0  0  0  0
    4.8080    2.3809   -8.0241 H   0  0  0  0  0  0  0  0  0  0  0  0
    5.8319    1.2481   -5.9860 H   0  0  0  0  0  0  0  0  0  0  0  0
    4.9614    1.5789   -4.4679 H   0  0  0  0  0  0  0  0  0  0  0  0
    5.2252   -1.0535   -5.2961 H   0  0  0  0  0  0  0  0  0  0  0  0
    1.1238    0.2051   -5.3104 H   0  0  0  0  0  0  0  0  0  0  0  0
    1.7769    2.4406   -6.0387 H   0  0  0  0  0  0  0  0  0  0  0  0
    1.8911   -2.2359   -5.9445 H   0  0  0  0  0  0  0  0  0  0  0  0
    3.5904   -2.6968   -5.6829 H   0  0  0  0  0  0  0  0  0  0  0  0
    3.3385   -2.2486   -3.2572 H   0  0  0  0  0  0  0  0  0  0  0  0
    1.6393   -1.7876   -3.5188 H   0  0  0  0  0  0  0  0  0  0  0  0
    2.0345   -4.3728   -4.5854 H   0  0  0  0  0  0  0  0  0  0  0  0
    1.4423   -6.4039   -4.5807 H   0  0  0  0  0  0  0  0  0  0  0  0
    0.4878   -9.1956   -4.7279 H   0  0  0  0  0  0  0  0  0  0  0  0
   -0.4470  -11.0083   -3.3873 H   0  0  0  0  0  0  0  0  0  0  0  0
   -0.8621  -10.6985   -0.9834 H   0  0  0  0  0  0  0  0  0  0  0  0
   -0.3445   -8.5627    0.1063 H   0  0  0  0  0  0  0  0  0  0  0  0
    0.8968   -6.5176    0.7120 H   0  0  0  0  0  0  0  0  0  0  0  0
    1.4368   -4.9626    0.0347 H   0  0  0  0  0  0  0  0  0  0  0  0
   -0.1182   -3.2137   -0.4324 H   0  0  0  0  0  0  0  0  0  0  0  0
   -2.3614   -2.2664   -0.0844 H   0  0  0  0  0  0  0  0  0  0  0  0
   -4.1904   -3.6930    0.7350 H   0  0  0  0  0  0  0  0  0  0  0  0
   -1.5106   -7.0370    0.8402 H   0  0  0  0  0  0  0  0  0  0  0  0
   -5.4908   -4.8563    1.3544 H   0  0  0  0  0  0  0  0  0  0  0  0
   -6.0433   -6.3600    1.8606 H   0  0  0  0  0  0  0  0  0  0  0  0
    3.8477    2.1558   -5.9655 N   0  3  2  0  0  0  0  0  0  0  0  0
    3.8455    2.8941   -5.2520 H   0  0  0  0  0  0  0  0  0  0  0  0
   -3.7776   -7.5946    1.5663 N   0  3  0  0  0  0  0  0  0  0  0  0
   -2.8254   -7.9413    1.4011 H   0  0  0  0  0  0  0  0  0  0  0  0
  1 31  1  0  0  0  0
  1 32  1  0  0  0  0
  1 33  1  0  0  0  0
  1 57  1  0  0  0  0
  2  3  1  0  0  0  0
  2 34  1  0  0  0  0
  2 35  1  0  0  0  0
  2 57  1  0  0  0  0
  3  4  2  0  0  0  0
  3 36  1  0  0  0  0
  4  5  1  0  0  0  0
  4  7  1  0  0  0  0
  5  6  2  0  0  0  0
  5 37  1  0  0  0  0
  6 38  1  0  0  0  0
  6 57  1  0  0  0  0
  7  8  1  0  0  0  0
  7 39  1  0  0  0  0
  7 40  1  0  0  0  0
  8  9  1  0  0  0  0
  8 41  1  0  0  0  0
  8 42  1  0  0  0  0
  9 10  1  0  0  0  0
  9 43  1  0  0  0  0
 10 11  2  0  0  0  0
 10 12  1  0  0  0  0
 12 20  1  0  0  0  0
 12 13  2  0  0  0  0
 13 14  1  0  0  0  0
 13 44  1  0  0  0  0
 14 19  2  0  0  0  0
 14 15  1  0  0  0  0
 15 16  2  0  0  0  0
 15 45  1  0  0  0  0
 16 17  1  0  0  0  0
 16 46  1  0  0  0  0
 17 18  2  0  0  0  0
 17 47  1  0  0  0  0
 18 19  1  0  0  0  0
 18 48  1  0  0  0  0
 19 20  1  0  0  0  0
 20 21  1  0  0  0  0
 21 22  1  0  0  0  0
 21 49  1  0  0  0  0
 21 50  1  0  0  0  0
 22 27  2  0  0  0  0
 22 23  1  0  0  0  0
 23 24  2  0  0  0  0
 23 51  1  0  0  0  0
 24 25  1  0  0  0  0
 24 52  1  0  0  0  0
 25 26  2  0  0  0  0
 25 53  1  0  0  0  0
 26 27  1  0  0  0  0
 26 28  1  0  0  0  0
 27 54  1  0  0  0  0
 28 30  1  0  0  0  0
 28 59  2  0  0  0  0
 29 59  1  0  0  0  0
 30 55  1  0  0  0  0
 30 56  1  0  0  0  0
 57 58  1  0  0  0  0
 59 60  1  0  0  0  0
M  CHG  2  57   1  59   1
M  END
$$$$
ZINC03831899
  -OEChem-08230709403D

 57 60  0     1  0  0  0  0  0999 V2000
   10.9649   -0.1096   -3.8253 C   0  0  0  0  0  0  0  0  0  0  0  0
   10.0716    2.2404   -3.4054 C   0  0  0  0  0  0  0  0  0  0  0  0
    9.0238    2.6748   -2.4109 C   0  0  0  0  0  0  0  0  0  0  0  0
    7.8289    2.0860   -2.4067 C   0  0  0  0  0  0  0  0  0  0  0  0
    7.5381    1.0079   -3.3603 C   0  0  0  0  0  0  0  0  0  0  0  0
    8.5493    0.4106   -4.0106 C   0  0  0  0  0  0  0  0  0  0  0  0
    6.7778    2.5222   -1.4189 C   0  0  0  0  0  0  0  0  0  0  0  0
    5.8992    3.5125   -2.0463 N   0  0  0  0  0  0  0  0  0  0  0  0
    4.8788    4.0474   -1.3467 C   0  0  0  0  0  0  0  0  0  0  0  0
    4.6325    3.6440   -0.2258 O   0  0  0  0  0  0  0  0  0  0  0  0
    4.0634    5.1186   -1.9383 C   0  0  0  0  0  0  0  0  0  0  0  0
    4.3021    5.7224   -3.1319 C   0  0  0  0  0  0  0  0  0  0  0  0
    3.2944    6.6968   -3.3313 C   0  0  0  0  0  0  0  0  0  0  0  0
    3.0317    7.6132   -4.3579 C   0  0  0  0  0  0  0  0  0  0  0  0
    1.9552    8.4463   -4.2649 C   0  0  0  0  0  0  0  0  0  0  0  0
    1.1144    8.3954   -3.1600 C   0  0  0  0  0  0  0  0  0  0  0  0
    1.3517    7.5040   -2.1381 C   0  0  0  0  0  0  0  0  0  0  0  0
    2.4439    6.6435   -2.2098 C   0  0  0  0  0  0  0  0  0  0  0  0
    2.9305    5.6690   -1.3710 N   0  0  0  0  0  0  0  0  0  0  0  0
    2.3471    5.2822   -0.0841 C   0  0  0  0  0  0  0  0  0  0  0  0
    1.2898    4.2317   -0.3073 C   0  0  0  0  0  0  0  0  0  0  0  0
    1.6352    2.8919   -0.2994 C   0  0  0  0  0  0  0  0  0  0  0  0
    0.6704    1.9219   -0.5030 C   0  0  0  0  0  0  0  0  0  0  0  0
   -0.6427    2.2859   -0.7216 C   0  0  0  0  0  0  0  0  0  0  0  0
   -0.9980    3.6343   -0.7250 C   0  0  0  0  0  0  0  0  0  0  0  0
   -0.0206    4.6078   -0.5186 C   0  0  0  0  0  0  0  0  0  0  0  0
   -2.4063    4.0314   -0.9524 C   0  0  0  0  0  0  0  0  0  0  0  0
   -3.6303    5.6515   -1.1005 H   0  0  0  0  0  0  0  0  0  0  0  0
   -3.3697    3.0675   -1.1561 N   0  0  0  0  0  0  0  0  0  0  0  0
   11.1177   -0.5684   -2.8484 H   0  0  0  0  0  0  0  0  0  0  0  0
   10.7419   -0.8838   -4.5595 H   0  0  0  0  0  0  0  0  0  0  0  0
   11.8685    0.4229   -4.1220 H   0  0  0  0  0  0  0  0  0  0  0  0
    9.9990    2.8539   -4.3034 H   0  0  0  0  0  0  0  0  0  0  0  0
   11.0621    2.3541   -2.9649 H   0  0  0  0  0  0  0  0  0  0  0  0
    9.2418    3.4618   -1.7042 H   0  0  0  0  0  0  0  0  0  0  0  0
    6.5187    0.7001   -3.5407 H   0  0  0  0  0  0  0  0  0  0  0  0
    8.3584   -0.3842   -4.7165 H   0  0  0  0  0  0  0  0  0  0  0  0
    7.2596    2.9646   -0.5470 H   0  0  0  0  0  0  0  0  0  0  0  0
    6.1892    1.6585   -1.1096 H   0  0  0  0  0  0  0  0  0  0  0  0
    6.0517    3.7832   -2.9651 H   0  0  0  0  0  0  0  0  0  0  0  0
    5.1168    5.5016   -3.8057 H   0  0  0  0  0  0  0  0  0  0  0  0
    3.6798    7.6603   -5.2205 H   0  0  0  0  0  0  0  0  0  0  0  0
    1.7550    9.1521   -5.0575 H   0  0  0  0  0  0  0  0  0  0  0  0
    0.2665    9.0619   -3.1021 H   0  0  0  0  0  0  0  0  0  0  0  0
    0.6928    7.4726   -1.2830 H   0  0  0  0  0  0  0  0  0  0  0  0
    1.8974    6.1555    0.3883 H   0  0  0  0  0  0  0  0  0  0  0  0
    3.1273    4.8807    0.5626 H   0  0  0  0  0  0  0  0  0  0  0  0
    2.6623    2.6022   -0.1332 H   0  0  0  0  0  0  0  0  0  0  0  0
    0.9461    0.8777   -0.4955 H   0  0  0  0  0  0  0  0  0  0  0  0
   -1.3943    1.5279   -0.8849 H   0  0  0  0  0  0  0  0  0  0  0  0
   -0.2891    5.6539   -0.5245 H   0  0  0  0  0  0  0  0  0  0  0  0
   -3.1252    2.1288   -1.1505 H   0  0  0  0  0  0  0  0  0  0  0  0
   -4.2922    3.3276   -1.3051 H   0  0  0  0  0  0  0  0  0  0  0  0
    9.8781    0.9148   -4.1013 N   0  3  2  0  0  0  0  0  0  0  0  0
    9.9875    1.1339   -5.0984 H   0  0  0  0  0  0  0  0  0  0  0  0
   -2.6749    5.3280   -0.9483 N   0  3  0  0  0  0  0  0  0  0  0  0
   -1.9215    6.0078   -0.7919 H   0  0  0  0  0  0  0  0  0  0  0  0
  1 30  1  0  0  0  0
  1 31  1  0  0  0  0
  1 32  1  0  0  0  0
  1 54  1  0  0  0  0
  2  3  1  0  0  0  0
  2 33  1  0  0  0  0
  2 34  1  0  0  0  0
  2 54  1  0  0  0  0
  3  4  2  0  0  0  0
  3 35  1  0  0  0  0
  4  5  1  0  0  0  0
  4  7  1  0  0  0  0
  5  6  2  0  0  0  0
  5 36  1  0  0  0  0
  6 37  1  0  0  0  0
  6 54  1  0  0  0  0
  7  8  1  0  0  0  0
  7 38  1  0  0  0  0
  7 39  1  0  0  0  0
  8  9  1  0  0  0  0
  8 40  1  0  0  0  0
  9 10  2  0  0  0  0
  9 11  1  0  0  0  0
 11 19  1  0  0  0  0
 11 12  2  0  0  0  0
 12 13  1  0  0  0  0
 12 41  1  0  0  0  0
 13 18  2  0  0  0  0
 13 14  1  0  0  0  0
 14 15  2  0  0  0  0
 14 42  1  0  0  0  0
 15 16  1  0  0  0  0
 15 43  1  0  0  0  0
 16 17  2  0  0  0  0
 16 44  1  0  0  0  0
 17 18  1  0  0  0  0
 17 45  1  0  0  0  0
 18 19  1  0  0  0  0
 19 20  1  0  0  0  0
 20 21  1  0  0  0  0
 20 46  1  0  0  0  0
 20 47  1  0  0  0  0
 21 26  2  0  0  0  0
 21 22  1  0  0  0  0
 22 23  2  0  0  0  0
 22 48  1  0  0  0  0
 23 24  1  0  0  0  0
 23 49  1  0  0  0  0
 24 25  2  0  0  0  0
 24 50  1  0  0  0  0
 25 26  1  0  0  0  0
 25 27  1  0  0  0  0
 26 51  1  0  0  0  0
 27 29  1  0  0  0  0
 27 56  2  0  0  0  0
 28 56  1  0  0  0  0
 29 52  1  0  0  0  0
 29 53  1  0  0  0  0
 54 55  1  0  0  0  0
 56 57  1  0  0  0  0
M  CHG  2  54   1  56   1
M  END
$$$$
ZINC03831908
  -OEChem-08230709403D

 71 75  0     1  0  0  0  0  0999 V2000
    0.9111   10.4729   -5.9994 C   0  0  0  0  0  0  0  0  0  0  0  0
   -0.6860    9.8159   -4.1249 C   0  0  0  0  0  0  0  0  0  0  0  0
   -0.6371    8.5914   -3.2452 C   0  0  0  0  0  0  0  0  0  0  0  0
   -0.5895    7.3800   -3.7969 C   0  0  0  0  0  0  0  0  0  0  0  0
   -0.5720    7.2387   -5.2584 C   0  0  0  0  0  0  0  0  0  0  0  0
   -0.2919    8.3068   -6.0219 C   0  0  0  0  0  0  0  0  0  0  0  0
   -0.5472    6.1544   -2.9209 C   0  0  1  0  0  0  0  0  0  0  0  0
   -0.4732    6.4568   -1.8763 H   0  0  0  0  0  0  0  0  0  0  0  0
   -1.8048    5.3490   -3.1228 C   0  0  0  0  0  0  0  0  0  0  0  0
   -1.9267    4.5221   -4.2238 C   0  0  0  0  0  0  0  0  0  0  0  0
   -3.0785    3.7800   -4.4067 C   0  0  0  0  0  0  0  0  0  0  0  0
   -4.1121    3.8718   -3.4934 C   0  0  0  0  0  0  0  0  0  0  0  0
   -3.9924    4.7027   -2.3952 C   0  0  0  0  0  0  0  0  0  0  0  0
   -2.8388    5.4415   -2.2100 C   0  0  0  0  0  0  0  0  0  0  0  0
    0.6170    5.3396   -3.2771 N   0  0  0  0  0  0  0  0  0  0  0  0
    1.1594    4.5055   -2.3679 C   0  0  0  0  0  0  0  0  0  0  0  0
    0.7403    4.4951   -1.2257 O   0  0  0  0  0  0  0  0  0  0  0  0
    2.2568    3.6090   -2.7559 C   0  0  0  0  0  0  0  0  0  0  0  0
    2.7392    3.4534   -4.0172 C   0  0  0  0  0  0  0  0  0  0  0  0
    3.7872    2.5052   -3.9640 C   0  0  0  0  0  0  0  0  0  0  0  0
    3.9145    2.1058   -2.6195 C   0  0  0  0  0  0  0  0  0  0  0  0
    2.9645    2.7887   -1.8965 N   0  0  0  0  0  0  0  0  0  0  0  0
    2.7431    2.6712   -0.4531 C   0  0  0  0  0  0  0  0  0  0  0  0
    3.6532    3.6271    0.2741 C   0  0  0  0  0  0  0  0  0  0  0  0
    3.2273    4.9155    0.5444 C   0  0  0  0  0  0  0  0  0  0  0  0
    4.0568    5.7985    1.2118 C   0  0  0  0  0  0  0  0  0  0  0  0
    5.3177    5.4004    1.6070 C   0  0  0  0  0  0  0  0  0  0  0  0
    5.7505    4.1016    1.3427 C   0  0  0  0  0  0  0  0  0  0  0  0
    4.9093    3.2156    0.6696 C   0  0  0  0  0  0  0  0  0  0  0  0
    7.1000    3.6662    1.7697 C   0  0  0  0  0  0  0  0  0  0  0  0
    8.3698    2.0750    1.7564 H   0  0  0  0  0  0  0  0  0  0  0  0
    7.9287    4.5435    2.4345 N   0  0  0  0  0  0  0  0  0  0  0  0
    4.8767    1.1626   -2.2716 C   0  0  0  0  0  0  0  0  0  0  0  0
    5.7053    0.6332   -3.2366 C   0  0  0  0  0  0  0  0  0  0  0  0
    5.5907    1.0258   -4.5623 C   0  0  0  0  0  0  0  0  0  0  0  0
    4.6408    1.9556   -4.9361 C   0  0  0  0  0  0  0  0  0  0  0  0
    4.5316    2.3362   -6.2347 O   0  0  0  0  0  0  0  0  0  0  0  0
    5.4338    1.7343   -7.1653 C   0  0  0  0  0  0  0  0  0  0  0  0
    1.9201   10.2734   -5.6388 H   0  0  0  0  0  0  0  0  0  0  0  0
    0.8865   10.3721   -7.0845 H   0  0  0  0  0  0  0  0  0  0  0  0
    0.6197   11.4860   -5.7220 H   0  0  0  0  0  0  0  0  0  0  0  0
   -1.7243   10.0898   -4.3114 H   0  0  0  0  0  0  0  0  0  0  0  0
   -0.1726   10.6408   -3.6309 H   0  0  0  0  0  0  0  0  0  0  0  0
   -0.6410    8.6968   -2.1704 H   0  0  0  0  0  0  0  0  0  0  0  0
   -0.7870    6.2845   -5.7165 H   0  0  0  0  0  0  0  0  0  0  0  0
   -0.2739    8.2258   -7.0987 H   0  0  0  0  0  0  0  0  0  0  0  0
   -1.1206    4.4533   -4.9393 H   0  0  0  0  0  0  0  0  0  0  0  0
   -3.1720    3.1305   -5.2645 H   0  0  0  0  0  0  0  0  0  0  0  0
   -5.0131    3.2940   -3.6377 H   0  0  0  0  0  0  0  0  0  0  0  0
   -4.7999    4.7744   -1.6816 H   0  0  0  0  0  0  0  0  0  0  0  0
   -2.7452    6.0907   -1.3520 H   0  0  0  0  0  0  0  0  0  0  0  0
    0.9975    5.4002   -4.1672 H   0  0  0  0  0  0  0  0  0  0  0  0
    2.3853    3.9621   -4.9017 H   0  0  0  0  0  0  0  0  0  0  0  0
    2.9580    1.6513   -0.1344 H   0  0  0  0  0  0  0  0  0  0  0  0
    1.7051    2.9124   -0.2240 H   0  0  0  0  0  0  0  0  0  0  0  0
    2.2430    5.2330    0.2332 H   0  0  0  0  0  0  0  0  0  0  0  0
    3.7186    6.8028    1.4202 H   0  0  0  0  0  0  0  0  0  0  0  0
    5.9662    6.0921    2.1242 H   0  0  0  0  0  0  0  0  0  0  0  0
    5.2407    2.2097    0.4581 H   0  0  0  0  0  0  0  0  0  0  0  0
    7.6282    5.4464    2.6226 H   0  0  0  0  0  0  0  0  0  0  0  0
    8.8126    4.2583    2.7142 H   0  0  0  0  0  0  0  0  0  0  0  0
    4.9772    0.8486   -1.2430 H   0  0  0  0  0  0  0  0  0  0  0  0
    6.4524   -0.0953   -2.9579 H   0  0  0  0  0  0  0  0  0  0  0  0
    6.2484    0.6015   -5.3065 H   0  0  0  0  0  0  0  0  0  0  0  0
    6.4597    1.9647   -6.8777 H   0  0  0  0  0  0  0  0  0  0  0  0
    5.2900    0.6538   -7.1637 H   0  0  0  0  0  0  0  0  0  0  0  0
    5.2399    2.1252   -8.1641 H   0  0  0  0  0  0  0  0  0  0  0  0
    0.2465    9.3534   -5.2202 N   0  3  1  0  0  0  0  0  0  0  0  0
    1.0216    8.9025   -4.7200 H   0  0  0  0  0  0  0  0  0  0  0  0
    7.4502    2.4219    1.4831 N   0  3  0  0  0  0  0  0  0  0  0  0
    6.7963    1.8061    0.9856 H   0  0  0  0  0  0  0  0  0  0  0  0
  1 39  1  0  0  0  0
  1 40  1  0  0  0  0
  1 41  1  0  0  0  0
  1 68  1  0  0  0  0
  2  3  1  0  0  0  0
  2 42  1  0  0  0  0
  2 43  1  0  0  0  0
  2 68  1  0  0  0  0
  3  4  2  0  0  0  0
  3 44  1  0  0  0  0
  4  5  1  0  0  0  0
  4  7  1  0  0  0  0
  5  6  2  0  0  0  0
  5 45  1  0  0  0  0
  6 46  1  0  0  0  0
  6 68  1  0  0  0  0
  7  8  1  0  0  0  0
  7  9  1  0  0  0  0
  7 15  1  0  0  0  0
  9 14  2  0  0  0  0
  9 10  1  0  0  0  0
 10 11  2  0  0  0  0
 10 47  1  0  0  0  0
 11 12  1  0  0  0  0
 11 48  1  0  0  0  0
 12 13  2  0  0  0  0
 12 49  1  0  0  0  0
 13 14  1  0  0  0  0
 13 50  1  0  0  0  0
 14 51  1  0  0  0  0
 15 16  1  0  0  0  0
 15 52  1  0  0  0  0
 16 17  2  0  0  0  0
 16 18  1  0  0  0  0
 18 22  1  0  0  0  0
 18 19  2  0  0  0  0
 19 20  1  0  0  0  0
 19 53  1  0  0  0  0
 20 36  2  0  0  0  0
 20 21  1  0  0  0  0
 21 22  1  0  0  0  0
 21 33  2  0  0  0  0
 22 23  1  0  0  0  0
 23 24  1  0  0  0  0
 23 54  1  0  0  0  0
 23 55  1  0  0  0  0
 24 29  2  0  0  0  0
 24 25  1  0  0  0  0
 25 26  2  0  0  0  0
 25 56  1  0  0  0  0
 26 27  1  0  0  0  0
 26 57  1  0  0  0  0
 27 28  2  0  0  0  0
 27 58  1  0  0  0  0
 28 29  1  0  0  0  0
 28 30  1  0  0  0  0
 29 59  1  0  0  0  0
 30 32  1  0  0  0  0
 30 70  2  0  0  0  0
 31 70  1  0  0  0  0
 32 60  1  0  0  0  0
 32 61  1  0  0  0  0
 33 34  1  0  0  0  0
 33 62  1  0  0  0  0
 34 35  2  0  0  0  0
 34 63  1  0  0  0  0
 35 36  1  0  0  0  0
 35 64  1  0  0  0  0
 36 37  1  0  0  0  0
 37 38  1  0  0  0  0
 38 65  1  0  0  0  0
 38 66  1  0  0  0  0
 38 67  1  0  0  0  0
 68 69  1  0  0  0  0
 70 71  1  0  0  0  0
M  CHG  2  68   1  70   1
M  END
$$$$
ZINC03831925
  -OEChem-08230709403D

 67 71  0     1  0  0  0  0  0999 V2000
   -1.3939    6.6715    0.5874 C   0  0  0  0  0  0  0  0  0  0  0  0
    0.0779    7.0768    0.6898 C   0  0  1  0  0  0  0  0  0  0  0  0
    0.1687    8.1539    0.5496 H   0  0  0  0  0  0  0  0  0  0  0  0
    0.6092    6.7005    2.0489 C   0  0  0  0  0  0  0  0  0  0  0  0
    0.9810    5.3946    2.3083 C   0  0  0  0  0  0  0  0  0  0  0  0
    1.4725    5.0504    3.5537 C   0  0  0  0  0  0  0  0  0  0  0  0
    1.5831    6.0100    4.5425 C   0  0  0  0  0  0  0  0  0  0  0  0
    1.2067    7.3149    4.2845 C   0  0  0  0  0  0  0  0  0  0  0  0
    0.7194    7.6600    3.0378 C   0  0  0  0  0  0  0  0  0  0  0  0
    0.8486    6.3830   -0.3451 N   0  0  0  0  0  0  0  0  0  0  0  0
    0.8216    6.8275   -1.6171 C   0  0  0  0  0  0  0  0  0  0  0  0
    0.2556    7.8704   -1.8852 O   0  0  0  0  0  0  0  0  0  0  0  0
    1.4765    6.0518   -2.6811 C   0  0  0  0  0  0  0  0  0  0  0  0
    1.6176    6.4494   -3.9727 C   0  0  0  0  0  0  0  0  0  0  0  0
    2.2993    5.4219   -4.6686 C   0  0  0  0  0  0  0  0  0  0  0  0
    2.7161    5.2748   -5.9985 C   0  0  0  0  0  0  0  0  0  0  0  0
    3.3757    4.1275   -6.3839 C   0  0  0  0  0  0  0  0  0  0  0  0
    3.6295    3.1162   -5.4589 C   0  0  0  0  0  0  0  0  0  0  0  0
    3.2261    3.2470   -4.1499 C   0  0  0  0  0  0  0  0  0  0  0  0
    2.5632    4.3994   -3.7371 C   0  0  0  0  0  0  0  0  0  0  0  0
    2.0456    4.8029   -2.5268 N   0  0  0  0  0  0  0  0  0  0  0  0
    2.0958    4.0364   -1.2793 C   0  0  0  0  0  0  0  0  0  0  0  0
    3.3834    4.3372   -0.5564 C   0  0  0  0  0  0  0  0  0  0  0  0
    3.5128    5.5120    0.1634 C   0  0  0  0  0  0  0  0  0  0  0  0
    4.6911    5.7959    0.8305 C   0  0  0  0  0  0  0  0  0  0  0  0
    5.7480    4.9106    0.7777 C   0  0  0  0  0  0  0  0  0  0  0  0
    5.6225    3.7210    0.0576 C   0  0  0  0  0  0  0  0  0  0  0  0
    4.4300    3.4408   -0.6134 C   0  0  0  0  0  0  0  0  0  0  0  0
    6.7473    2.7665    0.0007 C   0  0  0  0  0  0  0  0  0  0  0  0
    6.9894    1.8112   -1.3993 S   0  0  0  0  0  0  0  0  0  0  0  0
    7.5835    2.6471    1.0509 N   0  0  0  0  0  0  0  0  0  0  0  0
    3.7815    3.9816   -7.6736 O   0  0  0  0  0  0  0  0  0  0  0  0
    4.4596    2.7687   -8.0071 C   0  0  0  0  0  0  0  0  0  0  0  0
    4.8303    2.7858   -9.4677 C   0  0  0  0  0  0  0  0  0  0  0  0
    3.9548    2.2773  -10.4089 C   0  0  0  0  0  0  0  0  0  0  0  0
    4.2926    2.2977  -11.7493 C   0  0  0  0  0  0  0  0  0  0  0  0
    5.5104    2.8167  -12.1473 C   0  0  0  0  0  0  0  0  0  0  0  0
    6.3883    3.3199  -11.2055 C   0  0  0  0  0  0  0  0  0  0  0  0
    6.0481    3.3047   -9.8658 C   0  0  0  0  0  0  0  0  0  0  0  0
   -1.4945    5.6091    0.8097 H   0  0  0  0  0  0  0  0  0  0  0  0
   -1.9805    7.2493    1.3017 H   0  0  0  0  0  0  0  0  0  0  0  0
   -1.7553    6.8672   -0.4222 H   0  0  0  0  0  0  0  0  0  0  0  0
    0.8907    4.6441    1.5370 H   0  0  0  0  0  0  0  0  0  0  0  0
    1.7668    4.0310    3.7551 H   0  0  0  0  0  0  0  0  0  0  0  0
    1.9639    5.7403    5.5165 H   0  0  0  0  0  0  0  0  0  0  0  0
    1.2932    8.0646    5.0571 H   0  0  0  0  0  0  0  0  0  0  0  0
    0.4250    8.6794    2.8364 H   0  0  0  0  0  0  0  0  0  0  0  0
    1.3783    5.6038   -0.1147 H   0  0  0  0  0  0  0  0  0  0  0  0
    1.2715    7.3820   -4.3934 H   0  0  0  0  0  0  0  0  0  0  0  0
    2.5211    6.0564   -6.7179 H   0  0  0  0  0  0  0  0  0  0  0  0
    4.1472    2.2218   -5.7725 H   0  0  0  0  0  0  0  0  0  0  0  0
    3.4283    2.4574   -3.4413 H   0  0  0  0  0  0  0  0  0  0  0  0
    2.0461    2.9712   -1.5051 H   0  0  0  0  0  0  0  0  0  0  0  0
    1.2515    4.3138   -0.6483 H   0  0  0  0  0  0  0  0  0  0  0  0
    2.6900    6.2103    0.2050 H   0  0  0  0  0  0  0  0  0  0  0  0
    4.7855    6.7148    1.3901 H   0  0  0  0  0  0  0  0  0  0  0  0
    6.6688    5.1356    1.2951 H   0  0  0  0  0  0  0  0  0  0  0  0
    4.3278    2.5245   -1.1759 H   0  0  0  0  0  0  0  0  0  0  0  0
    7.4463    3.1883    1.8441 H   0  0  0  0  0  0  0  0  0  0  0  0
    8.3226    2.0199    1.0135 H   0  0  0  0  0  0  0  0  0  0  0  0
    5.3632    2.6800   -7.4040 H   0  0  0  0  0  0  0  0  0  0  0  0
    3.8052    1.9201   -7.8082 H   0  0  0  0  0  0  0  0  0  0  0  0
    3.0052    1.8678  -10.0975 H   0  0  0  0  0  0  0  0  0  0  0  0
    3.6066    1.9049  -12.4851 H   0  0  0  0  0  0  0  0  0  0  0  0
    5.7759    2.8292  -13.1941 H   0  0  0  0  0  0  0  0  0  0  0  0
    7.3398    3.7253  -11.5165 H   0  0  0  0  0  0  0  0  0  0  0  0
    6.7340    3.6979   -9.1300 H   0  0  0  0  0  0  0  0  0  0  0  0
  1  2  1  0  0  0  0
  1 40  1  0  0  0  0
  1 41  1  0  0  0  0
  1 42  1  0  0  0  0
  2  3  1  0  0  0  0
  2  4  1  0  0  0  0
  2 10  1  0  0  0  0
  4  9  2  0  0  0  0
  4  5  1  0  0  0  0
  5  6  2  0  0  0  0
  5 43  1  0  0  0  0
  6  7  1  0  0  0  0
  6 44  1  0  0  0  0
  7  8  2  0  0  0  0
  7 45  1  0  0  0  0
  8  9  1  0  0  0  0
  8 46  1  0  0  0  0
  9 47  1  0  0  0  0
 10 11  1  0  0  0  0
 10 48  1  0  0  0  0
 11 12  2  0  0  0  0
 11 13  1  0  0  0  0
 13 21  1  0  0  0  0
 13 14  2  0  0  0  0
 14 15  1  0  0  0  0
 14 49  1  0  0  0  0
 15 20  2  0  0  0  0
 15 16  1  0  0  0  0
 16 17  2  0  0  0  0
 16 50  1  0  0  0  0
 17 18  1  0  0  0  0
 17 32  1  0  0  0  0
 18 19  2  0  0  0  0
 18 51  1  0  0  0  0
 19 20  1  0  0  0  0
 19 52  1  0  0  0  0
 20 21  1  0  0  0  0
 21 22  1  0  0  0  0
 22 23  1  0  0  0  0
 22 53  1  0  0  0  0
 22 54  1  0  0  0  0
 23 28  2  0  0  0  0
 23 24  1  0  0  0  0
 24 25  2  0  0  0  0
 24 55  1  0  0  0  0
 25 26  1  0  0  0  0
 25 56  1  0  0  0  0
 26 27  2  0  0  0  0
 26 57  1  0  0  0  0
 27 28  1  0  0  0  0
 27 29  1  0  0  0  0
 28 58  1  0  0  0  0
 29 30  2  0  0  0  0
 29 31  1  0  0  0  0
 31 59  1  0  0  0  0
 31 60  1  0  0  0  0
 32 33  1  0  0  0  0
 33 34  1  0  0  0  0
 33 61  1  0  0  0  0
 33 62  1  0  0  0  0
 34 39  2  0  0  0  0
 34 35  1  0  0  0  0
 35 36  2  0  0  0  0
 35 63  1  0  0  0  0
 36 37  1  0  0  0  0
 36 64  1  0  0  0  0
 37 38  2  0  0  0  0
 37 65  1  0  0  0  0
 38 39  1  0  0  0  0
 38 66  1  0  0  0  0
 39 67  1  0  0  0  0
M  END
$$$$
ZINC03831927
  -OEChem-08230709403D

 63 66  0     0  0  0  0  0  0999 V2000
    2.1516    7.2364   -4.0817 C   0  0  0  0  0  0  0  0  0  0  0  0
    1.5610    7.3795   -2.8322 C   0  0  0  0  0  0  0  0  0  0  0  0
    1.7347    6.4206   -1.8598 C   0  0  0  0  0  0  0  0  0  0  0  0
    2.5089    5.2949   -2.1283 C   0  0  0  0  0  0  0  0  0  0  0  0
    3.1062    5.1519   -3.3960 C   0  0  0  0  0  0  0  0  0  0  0  0
    2.9145    6.1423   -4.3685 C   0  0  0  0  0  0  0  0  0  0  0  0
    3.8218    3.9308   -3.3803 C   0  0  0  0  0  0  0  0  0  0  0  0
    3.6617    3.3731   -2.1508 C   0  0  0  0  0  0  0  0  0  0  0  0
    2.8582    4.1941   -1.3826 N   0  0  0  0  0  0  0  0  0  0  0  0
    2.4508    3.9367    0.0008 C   0  0  0  0  0  0  0  0  0  0  0  0
    1.1561    3.1655    0.0081 C   0  0  0  0  0  0  0  0  0  0  0  0
    1.1748    1.7831    0.0004 C   0  0  0  0  0  0  0  0  0  0  0  0
   -0.0126    1.0758    0.0080 C   0  0  0  0  0  0  0  0  0  0  0  0
   -1.2192    1.7508    0.0173 C   0  0  0  0  0  0  0  0  0  0  0  0
   -1.2379    3.1327    0.0290 C   0  0  0  0  0  0  0  0  0  0  0  0
   -0.0501    3.8402    0.0228 C   0  0  0  0  0  0  0  0  0  0  0  0
   -2.5530    3.8684    0.0445 C   0  0  0  0  0  0  0  0  0  0  0  0
    4.2459    2.0992   -1.7106 C   0  0  0  0  0  0  0  0  0  0  0  0
    4.9410    1.4542   -2.4713 O   0  0  0  0  0  0  0  0  0  0  0  0
    4.0113    1.6454   -0.4627 O   0  0  0  0  0  0  0  0  0  0  0  0
    4.6207    0.3794   -0.0962 C   0  0  0  0  0  0  0  0  0  0  0  0
    4.2502    0.0359    1.3236 C   0  0  0  0  0  0  0  0  0  0  0  0
    5.0533    0.4545    2.3682 C   0  0  0  0  0  0  0  0  0  0  0  0
    4.7114    0.1428    3.6706 C   0  0  0  0  0  0  0  0  0  0  0  0
    3.5709   -0.5950    3.9282 C   0  0  0  0  0  0  0  0  0  0  0  0
    2.7706   -1.0175    2.8836 C   0  0  0  0  0  0  0  0  0  0  0  0
    3.1105   -0.7024    1.5810 C   0  0  0  0  0  0  0  0  0  0  0  0
    1.5277   -1.8222    3.1643 C   0  0  0  0  0  0  0  0  0  0  0  0
    2.0057    7.9986   -4.8328 H   0  0  0  0  0  0  0  0  0  0  0  0
    0.9601    8.2518   -2.6216 H   0  0  0  0  0  0  0  0  0  0  0  0
    1.2721    6.5413   -0.8914 H   0  0  0  0  0  0  0  0  0  0  0  0
    3.3693    6.0397   -5.3427 H   0  0  0  0  0  0  0  0  0  0  0  0
    4.3957    3.5182   -4.1969 H   0  0  0  0  0  0  0  0  0  0  0  0
    2.3121    4.8844    0.5211 H   0  0  0  0  0  0  0  0  0  0  0  0
    3.2229    3.3552    0.5048 H   0  0  0  0  0  0  0  0  0  0  0  0
    2.1173    1.2559   -0.0111 H   0  0  0  0  0  0  0  0  0  0  0  0
    0.0021   -0.0041    0.0020 H   0  0  0  0  0  0  0  0  0  0  0  0
   -2.1471    1.1981    0.0187 H   0  0  0  0  0  0  0  0  0  0  0  0
   -0.0647    4.9201    0.0291 H   0  0  0  0  0  0  0  0  0  0  0  0
   -2.8790    4.0516   -0.9794 H   0  0  0  0  0  0  0  0  0  0  0  0
   -3.2518    2.8187    1.6719 H   0  0  0  0  0  0  0  0  0  0  0  0
   -4.4515    3.5286    0.7649 H   0  0  0  0  0  0  0  0  0  0  0  0
   -2.0869    5.0072    1.6950 H   0  0  0  0  0  0  0  0  0  0  0  0
   -1.7490    5.7527    0.2473 H   0  0  0  0  0  0  0  0  0  0  0  0
    4.2624   -0.4033   -0.7647 H   0  0  0  0  0  0  0  0  0  0  0  0
    5.7045    0.4604   -0.1794 H   0  0  0  0  0  0  0  0  0  0  0  0
    5.9462    1.0277    2.1668 H   0  0  0  0  0  0  0  0  0  0  0  0
    5.3370    0.4727    4.4869 H   0  0  0  0  0  0  0  0  0  0  0  0
    3.3055   -0.8414    4.9457 H   0  0  0  0  0  0  0  0  0  0  0  0
    2.4853   -1.0329    0.7648 H   0  0  0  0  0  0  0  0  0  0  0  0
    1.7745   -2.8838    3.1647 H   0  0  0  0  0  0  0  0  0  0  0  0
    0.8095   -0.4525    4.5233 H   0  0  0  0  0  0  0  0  0  0  0  0
    0.1516   -1.9710    4.6883 H   0  0  0  0  0  0  0  0  0  0  0  0
    0.2792   -0.5746    2.1045 H   0  0  0  0  0  0  0  0  0  0  0  0
    0.8486   -1.8636    1.2213 H   0  0  0  0  0  0  0  0  0  0  0  0
   -3.5605    3.0364    0.7258 N   0  3  0  0  0  0  0  0  0  0  0  0
   -3.6840    2.1608    0.2039 H   0  0  0  0  0  0  0  0  0  0  0  0
   -2.4127    5.1588    0.7418 N   0  3  0  0  0  0  0  0  0  0  0  0
   -3.3255    5.6281    0.7704 H   0  0  0  0  0  0  0  0  0  0  0  0
    1.0055   -1.4517    4.4915 N   0  3  0  0  0  0  0  0  0  0  0  0
    1.7075   -1.6782    5.2057 H   0  0  0  0  0  0  0  0  0  0  0  0
    0.5059   -1.5673    2.1336 N   0  3  0  0  0  0  0  0  0  0  0  0
   -0.3429   -2.0982    2.3613 H   0  0  0  0  0  0  0  0  0  0  0  0
  1  6  2  0  0  0  0
  1  2  1  0  0  0  0
  1 29  1  0  0  0  0
  2  3  2  0  0  0  0
  2 30  1  0  0  0  0
  3  4  1  0  0  0  0
  3 31  1  0  0  0  0
  4  9  1  0  0  0  0
  4  5  2  0  0  0  0
  5  6  1  0  0  0  0
  5  7  1  0  0  0  0
  6 32  1  0  0  0  0
  7  8  2  0  0  0  0
  7 33  1  0  0  0  0
  8  9  1  0  0  0  0
  8 18  1  0  0  0  0
  9 10  1  0  0  0  0
 10 11  1  0  0  0  0
 10 34  1  0  0  0  0
 10 35  1  0  0  0  0
 11 16  2  0  0  0  0
 11 12  1  0  0  0  0
 12 13  2  0  0  0  0
 12 36  1  0  0  0  0
 13 14  1  0  0  0  0
 13 37  1  0  0  0  0
 14 15  2  0  0  0  0
 14 38  1  0  0  0  0
 15 16  1  0  0  0  0
 15 17  1  0  0  0  0
 16 39  1  0  0  0  0
 17 40  1  0  0  0  0
 17 56  1  0  0  0  0
 17 58  1  0  0  0  0
 18 19  2  0  0  0  0
 18 20  1  0  0  0  0
 20 21  1  0  0  0  0
 21 22  1  0  0  0  0
 21 45  1  0  0  0  0
 21 46  1  0  0  0  0
 22 27  2  0  0  0  0
 22 23  1  0  0  0  0
 23 24  2  0  0  0  0
 23 47  1  0  0  0  0
 24 25  1  0  0  0  0
 24 48  1  0  0  0  0
 25 26  2  0  0  0  0
 25 49  1  0  0  0  0
 26 27  1  0  0  0  0
 26 28  1  0  0  0  0
 27 50  1  0  0  0  0
 28 51  1  0  0  0  0
 28 60  1  0  0  0  0
 28 62  1  0  0  0  0
 41 56  1  0  0  0  0
 42 56  1  0  0  0  0
 43 58  1  0  0  0  0
 44 58  1  0  0  0  0
 52 60  1  0  0  0  0
 53 60  1  0  0  0  0
 54 62  1  0  0  0  0
 55 62  1  0  0  0  0
 56 57  1  0  0  0  0
 58 59  1  0  0  0  0
 60 61  1  0  0  0  0
 62 63  1  0  0  0  0
M  CHG  4  56   1  58   1  60   1  62   1
M  END
$$$$
ZINC03941406
  -OEChem-08230709403D

 61 64  0     0  0  0  0  0  0999 V2000
    4.3626    8.9494   -4.6674 C   0  0  0  0  0  0  0  0  0  0  0  0
    3.7259    9.2067   -3.3260 C   0  0  0  0  0  0  0  0  0  0  0  0
    2.8775   10.2631   -3.1626 C   0  0  0  0  0  0  0  0  0  0  0  0
    2.2846   10.5104   -1.9312 C   0  0  0  0  0  0  0  0  0  0  0  0
    2.5406    9.6938   -0.8521 C   0  0  0  0  0  0  0  0  0  0  0  0
    3.4027    8.6104   -0.9937 C   0  0  0  0  0  0  0  0  0  0  0  0
    4.0031    8.3619   -2.2437 C   0  0  0  0  0  0  0  0  0  0  0  0
    4.8163    7.2130   -2.0901 C   0  0  0  0  0  0  0  0  0  0  0  0
    4.7085    6.7993   -0.8005 C   0  0  0  0  0  0  0  0  0  0  0  0
    3.8449    7.6402   -0.1254 N   0  0  0  0  0  0  0  0  0  0  0  0
    3.4674    7.5217    1.2851 C   0  0  0  0  0  0  0  0  0  0  0  0
    2.2000    6.7144    1.3997 C   0  0  0  0  0  0  0  0  0  0  0  0
    2.2673    5.3389    1.5331 C   0  0  0  0  0  0  0  0  0  0  0  0
    1.1085    4.5912    1.6393 C   0  0  0  0  0  0  0  0  0  0  0  0
   -0.1229    5.2134    1.6066 C   0  0  0  0  0  0  0  0  0  0  0  0
   -0.1971    6.5999    1.4781 C   0  0  0  0  0  0  0  0  0  0  0  0
    0.9751    7.3485    1.3719 C   0  0  0  0  0  0  0  0  0  0  0  0
   -1.5151    7.2744    1.4489 C   0  0  0  0  0  0  0  0  0  0  0  0
   -2.6712    6.5323    1.5540 N   0  0  0  0  0  0  0  0  0  0  0  0
    5.3985    5.6391   -0.2168 C   0  0  0  0  0  0  0  0  0  0  0  0
    5.3084    5.4142    0.9752 O   0  0  0  0  0  0  0  0  0  0  0  0
    6.1306    4.8250   -1.0028 N   0  0  0  0  0  0  0  0  0  0  0  0
    6.9039    3.7327   -0.4070 C   0  0  0  0  0  0  0  0  0  0  0  0
    7.6273    2.9788   -1.4931 C   0  0  0  0  0  0  0  0  0  0  0  0
    7.0189    1.8978   -2.1059 C   0  0  0  0  0  0  0  0  0  0  0  0
    7.6742    1.2044   -3.1075 C   0  0  0  0  0  0  0  0  0  0  0  0
    8.9447    1.5806   -3.4935 C   0  0  0  0  0  0  0  0  0  0  0  0
    9.5654    2.6655   -2.8755 C   0  0  0  0  0  0  0  0  0  0  0  0
    8.8972    3.3644   -1.8702 C   0  0  0  0  0  0  0  0  0  0  0  0
   10.9287    3.0740   -3.2846 C   0  0  0  0  0  0  0  0  0  0  0  0
   11.5863    2.3818   -4.2780 N   0  0  0  0  0  0  0  0  0  0  0  0
    3.7218    8.2905   -5.2534 H   0  0  0  0  0  0  0  0  0  0  0  0
    4.4918    9.8942   -5.1954 H   0  0  0  0  0  0  0  0  0  0  0  0
    5.3346    8.4775   -4.5238 H   0  0  0  0  0  0  0  0  0  0  0  0
    2.6653   10.9130   -3.9987 H   0  0  0  0  0  0  0  0  0  0  0  0
    1.6156   11.3507   -1.8189 H   0  0  0  0  0  0  0  0  0  0  0  0
    2.0742    9.8941    0.1012 H   0  0  0  0  0  0  0  0  0  0  0  0
    5.4180    6.7512   -2.8589 H   0  0  0  0  0  0  0  0  0  0  0  0
    3.3043    8.5153    1.7023 H   0  0  0  0  0  0  0  0  0  0  0  0
    4.2664    7.0236    1.8344 H   0  0  0  0  0  0  0  0  0  0  0  0
    3.2285    4.8470    1.5547 H   0  0  0  0  0  0  0  0  0  0  0  0
    1.1674    3.5179    1.7435 H   0  0  0  0  0  0  0  0  0  0  0  0
   -1.0272    4.6281    1.6852 H   0  0  0  0  0  0  0  0  0  0  0  0
    0.9238    8.4222    1.2678 H   0  0  0  0  0  0  0  0  0  0  0  0
   -2.3977    9.1024    1.2944 H   0  0  0  0  0  0  0  0  0  0  0  0
   -2.6218    5.5680    1.6471 H   0  0  0  0  0  0  0  0  0  0  0  0
   -3.5346    6.9741    1.5348 H   0  0  0  0  0  0  0  0  0  0  0  0
    6.1455    4.9624   -1.9629 H   0  0  0  0  0  0  0  0  0  0  0  0
    7.6293    4.1423    0.2960 H   0  0  0  0  0  0  0  0  0  0  0  0
    6.2308    3.0556    0.1188 H   0  0  0  0  0  0  0  0  0  0  0  0
    6.0266    1.5968   -1.8040 H   0  0  0  0  0  0  0  0  0  0  0  0
    7.1924    0.3643   -3.5853 H   0  0  0  0  0  0  0  0  0  0  0  0
    9.4573    1.0355   -4.2722 H   0  0  0  0  0  0  0  0  0  0  0  0
    9.3727    4.2057   -1.3882 H   0  0  0  0  0  0  0  0  0  0  0  0
   12.3972    4.4316   -2.9037 H   0  0  0  0  0  0  0  0  0  0  0  0
   11.1562    1.6270   -4.7094 H   0  0  0  0  0  0  0  0  0  0  0  0
   12.4793    2.6493   -4.5460 H   0  0  0  0  0  0  0  0  0  0  0  0
   -1.5147    8.5922    1.3197 N   0  3  0  0  0  0  0  0  0  0  0  0
   -0.6257    9.1004    1.2450 H   0  0  0  0  0  0  0  0  0  0  0  0
   11.4603    4.1120   -2.6575 N   0  3  0  0  0  0  0  0  0  0  0  0
   10.9294    4.5951   -1.9233 H   0  0  0  0  0  0  0  0  0  0  0  0
  1  2  1  0  0  0  0
  1 32  1  0  0  0  0
  1 33  1  0  0  0  0
  1 34  1  0  0  0  0
  2  7  2  0  0  0  0
  2  3  1  0  0  0  0
  3  4  2  0  0  0  0
  3 35  1  0  0  0  0
  4  5  1  0  0  0  0
  4 36  1  0  0  0  0
  5  6  2  0  0  0  0
  5 37  1  0  0  0  0
  6 10  1  0  0  0  0
  6  7  1  0  0  0  0
  7  8  1  0  0  0  0
  8  9  2  0  0  0  0
  8 38  1  0  0  0  0
  9 10  1  0  0  0  0
  9 20  1  0  0  0  0
 10 11  1  0  0  0  0
 11 12  1  0  0  0  0
 11 39  1  0  0  0  0
 11 40  1  0  0  0  0
 12 17  2  0  0  0  0
 12 13  1  0  0  0  0
 13 14  2  0  0  0  0
 13 41  1  0  0  0  0
 14 15  1  0  0  0  0
 14 42  1  0  0  0  0
 15 16  2  0  0  0  0
 15 43  1  0  0  0  0
 16 17  1  0  0  0  0
 16 18  1  0  0  0  0
 17 44  1  0  0  0  0
 18 19  1  0  0  0  0
 18 58  2  0  0  0  0
 19 46  1  0  0  0  0
 19 47  1  0  0  0  0
 20 21  2  0  0  0  0
 20 22  1  0  0  0  0
 22 23  1  0  0  0  0
 22 48  1  0  0  0  0
 23 24  1  0  0  0  0
 23 49  1  0  0  0  0
 23 50  1  0  0  0  0
 24 29  2  0  0  0  0
 24 25  1  0  0  0  0
 25 26  2  0  0  0  0
 25 51  1  0  0  0  0
 26 27  1  0  0  0  0
 26 52  1  0  0  0  0
 27 28  2  0  0  0  0
 27 53  1  0  0  0  0
 28 29  1  0  0  0  0
 28 30  1  0  0  0  0
 29 54  1  0  0  0  0
 30 31  1  0  0  0  0
 30 60  2  0  0  0  0
 31 56  1  0  0  0  0
 31 57  1  0  0  0  0
 45 58  1  0  0  0  0
 55 60  1  0  0  0  0
 58 59  1  0  0  0  0
 60 61  1  0  0  0  0
M  CHG  2  58   1  60   1
M  END
$$$$
ZINC03941407
  -OEChem-08230709403D

 58 61  0     0  0  0  0  0  0999 V2000
   -2.1709   -0.6326    1.9629 C   0  0  0  0  0  0  0  0  0  0  0  0
   -3.0695    0.3472    1.5597 C   0  0  0  0  0  0  0  0  0  0  0  0
   -2.7674    1.6818    1.7116 C   0  0  0  0  0  0  0  0  0  0  0  0
   -1.5463    2.0563    2.2660 C   0  0  0  0  0  0  0  0  0  0  0  0
   -0.6351    1.0611    2.6688 C   0  0  0  0  0  0  0  0  0  0  0  0
   -0.9679   -0.2900    2.5080 C   0  0  0  0  0  0  0  0  0  0  0  0
    0.5029    1.7272    3.1878 C   0  0  0  0  0  0  0  0  0  0  0  0
    0.2762    3.0654    3.0966 C   0  0  0  0  0  0  0  0  0  0  0  0
   -0.9708    3.2757    2.5358 N   0  0  0  0  0  0  0  0  0  0  0  0
   -1.5784    4.5825    2.2726 C   0  0  0  0  0  0  0  0  0  0  0  0
   -1.3274    4.9735    0.8390 C   0  0  0  0  0  0  0  0  0  0  0  0
   -0.1265    5.5617    0.4839 C   0  0  0  0  0  0  0  0  0  0  0  0
    0.1130    5.9189   -0.8308 C   0  0  0  0  0  0  0  0  0  0  0  0
   -0.8500    5.6999   -1.7947 C   0  0  0  0  0  0  0  0  0  0  0  0
   -2.0645    5.1123   -1.4420 C   0  0  0  0  0  0  0  0  0  0  0  0
   -2.2980    4.7495   -0.1157 C   0  0  0  0  0  0  0  0  0  0  0  0
   -3.1022    4.8750   -2.4715 C   0  0  0  0  0  0  0  0  0  0  0  0
   -2.8686    5.2345   -3.7809 N   0  0  0  0  0  0  0  0  0  0  0  0
    1.2063    4.1183    3.5250 C   0  0  0  0  0  0  0  0  0  0  0  0
    2.2135    3.8263    4.1419 O   0  0  0  0  0  0  0  0  0  0  0  0
    0.9441    5.4080    3.2347 N   0  0  0  0  0  0  0  0  0  0  0  0
    1.8044    6.4680    3.7663 C   0  0  0  0  0  0  0  0  0  0  0  0
    1.2985    7.8079    3.2975 C   0  0  0  0  0  0  0  0  0  0  0  0
    1.7674    8.3470    2.1126 C   0  0  0  0  0  0  0  0  0  0  0  0
    1.3036    9.5737    1.6730 C   0  0  0  0  0  0  0  0  0  0  0  0
    0.3777   10.2728    2.4205 C   0  0  0  0  0  0  0  0  0  0  0  0
   -0.0944    9.7373    3.6183 C   0  0  0  0  0  0  0  0  0  0  0  0
    0.3728    8.4972    4.0535 C   0  0  0  0  0  0  0  0  0  0  0  0
   -1.0875   10.4824    4.4253 C   0  0  0  0  0  0  0  0  0  0  0  0
   -1.5473   11.7072    3.9928 N   0  0  0  0  0  0  0  0  0  0  0  0
    1.9301    0.9714    3.8247 Cl  0  0  0  0  0  0  0  0  0  0  0  0
   -2.4250   -1.6751    1.8396 H   0  0  0  0  0  0  0  0  0  0  0  0
   -4.0159    0.0591    1.1263 H   0  0  0  0  0  0  0  0  0  0  0  0
   -3.4742    2.4361    1.3986 H   0  0  0  0  0  0  0  0  0  0  0  0
   -0.2738   -1.0586    2.8144 H   0  0  0  0  0  0  0  0  0  0  0  0
   -2.6522    4.5267    2.4514 H   0  0  0  0  0  0  0  0  0  0  0  0
   -1.1381    5.3279    2.9349 H   0  0  0  0  0  0  0  0  0  0  0  0
    0.6286    5.7388    1.2354 H   0  0  0  0  0  0  0  0  0  0  0  0
    1.0541    6.3735   -1.1028 H   0  0  0  0  0  0  0  0  0  0  0  0
   -0.6634    5.9826   -2.8202 H   0  0  0  0  0  0  0  0  0  0  0  0
   -3.2368    4.2943    0.1636 H   0  0  0  0  0  0  0  0  0  0  0  0
   -4.9775    4.1302   -2.7413 H   0  0  0  0  0  0  0  0  0  0  0  0
   -2.0243    5.6431   -4.0284 H   0  0  0  0  0  0  0  0  0  0  0  0
   -3.5484    5.0791   -4.4552 H   0  0  0  0  0  0  0  0  0  0  0  0
    0.1858    5.6344    2.6738 H   0  0  0  0  0  0  0  0  0  0  0  0
    1.7904    6.4352    4.8557 H   0  0  0  0  0  0  0  0  0  0  0  0
    2.8243    6.3203    3.4113 H   0  0  0  0  0  0  0  0  0  0  0  0
    2.4956    7.8058    1.5266 H   0  0  0  0  0  0  0  0  0  0  0  0
    1.6700    9.9874    0.7451 H   0  0  0  0  0  0  0  0  0  0  0  0
    0.0198   11.2326    2.0786 H   0  0  0  0  0  0  0  0  0  0  0  0
    0.0106    8.0773    4.9803 H   0  0  0  0  0  0  0  0  0  0  0  0
   -2.1772   10.3920    6.1426 H   0  0  0  0  0  0  0  0  0  0  0  0
   -1.2204   12.0813    3.1598 H   0  0  0  0  0  0  0  0  0  0  0  0
   -2.1978   12.1953    4.5215 H   0  0  0  0  0  0  0  0  0  0  0  0
   -4.2322    4.3141   -2.0695 N   0  3  0  0  0  0  0  0  0  0  0  0
   -4.3582    4.0642   -1.0816 H   0  0  0  0  0  0  0  0  0  0  0  0
   -1.4938    9.9178    5.5520 N   0  3  0  0  0  0  0  0  0  0  0  0
   -1.1210    9.0028    5.8313 H   0  0  0  0  0  0  0  0  0  0  0  0
  1  6  2  0  0  0  0
  1  2  1  0  0  0  0
  1 32  1  0  0  0  0
  2  3  2  0  0  0  0
  2 33  1  0  0  0  0
  3  4  1  0  0  0  0
  3 34  1  0  0  0  0
  4  9  1  0  0  0  0
  4  5  2  0  0  0  0
  5  6  1  0  0  0  0
  5  7  1  0  0  0  0
  6 35  1  0  0  0  0
  7  8  2  0  0  0  0
  7 31  1  0  0  0  0
  8  9  1  0  0  0  0
  8 19  1  0  0  0  0
  9 10  1  0  0  0  0
 10 11  1  0  0  0  0
 10 36  1  0  0  0  0
 10 37  1  0  0  0  0
 11 16  2  0  0  0  0
 11 12  1  0  0  0  0
 12 13  2  0  0  0  0
 12 38  1  0  0  0  0
 13 14  1  0  0  0  0
 13 39  1  0  0  0  0
 14 15  2  0  0  0  0
 14 40  1  0  0  0  0
 15 16  1  0  0  0  0
 15 17  1  0  0  0  0
 16 41  1  0  0  0  0
 17 18  1  0  0  0  0
 17 55  2  0  0  0  0
 18 43  1  0  0  0  0
 18 44  1  0  0  0  0
 19 20  2  0  0  0  0
 19 21  1  0  0  0  0
 21 22  1  0  0  0  0
 21 45  1  0  0  0  0
 22 23  1  0  0  0  0
 22 46  1  0  0  0  0
 22 47  1  0  0  0  0
 23 28  2  0  0  0  0
 23 24  1  0  0  0  0
 24 25  2  0  0  0  0
 24 48  1  0  0  0  0
 25 26  1  0  0  0  0
 25 49  1  0  0  0  0
 26 27  2  0  0  0  0
 26 50  1  0  0  0  0
 27 28  1  0  0  0  0
 27 29  1  0  0  0  0
 28 51  1  0  0  0  0
 29 30  1  0  0  0  0
 29 57  2  0  0  0  0
 30 53  1  0  0  0  0
 30 54  1  0  0  0  0
 42 55  1  0  0  0  0
 52 57  1  0  0  0  0
 55 56  1  0  0  0  0
 57 58  1  0  0  0  0
M  CHG  2  55   1  57   1
M  END
$$$$
ZINC04629420
  -OEChem-08230709403D

 74 76  0     1  0  0  0  0  0999 V2000
   -0.5905   -4.2086    1.2344 C   0  0  0  0  0  0  0  0  0  0  0  0
   -0.5311   -2.6798    1.2421 C   0  0  2  0  0  0  0  0  0  0  0  0
   -1.0220   -2.3016    2.1388 H   0  0  0  0  0  0  0  0  0  0  0  0
   -1.2439   -2.1355    0.0025 C   0  0  1  0  0  0  0  0  0  0  0  0
   -0.7531   -2.5137   -0.8943 H   0  0  0  0  0  0  0  0  0  0  0  0
   -2.7051   -2.5893    0.0140 C   0  0  0  0  0  0  0  0  0  0  0  0
   -3.3751   -2.1579   -1.2651 C   0  0  0  0  0  0  0  0  0  0  0  0
   -4.0043   -0.9287   -1.3354 C   0  0  0  0  0  0  0  0  0  0  0  0
   -4.6146   -0.5311   -2.5100 C   0  0  0  0  0  0  0  0  0  0  0  0
   -4.6051   -1.3668   -3.6113 C   0  0  0  0  0  0  0  0  0  0  0  0
   -3.9806   -2.5977   -3.5394 C   0  0  0  0  0  0  0  0  0  0  0  0
   -3.3656   -2.9933   -2.3661 C   0  0  0  0  0  0  0  0  0  0  0  0
   -3.9707   -3.5089   -4.7397 C   0  0  0  0  0  0  0  0  0  0  0  0
   -1.1855   -0.6297    0.0100 C   0  0  0  0  0  0  0  0  0  0  0  0
   -2.2076    0.0145    0.0232 O   0  0  0  0  0  0  0  0  0  0  0  0
    0.0021   -0.0041    0.0020 O   0  0  0  0  0  0  0  0  0  0  0  0
   -0.0176    1.4478    0.0100 C   0  0  0  0  0  0  0  0  0  0  0  0
    0.8679   -2.2453    1.2310 N   0  0  0  0  0  0  0  0  0  0  0  0
    1.5527   -2.1489    2.3878 C   0  0  0  0  0  0  0  0  0  0  0  0
    1.0108   -2.4217    3.4379 O   0  0  0  0  0  0  0  0  0  0  0  0
    2.9919   -1.7020    2.3765 C   0  0  0  0  0  0  0  0  0  0  0  0
    3.8214   -2.6747    1.5359 C   0  0  0  0  0  0  0  0  0  0  0  0
    3.7278   -4.0778    2.1389 C   0  0  0  0  0  0  0  0  0  0  0  0
    4.2658   -4.0543    3.5710 C   0  0  0  0  0  0  0  0  0  0  0  0
    3.4364   -3.0815    4.4116 C   0  0  0  0  0  0  0  0  0  0  0  0
    3.5299   -1.6785    3.8086 C   0  0  0  0  0  0  0  0  0  0  0  0
    4.1723   -5.4573    4.1740 C   0  0  0  0  0  0  0  0  0  0  0  0
    4.7099   -5.4334    5.6067 C   0  0  0  0  0  0  0  0  0  0  0  0
    4.5823   -6.8318    6.2191 C   0  0  0  0  0  0  0  0  0  0  0  0
    5.2549   -7.7966    5.3385 N   0  3  0  0  0  0  0  0  0  0  0  0
    6.1094   -8.5459    5.7766 O   0  0  0  0  0  0  0  0  0  0  0  0
    4.8776   -7.8400    3.9192 C   0  0  0  0  0  0  0  0  0  0  0  0
    5.0015   -6.4303    3.3327 C   0  0  0  0  0  0  0  0  0  0  0  0
   -0.0996   -4.5868    0.3377 H   0  0  0  0  0  0  0  0  0  0  0  0
   -0.0826   -4.5963    2.1175 H   0  0  0  0  0  0  0  0  0  0  0  0
   -1.6314   -4.5319    1.2426 H   0  0  0  0  0  0  0  0  0  0  0  0
   -2.7476   -3.6752    0.0981 H   0  0  0  0  0  0  0  0  0  0  0  0
   -3.2188   -2.1386    0.8632 H   0  0  0  0  0  0  0  0  0  0  0  0
   -4.0156   -0.2778   -0.4737 H   0  0  0  0  0  0  0  0  0  0  0  0
   -5.1029    0.4306   -2.5661 H   0  0  0  0  0  0  0  0  0  0  0  0
   -5.0859   -1.0579   -4.5278 H   0  0  0  0  0  0  0  0  0  0  0  0
   -2.8779   -3.9553   -2.3097 H   0  0  0  0  0  0  0  0  0  0  0  0
   -4.8476   -4.1557   -4.7122 H   0  0  0  0  0  0  0  0  0  0  0  0
   -3.1923   -2.0935   -6.0162 H   0  0  0  0  0  0  0  0  0  0  0  0
   -4.0545   -3.2900   -6.7850 H   0  0  0  0  0  0  0  0  0  0  0  0
   -2.7239   -4.9522   -5.5149 H   0  0  0  0  0  0  0  0  0  0  0  0
   -1.9276   -3.7548   -4.6793 H   0  0  0  0  0  0  0  0  0  0  0  0
    1.0050    1.8251    0.0023 H   0  0  0  0  0  0  0  0  0  0  0  0
   -0.5448    1.8089   -0.8731 H   0  0  0  0  0  0  0  0  0  0  0  0
   -0.5278    1.7993    0.9068 H   0  0  0  0  0  0  0  0  0  0  0  0
    1.3014   -2.0271    0.3912 H   0  0  0  0  0  0  0  0  0  0  0  0
    3.0586   -0.7024    1.9469 H   0  0  0  0  0  0  0  0  0  0  0  0
    3.4381   -2.6914    0.5157 H   0  0  0  0  0  0  0  0  0  0  0  0
    4.8623   -2.3515    1.5277 H   0  0  0  0  0  0  0  0  0  0  0  0
    4.3188   -4.7708    1.5401 H   0  0  0  0  0  0  0  0  0  0  0  0
    2.6869   -4.4010    2.1471 H   0  0  0  0  0  0  0  0  0  0  0  0
    5.3068   -3.7310    3.5628 H   0  0  0  0  0  0  0  0  0  0  0  0
    3.8197   -3.0648    5.4318 H   0  0  0  0  0  0  0  0  0  0  0  0
    2.3954   -3.4048    4.4198 H   0  0  0  0  0  0  0  0  0  0  0  0
    4.5709   -1.3552    3.8004 H   0  0  0  0  0  0  0  0  0  0  0  0
    2.9390   -0.9855    4.4074 H   0  0  0  0  0  0  0  0  0  0  0  0
    3.1313   -5.7804    4.1822 H   0  0  0  0  0  0  0  0  0  0  0  0
    5.7580   -5.1345    5.5970 H   0  0  0  0  0  0  0  0  0  0  0  0
    4.1339   -4.7229    6.1996 H   0  0  0  0  0  0  0  0  0  0  0  0
    3.5288   -7.0953    6.3127 H   0  0  0  0  0  0  0  0  0  0  0  0
    5.0513   -6.8463    7.2029 H   0  0  0  0  0  0  0  0  0  0  0  0
    3.8481   -8.1857    3.8252 H   0  0  0  0  0  0  0  0  0  0  0  0
    5.5412   -8.5185    3.3830 H   0  0  0  0  0  0  0  0  0  0  0  0
    4.6331   -6.4293    2.3068 H   0  0  0  0  0  0  0  0  0  0  0  0
    6.0468   -6.1215    3.3442 H   0  0  0  0  0  0  0  0  0  0  0  0
   -4.0170   -2.6891   -5.9633 N   0  3  0  0  0  0  0  0  0  0  0  0
   -4.8563   -2.0980   -5.9420 H   0  0  0  0  0  0  0  0  0  0  0  0
   -2.7578   -4.3448   -4.6979 N   0  3  0  0  0  0  0  0  0  0  0  0
   -2.7762   -4.9240   -3.8503 H   0  0  0  0  0  0  0  0  0  0  0  0
  1  2  1  0  0  0  0
  1 34  1  0  0  0  0
  1 35  1  0  0  0  0
  1 36  1  0  0  0  0
  2  3  1  0  0  0  0
  2  4  1  0  0  0  0
  2 18  1  0  0  0  0
  4  5  1  0  0  0  0
  4  6  1  0  0  0  0
  4 14  1  0  0  0  0
  6  7  1  0  0  0  0
  6 37  1  0  0  0  0
  6 38  1  0  0  0  0
  7 12  2  0  0  0  0
  7  8  1  0  0  0  0
  8  9  2  0  0  0  0
  8 39  1  0  0  0  0
  9 10  1  0  0  0  0
  9 40  1  0  0  0  0
 10 11  2  0  0  0  0
 10 41  1  0  0  0  0
 11 12  1  0  0  0  0
 11 13  1  0  0  0  0
 12 42  1  0  0  0  0
 13 43  1  0  0  0  0
 13 71  1  0  0  0  0
 13 73  1  0  0  0  0
 14 15  2  0  0  0  0
 14 16  1  0  0  0  0
 16 17  1  0  0  0  0
 17 48  1  0  0  0  0
 17 49  1  0  0  0  0
 17 50  1  0  0  0  0
 18 19  1  0  0  0  0
 18 51  1  0  0  0  0
 19 20  2  0  0  0  0
 19 21  1  0  0  0  0
 21 26  1  0  0  0  0
 21 22  1  0  0  0  0
 21 52  1  0  0  0  0
 22 23  1  0  0  0  0
 22 53  1  0  0  0  0
 22 54  1  0  0  0  0
 23 24  1  0  0  0  0
 23 55  1  0  0  0  0
 23 56  1  0  0  0  0
 24 25  1  0  0  0  0
 24 27  1  0  0  0  0
 24 57  1  0  0  0  0
 25 26  1  0  0  0  0
 25 58  1  0  0  0  0
 25 59  1  0  0  0  0
 26 60  1  0  0  0  0
 26 61  1  0  0  0  0
 27 33  1  0  0  0  0
 27 28  1  0  0  0  0
 27 62  1  0  0  0  0
 28 29  1  0  0  0  0
 28 63  1  0  0  0  0
 28 64  1  0  0  0  0
 29 30  1  0  0  0  0
 29 65  1  0  0  0  0
 29 66  1  0  0  0  0
 30 31  2  0  0  0  0
 30 32  1  0  0  0  0
 32 33  1  0  0  0  0
 32 67  1  0  0  0  0
 32 68  1  0  0  0  0
 33 69  1  0  0  0  0
 33 70  1  0  0  0  0
 44 71  1  0  0  0  0
 45 71  1  0  0  0  0
 46 73  1  0  0  0  0
 47 73  1  0  0  0  0
 71 72  1  0  0  0  0
 73 74  1  0  0  0  0
M  CHG  3  30   1  71   1  73   1
M  END
$$$$
ZINC04631018
  -OEChem-08230709403D

 63 66  0     1  0  0  0  0  0999 V2000
    7.3565    4.9543   -3.2307 C   0  0  0  0  0  0  0  0  0  0  0  0
    6.3082    3.8402   -3.2015 C   0  0  0  0  0  0  0  0  0  0  0  0
    6.0145    3.4824   -1.8117 N   0  0  0  0  0  0  0  0  0  0  0  0
    6.8100    2.4544   -1.1360 C   0  0  0  0  0  0  0  0  0  0  0  0
    6.1753    1.1049   -1.3530 C   0  0  0  0  0  0  0  0  0  0  0  0
    6.5943    0.3241   -2.3475 C   0  0  0  0  0  0  0  0  0  0  0  0
    5.9523   -1.0234   -2.5659 C   0  0  0  0  0  0  0  0  0  0  0  0
    4.7589   -0.6503   -0.4522 C   0  0  0  0  0  0  0  0  0  0  0  0
    5.0993    0.6483   -0.4640 C   0  0  0  0  0  0  0  0  0  0  0  0
    5.6585   -2.9178   -0.8863 C   0  0  0  0  0  0  0  0  0  0  0  0
    5.0123    4.0990   -1.1545 C   0  0  0  0  0  0  0  0  0  0  0  0
    4.6874    3.7185   -0.0457 O   0  0  0  0  0  0  0  0  0  0  0  0
    4.3115    5.2316   -1.7779 C   0  0  0  0  0  0  0  0  0  0  0  0
    4.6871    5.8552   -2.9250 C   0  0  0  0  0  0  0  0  0  0  0  0
    3.7552    6.8909   -3.1777 C   0  0  0  0  0  0  0  0  0  0  0  0
    3.6342    7.8502   -4.1916 C   0  0  0  0  0  0  0  0  0  0  0  0
    2.6005    8.7403   -4.1639 C   0  0  0  0  0  0  0  0  0  0  0  0
    1.6640    8.7053   -3.1381 C   0  0  0  0  0  0  0  0  0  0  0  0
    1.7614    7.7727   -2.1302 C   0  0  0  0  0  0  0  0  0  0  0  0
    2.8073    6.8537   -2.1365 C   0  0  0  0  0  0  0  0  0  0  0  0
    3.1645    5.8291   -1.2922 N   0  0  0  0  0  0  0  0  0  0  0  0
    2.4497    5.4390   -0.0744 C   0  0  0  0  0  0  0  0  0  0  0  0
    1.3588    4.4598   -0.4240 C   0  0  0  0  0  0  0  0  0  0  0  0
    1.6415    3.1072   -0.4939 C   0  0  0  0  0  0  0  0  0  0  0  0
    0.6455    2.2024   -0.8138 C   0  0  0  0  0  0  0  0  0  0  0  0
   -0.6361    2.6450   -1.0713 C   0  0  0  0  0  0  0  0  0  0  0  0
   -0.9285    4.0064   -0.9969 C   0  0  0  0  0  0  0  0  0  0  0  0
    0.0801    4.9139   -0.6733 C   0  0  0  0  0  0  0  0  0  0  0  0
   -2.3031    4.4873   -1.2656 C   0  0  0  0  0  0  0  0  0  0  0  0
   -3.4417    6.1723   -1.3593 H   0  0  0  0  0  0  0  0  0  0  0  0
   -3.2973    3.5884   -1.5849 N   0  0  0  0  0  0  0  0  0  0  0  0
    7.0254    5.7814   -2.6025 H   0  0  0  0  0  0  0  0  0  0  0  0
    8.3052    4.5705   -2.8557 H   0  0  0  0  0  0  0  0  0  0  0  0
    7.4857    5.3050   -4.2547 H   0  0  0  0  0  0  0  0  0  0  0  0
    6.6919    2.9665   -3.7283 H   0  0  0  0  0  0  0  0  0  0  0  0
    5.3964    4.1865   -3.6881 H   0  0  0  0  0  0  0  0  0  0  0  0
    7.8207    2.4505   -1.5443 H   0  0  0  0  0  0  0  0  0  0  0  0
    6.8505    2.6695   -0.0683 H   0  0  0  0  0  0  0  0  0  0  0  0
    7.3916    0.6553   -2.9963 H   0  0  0  0  0  0  0  0  0  0  0  0
    5.1271   -0.9244   -3.2711 H   0  0  0  0  0  0  0  0  0  0  0  0
    6.6909   -1.7192   -2.9640 H   0  0  0  0  0  0  0  0  0  0  0  0
    3.9704   -1.0079    0.1933 H   0  0  0  0  0  0  0  0  0  0  0  0
    4.5827    1.3515    0.1723 H   0  0  0  0  0  0  0  0  0  0  0  0
    6.5955   -2.9994   -0.3354 H   0  0  0  0  0  0  0  0  0  0  0  0
    4.8347   -3.2461   -0.2525 H   0  0  0  0  0  0  0  0  0  0  0  0
    5.7046   -3.5454   -1.7763 H   0  0  0  0  0  0  0  0  0  0  0  0
    5.5448    5.6080   -3.5330 H   0  0  0  0  0  0  0  0  0  0  0  0
    4.3575    7.8853   -4.9928 H   0  0  0  0  0  0  0  0  0  0  0  0
    2.5096    9.4791   -4.9464 H   0  0  0  0  0  0  0  0  0  0  0  0
    0.8518    9.4171   -3.1312 H   0  0  0  0  0  0  0  0  0  0  0  0
    1.0289    7.7540   -1.3369 H   0  0  0  0  0  0  0  0  0  0  0  0
    2.0101    6.3228    0.3879 H   0  0  0  0  0  0  0  0  0  0  0  0
    3.1464    4.9731    0.6224 H   0  0  0  0  0  0  0  0  0  0  0  0
    2.6439    2.7564   -0.2976 H   0  0  0  0  0  0  0  0  0  0  0  0
    0.8721    1.1477   -0.8665 H   0  0  0  0  0  0  0  0  0  0  0  0
   -1.4120    1.9380   -1.3253 H   0  0  0  0  0  0  0  0  0  0  0  0
   -0.1394    5.9699   -0.6184 H   0  0  0  0  0  0  0  0  0  0  0  0
   -3.0968    2.6406   -1.6337 H   0  0  0  0  0  0  0  0  0  0  0  0
   -4.1976    3.9034   -1.7609 H   0  0  0  0  0  0  0  0  0  0  0  0
    5.1318   -1.6068   -1.4392 N   0  3  2  0  0  0  0  0  0  0  0  0
    4.2402   -1.8615   -1.8801 H   0  0  0  0  0  0  0  0  0  0  0  0
   -2.5116    5.7922   -1.1829 N   0  3  0  0  0  0  0  0  0  0  0  0
   -1.7372    6.4216   -0.9413 H   0  0  0  0  0  0  0  0  0  0  0  0
  1  2  1  0  0  0  0
  1 32  1  0  0  0  0
  1 33  1  0  0  0  0
  1 34  1  0  0  0  0
  2  3  1  0  0  0  0
  2 35  1  0  0  0  0
  2 36  1  0  0  0  0
  3  4  1  0  0  0  0
  3 11  1  0  0  0  0
  4  5  1  0  0  0  0
  4 37  1  0  0  0  0
  4 38  1  0  0  0  0
  5  9  1  0  0  0  0
  5  6  2  0  0  0  0
  6  7  1  0  0  0  0
  6 39  1  0  0  0  0
  7 40  1  0  0  0  0
  7 41  1  0  0  0  0
  7 60  1  0  0  0  0
  8  9  2  0  0  0  0
  8 42  1  0  0  0  0
  8 60  1  0  0  0  0
  9 43  1  0  0  0  0
 10 44  1  0  0  0  0
 10 45  1  0  0  0  0
 10 46  1  0  0  0  0
 10 60  1  0  0  0  0
 11 12  2  0  0  0  0
 11 13  1  0  0  0  0
 13 21  1  0  0  0  0
 13 14  2  0  0  0  0
 14 15  1  0  0  0  0
 14 47  1  0  0  0  0
 15 20  2  0  0  0  0
 15 16  1  0  0  0  0
 16 17  2  0  0  0  0
 16 48  1  0  0  0  0
 17 18  1  0  0  0  0
 17 49  1  0  0  0  0
 18 19  2  0  0  0  0
 18 50  1  0  0  0  0
 19 20  1  0  0  0  0
 19 51  1  0  0  0  0
 20 21  1  0  0  0  0
 21 22  1  0  0  0  0
 22 23  1  0  0  0  0
 22 52  1  0  0  0  0
 22 53  1  0  0  0  0
 23 28  2  0  0  0  0
 23 24  1  0  0  0  0
 24 25  2  0  0  0  0
 24 54  1  0  0  0  0
 25 26  1  0  0  0  0
 25 55  1  0  0  0  0
 26 27  2  0  0  0  0
 26 56  1  0  0  0  0
 27 28  1  0  0  0  0
 27 29  1  0  0  0  0
 28 57  1  0  0  0  0
 29 31  1  0  0  0  0
 29 62  2  0  0  0  0
 30 62  1  0  0  0  0
 31 58  1  0  0  0  0
 31 59  1  0  0  0  0
 60 61  1  0  0  0  0
 62 63  1  0  0  0  0
M  CHG  2  60   1  62   1
M  END
$$$$
ZINC04631019
  -OEChem-08230709403D

 47 49  0     0  0  0  0  0  0999 V2000
    5.4967    2.3064    1.3446 C   0  0  0  0  0  0  0  0  0  0  0  0
    5.7521    2.7564   -0.0952 C   0  0  0  0  0  0  0  0  0  0  0  0
    4.7917    3.7830   -0.4590 O   0  0  0  0  0  0  0  0  0  0  0  0
    4.8806    4.2904   -1.7052 C   0  0  0  0  0  0  0  0  0  0  0  0
    5.7375    3.8855   -2.4667 O   0  0  0  0  0  0  0  0  0  0  0  0
    3.9420    5.3321   -2.1427 C   0  0  0  0  0  0  0  0  0  0  0  0
    3.9291    5.9167   -3.3700 C   0  0  0  0  0  0  0  0  0  0  0  0
    2.8804    6.8673   -3.3835 C   0  0  0  0  0  0  0  0  0  0  0  0
    2.4014    7.7578   -4.3536 C   0  0  0  0  0  0  0  0  0  0  0  0
    1.3454    8.5720   -4.0650 C   0  0  0  0  0  0  0  0  0  0  0  0
    0.7384    8.5279   -2.8159 C   0  0  0  0  0  0  0  0  0  0  0  0
    1.1901    7.6611   -1.8463 C   0  0  0  0  0  0  0  0  0  0  0  0
    2.2665    6.8204   -2.1166 C   0  0  0  0  0  0  0  0  0  0  0  0
    2.9289    5.8723   -1.3735 N   0  0  0  0  0  0  0  0  0  0  0  0
    2.6163    5.5001    0.0085 C   0  0  0  0  0  0  0  0  0  0  0  0
    1.6120    4.3766    0.0113 C   0  0  0  0  0  0  0  0  0  0  0  0
    2.0458    3.0628   -0.0003 C   0  0  0  0  0  0  0  0  0  0  0  0
    1.1300    2.0261    0.0026 C   0  0  0  0  0  0  0  0  0  0  0  0
   -0.2232    2.2971    0.0110 C   0  0  0  0  0  0  0  0  0  0  0  0
   -0.6665    3.6191    0.0286 C   0  0  0  0  0  0  0  0  0  0  0  0
    0.2619    4.6601    0.0260 C   0  0  0  0  0  0  0  0  0  0  0  0
   -2.1170    3.9166    0.0442 C   0  0  0  0  0  0  0  0  0  0  0  0
   -3.4575    5.4487    0.0663 H   0  0  0  0  0  0  0  0  0  0  0  0
   -3.0316    2.8862    0.0468 N   0  0  0  0  0  0  0  0  0  0  0  0
    3.0507    7.8157   -5.7123 C   0  0  0  0  0  0  0  0  0  0  0  0
    5.6035    3.1583    2.0160 H   0  0  0  0  0  0  0  0  0  0  0  0
    4.4868    1.9042    1.4258 H   0  0  0  0  0  0  0  0  0  0  0  0
    6.2176    1.5358    1.6178 H   0  0  0  0  0  0  0  0  0  0  0  0
    5.6452    1.9045   -0.7666 H   0  0  0  0  0  0  0  0  0  0  0  0
    6.7620    3.1586   -0.1763 H   0  0  0  0  0  0  0  0  0  0  0  0
    4.6009    5.6978   -4.1868 H   0  0  0  0  0  0  0  0  0  0  0  0
    0.9780    9.2575   -4.8143 H   0  0  0  0  0  0  0  0  0  0  0  0
   -0.0963    9.1794   -2.6038 H   0  0  0  0  0  0  0  0  0  0  0  0
    0.7112    7.6338   -0.8788 H   0  0  0  0  0  0  0  0  0  0  0  0
    2.1998    6.3611    0.5313 H   0  0  0  0  0  0  0  0  0  0  0  0
    3.5267    5.1750    0.5120 H   0  0  0  0  0  0  0  0  0  0  0  0
    3.1037    2.8458   -0.0114 H   0  0  0  0  0  0  0  0  0  0  0  0
    1.4747    1.0026   -0.0062 H   0  0  0  0  0  0  0  0  0  0  0  0
   -0.9373    1.4869    0.0089 H   0  0  0  0  0  0  0  0  0  0  0  0
   -0.0756    5.6860    0.0351 H   0  0  0  0  0  0  0  0  0  0  0  0
   -2.7254    1.9659    0.0382 H   0  0  0  0  0  0  0  0  0  0  0  0
   -3.9819    3.0811    0.0570 H   0  0  0  0  0  0  0  0  0  0  0  0
    2.5583    7.1093   -6.3807 H   0  0  0  0  0  0  0  0  0  0  0  0
    2.9579    8.8237   -6.1167 H   0  0  0  0  0  0  0  0  0  0  0  0
    4.1055    7.5559   -5.6223 H   0  0  0  0  0  0  0  0  0  0  0  0
   -2.4701    5.1927    0.0553 N   0  3  0  0  0  0  0  0  0  0  0  0
   -1.7500    5.9247    0.0527 H   0  0  0  0  0  0  0  0  0  0  0  0
  1  2  1  0  0  0  0
  1 26  1  0  0  0  0
  1 27  1  0  0  0  0
  1 28  1  0  0  0  0
  2  3  1  0  0  0  0
  2 29  1  0  0  0  0
  2 30  1  0  0  0  0
  3  4  1  0  0  0  0
  4  5  2  0  0  0  0
  4  6  1  0  0  0  0
  6 14  1  0  0  0  0
  6  7  2  0  0  0  0
  7  8  1  0  0  0  0
  7 31  1  0  0  0  0
  8 13  2  0  0  0  0
  8  9  1  0  0  0  0
  9 10  2  0  0  0  0
  9 25  1  0  0  0  0
 10 11  1  0  0  0  0
 10 32  1  0  0  0  0
 11 12  2  0  0  0  0
 11 33  1  0  0  0  0
 12 13  1  0  0  0  0
 12 34  1  0  0  0  0
 13 14  1  0  0  0  0
 14 15  1  0  0  0  0
 15 16  1  0  0  0  0
 15 35  1  0  0  0  0
 15 36  1  0  0  0  0
 16 21  2  0  0  0  0
 16 17  1  0  0  0  0
 17 18  2  0  0  0  0
 17 37  1  0  0  0  0
 18 19  1  0  0  0  0
 18 38  1  0  0  0  0
 19 20  2  0  0  0  0
 19 39  1  0  0  0  0
 20 21  1  0  0  0  0
 20 22  1  0  0  0  0
 21 40  1  0  0  0  0
 22 24  1  0  0  0  0
 22 46  2  0  0  0  0
 23 46  1  0  0  0  0
 24 41  1  0  0  0  0
 24 42  1  0  0  0  0
 25 43  1  0  0  0  0
 25 44  1  0  0  0  0
 25 45  1  0  0  0  0
 46 47  1  0  0  0  0
M  CHG  1  46   1
M  END
$$$$
ZINC04631020
  -OEChem-08230709403D

 44 46  0     0  0  0  0  0  0999 V2000
   -9.1863    0.0094    1.1996 C   0  0  0  0  0  0  0  0  0  0  0  0
   -8.7742    1.4829    1.2023 C   0  0  0  0  0  0  0  0  0  0  0  0
   -7.3839    1.5974    0.7996 O   0  0  0  0  0  0  0  0  0  0  0  0
   -6.8613    2.8395    0.7499 C   0  0  0  0  0  0  0  0  0  0  0  0
   -7.5492    3.8004    1.0354 O   0  0  0  0  0  0  0  0  0  0  0  0
   -5.4606    3.0315    0.3509 C   0  0  0  0  0  0  0  0  0  0  0  0
   -4.8200    4.2282    0.2734 C   0  0  0  0  0  0  0  0  0  0  0  0
   -3.4918    3.9793   -0.1480 C   0  0  0  0  0  0  0  0  0  0  0  0
   -2.3940    4.8097   -0.4099 C   0  0  0  0  0  0  0  0  0  0  0  0
   -1.2106    4.2632   -0.8128 C   0  0  0  0  0  0  0  0  0  0  0  0
   -1.0822    2.8883   -0.9670 C   0  0  0  0  0  0  0  0  0  0  0  0
   -2.1461    2.0514   -0.7158 C   0  0  0  0  0  0  0  0  0  0  0  0
   -3.3658    2.5855   -0.3087 C   0  0  0  0  0  0  0  0  0  0  0  0
   -4.5807    2.0239    0.0045 N   0  0  0  0  0  0  0  0  0  0  0  0
   -4.8915    0.5925   -0.0237 C   0  0  0  0  0  0  0  0  0  0  0  0
   -4.5952   -0.0126    1.3243 C   0  0  0  0  0  0  0  0  0  0  0  0
   -3.3395   -0.5309    1.5858 C   0  0  0  0  0  0  0  0  0  0  0  0
   -3.0608   -1.0818    2.8199 C   0  0  0  0  0  0  0  0  0  0  0  0
   -4.0510   -1.1246    3.8009 C   0  0  0  0  0  0  0  0  0  0  0  0
   -5.3166   -0.6052    3.5295 C   0  0  0  0  0  0  0  0  0  0  0  0
   -5.5818   -0.0525    2.2933 C   0  0  0  0  0  0  0  0  0  0  0  0
   -3.7598   -1.7188    5.1257 C   0  0  0  0  0  0  0  0  0  0  0  0
   -4.5924   -2.1256    6.9383 H   0  0  0  0  0  0  0  0  0  0  0  0
   -2.5085   -2.2311    5.3909 N   0  0  0  0  0  0  0  0  0  0  0  0
   -9.0634   -0.4003    0.1971 H   0  0  0  0  0  0  0  0  0  0  0  0
   -8.5590   -0.5445    1.8980 H   0  0  0  0  0  0  0  0  0  0  0  0
  -10.2300   -0.0765    1.5018 H   0  0  0  0  0  0  0  0  0  0  0  0
   -8.8971    1.8927    2.2048 H   0  0  0  0  0  0  0  0  0  0  0  0
   -9.4016    2.0369    0.5039 H   0  0  0  0  0  0  0  0  0  0  0  0
   -5.2504    5.1960    0.4846 H   0  0  0  0  0  0  0  0  0  0  0  0
   -2.4844    5.8795   -0.2935 H   0  0  0  0  0  0  0  0  0  0  0  0
   -0.3658    4.9052   -1.0141 H   0  0  0  0  0  0  0  0  0  0  0  0
   -0.1385    2.4720   -1.2875 H   0  0  0  0  0  0  0  0  0  0  0  0
   -2.0362    0.9841   -0.8387 H   0  0  0  0  0  0  0  0  0  0  0  0
   -5.9466    0.4544   -0.2601 H   0  0  0  0  0  0  0  0  0  0  0  0
   -4.2819    0.1034   -0.7835 H   0  0  0  0  0  0  0  0  0  0  0  0
   -2.5746   -0.5005    0.8240 H   0  0  0  0  0  0  0  0  0  0  0  0
   -2.0789   -1.4822    3.0244 H   0  0  0  0  0  0  0  0  0  0  0  0
   -6.0873   -0.6353    4.2855 H   0  0  0  0  0  0  0  0  0  0  0  0
   -6.5614    0.3500    2.0819 H   0  0  0  0  0  0  0  0  0  0  0  0
   -1.8184   -2.2026    4.7099 H   0  0  0  0  0  0  0  0  0  0  0  0
   -2.3178   -2.6202    6.2588 H   0  0  0  0  0  0  0  0  0  0  0  0
   -4.7438   -1.7273    6.0115 N   0  3  0  0  0  0  0  0  0  0  0  0
   -5.6594   -1.3329    5.7656 H   0  0  0  0  0  0  0  0  0  0  0  0
  1  2  1  0  0  0  0
  1 25  1  0  0  0  0
  1 26  1  0  0  0  0
  1 27  1  0  0  0  0
  2  3  1  0  0  0  0
  2 28  1  0  0  0  0
  2 29  1  0  0  0  0
  3  4  1  0  0  0  0
  4  5  2  0  0  0  0
  4  6  1  0  0  0  0
  6 14  1  0  0  0  0
  6  7  2  0  0  0  0
  7  8  1  0  0  0  0
  7 30  1  0  0  0  0
  8 13  2  0  0  0  0
  8  9  1  0  0  0  0
  9 10  2  0  0  0  0
  9 31  1  0  0  0  0
 10 11  1  0  0  0  0
 10 32  1  0  0  0  0
 11 12  2  0  0  0  0
 11 33  1  0  0  0  0
 12 13  1  0  0  0  0
 12 34  1  0  0  0  0
 13 14  1  0  0  0  0
 14 15  1  0  0  0  0
 15 16  1  0  0  0  0
 15 35  1  0  0  0  0
 15 36  1  0  0  0  0
 16 21  2  0  0  0  0
 16 17  1  0  0  0  0
 17 18  2  0  0  0  0
 17 37  1  0  0  0  0
 18 19  1  0  0  0  0
 18 38  1  0  0  0  0
 19 20  2  0  0  0  0
 19 22  1  0  0  0  0
 20 21  1  0  0  0  0
 20 39  1  0  0  0  0
 21 40  1  0  0  0  0
 22 24  1  0  0  0  0
 22 43  2  0  0  0  0
 23 43  1  0  0  0  0
 24 41  1  0  0  0  0
 24 42  1  0  0  0  0
 43 44  1  0  0  0  0
M  CHG  1  43   1
M  END
$$$$
ZINC04631021
  -OEChem-08230709403D

 44 46  0     0  0  0  0  0  0999 V2000
    5.4957    2.3052    1.3441 C   0  0  0  0  0  0  0  0  0  0  0  0
    5.7514    2.7557   -0.0956 C   0  0  0  0  0  0  0  0  0  0  0  0
    4.7913    3.7824   -0.4593 O   0  0  0  0  0  0  0  0  0  0  0  0
    4.8804    4.2901   -1.7053 C   0  0  0  0  0  0  0  0  0  0  0  0
    5.7374    3.8854   -2.4668 O   0  0  0  0  0  0  0  0  0  0  0  0
    3.9420    5.3321   -2.1427 C   0  0  0  0  0  0  0  0  0  0  0  0
    3.9295    5.9171   -3.3698 C   0  0  0  0  0  0  0  0  0  0  0  0
    2.8807    6.8676   -3.3834 C   0  0  0  0  0  0  0  0  0  0  0  0
    2.4016    7.7579   -4.3536 C   0  0  0  0  0  0  0  0  0  0  0  0
    1.3447    8.5712   -4.0655 C   0  0  0  0  0  0  0  0  0  0  0  0
    0.7372    8.5264   -2.8166 C   0  0  0  0  0  0  0  0  0  0  0  0
    1.1897    7.6607   -1.8466 C   0  0  0  0  0  0  0  0  0  0  0  0
    2.2665    6.8204   -2.1166 C   0  0  0  0  0  0  0  0  0  0  0  0
    2.9289    5.8723   -1.3735 N   0  0  0  0  0  0  0  0  0  0  0  0
    2.6163    5.5001    0.0085 C   0  0  0  0  0  0  0  0  0  0  0  0
    1.6120    4.3766    0.0113 C   0  0  0  0  0  0  0  0  0  0  0  0
    2.0458    3.0628   -0.0003 C   0  0  0  0  0  0  0  0  0  0  0  0
    1.1300    2.0261    0.0026 C   0  0  0  0  0  0  0  0  0  0  0  0
   -0.2232    2.2971    0.0110 C   0  0  0  0  0  0  0  0  0  0  0  0
   -0.6665    3.6191    0.0286 C   0  0  0  0  0  0  0  0  0  0  0  0
    0.2619    4.6601    0.0260 C   0  0  0  0  0  0  0  0  0  0  0  0
   -2.1170    3.9166    0.0442 C   0  0  0  0  0  0  0  0  0  0  0  0
   -3.4575    5.4487    0.0663 H   0  0  0  0  0  0  0  0  0  0  0  0
   -3.0316    2.8862    0.0468 N   0  0  0  0  0  0  0  0  0  0  0  0
    5.6026    3.1571    2.0157 H   0  0  0  0  0  0  0  0  0  0  0  0
    4.4857    1.9033    1.4250 H   0  0  0  0  0  0  0  0  0  0  0  0
    6.2164    1.5344    1.6171 H   0  0  0  0  0  0  0  0  0  0  0  0
    5.6445    1.9038   -0.7672 H   0  0  0  0  0  0  0  0  0  0  0  0
    6.7614    3.1575   -0.1765 H   0  0  0  0  0  0  0  0  0  0  0  0
    4.6020    5.6989   -4.1863 H   0  0  0  0  0  0  0  0  0  0  0  0
    2.8673    7.7999   -5.3271 H   0  0  0  0  0  0  0  0  0  0  0  0
    0.9771    9.2564   -4.8150 H   0  0  0  0  0  0  0  0  0  0  0  0
   -0.0980    9.1775   -2.6047 H   0  0  0  0  0  0  0  0  0  0  0  0
    0.7111    7.6337   -0.8789 H   0  0  0  0  0  0  0  0  0  0  0  0
    2.1998    6.3611    0.5313 H   0  0  0  0  0  0  0  0  0  0  0  0
    3.5267    5.1750    0.5120 H   0  0  0  0  0  0  0  0  0  0  0  0
    3.1037    2.8458   -0.0114 H   0  0  0  0  0  0  0  0  0  0  0  0
    1.4747    1.0026   -0.0062 H   0  0  0  0  0  0  0  0  0  0  0  0
   -0.9373    1.4869    0.0089 H   0  0  0  0  0  0  0  0  0  0  0  0
   -0.0756    5.6860    0.0351 H   0  0  0  0  0  0  0  0  0  0  0  0
   -2.7254    1.9659    0.0382 H   0  0  0  0  0  0  0  0  0  0  0  0
   -3.9819    3.0811    0.0570 H   0  0  0  0  0  0  0  0  0  0  0  0
   -2.4701    5.1927    0.0553 N   0  3  0  0  0  0  0  0  0  0  0  0
   -1.7500    5.9247    0.0527 H   0  0  0  0  0  0  0  0  0  0  0  0
  1  2  1  0  0  0  0
  1 25  1  0  0  0  0
  1 26  1  0  0  0  0
  1 27  1  0  0  0  0
  2  3  1  0  0  0  0
  2 28  1  0  0  0  0
  2 29  1  0  0  0  0
  3  4  1  0  0  0  0
  4  5  2  0  0  0  0
  4  6  1  0  0  0  0
  6 14  1  0  0  0  0
  6  7  2  0  0  0  0
  7  8  1  0  0  0  0
  7 30  1  0  0  0  0
  8 13  2  0  0  0  0
  8  9  1  0  0  0  0
  9 10  2  0  0  0  0
  9 31  1  0  0  0  0
 10 11  1  0  0  0  0
 10 32  1  0  0  0  0
 11 12  2  0  0  0  0
 11 33  1  0  0  0  0
 12 13  1  0  0  0  0
 12 34  1  0  0  0  0
 13 14  1  0  0  0  0
 14 15  1  0  0  0  0
 15 16  1  0  0  0  0
 15 35  1  0  0  0  0
 15 36  1  0  0  0  0
 16 21  2  0  0  0  0
 16 17  1  0  0  0  0
 17 18  2  0  0  0  0
 17 37  1  0  0  0  0
 18 19  1  0  0  0  0
 18 38  1  0  0  0  0
 19 20  2  0  0  0  0
 19 39  1  0  0  0  0
 20 21  1  0  0  0  0
 20 22  1  0  0  0  0
 21 40  1  0  0  0  0
 22 24  1  0  0  0  0
 22 43  2  0  0  0  0
 23 43  1  0  0  0  0
 24 41  1  0  0  0  0
 24 42  1  0  0  0  0
 43 44  1  0  0  0  0
M  CHG  1  43   1
M  END
$$$$
ZINC04631023
  -OEChem-08230709403D

 66 69  0     1  0  0  0  0  0999 V2000
    5.6844   -3.0232   -1.0702 C   0  0  0  0  0  0  0  0  0  0  0  0
    5.9548   -1.0687   -2.6836 C   0  0  0  0  0  0  0  0  0  0  0  0
    6.6111    0.2656   -2.4290 C   0  0  0  0  0  0  0  0  0  0  0  0
    6.2198    1.0109   -1.3966 C   0  0  0  0  0  0  0  0  0  0  0  0
    5.1603    0.5279   -0.5018 C   0  0  0  0  0  0  0  0  0  0  0  0
    4.8109   -0.7680   -0.5312 C   0  0  0  0  0  0  0  0  0  0  0  0
    6.8688    2.3472   -1.1434 C   0  0  0  0  0  0  0  0  0  0  0  0
    6.0660    3.4050   -1.7619 N   0  0  0  0  0  0  0  0  0  0  0  0
    6.3316    3.8132   -3.1435 C   0  0  0  0  0  0  0  0  0  0  0  0
    7.3619    4.9130   -3.1532 C   0  0  0  0  0  0  0  0  0  0  0  0
    7.8882    5.2569   -2.1213 O   0  0  0  0  0  0  0  0  0  0  0  0
    7.6950    5.5106   -4.3080 O   0  0  0  0  0  0  0  0  0  0  0  0
    8.7742    6.4809   -4.2609 C   0  0  0  0  0  0  0  0  0  0  0  0
    5.0829    4.0027   -1.0599 C   0  0  0  0  0  0  0  0  0  0  0  0
    4.7804    3.5832    0.0412 O   0  0  0  0  0  0  0  0  0  0  0  0
    4.3761    5.1619   -1.6249 C   0  0  0  0  0  0  0  0  0  0  0  0
    4.7291    5.8244   -2.7573 C   0  0  0  0  0  0  0  0  0  0  0  0
    3.7992    6.8746   -2.9500 C   0  0  0  0  0  0  0  0  0  0  0  0
    3.6615    7.8711   -3.9252 C   0  0  0  0  0  0  0  0  0  0  0  0
    2.6352    8.7662   -3.8407 C   0  0  0  0  0  0  0  0  0  0  0  0
    1.7229    8.7000   -2.7949 C   0  0  0  0  0  0  0  0  0  0  0  0
    1.8371    7.7305   -1.8242 C   0  0  0  0  0  0  0  0  0  0  0  0
    2.8759    6.8056   -1.8885 C   0  0  0  0  0  0  0  0  0  0  0  0
    3.2452    5.7486   -1.0908 N   0  0  0  0  0  0  0  0  0  0  0  0
    2.5563    5.3190    0.1287 C   0  0  0  0  0  0  0  0  0  0  0  0
    1.4539    4.3560   -0.2298 C   0  0  0  0  0  0  0  0  0  0  0  0
    1.7297    3.0059   -0.3537 C   0  0  0  0  0  0  0  0  0  0  0  0
    0.7232    2.1159   -0.6820 C   0  0  0  0  0  0  0  0  0  0  0  0
   -0.5623    2.5712   -0.8941 C   0  0  0  0  0  0  0  0  0  0  0  0
   -0.8477    3.9299   -0.7651 C   0  0  0  0  0  0  0  0  0  0  0  0
    0.1716    4.8225   -0.4334 C   0  0  0  0  0  0  0  0  0  0  0  0
   -2.2262    4.4242   -0.9850 C   0  0  0  0  0  0  0  0  0  0  0  0
   -3.3602    6.1149   -0.9931 H   0  0  0  0  0  0  0  0  0  0  0  0
   -3.2309    3.5401   -1.3126 N   0  0  0  0  0  0  0  0  0  0  0  0
    6.6327   -3.1314   -0.5438 H   0  0  0  0  0  0  0  0  0  0  0  0
    4.8723   -3.3700   -0.4311 H   0  0  0  0  0  0  0  0  0  0  0  0
    5.7063   -3.6170   -1.9840 H   0  0  0  0  0  0  0  0  0  0  0  0
    5.1150   -0.9377   -3.3660 H   0  0  0  0  0  0  0  0  0  0  0  0
    6.6794   -1.7536   -3.1239 H   0  0  0  0  0  0  0  0  0  0  0  0
    7.3964    0.6159   -3.0825 H   0  0  0  0  0  0  0  0  0  0  0  0
    4.6629    1.2099    0.1719 H   0  0  0  0  0  0  0  0  0  0  0  0
    4.0342   -1.1448    0.1178 H   0  0  0  0  0  0  0  0  0  0  0  0
    7.8702    2.3521   -1.5740 H   0  0  0  0  0  0  0  0  0  0  0  0
    6.9342    2.5216   -0.0695 H   0  0  0  0  0  0  0  0  0  0  0  0
    6.7059    2.9598   -3.7090 H   0  0  0  0  0  0  0  0  0  0  0  0
    5.4099    4.1749   -3.5993 H   0  0  0  0  0  0  0  0  0  0  0  0
    8.8837    6.9503   -5.2385 H   0  0  0  0  0  0  0  0  0  0  0  0
    8.5454    7.2427   -3.5156 H   0  0  0  0  0  0  0  0  0  0  0  0
    9.7035    5.9781   -3.9931 H   0  0  0  0  0  0  0  0  0  0  0  0
    5.5705    5.5939   -3.3939 H   0  0  0  0  0  0  0  0  0  0  0  0
    4.3661    7.9306   -4.7416 H   0  0  0  0  0  0  0  0  0  0  0  0
    2.5314    9.5335   -4.5934 H   0  0  0  0  0  0  0  0  0  0  0  0
    0.9163    9.4163   -2.7429 H   0  0  0  0  0  0  0  0  0  0  0  0
    1.1234    7.6877   -1.0148 H   0  0  0  0  0  0  0  0  0  0  0  0
    2.1308    6.1877    0.6309 H   0  0  0  0  0  0  0  0  0  0  0  0
    3.2667    4.8270    0.7931 H   0  0  0  0  0  0  0  0  0  0  0  0
    2.7350    2.6454   -0.1930 H   0  0  0  0  0  0  0  0  0  0  0  0
    0.9444    1.0630   -0.7769 H   0  0  0  0  0  0  0  0  0  0  0  0
   -1.3465    1.8759   -1.1547 H   0  0  0  0  0  0  0  0  0  0  0  0
   -0.0426    5.8766   -0.3364 H   0  0  0  0  0  0  0  0  0  0  0  0
   -3.0353    2.5941   -1.3992 H   0  0  0  0  0  0  0  0  0  0  0  0
   -4.1340    3.8639   -1.4565 H   0  0  0  0  0  0  0  0  0  0  0  0
    5.1552   -1.6876   -1.5626 N   0  3  2  0  0  0  0  0  0  0  0  0
    4.2524   -1.9191   -1.9934 H   0  0  0  0  0  0  0  0  0  0  0  0
   -2.4278    5.7260   -0.8517 N   0  3  0  0  0  0  0  0  0  0  0  0
   -1.6456    6.3441   -0.6060 H   0  0  0  0  0  0  0  0  0  0  0  0
  1 35  1  0  0  0  0
  1 36  1  0  0  0  0
  1 37  1  0  0  0  0
  1 63  1  0  0  0  0
  2  3  1  0  0  0  0
  2 38  1  0  0  0  0
  2 39  1  0  0  0  0
  2 63  1  0  0  0  0
  3  4  2  0  0  0  0
  3 40  1  0  0  0  0
  4  5  1  0  0  0  0
  4  7  1  0  0  0  0
  5  6  2  0  0  0  0
  5 41  1  0  0  0  0
  6 42  1  0  0  0  0
  6 63  1  0  0  0  0
  7  8  1  0  0  0  0
  7 43  1  0  0  0  0
  7 44  1  0  0  0  0
  8  9  1  0  0  0  0
  8 14  1  0  0  0  0
  9 10  1  0  0  0  0
  9 45  1  0  0  0  0
  9 46  1  0  0  0  0
 10 11  2  0  0  0  0
 10 12  1  0  0  0  0
 12 13  1  0  0  0  0
 13 47  1  0  0  0  0
 13 48  1  0  0  0  0
 13 49  1  0  0  0  0
 14 15  2  0  0  0  0
 14 16  1  0  0  0  0
 16 24  1  0  0  0  0
 16 17  2  0  0  0  0
 17 18  1  0  0  0  0
 17 50  1  0  0  0  0
 18 23  2  0  0  0  0
 18 19  1  0  0  0  0
 19 20  2  0  0  0  0
 19 51  1  0  0  0  0
 20 21  1  0  0  0  0
 20 52  1  0  0  0  0
 21 22  2  0  0  0  0
 21 53  1  0  0  0  0
 22 23  1  0  0  0  0
 22 54  1  0  0  0  0
 23 24  1  0  0  0  0
 24 25  1  0  0  0  0
 25 26  1  0  0  0  0
 25 55  1  0  0  0  0
 25 56  1  0  0  0  0
 26 31  2  0  0  0  0
 26 27  1  0  0  0  0
 27 28  2  0  0  0  0
 27 57  1  0  0  0  0
 28 29  1  0  0  0  0
 28 58  1  0  0  0  0
 29 30  2  0  0  0  0
 29 59  1  0  0  0  0
 30 31  1  0  0  0  0
 30 32  1  0  0  0  0
 31 60  1  0  0  0  0
 32 34  1  0  0  0  0
 32 65  2  0  0  0  0
 33 65  1  0  0  0  0
 34 61  1  0  0  0  0
 34 62  1  0  0  0  0
 63 64  1  0  0  0  0
 65 66  1  0  0  0  0
M  CHG  2  63   1  65   1
M  END
$$$$
ZINC04631034
  -OEChem-08230709403D

 64 67  0     1  0  0  0  0  0999 V2000
    4.9576    6.7619   -4.7620 C   0  0  0  0  0  0  0  0  0  0  0  0
    7.1248    6.6213   -6.0960 C   0  0  0  0  0  0  0  0  0  0  0  0
    8.1753    5.5394   -6.0558 C   0  0  0  0  0  0  0  0  0  0  0  0
    8.7232    5.1900   -4.8931 C   0  0  0  0  0  0  0  0  0  0  0  0
    8.2995    5.8525   -3.6529 C   0  0  0  0  0  0  0  0  0  0  0  0
    7.1553    6.5573   -3.6398 C   0  0  0  0  0  0  0  0  0  0  0  0
    9.1363    5.7376   -2.4049 C   0  0  0  0  0  0  0  0  0  0  0  0
    8.7736    4.4489   -1.6644 C   0  0  1  0  0  0  0  0  0  0  0  0
    8.8807    3.5996   -2.3391 H   0  0  0  0  0  0  0  0  0  0  0  0
    9.6937    4.2717   -0.4841 C   0  0  0  0  0  0  0  0  0  0  0  0
    9.2368    4.2175    0.6382 O   0  0  0  0  0  0  0  0  0  0  0  0
   11.0242    4.1738   -0.6755 N   0  0  0  0  0  0  0  0  0  0  0  0
    7.3879    4.5285   -1.1957 N   0  0  0  0  0  0  0  0  0  0  0  0
    6.6834    3.3999   -0.9802 C   0  0  0  0  0  0  0  0  0  0  0  0
    7.2245    2.3155   -1.0865 O   0  0  0  0  0  0  0  0  0  0  0  0
    5.2606    3.4792   -0.6167 C   0  0  0  0  0  0  0  0  0  0  0  0
    4.5254    4.6202   -0.5572 C   0  0  0  0  0  0  0  0  0  0  0  0
    3.2102    4.2658   -0.1707 C   0  0  0  0  0  0  0  0  0  0  0  0
    2.0402    5.0043    0.0498 C   0  0  0  0  0  0  0  0  0  0  0  0
    0.8948    4.3649    0.4252 C   0  0  0  0  0  0  0  0  0  0  0  0
    0.8748    2.9849    0.5858 C   0  0  0  0  0  0  0  0  0  0  0  0
    2.0129    2.2379    0.3806 C   0  0  0  0  0  0  0  0  0  0  0  0
    3.1940    2.8673   -0.0029 C   0  0  0  0  0  0  0  0  0  0  0  0
    4.4589    2.4056   -0.2808 N   0  0  0  0  0  0  0  0  0  0  0  0
    4.8863    1.0053   -0.2284 C   0  0  0  0  0  0  0  0  0  0  0  0
    4.5420    0.3261   -1.5289 C   0  0  0  0  0  0  0  0  0  0  0  0
    3.3612   -0.3855   -1.6429 C   0  0  0  0  0  0  0  0  0  0  0  0
    3.0382   -1.0056   -2.8326 C   0  0  0  0  0  0  0  0  0  0  0  0
    3.9097   -0.9223   -3.9180 C   0  0  0  0  0  0  0  0  0  0  0  0
    5.1012   -0.2080   -3.7953 C   0  0  0  0  0  0  0  0  0  0  0  0
    5.4109    0.4118   -2.6020 C   0  0  0  0  0  0  0  0  0  0  0  0
    3.5713   -1.5894   -5.1960 C   0  0  0  0  0  0  0  0  0  0  0  0
    4.2537   -1.9123   -7.0867 H   0  0  0  0  0  0  0  0  0  0  0  0
    2.3934   -2.2944   -5.3144 N   0  0  0  0  0  0  0  0  0  0  0  0
    4.5145    5.7661   -4.7738 H   0  0  0  0  0  0  0  0  0  0  0  0
    4.6633    7.2797   -3.8491 H   0  0  0  0  0  0  0  0  0  0  0  0
    4.6088    7.3250   -5.6277 H   0  0  0  0  0  0  0  0  0  0  0  0
    7.6013    7.5861   -6.2701 H   0  0  0  0  0  0  0  0  0  0  0  0
    6.4165    6.4125   -6.8978 H   0  0  0  0  0  0  0  0  0  0  0  0
    8.4821    5.0488   -6.9677 H   0  0  0  0  0  0  0  0  0  0  0  0
    9.4792    4.4193   -4.8625 H   0  0  0  0  0  0  0  0  0  0  0  0
    6.8197    7.0464   -2.7373 H   0  0  0  0  0  0  0  0  0  0  0  0
    8.9446    6.5943   -1.7588 H   0  0  0  0  0  0  0  0  0  0  0  0
   10.1919    5.7160   -2.6761 H   0  0  0  0  0  0  0  0  0  0  0  0
   11.3895    4.2172   -1.5730 H   0  0  0  0  0  0  0  0  0  0  0  0
   11.6164    4.0598    0.0843 H   0  0  0  0  0  0  0  0  0  0  0  0
    6.9773    5.3936   -1.0404 H   0  0  0  0  0  0  0  0  0  0  0  0
    4.8804    5.6183   -0.7670 H   0  0  0  0  0  0  0  0  0  0  0  0
    2.0450    6.0768   -0.0765 H   0  0  0  0  0  0  0  0  0  0  0  0
   -0.0059    4.9363    0.5947 H   0  0  0  0  0  0  0  0  0  0  0  0
   -0.0414    2.4940    0.8789 H   0  0  0  0  0  0  0  0  0  0  0  0
    1.9883    1.1663    0.5124 H   0  0  0  0  0  0  0  0  0  0  0  0
    5.9636    0.9600   -0.0689 H   0  0  0  0  0  0  0  0  0  0  0  0
    4.3760    0.5001    0.5916 H   0  0  0  0  0  0  0  0  0  0  0  0
    2.6887   -0.4523   -0.8004 H   0  0  0  0  0  0  0  0  0  0  0  0
    2.1138   -1.5571   -2.9218 H   0  0  0  0  0  0  0  0  0  0  0  0
    5.7800   -0.1398   -4.6325 H   0  0  0  0  0  0  0  0  0  0  0  0
    6.3332    0.9653   -2.5056 H   0  0  0  0  0  0  0  0  0  0  0  0
    1.7859   -2.3538   -4.5605 H   0  0  0  0  0  0  0  0  0  0  0  0
    2.1716   -2.7314   -6.1515 H   0  0  0  0  0  0  0  0  0  0  0  0
    6.4560    7.0037   -4.7971 N   0  3  2  0  0  0  0  0  0  0  0  0
    6.5464    8.0257   -4.7570 H   0  0  0  0  0  0  0  0  0  0  0  0
    4.4418   -1.4707   -6.1865 N   0  3  0  0  0  0  0  0  0  0  0  0
    5.3064   -0.9342   -6.0487 H   0  0  0  0  0  0  0  0  0  0  0  0
  1 35  1  0  0  0  0
  1 36  1  0  0  0  0
  1 37  1  0  0  0  0
  1 61  1  0  0  0  0
  2  3  1  0  0  0  0
  2 38  1  0  0  0  0
  2 39  1  0  0  0  0
  2 61  1  0  0  0  0
  3  4  2  0  0  0  0
  3 40  1  0  0  0  0
  4  5  1  0  0  0  0
  4 41  1  0  0  0  0
  5  6  2  0  0  0  0
  5  7  1  0  0  0  0
  6 42  1  0  0  0  0
  6 61  1  0  0  0  0
  7  8  1  0  0  0  0
  7 43  1  0  0  0  0
  7 44  1  0  0  0  0
  8  9  1  0  0  0  0
  8 10  1  0  0  0  0
  8 13  1  0  0  0  0
 10 11  2  0  0  0  0
 10 12  1  0  0  0  0
 12 45  1  0  0  0  0
 12 46  1  0  0  0  0
 13 14  1  0  0  0  0
 13 47  1  0  0  0  0
 14 15  2  0  0  0  0
 14 16  1  0  0  0  0
 16 24  1  0  0  0  0
 16 17  2  0  0  0  0
 17 18  1  0  0  0  0
 17 48  1  0  0  0  0
 18 23  2  0  0  0  0
 18 19  1  0  0  0  0
 19 20  2  0  0  0  0
 19 49  1  0  0  0  0
 20 21  1  0  0  0  0
 20 50  1  0  0  0  0
 21 22  2  0  0  0  0
 21 51  1  0  0  0  0
 22 23  1  0  0  0  0
 22 52  1  0  0  0  0
 23 24  1  0  0  0  0
 24 25  1  0  0  0  0
 25 26  1  0  0  0  0
 25 53  1  0  0  0  0
 25 54  1  0  0  0  0
 26 31  2  0  0  0  0
 26 27  1  0  0  0  0
 27 28  2  0  0  0  0
 27 55  1  0  0  0  0
 28 29  1  0  0  0  0
 28 56  1  0  0  0  0
 29 30  2  0  0  0  0
 29 32  1  0  0  0  0
 30 31  1  0  0  0  0
 30 57  1  0  0  0  0
 31 58  1  0  0  0  0
 32 34  1  0  0  0  0
 32 63  2  0  0  0  0
 33 63  1  0  0  0  0
 34 59  1  0  0  0  0
 34 60  1  0  0  0  0
 61 62  1  0  0  0  0
 63 64  1  0  0  0  0
M  CHG  2  61   1  63   1
M  END
$$$$
ZINC04631035
  -OEChem-08230709403D

 47 49  0     0  0  0  0  0  0999 V2000
    1.1112    8.3309   -6.3896 C   0  0  0  0  0  0  0  0  0  0  0  0
    1.4752    7.3964   -5.3396 O   0  0  0  0  0  0  0  0  0  0  0  0
    2.4040    7.8045   -4.4522 C   0  0  0  0  0  0  0  0  0  0  0  0
    2.8959    8.9109   -4.5533 O   0  0  0  0  0  0  0  0  0  0  0  0
    2.8228    6.9090   -3.3596 C   0  0  0  0  0  0  0  0  0  0  0  0
    3.9213    5.9342   -3.3912 C   0  0  0  0  0  0  0  0  0  0  0  0
    4.8507    5.5577   -4.3626 C   0  0  0  0  0  0  0  0  0  0  0  0
    5.7744    4.5921   -4.0799 C   0  0  0  0  0  0  0  0  0  0  0  0
    5.7967    3.9816   -2.8324 C   0  0  0  0  0  0  0  0  0  0  0  0
    4.8903    4.3375   -1.8596 C   0  0  0  0  0  0  0  0  0  0  0  0
    3.9409    5.3233   -2.1237 C   0  0  0  0  0  0  0  0  0  0  0  0
    2.9289    5.8723   -1.3735 N   0  0  0  0  0  0  0  0  0  0  0  0
    2.2593    6.8183   -2.0969 C   0  0  0  0  0  0  0  0  0  0  0  0
    1.1179    7.6164   -1.6109 C   0  0  0  0  0  0  0  0  0  0  0  0
    0.5939    8.4341   -2.3406 O   0  0  0  0  0  0  0  0  0  0  0  0
    0.6562    7.4382   -0.3572 O   0  0  0  0  0  0  0  0  0  0  0  0
   -0.4697    8.2581    0.0534 C   0  0  0  0  0  0  0  0  0  0  0  0
    2.6163    5.5001    0.0085 C   0  0  0  0  0  0  0  0  0  0  0  0
    1.6120    4.3766    0.0113 C   0  0  0  0  0  0  0  0  0  0  0  0
    2.0458    3.0628   -0.0003 C   0  0  0  0  0  0  0  0  0  0  0  0
    1.1300    2.0261    0.0026 C   0  0  0  0  0  0  0  0  0  0  0  0
   -0.2232    2.2971    0.0110 C   0  0  0  0  0  0  0  0  0  0  0  0
   -0.6665    3.6191    0.0286 C   0  0  0  0  0  0  0  0  0  0  0  0
    0.2619    4.6601    0.0260 C   0  0  0  0  0  0  0  0  0  0  0  0
   -2.1170    3.9166    0.0442 C   0  0  0  0  0  0  0  0  0  0  0  0
   -3.4575    5.4487    0.0663 H   0  0  0  0  0  0  0  0  0  0  0  0
   -3.0316    2.8862    0.0468 N   0  0  0  0  0  0  0  0  0  0  0  0
    1.9938    8.5750   -6.9808 H   0  0  0  0  0  0  0  0  0  0  0  0
    0.3566    7.8785   -7.0331 H   0  0  0  0  0  0  0  0  0  0  0  0
    0.7098    9.2407   -5.9432 H   0  0  0  0  0  0  0  0  0  0  0  0
    4.8391    6.0281   -5.3347 H   0  0  0  0  0  0  0  0  0  0  0  0
    6.4932    4.3013   -4.8318 H   0  0  0  0  0  0  0  0  0  0  0  0
    6.5332    3.2200   -2.6233 H   0  0  0  0  0  0  0  0  0  0  0  0
    4.9168    3.8565   -0.8930 H   0  0  0  0  0  0  0  0  0  0  0  0
   -1.3188    8.0635   -0.6017 H   0  0  0  0  0  0  0  0  0  0  0  0
   -0.7404    8.0151    1.0809 H   0  0  0  0  0  0  0  0  0  0  0  0
   -0.1950    9.3109   -0.0107 H   0  0  0  0  0  0  0  0  0  0  0  0
    2.1998    6.3611    0.5313 H   0  0  0  0  0  0  0  0  0  0  0  0
    3.5267    5.1750    0.5120 H   0  0  0  0  0  0  0  0  0  0  0  0
    3.1037    2.8458   -0.0114 H   0  0  0  0  0  0  0  0  0  0  0  0
    1.4747    1.0026   -0.0062 H   0  0  0  0  0  0  0  0  0  0  0  0
   -0.9373    1.4869    0.0089 H   0  0  0  0  0  0  0  0  0  0  0  0
   -0.0756    5.6860    0.0351 H   0  0  0  0  0  0  0  0  0  0  0  0
   -2.7254    1.9659    0.0382 H   0  0  0  0  0  0  0  0  0  0  0  0
   -3.9819    3.0811    0.0570 H   0  0  0  0  0  0  0  0  0  0  0  0
   -2.4701    5.1927    0.0553 N   0  3  0  0  0  0  0  0  0  0  0  0
   -1.7500    5.9247    0.0527 H   0  0  0  0  0  0  0  0  0  0  0  0
  1  2  1  0  0  0  0
  1 28  1  0  0  0  0
  1 29  1  0  0  0  0
  1 30  1  0  0  0  0
  2  3  1  0  0  0  0
  3  4  2  0  0  0  0
  3  5  1  0  0  0  0
  5 13  2  0  0  0  0
  5  6  1  0  0  0  0
  6 11  2  0  0  0  0
  6  7  1  0  0  0  0
  7  8  2  0  0  0  0
  7 31  1  0  0  0  0
  8  9  1  0  0  0  0
  8 32  1  0  0  0  0
  9 10  2  0  0  0  0
  9 33  1  0  0  0  0
 10 11  1  0  0  0  0
 10 34  1  0  0  0  0
 11 12  1  0  0  0  0
 12 13  1  0  0  0  0
 12 18  1  0  0  0  0
 13 14  1  0  0  0  0
 14 15  2  0  0  0  0
 14 16  1  0  0  0  0
 16 17  1  0  0  0  0
 17 35  1  0  0  0  0
 17 36  1  0  0  0  0
 17 37  1  0  0  0  0
 18 19  1  0  0  0  0
 18 38  1  0  0  0  0
 18 39  1  0  0  0  0
 19 24  2  0  0  0  0
 19 20  1  0  0  0  0
 20 21  2  0  0  0  0
 20 40  1  0  0  0  0
 21 22  1  0  0  0  0
 21 41  1  0  0  0  0
 22 23  2  0  0  0  0
 22 42  1  0  0  0  0
 23 24  1  0  0  0  0
 23 25  1  0  0  0  0
 24 43  1  0  0  0  0
 25 27  1  0  0  0  0
 25 46  2  0  0  0  0
 26 46  1  0  0  0  0
 27 44  1  0  0  0  0
 27 45  1  0  0  0  0
 46 47  1  0  0  0  0
M  CHG  1  46   1
M  END
$$$$
ZINC04631039
  -OEChem-08230709403D

 41 43  0     0  0  0  0  0  0999 V2000
    5.7515    2.7557   -0.0960 C   0  0  0  0  0  0  0  0  0  0  0  0
    4.7913    3.7825   -0.4595 O   0  0  0  0  0  0  0  0  0  0  0  0
    4.8803    4.2903   -1.7055 C   0  0  0  0  0  0  0  0  0  0  0  0
    5.7372    3.8856   -2.4671 O   0  0  0  0  0  0  0  0  0  0  0  0
    3.9419    5.3323   -2.1428 C   0  0  0  0  0  0  0  0  0  0  0  0
    3.9292    5.9174   -3.3699 C   0  0  0  0  0  0  0  0  0  0  0  0
    2.8805    6.8678   -3.3837 C   0  0  0  0  0  0  0  0  0  0  0  0
    2.4018    7.7580   -4.3546 C   0  0  0  0  0  0  0  0  0  0  0  0
    1.3441    8.5729   -4.0663 C   0  0  0  0  0  0  0  0  0  0  0  0
    0.7360    8.5272   -2.8156 C   0  0  0  0  0  0  0  0  0  0  0  0
    1.1896    7.6612   -1.8465 C   0  0  0  0  0  0  0  0  0  0  0  0
    2.2662    6.8209   -2.1172 C   0  0  0  0  0  0  0  0  0  0  0  0
    2.9289    5.8723   -1.3735 N   0  0  0  0  0  0  0  0  0  0  0  0
    2.6163    5.5001    0.0085 C   0  0  0  0  0  0  0  0  0  0  0  0
    1.6120    4.3766    0.0113 C   0  0  0  0  0  0  0  0  0  0  0  0
    2.0458    3.0628   -0.0003 C   0  0  0  0  0  0  0  0  0  0  0  0
    1.1300    2.0261    0.0026 C   0  0  0  0  0  0  0  0  0  0  0  0
   -0.2232    2.2971    0.0110 C   0  0  0  0  0  0  0  0  0  0  0  0
   -0.6665    3.6191    0.0286 C   0  0  0  0  0  0  0  0  0  0  0  0
    0.2619    4.6601    0.0260 C   0  0  0  0  0  0  0  0  0  0  0  0
   -2.1170    3.9166    0.0442 C   0  0  0  0  0  0  0  0  0  0  0  0
   -3.4575    5.4487    0.0663 H   0  0  0  0  0  0  0  0  0  0  0  0
   -3.0316    2.8862    0.0468 N   0  0  0  0  0  0  0  0  0  0  0  0
    0.8841    9.4303   -5.0036 F   0  0  0  0  0  0  0  0  0  0  0  0
    5.6445    1.9040   -0.7676 H   0  0  0  0  0  0  0  0  0  0  0  0
    6.7614    3.1578   -0.1770 H   0  0  0  0  0  0  0  0  0  0  0  0
    5.5694    2.4348    0.9297 H   0  0  0  0  0  0  0  0  0  0  0  0
    4.6012    5.6987   -4.1866 H   0  0  0  0  0  0  0  0  0  0  0  0
    2.8681    7.7998   -5.3279 H   0  0  0  0  0  0  0  0  0  0  0  0
   -0.0996    9.1776   -2.6031 H   0  0  0  0  0  0  0  0  0  0  0  0
    0.7110    7.6331   -0.8788 H   0  0  0  0  0  0  0  0  0  0  0  0
    2.1998    6.3611    0.5313 H   0  0  0  0  0  0  0  0  0  0  0  0
    3.5267    5.1750    0.5120 H   0  0  0  0  0  0  0  0  0  0  0  0
    3.1037    2.8458   -0.0114 H   0  0  0  0  0  0  0  0  0  0  0  0
    1.4747    1.0026   -0.0062 H   0  0  0  0  0  0  0  0  0  0  0  0
   -0.9373    1.4869    0.0089 H   0  0  0  0  0  0  0  0  0  0  0  0
   -0.0756    5.6860    0.0351 H   0  0  0  0  0  0  0  0  0  0  0  0
   -2.7254    1.9659    0.0382 H   0  0  0  0  0  0  0  0  0  0  0  0
   -3.9819    3.0811    0.0570 H   0  0  0  0  0  0  0  0  0  0  0  0
   -2.4701    5.1927    0.0553 N   0  3  0  0  0  0  0  0  0  0  0  0
   -1.7500    5.9247    0.0527 H   0  0  0  0  0  0  0  0  0  0  0  0
  1  2  1  0  0  0  0
  1 25  1  0  0  0  0
  1 26  1  0  0  0  0
  1 27  1  0  0  0  0
  2  3  1  0  0  0  0
  3  4  2  0  0  0  0
  3  5  1  0  0  0  0
  5 13  1  0  0  0  0
  5  6  2  0  0  0  0
  6  7  1  0  0  0  0
  6 28  1  0  0  0  0
  7 12  2  0  0  0  0
  7  8  1  0  0  0  0
  8  9  2  0  0  0  0
  8 29  1  0  0  0  0
  9 10  1  0  0  0  0
  9 24  1  0  0  0  0
 10 11  2  0  0  0  0
 10 30  1  0  0  0  0
 11 12  1  0  0  0  0
 11 31  1  0  0  0  0
 12 13  1  0  0  0  0
 13 14  1  0  0  0  0
 14 15  1  0  0  0  0
 14 32  1  0  0  0  0
 14 33  1  0  0  0  0
 15 20  2  0  0  0  0
 15 16  1  0  0  0  0
 16 17  2  0  0  0  0
 16 34  1  0  0  0  0
 17 18  1  0  0  0  0
 17 35  1  0  0  0  0
 18 19  2  0  0  0  0
 18 36  1  0  0  0  0
 19 20  1  0  0  0  0
 19 21  1  0  0  0  0
 20 37  1  0  0  0  0
 21 23  1  0  0  0  0
 21 40  2  0  0  0  0
 22 40  1  0  0  0  0
 23 38  1  0  0  0  0
 23 39  1  0  0  0  0
 40 41  1  0  0  0  0
M  CHG  1  40   1
M  END
$$$$
ZINC04631040
  -OEChem-08230709403D

 59 62  0     0  0  0  0  0  0999 V2000
   13.4647    3.4518   -4.3971 C   0  0  0  0  0  0  0  0  0  0  0  0
   12.2253    2.6957   -4.3698 O   0  0  0  0  0  0  0  0  0  0  0  0
   11.2887    3.0884   -3.4848 C   0  0  0  0  0  0  0  0  0  0  0  0
   11.5015    4.0365   -2.7559 O   0  0  0  0  0  0  0  0  0  0  0  0
   10.0028    2.3661   -3.4007 C   0  0  0  0  0  0  0  0  0  0  0  0
    9.7552    1.2755   -4.2369 C   0  0  0  0  0  0  0  0  0  0  0  0
    8.5527    0.6052   -4.1529 C   0  0  0  0  0  0  0  0  0  0  0  0
    7.5947    1.0081   -3.2390 C   0  0  0  0  0  0  0  0  0  0  0  0
    7.8315    2.0910   -2.4113 C   0  0  0  0  0  0  0  0  0  0  0  0
    9.0300    2.7705   -2.4848 C   0  0  0  0  0  0  0  0  0  0  0  0
    6.7803    2.5258   -1.4228 C   0  0  0  0  0  0  0  0  0  0  0  0
    5.9004    3.5155   -2.0492 N   0  0  0  0  0  0  0  0  0  0  0  0
    4.8800    4.0491   -1.3489 C   0  0  0  0  0  0  0  0  0  0  0  0
    4.6350    3.6454   -0.2275 O   0  0  0  0  0  0  0  0  0  0  0  0
    4.0634    5.1181   -1.9394 C   0  0  0  0  0  0  0  0  0  0  0  0
    4.3001    5.7228   -3.1337 C   0  0  0  0  0  0  0  0  0  0  0  0
    3.2928    6.6956   -3.3315 C   0  0  0  0  0  0  0  0  0  0  0  0
    2.4425    6.6431   -2.2100 C   0  0  0  0  0  0  0  0  0  0  0  0
    2.9294    5.6685   -1.3706 N   0  0  0  0  0  0  0  0  0  0  0  0
    2.3465    5.2816   -0.0835 C   0  0  0  0  0  0  0  0  0  0  0  0
    1.2895    4.2309   -0.3063 C   0  0  0  0  0  0  0  0  0  0  0  0
    1.6353    2.8912   -0.2993 C   0  0  0  0  0  0  0  0  0  0  0  0
    0.6707    1.9210   -0.5025 C   0  0  0  0  0  0  0  0  0  0  0  0
   -0.6428    2.2848   -0.7199 C   0  0  0  0  0  0  0  0  0  0  0  0
   -0.9985    3.6331   -0.7225 C   0  0  0  0  0  0  0  0  0  0  0  0
   -0.0213    4.6067   -0.5165 C   0  0  0  0  0  0  0  0  0  0  0  0
   -2.4072    4.0298   -0.9486 C   0  0  0  0  0  0  0  0  0  0  0  0
   -3.6318    5.6495   -1.0950 H   0  0  0  0  0  0  0  0  0  0  0  0
   -3.3703    3.0656   -1.1519 N   0  0  0  0  0  0  0  0  0  0  0  0
    1.3505    7.5027   -2.1354 C   0  0  0  0  0  0  0  0  0  0  0  0
    1.1054    8.3975   -3.1538 C   0  0  0  0  0  0  0  0  0  0  0  0
    1.9381    8.4558   -4.2620 C   0  0  0  0  0  0  0  0  0  0  0  0
    3.0286    7.6146   -4.3616 C   0  0  0  0  0  0  0  0  0  0  0  0
    3.8407    7.6749   -5.4481 O   0  0  0  0  0  0  0  0  0  0  0  0
   14.1298    3.0320   -5.1518 H   0  0  0  0  0  0  0  0  0  0  0  0
   13.2501    4.4925   -4.6402 H   0  0  0  0  0  0  0  0  0  0  0  0
   13.9444    3.3984   -3.4198 H   0  0  0  0  0  0  0  0  0  0  0  0
   10.5036    0.9572   -4.9475 H   0  0  0  0  0  0  0  0  0  0  0  0
    8.3598   -0.2385   -4.7990 H   0  0  0  0  0  0  0  0  0  0  0  0
    6.6564    0.4772   -3.1744 H   0  0  0  0  0  0  0  0  0  0  0  0
    9.2151    3.6134   -1.8355 H   0  0  0  0  0  0  0  0  0  0  0  0
    7.2622    2.9682   -0.5510 H   0  0  0  0  0  0  0  0  0  0  0  0
    6.1928    1.6613   -1.1136 H   0  0  0  0  0  0  0  0  0  0  0  0
    6.0522    3.7868   -2.9680 H   0  0  0  0  0  0  0  0  0  0  0  0
    5.1140    5.5027   -3.8085 H   0  0  0  0  0  0  0  0  0  0  0  0
    1.8968    6.1549    0.3889 H   0  0  0  0  0  0  0  0  0  0  0  0
    3.1271    4.8804    0.5629 H   0  0  0  0  0  0  0  0  0  0  0  0
    2.6626    2.6019   -0.1340 H   0  0  0  0  0  0  0  0  0  0  0  0
    0.9466    0.8769   -0.4956 H   0  0  0  0  0  0  0  0  0  0  0  0
   -1.3944    1.5264   -0.8829 H   0  0  0  0  0  0  0  0  0  0  0  0
   -0.2902    5.6527   -0.5217 H   0  0  0  0  0  0  0  0  0  0  0  0
   -3.1256    2.1269   -1.1468 H   0  0  0  0  0  0  0  0  0  0  0  0
   -4.2931    3.3255   -1.3000 H   0  0  0  0  0  0  0  0  0  0  0  0
    0.6943    7.4678   -1.2784 H   0  0  0  0  0  0  0  0  0  0  0  0
    0.2558    9.0612   -3.0886 H   0  0  0  0  0  0  0  0  0  0  0  0
    1.7322    9.1634   -5.0514 H   0  0  0  0  0  0  0  0  0  0  0  0
    3.5741    7.0905   -6.1710 H   0  0  0  0  0  0  0  0  0  0  0  0
   -2.6761    5.3262   -0.9437 N   0  3  0  0  0  0  0  0  0  0  0  0
   -1.9228    6.0062   -0.7877 H   0  0  0  0  0  0  0  0  0  0  0  0
  1  2  1  0  0  0  0
  1 35  1  0  0  0  0
  1 36  1  0  0  0  0
  1 37  1  0  0  0  0
  2  3  1  0  0  0  0
  3  4  2  0  0  0  0
  3  5  1  0  0  0  0
  5 10  2  0  0  0  0
  5  6  1  0  0  0  0
  6  7  2  0  0  0  0
  6 38  1  0  0  0  0
  7  8  1  0  0  0  0
  7 39  1  0  0  0  0
  8  9  2  0  0  0  0
  8 40  1  0  0  0  0
  9 10  1  0  0  0  0
  9 11  1  0  0  0  0
 10 41  1  0  0  0  0
 11 12  1  0  0  0  0
 11 42  1  0  0  0  0
 11 43  1  0  0  0  0
 12 13  1  0  0  0  0
 12 44  1  0  0  0  0
 13 14  2  0  0  0  0
 13 15  1  0  0  0  0
 15 19  1  0  0  0  0
 15 16  2  0  0  0  0
 16 17  1  0  0  0  0
 16 45  1  0  0  0  0
 17 33  2  0  0  0  0
 17 18  1  0  0  0  0
 18 19  1  0  0  0  0
 18 30  2  0  0  0  0
 19 20  1  0  0  0  0
 20 21  1  0  0  0  0
 20 46  1  0  0  0  0
 20 47  1  0  0  0  0
 21 26  2  0  0  0  0
 21 22  1  0  0  0  0
 22 23  2  0  0  0  0
 22 48  1  0  0  0  0
 23 24  1  0  0  0  0
 23 49  1  0  0  0  0
 24 25  2  0  0  0  0
 24 50  1  0  0  0  0
 25 26  1  0  0  0  0
 25 27  1  0  0  0  0
 26 51  1  0  0  0  0
 27 29  1  0  0  0  0
 27 58  2  0  0  0  0
 28 58  1  0  0  0  0
 29 52  1  0  0  0  0
 29 53  1  0  0  0  0
 30 31  1  0  0  0  0
 30 54  1  0  0  0  0
 31 32  2  0  0  0  0
 31 55  1  0  0  0  0
 32 33  1  0  0  0  0
 32 56  1  0  0  0  0
 33 34  1  0  0  0  0
 34 57  1  0  0  0  0
 58 59  1  0  0  0  0
M  CHG  1  58   1
M  END
$$$$
ZINC04631043
  -OEChem-08230709403D

 61 64  0     0  0  0  0  0  0999 V2000
   12.1332    2.5783   -4.4273 C   0  0  0  0  0  0  0  0  0  0  0  0
   11.1815    3.0431   -3.4678 O   0  0  0  0  0  0  0  0  0  0  0  0
   10.0013    2.3732   -3.3950 C   0  0  0  0  0  0  0  0  0  0  0  0
    9.0320    2.7712   -2.4852 C   0  0  0  0  0  0  0  0  0  0  0  0
    7.8315    2.0910   -2.4113 C   0  0  0  0  0  0  0  0  0  0  0  0
    7.5954    1.0095   -3.2382 C   0  0  0  0  0  0  0  0  0  0  0  0
    8.5596    0.6109   -4.1533 C   0  0  0  0  0  0  0  0  0  0  0  0
    9.7647    1.2919   -4.2296 C   0  0  0  0  0  0  0  0  0  0  0  0
    8.3245   -0.4492   -4.9704 O   0  0  0  0  0  0  0  0  0  0  0  0
    9.3633   -0.8069   -5.8841 C   0  0  0  0  0  0  0  0  0  0  0  0
    6.7803    2.5258   -1.4228 C   0  0  0  0  0  0  0  0  0  0  0  0
    5.9004    3.5155   -2.0492 N   0  0  0  0  0  0  0  0  0  0  0  0
    4.8800    4.0491   -1.3489 C   0  0  0  0  0  0  0  0  0  0  0  0
    4.6350    3.6454   -0.2275 O   0  0  0  0  0  0  0  0  0  0  0  0
    4.0634    5.1181   -1.9394 C   0  0  0  0  0  0  0  0  0  0  0  0
    4.3001    5.7228   -3.1337 C   0  0  0  0  0  0  0  0  0  0  0  0
    3.2928    6.6956   -3.3315 C   0  0  0  0  0  0  0  0  0  0  0  0
    2.4425    6.6431   -2.2100 C   0  0  0  0  0  0  0  0  0  0  0  0
    2.9294    5.6685   -1.3706 N   0  0  0  0  0  0  0  0  0  0  0  0
    2.3465    5.2816   -0.0835 C   0  0  0  0  0  0  0  0  0  0  0  0
    1.2895    4.2309   -0.3063 C   0  0  0  0  0  0  0  0  0  0  0  0
    1.6353    2.8912   -0.2993 C   0  0  0  0  0  0  0  0  0  0  0  0
    0.6707    1.9210   -0.5025 C   0  0  0  0  0  0  0  0  0  0  0  0
   -0.6428    2.2848   -0.7199 C   0  0  0  0  0  0  0  0  0  0  0  0
   -0.9985    3.6331   -0.7225 C   0  0  0  0  0  0  0  0  0  0  0  0
   -0.0213    4.6067   -0.5165 C   0  0  0  0  0  0  0  0  0  0  0  0
   -2.4072    4.0298   -0.9486 C   0  0  0  0  0  0  0  0  0  0  0  0
   -3.6318    5.6495   -1.0950 H   0  0  0  0  0  0  0  0  0  0  0  0
   -3.3703    3.0656   -1.1519 N   0  0  0  0  0  0  0  0  0  0  0  0
    1.3505    7.5027   -2.1354 C   0  0  0  0  0  0  0  0  0  0  0  0
    1.1054    8.3975   -3.1538 C   0  0  0  0  0  0  0  0  0  0  0  0
    1.9381    8.4558   -4.2620 C   0  0  0  0  0  0  0  0  0  0  0  0
    3.0286    7.6146   -4.3616 C   0  0  0  0  0  0  0  0  0  0  0  0
    3.8406    7.6748   -5.4481 O   0  0  0  0  0  0  0  0  0  0  0  0
   13.0280    3.1989   -4.3816 H   0  0  0  0  0  0  0  0  0  0  0  0
   12.3966    1.5440   -4.2060 H   0  0  0  0  0  0  0  0  0  0  0  0
   11.7006    2.6373   -5.4261 H   0  0  0  0  0  0  0  0  0  0  0  0
    9.2159    3.6135   -1.8347 H   0  0  0  0  0  0  0  0  0  0  0  0
    6.6580    0.4768   -3.1755 H   0  0  0  0  0  0  0  0  0  0  0  0
   10.5177    0.9808   -4.9386 H   0  0  0  0  0  0  0  0  0  0  0  0
   10.2655   -1.0606   -5.3275 H   0  0  0  0  0  0  0  0  0  0  0  0
    9.0472   -1.6665   -6.4753 H   0  0  0  0  0  0  0  0  0  0  0  0
    9.5696    0.0336   -6.5467 H   0  0  0  0  0  0  0  0  0  0  0  0
    7.2622    2.9682   -0.5510 H   0  0  0  0  0  0  0  0  0  0  0  0
    6.1928    1.6613   -1.1136 H   0  0  0  0  0  0  0  0  0  0  0  0
    6.0522    3.7868   -2.9680 H   0  0  0  0  0  0  0  0  0  0  0  0
    5.1140    5.5027   -3.8085 H   0  0  0  0  0  0  0  0  0  0  0  0
    1.8968    6.1549    0.3889 H   0  0  0  0  0  0  0  0  0  0  0  0
    3.1271    4.8804    0.5629 H   0  0  0  0  0  0  0  0  0  0  0  0
    2.6626    2.6019   -0.1340 H   0  0  0  0  0  0  0  0  0  0  0  0
    0.9466    0.8769   -0.4956 H   0  0  0  0  0  0  0  0  0  0  0  0
   -1.3944    1.5264   -0.8829 H   0  0  0  0  0  0  0  0  0  0  0  0
   -0.2902    5.6527   -0.5217 H   0  0  0  0  0  0  0  0  0  0  0  0
   -3.1256    2.1269   -1.1468 H   0  0  0  0  0  0  0  0  0  0  0  0
   -4.2931    3.3255   -1.3000 H   0  0  0  0  0  0  0  0  0  0  0  0
    0.6943    7.4678   -1.2784 H   0  0  0  0  0  0  0  0  0  0  0  0
    0.2558    9.0612   -3.0886 H   0  0  0  0  0  0  0  0  0  0  0  0
    1.7322    9.1634   -5.0514 H   0  0  0  0  0  0  0  0  0  0  0  0
    3.5741    7.0905   -6.1710 H   0  0  0  0  0  0  0  0  0  0  0  0
   -2.6761    5.3262   -0.9437 N   0  3  0  0  0  0  0  0  0  0  0  0
   -1.9228    6.0062   -0.7877 H   0  0  0  0  0  0  0  0  0  0  0  0
  1  2  1  0  0  0  0
  1 35  1  0  0  0  0
  1 36  1  0  0  0  0
  1 37  1  0  0  0  0
  2  3  1  0  0  0  0
  3  8  2  0  0  0  0
  3  4  1  0  0  0  0
  4  5  2  0  0  0  0
  4 38  1  0  0  0  0
  5  6  1  0  0  0  0
  5 11  1  0  0  0  0
  6  7  2  0  0  0  0
  6 39  1  0  0  0  0
  7  8  1  0  0  0  0
  7  9  1  0  0  0  0
  8 40  1  0  0  0  0
  9 10  1  0  0  0  0
 10 41  1  0  0  0  0
 10 42  1  0  0  0  0
 10 43  1  0  0  0  0
 11 12  1  0  0  0  0
 11 44  1  0  0  0  0
 11 45  1  0  0  0  0
 12 13  1  0  0  0  0
 12 46  1  0  0  0  0
 13 14  2  0  0  0  0
 13 15  1  0  0  0  0
 15 19  1  0  0  0  0
 15 16  2  0  0  0  0
 16 17  1  0  0  0  0
 16 47  1  0  0  0  0
 17 33  2  0  0  0  0
 17 18  1  0  0  0  0
 18 19  1  0  0  0  0
 18 30  2  0  0  0  0
 19 20  1  0  0  0  0
 20 21  1  0  0  0  0
 20 48  1  0  0  0  0
 20 49  1  0  0  0  0
 21 26  2  0  0  0  0
 21 22  1  0  0  0  0
 22 23  2  0  0  0  0
 22 50  1  0  0  0  0
 23 24  1  0  0  0  0
 23 51  1  0  0  0  0
 24 25  2  0  0  0  0
 24 52  1  0  0  0  0
 25 26  1  0  0  0  0
 25 27  1  0  0  0  0
 26 53  1  0  0  0  0
 27 29  1  0  0  0  0
 27 60  2  0  0  0  0
 28 60  1  0  0  0  0
 29 54  1  0  0  0  0
 29 55  1  0  0  0  0
 30 31  1  0  0  0  0
 30 56  1  0  0  0  0
 31 32  2  0  0  0  0
 31 57  1  0  0  0  0
 32 33  1  0  0  0  0
 32 58  1  0  0  0  0
 33 34  1  0  0  0  0
 34 59  1  0  0  0  0
 60 61  1  0  0  0  0
M  CHG  1  60   1
M  END
$$$$
ZINC04631044
  -OEChem-08230709403D

 57 60  0     0  0  0  0  0  0999 V2000
   10.3964   -0.2206   -5.9456 C   0  0  0  0  0  0  0  0  0  0  0  0
   10.7089    0.9014   -5.1176 O   0  0  0  0  0  0  0  0  0  0  0  0
    9.7612    1.2931   -4.2259 C   0  0  0  0  0  0  0  0  0  0  0  0
    9.9979    2.3752   -3.3906 C   0  0  0  0  0  0  0  0  0  0  0  0
    9.0327    2.7716   -2.4852 C   0  0  0  0  0  0  0  0  0  0  0  0
    7.8315    2.0910   -2.4113 C   0  0  0  0  0  0  0  0  0  0  0  0
    7.5952    1.0088   -3.2387 C   0  0  0  0  0  0  0  0  0  0  0  0
    8.5550    0.6119   -4.1496 C   0  0  0  0  0  0  0  0  0  0  0  0
    6.7803    2.5258   -1.4228 C   0  0  0  0  0  0  0  0  0  0  0  0
    5.9004    3.5155   -2.0492 N   0  0  0  0  0  0  0  0  0  0  0  0
    4.8800    4.0491   -1.3489 C   0  0  0  0  0  0  0  0  0  0  0  0
    4.6350    3.6454   -0.2275 O   0  0  0  0  0  0  0  0  0  0  0  0
    4.0634    5.1181   -1.9394 C   0  0  0  0  0  0  0  0  0  0  0  0
    4.3001    5.7228   -3.1337 C   0  0  0  0  0  0  0  0  0  0  0  0
    3.2928    6.6956   -3.3315 C   0  0  0  0  0  0  0  0  0  0  0  0
    2.4425    6.6431   -2.2100 C   0  0  0  0  0  0  0  0  0  0  0  0
    2.9294    5.6685   -1.3706 N   0  0  0  0  0  0  0  0  0  0  0  0
    2.3465    5.2816   -0.0835 C   0  0  0  0  0  0  0  0  0  0  0  0
    1.2895    4.2309   -0.3063 C   0  0  0  0  0  0  0  0  0  0  0  0
    1.6353    2.8912   -0.2993 C   0  0  0  0  0  0  0  0  0  0  0  0
    0.6707    1.9210   -0.5025 C   0  0  0  0  0  0  0  0  0  0  0  0
   -0.6428    2.2848   -0.7199 C   0  0  0  0  0  0  0  0  0  0  0  0
   -0.9985    3.6331   -0.7225 C   0  0  0  0  0  0  0  0  0  0  0  0
   -0.0213    4.6067   -0.5165 C   0  0  0  0  0  0  0  0  0  0  0  0
   -2.4072    4.0298   -0.9486 C   0  0  0  0  0  0  0  0  0  0  0  0
   -3.6318    5.6495   -1.0950 H   0  0  0  0  0  0  0  0  0  0  0  0
   -3.3703    3.0656   -1.1519 N   0  0  0  0  0  0  0  0  0  0  0  0
    1.3505    7.5027   -2.1354 C   0  0  0  0  0  0  0  0  0  0  0  0
    1.1054    8.3975   -3.1538 C   0  0  0  0  0  0  0  0  0  0  0  0
    1.9381    8.4558   -4.2620 C   0  0  0  0  0  0  0  0  0  0  0  0
    3.0286    7.6146   -4.3616 C   0  0  0  0  0  0  0  0  0  0  0  0
    3.8407    7.6749   -5.4481 O   0  0  0  0  0  0  0  0  0  0  0  0
   10.2053   -1.0921   -5.3195 H   0  0  0  0  0  0  0  0  0  0  0  0
    9.5097    0.0018   -6.5392 H   0  0  0  0  0  0  0  0  0  0  0  0
   11.2358   -0.4271   -6.6095 H   0  0  0  0  0  0  0  0  0  0  0  0
   10.9362    2.9069   -3.4478 H   0  0  0  0  0  0  0  0  0  0  0  0
    9.2165    3.6141   -1.8350 H   0  0  0  0  0  0  0  0  0  0  0  0
    6.6580    0.4759   -3.1757 H   0  0  0  0  0  0  0  0  0  0  0  0
    8.3682   -0.2307   -4.7989 H   0  0  0  0  0  0  0  0  0  0  0  0
    7.2622    2.9682   -0.5510 H   0  0  0  0  0  0  0  0  0  0  0  0
    6.1928    1.6613   -1.1136 H   0  0  0  0  0  0  0  0  0  0  0  0
    6.0522    3.7868   -2.9680 H   0  0  0  0  0  0  0  0  0  0  0  0
    5.1140    5.5027   -3.8085 H   0  0  0  0  0  0  0  0  0  0  0  0
    1.8968    6.1549    0.3889 H   0  0  0  0  0  0  0  0  0  0  0  0
    3.1271    4.8804    0.5629 H   0  0  0  0  0  0  0  0  0  0  0  0
    2.6626    2.6019   -0.1340 H   0  0  0  0  0  0  0  0  0  0  0  0
    0.9466    0.8769   -0.4956 H   0  0  0  0  0  0  0  0  0  0  0  0
   -1.3944    1.5264   -0.8829 H   0  0  0  0  0  0  0  0  0  0  0  0
   -0.2902    5.6527   -0.5217 H   0  0  0  0  0  0  0  0  0  0  0  0
   -3.1256    2.1269   -1.1468 H   0  0  0  0  0  0  0  0  0  0  0  0
   -4.2931    3.3255   -1.3000 H   0  0  0  0  0  0  0  0  0  0  0  0
    0.6943    7.4678   -1.2784 H   0  0  0  0  0  0  0  0  0  0  0  0
    0.2558    9.0612   -3.0886 H   0  0  0  0  0  0  0  0  0  0  0  0
    1.7322    9.1634   -5.0514 H   0  0  0  0  0  0  0  0  0  0  0  0
    3.5741    7.0905   -6.1710 H   0  0  0  0  0  0  0  0  0  0  0  0
   -2.6761    5.3262   -0.9437 N   0  3  0  0  0  0  0  0  0  0  0  0
   -1.9228    6.0062   -0.7877 H   0  0  0  0  0  0  0  0  0  0  0  0
  1  2  1  0  0  0  0
  1 33  1  0  0  0  0
  1 34  1  0  0  0  0
  1 35  1  0  0  0  0
  2  3  1  0  0  0  0
  3  8  2  0  0  0  0
  3  4  1  0  0  0  0
  4  5  2  0  0  0  0
  4 36  1  0  0  0  0
  5  6  1  0  0  0  0
  5 37  1  0  0  0  0
  6  7  2  0  0  0  0
  6  9  1  0  0  0  0
  7  8  1  0  0  0  0
  7 38  1  0  0  0  0
  8 39  1  0  0  0  0
  9 10  1  0  0  0  0
  9 40  1  0  0  0  0
  9 41  1  0  0  0  0
 10 11  1  0  0  0  0
 10 42  1  0  0  0  0
 11 12  2  0  0  0  0
 11 13  1  0  0  0  0
 13 17  1  0  0  0  0
 13 14  2  0  0  0  0
 14 15  1  0  0  0  0
 14 43  1  0  0  0  0
 15 31  2  0  0  0  0
 15 16  1  0  0  0  0
 16 17  1  0  0  0  0
 16 28  2  0  0  0  0
 17 18  1  0  0  0  0
 18 19  1  0  0  0  0
 18 44  1  0  0  0  0
 18 45  1  0  0  0  0
 19 24  2  0  0  0  0
 19 20  1  0  0  0  0
 20 21  2  0  0  0  0
 20 46  1  0  0  0  0
 21 22  1  0  0  0  0
 21 47  1  0  0  0  0
 22 23  2  0  0  0  0
 22 48  1  0  0  0  0
 23 24  1  0  0  0  0
 23 25  1  0  0  0  0
 24 49  1  0  0  0  0
 25 27  1  0  0  0  0
 25 56  2  0  0  0  0
 26 56  1  0  0  0  0
 27 50  1  0  0  0  0
 27 51  1  0  0  0  0
 28 29  1  0  0  0  0
 28 52  1  0  0  0  0
 29 30  2  0  0  0  0
 29 53  1  0  0  0  0
 30 31  1  0  0  0  0
 30 54  1  0  0  0  0
 31 32  1  0  0  0  0
 32 55  1  0  0  0  0
 56 57  1  0  0  0  0
M  CHG  1  56   1
M  END
$$$$
ZINC04631046
  -OEChem-08230709403D

 61 64  0     0  0  0  0  0  0999 V2000
   10.3902   -0.2291   -5.9497 C   0  0  0  0  0  0  0  0  0  0  0  0
   10.7060    0.8932   -5.1232 O   0  0  0  0  0  0  0  0  0  0  0  0
    9.7597    1.2877   -4.2298 C   0  0  0  0  0  0  0  0  0  0  0  0
    8.5537    0.6098   -4.1508 C   0  0  0  0  0  0  0  0  0  0  0  0
    7.5949    1.0089   -3.2384 C   0  0  0  0  0  0  0  0  0  0  0  0
    7.8315    2.0910   -2.4113 C   0  0  0  0  0  0  0  0  0  0  0  0
    9.0324    2.7718   -2.4849 C   0  0  0  0  0  0  0  0  0  0  0  0
   10.0000    2.3734   -3.3932 C   0  0  0  0  0  0  0  0  0  0  0  0
   11.1818    3.0423   -3.4674 O   0  0  0  0  0  0  0  0  0  0  0  0
   11.3588    4.1470   -2.5783 C   0  0  0  0  0  0  0  0  0  0  0  0
    6.7803    2.5258   -1.4228 C   0  0  0  0  0  0  0  0  0  0  0  0
    5.9004    3.5155   -2.0492 N   0  0  0  0  0  0  0  0  0  0  0  0
    4.8800    4.0491   -1.3489 C   0  0  0  0  0  0  0  0  0  0  0  0
    4.6350    3.6454   -0.2275 O   0  0  0  0  0  0  0  0  0  0  0  0
    4.0634    5.1181   -1.9394 C   0  0  0  0  0  0  0  0  0  0  0  0
    4.3001    5.7228   -3.1337 C   0  0  0  0  0  0  0  0  0  0  0  0
    3.2928    6.6956   -3.3315 C   0  0  0  0  0  0  0  0  0  0  0  0
    2.4425    6.6431   -2.2100 C   0  0  0  0  0  0  0  0  0  0  0  0
    2.9294    5.6685   -1.3706 N   0  0  0  0  0  0  0  0  0  0  0  0
    2.3465    5.2816   -0.0835 C   0  0  0  0  0  0  0  0  0  0  0  0
    1.2895    4.2309   -0.3063 C   0  0  0  0  0  0  0  0  0  0  0  0
    1.6353    2.8912   -0.2993 C   0  0  0  0  0  0  0  0  0  0  0  0
    0.6707    1.9210   -0.5025 C   0  0  0  0  0  0  0  0  0  0  0  0
   -0.6428    2.2848   -0.7199 C   0  0  0  0  0  0  0  0  0  0  0  0
   -0.9985    3.6331   -0.7225 C   0  0  0  0  0  0  0  0  0  0  0  0
   -0.0213    4.6067   -0.5165 C   0  0  0  0  0  0  0  0  0  0  0  0
   -2.4072    4.0298   -0.9486 C   0  0  0  0  0  0  0  0  0  0  0  0
   -3.6318    5.6495   -1.0950 H   0  0  0  0  0  0  0  0  0  0  0  0
   -3.3703    3.0656   -1.1519 N   0  0  0  0  0  0  0  0  0  0  0  0
    1.3505    7.5027   -2.1354 C   0  0  0  0  0  0  0  0  0  0  0  0
    1.1054    8.3975   -3.1538 C   0  0  0  0  0  0  0  0  0  0  0  0
    1.9381    8.4558   -4.2620 C   0  0  0  0  0  0  0  0  0  0  0  0
    3.0286    7.6146   -4.3616 C   0  0  0  0  0  0  0  0  0  0  0  0
    3.8407    7.6749   -5.4481 O   0  0  0  0  0  0  0  0  0  0  0  0
   10.1986   -1.0996   -5.3224 H   0  0  0  0  0  0  0  0  0  0  0  0
    9.5030   -0.0058   -6.5422 H   0  0  0  0  0  0  0  0  0  0  0  0
   11.2282   -0.4378   -6.6147 H   0  0  0  0  0  0  0  0  0  0  0  0
    8.3647   -0.2332   -4.7990 H   0  0  0  0  0  0  0  0  0  0  0  0
    6.6572    0.4769   -3.1748 H   0  0  0  0  0  0  0  0  0  0  0  0
    9.2166    3.6139   -1.8342 H   0  0  0  0  0  0  0  0  0  0  0  0
   12.3412    4.5903   -2.7409 H   0  0  0  0  0  0  0  0  0  0  0  0
   10.5874    4.8933   -2.7681 H   0  0  0  0  0  0  0  0  0  0  0  0
   11.2827    3.7999   -1.5479 H   0  0  0  0  0  0  0  0  0  0  0  0
    7.2622    2.9682   -0.5510 H   0  0  0  0  0  0  0  0  0  0  0  0
    6.1928    1.6613   -1.1136 H   0  0  0  0  0  0  0  0  0  0  0  0
    6.0522    3.7868   -2.9680 H   0  0  0  0  0  0  0  0  0  0  0  0
    5.1140    5.5027   -3.8085 H   0  0  0  0  0  0  0  0  0  0  0  0
    1.8968    6.1549    0.3889 H   0  0  0  0  0  0  0  0  0  0  0  0
    3.1271    4.8804    0.5629 H   0  0  0  0  0  0  0  0  0  0  0  0
    2.6626    2.6019   -0.1340 H   0  0  0  0  0  0  0  0  0  0  0  0
    0.9466    0.8769   -0.4956 H   0  0  0  0  0  0  0  0  0  0  0  0
   -1.3944    1.5264   -0.8829 H   0  0  0  0  0  0  0  0  0  0  0  0
   -0.2902    5.6527   -0.5217 H   0  0  0  0  0  0  0  0  0  0  0  0
   -3.1256    2.1269   -1.1468 H   0  0  0  0  0  0  0  0  0  0  0  0
   -4.2931    3.3255   -1.3000 H   0  0  0  0  0  0  0  0  0  0  0  0
    0.6943    7.4678   -1.2784 H   0  0  0  0  0  0  0  0  0  0  0  0
    0.2558    9.0612   -3.0886 H   0  0  0  0  0  0  0  0  0  0  0  0
    1.7322    9.1634   -5.0514 H   0  0  0  0  0  0  0  0  0  0  0  0
    3.5741    7.0905   -6.1710 H   0  0  0  0  0  0  0  0  0  0  0  0
   -2.6761    5.3262   -0.9437 N   0  3  0  0  0  0  0  0  0  0  0  0
   -1.9228    6.0062   -0.7877 H   0  0  0  0  0  0  0  0  0  0  0  0
  1  2  1  0  0  0  0
  1 35  1  0  0  0  0
  1 36  1  0  0  0  0
  1 37  1  0  0  0  0
  2  3  1  0  0  0  0
  3  8  2  0  0  0  0
  3  4  1  0  0  0  0
  4  5  2  0  0  0  0
  4 38  1  0  0  0  0
  5  6  1  0  0  0  0
  5 39  1  0  0  0  0
  6  7  2  0  0  0  0
  6 11  1  0  0  0  0
  7  8  1  0  0  0  0
  7 40  1  0  0  0  0
  8  9  1  0  0  0  0
  9 10  1  0  0  0  0
 10 41  1  0  0  0  0
 10 42  1  0  0  0  0
 10 43  1  0  0  0  0
 11 12  1  0  0  0  0
 11 44  1  0  0  0  0
 11 45  1  0  0  0  0
 12 13  1  0  0  0  0
 12 46  1  0  0  0  0
 13 14  2  0  0  0  0
 13 15  1  0  0  0  0
 15 19  1  0  0  0  0
 15 16  2  0  0  0  0
 16 17  1  0  0  0  0
 16 47  1  0  0  0  0
 17 33  2  0  0  0  0
 17 18  1  0  0  0  0
 18 19  1  0  0  0  0
 18 30  2  0  0  0  0
 19 20  1  0  0  0  0
 20 21  1  0  0  0  0
 20 48  1  0  0  0  0
 20 49  1  0  0  0  0
 21 26  2  0  0  0  0
 21 22  1  0  0  0  0
 22 23  2  0  0  0  0
 22 50  1  0  0  0  0
 23 24  1  0  0  0  0
 23 51  1  0  0  0  0
 24 25  2  0  0  0  0
 24 52  1  0  0  0  0
 25 26  1  0  0  0  0
 25 27  1  0  0  0  0
 26 53  1  0  0  0  0
 27 29  1  0  0  0  0
 27 60  2  0  0  0  0
 28 60  1  0  0  0  0
 29 54  1  0  0  0  0
 29 55  1  0  0  0  0
 30 31  1  0  0  0  0
 30 56  1  0  0  0  0
 31 32  2  0  0  0  0
 31 57  1  0  0  0  0
 32 33  1  0  0  0  0
 32 58  1  0  0  0  0
 33 34  1  0  0  0  0
 34 59  1  0  0  0  0
 60 61  1  0  0  0  0
M  CHG  1  60   1
M  END
$$$$
ZINC04631047
  -OEChem-08230709403D

 59 62  0     0  0  0  0  0  0999 V2000
    0.5344   10.1893   -5.0967 C   0  0  0  0  0  0  0  0  0  0  0  0
    1.6781    9.3484   -5.2607 O   0  0  0  0  0  0  0  0  0  0  0  0
    1.9376    8.4572   -4.2651 C   0  0  0  0  0  0  0  0  0  0  0  0
    1.1031    8.3983   -3.1540 C   0  0  0  0  0  0  0  0  0  0  0  0
    1.3499    7.5027   -2.1363 C   0  0  0  0  0  0  0  0  0  0  0  0
    2.4422    6.6443   -2.2113 C   0  0  0  0  0  0  0  0  0  0  0  0
    3.2931    6.6960   -3.3323 C   0  0  0  0  0  0  0  0  0  0  0  0
    3.0308    7.6141   -4.3631 C   0  0  0  0  0  0  0  0  0  0  0  0
    3.8450    7.6736   -5.4495 O   0  0  0  0  0  0  0  0  0  0  0  0
    4.9558    8.5699   -5.3794 C   0  0  0  0  0  0  0  0  0  0  0  0
    4.3001    5.7227   -3.1336 C   0  0  0  0  0  0  0  0  0  0  0  0
    4.0634    5.1183   -1.9394 C   0  0  0  0  0  0  0  0  0  0  0  0
    2.9294    5.6685   -1.3706 N   0  0  0  0  0  0  0  0  0  0  0  0
    2.3464    5.2816   -0.0834 C   0  0  0  0  0  0  0  0  0  0  0  0
    1.2894    4.2309   -0.3061 C   0  0  0  0  0  0  0  0  0  0  0  0
    1.6352    2.8912   -0.2990 C   0  0  0  0  0  0  0  0  0  0  0  0
    0.6706    1.9211   -0.5023 C   0  0  0  0  0  0  0  0  0  0  0  0
   -0.6429    2.2849   -0.7197 C   0  0  0  0  0  0  0  0  0  0  0  0
   -0.9986    3.6331   -0.7224 C   0  0  0  0  0  0  0  0  0  0  0  0
   -0.0214    4.6068   -0.5164 C   0  0  0  0  0  0  0  0  0  0  0  0
   -2.4073    4.0298   -0.9487 C   0  0  0  0  0  0  0  0  0  0  0  0
   -3.6317    5.6496   -1.0952 H   0  0  0  0  0  0  0  0  0  0  0  0
   -3.3704    3.0658   -1.1519 N   0  0  0  0  0  0  0  0  0  0  0  0
    4.8799    4.0490   -1.3489 C   0  0  0  0  0  0  0  0  0  0  0  0
    4.6349    3.6453   -0.2276 O   0  0  0  0  0  0  0  0  0  0  0  0
    5.9002    3.5155   -2.0493 N   0  0  0  0  0  0  0  0  0  0  0  0
    6.7801    2.5255   -1.4230 C   0  0  0  0  0  0  0  0  0  0  0  0
    7.8311    2.0908   -2.4116 C   0  0  0  0  0  0  0  0  0  0  0  0
    7.6127    1.0081   -3.2496 C   0  0  0  0  0  0  0  0  0  0  0  0
    8.5981    0.6411   -4.1464 C   0  0  0  0  0  0  0  0  0  0  0  0
    9.7380    1.3015   -4.2036 N   0  0  0  0  0  0  0  0  0  0  0  0
    9.9820    2.3329   -3.4190 C   0  0  0  0  0  0  0  0  0  0  0  0
    9.0418    2.7605   -2.5007 C   0  0  0  0  0  0  0  0  0  0  0  0
   -0.3609    9.5732   -5.0146 H   0  0  0  0  0  0  0  0  0  0  0  0
    0.6490   10.7862   -4.1919 H   0  0  0  0  0  0  0  0  0  0  0  0
    0.4428   10.8502   -5.9587 H   0  0  0  0  0  0  0  0  0  0  0  0
    0.2532    9.0616   -3.0879 H   0  0  0  0  0  0  0  0  0  0  0  0
    0.6940    7.4669   -1.2790 H   0  0  0  0  0  0  0  0  0  0  0  0
    5.5222    8.5199   -6.3093 H   0  0  0  0  0  0  0  0  0  0  0  0
    4.5932    9.5868   -5.2292 H   0  0  0  0  0  0  0  0  0  0  0  0
    5.5991    8.2867   -4.5463 H   0  0  0  0  0  0  0  0  0  0  0  0
    5.1146    5.5028   -3.8080 H   0  0  0  0  0  0  0  0  0  0  0  0
    1.8968    6.1550    0.3889 H   0  0  0  0  0  0  0  0  0  0  0  0
    3.1270    4.8805    0.5631 H   0  0  0  0  0  0  0  0  0  0  0  0
    2.6626    2.6019   -0.1337 H   0  0  0  0  0  0  0  0  0  0  0  0
    0.9465    0.8770   -0.4952 H   0  0  0  0  0  0  0  0  0  0  0  0
   -1.3944    1.5265   -0.8827 H   0  0  0  0  0  0  0  0  0  0  0  0
   -0.2902    5.6528   -0.5218 H   0  0  0  0  0  0  0  0  0  0  0  0
   -3.1257    2.1271   -1.1468 H   0  0  0  0  0  0  0  0  0  0  0  0
   -4.2931    3.3256   -1.3001 H   0  0  0  0  0  0  0  0  0  0  0  0
    6.0519    3.7867   -2.9682 H   0  0  0  0  0  0  0  0  0  0  0  0
    7.2620    2.9679   -0.5511 H   0  0  0  0  0  0  0  0  0  0  0  0
    6.1924    1.6612   -1.1137 H   0  0  0  0  0  0  0  0  0  0  0  0
    6.6829    0.4605   -3.2044 H   0  0  0  0  0  0  0  0  0  0  0  0
    8.4343   -0.1991   -4.8051 H   0  0  0  0  0  0  0  0  0  0  0  0
   10.9276    2.8492   -3.4946 H   0  0  0  0  0  0  0  0  0  0  0  0
    9.2479    3.6055   -1.8603 H   0  0  0  0  0  0  0  0  0  0  0  0
   -2.6761    5.3263   -0.9438 N   0  3  0  0  0  0  0  0  0  0  0  0
   -1.9228    6.0062   -0.7876 H   0  0  0  0  0  0  0  0  0  0  0  0
  1  2  1  0  0  0  0
  1 34  1  0  0  0  0
  1 35  1  0  0  0  0
  1 36  1  0  0  0  0
  2  3  1  0  0  0  0
  3  8  2  0  0  0  0
  3  4  1  0  0  0  0
  4  5  2  0  0  0  0
  4 37  1  0  0  0  0
  5  6  1  0  0  0  0
  5 38  1  0  0  0  0
  6 13  1  0  0  0  0
  6  7  2  0  0  0  0
  7  8  1  0  0  0  0
  7 11  1  0  0  0  0
  8  9  1  0  0  0  0
  9 10  1  0  0  0  0
 10 39  1  0  0  0  0
 10 40  1  0  0  0  0
 10 41  1  0  0  0  0
 11 12  2  0  0  0  0
 11 42  1  0  0  0  0
 12 13  1  0  0  0  0
 12 24  1  0  0  0  0
 13 14  1  0  0  0  0
 14 15  1  0  0  0  0
 14 43  1  0  0  0  0
 14 44  1  0  0  0  0
 15 20  2  0  0  0  0
 15 16  1  0  0  0  0
 16 17  2  0  0  0  0
 16 45  1  0  0  0  0
 17 18  1  0  0  0  0
 17 46  1  0  0  0  0
 18 19  2  0  0  0  0
 18 47  1  0  0  0  0
 19 20  1  0  0  0  0
 19 21  1  0  0  0  0
 20 48  1  0  0  0  0
 21 23  1  0  0  0  0
 21 58  2  0  0  0  0
 22 58  1  0  0  0  0
 23 49  1  0  0  0  0
 23 50  1  0  0  0  0
 24 25  2  0  0  0  0
 24 26  1  0  0  0  0
 26 27  1  0  0  0  0
 26 51  1  0  0  0  0
 27 28  1  0  0  0  0
 27 52  1  0  0  0  0
 27 53  1  0  0  0  0
 28 33  2  0  0  0  0
 28 29  1  0  0  0  0
 29 30  2  0  0  0  0
 29 54  1  0  0  0  0
 30 31  1  0  0  0  0
 30 55  1  0  0  0  0
 31 32  2  0  0  0  0
 32 33  1  0  0  0  0
 32 56  1  0  0  0  0
 33 57  1  0  0  0  0
 58 59  1  0  0  0  0
M  CHG  1  58   1
M  END
$$$$
ZINC04631048
  -OEChem-08230709403D

 57 60  0     0  0  0  0  0  0999 V2000
   12.1306    2.5682   -4.4303 C   0  0  0  0  0  0  0  0  0  0  0  0
   11.1813    3.0365   -3.4703 O   0  0  0  0  0  0  0  0  0  0  0  0
    9.9994    2.3699   -3.3955 C   0  0  0  0  0  0  0  0  0  0  0  0
    9.7585    1.2868   -4.2286 C   0  0  0  0  0  0  0  0  0  0  0  0
    8.5566    0.6106   -4.1503 C   0  0  0  0  0  0  0  0  0  0  0  0
    7.5959    1.0090   -3.2388 C   0  0  0  0  0  0  0  0  0  0  0  0
    7.8315    2.0910   -2.4113 C   0  0  0  0  0  0  0  0  0  0  0  0
    9.0320    2.7707   -2.4857 C   0  0  0  0  0  0  0  0  0  0  0  0
    6.7803    2.5258   -1.4228 C   0  0  0  0  0  0  0  0  0  0  0  0
    5.9004    3.5155   -2.0492 N   0  0  0  0  0  0  0  0  0  0  0  0
    4.8800    4.0491   -1.3489 C   0  0  0  0  0  0  0  0  0  0  0  0
    4.6350    3.6454   -0.2275 O   0  0  0  0  0  0  0  0  0  0  0  0
    4.0634    5.1181   -1.9394 C   0  0  0  0  0  0  0  0  0  0  0  0
    4.3001    5.7228   -3.1337 C   0  0  0  0  0  0  0  0  0  0  0  0
    3.2928    6.6956   -3.3315 C   0  0  0  0  0  0  0  0  0  0  0  0
    2.4425    6.6431   -2.2100 C   0  0  0  0  0  0  0  0  0  0  0  0
    2.9294    5.6685   -1.3706 N   0  0  0  0  0  0  0  0  0  0  0  0
    2.3465    5.2816   -0.0835 C   0  0  0  0  0  0  0  0  0  0  0  0
    1.2895    4.2309   -0.3063 C   0  0  0  0  0  0  0  0  0  0  0  0
    1.6353    2.8912   -0.2993 C   0  0  0  0  0  0  0  0  0  0  0  0
    0.6707    1.9210   -0.5025 C   0  0  0  0  0  0  0  0  0  0  0  0
   -0.6428    2.2848   -0.7199 C   0  0  0  0  0  0  0  0  0  0  0  0
   -0.9985    3.6331   -0.7225 C   0  0  0  0  0  0  0  0  0  0  0  0
   -0.0213    4.6067   -0.5165 C   0  0  0  0  0  0  0  0  0  0  0  0
   -2.4072    4.0298   -0.9486 C   0  0  0  0  0  0  0  0  0  0  0  0
   -3.6318    5.6495   -1.0950 H   0  0  0  0  0  0  0  0  0  0  0  0
   -3.3703    3.0656   -1.1519 N   0  0  0  0  0  0  0  0  0  0  0  0
    1.3505    7.5027   -2.1354 C   0  0  0  0  0  0  0  0  0  0  0  0
    1.1054    8.3975   -3.1538 C   0  0  0  0  0  0  0  0  0  0  0  0
    1.9381    8.4558   -4.2620 C   0  0  0  0  0  0  0  0  0  0  0  0
    3.0286    7.6146   -4.3616 C   0  0  0  0  0  0  0  0  0  0  0  0
    3.8407    7.6749   -5.4481 O   0  0  0  0  0  0  0  0  0  0  0  0
   12.3915    1.5334   -4.2082 H   0  0  0  0  0  0  0  0  0  0  0  0
   11.6972    2.6274   -5.4286 H   0  0  0  0  0  0  0  0  0  0  0  0
   13.0272    3.1865   -4.3861 H   0  0  0  0  0  0  0  0  0  0  0  0
   10.5102    0.9725   -4.9375 H   0  0  0  0  0  0  0  0  0  0  0  0
    8.3687   -0.2327   -4.7984 H   0  0  0  0  0  0  0  0  0  0  0  0
    6.6586    0.4762   -3.1761 H   0  0  0  0  0  0  0  0  0  0  0  0
    9.2171    3.6136   -1.8363 H   0  0  0  0  0  0  0  0  0  0  0  0
    7.2622    2.9682   -0.5510 H   0  0  0  0  0  0  0  0  0  0  0  0
    6.1928    1.6613   -1.1136 H   0  0  0  0  0  0  0  0  0  0  0  0
    6.0522    3.7868   -2.9680 H   0  0  0  0  0  0  0  0  0  0  0  0
    5.1140    5.5027   -3.8085 H   0  0  0  0  0  0  0  0  0  0  0  0
    1.8968    6.1549    0.3889 H   0  0  0  0  0  0  0  0  0  0  0  0
    3.1271    4.8804    0.5629 H   0  0  0  0  0  0  0  0  0  0  0  0
    2.6626    2.6019   -0.1340 H   0  0  0  0  0  0  0  0  0  0  0  0
    0.9466    0.8769   -0.4956 H   0  0  0  0  0  0  0  0  0  0  0  0
   -1.3944    1.5264   -0.8829 H   0  0  0  0  0  0  0  0  0  0  0  0
   -0.2902    5.6527   -0.5217 H   0  0  0  0  0  0  0  0  0  0  0  0
   -3.1256    2.1269   -1.1468 H   0  0  0  0  0  0  0  0  0  0  0  0
   -4.2931    3.3255   -1.3000 H   0  0  0  0  0  0  0  0  0  0  0  0
    0.6943    7.4678   -1.2784 H   0  0  0  0  0  0  0  0  0  0  0  0
    0.2558    9.0612   -3.0886 H   0  0  0  0  0  0  0  0  0  0  0  0
    1.7322    9.1634   -5.0514 H   0  0  0  0  0  0  0  0  0  0  0  0
    3.5741    7.0905   -6.1710 H   0  0  0  0  0  0  0  0  0  0  0  0
   -2.6761    5.3262   -0.9437 N   0  3  0  0  0  0  0  0  0  0  0  0
   -1.9228    6.0062   -0.7877 H   0  0  0  0  0  0  0  0  0  0  0  0
  1  2  1  0  0  0  0
  1 33  1  0  0  0  0
  1 34  1  0  0  0  0
  1 35  1  0  0  0  0
  2  3  1  0  0  0  0
  3  8  2  0  0  0  0
  3  4  1  0  0  0  0
  4  5  2  0  0  0  0
  4 36  1  0  0  0  0
  5  6  1  0  0  0  0
  5 37  1  0  0  0  0
  6  7  2  0  0  0  0
  6 38  1  0  0  0  0
  7  8  1  0  0  0  0
  7  9  1  0  0  0  0
  8 39  1  0  0  0  0
  9 10  1  0  0  0  0
  9 40  1  0  0  0  0
  9 41  1  0  0  0  0
 10 11  1  0  0  0  0
 10 42  1  0  0  0  0
 11 12  2  0  0  0  0
 11 13  1  0  0  0  0
 13 17  1  0  0  0  0
 13 14  2  0  0  0  0
 14 15  1  0  0  0  0
 14 43  1  0  0  0  0
 15 31  2  0  0  0  0
 15 16  1  0  0  0  0
 16 17  1  0  0  0  0
 16 28  2  0  0  0  0
 17 18  1  0  0  0  0
 18 19  1  0  0  0  0
 18 44  1  0  0  0  0
 18 45  1  0  0  0  0
 19 24  2  0  0  0  0
 19 20  1  0  0  0  0
 20 21  2  0  0  0  0
 20 46  1  0  0  0  0
 21 22  1  0  0  0  0
 21 47  1  0  0  0  0
 22 23  2  0  0  0  0
 22 48  1  0  0  0  0
 23 24  1  0  0  0  0
 23 25  1  0  0  0  0
 24 49  1  0  0  0  0
 25 27  1  0  0  0  0
 25 56  2  0  0  0  0
 26 56  1  0  0  0  0
 27 50  1  0  0  0  0
 27 51  1  0  0  0  0
 28 29  1  0  0  0  0
 28 52  1  0  0  0  0
 29 30  2  0  0  0  0
 29 53  1  0  0  0  0
 30 31  1  0  0  0  0
 30 54  1  0  0  0  0
 31 32  1  0  0  0  0
 32 55  1  0  0  0  0
 56 57  1  0  0  0  0
M  CHG  1  56   1
M  END
$$$$
ZINC04631051
  -OEChem-08230709403D

 60 63  0     0  0  0  0  0  0999 V2000
    3.5098    8.6337   -6.4536 C   0  0  0  0  0  0  0  0  0  0  0  0
    3.8419    7.6748   -5.4476 O   0  0  0  0  0  0  0  0  0  0  0  0
    3.0297    7.6147   -4.3613 C   0  0  0  0  0  0  0  0  0  0  0  0
    1.9390    8.4555   -4.2621 C   0  0  0  0  0  0  0  0  0  0  0  0
    1.1062    8.3977   -3.1539 C   0  0  0  0  0  0  0  0  0  0  0  0
    1.3506    7.5022   -2.1358 C   0  0  0  0  0  0  0  0  0  0  0  0
    2.4432    6.6434   -2.2097 C   0  0  0  0  0  0  0  0  0  0  0  0
    3.2938    6.6958   -3.3309 C   0  0  0  0  0  0  0  0  0  0  0  0
    4.3010    5.7229   -3.1329 C   0  0  0  0  0  0  0  0  0  0  0  0
    4.0639    5.1183   -1.9387 C   0  0  0  0  0  0  0  0  0  0  0  0
    2.9298    5.6687   -1.3702 N   0  0  0  0  0  0  0  0  0  0  0  0
    2.3466    5.2819   -0.0831 C   0  0  0  0  0  0  0  0  0  0  0  0
    1.2894    4.2313   -0.3061 C   0  0  0  0  0  0  0  0  0  0  0  0
    1.6351    2.8917   -0.2993 C   0  0  0  0  0  0  0  0  0  0  0  0
    0.6704    1.9216   -0.5029 C   0  0  0  0  0  0  0  0  0  0  0  0
   -0.6430    2.2855   -0.7203 C   0  0  0  0  0  0  0  0  0  0  0  0
   -0.9985    3.6338   -0.7226 C   0  0  0  0  0  0  0  0  0  0  0  0
   -0.0212    4.6073   -0.5164 C   0  0  0  0  0  0  0  0  0  0  0  0
   -2.4072    4.0307   -0.9489 C   0  0  0  0  0  0  0  0  0  0  0  0
   -3.6315    5.6506   -1.0951 H   0  0  0  0  0  0  0  0  0  0  0  0
   -3.3704    3.0667   -1.1523 N   0  0  0  0  0  0  0  0  0  0  0  0
    4.8798    4.0485   -1.3483 C   0  0  0  0  0  0  0  0  0  0  0  0
    4.6347    3.6449   -0.2270 O   0  0  0  0  0  0  0  0  0  0  0  0
    5.8998    3.5144   -2.0488 N   0  0  0  0  0  0  0  0  0  0  0  0
    6.7793    2.5241   -1.4225 C   0  0  0  0  0  0  0  0  0  0  0  0
    7.8460    2.0822   -2.4262 C   0  0  0  0  0  0  0  0  0  0  0  0
    8.7506    1.0636   -1.7819 C   0  0  0  0  0  0  0  0  0  0  0  0
    9.8883    1.4759   -1.1132 C   0  0  0  0  0  0  0  0  0  0  0  0
   10.7162    0.5444   -0.5168 C   0  0  0  0  0  0  0  0  0  0  0  0
   10.4113   -0.8064   -0.5993 C   0  0  0  0  0  0  0  0  0  0  0  0
    9.2721   -1.2179   -1.2758 C   0  0  0  0  0  0  0  0  0  0  0  0
    8.4445   -0.2822   -1.8655 C   0  0  0  0  0  0  0  0  0  0  0  0
   11.2268   -1.7251   -0.0179 O   0  0  0  0  0  0  0  0  0  0  0  0
    4.2370    8.5772   -7.2637 H   0  0  0  0  0  0  0  0  0  0  0  0
    2.5144    8.4213   -6.8436 H   0  0  0  0  0  0  0  0  0  0  0  0
    3.5248    9.6341   -6.0211 H   0  0  0  0  0  0  0  0  0  0  0  0
    1.7329    9.1628   -5.0519 H   0  0  0  0  0  0  0  0  0  0  0  0
    0.2566    9.0611   -3.0891 H   0  0  0  0  0  0  0  0  0  0  0  0
    0.6942    7.4675   -1.2789 H   0  0  0  0  0  0  0  0  0  0  0  0
    5.1152    5.5030   -3.8074 H   0  0  0  0  0  0  0  0  0  0  0  0
    1.8970    6.1553    0.3892 H   0  0  0  0  0  0  0  0  0  0  0  0
    3.1270    4.8805    0.5634 H   0  0  0  0  0  0  0  0  0  0  0  0
    2.6624    2.6021   -0.1340 H   0  0  0  0  0  0  0  0  0  0  0  0
    0.9462    0.8774   -0.4960 H   0  0  0  0  0  0  0  0  0  0  0  0
   -1.3946    1.5273   -0.8834 H   0  0  0  0  0  0  0  0  0  0  0  0
   -0.2900    5.6533   -0.5215 H   0  0  0  0  0  0  0  0  0  0  0  0
   -3.1257    2.1281   -1.1474 H   0  0  0  0  0  0  0  0  0  0  0  0
   -4.2931    3.3267   -1.3004 H   0  0  0  0  0  0  0  0  0  0  0  0
    6.0517    3.7856   -2.9677 H   0  0  0  0  0  0  0  0  0  0  0  0
    7.2615    2.9663   -0.5507 H   0  0  0  0  0  0  0  0  0  0  0  0
    6.1912    1.6601   -1.1132 H   0  0  0  0  0  0  0  0  0  0  0  0
    7.3637    1.6400   -3.2980 H   0  0  0  0  0  0  0  0  0  0  0  0
    8.4341    2.9463   -2.7355 H   0  0  0  0  0  0  0  0  0  0  0  0
   10.1276    2.5273   -1.0530 H   0  0  0  0  0  0  0  0  0  0  0  0
   11.6024    0.8673    0.0093 H   0  0  0  0  0  0  0  0  0  0  0  0
    9.0327   -2.2690   -1.3416 H   0  0  0  0  0  0  0  0  0  0  0  0
    7.5574   -0.6021   -2.3920 H   0  0  0  0  0  0  0  0  0  0  0  0
   11.9287   -2.0507   -0.5978 H   0  0  0  0  0  0  0  0  0  0  0  0
   -2.6759    5.3272   -0.9437 N   0  3  0  0  0  0  0  0  0  0  0  0
   -1.9225    6.0070   -0.7874 H   0  0  0  0  0  0  0  0  0  0  0  0
  1  2  1  0  0  0  0
  1 34  1  0  0  0  0
  1 35  1  0  0  0  0
  1 36  1  0  0  0  0
  2  3  1  0  0  0  0
  3  8  2  0  0  0  0
  3  4  1  0  0  0  0
  4  5  2  0  0  0  0
  4 37  1  0  0  0  0
  5  6  1  0  0  0  0
  5 38  1  0  0  0  0
  6  7  2  0  0  0  0
  6 39  1  0  0  0  0
  7 11  1  0  0  0  0
  7  8  1  0  0  0  0
  8  9  1  0  0  0  0
  9 10  2  0  0  0  0
  9 40  1  0  0  0  0
 10 11  1  0  0  0  0
 10 22  1  0  0  0  0
 11 12  1  0  0  0  0
 12 13  1  0  0  0  0
 12 41  1  0  0  0  0
 12 42  1  0  0  0  0
 13 18  2  0  0  0  0
 13 14  1  0  0  0  0
 14 15  2  0  0  0  0
 14 43  1  0  0  0  0
 15 16  1  0  0  0  0
 15 44  1  0  0  0  0
 16 17  2  0  0  0  0
 16 45  1  0  0  0  0
 17 18  1  0  0  0  0
 17 19  1  0  0  0  0
 18 46  1  0  0  0  0
 19 21  1  0  0  0  0
 19 59  2  0  0  0  0
 20 59  1  0  0  0  0
 21 47  1  0  0  0  0
 21 48  1  0  0  0  0
 22 23  2  0  0  0  0
 22 24  1  0  0  0  0
 24 25  1  0  0  0  0
 24 49  1  0  0  0  0
 25 26  1  0  0  0  0
 25 50  1  0  0  0  0
 25 51  1  0  0  0  0
 26 27  1  0  0  0  0
 26 52  1  0  0  0  0
 26 53  1  0  0  0  0
 27 32  2  0  0  0  0
 27 28  1  0  0  0  0
 28 29  2  0  0  0  0
 28 54  1  0  0  0  0
 29 30  1  0  0  0  0
 29 55  1  0  0  0  0
 30 31  2  0  0  0  0
 30 33  1  0  0  0  0
 31 32  1  0  0  0  0
 31 56  1  0  0  0  0
 32 57  1  0  0  0  0
 33 58  1  0  0  0  0
 59 60  1  0  0  0  0
M  CHG  1  59   1
M  END
$$$$
ZINC04631053
  -OEChem-08230709403D

 62 65  0     0  0  0  0  0  0999 V2000
    4.2784   -1.2326   -3.7351 C   0  0  0  0  0  0  0  0  0  0  0  0
    4.0192    0.1443   -3.4541 O   0  0  0  0  0  0  0  0  0  0  0  0
    2.8298    0.6459   -3.8746 C   0  0  0  0  0  0  0  0  0  0  0  0
    1.9312   -0.1634   -4.5410 C   0  0  0  0  0  0  0  0  0  0  0  0
    0.7144    0.3447   -4.9722 C   0  0  0  0  0  0  0  0  0  0  0  0
    0.3812    1.6619   -4.7444 C   0  0  0  0  0  0  0  0  0  0  0  0
    1.2679    2.4998   -4.0747 C   0  0  0  0  0  0  0  0  0  0  0  0
    2.5052    1.9922   -3.6337 C   0  0  0  0  0  0  0  0  0  0  0  0
    3.1862    3.0556   -2.9968 C   0  0  0  0  0  0  0  0  0  0  0  0
    2.3871    4.1537   -3.0556 C   0  0  0  0  0  0  0  0  0  0  0  0
    1.2145    3.8252   -3.7111 N   0  0  0  0  0  0  0  0  0  0  0  0
    0.1020    4.7397   -3.9796 C   0  0  0  0  0  0  0  0  0  0  0  0
   -0.9408    4.5923   -2.9017 C   0  0  0  0  0  0  0  0  0  0  0  0
   -1.9042    3.6045   -3.0035 C   0  0  0  0  0  0  0  0  0  0  0  0
   -2.8616    3.4599   -2.0158 C   0  0  0  0  0  0  0  0  0  0  0  0
   -2.8674    4.3080   -0.9270 C   0  0  0  0  0  0  0  0  0  0  0  0
   -1.9023    5.3088   -0.8214 C   0  0  0  0  0  0  0  0  0  0  0  0
   -0.9362    5.4463   -1.8180 C   0  0  0  0  0  0  0  0  0  0  0  0
   -1.9032    6.2225    0.3440 C   0  0  0  0  0  0  0  0  0  0  0  0
   -0.9883    7.8708    1.1124 H   0  0  0  0  0  0  0  0  0  0  0  0
   -2.7910    6.0195    1.3779 N   0  0  0  0  0  0  0  0  0  0  0  0
    2.7165    5.4775   -2.5104 C   0  0  0  0  0  0  0  0  0  0  0  0
    1.8902    6.3701   -2.5394 O   0  0  0  0  0  0  0  0  0  0  0  0
    3.9339    5.7033   -1.9782 N   0  0  0  0  0  0  0  0  0  0  0  0
    4.2258    6.9868   -1.3352 C   0  0  0  0  0  0  0  0  0  0  0  0
    5.6005    6.9392   -0.7196 C   0  0  0  0  0  0  0  0  0  0  0  0
    5.7686    6.4202    0.5516 C   0  0  0  0  0  0  0  0  0  0  0  0
    7.0256    6.3696    1.1186 C   0  0  0  0  0  0  0  0  0  0  0  0
    8.1264    6.8522    0.4113 C   0  0  0  0  0  0  0  0  0  0  0  0
    7.9498    7.3792   -0.8678 C   0  0  0  0  0  0  0  0  0  0  0  0
    6.6885    7.4200   -1.4260 C   0  0  0  0  0  0  0  0  0  0  0  0
    9.4774    6.8051    1.0159 C   0  0  0  0  0  0  0  0  0  0  0  0
   11.4282    7.2686    0.6637 H   0  0  0  0  0  0  0  0  0  0  0  0
    9.6486    6.2839    2.2798 N   0  0  0  0  0  0  0  0  0  0  0  0
    3.5160   -1.8501   -3.2604 H   0  0  0  0  0  0  0  0  0  0  0  0
    4.2573   -1.3937   -4.8129 H   0  0  0  0  0  0  0  0  0  0  0  0
    5.2599   -1.5043   -3.3463 H   0  0  0  0  0  0  0  0  0  0  0  0
    2.1774   -1.1982   -4.7282 H   0  0  0  0  0  0  0  0  0  0  0  0
    0.0208   -0.2994   -5.4925 H   0  0  0  0  0  0  0  0  0  0  0  0
   -0.5694    2.0446   -5.0854 H   0  0  0  0  0  0  0  0  0  0  0  0
    4.1657    3.0044   -2.5448 H   0  0  0  0  0  0  0  0  0  0  0  0
    0.4698    5.7657   -3.9915 H   0  0  0  0  0  0  0  0  0  0  0  0
   -0.3394    4.5007   -4.9472 H   0  0  0  0  0  0  0  0  0  0  0  0
   -1.9062    2.9410   -3.8557 H   0  0  0  0  0  0  0  0  0  0  0  0
   -3.6089    2.6846   -2.0989 H   0  0  0  0  0  0  0  0  0  0  0  0
   -3.6177    4.1965   -0.1583 H   0  0  0  0  0  0  0  0  0  0  0  0
   -0.1864    6.2198   -1.7419 H   0  0  0  0  0  0  0  0  0  0  0  0
   -3.4156    5.2781    1.3423 H   0  0  0  0  0  0  0  0  0  0  0  0
   -2.7917    6.6179    2.1412 H   0  0  0  0  0  0  0  0  0  0  0  0
    4.6170    5.0158   -2.0210 H   0  0  0  0  0  0  0  0  0  0  0  0
    4.1880    7.7827   -2.0789 H   0  0  0  0  0  0  0  0  0  0  0  0
    3.4863    7.1803   -0.5580 H   0  0  0  0  0  0  0  0  0  0  0  0
    4.9148    6.0502    1.0998 H   0  0  0  0  0  0  0  0  0  0  0  0
    7.1562    5.9601    2.1094 H   0  0  0  0  0  0  0  0  0  0  0  0
    8.7985    7.7541   -1.4204 H   0  0  0  0  0  0  0  0  0  0  0  0
    6.5505    7.8278   -2.4165 H   0  0  0  0  0  0  0  0  0  0  0  0
    8.8843    5.9480    2.7736 H   0  0  0  0  0  0  0  0  0  0  0  0
   10.5335    6.2531    2.6759 H   0  0  0  0  0  0  0  0  0  0  0  0
   -1.0266    7.2148    0.3322 N   0  3  0  0  0  0  0  0  0  0  0  0
   -0.3854    7.3239   -0.4623 H   0  0  0  0  0  0  0  0  0  0  0  0
   10.4786    7.2791    0.2908 N   0  3  0  0  0  0  0  0  0  0  0  0
   10.2995    7.6573   -0.6468 H   0  0  0  0  0  0  0  0  0  0  0  0
  1  2  1  0  0  0  0
  1 35  1  0  0  0  0
  1 36  1  0  0  0  0
  1 37  1  0  0  0  0
  2  3  1  0  0  0  0
  3  8  2  0  0  0  0
  3  4  1  0  0  0  0
  4  5  2  0  0  0  0
  4 38  1  0  0  0  0
  5  6  1  0  0  0  0
  5 39  1  0  0  0  0
  6  7  2  0  0  0  0
  6 40  1  0  0  0  0
  7 11  1  0  0  0  0
  7  8  1  0  0  0  0
  8  9  1  0  0  0  0
  9 10  2  0  0  0  0
  9 41  1  0  0  0  0
 10 11  1  0  0  0  0
 10 22  1  0  0  0  0
 11 12  1  0  0  0  0
 12 13  1  0  0  0  0
 12 42  1  0  0  0  0
 12 43  1  0  0  0  0
 13 18  2  0  0  0  0
 13 14  1  0  0  0  0
 14 15  2  0  0  0  0
 14 44  1  0  0  0  0
 15 16  1  0  0  0  0
 15 45  1  0  0  0  0
 16 17  2  0  0  0  0
 16 46  1  0  0  0  0
 17 18  1  0  0  0  0
 17 19  1  0  0  0  0
 18 47  1  0  0  0  0
 19 21  1  0  0  0  0
 19 59  2  0  0  0  0
 20 59  1  0  0  0  0
 21 48  1  0  0  0  0
 21 49  1  0  0  0  0
 22 23  2  0  0  0  0
 22 24  1  0  0  0  0
 24 25  1  0  0  0  0
 24 50  1  0  0  0  0
 25 26  1  0  0  0  0
 25 51  1  0  0  0  0
 25 52  1  0  0  0  0
 26 31  2  0  0  0  0
 26 27  1  0  0  0  0
 27 28  2  0  0  0  0
 27 53  1  0  0  0  0
 28 29  1  0  0  0  0
 28 54  1  0  0  0  0
 29 30  2  0  0  0  0
 29 32  1  0  0  0  0
 30 31  1  0  0  0  0
 30 55  1  0  0  0  0
 31 56  1  0  0  0  0
 32 34  1  0  0  0  0
 32 61  2  0  0  0  0
 33 61  1  0  0  0  0
 34 57  1  0  0  0  0
 34 58  1  0  0  0  0
 59 60  1  0  0  0  0
 61 62  1  0  0  0  0
M  CHG  2  59   1  61   1
M  END
$$$$
ZINC04631054
  -OEChem-08230709403D

 57 60  0     0  0  0  0  0  0999 V2000
    4.5424   -2.1162   -1.6007 C   0  0  0  0  0  0  0  0  0  0  0  0
    4.1980   -0.7633   -1.2955 O   0  0  0  0  0  0  0  0  0  0  0  0
    2.8850   -0.4278   -1.3788 C   0  0  0  0  0  0  0  0  0  0  0  0
    1.9481   -1.3739   -1.7440 C   0  0  0  0  0  0  0  0  0  0  0  0
    0.6052   -1.0357   -1.8299 C   0  0  0  0  0  0  0  0  0  0  0  0
    0.1832    0.2463   -1.5534 C   0  0  0  0  0  0  0  0  0  0  0  0
    1.1061    1.2196   -1.1826 C   0  0  0  0  0  0  0  0  0  0  0  0
    2.4712    0.8848   -1.0930 C   0  0  0  0  0  0  0  0  0  0  0  0
    3.1604    2.0561   -0.7019 C   0  0  0  0  0  0  0  0  0  0  0  0
    2.2433    3.0500   -0.5637 C   0  0  0  0  0  0  0  0  0  0  0  0
    0.9872    2.5500   -0.8546 N   0  0  0  0  0  0  0  0  0  0  0  0
   -0.2630    3.3130   -0.8247 C   0  0  0  0  0  0  0  0  0  0  0  0
   -0.9413    3.1139    0.5062 C   0  0  0  0  0  0  0  0  0  0  0  0
   -1.7621    2.0180    0.7057 C   0  0  0  0  0  0  0  0  0  0  0  0
   -2.3842    1.8259    1.9260 C   0  0  0  0  0  0  0  0  0  0  0  0
   -2.1977    2.7331    2.9492 C   0  0  0  0  0  0  0  0  0  0  0  0
   -1.3759    3.8422    2.7526 C   0  0  0  0  0  0  0  0  0  0  0  0
   -0.7471    4.0278    1.5215 C   0  0  0  0  0  0  0  0  0  0  0  0
   -1.1720    4.8196    3.8462 C   0  0  0  0  0  0  0  0  0  0  0  0
   -0.2980    6.6058    4.2820 H   0  0  0  0  0  0  0  0  0  0  0  0
   -1.7079    4.5803    5.0928 N   0  0  0  0  0  0  0  0  0  0  0  0
    2.5393    4.4338   -0.1690 C   0  0  0  0  0  0  0  0  0  0  0  0
    1.6306    5.2227    0.0111 O   0  0  0  0  0  0  0  0  0  0  0  0
    3.8172    4.8295   -0.0062 N   0  0  0  0  0  0  0  0  0  0  0  0
    4.1095    6.1751    0.4941 C   0  0  0  0  0  0  0  0  0  0  0  0
    5.5950    6.3228    0.7000 C   0  0  0  0  0  0  0  0  0  0  0  0
    6.1723    5.9062    1.8854 C   0  0  0  0  0  0  0  0  0  0  0  0
    7.5346    6.0354    2.0742 C   0  0  0  0  0  0  0  0  0  0  0  0
    8.3220    6.5942    1.0780 C   0  0  0  0  0  0  0  0  0  0  0  0
    7.7395    7.0166   -0.1081 C   0  0  0  0  0  0  0  0  0  0  0  0
    6.3775    6.8800   -0.2945 C   0  0  0  0  0  0  0  0  0  0  0  0
    9.6617    6.7271    1.2635 O   0  0  0  0  0  0  0  0  0  0  0  0
    4.0247   -2.7865   -0.9145 H   0  0  0  0  0  0  0  0  0  0  0  0
    4.2460   -2.3445   -2.6245 H   0  0  0  0  0  0  0  0  0  0  0  0
    5.6191   -2.2494   -1.4958 H   0  0  0  0  0  0  0  0  0  0  0  0
    2.2625   -2.3833   -1.9647 H   0  0  0  0  0  0  0  0  0  0  0  0
   -0.1171   -1.7855   -2.1168 H   0  0  0  0  0  0  0  0  0  0  0  0
   -0.8651    0.4961   -1.6242 H   0  0  0  0  0  0  0  0  0  0  0  0
    4.2247    2.1451   -0.5417 H   0  0  0  0  0  0  0  0  0  0  0  0
   -0.0460    4.3717   -0.9671 H   0  0  0  0  0  0  0  0  0  0  0  0
   -0.9196    2.9662   -1.6226 H   0  0  0  0  0  0  0  0  0  0  0  0
   -1.9143    1.3076   -0.0934 H   0  0  0  0  0  0  0  0  0  0  0  0
   -3.0208    0.9666    2.0770 H   0  0  0  0  0  0  0  0  0  0  0  0
   -2.6870    2.5839    3.9004 H   0  0  0  0  0  0  0  0  0  0  0  0
   -0.1097    4.8851    1.3631 H   0  0  0  0  0  0  0  0  0  0  0  0
   -2.2187    3.7717    5.2540 H   0  0  0  0  0  0  0  0  0  0  0  0
   -1.5743    5.2205    5.8092 H   0  0  0  0  0  0  0  0  0  0  0  0
    4.5436    4.2234   -0.2204 H   0  0  0  0  0  0  0  0  0  0  0  0
    3.7677    6.9142   -0.2304 H   0  0  0  0  0  0  0  0  0  0  0  0
    3.5940    6.3300    1.4420 H   0  0  0  0  0  0  0  0  0  0  0  0
    5.5583    5.4754    2.6624 H   0  0  0  0  0  0  0  0  0  0  0  0
    7.9857    5.7059    2.9986 H   0  0  0  0  0  0  0  0  0  0  0  0
    8.3503    7.4522   -0.8851 H   0  0  0  0  0  0  0  0  0  0  0  0
    5.9236    7.2084   -1.2178 H   0  0  0  0  0  0  0  0  0  0  0  0
    9.9217    7.5673    1.6654 H   0  0  0  0  0  0  0  0  0  0  0  0
   -0.4659    5.9030    3.5620 N   0  3  0  0  0  0  0  0  0  0  0  0
   -0.0873    6.0357    2.6168 H   0  0  0  0  0  0  0  0  0  0  0  0
  1  2  1  0  0  0  0
  1 33  1  0  0  0  0
  1 34  1  0  0  0  0
  1 35  1  0  0  0  0
  2  3  1  0  0  0  0
  3  8  2  0  0  0  0
  3  4  1  0  0  0  0
  4  5  2  0  0  0  0
  4 36  1  0  0  0  0
  5  6  1  0  0  0  0
  5 37  1  0  0  0  0
  6  7  2  0  0  0  0
  6 38  1  0  0  0  0
  7 11  1  0  0  0  0
  7  8  1  0  0  0  0
  8  9  1  0  0  0  0
  9 10  2  0  0  0  0
  9 39  1  0  0  0  0
 10 11  1  0  0  0  0
 10 22  1  0  0  0  0
 11 12  1  0  0  0  0
 12 13  1  0  0  0  0
 12 40  1  0  0  0  0
 12 41  1  0  0  0  0
 13 18  2  0  0  0  0
 13 14  1  0  0  0  0
 14 15  2  0  0  0  0
 14 42  1  0  0  0  0
 15 16  1  0  0  0  0
 15 43  1  0  0  0  0
 16 17  2  0  0  0  0
 16 44  1  0  0  0  0
 17 18  1  0  0  0  0
 17 19  1  0  0  0  0
 18 45  1  0  0  0  0
 19 21  1  0  0  0  0
 19 56  2  0  0  0  0
 20 56  1  0  0  0  0
 21 46  1  0  0  0  0
 21 47  1  0  0  0  0
 22 23  2  0  0  0  0
 22 24  1  0  0  0  0
 24 25  1  0  0  0  0
 24 48  1  0  0  0  0
 25 26  1  0  0  0  0
 25 49  1  0  0  0  0
 25 50  1  0  0  0  0
 26 31  2  0  0  0  0
 26 27  1  0  0  0  0
 27 28  2  0  0  0  0
 27 51  1  0  0  0  0
 28 29  1  0  0  0  0
 28 52  1  0  0  0  0
 29 30  2  0  0  0  0
 29 32  1  0  0  0  0
 30 31  1  0  0  0  0
 30 53  1  0  0  0  0
 31 54  1  0  0  0  0
 32 55  1  0  0  0  0
 56 57  1  0  0  0  0
M  CHG  1  56   1
M  END
$$$$
ZINC04631055
  -OEChem-08230709403D

 65 69  0     1  0  0  0  0  0999 V2000
    5.4336    1.7344   -7.1654 C   0  0  0  0  0  0  0  0  0  0  0  0
    4.5315    2.3363   -6.2348 O   0  0  0  0  0  0  0  0  0  0  0  0
    4.6407    1.9556   -4.9361 C   0  0  0  0  0  0  0  0  0  0  0  0
    5.5906    1.0258   -4.5623 C   0  0  0  0  0  0  0  0  0  0  0  0
    5.7052    0.6331   -3.2366 C   0  0  0  0  0  0  0  0  0  0  0  0
    4.8766    1.1626   -2.2716 C   0  0  0  0  0  0  0  0  0  0  0  0
    3.9144    2.1059   -2.6195 C   0  0  0  0  0  0  0  0  0  0  0  0
    3.7871    2.5052   -3.9641 C   0  0  0  0  0  0  0  0  0  0  0  0
    2.7392    3.4535   -4.0173 C   0  0  0  0  0  0  0  0  0  0  0  0
    2.2567    3.6092   -2.7559 C   0  0  0  0  0  0  0  0  0  0  0  0
    2.9645    2.7888   -1.8965 N   0  0  0  0  0  0  0  0  0  0  0  0
    2.7430    2.6714   -0.4531 C   0  0  0  0  0  0  0  0  0  0  0  0
    3.6533    3.6272    0.2742 C   0  0  0  0  0  0  0  0  0  0  0  0
    3.2274    4.9157    0.5444 C   0  0  0  0  0  0  0  0  0  0  0  0
    4.0569    5.7986    1.2119 C   0  0  0  0  0  0  0  0  0  0  0  0
    5.3178    5.4005    1.6070 C   0  0  0  0  0  0  0  0  0  0  0  0
    5.7506    4.1016    1.3426 C   0  0  0  0  0  0  0  0  0  0  0  0
    4.9094    3.2157    0.6696 C   0  0  0  0  0  0  0  0  0  0  0  0
    7.1000    3.6661    1.7696 C   0  0  0  0  0  0  0  0  0  0  0  0
    8.3698    2.0749    1.7563 H   0  0  0  0  0  0  0  0  0  0  0  0
    7.9287    4.5435    2.4344 N   0  0  0  0  0  0  0  0  0  0  0  0
    1.1595    4.5058   -2.3679 C   0  0  0  0  0  0  0  0  0  0  0  0
    0.7403    4.4953   -1.2257 O   0  0  0  0  0  0  0  0  0  0  0  0
    0.6171    5.3398   -3.2770 N   0  0  0  0  0  0  0  0  0  0  0  0
   -0.5471    6.1548   -2.9209 C   0  0  1  0  0  0  0  0  0  0  0  0
   -0.4730    6.4571   -1.8763 H   0  0  0  0  0  0  0  0  0  0  0  0
   -0.5893    7.3803   -3.7968 C   0  0  0  0  0  0  0  0  0  0  0  0
   -0.2646    7.2835   -5.1370 C   0  0  0  0  0  0  0  0  0  0  0  0
   -0.3076    8.4068   -5.9414 C   0  0  0  0  0  0  0  0  0  0  0  0
   -0.6660    9.6288   -5.4036 C   0  0  0  0  0  0  0  0  0  0  0  0
   -0.9861    9.7265   -4.0623 C   0  0  0  0  0  0  0  0  0  0  0  0
   -0.9472    8.6024   -3.2589 C   0  0  0  0  0  0  0  0  0  0  0  0
   -1.8047    5.3494   -3.1228 C   0  0  0  0  0  0  0  0  0  0  0  0
   -1.9446    4.5150   -4.2213 C   0  0  0  0  0  0  0  0  0  0  0  0
   -3.1106    3.7885   -4.3710 C   0  0  0  0  0  0  0  0  0  0  0  0
   -4.0863    3.8897   -3.4897 N   0  0  0  0  0  0  0  0  0  0  0  0
   -3.9900    4.6766   -2.4359 C   0  0  0  0  0  0  0  0  0  0  0  0
   -2.8519    5.4296   -2.2175 C   0  0  0  0  0  0  0  0  0  0  0  0
    5.2397    2.1252   -8.1642 H   0  0  0  0  0  0  0  0  0  0  0  0
    6.4595    1.9647   -6.8778 H   0  0  0  0  0  0  0  0  0  0  0  0
    5.2898    0.6539   -7.1637 H   0  0  0  0  0  0  0  0  0  0  0  0
    6.2482    0.6014   -5.3065 H   0  0  0  0  0  0  0  0  0  0  0  0
    6.4523   -0.0952   -2.9579 H   0  0  0  0  0  0  0  0  0  0  0  0
    4.9770    0.8486   -1.2430 H   0  0  0  0  0  0  0  0  0  0  0  0
    2.3853    3.9623   -4.9016 H   0  0  0  0  0  0  0  0  0  0  0  0
    2.9579    1.6514   -0.1344 H   0  0  0  0  0  0  0  0  0  0  0  0
    1.7051    2.9126   -0.2240 H   0  0  0  0  0  0  0  0  0  0  0  0
    2.2431    5.2332    0.2332 H   0  0  0  0  0  0  0  0  0  0  0  0
    3.7188    6.8029    1.4203 H   0  0  0  0  0  0  0  0  0  0  0  0
    5.9664    6.0922    2.1241 H   0  0  0  0  0  0  0  0  0  0  0  0
    5.2407    2.2098    0.4580 H   0  0  0  0  0  0  0  0  0  0  0  0
    7.6283    5.4464    2.6225 H   0  0  0  0  0  0  0  0  0  0  0  0
    8.8126    4.2583    2.7141 H   0  0  0  0  0  0  0  0  0  0  0  0
    0.9976    5.4005   -4.1672 H   0  0  0  0  0  0  0  0  0  0  0  0
    0.0193    6.3296   -5.5563 H   0  0  0  0  0  0  0  0  0  0  0  0
   -0.0579    8.3305   -6.9894 H   0  0  0  0  0  0  0  0  0  0  0  0
   -0.6963   10.5071   -6.0314 H   0  0  0  0  0  0  0  0  0  0  0  0
   -1.2661   10.6812   -3.6422 H   0  0  0  0  0  0  0  0  0  0  0  0
   -1.1969    8.6788   -2.2109 H   0  0  0  0  0  0  0  0  0  0  0  0
   -1.1508    4.4313   -4.9488 H   0  0  0  0  0  0  0  0  0  0  0  0
   -3.2260    3.1338   -5.2221 H   0  0  0  0  0  0  0  0  0  0  0  0
   -4.8100    4.7334   -1.7354 H   0  0  0  0  0  0  0  0  0  0  0  0
   -2.7789    6.0722   -1.3525 H   0  0  0  0  0  0  0  0  0  0  0  0
    7.4502    2.4219    1.4830 N   0  3  0  0  0  0  0  0  0  0  0  0
    6.7963    1.8061    0.9855 H   0  0  0  0  0  0  0  0  0  0  0  0
  1  2  1  0  0  0  0
  1 39  1  0  0  0  0
  1 40  1  0  0  0  0
  1 41  1  0  0  0  0
  2  3  1  0  0  0  0
  3  8  2  0  0  0  0
  3  4  1  0  0  0  0
  4  5  2  0  0  0  0
  4 42  1  0  0  0  0
  5  6  1  0  0  0  0
  5 43  1  0  0  0  0
  6  7  2  0  0  0  0
  6 44  1  0  0  0  0
  7 11  1  0  0  0  0
  7  8  1  0  0  0  0
  8  9  1  0  0  0  0
  9 10  2  0  0  0  0
  9 45  1  0  0  0  0
 10 11  1  0  0  0  0
 10 22  1  0  0  0  0
 11 12  1  0  0  0  0
 12 13  1  0  0  0  0
 12 46  1  0  0  0  0
 12 47  1  0  0  0  0
 13 18  2  0  0  0  0
 13 14  1  0  0  0  0
 14 15  2  0  0  0  0
 14 48  1  0  0  0  0
 15 16  1  0  0  0  0
 15 49  1  0  0  0  0
 16 17  2  0  0  0  0
 16 50  1  0  0  0  0
 17 18  1  0  0  0  0
 17 19  1  0  0  0  0
 18 51  1  0  0  0  0
 19 21  1  0  0  0  0
 19 64  2  0  0  0  0
 20 64  1  0  0  0  0
 21 52  1  0  0  0  0
 21 53  1  0  0  0  0
 22 23  2  0  0  0  0
 22 24  1  0  0  0  0
 24 25  1  0  0  0  0
 24 54  1  0  0  0  0
 25 26  1  0  0  0  0
 25 27  1  0  0  0  0
 25 33  1  0  0  0  0
 27 32  2  0  0  0  0
 27 28  1  0  0  0  0
 28 29  2  0  0  0  0
 28 55  1  0  0  0  0
 29 30  1  0  0  0  0
 29 56  1  0  0  0  0
 30 31  2  0  0  0  0
 30 57  1  0  0  0  0
 31 32  1  0  0  0  0
 31 58  1  0  0  0  0
 32 59  1  0  0  0  0
 33 38  2  0  0  0  0
 33 34  1  0  0  0  0
 34 35  2  0  0  0  0
 34 60  1  0  0  0  0
 35 36  1  0  0  0  0
 35 61  1  0  0  0  0
 36 37  2  0  0  0  0
 37 38  1  0  0  0  0
 37 62  1  0  0  0  0
 38 63  1  0  0  0  0
 64 65  1  0  0  0  0
M  CHG  1  64   1
M  END
$$$$
ZINC04631056
  -OEChem-08230709403D

 42 44  0     0  0  0  0  0  0999 V2000
    5.7587    2.1759    0.6855 C   0  0  0  0  0  0  0  0  0  0  0  0
    4.4796    3.4421    0.4934 S   0  0  0  0  0  0  0  0  0  0  0  0
    4.8964    4.0582   -1.1039 C   0  0  0  0  0  0  0  0  0  0  0  0
    5.8407    3.5872   -1.7105 O   0  0  0  0  0  0  0  0  0  0  0  0
    4.1041    5.1404   -1.7036 C   0  0  0  0  0  0  0  0  0  0  0  0
    4.3977    5.7818   -2.8655 C   0  0  0  0  0  0  0  0  0  0  0  0
    3.3948    6.7545   -3.0863 C   0  0  0  0  0  0  0  0  0  0  0  0
    2.4883    6.6635   -2.0124 C   0  0  0  0  0  0  0  0  0  0  0  0
    2.9385    5.6668   -1.1782 N   0  0  0  0  0  0  0  0  0  0  0  0
    2.2929    5.2381    0.0650 C   0  0  0  0  0  0  0  0  0  0  0  0
    1.2406    4.2051   -0.2457 C   0  0  0  0  0  0  0  0  0  0  0  0
    1.6013    2.8794   -0.4087 C   0  0  0  0  0  0  0  0  0  0  0  0
    0.6411    1.9255   -0.6935 C   0  0  0  0  0  0  0  0  0  0  0  0
   -0.6831    2.2924   -0.8230 C   0  0  0  0  0  0  0  0  0  0  0  0
   -1.0536    3.6261   -0.6543 C   0  0  0  0  0  0  0  0  0  0  0  0
   -0.0808    4.5833   -0.3666 C   0  0  0  0  0  0  0  0  0  0  0  0
   -2.4736    4.0254   -0.7854 C   0  0  0  0  0  0  0  0  0  0  0  0
   -3.7203    5.6324   -0.6986 H   0  0  0  0  0  0  0  0  0  0  0  0
   -3.4323    3.0775   -1.0695 N   0  0  0  0  0  0  0  0  0  0  0  0
    1.3874    7.5137   -1.9693 C   0  0  0  0  0  0  0  0  0  0  0  0
    1.1881    8.4367   -2.9724 C   0  0  0  0  0  0  0  0  0  0  0  0
    2.0763    8.5330   -4.0338 C   0  0  0  0  0  0  0  0  0  0  0  0
    3.1771    7.7020   -4.1013 C   0  0  0  0  0  0  0  0  0  0  0  0
    4.0435    7.7993   -5.1422 O   0  0  0  0  0  0  0  0  0  0  0  0
    5.6634    1.4391   -0.1122 H   0  0  0  0  0  0  0  0  0  0  0  0
    6.7425    2.6424    0.6335 H   0  0  0  0  0  0  0  0  0  0  0  0
    5.6406    1.6837    1.6508 H   0  0  0  0  0  0  0  0  0  0  0  0
    5.2467    5.5863   -3.5038 H   0  0  0  0  0  0  0  0  0  0  0  0
    1.8272    6.0974    0.5477 H   0  0  0  0  0  0  0  0  0  0  0  0
    3.0394    4.8070    0.7321 H   0  0  0  0  0  0  0  0  0  0  0  0
    2.6369    2.5881   -0.3128 H   0  0  0  0  0  0  0  0  0  0  0  0
    0.9287    0.8921   -0.8194 H   0  0  0  0  0  0  0  0  0  0  0  0
   -1.4313    1.5474   -1.0499 H   0  0  0  0  0  0  0  0  0  0  0  0
   -0.3612    5.6184   -0.2393 H   0  0  0  0  0  0  0  0  0  0  0  0
   -3.1772    2.1486   -1.1838 H   0  0  0  0  0  0  0  0  0  0  0  0
   -4.3624    3.3390   -1.1554 H   0  0  0  0  0  0  0  0  0  0  0  0
    0.6882    7.4494   -1.1487 H   0  0  0  0  0  0  0  0  0  0  0  0
    0.3311    9.0929   -2.9320 H   0  0  0  0  0  0  0  0  0  0  0  0
    1.9061    9.2624   -4.8118 H   0  0  0  0  0  0  0  0  0  0  0  0
    3.8192    7.2350   -5.8947 H   0  0  0  0  0  0  0  0  0  0  0  0
   -2.7565    5.3080   -0.6182 N   0  3  0  0  0  0  0  0  0  0  0  0
   -2.0058    5.9761   -0.4076 H   0  0  0  0  0  0  0  0  0  0  0  0
  1  2  1  0  0  0  0
  1 25  1  0  0  0  0
  1 26  1  0  0  0  0
  1 27  1  0  0  0  0
  2  3  1  0  0  0  0
  3  4  2  0  0  0  0
  3  5  1  0  0  0  0
  5  9  1  0  0  0  0
  5  6  2  0  0  0  0
  6  7  1  0  0  0  0
  6 28  1  0  0  0  0
  7 23  2  0  0  0  0
  7  8  1  0  0  0  0
  8  9  1  0  0  0  0
  8 20  2  0  0  0  0
  9 10  1  0  0  0  0
 10 11  1  0  0  0  0
 10 29  1  0  0  0  0
 10 30  1  0  0  0  0
 11 16  2  0  0  0  0
 11 12  1  0  0  0  0
 12 13  2  0  0  0  0
 12 31  1  0  0  0  0
 13 14  1  0  0  0  0
 13 32  1  0  0  0  0
 14 15  2  0  0  0  0
 14 33  1  0  0  0  0
 15 16  1  0  0  0  0
 15 17  1  0  0  0  0
 16 34  1  0  0  0  0
 17 19  1  0  0  0  0
 17 41  2  0  0  0  0
 18 41  1  0  0  0  0
 19 35  1  0  0  0  0
 19 36  1  0  0  0  0
 20 21  1  0  0  0  0
 20 37  1  0  0  0  0
 21 22  2  0  0  0  0
 21 38  1  0  0  0  0
 22 23  1  0  0  0  0
 22 39  1  0  0  0  0
 23 24  1  0  0  0  0
 24 40  1  0  0  0  0
 41 42  1  0  0  0  0
M  CHG  1  41   1
M  END
$$$$
ZINC04631060
  -OEChem-08230709403D

 56 59  0     1  0  0  0  0  0999 V2000
   -1.1498    7.5955    0.8935 C   0  0  0  0  0  0  0  0  0  0  0  0
   -0.6606    8.4136   -0.3033 C   0  0  1  0  0  0  0  0  0  0  0  0
   -1.4595    8.4917   -1.0407 H   0  0  0  0  0  0  0  0  0  0  0  0
   -0.2666    9.7930    0.1584 C   0  0  0  0  0  0  0  0  0  0  0  0
    1.0475   10.0601    0.4944 C   0  0  0  0  0  0  0  0  0  0  0  0
    1.4096   11.3248    0.9179 C   0  0  0  0  0  0  0  0  0  0  0  0
    0.4568   12.3244    1.0063 C   0  0  0  0  0  0  0  0  0  0  0  0
   -0.8580   12.0577    0.6703 C   0  0  0  0  0  0  0  0  0  0  0  0
   -1.2189   10.7931    0.2406 C   0  0  0  0  0  0  0  0  0  0  0  0
   -2.8676   10.4594   -0.1887 Cl  0  0  0  0  0  0  0  0  0  0  0  0
    0.9119   13.9130    1.5383 Cl  0  0  0  0  0  0  0  0  0  0  0  0
    0.4982    7.7511   -0.9068 N   0  0  0  0  0  0  0  0  0  0  0  0
    0.9070    8.1015   -2.1424 C   0  0  0  0  0  0  0  0  0  0  0  0
    0.3578    9.0155   -2.7284 O   0  0  0  0  0  0  0  0  0  0  0  0
    2.0155    7.3798   -2.7817 C   0  0  0  0  0  0  0  0  0  0  0  0
    2.4241    7.5416   -4.0681 C   0  0  0  0  0  0  0  0  0  0  0  0
    3.5134    6.6669   -4.2878 C   0  0  0  0  0  0  0  0  0  0  0  0
    3.7419    5.9807   -3.0793 C   0  0  0  0  0  0  0  0  0  0  0  0
    2.8107    6.4274   -2.1710 N   0  0  0  0  0  0  0  0  0  0  0  0
    2.6860    5.9739   -0.7836 C   0  0  0  0  0  0  0  0  0  0  0  0
    1.7924    4.7617   -0.7298 C   0  0  0  0  0  0  0  0  0  0  0  0
    2.3482    3.4950   -0.6981 C   0  0  0  0  0  0  0  0  0  0  0  0
    1.5345    2.3775   -0.6483 C   0  0  0  0  0  0  0  0  0  0  0  0
    0.1618    2.5201   -0.6360 C   0  0  0  0  0  0  0  0  0  0  0  0
   -0.4042    3.7941   -0.6620 C   0  0  0  0  0  0  0  0  0  0  0  0
    0.4216    4.9171   -0.7117 C   0  0  0  0  0  0  0  0  0  0  0  0
   -1.8762    3.9542   -0.6424 C   0  0  0  0  0  0  0  0  0  0  0  0
   -3.3583    5.3415   -0.7946 H   0  0  0  0  0  0  0  0  0  0  0  0
   -2.6865    2.8540   -0.4652 N   0  0  0  0  0  0  0  0  0  0  0  0
    4.7719    5.0480   -3.0034 C   0  0  0  0  0  0  0  0  0  0  0  0
    5.5630    4.8018   -4.1041 C   0  0  0  0  0  0  0  0  0  0  0  0
    5.3468    5.4758   -5.2974 C   0  0  0  0  0  0  0  0  0  0  0  0
    4.3271    6.4010   -5.4025 C   0  0  0  0  0  0  0  0  0  0  0  0
    4.1202    7.0594   -6.5719 O   0  0  0  0  0  0  0  0  0  0  0  0
   -0.3831    7.5912    1.6684 H   0  0  0  0  0  0  0  0  0  0  0  0
   -2.0631    8.0401    1.2887 H   0  0  0  0  0  0  0  0  0  0  0  0
   -1.3514    6.5724    0.5763 H   0  0  0  0  0  0  0  0  0  0  0  0
    1.7913    9.2801    0.4262 H   0  0  0  0  0  0  0  0  0  0  0  0
    2.4363   11.5329    1.1802 H   0  0  0  0  0  0  0  0  0  0  0  0
   -1.6021   12.8376    0.7389 H   0  0  0  0  0  0  0  0  0  0  0  0
    0.9713    7.0602   -0.4173 H   0  0  0  0  0  0  0  0  0  0  0  0
    1.9936    8.2171   -4.7927 H   0  0  0  0  0  0  0  0  0  0  0  0
    2.2542    6.7708   -0.1782 H   0  0  0  0  0  0  0  0  0  0  0  0
    3.6716    5.7163   -0.3956 H   0  0  0  0  0  0  0  0  0  0  0  0
    3.4219    3.3783   -0.7120 H   0  0  0  0  0  0  0  0  0  0  0  0
    1.9742    1.3915   -0.6233 H   0  0  0  0  0  0  0  0  0  0  0  0
   -0.4725    1.6468   -0.6015 H   0  0  0  0  0  0  0  0  0  0  0  0
   -0.0111    5.9063   -0.7365 H   0  0  0  0  0  0  0  0  0  0  0  0
   -2.2927    1.9746   -0.3532 H   0  0  0  0  0  0  0  0  0  0  0  0
   -3.6507    2.9588   -0.4524 H   0  0  0  0  0  0  0  0  0  0  0  0
    4.9511    4.5163   -2.0805 H   0  0  0  0  0  0  0  0  0  0  0  0
    6.3600    4.0760   -4.0374 H   0  0  0  0  0  0  0  0  0  0  0  0
    5.9760    5.2712   -6.1509 H   0  0  0  0  0  0  0  0  0  0  0  0
    4.6199    7.8832   -6.6532 H   0  0  0  0  0  0  0  0  0  0  0  0
   -2.3510    5.1800   -0.8006 N   0  3  0  0  0  0  0  0  0  0  0  0
   -1.7055    5.9680   -0.9293 H   0  0  0  0  0  0  0  0  0  0  0  0
  1  2  1  0  0  0  0
  1 35  1  0  0  0  0
  1 36  1  0  0  0  0
  1 37  1  0  0  0  0
  2  3  1  0  0  0  0
  2  4  1  0  0  0  0
  2 12  1  0  0  0  0
  4  9  2  0  0  0  0
  4  5  1  0  0  0  0
  5  6  2  0  0  0  0
  5 38  1  0  0  0  0
  6  7  1  0  0  0  0
  6 39  1  0  0  0  0
  7  8  2  0  0  0  0
  7 11  1  0  0  0  0
  8  9  1  0  0  0  0
  8 40  1  0  0  0  0
  9 10  1  0  0  0  0
 12 13  1  0  0  0  0
 12 41  1  0  0  0  0
 13 14  2  0  0  0  0
 13 15  1  0  0  0  0
 15 19  1  0  0  0  0
 15 16  2  0  0  0  0
 16 17  1  0  0  0  0
 16 42  1  0  0  0  0
 17 33  2  0  0  0  0
 17 18  1  0  0  0  0
 18 19  1  0  0  0  0
 18 30  2  0  0  0  0
 19 20  1  0  0  0  0
 20 21  1  0  0  0  0
 20 43  1  0  0  0  0
 20 44  1  0  0  0  0
 21 26  2  0  0  0  0
 21 22  1  0  0  0  0
 22 23  2  0  0  0  0
 22 45  1  0  0  0  0
 23 24  1  0  0  0  0
 23 46  1  0  0  0  0
 24 25  2  0  0  0  0
 24 47  1  0  0  0  0
 25 26  1  0  0  0  0
 25 27  1  0  0  0  0
 26 48  1  0  0  0  0
 27 29  1  0  0  0  0
 27 55  2  0  0  0  0
 28 55  1  0  0  0  0
 29 49  1  0  0  0  0
 29 50  1  0  0  0  0
 30 31  1  0  0  0  0
 30 51  1  0  0  0  0
 31 32  2  0  0  0  0
 31 52  1  0  0  0  0
 32 33  1  0  0  0  0
 32 53  1  0  0  0  0
 33 34  1  0  0  0  0
 34 54  1  0  0  0  0
 55 56  1  0  0  0  0
M  CHG  1  55   1
M  END
$$$$
ZINC04631061
  -OEChem-08230709403D

 69 73  0     1  0  0  0  0  0999 V2000
   -1.6991    4.8075   -1.6859 C   0  0  0  0  0  0  0  0  0  0  0  0
   -0.4036    5.4858   -1.2360 C   0  0  1  0  0  0  0  0  0  0  0  0
   -0.2613    6.4077   -1.7999 H   0  0  0  0  0  0  0  0  0  0  0  0
   -0.4877    5.8043    0.2346 C   0  0  0  0  0  0  0  0  0  0  0  0
   -0.2596    4.8131    1.1707 C   0  0  0  0  0  0  0  0  0  0  0  0
   -0.3325    5.1064    2.5195 C   0  0  0  0  0  0  0  0  0  0  0  0
   -0.6430    6.3886    2.9323 C   0  0  0  0  0  0  0  0  0  0  0  0
   -0.8759    7.3786    1.9962 C   0  0  0  0  0  0  0  0  0  0  0  0
   -0.7988    7.0864    0.6474 C   0  0  0  0  0  0  0  0  0  0  0  0
    0.7276    4.5865   -1.4769 N   0  0  0  0  0  0  0  0  0  0  0  0
    1.3735    4.6180   -2.6593 C   0  0  0  0  0  0  0  0  0  0  0  0
    1.0972    5.4715   -3.4809 O   0  0  0  0  0  0  0  0  0  0  0  0
    2.4125    3.6206   -2.9563 C   0  0  0  0  0  0  0  0  0  0  0  0
    3.0745    3.5003   -4.1369 C   0  0  0  0  0  0  0  0  0  0  0  0
    3.9863    2.4243   -4.0128 C   0  0  0  0  0  0  0  0  0  0  0  0
    4.9167    1.8473   -4.8877 C   0  0  0  0  0  0  0  0  0  0  0  0
    5.6804    0.7804   -4.4651 C   0  0  0  0  0  0  0  0  0  0  0  0
    5.5316    0.2749   -3.1747 C   0  0  0  0  0  0  0  0  0  0  0  0
    4.6221    0.8315   -2.3049 C   0  0  0  0  0  0  0  0  0  0  0  0
    3.8442    1.9130   -2.7085 C   0  0  0  0  0  0  0  0  0  0  0  0
    2.8707    2.6565   -2.0799 N   0  0  0  0  0  0  0  0  0  0  0  0
    2.4025    2.4611   -0.7056 C   0  0  0  0  0  0  0  0  0  0  0  0
    3.1699    3.3692    0.2205 C   0  0  0  0  0  0  0  0  0  0  0  0
    2.7594    4.6782    0.4004 C   0  0  0  0  0  0  0  0  0  0  0  0
    3.4584    5.5176    1.2490 C   0  0  0  0  0  0  0  0  0  0  0  0
    4.5739    5.0551    1.9170 C   0  0  0  0  0  0  0  0  0  0  0  0
    4.9891    3.7352    1.7442 C   0  0  0  0  0  0  0  0  0  0  0  0
    4.2799    2.8935    0.8874 C   0  0  0  0  0  0  0  0  0  0  0  0
    6.1815    3.2308    2.4631 C   0  0  0  0  0  0  0  0  0  0  0  0
    7.4018    1.6112    2.6420 H   0  0  0  0  0  0  0  0  0  0  0  0
    6.8184    4.0304    3.3868 N   0  0  0  0  0  0  0  0  0  0  0  0
    6.5840    0.2182   -5.3116 O   0  0  0  0  0  0  0  0  0  0  0  0
    7.3432   -0.8842   -4.8112 C   0  0  0  0  0  0  0  0  0  0  0  0
    8.2851   -1.3724   -5.8814 C   0  0  0  0  0  0  0  0  0  0  0  0
    7.8794   -2.3573   -6.7624 C   0  0  0  0  0  0  0  0  0  0  0  0
    8.7416   -2.8015   -7.7474 C   0  0  0  0  0  0  0  0  0  0  0  0
   10.0134   -2.2685   -7.8446 C   0  0  0  0  0  0  0  0  0  0  0  0
   10.4211   -1.2876   -6.9600 C   0  0  0  0  0  0  0  0  0  0  0  0
    9.5569   -0.8394   -5.9786 C   0  0  0  0  0  0  0  0  0  0  0  0
   -1.8873    3.9336   -1.0621 H   0  0  0  0  0  0  0  0  0  0  0  0
   -2.5285    5.5081   -1.5894 H   0  0  0  0  0  0  0  0  0  0  0  0
   -1.6045    4.4975   -2.7266 H   0  0  0  0  0  0  0  0  0  0  0  0
   -0.0208    3.8104    0.8481 H   0  0  0  0  0  0  0  0  0  0  0  0
   -0.1501    4.3329    3.2510 H   0  0  0  0  0  0  0  0  0  0  0  0
   -0.7034    6.6168    3.9863 H   0  0  0  0  0  0  0  0  0  0  0  0
   -1.1187    8.3804    2.3187 H   0  0  0  0  0  0  0  0  0  0  0  0
   -0.9811    7.8599   -0.0840 H   0  0  0  0  0  0  0  0  0  0  0  0
    1.0116    3.9685   -0.7853 H   0  0  0  0  0  0  0  0  0  0  0  0
    2.9306    4.1152   -5.0130 H   0  0  0  0  0  0  0  0  0  0  0  0
    5.0345    2.2364   -5.8883 H   0  0  0  0  0  0  0  0  0  0  0  0
    6.1355   -0.5614   -2.8548 H   0  0  0  0  0  0  0  0  0  0  0  0
    4.5153    0.4321   -1.3072 H   0  0  0  0  0  0  0  0  0  0  0  0
    2.5618    1.4237   -0.4115 H   0  0  0  0  0  0  0  0  0  0  0  0
    1.3398    2.6964   -0.6469 H   0  0  0  0  0  0  0  0  0  0  0  0
    1.8896    5.0460   -0.1237 H   0  0  0  0  0  0  0  0  0  0  0  0
    3.1330    6.5384    1.3857 H   0  0  0  0  0  0  0  0  0  0  0  0
    5.1214    5.7127    2.5760 H   0  0  0  0  0  0  0  0  0  0  0  0
    4.5992    1.8715    0.7463 H   0  0  0  0  0  0  0  0  0  0  0  0
    6.4858    4.9237    3.5662 H   0  0  0  0  0  0  0  0  0  0  0  0
    7.5994    3.7000    3.8577 H   0  0  0  0  0  0  0  0  0  0  0  0
    7.9163   -0.5653   -3.9407 H   0  0  0  0  0  0  0  0  0  0  0  0
    6.6678   -1.6908   -4.5261 H   0  0  0  0  0  0  0  0  0  0  0  0
    6.8873   -2.7770   -6.6838 H   0  0  0  0  0  0  0  0  0  0  0  0
    8.4229   -3.5677   -8.4388 H   0  0  0  0  0  0  0  0  0  0  0  0
   10.6883   -2.6181   -8.6118 H   0  0  0  0  0  0  0  0  0  0  0  0
   11.4147   -0.8711   -7.0359 H   0  0  0  0  0  0  0  0  0  0  0  0
    9.8754   -0.0730   -5.2874 H   0  0  0  0  0  0  0  0  0  0  0  0
    6.5851    2.0036    2.1732 N   0  3  0  0  0  0  0  0  0  0  0  0
    6.0762    1.4469    1.4766 H   0  0  0  0  0  0  0  0  0  0  0  0
  1  2  1  0  0  0  0
  1 40  1  0  0  0  0
  1 41  1  0  0  0  0
  1 42  1  0  0  0  0
  2  3  1  0  0  0  0
  2  4  1  0  0  0  0
  2 10  1  0  0  0  0
  4  9  2  0  0  0  0
  4  5  1  0  0  0  0
  5  6  2  0  0  0  0
  5 43  1  0  0  0  0
  6  7  1  0  0  0  0
  6 44  1  0  0  0  0
  7  8  2  0  0  0  0
  7 45  1  0  0  0  0
  8  9  1  0  0  0  0
  8 46  1  0  0  0  0
  9 47  1  0  0  0  0
 10 11  1  0  0  0  0
 10 48  1  0  0  0  0
 11 12  2  0  0  0  0
 11 13  1  0  0  0  0
 13 21  1  0  0  0  0
 13 14  2  0  0  0  0
 14 15  1  0  0  0  0
 14 49  1  0  0  0  0
 15 20  2  0  0  0  0
 15 16  1  0  0  0  0
 16 17  2  0  0  0  0
 16 50  1  0  0  0  0
 17 18  1  0  0  0  0
 17 32  1  0  0  0  0
 18 19  2  0  0  0  0
 18 51  1  0  0  0  0
 19 20  1  0  0  0  0
 19 52  1  0  0  0  0
 20 21  1  0  0  0  0
 21 22  1  0  0  0  0
 22 23  1  0  0  0  0
 22 53  1  0  0  0  0
 22 54  1  0  0  0  0
 23 28  2  0  0  0  0
 23 24  1  0  0  0  0
 24 25  2  0  0  0  0
 24 55  1  0  0  0  0
 25 26  1  0  0  0  0
 25 56  1  0  0  0  0
 26 27  2  0  0  0  0
 26 57  1  0  0  0  0
 27 28  1  0  0  0  0
 27 29  1  0  0  0  0
 28 58  1  0  0  0  0
 29 31  1  0  0  0  0
 29 68  2  0  0  0  0
 30 68  1  0  0  0  0
 31 59  1  0  0  0  0
 31 60  1  0  0  0  0
 32 33  1  0  0  0  0
 33 34  1  0  0  0  0
 33 61  1  0  0  0  0
 33 62  1  0  0  0  0
 34 39  2  0  0  0  0
 34 35  1  0  0  0  0
 35 36  2  0  0  0  0
 35 63  1  0  0  0  0
 36 37  1  0  0  0  0
 36 64  1  0  0  0  0
 37 38  2  0  0  0  0
 37 65  1  0  0  0  0
 38 39  1  0  0  0  0
 38 66  1  0  0  0  0
 39 67  1  0  0  0  0
 68 69  1  0  0  0  0
M  CHG  1  68   1
M  END
$$$$
ZINC04631063
  -OEChem-08230709403D

 44 46  0     0  0  0  0  0  0999 V2000
    4.5313   -4.0784   -4.5575 C   0  0  0  0  0  0  0  0  0  0  0  0
    3.5480   -3.9911   -3.4189 C   0  0  0  0  0  0  0  0  0  0  0  0
    2.2070   -4.4440   -3.4373 C   0  0  0  0  0  0  0  0  0  0  0  0
    1.4141   -5.0637   -4.4123 C   0  0  0  0  0  0  0  0  0  0  0  0
    0.1206   -5.3912   -4.1274 C   0  0  0  0  0  0  0  0  0  0  0  0
   -0.4200   -5.1166   -2.8772 C   0  0  0  0  0  0  0  0  0  0  0  0
    0.3386   -4.5085   -1.9027 C   0  0  0  0  0  0  0  0  0  0  0  0
    1.6627   -4.1690   -2.1674 C   0  0  0  0  0  0  0  0  0  0  0  0
    2.6457   -3.5639   -1.4210 N   0  0  0  0  0  0  0  0  0  0  0  0
    3.7897   -3.4631   -2.1896 C   0  0  0  0  0  0  0  0  0  0  0  0
    5.0634   -2.8791   -1.7488 C   0  0  0  0  0  0  0  0  0  0  0  0
    6.0104   -2.8411   -2.5101 O   0  0  0  0  0  0  0  0  0  0  0  0
    5.1822   -2.3853   -0.4996 O   0  0  0  0  0  0  0  0  0  0  0  0
    6.4698   -1.8235   -0.1325 C   0  0  0  0  0  0  0  0  0  0  0  0
    2.5055   -3.1069   -0.0361 C   0  0  0  0  0  0  0  0  0  0  0  0
    2.0330   -1.6759   -0.0248 C   0  0  0  0  0  0  0  0  0  0  0  0
    0.6781   -1.3963   -0.0108 C   0  0  0  0  0  0  0  0  0  0  0  0
    0.2367   -0.0854    0.0000 C   0  0  0  0  0  0  0  0  0  0  0  0
    1.1467    0.9521   -0.0034 C   0  0  0  0  0  0  0  0  0  0  0  0
    2.5136    0.6766   -0.0176 C   0  0  0  0  0  0  0  0  0  0  0  0
    2.9525   -0.6472   -0.0280 C   0  0  0  0  0  0  0  0  0  0  0  0
    3.4953    1.7853   -0.0205 C   0  0  0  0  0  0  0  0  0  0  0  0
    5.4919    2.1827   -0.0357 H   0  0  0  0  0  0  0  0  0  0  0  0
    3.0588    3.0922   -0.0101 N   0  0  0  0  0  0  0  0  0  0  0  0
    5.0751   -5.0211   -4.4965 H   0  0  0  0  0  0  0  0  0  0  0  0
    3.9951   -4.0289   -5.5053 H   0  0  0  0  0  0  0  0  0  0  0  0
    5.2349   -3.2483   -4.4945 H   0  0  0  0  0  0  0  0  0  0  0  0
    1.8256   -5.2812   -5.3869 H   0  0  0  0  0  0  0  0  0  0  0  0
   -0.4886   -5.8688   -4.8805 H   0  0  0  0  0  0  0  0  0  0  0  0
   -1.4455   -5.3831   -2.6679 H   0  0  0  0  0  0  0  0  0  0  0  0
   -0.0908   -4.2992   -0.9341 H   0  0  0  0  0  0  0  0  0  0  0  0
    7.2389   -2.5912   -0.2184 H   0  0  0  0  0  0  0  0  0  0  0  0
    6.7079   -0.9946   -0.7991 H   0  0  0  0  0  0  0  0  0  0  0  0
    6.4292   -1.4632    0.8954 H   0  0  0  0  0  0  0  0  0  0  0  0
    3.4693   -3.1752    0.4684 H   0  0  0  0  0  0  0  0  0  0  0  0
    1.7791   -3.7334    0.4815 H   0  0  0  0  0  0  0  0  0  0  0  0
   -0.0379   -2.2049   -0.0080 H   0  0  0  0  0  0  0  0  0  0  0  0
   -0.8222    0.1266    0.0069 H   0  0  0  0  0  0  0  0  0  0  0  0
    0.8010    1.9752    0.0051 H   0  0  0  0  0  0  0  0  0  0  0  0
    4.0099   -0.8667   -0.0390 H   0  0  0  0  0  0  0  0  0  0  0  0
    2.1084    3.2860   -0.0009 H   0  0  0  0  0  0  0  0  0  0  0  0
    3.7018    3.8184   -0.0120 H   0  0  0  0  0  0  0  0  0  0  0  0
    4.7774    1.4546   -0.0332 N   0  3  0  0  0  0  0  0  0  0  0  0
    5.0524    0.4654   -0.0406 H   0  0  0  0  0  0  0  0  0  0  0  0
  1  2  1  0  0  0  0
  1 25  1  0  0  0  0
  1 26  1  0  0  0  0
  1 27  1  0  0  0  0
  2 10  2  0  0  0  0
  2  3  1  0  0  0  0
  3  8  2  0  0  0  0
  3  4  1  0  0  0  0
  4  5  2  0  0  0  0
  4 28  1  0  0  0  0
  5  6  1  0  0  0  0
  5 29  1  0  0  0  0
  6  7  2  0  0  0  0
  6 30  1  0  0  0  0
  7  8  1  0  0  0  0
  7 31  1  0  0  0  0
  8  9  1  0  0  0  0
  9 10  1  0  0  0  0
  9 15  1  0  0  0  0
 10 11  1  0  0  0  0
 11 12  2  0  0  0  0
 11 13  1  0  0  0  0
 13 14  1  0  0  0  0
 14 32  1  0  0  0  0
 14 33  1  0  0  0  0
 14 34  1  0  0  0  0
 15 16  1  0  0  0  0
 15 35  1  0  0  0  0
 15 36  1  0  0  0  0
 16 21  2  0  0  0  0
 16 17  1  0  0  0  0
 17 18  2  0  0  0  0
 17 37  1  0  0  0  0
 18 19  1  0  0  0  0
 18 38  1  0  0  0  0
 19 20  2  0  0  0  0
 19 39  1  0  0  0  0
 20 21  1  0  0  0  0
 20 22  1  0  0  0  0
 21 40  1  0  0  0  0
 22 24  1  0  0  0  0
 22 43  2  0  0  0  0
 23 43  1  0  0  0  0
 24 41  1  0  0  0  0
 24 42  1  0  0  0  0
 43 44  1  0  0  0  0
M  CHG  1  43   1
M  END
$$$$
ZINC04631064
  -OEChem-08230709403D

 59 62  0     0  0  0  0  0  0999 V2000
    8.2972   -0.5647   -5.0556 C   0  0  0  0  0  0  0  0  0  0  0  0
    8.5566    0.6107   -4.1489 C   0  0  0  0  0  0  0  0  0  0  0  0
    7.5943    1.0073   -3.2388 C   0  0  0  0  0  0  0  0  0  0  0  0
    7.8300    2.0888   -2.4111 C   0  0  0  0  0  0  0  0  0  0  0  0
    9.0320    2.7678   -2.4863 C   0  0  0  0  0  0  0  0  0  0  0  0
    9.9957    2.3686   -3.3930 C   0  0  0  0  0  0  0  0  0  0  0  0
    9.7579    1.2900   -4.2246 C   0  0  0  0  0  0  0  0  0  0  0  0
   11.3055    3.1094   -3.4756 C   0  0  0  0  0  0  0  0  0  0  0  0
   12.2260    2.5283   -2.5969 F   0  0  0  0  0  0  0  0  0  0  0  0
   11.7997    3.0385   -4.7825 F   0  0  0  0  0  0  0  0  0  0  0  0
   11.1066    4.4488   -3.1241 F   0  0  0  0  0  0  0  0  0  0  0  0
    6.7793    2.5241   -1.4225 C   0  0  0  0  0  0  0  0  0  0  0  0
    5.8998    3.5144   -2.0488 N   0  0  0  0  0  0  0  0  0  0  0  0
    4.8798    4.0485   -1.3483 C   0  0  0  0  0  0  0  0  0  0  0  0
    4.6347    3.6449   -0.2270 O   0  0  0  0  0  0  0  0  0  0  0  0
    4.0639    5.1183   -1.9387 C   0  0  0  0  0  0  0  0  0  0  0  0
    4.3010    5.7229   -3.1329 C   0  0  0  0  0  0  0  0  0  0  0  0
    3.2938    6.6958   -3.3309 C   0  0  0  0  0  0  0  0  0  0  0  0
    2.4432    6.6434   -2.2097 C   0  0  0  0  0  0  0  0  0  0  0  0
    2.9298    5.6687   -1.3702 N   0  0  0  0  0  0  0  0  0  0  0  0
    2.3466    5.2819   -0.0831 C   0  0  0  0  0  0  0  0  0  0  0  0
    1.2894    4.2313   -0.3061 C   0  0  0  0  0  0  0  0  0  0  0  0
    1.6351    2.8917   -0.2993 C   0  0  0  0  0  0  0  0  0  0  0  0
    0.6704    1.9216   -0.5029 C   0  0  0  0  0  0  0  0  0  0  0  0
   -0.6430    2.2855   -0.7203 C   0  0  0  0  0  0  0  0  0  0  0  0
   -0.9985    3.6338   -0.7226 C   0  0  0  0  0  0  0  0  0  0  0  0
   -0.0212    4.6073   -0.5164 C   0  0  0  0  0  0  0  0  0  0  0  0
   -2.4072    4.0307   -0.9489 C   0  0  0  0  0  0  0  0  0  0  0  0
   -3.6315    5.6506   -1.0951 H   0  0  0  0  0  0  0  0  0  0  0  0
   -3.3704    3.0667   -1.1523 N   0  0  0  0  0  0  0  0  0  0  0  0
    1.3506    7.5022   -2.1358 C   0  0  0  0  0  0  0  0  0  0  0  0
    1.1062    8.3977   -3.1539 C   0  0  0  0  0  0  0  0  0  0  0  0
    1.9390    8.4555   -4.2621 C   0  0  0  0  0  0  0  0  0  0  0  0
    3.0297    7.6147   -4.3613 C   0  0  0  0  0  0  0  0  0  0  0  0
    3.8419    7.6748   -5.4476 O   0  0  0  0  0  0  0  0  0  0  0  0
    8.6364   -1.4799   -4.5703 H   0  0  0  0  0  0  0  0  0  0  0  0
    7.2291   -0.6365   -5.2608 H   0  0  0  0  0  0  0  0  0  0  0  0
    8.8386   -0.4278   -5.9917 H   0  0  0  0  0  0  0  0  0  0  0  0
    6.6572    0.4741   -3.1770 H   0  0  0  0  0  0  0  0  0  0  0  0
    9.2177    3.6103   -1.8366 H   0  0  0  0  0  0  0  0  0  0  0  0
   10.5106    0.9786   -4.9336 H   0  0  0  0  0  0  0  0  0  0  0  0
    7.2615    2.9663   -0.5507 H   0  0  0  0  0  0  0  0  0  0  0  0
    6.1912    1.6601   -1.1132 H   0  0  0  0  0  0  0  0  0  0  0  0
    6.0517    3.7856   -2.9677 H   0  0  0  0  0  0  0  0  0  0  0  0
    5.1152    5.5030   -3.8074 H   0  0  0  0  0  0  0  0  0  0  0  0
    1.8970    6.1553    0.3892 H   0  0  0  0  0  0  0  0  0  0  0  0
    3.1270    4.8805    0.5634 H   0  0  0  0  0  0  0  0  0  0  0  0
    2.6624    2.6021   -0.1340 H   0  0  0  0  0  0  0  0  0  0  0  0
    0.9462    0.8774   -0.4960 H   0  0  0  0  0  0  0  0  0  0  0  0
   -1.3946    1.5273   -0.8834 H   0  0  0  0  0  0  0  0  0  0  0  0
   -0.2900    5.6533   -0.5215 H   0  0  0  0  0  0  0  0  0  0  0  0
   -3.1257    2.1281   -1.1474 H   0  0  0  0  0  0  0  0  0  0  0  0
   -4.2931    3.3267   -1.3005 H   0  0  0  0  0  0  0  0  0  0  0  0
    0.6942    7.4675   -1.2789 H   0  0  0  0  0  0  0  0  0  0  0  0
    0.2566    9.0611   -3.0891 H   0  0  0  0  0  0  0  0  0  0  0  0
    1.7329    9.1628   -5.0519 H   0  0  0  0  0  0  0  0  0  0  0  0
    3.5756    7.0902   -6.1705 H   0  0  0  0  0  0  0  0  0  0  0  0
   -2.6759    5.3272   -0.9437 N   0  3  0  0  0  0  0  0  0  0  0  0
   -1.9225    6.0070   -0.7874 H   0  0  0  0  0  0  0  0  0  0  0  0
  1  2  1  0  0  0  0
  1 36  1  0  0  0  0
  1 37  1  0  0  0  0
  1 38  1  0  0  0  0
  2  7  2  0  0  0  0
  2  3  1  0  0  0  0
  3  4  2  0  0  0  0
  3 39  1  0  0  0  0
  4  5  1  0  0  0  0
  4 12  1  0  0  0  0
  5  6  2  0  0  0  0
  5 40  1  0  0  0  0
  6  7  1  0  0  0  0
  6  8  1  0  0  0  0
  7 41  1  0  0  0  0
  8  9  1  0  0  0  0
  8 10  1  0  0  0  0
  8 11  1  0  0  0  0
 12 13  1  0  0  0  0
 12 42  1  0  0  0  0
 12 43  1  0  0  0  0
 13 14  1  0  0  0  0
 13 44  1  0  0  0  0
 14 15  2  0  0  0  0
 14 16  1  0  0  0  0
 16 20  1  0  0  0  0
 16 17  2  0  0  0  0
 17 18  1  0  0  0  0
 17 45  1  0  0  0  0
 18 34  2  0  0  0  0
 18 19  1  0  0  0  0
 19 20  1  0  0  0  0
 19 31  2  0  0  0  0
 20 21  1  0  0  0  0
 21 22  1  0  0  0  0
 21 46  1  0  0  0  0
 21 47  1  0  0  0  0
 22 27  2  0  0  0  0
 22 23  1  0  0  0  0
 23 24  2  0  0  0  0
 23 48  1  0  0  0  0
 24 25  1  0  0  0  0
 24 49  1  0  0  0  0
 25 26  2  0  0  0  0
 25 50  1  0  0  0  0
 26 27  1  0  0  0  0
 26 28  1  0  0  0  0
 27 51  1  0  0  0  0
 28 30  1  0  0  0  0
 28 58  2  0  0  0  0
 29 58  1  0  0  0  0
 30 52  1  0  0  0  0
 30 53  1  0  0  0  0
 31 32  1  0  0  0  0
 31 54  1  0  0  0  0
 32 33  2  0  0  0  0
 32 55  1  0  0  0  0
 33 34  1  0  0  0  0
 33 56  1  0  0  0  0
 34 35  1  0  0  0  0
 35 57  1  0  0  0  0
 58 59  1  0  0  0  0
M  CHG  1  58   1
M  END
$$$$
ZINC04631067
  -OEChem-08230709403D

 58 61  0     0  0  0  0  0  0999 V2000
    4.8492    3.7267   -6.2806 C   0  0  0  0  0  0  0  0  0  0  0  0
    4.7241    3.2067   -4.8717 C   0  0  0  0  0  0  0  0  0  0  0  0
    4.7684    4.0843   -3.8046 C   0  0  0  0  0  0  0  0  0  0  0  0
    4.6531    3.6075   -2.5122 C   0  0  0  0  0  0  0  0  0  0  0  0
    4.4933    2.2531   -2.2869 C   0  0  0  0  0  0  0  0  0  0  0  0
    4.4482    1.3755   -3.3540 C   0  0  0  0  0  0  0  0  0  0  0  0
    4.5686    1.8518   -4.6462 C   0  0  0  0  0  0  0  0  0  0  0  0
    4.2737   -0.1010   -3.1084 C   0  0  0  0  0  0  0  0  0  0  0  0
    2.8542   -0.4488   -3.2104 N   0  0  0  0  0  0  0  0  0  0  0  0
    2.4458   -1.7023   -2.9307 C   0  0  0  0  0  0  0  0  0  0  0  0
    3.2400   -2.5205   -2.5063 O   0  0  0  0  0  0  0  0  0  0  0  0
    1.0414   -2.0808   -3.1382 C   0  0  0  0  0  0  0  0  0  0  0  0
    0.5495   -2.7154   -4.2359 C   0  0  0  0  0  0  0  0  0  0  0  0
   -0.8426   -2.8944   -4.0423 C   0  0  0  0  0  0  0  0  0  0  0  0
   -1.8548   -3.4737   -4.8184 C   0  0  0  0  0  0  0  0  0  0  0  0
   -3.1372   -3.4980   -4.3530 C   0  0  0  0  0  0  0  0  0  0  0  0
   -3.4507   -2.9532   -3.1140 C   0  0  0  0  0  0  0  0  0  0  0  0
   -2.4735   -2.3787   -2.3327 C   0  0  0  0  0  0  0  0  0  0  0  0
   -1.1567   -2.3463   -2.7836 C   0  0  0  0  0  0  0  0  0  0  0  0
    0.0082   -1.8484   -2.2490 N   0  0  0  0  0  0  0  0  0  0  0  0
    0.1351   -1.1861   -0.9484 C   0  0  0  0  0  0  0  0  0  0  0  0
    0.3680   -2.2214    0.1218 C   0  0  0  0  0  0  0  0  0  0  0  0
    1.6592   -2.5614    0.4840 C   0  0  0  0  0  0  0  0  0  0  0  0
    1.8811   -3.5103    1.4656 C   0  0  0  0  0  0  0  0  0  0  0  0
    0.8140   -4.1241    2.0897 C   0  0  0  0  0  0  0  0  0  0  0  0
   -0.4897   -3.7856    1.7290 C   0  0  0  0  0  0  0  0  0  0  0  0
   -0.7070   -2.8276    0.7387 C   0  0  0  0  0  0  0  0  0  0  0  0
   -1.6391   -4.4398    2.3953 C   0  0  0  0  0  0  0  0  0  0  0  0
   -3.6692   -4.5847    2.3541 H   0  0  0  0  0  0  0  0  0  0  0  0
   -1.4256   -5.2976    3.4522 N   0  0  0  0  0  0  0  0  0  0  0  0
    1.5446   -3.2615   -5.7482 Br  0  0  0  0  0  0  0  0  0  0  0  0
    4.7014    4.5643   -1.3489 C   0  0  0  0  0  0  0  0  0  0  0  0
    5.8998    3.7404   -6.5708 H   0  0  0  0  0  0  0  0  0  0  0  0
    4.2937    3.0780   -6.9579 H   0  0  0  0  0  0  0  0  0  0  0  0
    4.4448    4.7375   -6.3321 H   0  0  0  0  0  0  0  0  0  0  0  0
    4.8926    5.1427   -3.9807 H   0  0  0  0  0  0  0  0  0  0  0  0
    4.4032    1.8806   -1.2772 H   0  0  0  0  0  0  0  0  0  0  0  0
    4.5378    1.1657   -5.4796 H   0  0  0  0  0  0  0  0  0  0  0  0
    4.6379   -0.3490   -2.1115 H   0  0  0  0  0  0  0  0  0  0  0  0
    4.8396   -0.6624   -3.8519 H   0  0  0  0  0  0  0  0  0  0  0  0
    2.2084    0.2231   -3.4793 H   0  0  0  0  0  0  0  0  0  0  0  0
   -1.6206   -3.8997   -5.7828 H   0  0  0  0  0  0  0  0  0  0  0  0
   -3.9157   -3.9452   -4.9532 H   0  0  0  0  0  0  0  0  0  0  0  0
   -4.4707   -2.9809   -2.7602 H   0  0  0  0  0  0  0  0  0  0  0  0
   -2.7270   -1.9584   -1.3705 H   0  0  0  0  0  0  0  0  0  0  0  0
   -0.7807   -0.6370   -0.7295 H   0  0  0  0  0  0  0  0  0  0  0  0
    0.9767   -0.4940   -0.9737 H   0  0  0  0  0  0  0  0  0  0  0  0
    2.4975   -2.0838   -0.0015 H   0  0  0  0  0  0  0  0  0  0  0  0
    2.8912   -3.7746    1.7412 H   0  0  0  0  0  0  0  0  0  0  0  0
    0.9884   -4.8647    2.8561 H   0  0  0  0  0  0  0  0  0  0  0  0
   -1.7145   -2.5614    0.4551 H   0  0  0  0  0  0  0  0  0  0  0  0
   -0.5226   -5.4730    3.7598 H   0  0  0  0  0  0  0  0  0  0  0  0
   -2.1785   -5.7261    3.8887 H   0  0  0  0  0  0  0  0  0  0  0  0
    5.7333    4.6829   -1.0185 H   0  0  0  0  0  0  0  0  0  0  0  0
    4.3053    5.5318   -1.6576 H   0  0  0  0  0  0  0  0  0  0  0  0
    4.1004    4.1704   -0.5293 H   0  0  0  0  0  0  0  0  0  0  0  0
   -2.8457   -4.1589    1.9283 N   0  3  0  0  0  0  0  0  0  0  0  0
   -2.9527   -3.5126    1.1377 H   0  0  0  0  0  0  0  0  0  0  0  0
  1  2  1  0  0  0  0
  1 33  1  0  0  0  0
  1 34  1  0  0  0  0
  1 35  1  0  0  0  0
  2  7  2  0  0  0  0
  2  3  1  0  0  0  0
  3  4  2  0  0  0  0
  3 36  1  0  0  0  0
  4  5  1  0  0  0  0
  4 32  1  0  0  0  0
  5  6  2  0  0  0  0
  5 37  1  0  0  0  0
  6  7  1  0  0  0  0
  6  8  1  0  0  0  0
  7 38  1  0  0  0  0
  8  9  1  0  0  0  0
  8 39  1  0  0  0  0
  8 40  1  0  0  0  0
  9 10  1  0  0  0  0
  9 41  1  0  0  0  0
 10 11  2  0  0  0  0
 10 12  1  0  0  0  0
 12 20  1  0  0  0  0
 12 13  2  0  0  0  0
 13 14  1  0  0  0  0
 13 31  1  0  0  0  0
 14 19  2  0  0  0  0
 14 15  1  0  0  0  0
 15 16  2  0  0  0  0
 15 42  1  0  0  0  0
 16 17  1  0  0  0  0
 16 43  1  0  0  0  0
 17 18  2  0  0  0  0
 17 44  1  0  0  0  0
 18 19  1  0  0  0  0
 18 45  1  0  0  0  0
 19 20  1  0  0  0  0
 20 21  1  0  0  0  0
 21 22  1  0  0  0  0
 21 46  1  0  0  0  0
 21 47  1  0  0  0  0
 22 27  2  0  0  0  0
 22 23  1  0  0  0  0
 23 24  2  0  0  0  0
 23 48  1  0  0  0  0
 24 25  1  0  0  0  0
 24 49  1  0  0  0  0
 25 26  2  0  0  0  0
 25 50  1  0  0  0  0
 26 27  1  0  0  0  0
 26 28  1  0  0  0  0
 27 51  1  0  0  0  0
 28 30  1  0  0  0  0
 28 57  2  0  0  0  0
 29 57  1  0  0  0  0
 30 52  1  0  0  0  0
 30 53  1  0  0  0  0
 32 54  1  0  0  0  0
 32 55  1  0  0  0  0
 32 56  1  0  0  0  0
 57 58  1  0  0  0  0
M  CHG  1  57   1
M  END
$$$$
ZINC04631068
  -OEChem-08230709403D

 59 62  0     0  0  0  0  0  0999 V2000
    8.3005   -0.5623   -5.0556 C   0  0  0  0  0  0  0  0  0  0  0  0
    8.5590    0.6132   -4.1489 C   0  0  0  0  0  0  0  0  0  0  0  0
    9.7601    1.2934   -4.2245 C   0  0  0  0  0  0  0  0  0  0  0  0
    9.9971    2.3719   -3.3930 C   0  0  0  0  0  0  0  0  0  0  0  0
    9.0329    2.7707   -2.4862 C   0  0  0  0  0  0  0  0  0  0  0  0
    7.8315    2.0910   -2.4113 C   0  0  0  0  0  0  0  0  0  0  0  0
    7.5966    1.0092   -3.2391 C   0  0  0  0  0  0  0  0  0  0  0  0
    6.7803    2.5258   -1.4228 C   0  0  0  0  0  0  0  0  0  0  0  0
    5.9004    3.5155   -2.0492 N   0  0  0  0  0  0  0  0  0  0  0  0
    4.8800    4.0491   -1.3489 C   0  0  0  0  0  0  0  0  0  0  0  0
    4.6350    3.6454   -0.2275 O   0  0  0  0  0  0  0  0  0  0  0  0
    4.0634    5.1181   -1.9394 C   0  0  0  0  0  0  0  0  0  0  0  0
    4.3001    5.7228   -3.1337 C   0  0  0  0  0  0  0  0  0  0  0  0
    3.2928    6.6956   -3.3315 C   0  0  0  0  0  0  0  0  0  0  0  0
    2.4425    6.6431   -2.2100 C   0  0  0  0  0  0  0  0  0  0  0  0
    2.9294    5.6685   -1.3706 N   0  0  0  0  0  0  0  0  0  0  0  0
    2.3465    5.2816   -0.0835 C   0  0  0  0  0  0  0  0  0  0  0  0
    1.2895    4.2309   -0.3063 C   0  0  0  0  0  0  0  0  0  0  0  0
    1.6353    2.8912   -0.2993 C   0  0  0  0  0  0  0  0  0  0  0  0
    0.6707    1.9210   -0.5025 C   0  0  0  0  0  0  0  0  0  0  0  0
   -0.6428    2.2848   -0.7199 C   0  0  0  0  0  0  0  0  0  0  0  0
   -0.9985    3.6331   -0.7225 C   0  0  0  0  0  0  0  0  0  0  0  0
   -0.0213    4.6067   -0.5165 C   0  0  0  0  0  0  0  0  0  0  0  0
   -2.4072    4.0298   -0.9486 C   0  0  0  0  0  0  0  0  0  0  0  0
   -3.6318    5.6495   -1.0950 H   0  0  0  0  0  0  0  0  0  0  0  0
   -3.3703    3.0656   -1.1519 N   0  0  0  0  0  0  0  0  0  0  0  0
    1.3505    7.5027   -2.1354 C   0  0  0  0  0  0  0  0  0  0  0  0
    1.1054    8.3975   -3.1538 C   0  0  0  0  0  0  0  0  0  0  0  0
    1.9381    8.4558   -4.2620 C   0  0  0  0  0  0  0  0  0  0  0  0
    3.0286    7.6146   -4.3616 C   0  0  0  0  0  0  0  0  0  0  0  0
    3.8406    7.6748   -5.4481 O   0  0  0  0  0  0  0  0  0  0  0  0
   11.3064    3.1135   -3.4754 C   0  0  0  0  0  0  0  0  0  0  0  0
    8.6401   -1.4773   -4.5702 H   0  0  0  0  0  0  0  0  0  0  0  0
    7.2324   -0.6349   -5.2609 H   0  0  0  0  0  0  0  0  0  0  0  0
    8.8419   -0.4252   -5.9917 H   0  0  0  0  0  0  0  0  0  0  0  0
   10.5131    0.9823   -4.9333 H   0  0  0  0  0  0  0  0  0  0  0  0
    9.2180    3.6134   -1.8366 H   0  0  0  0  0  0  0  0  0  0  0  0
    6.6596    0.4755   -3.1774 H   0  0  0  0  0  0  0  0  0  0  0  0
    7.2622    2.9682   -0.5510 H   0  0  0  0  0  0  0  0  0  0  0  0
    6.1928    1.6613   -1.1136 H   0  0  0  0  0  0  0  0  0  0  0  0
    6.0522    3.7868   -2.9680 H   0  0  0  0  0  0  0  0  0  0  0  0
    5.1140    5.5027   -3.8085 H   0  0  0  0  0  0  0  0  0  0  0  0
    1.8968    6.1549    0.3889 H   0  0  0  0  0  0  0  0  0  0  0  0
    3.1271    4.8804    0.5629 H   0  0  0  0  0  0  0  0  0  0  0  0
    2.6626    2.6019   -0.1340 H   0  0  0  0  0  0  0  0  0  0  0  0
    0.9466    0.8769   -0.4956 H   0  0  0  0  0  0  0  0  0  0  0  0
   -1.3944    1.5264   -0.8829 H   0  0  0  0  0  0  0  0  0  0  0  0
   -0.2902    5.6527   -0.5217 H   0  0  0  0  0  0  0  0  0  0  0  0
   -3.1256    2.1269   -1.1468 H   0  0  0  0  0  0  0  0  0  0  0  0
   -4.2931    3.3255   -1.3000 H   0  0  0  0  0  0  0  0  0  0  0  0
    0.6943    7.4678   -1.2784 H   0  0  0  0  0  0  0  0  0  0  0  0
    0.2558    9.0612   -3.0886 H   0  0  0  0  0  0  0  0  0  0  0  0
    1.7322    9.1634   -5.0514 H   0  0  0  0  0  0  0  0  0  0  0  0
    3.5741    7.0905   -6.1710 H   0  0  0  0  0  0  0  0  0  0  0  0
   12.0239    2.6612   -2.7907 H   0  0  0  0  0  0  0  0  0  0  0  0
   11.6916    3.0585   -4.4935 H   0  0  0  0  0  0  0  0  0  0  0  0
   11.1509    4.1570   -3.2015 H   0  0  0  0  0  0  0  0  0  0  0  0
   -2.6761    5.3262   -0.9437 N   0  3  0  0  0  0  0  0  0  0  0  0
   -1.9228    6.0062   -0.7877 H   0  0  0  0  0  0  0  0  0  0  0  0
  1  2  1  0  0  0  0
  1 33  1  0  0  0  0
  1 34  1  0  0  0  0
  1 35  1  0  0  0  0
  2  7  2  0  0  0  0
  2  3  1  0  0  0  0
  3  4  2  0  0  0  0
  3 36  1  0  0  0  0
  4  5  1  0  0  0  0
  4 32  1  0  0  0  0
  5  6  2  0  0  0  0
  5 37  1  0  0  0  0
  6  7  1  0  0  0  0
  6  8  1  0  0  0  0
  7 38  1  0  0  0  0
  8  9  1  0  0  0  0
  8 39  1  0  0  0  0
  8 40  1  0  0  0  0
  9 10  1  0  0  0  0
  9 41  1  0  0  0  0
 10 11  2  0  0  0  0
 10 12  1  0  0  0  0
 12 16  1  0  0  0  0
 12 13  2  0  0  0  0
 13 14  1  0  0  0  0
 13 42  1  0  0  0  0
 14 30  2  0  0  0  0
 14 15  1  0  0  0  0
 15 16  1  0  0  0  0
 15 27  2  0  0  0  0
 16 17  1  0  0  0  0
 17 18  1  0  0  0  0
 17 43  1  0  0  0  0
 17 44  1  0  0  0  0
 18 23  2  0  0  0  0
 18 19  1  0  0  0  0
 19 20  2  0  0  0  0
 19 45  1  0  0  0  0
 20 21  1  0  0  0  0
 20 46  1  0  0  0  0
 21 22  2  0  0  0  0
 21 47  1  0  0  0  0
 22 23  1  0  0  0  0
 22 24  1  0  0  0  0
 23 48  1  0  0  0  0
 24 26  1  0  0  0  0
 24 58  2  0  0  0  0
 25 58  1  0  0  0  0
 26 49  1  0  0  0  0
 26 50  1  0  0  0  0
 27 28  1  0  0  0  0
 27 51  1  0  0  0  0
 28 29  2  0  0  0  0
 28 52  1  0  0  0  0
 29 30  1  0  0  0  0
 29 53  1  0  0  0  0
 30 31  1  0  0  0  0
 31 54  1  0  0  0  0
 32 55  1  0  0  0  0
 32 56  1  0  0  0  0
 32 57  1  0  0  0  0
 58 59  1  0  0  0  0
M  CHG  1  58   1
M  END
$$$$
ZINC04631069
  -OEChem-08230709403D

 56 59  0     0  0  0  0  0  0999 V2000
   11.3067    3.1134   -3.4749 C   0  0  0  0  0  0  0  0  0  0  0  0
    9.9971    2.3722   -3.3928 C   0  0  0  0  0  0  0  0  0  0  0  0
    9.7602    1.2931   -4.2242 C   0  0  0  0  0  0  0  0  0  0  0  0
    8.5594    0.6131   -4.1486 C   0  0  0  0  0  0  0  0  0  0  0  0
    7.5966    1.0094   -3.2389 C   0  0  0  0  0  0  0  0  0  0  0  0
    7.8315    2.0910   -2.4113 C   0  0  0  0  0  0  0  0  0  0  0  0
    9.0331    2.7707   -2.4862 C   0  0  0  0  0  0  0  0  0  0  0  0
    6.7803    2.5258   -1.4228 C   0  0  0  0  0  0  0  0  0  0  0  0
    5.9004    3.5155   -2.0492 N   0  0  0  0  0  0  0  0  0  0  0  0
    4.8800    4.0491   -1.3489 C   0  0  0  0  0  0  0  0  0  0  0  0
    4.6350    3.6454   -0.2275 O   0  0  0  0  0  0  0  0  0  0  0  0
    4.0634    5.1181   -1.9394 C   0  0  0  0  0  0  0  0  0  0  0  0
    4.3001    5.7228   -3.1337 C   0  0  0  0  0  0  0  0  0  0  0  0
    3.2928    6.6956   -3.3315 C   0  0  0  0  0  0  0  0  0  0  0  0
    2.4425    6.6431   -2.2100 C   0  0  0  0  0  0  0  0  0  0  0  0
    2.9294    5.6685   -1.3706 N   0  0  0  0  0  0  0  0  0  0  0  0
    2.3465    5.2816   -0.0835 C   0  0  0  0  0  0  0  0  0  0  0  0
    1.2895    4.2309   -0.3063 C   0  0  0  0  0  0  0  0  0  0  0  0
    1.6353    2.8912   -0.2993 C   0  0  0  0  0  0  0  0  0  0  0  0
    0.6707    1.9210   -0.5025 C   0  0  0  0  0  0  0  0  0  0  0  0
   -0.6428    2.2848   -0.7199 C   0  0  0  0  0  0  0  0  0  0  0  0
   -0.9985    3.6331   -0.7225 C   0  0  0  0  0  0  0  0  0  0  0  0
   -0.0213    4.6067   -0.5165 C   0  0  0  0  0  0  0  0  0  0  0  0
   -2.4072    4.0298   -0.9486 C   0  0  0  0  0  0  0  0  0  0  0  0
   -3.6318    5.6495   -1.0950 H   0  0  0  0  0  0  0  0  0  0  0  0
   -3.3703    3.0656   -1.1519 N   0  0  0  0  0  0  0  0  0  0  0  0
    1.3505    7.5027   -2.1354 C   0  0  0  0  0  0  0  0  0  0  0  0
    1.1054    8.3975   -3.1538 C   0  0  0  0  0  0  0  0  0  0  0  0
    1.9381    8.4558   -4.2620 C   0  0  0  0  0  0  0  0  0  0  0  0
    3.0286    7.6146   -4.3616 C   0  0  0  0  0  0  0  0  0  0  0  0
    3.8407    7.6749   -5.4481 O   0  0  0  0  0  0  0  0  0  0  0  0
   12.0239    2.6607   -2.7902 H   0  0  0  0  0  0  0  0  0  0  0  0
   11.6920    3.0586   -4.4930 H   0  0  0  0  0  0  0  0  0  0  0  0
   11.1514    4.1568   -3.2008 H   0  0  0  0  0  0  0  0  0  0  0  0
   10.5137    0.9814   -4.9324 H   0  0  0  0  0  0  0  0  0  0  0  0
    8.3745   -0.2301   -4.7977 H   0  0  0  0  0  0  0  0  0  0  0  0
    6.6597    0.4757   -3.1773 H   0  0  0  0  0  0  0  0  0  0  0  0
    9.2182    3.6134   -1.8366 H   0  0  0  0  0  0  0  0  0  0  0  0
    7.2622    2.9682   -0.5510 H   0  0  0  0  0  0  0  0  0  0  0  0
    6.1928    1.6613   -1.1136 H   0  0  0  0  0  0  0  0  0  0  0  0
    6.0522    3.7868   -2.9680 H   0  0  0  0  0  0  0  0  0  0  0  0
    5.1140    5.5027   -3.8085 H   0  0  0  0  0  0  0  0  0  0  0  0
    1.8968    6.1549    0.3889 H   0  0  0  0  0  0  0  0  0  0  0  0
    3.1271    4.8804    0.5629 H   0  0  0  0  0  0  0  0  0  0  0  0
    2.6626    2.6019   -0.1340 H   0  0  0  0  0  0  0  0  0  0  0  0
    0.9466    0.8769   -0.4956 H   0  0  0  0  0  0  0  0  0  0  0  0
   -1.3944    1.5264   -0.8829 H   0  0  0  0  0  0  0  0  0  0  0  0
   -0.2902    5.6527   -0.5217 H   0  0  0  0  0  0  0  0  0  0  0  0
   -3.1256    2.1269   -1.1468 H   0  0  0  0  0  0  0  0  0  0  0  0
   -4.2931    3.3255   -1.3000 H   0  0  0  0  0  0  0  0  0  0  0  0
    0.6943    7.4678   -1.2784 H   0  0  0  0  0  0  0  0  0  0  0  0
    0.2558    9.0612   -3.0886 H   0  0  0  0  0  0  0  0  0  0  0  0
    1.7322    9.1634   -5.0514 H   0  0  0  0  0  0  0  0  0  0  0  0
    3.5741    7.0905   -6.1710 H   0  0  0  0  0  0  0  0  0  0  0  0
   -2.6761    5.3262   -0.9437 N   0  3  0  0  0  0  0  0  0  0  0  0
   -1.9228    6.0062   -0.7877 H   0  0  0  0  0  0  0  0  0  0  0  0
  1  2  1  0  0  0  0
  1 32  1  0  0  0  0
  1 33  1  0  0  0  0
  1 34  1  0  0  0  0
  2  7  2  0  0  0  0
  2  3  1  0  0  0  0
  3  4  2  0  0  0  0
  3 35  1  0  0  0  0
  4  5  1  0  0  0  0
  4 36  1  0  0  0  0
  5  6  2  0  0  0  0
  5 37  1  0  0  0  0
  6  7  1  0  0  0  0
  6  8  1  0  0  0  0
  7 38  1  0  0  0  0
  8  9  1  0  0  0  0
  8 39  1  0  0  0  0
  8 40  1  0  0  0  0
  9 10  1  0  0  0  0
  9 41  1  0  0  0  0
 10 11  2  0  0  0  0
 10 12  1  0  0  0  0
 12 16  1  0  0  0  0
 12 13  2  0  0  0  0
 13 14  1  0  0  0  0
 13 42  1  0  0  0  0
 14 30  2  0  0  0  0
 14 15  1  0  0  0  0
 15 16  1  0  0  0  0
 15 27  2  0  0  0  0
 16 17  1  0  0  0  0
 17 18  1  0  0  0  0
 17 43  1  0  0  0  0
 17 44  1  0  0  0  0
 18 23  2  0  0  0  0
 18 19  1  0  0  0  0
 19 20  2  0  0  0  0
 19 45  1  0  0  0  0
 20 21  1  0  0  0  0
 20 46  1  0  0  0  0
 21 22  2  0  0  0  0
 21 47  1  0  0  0  0
 22 23  1  0  0  0  0
 22 24  1  0  0  0  0
 23 48  1  0  0  0  0
 24 26  1  0  0  0  0
 24 55  2  0  0  0  0
 25 55  1  0  0  0  0
 26 49  1  0  0  0  0
 26 50  1  0  0  0  0
 27 28  1  0  0  0  0
 27 51  1  0  0  0  0
 28 29  2  0  0  0  0
 28 52  1  0  0  0  0
 29 30  1  0  0  0  0
 29 53  1  0  0  0  0
 30 31  1  0  0  0  0
 31 54  1  0  0  0  0
 55 56  1  0  0  0  0
M  CHG  1  55   1
M  END
$$$$
ZINC04631070
  -OEChem-08230709403D

 61 64  0     0  0  0  0  0  0999 V2000
    6.7052    2.9354   -3.2457 C   0  0  0  0  0  0  0  0  0  0  0  0
    5.9985    2.1923   -2.1414 C   0  0  0  0  0  0  0  0  0  0  0  0
    6.5071    1.0148   -1.6746 C   0  0  0  0  0  0  0  0  0  0  0  0
    5.8651    0.3211   -0.6570 C   0  0  0  0  0  0  0  0  0  0  0  0
    4.7034    0.8079   -0.1001 C   0  0  0  0  0  0  0  0  0  0  0  0
    4.1689    2.0099   -0.5548 C   0  0  0  0  0  0  0  0  0  0  0  0
    4.8187    2.7084   -1.5911 C   0  0  0  0  0  0  0  0  0  0  0  0
    4.0550    3.8741   -1.8466 C   0  0  0  0  0  0  0  0  0  0  0  0
    2.9908    3.8652   -0.9999 C   0  0  0  0  0  0  0  0  0  0  0  0
    3.0496    2.7310   -0.2110 N   0  0  0  0  0  0  0  0  0  0  0  0
    2.0819    2.3615    0.8249 C   0  0  0  0  0  0  0  0  0  0  0  0
    2.5424    2.8965    2.1563 C   0  0  0  0  0  0  0  0  0  0  0  0
    2.1088    4.1372    2.5892 C   0  0  0  0  0  0  0  0  0  0  0  0
    2.5268    4.6348    3.8102 C   0  0  0  0  0  0  0  0  0  0  0  0
    3.3846    3.8982    4.6016 C   0  0  0  0  0  0  0  0  0  0  0  0
    3.8206    2.6449    4.1734 C   0  0  0  0  0  0  0  0  0  0  0  0
    3.3952    2.1482    2.9413 C   0  0  0  0  0  0  0  0  0  0  0  0
    4.7359    1.8467    5.0208 C   0  0  0  0  0  0  0  0  0  0  0  0
    5.8418    0.1377    5.0494 H   0  0  0  0  0  0  0  0  0  0  0  0
    5.0610    2.2846    6.2860 N   0  0  0  0  0  0  0  0  0  0  0  0
    1.9455    4.8956   -0.9342 C   0  0  0  0  0  0  0  0  0  0  0  0
    2.1320    5.9112   -0.2906 O   0  0  0  0  0  0  0  0  0  0  0  0
    0.7801    4.7159   -1.5868 N   0  0  0  0  0  0  0  0  0  0  0  0
   -0.2179    5.7880   -1.6125 C   0  0  0  0  0  0  0  0  0  0  0  0
   -1.4666    5.2956   -2.2977 C   0  0  0  0  0  0  0  0  0  0  0  0
   -1.5682    5.3585   -3.6761 C   0  0  0  0  0  0  0  0  0  0  0  0
   -2.7088    4.9032   -4.3125 C   0  0  0  0  0  0  0  0  0  0  0  0
   -3.7576    4.3936   -3.5742 C   0  0  0  0  0  0  0  0  0  0  0  0
   -3.6634    4.3329   -2.1844 C   0  0  0  0  0  0  0  0  0  0  0  0
   -2.5084    4.7883   -1.5488 C   0  0  0  0  0  0  0  0  0  0  0  0
   -4.7853    3.7877   -1.3863 C   0  0  0  0  0  0  0  0  0  0  0  0
   -5.3759    3.3924    0.5214 H   0  0  0  0  0  0  0  0  0  0  0  0
   -5.9250    3.3386   -2.0169 N   0  0  0  0  0  0  0  0  0  0  0  0
    4.4456    5.2038   -3.1332 Br  0  0  0  0  0  0  0  0  0  0  0  0
    7.4265    3.6289   -2.8134 H   0  0  0  0  0  0  0  0  0  0  0  0
    7.2249    2.2240   -3.8876 H   0  0  0  0  0  0  0  0  0  0  0  0
    5.9754    3.4906   -3.8349 H   0  0  0  0  0  0  0  0  0  0  0  0
    7.4173    0.6190   -2.1005 H   0  0  0  0  0  0  0  0  0  0  0  0
    6.2808   -0.6093   -0.2992 H   0  0  0  0  0  0  0  0  0  0  0  0
    4.2115    0.2611    0.6909 H   0  0  0  0  0  0  0  0  0  0  0  0
    2.0026    1.2757    0.8775 H   0  0  0  0  0  0  0  0  0  0  0  0
    1.1079    2.7854    0.5802 H   0  0  0  0  0  0  0  0  0  0  0  0
    1.4410    4.7191    1.9714 H   0  0  0  0  0  0  0  0  0  0  0  0
    2.1847    5.6036    4.1429 H   0  0  0  0  0  0  0  0  0  0  0  0
    3.7138    4.2898    5.5528 H   0  0  0  0  0  0  0  0  0  0  0  0
    3.7330    1.1801    2.6024 H   0  0  0  0  0  0  0  0  0  0  0  0
    4.6904    3.1158    6.6217 H   0  0  0  0  0  0  0  0  0  0  0  0
    5.6606    1.7618    6.8410 H   0  0  0  0  0  0  0  0  0  0  0  0
    0.6022    3.8767   -2.0396 H   0  0  0  0  0  0  0  0  0  0  0  0
   -0.4572    6.0863   -0.5918 H   0  0  0  0  0  0  0  0  0  0  0  0
    0.1818    6.6436   -2.1568 H   0  0  0  0  0  0  0  0  0  0  0  0
   -0.7521    5.7608   -4.2578 H   0  0  0  0  0  0  0  0  0  0  0  0
   -2.7806    4.9508   -5.3891 H   0  0  0  0  0  0  0  0  0  0  0  0
   -4.6496    4.0428   -4.0719 H   0  0  0  0  0  0  0  0  0  0  0  0
   -2.4295    4.7435   -0.4725 H   0  0  0  0  0  0  0  0  0  0  0  0
   -5.9925    3.3796   -2.9837 H   0  0  0  0  0  0  0  0  0  0  0  0
   -6.6599    2.9814   -1.4942 H   0  0  0  0  0  0  0  0  0  0  0  0
    5.2076    0.7223    4.5047 N   0  3  0  0  0  0  0  0  0  0  0  0
    4.9351    0.4387    3.5562 H   0  0  0  0  0  0  0  0  0  0  0  0
   -4.6312    3.7590   -0.0715 N   0  3  0  0  0  0  0  0  0  0  0  0
   -3.7621    4.1056    0.3512 H   0  0  0  0  0  0  0  0  0  0  0  0
  1  2  1  0  0  0  0
  1 35  1  0  0  0  0
  1 36  1  0  0  0  0
  1 37  1  0  0  0  0
  2  7  2  0  0  0  0
  2  3  1  0  0  0  0
  3  4  2  0  0  0  0
  3 38  1  0  0  0  0
  4  5  1  0  0  0  0
  4 39  1  0  0  0  0
  5  6  2  0  0  0  0
  5 40  1  0  0  0  0
  6 10  1  0  0  0  0
  6  7  1  0  0  0  0
  7  8  1  0  0  0  0
  8  9  2  0  0  0  0
  8 34  1  0  0  0  0
  9 10  1  0  0  0  0
  9 21  1  0  0  0  0
 10 11  1  0  0  0  0
 11 12  1  0  0  0  0
 11 41  1  0  0  0  0
 11 42  1  0  0  0  0
 12 17  2  0  0  0  0
 12 13  1  0  0  0  0
 13 14  2  0  0  0  0
 13 43  1  0  0  0  0
 14 15  1  0  0  0  0
 14 44  1  0  0  0  0
 15 16  2  0  0  0  0
 15 45  1  0  0  0  0
 16 17  1  0  0  0  0
 16 18  1  0  0  0  0
 17 46  1  0  0  0  0
 18 20  1  0  0  0  0
 18 58  2  0  0  0  0
 19 58  1  0  0  0  0
 20 47  1  0  0  0  0
 20 48  1  0  0  0  0
 21 22  2  0  0  0  0
 21 23  1  0  0  0  0
 23 24  1  0  0  0  0
 23 49  1  0  0  0  0
 24 25  1  0  0  0  0
 24 50  1  0  0  0  0
 24 51  1  0  0  0  0
 25 30  2  0  0  0  0
 25 26  1  0  0  0  0
 26 27  2  0  0  0  0
 26 52  1  0  0  0  0
 27 28  1  0  0  0  0
 27 53  1  0  0  0  0
 28 29  2  0  0  0  0
 28 54  1  0  0  0  0
 29 30  1  0  0  0  0
 29 31  1  0  0  0  0
 30 55  1  0  0  0  0
 31 33  1  0  0  0  0
 31 60  2  0  0  0  0
 32 60  1  0  0  0  0
 33 56  1  0  0  0  0
 33 57  1  0  0  0  0
 58 59  1  0  0  0  0
 60 61  1  0  0  0  0
M  CHG  2  58   1  60   1
M  END
$$$$
ZINC04631071
  -OEChem-08230709403D

 42 44  0     0  0  0  0  0  0999 V2000
    3.9539    7.6856   -5.5504 C   0  0  0  0  0  0  0  0  0  0  0  0
    3.0478    7.6202   -4.3478 C   0  0  0  0  0  0  0  0  0  0  0  0
    1.9724    8.4552   -4.2555 C   0  0  0  0  0  0  0  0  0  0  0  0
    1.1301    8.4044   -3.1522 C   0  0  0  0  0  0  0  0  0  0  0  0
    1.3636    7.5102   -2.1313 C   0  0  0  0  0  0  0  0  0  0  0  0
    2.4541    6.6481   -2.2025 C   0  0  0  0  0  0  0  0  0  0  0  0
    3.3072    6.7020   -3.3224 C   0  0  0  0  0  0  0  0  0  0  0  0
    4.3125    5.7251   -3.1230 C   0  0  0  0  0  0  0  0  0  0  0  0
    4.0702    5.1196   -1.9311 C   0  0  0  0  0  0  0  0  0  0  0  0
    2.9371    5.6709   -1.3648 N   0  0  0  0  0  0  0  0  0  0  0  0
    2.3503    5.2822   -0.0799 C   0  0  0  0  0  0  0  0  0  0  0  0
    1.2917    4.2341   -0.3077 C   0  0  0  0  0  0  0  0  0  0  0  0
    1.6348    2.8937   -0.3023 C   0  0  0  0  0  0  0  0  0  0  0  0
    0.6686    1.9260   -0.5102 C   0  0  0  0  0  0  0  0  0  0  0  0
   -0.6434    2.2929   -0.7303 C   0  0  0  0  0  0  0  0  0  0  0  0
   -0.9964    3.6419   -0.7312 C   0  0  0  0  0  0  0  0  0  0  0  0
   -0.0177    4.6131   -0.5206 C   0  0  0  0  0  0  0  0  0  0  0  0
   -2.4037    4.0420   -0.9603 C   0  0  0  0  0  0  0  0  0  0  0  0
   -3.6243    5.6646   -1.1067 H   0  0  0  0  0  0  0  0  0  0  0  0
   -3.3681    3.0803   -1.1681 N   0  0  0  0  0  0  0  0  0  0  0  0
    4.8830    4.0461   -1.3396 C   0  0  0  0  0  0  0  0  0  0  0  0
    4.6337    3.6412   -0.2198 O   0  0  0  0  0  0  0  0  0  0  0  0
    5.9037    3.5109   -2.0380 N   0  0  0  0  0  0  0  0  0  0  0  0
    3.5887    7.0031   -6.3179 H   0  0  0  0  0  0  0  0  0  0  0  0
    3.9637    8.7023   -5.9430 H   0  0  0  0  0  0  0  0  0  0  0  0
    4.9645    7.3984   -5.2599 H   0  0  0  0  0  0  0  0  0  0  0  0
    1.7746    9.1624   -5.0475 H   0  0  0  0  0  0  0  0  0  0  0  0
    0.2834    9.0724   -3.0947 H   0  0  0  0  0  0  0  0  0  0  0  0
    0.7026    7.4778   -1.2779 H   0  0  0  0  0  0  0  0  0  0  0  0
    5.1278    5.5036   -3.7958 H   0  0  0  0  0  0  0  0  0  0  0  0
    1.9013    6.1553    0.3933 H   0  0  0  0  0  0  0  0  0  0  0  0
    3.1285    4.8780    0.5675 H   0  0  0  0  0  0  0  0  0  0  0  0
    2.6610    2.6020   -0.1349 H   0  0  0  0  0  0  0  0  0  0  0  0
    0.9424    0.8813   -0.5046 H   0  0  0  0  0  0  0  0  0  0  0  0
   -1.3962    1.5365   -0.8968 H   0  0  0  0  0  0  0  0  0  0  0  0
   -0.2843    5.6597   -0.5245 H   0  0  0  0  0  0  0  0  0  0  0  0
   -3.1255    2.1412   -1.1642 H   0  0  0  0  0  0  0  0  0  0  0  0
   -4.2900    3.3424   -1.3181 H   0  0  0  0  0  0  0  0  0  0  0  0
    6.0568    3.7808   -2.9570 H   0  0  0  0  0  0  0  0  0  0  0  0
    6.4854    2.8557   -1.6217 H   0  0  0  0  0  0  0  0  0  0  0  0
   -2.6698    5.3390   -0.9535 N   0  3  0  0  0  0  0  0  0  0  0  0
   -1.9155    6.0171   -0.7940 H   0  0  0  0  0  0  0  0  0  0  0  0
  1  2  1  0  0  0  0
  1 24  1  0  0  0  0
  1 25  1  0  0  0  0
  1 26  1  0  0  0  0
  2  7  2  0  0  0  0
  2  3  1  0  0  0  0
  3  4  2  0  0  0  0
  3 27  1  0  0  0  0
  4  5  1  0  0  0  0
  4 28  1  0  0  0  0
  5  6  2  0  0  0  0
  5 29  1  0  0  0  0
  6 10  1  0  0  0  0
  6  7  1  0  0  0  0
  7  8  1  0  0  0  0
  8  9  2  0  0  0  0
  8 30  1  0  0  0  0
  9 10  1  0  0  0  0
  9 21  1  0  0  0  0
 10 11  1  0  0  0  0
 11 12  1  0  0  0  0
 11 31  1  0  0  0  0
 11 32  1  0  0  0  0
 12 17  2  0  0  0  0
 12 13  1  0  0  0  0
 13 14  2  0  0  0  0
 13 33  1  0  0  0  0
 14 15  1  0  0  0  0
 14 34  1  0  0  0  0
 15 16  2  0  0  0  0
 15 35  1  0  0  0  0
 16 17  1  0  0  0  0
 16 18  1  0  0  0  0
 17 36  1  0  0  0  0
 18 20  1  0  0  0  0
 18 41  2  0  0  0  0
 19 41  1  0  0  0  0
 20 37  1  0  0  0  0
 20 38  1  0  0  0  0
 21 22  2  0  0  0  0
 21 23  1  0  0  0  0
 23 39  1  0  0  0  0
 23 40  1  0  0  0  0
 41 42  1  0  0  0  0
M  CHG  1  41   1
M  END
$$$$
ZINC04631072
  -OEChem-08230709403D

 67 70  0     0  0  0  0  0  0999 V2000
    3.7957    4.4194   -4.2961 C   0  0  0  0  0  0  0  0  0  0  0  0
    4.0544    4.2925   -2.8169 C   0  0  0  0  0  0  0  0  0  0  0  0
    5.0717    3.5024   -2.3656 C   0  0  0  0  0  0  0  0  0  0  0  0
    5.3211    3.3789   -1.0048 C   0  0  0  0  0  0  0  0  0  0  0  0
    4.5522    4.0576   -0.0858 C   0  0  0  0  0  0  0  0  0  0  0  0
    3.5144    4.8762   -0.5217 C   0  0  0  0  0  0  0  0  0  0  0  0
    3.2613    4.9971   -1.9024 C   0  0  0  0  0  0  0  0  0  0  0  0
    2.1695    5.8871   -2.0456 C   0  0  0  0  0  0  0  0  0  0  0  0
    1.7856    6.2747   -0.8012 C   0  0  0  0  0  0  0  0  0  0  0  0
    2.5963    5.6616    0.1344 N   0  0  0  0  0  0  0  0  0  0  0  0
    2.4979    5.8262    1.5868 C   0  0  0  0  0  0  0  0  0  0  0  0
    1.6349    4.7314    2.1591 C   0  0  0  0  0  0  0  0  0  0  0  0
    2.1896    3.4994    2.4568 C   0  0  0  0  0  0  0  0  0  0  0  0
    1.4040    2.4898    2.9828 C   0  0  0  0  0  0  0  0  0  0  0  0
    0.0594    2.7043    3.2080 C   0  0  0  0  0  0  0  0  0  0  0  0
   -0.5043    3.9456    2.9154 C   0  0  0  0  0  0  0  0  0  0  0  0
    0.2932    4.9599    2.3856 C   0  0  0  0  0  0  0  0  0  0  0  0
   -1.9450    4.1844    3.1608 C   0  0  0  0  0  0  0  0  0  0  0  0
   -3.4111    5.5824    2.9603 H   0  0  0  0  0  0  0  0  0  0  0  0
   -2.7058    3.2219    3.7879 N   0  0  0  0  0  0  0  0  0  0  0  0
    0.6832    7.1997   -0.4987 C   0  0  0  0  0  0  0  0  0  0  0  0
    0.4625    7.5272    0.6520 O   0  0  0  0  0  0  0  0  0  0  0  0
   -0.0826    7.6846   -1.4960 N   0  0  0  0  0  0  0  0  0  0  0  0
   -1.1070    8.6920   -1.2096 C   0  0  0  0  0  0  0  0  0  0  0  0
   -1.9032    8.9861   -2.4825 C   0  0  0  0  0  0  0  0  0  0  0  0
   -0.9866    9.6420   -3.5172 C   0  0  0  0  0  0  0  0  0  0  0  0
   -0.4305   10.9496   -2.9498 C   0  0  0  0  0  0  0  0  0  0  0  0
   -1.5872   11.8955   -2.6208 C   0  0  0  0  0  0  0  0  0  0  0  0
   -2.5038   11.2396   -1.5862 C   0  0  0  0  0  0  0  0  0  0  0  0
   -3.0599    9.9320   -2.1535 C   0  0  0  0  0  0  0  0  0  0  0  0
   -1.0395   13.1834   -2.0620 C   0  0  0  0  0  0  0  0  0  0  0  0
   -0.6100   14.1392   -0.3264 H   0  0  0  0  0  0  0  0  0  0  0  0
   -0.6373   14.1818   -2.9097 N   0  0  0  0  0  0  0  0  0  0  0  0
    4.3852    5.2432   -4.6986 H   0  0  0  0  0  0  0  0  0  0  0  0
    4.0784    3.4925   -4.7952 H   0  0  0  0  0  0  0  0  0  0  0  0
    2.7365    4.6142   -4.4643 H   0  0  0  0  0  0  0  0  0  0  0  0
    5.6845    2.9634   -3.0729 H   0  0  0  0  0  0  0  0  0  0  0  0
    6.1259    2.7445   -0.6641 H   0  0  0  0  0  0  0  0  0  0  0  0
    4.7537    3.9546    0.9703 H   0  0  0  0  0  0  0  0  0  0  0  0
    1.7220    6.2016   -2.9769 H   0  0  0  0  0  0  0  0  0  0  0  0
    2.0534    6.7953    1.8134 H   0  0  0  0  0  0  0  0  0  0  0  0
    3.4937    5.7716    2.0269 H   0  0  0  0  0  0  0  0  0  0  0  0
    3.2404    3.3254    2.2781 H   0  0  0  0  0  0  0  0  0  0  0  0
    1.8428    1.5302    3.2135 H   0  0  0  0  0  0  0  0  0  0  0  0
   -0.5540    1.9138    3.6146 H   0  0  0  0  0  0  0  0  0  0  0  0
   -0.1387    5.9220    2.1528 H   0  0  0  0  0  0  0  0  0  0  0  0
   -2.2976    2.3879    4.0687 H   0  0  0  0  0  0  0  0  0  0  0  0
   -3.6495    3.3782    3.9488 H   0  0  0  0  0  0  0  0  0  0  0  0
    0.0445    7.3666   -2.4035 H   0  0  0  0  0  0  0  0  0  0  0  0
   -1.7800    8.3168   -0.4386 H   0  0  0  0  0  0  0  0  0  0  0  0
   -0.6289    9.6073   -0.8603 H   0  0  0  0  0  0  0  0  0  0  0  0
   -2.2993    8.0546   -2.8867 H   0  0  0  0  0  0  0  0  0  0  0  0
   -0.1624    8.9681   -3.7516 H   0  0  0  0  0  0  0  0  0  0  0  0
   -1.5538    9.8516   -4.4241 H   0  0  0  0  0  0  0  0  0  0  0  0
    0.2225   11.4169   -3.6870 H   0  0  0  0  0  0  0  0  0  0  0  0
    0.1367   10.7401   -2.0430 H   0  0  0  0  0  0  0  0  0  0  0  0
   -2.1544   12.1050   -3.5278 H   0  0  0  0  0  0  0  0  0  0  0  0
   -3.3279   11.9135   -1.3518 H   0  0  0  0  0  0  0  0  0  0  0  0
   -1.9366   11.0300   -0.6792 H   0  0  0  0  0  0  0  0  0  0  0  0
   -3.6271   10.1415   -3.0604 H   0  0  0  0  0  0  0  0  0  0  0  0
   -3.7129    9.4647   -1.4164 H   0  0  0  0  0  0  0  0  0  0  0  0
   -0.7052   14.0595   -3.8697 H   0  0  0  0  0  0  0  0  0  0  0  0
   -0.2849   15.0108   -2.5501 H   0  0  0  0  0  0  0  0  0  0  0  0
   -2.4431    5.3397    2.7486 N   0  3  0  0  0  0  0  0  0  0  0  0
   -1.8551    5.9915    2.2160 H   0  0  0  0  0  0  0  0  0  0  0  0
   -0.9735   13.2869   -0.7530 N   0  3  0  0  0  0  0  0  0  0  0  0
   -1.2878   12.5098   -0.1601 H   0  0  0  0  0  0  0  0  0  0  0  0
  1  2  1  0  0  0  0
  1 34  1  0  0  0  0
  1 35  1  0  0  0  0
  1 36  1  0  0  0  0
  2  7  2  0  0  0  0
  2  3  1  0  0  0  0
  3  4  2  0  0  0  0
  3 37  1  0  0  0  0
  4  5  1  0  0  0  0
  4 38  1  0  0  0  0
  5  6  2  0  0  0  0
  5 39  1  0  0  0  0
  6 10  1  0  0  0  0
  6  7  1  0  0  0  0
  7  8  1  0  0  0  0
  8  9  2  0  0  0  0
  8 40  1  0  0  0  0
  9 10  1  0  0  0  0
  9 21  1  0  0  0  0
 10 11  1  0  0  0  0
 11 12  1  0  0  0  0
 11 41  1  0  0  0  0
 11 42  1  0  0  0  0
 12 17  2  0  0  0  0
 12 13  1  0  0  0  0
 13 14  2  0  0  0  0
 13 43  1  0  0  0  0
 14 15  1  0  0  0  0
 14 44  1  0  0  0  0
 15 16  2  0  0  0  0
 15 45  1  0  0  0  0
 16 17  1  0  0  0  0
 16 18  1  0  0  0  0
 17 46  1  0  0  0  0
 18 20  1  0  0  0  0
 18 64  2  0  0  0  0
 19 64  1  0  0  0  0
 20 47  1  0  0  0  0
 20 48  1  0  0  0  0
 21 22  2  0  0  0  0
 21 23  1  0  0  0  0
 23 24  1  0  0  0  0
 23 49  1  0  0  0  0
 24 25  1  0  0  0  0
 24 50  1  0  0  0  0
 24 51  1  0  0  0  0
 25 30  1  0  0  0  0
 25 26  1  0  0  0  0
 25 52  1  0  0  0  0
 26 27  1  0  0  0  0
 26 53  1  0  0  0  0
 26 54  1  0  0  0  0
 27 28  1  0  0  0  0
 27 55  1  0  0  0  0
 27 56  1  0  0  0  0
 28 29  1  0  0  0  0
 28 31  1  0  0  0  0
 28 57  1  0  0  0  0
 29 30  1  0  0  0  0
 29 58  1  0  0  0  0
 29 59  1  0  0  0  0
 30 60  1  0  0  0  0
 30 61  1  0  0  0  0
 31 33  1  0  0  0  0
 31 66  2  0  0  0  0
 32 66  1  0  0  0  0
 33 62  1  0  0  0  0
 33 63  1  0  0  0  0
 64 65  1  0  0  0  0
 66 67  1  0  0  0  0
M  CHG  2  64   1  66   1
M  END
$$$$
ZINC04631073
  -OEChem-08230709403D

 66 69  0     0  0  0  0  0  0999 V2000
    1.6173    4.3101   -4.2498 C   0  0  0  0  0  0  0  0  0  0  0  0
    1.4815    3.9093   -2.8034 C   0  0  0  0  0  0  0  0  0  0  0  0
    2.0051    2.7261   -2.3693 C   0  0  0  0  0  0  0  0  0  0  0  0
    1.8879    2.3466   -1.0383 C   0  0  0  0  0  0  0  0  0  0  0  0
    1.2486    3.1607   -0.1299 C   0  0  0  0  0  0  0  0  0  0  0  0
    0.7140    4.3762   -0.5467 C   0  0  0  0  0  0  0  0  0  0  0  0
    0.8312    4.7572   -1.8980 C   0  0  0  0  0  0  0  0  0  0  0  0
    0.2107    6.0236   -2.0252 C   0  0  0  0  0  0  0  0  0  0  0  0
   -0.2610    6.3780   -0.8013 C   0  0  0  0  0  0  0  0  0  0  0  0
    0.0372    5.3796    0.1058 N   0  0  0  0  0  0  0  0  0  0  0  0
   -0.3057    5.3910    1.5301 C   0  0  0  0  0  0  0  0  0  0  0  0
   -1.5984    4.6459    1.7414 C   0  0  0  0  0  0  0  0  0  0  0  0
   -1.5869    3.2695    1.8817 C   0  0  0  0  0  0  0  0  0  0  0  0
   -2.7693    2.5786    2.0765 C   0  0  0  0  0  0  0  0  0  0  0  0
   -3.9690    3.2588    2.1259 C   0  0  0  0  0  0  0  0  0  0  0  0
   -3.9866    4.6465    1.9908 C   0  0  0  0  0  0  0  0  0  0  0  0
   -2.7909    5.3376    1.7952 C   0  0  0  0  0  0  0  0  0  0  0  0
   -5.2699    5.3831    2.0494 C   0  0  0  0  0  0  0  0  0  0  0  0
   -6.0882    7.2341    1.8290 H   0  0  0  0  0  0  0  0  0  0  0  0
   -6.4354    4.7134    2.3523 N   0  0  0  0  0  0  0  0  0  0  0  0
   -0.9748    7.6258   -0.4915 C   0  0  0  0  0  0  0  0  0  0  0  0
   -1.4296    7.8060    0.6223 O   0  0  0  0  0  0  0  0  0  0  0  0
   -1.1251    8.5700   -1.4415 N   0  0  0  0  0  0  0  0  0  0  0  0
   -1.7393    9.8567   -1.1047 C   0  0  0  0  0  0  0  0  0  0  0  0
   -1.8964   10.6948   -2.3751 C   0  0  0  0  0  0  0  0  0  0  0  0
   -0.5135   11.0348   -2.9358 C   0  0  0  0  0  0  0  0  0  0  0  0
   -0.6751   11.8443   -4.2262 C   0  0  0  0  0  0  0  0  0  0  0  0
   -1.5177   13.0152   -3.9475 N   0  0  0  0  0  0  0  0  0  0  0  0
   -2.8319   12.8076   -3.3241 C   0  0  0  0  0  0  0  0  0  0  0  0
   -2.6462   11.9871   -2.0438 C   0  0  0  0  0  0  0  0  0  0  0  0
   -1.0845   14.2812   -4.2636 C   0  0  0  0  0  0  0  0  0  0  0  0
    0.0986   14.4534   -4.9422 N   0  0  0  0  0  0  0  0  0  0  0  0
    2.5443    4.8667   -4.3870 H   0  0  0  0  0  0  0  0  0  0  0  0
    1.6341    3.4168   -4.8743 H   0  0  0  0  0  0  0  0  0  0  0  0
    0.7718    4.9364   -4.5342 H   0  0  0  0  0  0  0  0  0  0  0  0
    2.5098    2.0759   -3.0684 H   0  0  0  0  0  0  0  0  0  0  0  0
    2.3016    1.4036   -0.7127 H   0  0  0  0  0  0  0  0  0  0  0  0
    1.1623    2.8566    0.9028 H   0  0  0  0  0  0  0  0  0  0  0  0
    0.1273    6.6038   -2.9323 H   0  0  0  0  0  0  0  0  0  0  0  0
   -0.4206    6.4209    1.8679 H   0  0  0  0  0  0  0  0  0  0  0  0
    0.4891    4.9084    2.0989 H   0  0  0  0  0  0  0  0  0  0  0  0
   -0.6509    2.7323    1.8394 H   0  0  0  0  0  0  0  0  0  0  0  0
   -2.7540    1.5042    2.1857 H   0  0  0  0  0  0  0  0  0  0  0  0
   -4.8921    2.7178    2.2737 H   0  0  0  0  0  0  0  0  0  0  0  0
   -2.7986    6.4120    1.6855 H   0  0  0  0  0  0  0  0  0  0  0  0
   -6.4152    3.7595    2.5272 H   0  0  0  0  0  0  0  0  0  0  0  0
   -7.2760    5.1958    2.3906 H   0  0  0  0  0  0  0  0  0  0  0  0
   -0.8266    8.3975   -2.3481 H   0  0  0  0  0  0  0  0  0  0  0  0
   -2.7191    9.6859   -0.6587 H   0  0  0  0  0  0  0  0  0  0  0  0
   -1.1047   10.3876   -0.3953 H   0  0  0  0  0  0  0  0  0  0  0  0
   -2.4595   10.1282   -3.1167 H   0  0  0  0  0  0  0  0  0  0  0  0
    0.0411   11.6227   -2.2044 H   0  0  0  0  0  0  0  0  0  0  0  0
    0.0289   10.1138   -3.1496 H   0  0  0  0  0  0  0  0  0  0  0  0
   -1.1491   11.2261   -4.9886 H   0  0  0  0  0  0  0  0  0  0  0  0
    0.3034   12.1733   -4.5761 H   0  0  0  0  0  0  0  0  0  0  0  0
   -3.4818   12.2679   -4.0129 H   0  0  0  0  0  0  0  0  0  0  0  0
   -3.2764   13.7721   -3.0789 H   0  0  0  0  0  0  0  0  0  0  0  0
   -3.6218   11.7441   -1.6229 H   0  0  0  0  0  0  0  0  0  0  0  0
   -2.0715   12.5661   -1.3209 H   0  0  0  0  0  0  0  0  0  0  0  0
   -1.5741   16.2513   -4.0976 H   0  0  0  0  0  0  0  0  0  0  0  0
    0.5847   13.6820   -5.2730 H   0  0  0  0  0  0  0  0  0  0  0  0
    0.4473   15.3465   -5.0904 H   0  0  0  0  0  0  0  0  0  0  0  0
   -5.2302    6.6830    1.8009 N   0  3  0  0  0  0  0  0  0  0  0  0
   -4.3359    7.1363    1.5798 H   0  0  0  0  0  0  0  0  0  0  0  0
   -1.8526   15.2929   -3.8862 N   0  3  0  0  0  0  0  0  0  0  0  0
   -2.7280   15.1123   -3.3810 H   0  0  0  0  0  0  0  0  0  0  0  0
  1  2  1  0  0  0  0
  1 33  1  0  0  0  0
  1 34  1  0  0  0  0
  1 35  1  0  0  0  0
  2  7  2  0  0  0  0
  2  3  1  0  0  0  0
  3  4  2  0  0  0  0
  3 36  1  0  0  0  0
  4  5  1  0  0  0  0
  4 37  1  0  0  0  0
  5  6  2  0  0  0  0
  5 38  1  0  0  0  0
  6 10  1  0  0  0  0
  6  7  1  0  0  0  0
  7  8  1  0  0  0  0
  8  9  2  0  0  0  0
  8 39  1  0  0  0  0
  9 10  1  0  0  0  0
  9 21  1  0  0  0  0
 10 11  1  0  0  0  0
 11 12  1  0  0  0  0
 11 40  1  0  0  0  0
 11 41  1  0  0  0  0
 12 17  2  0  0  0  0
 12 13  1  0  0  0  0
 13 14  2  0  0  0  0
 13 42  1  0  0  0  0
 14 15  1  0  0  0  0
 14 43  1  0  0  0  0
 15 16  2  0  0  0  0
 15 44  1  0  0  0  0
 16 17  1  0  0  0  0
 16 18  1  0  0  0  0
 17 45  1  0  0  0  0
 18 20  1  0  0  0  0
 18 63  2  0  0  0  0
 19 63  1  0  0  0  0
 20 46  1  0  0  0  0
 20 47  1  0  0  0  0
 21 22  2  0  0  0  0
 21 23  1  0  0  0  0
 23 24  1  0  0  0  0
 23 48  1  0  0  0  0
 24 25  1  0  0  0  0
 24 49  1  0  0  0  0
 24 50  1  0  0  0  0
 25 30  1  0  0  0  0
 25 26  1  0  0  0  0
 25 51  1  0  0  0  0
 26 27  1  0  0  0  0
 26 52  1  0  0  0  0
 26 53  1  0  0  0  0
 27 28  1  0  0  0  0
 27 54  1  0  0  0  0
 27 55  1  0  0  0  0
 28 29  1  0  0  0  0
 28 31  1  0  0  0  0
 29 30  1  0  0  0  0
 29 56  1  0  0  0  0
 29 57  1  0  0  0  0
 30 58  1  0  0  0  0
 30 59  1  0  0  0  0
 31 32  1  0  0  0  0
 31 65  2  0  0  0  0
 32 61  1  0  0  0  0
 32 62  1  0  0  0  0
 60 65  1  0  0  0  0
 63 64  1  0  0  0  0
 65 66  1  0  0  0  0
M  CHG  2  63   1  65   1
M  END
$$$$
ZINC04631074
  -OEChem-08230709403D

 60 64  0     0  0  0  0  0  0999 V2000
    3.9320    7.6757   -5.5629 C   0  0  0  0  0  0  0  0  0  0  0  0
    3.0292    7.6115   -4.3580 C   0  0  0  0  0  0  0  0  0  0  0  0
    1.9526    8.4450   -4.2646 C   0  0  0  0  0  0  0  0  0  0  0  0
    1.1133    8.3952   -3.1590 C   0  0  0  0  0  0  0  0  0  0  0  0
    1.3507    7.5033   -2.1370 C   0  0  0  0  0  0  0  0  0  0  0  0
    2.4426    6.6431   -2.2090 C   0  0  0  0  0  0  0  0  0  0  0  0
    3.2927    6.6959   -3.3313 C   0  0  0  0  0  0  0  0  0  0  0  0
    4.3003    5.7214   -3.1321 C   0  0  0  0  0  0  0  0  0  0  0  0
    4.0626    5.1186   -1.9380 C   0  0  0  0  0  0  0  0  0  0  0  0
    2.9296    5.6686   -1.3703 N   0  0  0  0  0  0  0  0  0  0  0  0
    2.3465    5.2816   -0.0833 C   0  0  0  0  0  0  0  0  0  0  0  0
    1.2896    4.2309   -0.3063 C   0  0  0  0  0  0  0  0  0  0  0  0
    1.6355    2.8912   -0.2991 C   0  0  0  0  0  0  0  0  0  0  0  0
    0.6710    1.9210   -0.5027 C   0  0  0  0  0  0  0  0  0  0  0  0
   -0.6424    2.2845   -0.7203 C   0  0  0  0  0  0  0  0  0  0  0  0
   -0.9983    3.6329   -0.7230 C   0  0  0  0  0  0  0  0  0  0  0  0
   -0.0211    4.6066   -0.5167 C   0  0  0  0  0  0  0  0  0  0  0  0
   -2.4069    4.0295   -0.9493 C   0  0  0  0  0  0  0  0  0  0  0  0
   -3.6315    5.6492   -1.0960 H   0  0  0  0  0  0  0  0  0  0  0  0
   -3.3699    3.0653   -1.1529 N   0  0  0  0  0  0  0  0  0  0  0  0
    4.8793    4.0486   -1.3456 C   0  0  0  0  0  0  0  0  0  0  0  0
    4.6338    3.6461   -0.2242 O   0  0  0  0  0  0  0  0  0  0  0  0
    5.8997    3.5140   -2.0452 N   0  0  0  0  0  0  0  0  0  0  0  0
    6.7792    2.5247   -1.4175 C   0  0  0  0  0  0  0  0  0  0  0  0
    7.8305    2.0887   -2.4053 C   0  0  0  0  0  0  0  0  0  0  0  0
    7.5931    0.9889   -3.2456 C   0  0  0  0  0  0  0  0  0  0  0  0
    6.3874    0.2707   -3.2110 C   0  0  0  0  0  0  0  0  0  0  0  0
    6.2102   -0.7837   -4.0542 C   0  0  0  0  0  0  0  0  0  0  0  0
    7.2046   -1.1592   -4.9557 C   0  0  0  0  0  0  0  0  0  0  0  0
    8.3850   -0.4826   -5.0209 C   0  0  0  0  0  0  0  0  0  0  0  0
    8.6028    0.6088   -4.1676 C   0  0  0  0  0  0  0  0  0  0  0  0
    9.7995    1.3484   -4.1862 C   0  0  0  0  0  0  0  0  0  0  0  0
    9.9338    2.3953   -3.3259 C   0  0  0  0  0  0  0  0  0  0  0  0
    8.9717    2.7327   -2.4779 N   0  0  0  0  0  0  0  0  0  0  0  0
    3.5661    6.9910   -6.3280 H   0  0  0  0  0  0  0  0  0  0  0  0
    3.9392    8.6917   -5.9578 H   0  0  0  0  0  0  0  0  0  0  0  0
    4.9438    7.3909   -5.2744 H   0  0  0  0  0  0  0  0  0  0  0  0
    1.7516    9.1502   -5.0575 H   0  0  0  0  0  0  0  0  0  0  0  0
    0.2656    9.0619   -3.1008 H   0  0  0  0  0  0  0  0  0  0  0  0
    0.6919    7.4717   -1.2818 H   0  0  0  0  0  0  0  0  0  0  0  0
    5.1146    5.5003   -3.8063 H   0  0  0  0  0  0  0  0  0  0  0  0
    1.8968    6.1549    0.3891 H   0  0  0  0  0  0  0  0  0  0  0  0
    3.1270    4.8804    0.5632 H   0  0  0  0  0  0  0  0  0  0  0  0
    2.6629    2.6019   -0.1337 H   0  0  0  0  0  0  0  0  0  0  0  0
    0.9470    0.8768   -0.4957 H   0  0  0  0  0  0  0  0  0  0  0  0
   -1.3939    1.5263   -0.8835 H   0  0  0  0  0  0  0  0  0  0  0  0
   -0.2900    5.6526   -0.5221 H   0  0  0  0  0  0  0  0  0  0  0  0
   -3.1252    2.1267   -1.1478 H   0  0  0  0  0  0  0  0  0  0  0  0
   -4.2926    3.3251   -1.3011 H   0  0  0  0  0  0  0  0  0  0  0  0
    6.0518    3.7843   -2.9642 H   0  0  0  0  0  0  0  0  0  0  0  0
    7.2611    2.9680   -0.5460 H   0  0  0  0  0  0  0  0  0  0  0  0
    6.1914    1.6608   -1.1074 H   0  0  0  0  0  0  0  0  0  0  0  0
    5.6078    0.5497   -2.5176 H   0  0  0  0  0  0  0  0  0  0  0  0
    5.2839   -1.3383   -4.0236 H   0  0  0  0  0  0  0  0  0  0  0  0
    7.0368   -2.0001   -5.6125 H   0  0  0  0  0  0  0  0  0  0  0  0
    9.1472   -0.7843   -5.7239 H   0  0  0  0  0  0  0  0  0  0  0  0
   10.5957    1.0908   -4.8689 H   0  0  0  0  0  0  0  0  0  0  0  0
   10.8497    2.9674   -3.3348 H   0  0  0  0  0  0  0  0  0  0  0  0
   -2.6759    5.3259   -0.9445 N   0  3  0  0  0  0  0  0  0  0  0  0
   -1.9226    6.0059   -0.7883 H   0  0  0  0  0  0  0  0  0  0  0  0
  1  2  1  0  0  0  0
  1 35  1  0  0  0  0
  1 36  1  0  0  0  0
  1 37  1  0  0  0  0
  2  7  2  0  0  0  0
  2  3  1  0  0  0  0
  3  4  2  0  0  0  0
  3 38  1  0  0  0  0
  4  5  1  0  0  0  0
  4 39  1  0  0  0  0
  5  6  2  0  0  0  0
  5 40  1  0  0  0  0
  6 10  1  0  0  0  0
  6  7  1  0  0  0  0
  7  8  1  0  0  0  0
  8  9  2  0  0  0  0
  8 41  1  0  0  0  0
  9 10  1  0  0  0  0
  9 21  1  0  0  0  0
 10 11  1  0  0  0  0
 11 12  1  0  0  0  0
 11 42  1  0  0  0  0
 11 43  1  0  0  0  0
 12 17  2  0  0  0  0
 12 13  1  0  0  0  0
 13 14  2  0  0  0  0
 13 44  1  0  0  0  0
 14 15  1  0  0  0  0
 14 45  1  0  0  0  0
 15 16  2  0  0  0  0
 15 46  1  0  0  0  0
 16 17  1  0  0  0  0
 16 18  1  0  0  0  0
 17 47  1  0  0  0  0
 18 20  1  0  0  0  0
 18 59  2  0  0  0  0
 19 59  1  0  0  0  0
 20 48  1  0  0  0  0
 20 49  1  0  0  0  0
 21 22  2  0  0  0  0
 21 23  1  0  0  0  0
 23 24  1  0  0  0  0
 23 50  1  0  0  0  0
 24 25  1  0  0  0  0
 24 51  1  0  0  0  0
 24 52  1  0  0  0  0
 25 34  2  0  0  0  0
 25 26  1  0  0  0  0
 26 31  2  0  0  0  0
 26 27  1  0  0  0  0
 27 28  2  0  0  0  0
 27 53  1  0  0  0  0
 28 29  1  0  0  0  0
 28 54  1  0  0  0  0
 29 30  2  0  0  0  0
 29 55  1  0  0  0  0
 30 31  1  0  0  0  0
 30 56  1  0  0  0  0
 31 32  1  0  0  0  0
 32 33  2  0  0  0  0
 32 57  1  0  0  0  0
 33 34  1  0  0  0  0
 33 58  1  0  0  0  0
 59 60  1  0  0  0  0
M  CHG  1  59   1
M  END
$$$$
ZINC04631077
  -OEChem-08230709403D

 56 59  0     0  0  0  0  0  0999 V2000
    4.3388   -0.7938   -1.2859 C   0  0  0  0  0  0  0  0  0  0  0  0
    2.8806   -0.4246   -1.3786 C   0  0  0  0  0  0  0  0  0  0  0  0
    1.9587   -1.3638   -1.7397 C   0  0  0  0  0  0  0  0  0  0  0  0
    0.6119   -1.0355   -1.8286 C   0  0  0  0  0  0  0  0  0  0  0  0
    0.1814    0.2432   -1.5528 C   0  0  0  0  0  0  0  0  0  0  0  0
    1.1026    1.2187   -1.1829 C   0  0  0  0  0  0  0  0  0  0  0  0
    2.4681    0.8833   -1.0939 C   0  0  0  0  0  0  0  0  0  0  0  0
    3.1569    2.0569   -0.7024 C   0  0  0  0  0  0  0  0  0  0  0  0
    2.2387    3.0488   -0.5643 C   0  0  0  0  0  0  0  0  0  0  0  0
    0.9841    2.5486   -0.8548 N   0  0  0  0  0  0  0  0  0  0  0  0
   -0.2663    3.3114   -0.8243 C   0  0  0  0  0  0  0  0  0  0  0  0
   -0.9441    3.1118    0.5067 C   0  0  0  0  0  0  0  0  0  0  0  0
   -1.7646    2.0157    0.7061 C   0  0  0  0  0  0  0  0  0  0  0  0
   -2.3864    1.8231    1.9267 C   0  0  0  0  0  0  0  0  0  0  0  0
   -2.1998    2.7301    2.9500 C   0  0  0  0  0  0  0  0  0  0  0  0
   -1.3784    3.8395    2.7534 C   0  0  0  0  0  0  0  0  0  0  0  0
   -0.7499    4.0254    1.5221 C   0  0  0  0  0  0  0  0  0  0  0  0
   -1.1744    4.8166    3.8472 C   0  0  0  0  0  0  0  0  0  0  0  0
   -0.3006    6.6030    4.2832 H   0  0  0  0  0  0  0  0  0  0  0  0
   -1.7100    4.5770    5.0939 N   0  0  0  0  0  0  0  0  0  0  0  0
    2.5335    4.4343   -0.1691 C   0  0  0  0  0  0  0  0  0  0  0  0
    1.6242    5.2219    0.0110 O   0  0  0  0  0  0  0  0  0  0  0  0
    3.8112    4.8312   -0.0064 N   0  0  0  0  0  0  0  0  0  0  0  0
    4.1019    6.1771    0.4939 C   0  0  0  0  0  0  0  0  0  0  0  0
    5.5874    6.3265    0.6997 C   0  0  0  0  0  0  0  0  0  0  0  0
    6.1652    5.9104    1.8850 C   0  0  0  0  0  0  0  0  0  0  0  0
    7.5274    6.0410    2.0737 C   0  0  0  0  0  0  0  0  0  0  0  0
    8.3141    6.6006    1.0774 C   0  0  0  0  0  0  0  0  0  0  0  0
    7.7311    7.0225   -0.1086 C   0  0  0  0  0  0  0  0  0  0  0  0
    6.3692    6.8845   -0.2949 C   0  0  0  0  0  0  0  0  0  0  0  0
    9.6537    6.7349    1.2629 O   0  0  0  0  0  0  0  0  0  0  0  0
    4.5629   -1.1379   -0.2763 H   0  0  0  0  0  0  0  0  0  0  0  0
    4.5580   -1.5895   -1.9980 H   0  0  0  0  0  0  0  0  0  0  0  0
    4.9499    0.0788   -1.5166 H   0  0  0  0  0  0  0  0  0  0  0  0
    2.2792   -2.3716   -1.9587 H   0  0  0  0  0  0  0  0  0  0  0  0
   -0.1046   -1.7908   -2.1157 H   0  0  0  0  0  0  0  0  0  0  0  0
   -0.8679    0.4884   -1.6242 H   0  0  0  0  0  0  0  0  0  0  0  0
    4.2210    2.1472   -0.5419 H   0  0  0  0  0  0  0  0  0  0  0  0
   -0.0495    4.3702   -0.9664 H   0  0  0  0  0  0  0  0  0  0  0  0
   -0.9230    2.9646   -1.6221 H   0  0  0  0  0  0  0  0  0  0  0  0
   -1.9169    1.3054   -0.0930 H   0  0  0  0  0  0  0  0  0  0  0  0
   -3.0227    0.9636    2.0776 H   0  0  0  0  0  0  0  0  0  0  0  0
   -2.6888    2.5806    3.9013 H   0  0  0  0  0  0  0  0  0  0  0  0
   -0.1128    4.8829    1.3639 H   0  0  0  0  0  0  0  0  0  0  0  0
   -2.2205    3.7681    5.2551 H   0  0  0  0  0  0  0  0  0  0  0  0
   -1.5763    5.2171    5.8103 H   0  0  0  0  0  0  0  0  0  0  0  0
    4.5381    4.2258   -0.2206 H   0  0  0  0  0  0  0  0  0  0  0  0
    3.7594    6.9159   -0.2306 H   0  0  0  0  0  0  0  0  0  0  0  0
    3.5865    6.3316    1.4419 H   0  0  0  0  0  0  0  0  0  0  0  0
    5.5516    5.4788    2.6619 H   0  0  0  0  0  0  0  0  0  0  0  0
    7.9789    5.7119    2.9980 H   0  0  0  0  0  0  0  0  0  0  0  0
    8.3413    7.4588   -0.8856 H   0  0  0  0  0  0  0  0  0  0  0  0
    5.9149    7.2124   -1.2181 H   0  0  0  0  0  0  0  0  0  0  0  0
    9.9129    7.5754    1.6648 H   0  0  0  0  0  0  0  0  0  0  0  0
   -0.4686    5.9003    3.5631 N   0  3  0  0  0  0  0  0  0  0  0  0
   -0.0903    6.0333    2.6178 H   0  0  0  0  0  0  0  0  0  0  0  0
  1  2  1  0  0  0  0
  1 32  1  0  0  0  0
  1 33  1  0  0  0  0
  1 34  1  0  0  0  0
  2  7  2  0  0  0  0
  2  3  1  0  0  0  0
  3  4  2  0  0  0  0
  3 35  1  0  0  0  0
  4  5  1  0  0  0  0
  4 36  1  0  0  0  0
  5  6  2  0  0  0  0
  5 37  1  0  0  0  0
  6 10  1  0  0  0  0
  6  7  1  0  0  0  0
  7  8  1  0  0  0  0
  8  9  2  0  0  0  0
  8 38  1  0  0  0  0
  9 10  1  0  0  0  0
  9 21  1  0  0  0  0
 10 11  1  0  0  0  0
 11 12  1  0  0  0  0
 11 39  1  0  0  0  0
 11 40  1  0  0  0  0
 12 17  2  0  0  0  0
 12 13  1  0  0  0  0
 13 14  2  0  0  0  0
 13 41  1  0  0  0  0
 14 15  1  0  0  0  0
 14 42  1  0  0  0  0
 15 16  2  0  0  0  0
 15 43  1  0  0  0  0
 16 17  1  0  0  0  0
 16 18  1  0  0  0  0
 17 44  1  0  0  0  0
 18 20  1  0  0  0  0
 18 55  2  0  0  0  0
 19 55  1  0  0  0  0
 20 45  1  0  0  0  0
 20 46  1  0  0  0  0
 21 22  2  0  0  0  0
 21 23  1  0  0  0  0
 23 24  1  0  0  0  0
 23 47  1  0  0  0  0
 24 25  1  0  0  0  0
 24 48  1  0  0  0  0
 24 49  1  0  0  0  0
 25 30  2  0  0  0  0
 25 26  1  0  0  0  0
 26 27  2  0  0  0  0
 26 50  1  0  0  0  0
 27 28  1  0  0  0  0
 27 51  1  0  0  0  0
 28 29  2  0  0  0  0
 28 31  1  0  0  0  0
 29 30  1  0  0  0  0
 29 52  1  0  0  0  0
 30 53  1  0  0  0  0
 31 54  1  0  0  0  0
 55 56  1  0  0  0  0
M  CHG  1  55   1
M  END
$$$$
ZINC04631078
  -OEChem-08230709403D

 57 60  0     0  0  0  0  0  0999 V2000
    3.9319    7.6758   -5.5630 C   0  0  0  0  0  0  0  0  0  0  0  0
    3.0291    7.6115   -4.3581 C   0  0  0  0  0  0  0  0  0  0  0  0
    1.9526    8.4450   -4.2646 C   0  0  0  0  0  0  0  0  0  0  0  0
    1.1131    8.3953   -3.1591 C   0  0  0  0  0  0  0  0  0  0  0  0
    1.3506    7.5032   -2.1370 C   0  0  0  0  0  0  0  0  0  0  0  0
    2.4425    6.6432   -2.2091 C   0  0  0  0  0  0  0  0  0  0  0  0
    3.2925    6.6960   -3.3314 C   0  0  0  0  0  0  0  0  0  0  0  0
    4.3003    5.7214   -3.1321 C   0  0  0  0  0  0  0  0  0  0  0  0
    4.0626    5.1187   -1.9380 C   0  0  0  0  0  0  0  0  0  0  0  0
    2.9296    5.6687   -1.3703 N   0  0  0  0  0  0  0  0  0  0  0  0
    2.3465    5.2817   -0.0833 C   0  0  0  0  0  0  0  0  0  0  0  0
    1.2896    4.2309   -0.3063 C   0  0  0  0  0  0  0  0  0  0  0  0
    1.6355    2.8913   -0.2991 C   0  0  0  0  0  0  0  0  0  0  0  0
    0.6711    1.9209   -0.5026 C   0  0  0  0  0  0  0  0  0  0  0  0
   -0.6424    2.2846   -0.7202 C   0  0  0  0  0  0  0  0  0  0  0  0
   -0.9982    3.6328   -0.7229 C   0  0  0  0  0  0  0  0  0  0  0  0
   -0.0211    4.6066   -0.5166 C   0  0  0  0  0  0  0  0  0  0  0  0
   -2.4069    4.0294   -0.9493 C   0  0  0  0  0  0  0  0  0  0  0  0
   -3.6315    5.6491   -1.0960 H   0  0  0  0  0  0  0  0  0  0  0  0
   -3.3699    3.0652   -1.1528 N   0  0  0  0  0  0  0  0  0  0  0  0
    4.8793    4.0487   -1.3456 C   0  0  0  0  0  0  0  0  0  0  0  0
    4.6339    3.6462   -0.2242 O   0  0  0  0  0  0  0  0  0  0  0  0
    5.8998    3.5141   -2.0452 N   0  0  0  0  0  0  0  0  0  0  0  0
    6.7792    2.5248   -1.4174 C   0  0  0  0  0  0  0  0  0  0  0  0
    7.8306    2.0889   -2.4052 C   0  0  0  0  0  0  0  0  0  0  0  0
    7.5955    1.0060   -3.2321 C   0  0  0  0  0  0  0  0  0  0  0  0
    8.5581    0.6085   -4.1407 C   0  0  0  0  0  0  0  0  0  0  0  0
    9.7596    1.2884   -4.2168 C   0  0  0  0  0  0  0  0  0  0  0  0
    9.9965    2.3680   -3.3869 C   0  0  0  0  0  0  0  0  0  0  0  0
    9.0320    2.7679   -2.4806 C   0  0  0  0  0  0  0  0  0  0  0  0
   11.2829    3.0956   -3.4681 N   0  3  0  0  0  0  0  0  0  0  0  0
   11.4918    4.0467   -2.7364 O   0  0  0  0  0  0  0  0  0  0  0  0
   12.1326    2.7432   -4.2664 O   0  5  0  0  0  0  0  0  0  0  0  0
    3.5660    6.9911   -6.3281 H   0  0  0  0  0  0  0  0  0  0  0  0
    3.9391    8.6916   -5.9579 H   0  0  0  0  0  0  0  0  0  0  0  0
    4.9438    7.3909   -5.2745 H   0  0  0  0  0  0  0  0  0  0  0  0
    1.7515    9.1501   -5.0576 H   0  0  0  0  0  0  0  0  0  0  0  0
    0.2655    9.0619   -3.1008 H   0  0  0  0  0  0  0  0  0  0  0  0
    0.6918    7.4718   -1.2818 H   0  0  0  0  0  0  0  0  0  0  0  0
    5.1146    5.5004   -3.8062 H   0  0  0  0  0  0  0  0  0  0  0  0
    1.8967    6.1550    0.3891 H   0  0  0  0  0  0  0  0  0  0  0  0
    3.1270    4.8805    0.5633 H   0  0  0  0  0  0  0  0  0  0  0  0
    2.6629    2.6020   -0.1337 H   0  0  0  0  0  0  0  0  0  0  0  0
    0.9471    0.8769   -0.4956 H   0  0  0  0  0  0  0  0  0  0  0  0
   -1.3939    1.5263   -0.8833 H   0  0  0  0  0  0  0  0  0  0  0  0
   -0.2900    5.6526   -0.5220 H   0  0  0  0  0  0  0  0  0  0  0  0
   -3.1251    2.1266   -1.1477 H   0  0  0  0  0  0  0  0  0  0  0  0
   -4.2926    3.3250   -1.3011 H   0  0  0  0  0  0  0  0  0  0  0  0
    6.0518    3.7844   -2.9642 H   0  0  0  0  0  0  0  0  0  0  0  0
    7.2611    2.9682   -0.5459 H   0  0  0  0  0  0  0  0  0  0  0  0
    6.1914    1.6609   -1.1074 H   0  0  0  0  0  0  0  0  0  0  0  0
    6.6585    0.4726   -3.1701 H   0  0  0  0  0  0  0  0  0  0  0  0
    8.3732   -0.2353   -4.7889 H   0  0  0  0  0  0  0  0  0  0  0  0
   10.5131    0.9757   -4.9245 H   0  0  0  0  0  0  0  0  0  0  0  0
    9.2172    3.6113   -1.8320 H   0  0  0  0  0  0  0  0  0  0  0  0
   -2.6759    5.3259   -0.9445 N   0  3  0  0  0  0  0  0  0  0  0  0
   -1.9227    6.0059   -0.7883 H   0  0  0  0  0  0  0  0  0  0  0  0
  1  2  1  0  0  0  0
  1 34  1  0  0  0  0
  1 35  1  0  0  0  0
  1 36  1  0  0  0  0
  2  7  2  0  0  0  0
  2  3  1  0  0  0  0
  3  4  2  0  0  0  0
  3 37  1  0  0  0  0
  4  5  1  0  0  0  0
  4 38  1  0  0  0  0
  5  6  2  0  0  0  0
  5 39  1  0  0  0  0
  6 10  1  0  0  0  0
  6  7  1  0  0  0  0
  7  8  1  0  0  0  0
  8  9  2  0  0  0  0
  8 40  1  0  0  0  0
  9 10  1  0  0  0  0
  9 21  1  0  0  0  0
 10 11  1  0  0  0  0
 11 12  1  0  0  0  0
 11 41  1  0  0  0  0
 11 42  1  0  0  0  0
 12 17  2  0  0  0  0
 12 13  1  0  0  0  0
 13 14  2  0  0  0  0
 13 43  1  0  0  0  0
 14 15  1  0  0  0  0
 14 44  1  0  0  0  0
 15 16  2  0  0  0  0
 15 45  1  0  0  0  0
 16 17  1  0  0  0  0
 16 18  1  0  0  0  0
 17 46  1  0  0  0  0
 18 20  1  0  0  0  0
 18 56  2  0  0  0  0
 19 56  1  0  0  0  0
 20 47  1  0  0  0  0
 20 48  1  0  0  0  0
 21 22  2  0  0  0  0
 21 23  1  0  0  0  0
 23 24  1  0  0  0  0
 23 49  1  0  0  0  0
 24 25  1  0  0  0  0
 24 50  1  0  0  0  0
 24 51  1  0  0  0  0
 25 30  2  0  0  0  0
 25 26  1  0  0  0  0
 26 27  2  0  0  0  0
 26 52  1  0  0  0  0
 27 28  1  0  0  0  0
 27 53  1  0  0  0  0
 28 29  2  0  0  0  0
 28 54  1  0  0  0  0
 29 30  1  0  0  0  0
 29 31  1  0  0  0  0
 30 55  1  0  0  0  0
 31 32  2  0  0  0  0
 31 33  1  0  0  0  0
 56 57  1  0  0  0  0
M  CHG  3  31   1  33  -1  56   1
M  END
$$$$
ZINC04631080
  -OEChem-08230709403D

 65 69  0     0  0  0  0  0  0999 V2000
    3.9319    7.6758   -5.5630 C   0  0  0  0  0  0  0  0  0  0  0  0
    3.0291    7.6115   -4.3581 C   0  0  0  0  0  0  0  0  0  0  0  0
    1.9526    8.4450   -4.2646 C   0  0  0  0  0  0  0  0  0  0  0  0
    1.1131    8.3953   -3.1591 C   0  0  0  0  0  0  0  0  0  0  0  0
    1.3506    7.5032   -2.1370 C   0  0  0  0  0  0  0  0  0  0  0  0
    2.4425    6.6432   -2.2091 C   0  0  0  0  0  0  0  0  0  0  0  0
    3.2925    6.6960   -3.3314 C   0  0  0  0  0  0  0  0  0  0  0  0
    4.3003    5.7214   -3.1321 C   0  0  0  0  0  0  0  0  0  0  0  0
    4.0626    5.1187   -1.9380 C   0  0  0  0  0  0  0  0  0  0  0  0
    2.9296    5.6687   -1.3703 N   0  0  0  0  0  0  0  0  0  0  0  0
    2.3465    5.2817   -0.0833 C   0  0  0  0  0  0  0  0  0  0  0  0
    1.2896    4.2309   -0.3063 C   0  0  0  0  0  0  0  0  0  0  0  0
    1.6355    2.8913   -0.2991 C   0  0  0  0  0  0  0  0  0  0  0  0
    0.6711    1.9209   -0.5026 C   0  0  0  0  0  0  0  0  0  0  0  0
   -0.6424    2.2846   -0.7202 C   0  0  0  0  0  0  0  0  0  0  0  0
   -0.9982    3.6328   -0.7229 C   0  0  0  0  0  0  0  0  0  0  0  0
   -0.0211    4.6066   -0.5166 C   0  0  0  0  0  0  0  0  0  0  0  0
   -2.4069    4.0294   -0.9493 C   0  0  0  0  0  0  0  0  0  0  0  0
   -3.6315    5.6491   -1.0960 H   0  0  0  0  0  0  0  0  0  0  0  0
   -3.3699    3.0652   -1.1528 N   0  0  0  0  0  0  0  0  0  0  0  0
    4.8793    4.0487   -1.3456 C   0  0  0  0  0  0  0  0  0  0  0  0
    4.6339    3.6462   -0.2242 O   0  0  0  0  0  0  0  0  0  0  0  0
    5.8998    3.5141   -2.0452 N   0  0  0  0  0  0  0  0  0  0  0  0
    6.7792    2.5248   -1.4174 C   0  0  0  0  0  0  0  0  0  0  0  0
    7.8306    2.0889   -2.4052 C   0  0  0  0  0  0  0  0  0  0  0  0
    7.5940    1.0051   -3.2319 C   0  0  0  0  0  0  0  0  0  0  0  0
    8.5525    0.6025   -4.1441 C   0  0  0  0  0  0  0  0  0  0  0  0
    9.7555    1.2745   -4.2269 C   0  0  0  0  0  0  0  0  0  0  0  0
   10.0011    2.3632   -3.3930 C   0  0  0  0  0  0  0  0  0  0  0  0
    9.0296    2.7678   -2.4794 C   0  0  0  0  0  0  0  0  0  0  0  0
   11.2922    3.0897   -3.4778 C   0  0  0  0  0  0  0  0  0  0  0  0
   11.5354    4.1824   -2.6482 C   0  0  0  0  0  0  0  0  0  0  0  0
   12.7402    4.8512   -2.7276 C   0  0  0  0  0  0  0  0  0  0  0  0
   13.7008    4.4454   -3.6362 C   0  0  0  0  0  0  0  0  0  0  0  0
   13.4626    3.3646   -4.4659 C   0  0  0  0  0  0  0  0  0  0  0  0
   12.2635    2.6852   -4.3913 C   0  0  0  0  0  0  0  0  0  0  0  0
    3.5660    6.9911   -6.3281 H   0  0  0  0  0  0  0  0  0  0  0  0
    3.9391    8.6916   -5.9579 H   0  0  0  0  0  0  0  0  0  0  0  0
    4.9438    7.3909   -5.2745 H   0  0  0  0  0  0  0  0  0  0  0  0
    1.7515    9.1501   -5.0576 H   0  0  0  0  0  0  0  0  0  0  0  0
    0.2655    9.0619   -3.1008 H   0  0  0  0  0  0  0  0  0  0  0  0
    0.6918    7.4718   -1.2818 H   0  0  0  0  0  0  0  0  0  0  0  0
    5.1146    5.5004   -3.8062 H   0  0  0  0  0  0  0  0  0  0  0  0
    1.8967    6.1550    0.3891 H   0  0  0  0  0  0  0  0  0  0  0  0
    3.1270    4.8805    0.5633 H   0  0  0  0  0  0  0  0  0  0  0  0
    2.6629    2.6020   -0.1337 H   0  0  0  0  0  0  0  0  0  0  0  0
    0.9471    0.8769   -0.4956 H   0  0  0  0  0  0  0  0  0  0  0  0
   -1.3939    1.5263   -0.8833 H   0  0  0  0  0  0  0  0  0  0  0  0
   -0.2900    5.6526   -0.5220 H   0  0  0  0  0  0  0  0  0  0  0  0
   -3.1251    2.1266   -1.1477 H   0  0  0  0  0  0  0  0  0  0  0  0
   -4.2926    3.3250   -1.3011 H   0  0  0  0  0  0  0  0  0  0  0  0
    6.0518    3.7844   -2.9642 H   0  0  0  0  0  0  0  0  0  0  0  0
    7.2611    2.9682   -0.5459 H   0  0  0  0  0  0  0  0  0  0  0  0
    6.1914    1.6609   -1.1074 H   0  0  0  0  0  0  0  0  0  0  0  0
    6.6560    0.4738   -3.1674 H   0  0  0  0  0  0  0  0  0  0  0  0
    8.3612   -0.2419   -4.7897 H   0  0  0  0  0  0  0  0  0  0  0  0
   10.5047    0.9569   -4.9369 H   0  0  0  0  0  0  0  0  0  0  0  0
    9.2150    3.6109   -1.8306 H   0  0  0  0  0  0  0  0  0  0  0  0
   10.7843    4.5029   -1.9415 H   0  0  0  0  0  0  0  0  0  0  0  0
   12.9314    5.6959   -2.0822 H   0  0  0  0  0  0  0  0  0  0  0  0
   14.6405    4.9741   -3.6979 H   0  0  0  0  0  0  0  0  0  0  0  0
   14.2162    3.0518   -5.1735 H   0  0  0  0  0  0  0  0  0  0  0  0
   12.0785    1.8414   -5.0395 H   0  0  0  0  0  0  0  0  0  0  0  0
   -2.6759    5.3259   -0.9445 N   0  3  0  0  0  0  0  0  0  0  0  0
   -1.9227    6.0059   -0.7883 H   0  0  0  0  0  0  0  0  0  0  0  0
  1  2  1  0  0  0  0
  1 37  1  0  0  0  0
  1 38  1  0  0  0  0
  1 39  1  0  0  0  0
  2  7  2  0  0  0  0
  2  3  1  0  0  0  0
  3  4  2  0  0  0  0
  3 40  1  0  0  0  0
  4  5  1  0  0  0  0
  4 41  1  0  0  0  0
  5  6  2  0  0  0  0
  5 42  1  0  0  0  0
  6 10  1  0  0  0  0
  6  7  1  0  0  0  0
  7  8  1  0  0  0  0
  8  9  2  0  0  0  0
  8 43  1  0  0  0  0
  9 10  1  0  0  0  0
  9 21  1  0  0  0  0
 10 11  1  0  0  0  0
 11 12  1  0  0  0  0
 11 44  1  0  0  0  0
 11 45  1  0  0  0  0
 12 17  2  0  0  0  0
 12 13  1  0  0  0  0
 13 14  2  0  0  0  0
 13 46  1  0  0  0  0
 14 15  1  0  0  0  0
 14 47  1  0  0  0  0
 15 16  2  0  0  0  0
 15 48  1  0  0  0  0
 16 17  1  0  0  0  0
 16 18  1  0  0  0  0
 17 49  1  0  0  0  0
 18 20  1  0  0  0  0
 18 64  2  0  0  0  0
 19 64  1  0  0  0  0
 20 50  1  0  0  0  0
 20 51  1  0  0  0  0
 21 22  2  0  0  0  0
 21 23  1  0  0  0  0
 23 24  1  0  0  0  0
 23 52  1  0  0  0  0
 24 25  1  0  0  0  0
 24 53  1  0  0  0  0
 24 54  1  0  0  0  0
 25 30  2  0  0  0  0
 25 26  1  0  0  0  0
 26 27  2  0  0  0  0
 26 55  1  0  0  0  0
 27 28  1  0  0  0  0
 27 56  1  0  0  0  0
 28 29  2  0  0  0  0
 28 57  1  0  0  0  0
 29 30  1  0  0  0  0
 29 31  1  0  0  0  0
 30 58  1  0  0  0  0
 31 36  2  0  0  0  0
 31 32  1  0  0  0  0
 32 33  2  0  0  0  0
 32 59  1  0  0  0  0
 33 34  1  0  0  0  0
 33 60  1  0  0  0  0
 34 35  2  0  0  0  0
 34 61  1  0  0  0  0
 35 36  1  0  0  0  0
 35 62  1  0  0  0  0
 36 63  1  0  0  0  0
 64 65  1  0  0  0  0
M  CHG  1  64   1
M  END
$$$$
ZINC04631083
  -OEChem-08230709403D

 61 65  0     0  0  0  0  0  0999 V2000
    4.8163    8.0052   -4.9831 C   0  0  0  0  0  0  0  0  0  0  0  0
    3.9321    7.9653   -3.7634 C   0  0  0  0  0  0  0  0  0  0  0  0
    2.9676    8.9145   -3.5862 C   0  0  0  0  0  0  0  0  0  0  0  0
    2.1473    8.8889   -2.4657 C   0  0  0  0  0  0  0  0  0  0  0  0
    2.2910    7.9051   -1.5128 C   0  0  0  0  0  0  0  0  0  0  0  0
    3.2675    6.9259   -1.6710 C   0  0  0  0  0  0  0  0  0  0  0  0
    4.0986    6.9544   -2.8082 C   0  0  0  0  0  0  0  0  0  0  0  0
    4.9820    5.8531   -2.7016 C   0  0  0  0  0  0  0  0  0  0  0  0
    4.6920    5.2004   -1.5459 C   0  0  0  0  0  0  0  0  0  0  0  0
    3.6452    5.8426   -0.9132 N   0  0  0  0  0  0  0  0  0  0  0  0
    3.0411    5.4394    0.3590 C   0  0  0  0  0  0  0  0  0  0  0  0
    1.8282    4.5862    0.0912 C   0  0  0  0  0  0  0  0  0  0  0  0
    1.9669    3.2183   -0.0638 C   0  0  0  0  0  0  0  0  0  0  0  0
    0.8584    2.4284   -0.3095 C   0  0  0  0  0  0  0  0  0  0  0  0
   -0.3930    3.0021   -0.4075 C   0  0  0  0  0  0  0  0  0  0  0  0
   -0.5401    4.3793   -0.2466 C   0  0  0  0  0  0  0  0  0  0  0  0
    0.5815    5.1704    0.0014 C   0  0  0  0  0  0  0  0  0  0  0  0
   -1.8809    5.0003   -0.3441 C   0  0  0  0  0  0  0  0  0  0  0  0
   -2.8510    6.7873   -0.2449 H   0  0  0  0  0  0  0  0  0  0  0  0
   -2.9871    4.2161   -0.5893 N   0  0  0  0  0  0  0  0  0  0  0  0
    5.3802    3.9994   -1.0493 C   0  0  0  0  0  0  0  0  0  0  0  0
    5.0339    3.4898   -0.0003 O   0  0  0  0  0  0  0  0  0  0  0  0
    6.3947    3.4633   -1.7563 N   0  0  0  0  0  0  0  0  0  0  0  0
    7.1533    2.3358   -1.2090 C   0  0  0  0  0  0  0  0  0  0  0  0
    8.2993    2.0068   -2.1307 C   0  0  0  0  0  0  0  0  0  0  0  0
    8.2200    0.9343   -2.9652 C   0  0  0  0  0  0  0  0  0  0  0  0
    9.2693    0.6147   -3.8243 C   0  0  0  0  0  0  0  0  0  0  0  0
   10.4042    1.3658   -3.8543 C   0  0  0  0  0  0  0  0  0  0  0  0
   10.5225    2.4809   -3.0078 C   0  0  0  0  0  0  0  0  0  0  0  0
    9.4529    2.8090   -2.1373 C   0  0  0  0  0  0  0  0  0  0  0  0
    9.5729    3.9219   -1.2875 C   0  0  0  0  0  0  0  0  0  0  0  0
   10.7079    4.6723   -1.3170 C   0  0  0  0  0  0  0  0  0  0  0  0
   11.7578    4.3522   -2.1760 C   0  0  0  0  0  0  0  0  0  0  0  0
   11.6787    3.2799   -3.0102 C   0  0  0  0  0  0  0  0  0  0  0  0
    4.3569    7.4254   -5.7838 H   0  0  0  0  0  0  0  0  0  0  0  0
    4.9409    9.0381   -5.3080 H   0  0  0  0  0  0  0  0  0  0  0  0
    5.7903    7.5806   -4.7399 H   0  0  0  0  0  0  0  0  0  0  0  0
    2.8413    9.6929   -4.3241 H   0  0  0  0  0  0  0  0  0  0  0  0
    1.3889    9.6476   -2.3408 H   0  0  0  0  0  0  0  0  0  0  0  0
    1.6478    7.8933   -0.6453 H   0  0  0  0  0  0  0  0  0  0  0  0
    5.7519    5.5832   -3.4094 H   0  0  0  0  0  0  0  0  0  0  0  0
    2.7446    6.3271    0.9179 H   0  0  0  0  0  0  0  0  0  0  0  0
    3.7654    4.8691    0.9406 H   0  0  0  0  0  0  0  0  0  0  0  0
    2.9448    2.7655    0.0076 H   0  0  0  0  0  0  0  0  0  0  0  0
    0.9729    1.3612   -0.4293 H   0  0  0  0  0  0  0  0  0  0  0  0
   -1.2573    2.3849   -0.6037 H   0  0  0  0  0  0  0  0  0  0  0  0
    0.4745    6.2383    0.1225 H   0  0  0  0  0  0  0  0  0  0  0  0
   -2.8874    3.2575   -0.6979 H   0  0  0  0  0  0  0  0  0  0  0  0
   -3.8653    4.6228   -0.6531 H   0  0  0  0  0  0  0  0  0  0  0  0
    6.6225    3.8239   -2.6274 H   0  0  0  0  0  0  0  0  0  0  0  0
    7.5424    2.6025   -0.2263 H   0  0  0  0  0  0  0  0  0  0  0  0
    6.4999    1.4682   -1.1178 H   0  0  0  0  0  0  0  0  0  0  0  0
    7.3306    0.3218   -2.9611 H   0  0  0  0  0  0  0  0  0  0  0  0
    9.1809   -0.2417   -4.4764 H   0  0  0  0  0  0  0  0  0  0  0  0
   11.2093    1.1063   -4.5258 H   0  0  0  0  0  0  0  0  0  0  0  0
    8.7672    4.1825   -0.6172 H   0  0  0  0  0  0  0  0  0  0  0  0
   10.7962    5.5290   -0.6653 H   0  0  0  0  0  0  0  0  0  0  0  0
   12.6474    4.9646   -2.1798 H   0  0  0  0  0  0  0  0  0  0  0  0
   12.4999    3.0444   -3.6709 H   0  0  0  0  0  0  0  0  0  0  0  0
   -1.9497    6.3130   -0.1866 N   0  3  0  0  0  0  0  0  0  0  0  0
   -1.0958    6.8538   -0.0056 H   0  0  0  0  0  0  0  0  0  0  0  0
  1  2  1  0  0  0  0
  1 35  1  0  0  0  0
  1 36  1  0  0  0  0
  1 37  1  0  0  0  0
  2  7  2  0  0  0  0
  2  3  1  0  0  0  0
  3  4  2  0  0  0  0
  3 38  1  0  0  0  0
  4  5  1  0  0  0  0
  4 39  1  0  0  0  0
  5  6  2  0  0  0  0
  5 40  1  0  0  0  0
  6 10  1  0  0  0  0
  6  7  1  0  0  0  0
  7  8  1  0  0  0  0
  8  9  2  0  0  0  0
  8 41  1  0  0  0  0
  9 10  1  0  0  0  0
  9 21  1  0  0  0  0
 10 11  1  0  0  0  0
 11 12  1  0  0  0  0
 11 42  1  0  0  0  0
 11 43  1  0  0  0  0
 12 17  2  0  0  0  0
 12 13  1  0  0  0  0
 13 14  2  0  0  0  0
 13 44  1  0  0  0  0
 14 15  1  0  0  0  0
 14 45  1  0  0  0  0
 15 16  2  0  0  0  0
 15 46  1  0  0  0  0
 16 17  1  0  0  0  0
 16 18  1  0  0  0  0
 17 47  1  0  0  0  0
 18 20  1  0  0  0  0
 18 60  2  0  0  0  0
 19 60  1  0  0  0  0
 20 48  1  0  0  0  0
 20 49  1  0  0  0  0
 21 22  2  0  0  0  0
 21 23  1  0  0  0  0
 23 24  1  0  0  0  0
 23 50  1  0  0  0  0
 24 25  1  0  0  0  0
 24 51  1  0  0  0  0
 24 52  1  0  0  0  0
 25 30  2  0  0  0  0
 25 26  1  0  0  0  0
 26 27  2  0  0  0  0
 26 53  1  0  0  0  0
 27 28  1  0  0  0  0
 27 54  1  0  0  0  0
 28 29  2  0  0  0  0
 28 55  1  0  0  0  0
 29 34  1  0  0  0  0
 29 30  1  0  0  0  0
 30 31  1  0  0  0  0
 31 32  2  0  0  0  0
 31 56  1  0  0  0  0
 32 33  1  0  0  0  0
 32 57  1  0  0  0  0
 33 34  2  0  0  0  0
 33 58  1  0  0  0  0
 34 59  1  0  0  0  0
 60 61  1  0  0  0  0
M  CHG  1  60   1
M  END
$$$$
ZINC04631084
  -OEChem-08230709403D

 60 64  0     0  0  0  0  0  0999 V2000
    4.8044    8.0002   -4.9926 C   0  0  0  0  0  0  0  0  0  0  0  0
    3.9224    7.9615   -3.7713 C   0  0  0  0  0  0  0  0  0  0  0  0
    2.9579    8.9105   -3.5936 C   0  0  0  0  0  0  0  0  0  0  0  0
    2.1394    8.8857   -2.4716 C   0  0  0  0  0  0  0  0  0  0  0  0
    2.2847    7.9027   -1.5181 C   0  0  0  0  0  0  0  0  0  0  0  0
    3.2615    6.9240   -1.6767 C   0  0  0  0  0  0  0  0  0  0  0  0
    4.0907    6.9515   -2.8154 C   0  0  0  0  0  0  0  0  0  0  0  0
    4.9750    5.8510   -2.7089 C   0  0  0  0  0  0  0  0  0  0  0  0
    4.6875    5.1997   -1.5517 C   0  0  0  0  0  0  0  0  0  0  0  0
    3.6411    5.8420   -0.9183 N   0  0  0  0  0  0  0  0  0  0  0  0
    3.0390    5.4397    0.3553 C   0  0  0  0  0  0  0  0  0  0  0  0
    1.8263    4.5853    0.0899 C   0  0  0  0  0  0  0  0  0  0  0  0
    1.9658    3.2173   -0.0637 C   0  0  0  0  0  0  0  0  0  0  0  0
    0.8574    2.4265   -0.3069 C   0  0  0  0  0  0  0  0  0  0  0  0
   -0.3945    2.9991   -0.4040 C   0  0  0  0  0  0  0  0  0  0  0  0
   -0.5422    4.3764   -0.2445 C   0  0  0  0  0  0  0  0  0  0  0  0
    0.5792    5.1686    0.0011 C   0  0  0  0  0  0  0  0  0  0  0  0
   -1.8836    4.9963   -0.3410 C   0  0  0  0  0  0  0  0  0  0  0  0
   -2.8548    6.7828   -0.2425 H   0  0  0  0  0  0  0  0  0  0  0  0
   -2.9896    4.2112   -0.5838 N   0  0  0  0  0  0  0  0  0  0  0  0
    5.3779    4.0004   -1.0542 C   0  0  0  0  0  0  0  0  0  0  0  0
    5.0333    3.4917   -0.0043 O   0  0  0  0  0  0  0  0  0  0  0  0
    6.3923    3.4646   -1.7616 N   0  0  0  0  0  0  0  0  0  0  0  0
    7.1530    2.3388   -1.2137 C   0  0  0  0  0  0  0  0  0  0  0  0
    8.2986    2.0102   -2.1362 C   0  0  0  0  0  0  0  0  0  0  0  0
    8.2352    0.9376   -2.9797 C   0  0  0  0  0  0  0  0  0  0  0  0
    9.3060    0.6527   -3.8236 C   0  0  0  0  0  0  0  0  0  0  0  0
   10.3900    1.3903   -3.8359 N   0  0  0  0  0  0  0  0  0  0  0  0
   10.5159    2.4534   -3.0359 C   0  0  0  0  0  0  0  0  0  0  0  0
    9.4609    2.8033   -2.1568 C   0  0  0  0  0  0  0  0  0  0  0  0
    9.5958    3.9251   -1.3229 C   0  0  0  0  0  0  0  0  0  0  0  0
   10.7361    4.6672   -1.3726 C   0  0  0  0  0  0  0  0  0  0  0  0
   11.7725    4.3283   -2.2404 C   0  0  0  0  0  0  0  0  0  0  0  0
   11.6806    3.2409   -3.0533 C   0  0  0  0  0  0  0  0  0  0  0  0
    4.3440    7.4196   -5.7919 H   0  0  0  0  0  0  0  0  0  0  0  0
    4.9283    9.0329   -5.3187 H   0  0  0  0  0  0  0  0  0  0  0  0
    5.7790    7.5763   -4.7506 H   0  0  0  0  0  0  0  0  0  0  0  0
    2.8300    9.6882   -4.3320 H   0  0  0  0  0  0  0  0  0  0  0  0
    1.3810    9.6443   -2.3463 H   0  0  0  0  0  0  0  0  0  0  0  0
    1.6430    7.8918   -0.6496 H   0  0  0  0  0  0  0  0  0  0  0  0
    5.7435    5.5804   -3.4180 H   0  0  0  0  0  0  0  0  0  0  0  0
    2.7427    6.3277    0.9136 H   0  0  0  0  0  0  0  0  0  0  0  0
    3.7645    4.8704    0.9363 H   0  0  0  0  0  0  0  0  0  0  0  0
    2.9440    2.7652    0.0071 H   0  0  0  0  0  0  0  0  0  0  0  0
    0.9725    1.3591   -0.4256 H   0  0  0  0  0  0  0  0  0  0  0  0
   -1.2586    2.3811   -0.5984 H   0  0  0  0  0  0  0  0  0  0  0  0
    0.4715    6.2365    0.1212 H   0  0  0  0  0  0  0  0  0  0  0  0
   -2.8895    3.2524   -0.6914 H   0  0  0  0  0  0  0  0  0  0  0  0
   -3.8682    4.6173   -0.6469 H   0  0  0  0  0  0  0  0  0  0  0  0
    6.6188    3.8245   -2.6334 H   0  0  0  0  0  0  0  0  0  0  0  0
    7.5428    2.6072   -0.2317 H   0  0  0  0  0  0  0  0  0  0  0  0
    6.5007    1.4705   -1.1208 H   0  0  0  0  0  0  0  0  0  0  0  0
    7.3558    0.3107   -2.9920 H   0  0  0  0  0  0  0  0  0  0  0  0
    9.2420   -0.1986   -4.4852 H   0  0  0  0  0  0  0  0  0  0  0  0
    8.7994    4.1979   -0.6461 H   0  0  0  0  0  0  0  0  0  0  0  0
   10.8389    5.5298   -0.7310 H   0  0  0  0  0  0  0  0  0  0  0  0
   12.6674    4.9326   -2.2607 H   0  0  0  0  0  0  0  0  0  0  0  0
   12.4931    2.9921   -3.7198 H   0  0  0  0  0  0  0  0  0  0  0  0
   -1.9530    6.3093   -0.1848 N   0  3  0  0  0  0  0  0  0  0  0  0
   -1.0993    6.8508   -0.0057 H   0  0  0  0  0  0  0  0  0  0  0  0
  1  2  1  0  0  0  0
  1 35  1  0  0  0  0
  1 36  1  0  0  0  0
  1 37  1  0  0  0  0
  2  7  2  0  0  0  0
  2  3  1  0  0  0  0
  3  4  2  0  0  0  0
  3 38  1  0  0  0  0
  4  5  1  0  0  0  0
  4 39  1  0  0  0  0
  5  6  2  0  0  0  0
  5 40  1  0  0  0  0
  6 10  1  0  0  0  0
  6  7  1  0  0  0  0
  7  8  1  0  0  0  0
  8  9  2  0  0  0  0
  8 41  1  0  0  0  0
  9 10  1  0  0  0  0
  9 21  1  0  0  0  0
 10 11  1  0  0  0  0
 11 12  1  0  0  0  0
 11 42  1  0  0  0  0
 11 43  1  0  0  0  0
 12 17  2  0  0  0  0
 12 13  1  0  0  0  0
 13 14  2  0  0  0  0
 13 44  1  0  0  0  0
 14 15  1  0  0  0  0
 14 45  1  0  0  0  0
 15 16  2  0  0  0  0
 15 46  1  0  0  0  0
 16 17  1  0  0  0  0
 16 18  1  0  0  0  0
 17 47  1  0  0  0  0
 18 20  1  0  0  0  0
 18 59  2  0  0  0  0
 19 59  1  0  0  0  0
 20 48  1  0  0  0  0
 20 49  1  0  0  0  0
 21 22  2  0  0  0  0
 21 23  1  0  0  0  0
 23 24  1  0  0  0  0
 23 50  1  0  0  0  0
 24 25  1  0  0  0  0
 24 51  1  0  0  0  0
 24 52  1  0  0  0  0
 25 30  2  0  0  0  0
 25 26  1  0  0  0  0
 26 27  2  0  0  0  0
 26 53  1  0  0  0  0
 27 28  1  0  0  0  0
 27 54  1  0  0  0  0
 28 29  2  0  0  0  0
 29 34  1  0  0  0  0
 29 30  1  0  0  0  0
 30 31  1  0  0  0  0
 31 32  2  0  0  0  0
 31 55  1  0  0  0  0
 32 33  1  0  0  0  0
 32 56  1  0  0  0  0
 33 34  2  0  0  0  0
 33 57  1  0  0  0  0
 34 58  1  0  0  0  0
 59 60  1  0  0  0  0
M  CHG  1  59   1
M  END
$$$$
ZINC04631085
  -OEChem-08230709403D

 60 63  0     0  0  0  0  0  0999 V2000
    1.1374    5.7324   -7.3668 C   0  0  0  0  0  0  0  0  0  0  0  0
    0.7688    5.9973   -5.9297 C   0  0  0  0  0  0  0  0  0  0  0  0
   -0.2462    6.8594   -5.6316 C   0  0  0  0  0  0  0  0  0  0  0  0
   -0.5955    7.1113   -4.3110 C   0  0  0  0  0  0  0  0  0  0  0  0
    0.0758    6.4964   -3.2777 C   0  0  0  0  0  0  0  0  0  0  0  0
    1.1146    5.6128   -3.5562 C   0  0  0  0  0  0  0  0  0  0  0  0
    1.4670    5.3590   -4.8966 C   0  0  0  0  0  0  0  0  0  0  0  0
    2.5391    4.4350   -4.8740 C   0  0  0  0  0  0  0  0  0  0  0  0
    2.8167    4.1548   -3.5730 C   0  0  0  0  0  0  0  0  0  0  0  0
    1.9505    4.8638   -2.7625 N   0  0  0  0  0  0  0  0  0  0  0  0
    1.9306    4.8278   -1.2980 C   0  0  0  0  0  0  0  0  0  0  0  0
    0.9966    3.7395   -0.8349 C   0  0  0  0  0  0  0  0  0  0  0  0
    1.4773    2.4584   -0.6296 C   0  0  0  0  0  0  0  0  0  0  0  0
    0.6263    1.4544   -0.2041 C   0  0  0  0  0  0  0  0  0  0  0  0
   -0.7098    1.7239    0.0122 C   0  0  0  0  0  0  0  0  0  0  0  0
   -1.1989    3.0144   -0.1875 C   0  0  0  0  0  0  0  0  0  0  0  0
   -0.3357    4.0227   -0.6161 C   0  0  0  0  0  0  0  0  0  0  0  0
   -2.6301    3.3118    0.0491 C   0  0  0  0  0  0  0  0  0  0  0  0
   -4.0067    4.8103   -0.0151 H   0  0  0  0  0  0  0  0  0  0  0  0
   -3.4803    2.3137    0.4725 N   0  0  0  0  0  0  0  0  0  0  0  0
    3.8672    3.2416   -3.1037 C   0  0  0  0  0  0  0  0  0  0  0  0
    4.5760    2.6665   -3.9068 O   0  0  0  0  0  0  0  0  0  0  0  0
    4.0453    3.0409   -1.7822 O   0  0  0  0  0  0  0  0  0  0  0  0
    5.1021    2.1252   -1.3910 C   0  0  0  0  0  0  0  0  0  0  0  0
    5.1514    2.0278    0.1121 C   0  0  0  0  0  0  0  0  0  0  0  0
    5.9561    2.8914    0.8338 C   0  0  0  0  0  0  0  0  0  0  0  0
    6.0024    2.8118    2.2139 C   0  0  0  0  0  0  0  0  0  0  0  0
    5.2536    1.8618    2.8786 C   0  0  0  0  0  0  0  0  0  0  0  0
    4.4451    0.9850    2.1563 C   0  0  0  0  0  0  0  0  0  0  0  0
    4.3983    1.0739    0.7651 C   0  0  0  0  0  0  0  0  0  0  0  0
    3.6397   -0.0369    2.8634 C   0  0  0  0  0  0  0  0  0  0  0  0
    2.3214   -1.5580    2.5587 H   0  0  0  0  0  0  0  0  0  0  0  0
    3.6879   -0.1223    4.2377 N   0  0  0  0  0  0  0  0  0  0  0  0
    0.5562    4.8900   -7.7416 H   0  0  0  0  0  0  0  0  0  0  0  0
    0.9226    6.6173   -7.9660 H   0  0  0  0  0  0  0  0  0  0  0  0
    2.2000    5.4986   -7.4321 H   0  0  0  0  0  0  0  0  0  0  0  0
   -0.7827    7.3506   -6.4299 H   0  0  0  0  0  0  0  0  0  0  0  0
   -1.4013    7.7963   -4.0924 H   0  0  0  0  0  0  0  0  0  0  0  0
   -0.2032    6.6988   -2.2542 H   0  0  0  0  0  0  0  0  0  0  0  0
    3.0481    4.0286   -5.7356 H   0  0  0  0  0  0  0  0  0  0  0  0
    1.5866    5.7888   -0.9156 H   0  0  0  0  0  0  0  0  0  0  0  0
    2.9352    4.6272   -0.9258 H   0  0  0  0  0  0  0  0  0  0  0  0
    2.5212    2.2416   -0.8018 H   0  0  0  0  0  0  0  0  0  0  0  0
    1.0074    0.4564   -0.0453 H   0  0  0  0  0  0  0  0  0  0  0  0
   -1.3741    0.9382    0.3401 H   0  0  0  0  0  0  0  0  0  0  0  0
   -0.7098    5.0231   -0.7767 H   0  0  0  0  0  0  0  0  0  0  0  0
   -3.1414    1.4161    0.6155 H   0  0  0  0  0  0  0  0  0  0  0  0
   -4.4179    2.5085    0.6275 H   0  0  0  0  0  0  0  0  0  0  0  0
    4.9035    1.1399   -1.8127 H   0  0  0  0  0  0  0  0  0  0  0  0
    6.0581    2.4936   -1.7628 H   0  0  0  0  0  0  0  0  0  0  0  0
    6.5475    3.6333    0.3178 H   0  0  0  0  0  0  0  0  0  0  0  0
    6.6291    3.4915    2.7722 H   0  0  0  0  0  0  0  0  0  0  0  0
    5.2942    1.7976    3.9559 H   0  0  0  0  0  0  0  0  0  0  0  0
    3.7736    0.3978    0.2004 H   0  0  0  0  0  0  0  0  0  0  0  0
    4.2495    0.4869    4.7421 H   0  0  0  0  0  0  0  0  0  0  0  0
    3.1603   -0.7917    4.7009 H   0  0  0  0  0  0  0  0  0  0  0  0
   -3.0301    4.5559   -0.1642 N   0  3  0  0  0  0  0  0  0  0  0  0
   -2.3574    5.2645   -0.4798 H   0  0  0  0  0  0  0  0  0  0  0  0
    2.8941   -0.8378    2.1180 N   0  3  0  0  0  0  0  0  0  0  0  0
    2.8923   -0.7342    1.0965 H   0  0  0  0  0  0  0  0  0  0  0  0
  1  2  1  0  0  0  0
  1 34  1  0  0  0  0
  1 35  1  0  0  0  0
  1 36  1  0  0  0  0
  2  7  2  0  0  0  0
  2  3  1  0  0  0  0
  3  4  2  0  0  0  0
  3 37  1  0  0  0  0
  4  5  1  0  0  0  0
  4 38  1  0  0  0  0
  5  6  2  0  0  0  0
  5 39  1  0  0  0  0
  6 10  1  0  0  0  0
  6  7  1  0  0  0  0
  7  8  1  0  0  0  0
  8  9  2  0  0  0  0
  8 40  1  0  0  0  0
  9 10  1  0  0  0  0
  9 21  1  0  0  0  0
 10 11  1  0  0  0  0
 11 12  1  0  0  0  0
 11 41  1  0  0  0  0
 11 42  1  0  0  0  0
 12 17  2  0  0  0  0
 12 13  1  0  0  0  0
 13 14  2  0  0  0  0
 13 43  1  0  0  0  0
 14 15  1  0  0  0  0
 14 44  1  0  0  0  0
 15 16  2  0  0  0  0
 15 45  1  0  0  0  0
 16 17  1  0  0  0  0
 16 18  1  0  0  0  0
 17 46  1  0  0  0  0
 18 20  1  0  0  0  0
 18 57  2  0  0  0  0
 19 57  1  0  0  0  0
 20 47  1  0  0  0  0
 20 48  1  0  0  0  0
 21 22  2  0  0  0  0
 21 23  1  0  0  0  0
 23 24  1  0  0  0  0
 24 25  1  0  0  0  0
 24 49  1  0  0  0  0
 24 50  1  0  0  0  0
 25 30  2  0  0  0  0
 25 26  1  0  0  0  0
 26 27  2  0  0  0  0
 26 51  1  0  0  0  0
 27 28  1  0  0  0  0
 27 52  1  0  0  0  0
 28 29  2  0  0  0  0
 28 53  1  0  0  0  0
 29 30  1  0  0  0  0
 29 31  1  0  0  0  0
 30 54  1  0  0  0  0
 31 33  1  0  0  0  0
 31 59  2  0  0  0  0
 32 59  1  0  0  0  0
 33 55  1  0  0  0  0
 33 56  1  0  0  0  0
 57 58  1  0  0  0  0
 59 60  1  0  0  0  0
M  CHG  2  57   1  59   1
M  END
$$$$
ZINC04631087
  -OEChem-08230709403D

 53 56  0     0  0  0  0  0  0999 V2000
    8.5587    0.6130   -4.1494 C   0  0  0  0  0  0  0  0  0  0  0  0
    7.5964    1.0093   -3.2389 C   0  0  0  0  0  0  0  0  0  0  0  0
    7.8315    2.0910   -2.4113 C   0  0  0  0  0  0  0  0  0  0  0  0
    9.0329    2.7708   -2.4862 C   0  0  0  0  0  0  0  0  0  0  0  0
    9.9977    2.3715   -3.3930 C   0  0  0  0  0  0  0  0  0  0  0  0
    9.7600    1.2919   -4.2249 C   0  0  0  0  0  0  0  0  0  0  0  0
   11.6416    3.3004   -3.4955 Br  0  0  0  0  0  0  0  0  0  0  0  0
    6.7803    2.5258   -1.4228 C   0  0  0  0  0  0  0  0  0  0  0  0
    5.9004    3.5155   -2.0492 N   0  0  0  0  0  0  0  0  0  0  0  0
    4.8800    4.0491   -1.3489 C   0  0  0  0  0  0  0  0  0  0  0  0
    4.6350    3.6454   -0.2275 O   0  0  0  0  0  0  0  0  0  0  0  0
    4.0634    5.1181   -1.9394 C   0  0  0  0  0  0  0  0  0  0  0  0
    4.3001    5.7228   -3.1337 C   0  0  0  0  0  0  0  0  0  0  0  0
    3.2928    6.6956   -3.3315 C   0  0  0  0  0  0  0  0  0  0  0  0
    2.4425    6.6431   -2.2100 C   0  0  0  0  0  0  0  0  0  0  0  0
    2.9294    5.6685   -1.3706 N   0  0  0  0  0  0  0  0  0  0  0  0
    2.3465    5.2816   -0.0835 C   0  0  0  0  0  0  0  0  0  0  0  0
    1.2895    4.2309   -0.3063 C   0  0  0  0  0  0  0  0  0  0  0  0
    1.6353    2.8912   -0.2993 C   0  0  0  0  0  0  0  0  0  0  0  0
    0.6707    1.9210   -0.5025 C   0  0  0  0  0  0  0  0  0  0  0  0
   -0.6428    2.2848   -0.7199 C   0  0  0  0  0  0  0  0  0  0  0  0
   -0.9985    3.6331   -0.7225 C   0  0  0  0  0  0  0  0  0  0  0  0
   -0.0213    4.6067   -0.5165 C   0  0  0  0  0  0  0  0  0  0  0  0
   -2.4072    4.0298   -0.9486 C   0  0  0  0  0  0  0  0  0  0  0  0
   -3.6318    5.6495   -1.0950 H   0  0  0  0  0  0  0  0  0  0  0  0
   -3.3703    3.0656   -1.1519 N   0  0  0  0  0  0  0  0  0  0  0  0
    1.3505    7.5027   -2.1354 C   0  0  0  0  0  0  0  0  0  0  0  0
    1.1054    8.3975   -3.1538 C   0  0  0  0  0  0  0  0  0  0  0  0
    1.9381    8.4558   -4.2620 C   0  0  0  0  0  0  0  0  0  0  0  0
    3.0286    7.6146   -4.3616 C   0  0  0  0  0  0  0  0  0  0  0  0
    3.8407    7.6749   -5.4481 O   0  0  0  0  0  0  0  0  0  0  0  0
    8.3731   -0.2299   -4.7984 H   0  0  0  0  0  0  0  0  0  0  0  0
    6.6595    0.4758   -3.1770 H   0  0  0  0  0  0  0  0  0  0  0  0
    9.2179    3.6136   -1.8368 H   0  0  0  0  0  0  0  0  0  0  0  0
   10.5133    0.9796   -4.9330 H   0  0  0  0  0  0  0  0  0  0  0  0
    7.2622    2.9682   -0.5510 H   0  0  0  0  0  0  0  0  0  0  0  0
    6.1928    1.6613   -1.1136 H   0  0  0  0  0  0  0  0  0  0  0  0
    6.0522    3.7868   -2.9680 H   0  0  0  0  0  0  0  0  0  0  0  0
    5.1140    5.5027   -3.8085 H   0  0  0  0  0  0  0  0  0  0  0  0
    1.8968    6.1549    0.3889 H   0  0  0  0  0  0  0  0  0  0  0  0
    3.1271    4.8804    0.5629 H   0  0  0  0  0  0  0  0  0  0  0  0
    2.6626    2.6019   -0.1340 H   0  0  0  0  0  0  0  0  0  0  0  0
    0.9466    0.8769   -0.4956 H   0  0  0  0  0  0  0  0  0  0  0  0
   -1.3944    1.5264   -0.8829 H   0  0  0  0  0  0  0  0  0  0  0  0
   -0.2902    5.6527   -0.5217 H   0  0  0  0  0  0  0  0  0  0  0  0
   -3.1256    2.1269   -1.1468 H   0  0  0  0  0  0  0  0  0  0  0  0
   -4.2931    3.3255   -1.3000 H   0  0  0  0  0  0  0  0  0  0  0  0
    0.6943    7.4678   -1.2784 H   0  0  0  0  0  0  0  0  0  0  0  0
    0.2558    9.0612   -3.0886 H   0  0  0  0  0  0  0  0  0  0  0  0
    1.7322    9.1634   -5.0514 H   0  0  0  0  0  0  0  0  0  0  0  0
    3.5741    7.0905   -6.1710 H   0  0  0  0  0  0  0  0  0  0  0  0
   -2.6761    5.3262   -0.9437 N   0  3  0  0  0  0  0  0  0  0  0  0
   -1.9228    6.0062   -0.7877 H   0  0  0  0  0  0  0  0  0  0  0  0
  1  6  2  0  0  0  0
  1  2  1  0  0  0  0
  1 32  1  0  0  0  0
  2  3  2  0  0  0  0
  2 33  1  0  0  0  0
  3  4  1  0  0  0  0
  3  8  1  0  0  0  0
  4  5  2  0  0  0  0
  4 34  1  0  0  0  0
  5  6  1  0  0  0  0
  5  7  1  0  0  0  0
  6 35  1  0  0  0  0
  8  9  1  0  0  0  0
  8 36  1  0  0  0  0
  8 37  1  0  0  0  0
  9 10  1  0  0  0  0
  9 38  1  0  0  0  0
 10 11  2  0  0  0  0
 10 12  1  0  0  0  0
 12 16  1  0  0  0  0
 12 13  2  0  0  0  0
 13 14  1  0  0  0  0
 13 39  1  0  0  0  0
 14 30  2  0  0  0  0
 14 15  1  0  0  0  0
 15 16  1  0  0  0  0
 15 27  2  0  0  0  0
 16 17  1  0  0  0  0
 17 18  1  0  0  0  0
 17 40  1  0  0  0  0
 17 41  1  0  0  0  0
 18 23  2  0  0  0  0
 18 19  1  0  0  0  0
 19 20  2  0  0  0  0
 19 42  1  0  0  0  0
 20 21  1  0  0  0  0
 20 43  1  0  0  0  0
 21 22  2  0  0  0  0
 21 44  1  0  0  0  0
 22 23  1  0  0  0  0
 22 24  1  0  0  0  0
 23 45  1  0  0  0  0
 24 26  1  0  0  0  0
 24 52  2  0  0  0  0
 25 52  1  0  0  0  0
 26 46  1  0  0  0  0
 26 47  1  0  0  0  0
 27 28  1  0  0  0  0
 27 48  1  0  0  0  0
 28 29  2  0  0  0  0
 28 49  1  0  0  0  0
 29 30  1  0  0  0  0
 29 50  1  0  0  0  0
 30 31  1  0  0  0  0
 31 51  1  0  0  0  0
 52 53  1  0  0  0  0
M  CHG  1  52   1
M  END
$$$$
ZINC04631092
  -OEChem-08230709403D

 59 62  0     0  0  0  0  0  0999 V2000
   -2.4041    1.1685    3.8224 C   0  0  0  0  0  0  0  0  0  0  0  0
   -1.5436    0.3645    3.0962 C   0  0  0  0  0  0  0  0  0  0  0  0
   -1.8484    0.0154    1.7930 C   0  0  0  0  0  0  0  0  0  0  0  0
   -3.0194    0.4590    1.2128 C   0  0  0  0  0  0  0  0  0  0  0  0
   -3.8933    1.2652    1.9412 C   0  0  0  0  0  0  0  0  0  0  0  0
   -3.5777    1.6182    3.2532 C   0  0  0  0  0  0  0  0  0  0  0  0
   -5.1516    1.7443    1.3246 C   0  0  0  0  0  0  0  0  0  0  0  0
   -6.2439    1.6767   -0.3919 H   0  0  0  0  0  0  0  0  0  0  0  0
   -6.0131    2.5407    2.0470 N   0  0  0  0  0  0  0  0  0  0  0  0
   -0.9031   -0.8563    1.0073 C   0  0  0  0  0  0  0  0  0  0  0  0
    0.0582   -0.0134    0.2919 N   0  0  0  0  0  0  0  0  0  0  0  0
    1.0062   -0.5793   -0.4811 C   0  0  0  0  0  0  0  0  0  0  0  0
    1.0079   -1.7827   -0.6585 O   0  0  0  0  0  0  0  0  0  0  0  0
    2.0383    0.2583   -1.1101 C   0  0  0  0  0  0  0  0  0  0  0  0
    2.0874    1.6153   -1.0643 C   0  0  0  0  0  0  0  0  0  0  0  0
    3.2297    2.0307   -1.7903 C   0  0  0  0  0  0  0  0  0  0  0  0
    3.7799    3.2867   -2.0800 C   0  0  0  0  0  0  0  0  0  0  0  0
    4.9318    3.3700   -2.8324 C   0  0  0  0  0  0  0  0  0  0  0  0
    5.5496    2.2134   -3.3051 C   0  0  0  0  0  0  0  0  0  0  0  0
    5.0211    0.9736   -3.0279 C   0  0  0  0  0  0  0  0  0  0  0  0
    3.8583    0.8656   -2.2700 C   0  0  0  0  0  0  0  0  0  0  0  0
    3.1123   -0.2093   -1.8421 N   0  0  0  0  0  0  0  0  0  0  0  0
    3.4084   -1.6173   -2.1180 C   0  0  0  0  0  0  0  0  0  0  0  0
    2.8439   -1.9951   -3.4632 C   0  0  0  0  0  0  0  0  0  0  0  0
    1.5985   -2.5922   -3.5463 C   0  0  0  0  0  0  0  0  0  0  0  0
    1.0716   -2.9374   -4.7777 C   0  0  0  0  0  0  0  0  0  0  0  0
    1.7907   -2.6974   -5.9309 C   0  0  0  0  0  0  0  0  0  0  0  0
    3.0486   -2.1007   -5.8532 C   0  0  0  0  0  0  0  0  0  0  0  0
    3.5723   -1.7501   -4.6089 C   0  0  0  0  0  0  0  0  0  0  0  0
    3.8257   -1.8409   -7.0868 C   0  0  0  0  0  0  0  0  0  0  0  0
    5.5859   -1.0731   -7.7624 H   0  0  0  0  0  0  0  0  0  0  0  0
    3.3057   -2.1884   -8.3145 N   0  0  0  0  0  0  0  0  0  0  0  0
    5.4683    4.5871   -3.1153 O   0  0  0  0  0  0  0  0  0  0  0  0
   -2.1590    1.4408    4.8384 H   0  0  0  0  0  0  0  0  0  0  0  0
   -0.6283    0.0112    3.5476 H   0  0  0  0  0  0  0  0  0  0  0  0
   -3.2582    0.1828    0.1964 H   0  0  0  0  0  0  0  0  0  0  0  0
   -4.2509    2.2421    3.8225 H   0  0  0  0  0  0  0  0  0  0  0  0
   -5.7955    2.7877    2.9594 H   0  0  0  0  0  0  0  0  0  0  0  0
   -6.8373    2.8545    1.6431 H   0  0  0  0  0  0  0  0  0  0  0  0
   -1.4686   -1.4515    0.2903 H   0  0  0  0  0  0  0  0  0  0  0  0
   -0.3689   -1.5190    1.6883 H   0  0  0  0  0  0  0  0  0  0  0  0
    0.0122    0.9520    0.3747 H   0  0  0  0  0  0  0  0  0  0  0  0
    1.3793    2.2616   -0.5670 H   0  0  0  0  0  0  0  0  0  0  0  0
    3.3033    4.1850   -1.7160 H   0  0  0  0  0  0  0  0  0  0  0  0
    6.4517    2.2910   -3.8938 H   0  0  0  0  0  0  0  0  0  0  0  0
    5.5081    0.0839   -3.3989 H   0  0  0  0  0  0  0  0  0  0  0  0
    4.4880   -1.7675   -2.1218 H   0  0  0  0  0  0  0  0  0  0  0  0
    2.9574   -2.2414   -1.3464 H   0  0  0  0  0  0  0  0  0  0  0  0
    1.0337   -2.7857   -2.6463 H   0  0  0  0  0  0  0  0  0  0  0  0
    0.0974   -3.3997   -4.8366 H   0  0  0  0  0  0  0  0  0  0  0  0
    1.3800   -2.9707   -6.8916 H   0  0  0  0  0  0  0  0  0  0  0  0
    4.5463   -1.2880   -4.5425 H   0  0  0  0  0  0  0  0  0  0  0  0
    2.4307   -2.6032   -8.3708 H   0  0  0  0  0  0  0  0  0  0  0  0
    3.8146   -2.0182   -9.1225 H   0  0  0  0  0  0  0  0  0  0  0  0
    6.1080    4.8969   -2.4598 H   0  0  0  0  0  0  0  0  0  0  0  0
   -5.3904    1.3723    0.0766 N   0  3  0  0  0  0  0  0  0  0  0  0
   -4.7166    0.7774   -0.4197 H   0  0  0  0  0  0  0  0  0  0  0  0
    5.0127   -1.2723   -6.9425 N   0  3  0  0  0  0  0  0  0  0  0  0
    5.3563   -1.0320   -6.0052 H   0  0  0  0  0  0  0  0  0  0  0  0
  1  6  2  0  0  0  0
  1  2  1  0  0  0  0
  1 34  1  0  0  0  0
  2  3  2  0  0  0  0
  2 35  1  0  0  0  0
  3  4  1  0  0  0  0
  3 10  1  0  0  0  0
  4  5  2  0  0  0  0
  4 36  1  0  0  0  0
  5  6  1  0  0  0  0
  5  7  1  0  0  0  0
  6 37  1  0  0  0  0
  7  9  1  0  0  0  0
  7 56  2  0  0  0  0
  8 56  1  0  0  0  0
  9 38  1  0  0  0  0
  9 39  1  0  0  0  0
 10 11  1  0  0  0  0
 10 40  1  0  0  0  0
 10 41  1  0  0  0  0
 11 12  1  0  0  0  0
 11 42  1  0  0  0  0
 12 13  2  0  0  0  0
 12 14  1  0  0  0  0
 14 22  1  0  0  0  0
 14 15  2  0  0  0  0
 15 16  1  0  0  0  0
 15 43  1  0  0  0  0
 16 21  2  0  0  0  0
 16 17  1  0  0  0  0
 17 18  2  0  0  0  0
 17 44  1  0  0  0  0
 18 19  1  0  0  0  0
 18 33  1  0  0  0  0
 19 20  2  0  0  0  0
 19 45  1  0  0  0  0
 20 21  1  0  0  0  0
 20 46  1  0  0  0  0
 21 22  1  0  0  0  0
 22 23  1  0  0  0  0
 23 24  1  0  0  0  0
 23 47  1  0  0  0  0
 23 48  1  0  0  0  0
 24 29  2  0  0  0  0
 24 25  1  0  0  0  0
 25 26  2  0  0  0  0
 25 49  1  0  0  0  0
 26 27  1  0  0  0  0
 26 50  1  0  0  0  0
 27 28  2  0  0  0  0
 27 51  1  0  0  0  0
 28 29  1  0  0  0  0
 28 30  1  0  0  0  0
 29 52  1  0  0  0  0
 30 32  1  0  0  0  0
 30 58  2  0  0  0  0
 31 58  1  0  0  0  0
 32 53  1  0  0  0  0
 32 54  1  0  0  0  0
 33 55  1  0  0  0  0
 56 57  1  0  0  0  0
 58 59  1  0  0  0  0
M  CHG  2  56   1  58   1
M  END
$$$$
ZINC04631097
  -OEChem-08230709403D

 40 42  0     0  0  0  0  0  0999 V2000
    0.6684    1.9260   -0.5113 C   0  0  0  0  0  0  0  0  0  0  0  0
    1.6350    2.8940   -0.3034 C   0  0  0  0  0  0  0  0  0  0  0  0
    1.2923    4.2339   -0.3085 C   0  0  0  0  0  0  0  0  0  0  0  0
   -0.0175    4.6133   -0.5215 C   0  0  0  0  0  0  0  0  0  0  0  0
   -0.9960    3.6425   -0.7321 C   0  0  0  0  0  0  0  0  0  0  0  0
   -0.6433    2.2930   -0.7307 C   0  0  0  0  0  0  0  0  0  0  0  0
   -2.4031    4.0429   -0.9614 C   0  0  0  0  0  0  0  0  0  0  0  0
   -3.6236    5.6657   -1.1080 H   0  0  0  0  0  0  0  0  0  0  0  0
   -3.3679    3.0814   -1.1691 N   0  0  0  0  0  0  0  0  0  0  0  0
    2.3511    5.2818   -0.0802 C   0  0  0  0  0  0  0  0  0  0  0  0
    2.9387    5.6701   -1.3648 N   0  0  0  0  0  0  0  0  0  0  0  0
    2.4564    6.6476   -2.2035 C   0  0  0  0  0  0  0  0  0  0  0  0
    1.3651    7.5087   -2.1308 C   0  0  0  0  0  0  0  0  0  0  0  0
    1.1254    8.4065   -3.1472 C   0  0  0  0  0  0  0  0  0  0  0  0
    1.9617    8.4653   -4.2533 C   0  0  0  0  0  0  0  0  0  0  0  0
    3.0508    7.6228   -4.3512 C   0  0  0  0  0  0  0  0  0  0  0  0
    3.3103    6.7009   -3.3219 C   0  0  0  0  0  0  0  0  0  0  0  0
    4.3149    5.7256   -3.1233 C   0  0  0  0  0  0  0  0  0  0  0  0
    4.0732    5.1184   -1.9312 C   0  0  0  0  0  0  0  0  0  0  0  0
    4.8853    4.0459   -1.3409 C   0  0  0  0  0  0  0  0  0  0  0  0
    4.6359    3.6400   -0.2214 O   0  0  0  0  0  0  0  0  0  0  0  0
    5.9065    3.5115   -2.0395 N   0  0  0  0  0  0  0  0  0  0  0  0
    3.8663    7.6838   -5.4350 O   0  0  0  0  0  0  0  0  0  0  0  0
    0.9421    0.8812   -0.5063 H   0  0  0  0  0  0  0  0  0  0  0  0
    2.6613    2.6019   -0.1362 H   0  0  0  0  0  0  0  0  0  0  0  0
   -0.2838    5.6599   -0.5256 H   0  0  0  0  0  0  0  0  0  0  0  0
   -1.3961    1.5368   -0.8973 H   0  0  0  0  0  0  0  0  0  0  0  0
   -3.1253    2.1422   -1.1652 H   0  0  0  0  0  0  0  0  0  0  0  0
   -4.2895    3.3436   -1.3193 H   0  0  0  0  0  0  0  0  0  0  0  0
    1.9020    6.1551    0.3927 H   0  0  0  0  0  0  0  0  0  0  0  0
    3.1287    4.8774    0.5677 H   0  0  0  0  0  0  0  0  0  0  0  0
    0.7061    7.4732   -1.2759 H   0  0  0  0  0  0  0  0  0  0  0  0
    0.2771    9.0718   -3.0833 H   0  0  0  0  0  0  0  0  0  0  0  0
    1.7595    9.1748   -5.0421 H   0  0  0  0  0  0  0  0  0  0  0  0
    5.1305    5.5055   -3.7961 H   0  0  0  0  0  0  0  0  0  0  0  0
    6.0598    3.7823   -2.9583 H   0  0  0  0  0  0  0  0  0  0  0  0
    6.4882    2.8562   -1.6235 H   0  0  0  0  0  0  0  0  0  0  0  0
    3.6010    7.1015   -6.1600 H   0  0  0  0  0  0  0  0  0  0  0  0
   -2.6691    5.3399   -0.9547 N   0  3  0  0  0  0  0  0  0  0  0  0
   -1.9146    6.0179   -0.7952 H   0  0  0  0  0  0  0  0  0  0  0  0
  1  6  2  0  0  0  0
  1  2  1  0  0  0  0
  1 24  1  0  0  0  0
  2  3  2  0  0  0  0
  2 25  1  0  0  0  0
  3  4  1  0  0  0  0
  3 10  1  0  0  0  0
  4  5  2  0  0  0  0
  4 26  1  0  0  0  0
  5  6  1  0  0  0  0
  5  7  1  0  0  0  0
  6 27  1  0  0  0  0
  7  9  1  0  0  0  0
  7 39  2  0  0  0  0
  8 39  1  0  0  0  0
  9 28  1  0  0  0  0
  9 29  1  0  0  0  0
 10 11  1  0  0  0  0
 10 30  1  0  0  0  0
 10 31  1  0  0  0  0
 11 19  1  0  0  0  0
 11 12  1  0  0  0  0
 12 17  2  0  0  0  0
 12 13  1  0  0  0  0
 13 14  2  0  0  0  0
 13 32  1  0  0  0  0
 14 15  1  0  0  0  0
 14 33  1  0  0  0  0
 15 16  2  0  0  0  0
 15 34  1  0  0  0  0
 16 17  1  0  0  0  0
 16 23  1  0  0  0  0
 17 18  1  0  0  0  0
 18 19  2  0  0  0  0
 18 35  1  0  0  0  0
 19 20  1  0  0  0  0
 20 21  2  0  0  0  0
 20 22  1  0  0  0  0
 22 36  1  0  0  0  0
 22 37  1  0  0  0  0
 23 38  1  0  0  0  0
 39 40  1  0  0  0  0
M  CHG  1  39   1
M  END
$$$$
ZINC04631098
  -OEChem-08230709403D

 59 62  0     0  0  0  0  0  0999 V2000
    0.7771    2.0383   -0.1295 C   0  0  0  0  0  0  0  0  0  0  0  0
    1.7386    3.0301   -0.2090 C   0  0  0  0  0  0  0  0  0  0  0  0
    1.3778    4.3611   -0.1009 C   0  0  0  0  0  0  0  0  0  0  0  0
    0.0551    4.7074    0.0865 C   0  0  0  0  0  0  0  0  0  0  0  0
   -0.9184    3.7123    0.1669 C   0  0  0  0  0  0  0  0  0  0  0  0
   -0.5491    2.3722    0.0525 C   0  0  0  0  0  0  0  0  0  0  0  0
   -2.3395    4.0771    0.3680 C   0  0  0  0  0  0  0  0  0  0  0  0
   -3.6031    5.6688    0.4890 H   0  0  0  0  0  0  0  0  0  0  0  0
   -3.2836    3.0918    0.5576 N   0  0  0  0  0  0  0  0  0  0  0  0
    2.4314    5.4351   -0.1876 C   0  0  0  0  0  0  0  0  0  0  0  0
    2.6888    5.7543   -1.5940 N   0  0  0  0  0  0  0  0  0  0  0  0
    3.5580    5.0831   -2.4218 C   0  0  0  0  0  0  0  0  0  0  0  0
    4.3998    3.9910   -2.2309 C   0  0  0  0  0  0  0  0  0  0  0  0
    5.1752    3.5272   -3.2705 C   0  0  0  0  0  0  0  0  0  0  0  0
    5.1292    4.1372   -4.5163 C   0  0  0  0  0  0  0  0  0  0  0  0
    4.2972    5.2168   -4.7353 C   0  0  0  0  0  0  0  0  0  0  0  0
    3.5029    5.7058   -3.6834 C   0  0  0  0  0  0  0  0  0  0  0  0
    2.5819    6.7738   -3.5786 C   0  0  0  0  0  0  0  0  0  0  0  0
    2.1021    6.7840   -2.3067 C   0  0  0  0  0  0  0  0  0  0  0  0
    1.1185    7.7367   -1.7744 C   0  0  0  0  0  0  0  0  0  0  0  0
    0.6935    7.6035   -0.6422 O   0  0  0  0  0  0  0  0  0  0  0  0
    0.6870    8.7583   -2.5403 N   0  0  0  0  0  0  0  0  0  0  0  0
   -0.2093    9.7698   -1.9750 C   0  0  0  0  0  0  0  0  0  0  0  0
   -0.6382   10.7432   -3.0749 C   0  0  0  0  0  0  0  0  0  0  0  0
    0.5817   11.5228   -3.5700 C   0  0  0  0  0  0  0  0  0  0  0  0
    0.1529   12.4961   -4.6699 C   0  0  0  0  0  0  0  0  0  0  0  0
   -0.8840   13.4726   -4.1110 C   0  0  0  0  0  0  0  0  0  0  0  0
   -2.1038   12.6929   -3.6159 C   0  0  0  0  0  0  0  0  0  0  0  0
   -1.6750   11.7197   -2.5160 C   0  0  0  0  0  0  0  0  0  0  0  0
    4.2571    5.8117   -5.9551 O   0  0  0  0  0  0  0  0  0  0  0  0
    1.0649    1.0008   -0.2146 H   0  0  0  0  0  0  0  0  0  0  0  0
    2.7749    2.7640   -0.3556 H   0  0  0  0  0  0  0  0  0  0  0  0
   -0.2255    5.7469    0.1703 H   0  0  0  0  0  0  0  0  0  0  0  0
   -1.2992    1.5973    0.1098 H   0  0  0  0  0  0  0  0  0  0  0  0
   -3.0175    2.1589    0.5594 H   0  0  0  0  0  0  0  0  0  0  0  0
   -4.2145    3.3308    0.6893 H   0  0  0  0  0  0  0  0  0  0  0  0
    2.0825    6.3287    0.3299 H   0  0  0  0  0  0  0  0  0  0  0  0
    3.3507    5.0807    0.2787 H   0  0  0  0  0  0  0  0  0  0  0  0
    4.4448    3.5066   -1.2667 H   0  0  0  0  0  0  0  0  0  0  0  0
    5.8258    2.6794   -3.1146 H   0  0  0  0  0  0  0  0  0  0  0  0
    5.7433    3.7609   -5.3211 H   0  0  0  0  0  0  0  0  0  0  0  0
    2.3085    7.4587   -4.3677 H   0  0  0  0  0  0  0  0  0  0  0  0
    0.9698    8.8237   -3.4658 H   0  0  0  0  0  0  0  0  0  0  0  0
   -1.0903    9.2822   -1.5577 H   0  0  0  0  0  0  0  0  0  0  0  0
    0.3102   10.3167   -1.1882 H   0  0  0  0  0  0  0  0  0  0  0  0
   -1.0740   10.1856   -3.9038 H   0  0  0  0  0  0  0  0  0  0  0  0
    1.0175   12.0804   -2.7410 H   0  0  0  0  0  0  0  0  0  0  0  0
    1.3203   10.8271   -3.9682 H   0  0  0  0  0  0  0  0  0  0  0  0
   -0.2830   11.9384   -5.4988 H   0  0  0  0  0  0  0  0  0  0  0  0
    1.0219   13.0514   -5.0226 H   0  0  0  0  0  0  0  0  0  0  0  0
   -1.1895   14.1659   -4.8946 H   0  0  0  0  0  0  0  0  0  0  0  0
   -0.4482   14.0301   -3.2820 H   0  0  0  0  0  0  0  0  0  0  0  0
   -2.5396   12.1354   -4.4448 H   0  0  0  0  0  0  0  0  0  0  0  0
   -2.8424   13.3886   -3.2176 H   0  0  0  0  0  0  0  0  0  0  0  0
   -2.5440   11.1643   -2.1632 H   0  0  0  0  0  0  0  0  0  0  0  0
   -1.2391   12.2772   -1.6870 H   0  0  0  0  0  0  0  0  0  0  0  0
    4.9000    6.5255   -6.0659 H   0  0  0  0  0  0  0  0  0  0  0  0
   -2.6379    5.3671    0.3548 N   0  3  0  0  0  0  0  0  0  0  0  0
   -1.8978    6.0638    0.2095 H   0  0  0  0  0  0  0  0  0  0  0  0
  1  6  2  0  0  0  0
  1  2  1  0  0  0  0
  1 31  1  0  0  0  0
  2  3  2  0  0  0  0
  2 32  1  0  0  0  0
  3  4  1  0  0  0  0
  3 10  1  0  0  0  0
  4  5  2  0  0  0  0
  4 33  1  0  0  0  0
  5  6  1  0  0  0  0
  5  7  1  0  0  0  0
  6 34  1  0  0  0  0
  7  9  1  0  0  0  0
  7 58  2  0  0  0  0
  8 58  1  0  0  0  0
  9 35  1  0  0  0  0
  9 36  1  0  0  0  0
 10 11  1  0  0  0  0
 10 37  1  0  0  0  0
 10 38  1  0  0  0  0
 11 19  1  0  0  0  0
 11 12  1  0  0  0  0
 12 17  2  0  0  0  0
 12 13  1  0  0  0  0
 13 14  2  0  0  0  0
 13 39  1  0  0  0  0
 14 15  1  0  0  0  0
 14 40  1  0  0  0  0
 15 16  2  0  0  0  0
 15 41  1  0  0  0  0
 16 17  1  0  0  0  0
 16 30  1  0  0  0  0
 17 18  1  0  0  0  0
 18 19  2  0  0  0  0
 18 42  1  0  0  0  0
 19 20  1  0  0  0  0
 20 21  2  0  0  0  0
 20 22  1  0  0  0  0
 22 23  1  0  0  0  0
 22 43  1  0  0  0  0
 23 24  1  0  0  0  0
 23 44  1  0  0  0  0
 23 45  1  0  0  0  0
 24 29  1  0  0  0  0
 24 25  1  0  0  0  0
 24 46  1  0  0  0  0
 25 26  1  0  0  0  0
 25 47  1  0  0  0  0
 25 48  1  0  0  0  0
 26 27  1  0  0  0  0
 26 49  1  0  0  0  0
 26 50  1  0  0  0  0
 27 28  1  0  0  0  0
 27 51  1  0  0  0  0
 27 52  1  0  0  0  0
 28 29  1  0  0  0  0
 28 53  1  0  0  0  0
 28 54  1  0  0  0  0
 29 55  1  0  0  0  0
 29 56  1  0  0  0  0
 30 57  1  0  0  0  0
 58 59  1  0  0  0  0
M  CHG  1  58   1
M  END
$$$$
ZINC04631099
  -OEChem-08230709403D

 56 59  0     0  0  0  0  0  0999 V2000
    0.6711    1.9207   -0.5032 C   0  0  0  0  0  0  0  0  0  0  0  0
    1.6360    2.8913   -0.3000 C   0  0  0  0  0  0  0  0  0  0  0  0
    1.2901    4.2305   -0.3067 C   0  0  0  0  0  0  0  0  0  0  0  0
   -0.0211    4.6063   -0.5169 C   0  0  0  0  0  0  0  0  0  0  0  0
   -0.9979    3.6328   -0.7228 C   0  0  0  0  0  0  0  0  0  0  0  0
   -0.6421    2.2842   -0.7196 C   0  0  0  0  0  0  0  0  0  0  0  0
   -2.4067    4.0294   -0.9489 C   0  0  0  0  0  0  0  0  0  0  0  0
   -3.6314    5.6491   -1.0953 H   0  0  0  0  0  0  0  0  0  0  0  0
   -3.3697    3.0652   -1.1520 N   0  0  0  0  0  0  0  0  0  0  0  0
    2.3470    5.2813   -0.0835 C   0  0  0  0  0  0  0  0  0  0  0  0
    2.9306    5.6680   -1.3704 N   0  0  0  0  0  0  0  0  0  0  0  0
    2.4441    6.6423   -2.2103 C   0  0  0  0  0  0  0  0  0  0  0  0
    1.3512    7.5015   -2.1367 C   0  0  0  0  0  0  0  0  0  0  0  0
    1.1061    8.3954   -3.1552 C   0  0  0  0  0  0  0  0  0  0  0  0
    1.9394    8.4533   -4.2637 C   0  0  0  0  0  0  0  0  0  0  0  0
    3.0300    7.6129   -4.3624 C   0  0  0  0  0  0  0  0  0  0  0  0
    3.2945    6.6943   -3.3312 C   0  0  0  0  0  0  0  0  0  0  0  0
    4.3016    5.7216   -3.1331 C   0  0  0  0  0  0  0  0  0  0  0  0
    4.0649    5.1176   -1.9384 C   0  0  0  0  0  0  0  0  0  0  0  0
    4.8814    4.0489   -1.3471 C   0  0  0  0  0  0  0  0  0  0  0  0
    4.6365    3.6459   -0.2256 O   0  0  0  0  0  0  0  0  0  0  0  0
    5.9021    3.5150   -2.0471 N   0  0  0  0  0  0  0  0  0  0  0  0
    6.7819    2.5256   -1.4199 C   0  0  0  0  0  0  0  0  0  0  0  0
    7.8493    2.0839   -2.4231 C   0  0  0  0  0  0  0  0  0  0  0  0
    8.7543    1.0660   -1.7780 C   0  0  0  0  0  0  0  0  0  0  0  0
    9.8916    1.4783   -1.1091 C   0  0  0  0  0  0  0  0  0  0  0  0
   10.7195    0.5455   -0.5131 C   0  0  0  0  0  0  0  0  0  0  0  0
   10.4153   -0.8013   -0.5953 C   0  0  0  0  0  0  0  0  0  0  0  0
    9.2800   -1.2138   -1.2693 C   0  0  0  0  0  0  0  0  0  0  0  0
    8.4500   -0.2799   -1.8604 C   0  0  0  0  0  0  0  0  0  0  0  0
   11.5511   -2.0785    0.2142 Br  0  0  0  0  0  0  0  0  0  0  0  0
    3.8422    7.6726   -5.4487 O   0  0  0  0  0  0  0  0  0  0  0  0
    0.9473    0.8766   -0.4969 H   0  0  0  0  0  0  0  0  0  0  0  0
    2.6634    2.6020   -0.1351 H   0  0  0  0  0  0  0  0  0  0  0  0
   -0.2900    5.6523   -0.5222 H   0  0  0  0  0  0  0  0  0  0  0  0
   -1.3936    1.5259   -0.8826 H   0  0  0  0  0  0  0  0  0  0  0  0
   -3.1249    2.1266   -1.1470 H   0  0  0  0  0  0  0  0  0  0  0  0
   -4.2925    3.3250   -1.3001 H   0  0  0  0  0  0  0  0  0  0  0  0
    1.8970    6.1547    0.3884 H   0  0  0  0  0  0  0  0  0  0  0  0
    3.1272    4.8801    0.5634 H   0  0  0  0  0  0  0  0  0  0  0  0
    0.6948    7.4670   -1.2797 H   0  0  0  0  0  0  0  0  0  0  0  0
    0.2563    9.0587   -3.0908 H   0  0  0  0  0  0  0  0  0  0  0  0
    1.7334    9.1603   -5.0537 H   0  0  0  0  0  0  0  0  0  0  0  0
    5.1160    5.5017   -3.8074 H   0  0  0  0  0  0  0  0  0  0  0  0
    6.0540    3.7859   -2.9660 H   0  0  0  0  0  0  0  0  0  0  0  0
    7.2636    2.9685   -0.5483 H   0  0  0  0  0  0  0  0  0  0  0  0
    6.1943    1.6613   -1.1104 H   0  0  0  0  0  0  0  0  0  0  0  0
    7.3675    1.6409   -3.2948 H   0  0  0  0  0  0  0  0  0  0  0  0
    8.4368    2.9481   -2.7327 H   0  0  0  0  0  0  0  0  0  0  0  0
   10.1313    2.5297   -1.0485 H   0  0  0  0  0  0  0  0  0  0  0  0
   11.6056    0.8679    0.0133 H   0  0  0  0  0  0  0  0  0  0  0  0
    9.0419   -2.2653   -1.3334 H   0  0  0  0  0  0  0  0  0  0  0  0
    7.5633   -0.6018   -2.3864 H   0  0  0  0  0  0  0  0  0  0  0  0
    3.5761    7.0877   -6.1714 H   0  0  0  0  0  0  0  0  0  0  0  0
   -2.6757    5.3258   -0.9440 N   0  3  0  0  0  0  0  0  0  0  0  0
   -1.9224    6.0058   -0.7881 H   0  0  0  0  0  0  0  0  0  0  0  0
  1  6  2  0  0  0  0
  1  2  1  0  0  0  0
  1 33  1  0  0  0  0
  2  3  2  0  0  0  0
  2 34  1  0  0  0  0
  3  4  1  0  0  0  0
  3 10  1  0  0  0  0
  4  5  2  0  0  0  0
  4 35  1  0  0  0  0
  5  6  1  0  0  0  0
  5  7  1  0  0  0  0
  6 36  1  0  0  0  0
  7  9  1  0  0  0  0
  7 55  2  0  0  0  0
  8 55  1  0  0  0  0
  9 37  1  0  0  0  0
  9 38  1  0  0  0  0
 10 11  1  0  0  0  0
 10 39  1  0  0  0  0
 10 40  1  0  0  0  0
 11 19  1  0  0  0  0
 11 12  1  0  0  0  0
 12 17  2  0  0  0  0
 12 13  1  0  0  0  0
 13 14  2  0  0  0  0
 13 41  1  0  0  0  0
 14 15  1  0  0  0  0
 14 42  1  0  0  0  0
 15 16  2  0  0  0  0
 15 43  1  0  0  0  0
 16 17  1  0  0  0  0
 16 32  1  0  0  0  0
 17 18  1  0  0  0  0
 18 19  2  0  0  0  0
 18 44  1  0  0  0  0
 19 20  1  0  0  0  0
 20 21  2  0  0  0  0
 20 22  1  0  0  0  0
 22 23  1  0  0  0  0
 22 45  1  0  0  0  0
 23 24  1  0  0  0  0
 23 46  1  0  0  0  0
 23 47  1  0  0  0  0
 24 25  1  0  0  0  0
 24 48  1  0  0  0  0
 24 49  1  0  0  0  0
 25 30  2  0  0  0  0
 25 26  1  0  0  0  0
 26 27  2  0  0  0  0
 26 50  1  0  0  0  0
 27 28  1  0  0  0  0
 27 51  1  0  0  0  0
 28 29  2  0  0  0  0
 28 31  1  0  0  0  0
 29 30  1  0  0  0  0
 29 52  1  0  0  0  0
 30 53  1  0  0  0  0
 32 54  1  0  0  0  0
 55 56  1  0  0  0  0
M  CHG  1  55   1
M  END
$$$$
ZINC04631103
  -OEChem-08230709403D

 56 59  0     0  0  0  0  0  0999 V2000
    0.6711    1.9207   -0.5032 C   0  0  0  0  0  0  0  0  0  0  0  0
    1.6360    2.8913   -0.3000 C   0  0  0  0  0  0  0  0  0  0  0  0
    1.2901    4.2305   -0.3067 C   0  0  0  0  0  0  0  0  0  0  0  0
   -0.0211    4.6063   -0.5169 C   0  0  0  0  0  0  0  0  0  0  0  0
   -0.9979    3.6328   -0.7228 C   0  0  0  0  0  0  0  0  0  0  0  0
   -0.6421    2.2842   -0.7196 C   0  0  0  0  0  0  0  0  0  0  0  0
   -2.4067    4.0294   -0.9489 C   0  0  0  0  0  0  0  0  0  0  0  0
   -3.6314    5.6491   -1.0953 H   0  0  0  0  0  0  0  0  0  0  0  0
   -3.3697    3.0652   -1.1520 N   0  0  0  0  0  0  0  0  0  0  0  0
    2.3470    5.2813   -0.0835 C   0  0  0  0  0  0  0  0  0  0  0  0
    2.9306    5.6680   -1.3704 N   0  0  0  0  0  0  0  0  0  0  0  0
    2.4441    6.6423   -2.2103 C   0  0  0  0  0  0  0  0  0  0  0  0
    1.3512    7.5015   -2.1367 C   0  0  0  0  0  0  0  0  0  0  0  0
    1.1061    8.3954   -3.1552 C   0  0  0  0  0  0  0  0  0  0  0  0
    1.9394    8.4533   -4.2637 C   0  0  0  0  0  0  0  0  0  0  0  0
    3.0300    7.6129   -4.3624 C   0  0  0  0  0  0  0  0  0  0  0  0
    3.2945    6.6943   -3.3312 C   0  0  0  0  0  0  0  0  0  0  0  0
    4.3016    5.7216   -3.1331 C   0  0  0  0  0  0  0  0  0  0  0  0
    4.0649    5.1176   -1.9384 C   0  0  0  0  0  0  0  0  0  0  0  0
    4.8814    4.0489   -1.3471 C   0  0  0  0  0  0  0  0  0  0  0  0
    4.6365    3.6459   -0.2256 O   0  0  0  0  0  0  0  0  0  0  0  0
    5.9021    3.5150   -2.0471 N   0  0  0  0  0  0  0  0  0  0  0  0
    6.7819    2.5256   -1.4199 C   0  0  0  0  0  0  0  0  0  0  0  0
    7.8493    2.0839   -2.4231 C   0  0  0  0  0  0  0  0  0  0  0  0
    8.7543    1.0660   -1.7780 C   0  0  0  0  0  0  0  0  0  0  0  0
    9.8916    1.4784   -1.1090 C   0  0  0  0  0  0  0  0  0  0  0  0
   10.7190    0.5458   -0.5123 C   0  0  0  0  0  0  0  0  0  0  0  0
   10.4149   -0.8014   -0.5945 C   0  0  0  0  0  0  0  0  0  0  0  0
    9.2796   -1.2138   -1.2690 C   0  0  0  0  0  0  0  0  0  0  0  0
    8.4500   -0.2799   -1.8604 C   0  0  0  0  0  0  0  0  0  0  0  0
   11.4572   -1.9737    0.1491 Cl  0  0  0  0  0  0  0  0  0  0  0  0
    3.8422    7.6726   -5.4487 O   0  0  0  0  0  0  0  0  0  0  0  0
    0.9473    0.8766   -0.4969 H   0  0  0  0  0  0  0  0  0  0  0  0
    2.6634    2.6020   -0.1351 H   0  0  0  0  0  0  0  0  0  0  0  0
   -0.2900    5.6523   -0.5222 H   0  0  0  0  0  0  0  0  0  0  0  0
   -1.3936    1.5259   -0.8826 H   0  0  0  0  0  0  0  0  0  0  0  0
   -3.1249    2.1266   -1.1470 H   0  0  0  0  0  0  0  0  0  0  0  0
   -4.2925    3.3250   -1.3001 H   0  0  0  0  0  0  0  0  0  0  0  0
    1.8970    6.1547    0.3884 H   0  0  0  0  0  0  0  0  0  0  0  0
    3.1272    4.8801    0.5634 H   0  0  0  0  0  0  0  0  0  0  0  0
    0.6948    7.4670   -1.2797 H   0  0  0  0  0  0  0  0  0  0  0  0
    0.2563    9.0587   -3.0908 H   0  0  0  0  0  0  0  0  0  0  0  0
    1.7334    9.1603   -5.0537 H   0  0  0  0  0  0  0  0  0  0  0  0
    5.1160    5.5017   -3.8074 H   0  0  0  0  0  0  0  0  0  0  0  0
    6.0540    3.7859   -2.9660 H   0  0  0  0  0  0  0  0  0  0  0  0
    7.2636    2.9685   -0.5483 H   0  0  0  0  0  0  0  0  0  0  0  0
    6.1943    1.6613   -1.1104 H   0  0  0  0  0  0  0  0  0  0  0  0
    7.3675    1.6409   -3.2948 H   0  0  0  0  0  0  0  0  0  0  0  0
    8.4368    2.9481   -2.7327 H   0  0  0  0  0  0  0  0  0  0  0  0
   10.1312    2.5298   -1.0488 H   0  0  0  0  0  0  0  0  0  0  0  0
   11.6052    0.8684    0.0141 H   0  0  0  0  0  0  0  0  0  0  0  0
    9.0415   -2.2653   -1.3331 H   0  0  0  0  0  0  0  0  0  0  0  0
    7.5635   -0.6017   -2.3867 H   0  0  0  0  0  0  0  0  0  0  0  0
    3.5761    7.0877   -6.1714 H   0  0  0  0  0  0  0  0  0  0  0  0
   -2.6757    5.3258   -0.9440 N   0  3  0  0  0  0  0  0  0  0  0  0
   -1.9224    6.0058   -0.7881 H   0  0  0  0  0  0  0  0  0  0  0  0
  1  6  2  0  0  0  0
  1  2  1  0  0  0  0
  1 33  1  0  0  0  0
  2  3  2  0  0  0  0
  2 34  1  0  0  0  0
  3  4  1  0  0  0  0
  3 10  1  0  0  0  0
  4  5  2  0  0  0  0
  4 35  1  0  0  0  0
  5  6  1  0  0  0  0
  5  7  1  0  0  0  0
  6 36  1  0  0  0  0
  7  9  1  0  0  0  0
  7 55  2  0  0  0  0
  8 55  1  0  0  0  0
  9 37  1  0  0  0  0
  9 38  1  0  0  0  0
 10 11  1  0  0  0  0
 10 39  1  0  0  0  0
 10 40  1  0  0  0  0
 11 19  1  0  0  0  0
 11 12  1  0  0  0  0
 12 17  2  0  0  0  0
 12 13  1  0  0  0  0
 13 14  2  0  0  0  0
 13 41  1  0  0  0  0
 14 15  1  0  0  0  0
 14 42  1  0  0  0  0
 15 16  2  0  0  0  0
 15 43  1  0  0  0  0
 16 17  1  0  0  0  0
 16 32  1  0  0  0  0
 17 18  1  0  0  0  0
 18 19  2  0  0  0  0
 18 44  1  0  0  0  0
 19 20  1  0  0  0  0
 20 21  2  0  0  0  0
 20 22  1  0  0  0  0
 22 23  1  0  0  0  0
 22 45  1  0  0  0  0
 23 24  1  0  0  0  0
 23 46  1  0  0  0  0
 23 47  1  0  0  0  0
 24 25  1  0  0  0  0
 24 48  1  0  0  0  0
 24 49  1  0  0  0  0
 25 30  2  0  0  0  0
 25 26  1  0  0  0  0
 26 27  2  0  0  0  0
 26 50  1  0  0  0  0
 27 28  1  0  0  0  0
 27 51  1  0  0  0  0
 28 29  2  0  0  0  0
 28 31  1  0  0  0  0
 29 30  1  0  0  0  0
 29 52  1  0  0  0  0
 30 53  1  0  0  0  0
 32 54  1  0  0  0  0
 55 56  1  0  0  0  0
M  CHG  1  55   1
M  END
$$$$
ZINC04631105
  -OEChem-08230709403D

 59 62  0     0  0  0  0  0  0999 V2000
    0.6708    1.9210   -0.5035 C   0  0  0  0  0  0  0  0  0  0  0  0
    1.6358    2.8914   -0.3001 C   0  0  0  0  0  0  0  0  0  0  0  0
    1.2901    4.2307   -0.3071 C   0  0  0  0  0  0  0  0  0  0  0  0
   -0.0210    4.6066   -0.5177 C   0  0  0  0  0  0  0  0  0  0  0  0
   -0.9979    3.6333   -0.7237 C   0  0  0  0  0  0  0  0  0  0  0  0
   -0.6423    2.2846   -0.7203 C   0  0  0  0  0  0  0  0  0  0  0  0
   -2.4066    4.0300   -0.9501 C   0  0  0  0  0  0  0  0  0  0  0  0
   -3.6310    5.6499   -1.0970 H   0  0  0  0  0  0  0  0  0  0  0  0
   -3.3697    3.0660   -1.1533 N   0  0  0  0  0  0  0  0  0  0  0  0
    2.3471    5.2813   -0.0838 C   0  0  0  0  0  0  0  0  0  0  0  0
    2.9308    5.6679   -1.3708 N   0  0  0  0  0  0  0  0  0  0  0  0
    2.4445    6.6423   -2.2106 C   0  0  0  0  0  0  0  0  0  0  0  0
    1.3523    7.5022   -2.1367 C   0  0  0  0  0  0  0  0  0  0  0  0
    1.1077    8.3965   -3.1551 C   0  0  0  0  0  0  0  0  0  0  0  0
    1.9407    8.4539   -4.2636 C   0  0  0  0  0  0  0  0  0  0  0  0
    3.0310    7.6131   -4.3625 C   0  0  0  0  0  0  0  0  0  0  0  0
    3.2950    6.6944   -3.3316 C   0  0  0  0  0  0  0  0  0  0  0  0
    4.3021    5.7214   -3.1332 C   0  0  0  0  0  0  0  0  0  0  0  0
    4.0652    5.1174   -1.9386 C   0  0  0  0  0  0  0  0  0  0  0  0
    4.8811    4.0481   -1.3476 C   0  0  0  0  0  0  0  0  0  0  0  0
    4.6360    3.6452   -0.2261 O   0  0  0  0  0  0  0  0  0  0  0  0
    5.9011    3.5136   -2.0478 N   0  0  0  0  0  0  0  0  0  0  0  0
    6.7805    2.5237   -1.4209 C   0  0  0  0  0  0  0  0  0  0  0  0
    7.8314    2.0879   -2.4093 C   0  0  0  0  0  0  0  0  0  0  0  0
    7.5957    1.0058   -3.2366 C   0  0  0  0  0  0  0  0  0  0  0  0
    8.5579    0.6088   -4.1462 C   0  0  0  0  0  0  0  0  0  0  0  0
    9.7594    1.2881   -4.2223 C   0  0  0  0  0  0  0  0  0  0  0  0
    9.9971    2.3670   -3.3913 C   0  0  0  0  0  0  0  0  0  0  0  0
    9.0332    2.7667   -2.4847 C   0  0  0  0  0  0  0  0  0  0  0  0
   11.3068    3.1077   -3.4742 C   0  0  0  0  0  0  0  0  0  0  0  0
   12.2274    2.5272   -2.5951 F   0  0  0  0  0  0  0  0  0  0  0  0
   11.8011    3.0363   -4.7811 F   0  0  0  0  0  0  0  0  0  0  0  0
   11.1080    4.4473   -3.1235 F   0  0  0  0  0  0  0  0  0  0  0  0
    8.2985   -0.5671   -5.0524 C   0  0  0  0  0  0  0  0  0  0  0  0
    9.4109   -0.7767   -5.8745 F   0  0  0  0  0  0  0  0  0  0  0  0
    8.0683   -1.7100   -4.2790 F   0  0  0  0  0  0  0  0  0  0  0  0
    7.1755   -0.3064   -5.8448 F   0  0  0  0  0  0  0  0  0  0  0  0
    3.8433    7.6728   -5.4487 O   0  0  0  0  0  0  0  0  0  0  0  0
    0.9469    0.8768   -0.4969 H   0  0  0  0  0  0  0  0  0  0  0  0
    2.6631    2.6021   -0.1350 H   0  0  0  0  0  0  0  0  0  0  0  0
   -0.2897    5.6526   -0.5232 H   0  0  0  0  0  0  0  0  0  0  0  0
   -1.3939    1.5263   -0.8833 H   0  0  0  0  0  0  0  0  0  0  0  0
   -3.1251    2.1273   -1.1481 H   0  0  0  0  0  0  0  0  0  0  0  0
   -4.2923    3.3258   -1.3017 H   0  0  0  0  0  0  0  0  0  0  0  0
    1.8972    6.1548    0.3881 H   0  0  0  0  0  0  0  0  0  0  0  0
    3.1272    4.8802    0.5631 H   0  0  0  0  0  0  0  0  0  0  0  0
    0.6958    7.4678   -1.2798 H   0  0  0  0  0  0  0  0  0  0  0  0
    0.2580    9.0602   -3.0905 H   0  0  0  0  0  0  0  0  0  0  0  0
    1.7349    9.1610   -5.0537 H   0  0  0  0  0  0  0  0  0  0  0  0
    5.1162    5.5010   -3.8078 H   0  0  0  0  0  0  0  0  0  0  0  0
    6.0531    3.7844   -2.9667 H   0  0  0  0  0  0  0  0  0  0  0  0
    7.2628    2.9663   -0.5493 H   0  0  0  0  0  0  0  0  0  0  0  0
    6.1925    1.6598   -1.1112 H   0  0  0  0  0  0  0  0  0  0  0  0
    6.6585    0.4726   -3.1745 H   0  0  0  0  0  0  0  0  0  0  0  0
   10.5121    0.9762   -4.9311 H   0  0  0  0  0  0  0  0  0  0  0  0
    9.2190    3.6096   -1.8355 H   0  0  0  0  0  0  0  0  0  0  0  0
    3.5771    7.0882   -6.1715 H   0  0  0  0  0  0  0  0  0  0  0  0
   -2.6754    5.3265   -0.9455 N   0  3  0  0  0  0  0  0  0  0  0  0
   -1.9220    6.0065   -0.7896 H   0  0  0  0  0  0  0  0  0  0  0  0
  1  6  2  0  0  0  0
  1  2  1  0  0  0  0
  1 39  1  0  0  0  0
  2  3  2  0  0  0  0
  2 40  1  0  0  0  0
  3  4  1  0  0  0  0
  3 10  1  0  0  0  0
  4  5  2  0  0  0  0
  4 41  1  0  0  0  0
  5  6  1  0  0  0  0
  5  7  1  0  0  0  0
  6 42  1  0  0  0  0
  7  9  1  0  0  0  0
  7 58  2  0  0  0  0
  8 58  1  0  0  0  0
  9 43  1  0  0  0  0
  9 44  1  0  0  0  0
 10 11  1  0  0  0  0
 10 45  1  0  0  0  0
 10 46  1  0  0  0  0
 11 19  1  0  0  0  0
 11 12  1  0  0  0  0
 12 17  2  0  0  0  0
 12 13  1  0  0  0  0
 13 14  2  0  0  0  0
 13 47  1  0  0  0  0
 14 15  1  0  0  0  0
 14 48  1  0  0  0  0
 15 16  2  0  0  0  0
 15 49  1  0  0  0  0
 16 17  1  0  0  0  0
 16 38  1  0  0  0  0
 17 18  1  0  0  0  0
 18 19  2  0  0  0  0
 18 50  1  0  0  0  0
 19 20  1  0  0  0  0
 20 21  2  0  0  0  0
 20 22  1  0  0  0  0
 22 23  1  0  0  0  0
 22 51  1  0  0  0  0
 23 24  1  0  0  0  0
 23 52  1  0  0  0  0
 23 53  1  0  0  0  0
 24 29  2  0  0  0  0
 24 25  1  0  0  0  0
 25 26  2  0  0  0  0
 25 54  1  0  0  0  0
 26 27  1  0  0  0  0
 26 34  1  0  0  0  0
 27 28  2  0  0  0  0
 27 55  1  0  0  0  0
 28 29  1  0  0  0  0
 28 30  1  0  0  0  0
 29 56  1  0  0  0  0
 30 31  1  0  0  0  0
 30 32  1  0  0  0  0
 30 33  1  0  0  0  0
 34 35  1  0  0  0  0
 34 36  1  0  0  0  0
 34 37  1  0  0  0  0
 38 57  1  0  0  0  0
 58 59  1  0  0  0  0
M  CHG  1  58   1
M  END
$$$$
ZINC04631109
  -OEChem-08230709403D

 56 59  0     0  0  0  0  0  0999 V2000
    0.6708    1.9210   -0.5035 C   0  0  0  0  0  0  0  0  0  0  0  0
    1.6358    2.8914   -0.3001 C   0  0  0  0  0  0  0  0  0  0  0  0
    1.2901    4.2307   -0.3071 C   0  0  0  0  0  0  0  0  0  0  0  0
   -0.0210    4.6066   -0.5177 C   0  0  0  0  0  0  0  0  0  0  0  0
   -0.9979    3.6333   -0.7237 C   0  0  0  0  0  0  0  0  0  0  0  0
   -0.6423    2.2846   -0.7203 C   0  0  0  0  0  0  0  0  0  0  0  0
   -2.4066    4.0300   -0.9501 C   0  0  0  0  0  0  0  0  0  0  0  0
   -3.6310    5.6499   -1.0970 H   0  0  0  0  0  0  0  0  0  0  0  0
   -3.3697    3.0660   -1.1533 N   0  0  0  0  0  0  0  0  0  0  0  0
    2.3471    5.2813   -0.0838 C   0  0  0  0  0  0  0  0  0  0  0  0
    2.9308    5.6679   -1.3708 N   0  0  0  0  0  0  0  0  0  0  0  0
    2.4445    6.6423   -2.2106 C   0  0  0  0  0  0  0  0  0  0  0  0
    1.3523    7.5022   -2.1367 C   0  0  0  0  0  0  0  0  0  0  0  0
    1.1077    8.3965   -3.1551 C   0  0  0  0  0  0  0  0  0  0  0  0
    1.9407    8.4539   -4.2636 C   0  0  0  0  0  0  0  0  0  0  0  0
    3.0310    7.6131   -4.3625 C   0  0  0  0  0  0  0  0  0  0  0  0
    3.2950    6.6944   -3.3316 C   0  0  0  0  0  0  0  0  0  0  0  0
    4.3021    5.7214   -3.1332 C   0  0  0  0  0  0  0  0  0  0  0  0
    4.0652    5.1174   -1.9386 C   0  0  0  0  0  0  0  0  0  0  0  0
    4.8811    4.0481   -1.3476 C   0  0  0  0  0  0  0  0  0  0  0  0
    4.6360    3.6452   -0.2261 O   0  0  0  0  0  0  0  0  0  0  0  0
    5.9011    3.5136   -2.0478 N   0  0  0  0  0  0  0  0  0  0  0  0
    6.7805    2.5237   -1.4209 C   0  0  0  0  0  0  0  0  0  0  0  0
    7.8314    2.0879   -2.4093 C   0  0  0  0  0  0  0  0  0  0  0  0
    7.5954    1.0054   -3.2366 C   0  0  0  0  0  0  0  0  0  0  0  0
    8.5564    0.6075   -4.1470 C   0  0  0  0  0  0  0  0  0  0  0  0
    9.7587    1.2850   -4.2239 C   0  0  0  0  0  0  0  0  0  0  0  0
    9.9982    2.3656   -3.3925 C   0  0  0  0  0  0  0  0  0  0  0  0
    9.0326    2.7667   -2.4844 C   0  0  0  0  0  0  0  0  0  0  0  0
   11.1732    3.0283   -3.4665 F   0  0  0  0  0  0  0  0  0  0  0  0
    8.2954   -0.5688   -5.0519 C   0  0  0  0  0  0  0  0  0  0  0  0
    9.4076   -0.7807   -5.8739 F   0  0  0  0  0  0  0  0  0  0  0  0
    8.0637   -1.7107   -4.2774 F   0  0  0  0  0  0  0  0  0  0  0  0
    7.1727   -0.3074   -5.8446 F   0  0  0  0  0  0  0  0  0  0  0  0
    3.8433    7.6728   -5.4487 O   0  0  0  0  0  0  0  0  0  0  0  0
    0.9469    0.8768   -0.4970 H   0  0  0  0  0  0  0  0  0  0  0  0
    2.6631    2.6021   -0.1350 H   0  0  0  0  0  0  0  0  0  0  0  0
   -0.2897    5.6526   -0.5232 H   0  0  0  0  0  0  0  0  0  0  0  0
   -1.3939    1.5263   -0.8833 H   0  0  0  0  0  0  0  0  0  0  0  0
   -3.1251    2.1273   -1.1481 H   0  0  0  0  0  0  0  0  0  0  0  0
   -4.2923    3.3258   -1.3017 H   0  0  0  0  0  0  0  0  0  0  0  0
    1.8972    6.1548    0.3881 H   0  0  0  0  0  0  0  0  0  0  0  0
    3.1272    4.8802    0.5631 H   0  0  0  0  0  0  0  0  0  0  0  0
    0.6958    7.4678   -1.2798 H   0  0  0  0  0  0  0  0  0  0  0  0
    0.2580    9.0602   -3.0905 H   0  0  0  0  0  0  0  0  0  0  0  0
    1.7349    9.1610   -5.0537 H   0  0  0  0  0  0  0  0  0  0  0  0
    5.1162    5.5010   -3.8078 H   0  0  0  0  0  0  0  0  0  0  0  0
    6.0531    3.7844   -2.9667 H   0  0  0  0  0  0  0  0  0  0  0  0
    7.2628    2.9663   -0.5493 H   0  0  0  0  0  0  0  0  0  0  0  0
    6.1925    1.6598   -1.1112 H   0  0  0  0  0  0  0  0  0  0  0  0
    6.6578    0.4730   -3.1742 H   0  0  0  0  0  0  0  0  0  0  0  0
   10.5110    0.9716   -4.9327 H   0  0  0  0  0  0  0  0  0  0  0  0
    9.2184    3.6094   -1.8351 H   0  0  0  0  0  0  0  0  0  0  0  0
    3.5771    7.0882   -6.1715 H   0  0  0  0  0  0  0  0  0  0  0  0
   -2.6754    5.3265   -0.9455 N   0  3  0  0  0  0  0  0  0  0  0  0
   -1.9220    6.0065   -0.7896 H   0  0  0  0  0  0  0  0  0  0  0  0
  1  6  2  0  0  0  0
  1  2  1  0  0  0  0
  1 36  1  0  0  0  0
  2  3  2  0  0  0  0
  2 37  1  0  0  0  0
  3  4  1  0  0  0  0
  3 10  1  0  0  0  0
  4  5  2  0  0  0  0
  4 38  1  0  0  0  0
  5  6  1  0  0  0  0
  5  7  1  0  0  0  0
  6 39  1  0  0  0  0
  7  9  1  0  0  0  0
  7 55  2  0  0  0  0
  8 55  1  0  0  0  0
  9 40  1  0  0  0  0
  9 41  1  0  0  0  0
 10 11  1  0  0  0  0
 10 42  1  0  0  0  0
 10 43  1  0  0  0  0
 11 19  1  0  0  0  0
 11 12  1  0  0  0  0
 12 17  2  0  0  0  0
 12 13  1  0  0  0  0
 13 14  2  0  0  0  0
 13 44  1  0  0  0  0
 14 15  1  0  0  0  0
 14 45  1  0  0  0  0
 15 16  2  0  0  0  0
 15 46  1  0  0  0  0
 16 17  1  0  0  0  0
 16 35  1  0  0  0  0
 17 18  1  0  0  0  0
 18 19  2  0  0  0  0
 18 47  1  0  0  0  0
 19 20  1  0  0  0  0
 20 21  2  0  0  0  0
 20 22  1  0  0  0  0
 22 23  1  0  0  0  0
 22 48  1  0  0  0  0
 23 24  1  0  0  0  0
 23 49  1  0  0  0  0
 23 50  1  0  0  0  0
 24 29  2  0  0  0  0
 24 25  1  0  0  0  0
 25 26  2  0  0  0  0
 25 51  1  0  0  0  0
 26 27  1  0  0  0  0
 26 31  1  0  0  0  0
 27 28  2  0  0  0  0
 27 52  1  0  0  0  0
 28 29  1  0  0  0  0
 28 30  1  0  0  0  0
 29 53  1  0  0  0  0
 31 32  1  0  0  0  0
 31 33  1  0  0  0  0
 31 34  1  0  0  0  0
 35 54  1  0  0  0  0
 55 56  1  0  0  0  0
M  CHG  1  55   1
M  END
$$$$
ZINC04631113
  -OEChem-08230709403D

 53 56  0     0  0  0  0  0  0999 V2000
    0.6708    1.9210   -0.5035 C   0  0  0  0  0  0  0  0  0  0  0  0
    1.6358    2.8914   -0.3001 C   0  0  0  0  0  0  0  0  0  0  0  0
    1.2901    4.2307   -0.3071 C   0  0  0  0  0  0  0  0  0  0  0  0
   -0.0210    4.6066   -0.5177 C   0  0  0  0  0  0  0  0  0  0  0  0
   -0.9979    3.6333   -0.7237 C   0  0  0  0  0  0  0  0  0  0  0  0
   -0.6423    2.2846   -0.7203 C   0  0  0  0  0  0  0  0  0  0  0  0
   -2.4066    4.0300   -0.9501 C   0  0  0  0  0  0  0  0  0  0  0  0
   -3.6310    5.6499   -1.0970 H   0  0  0  0  0  0  0  0  0  0  0  0
   -3.3697    3.0660   -1.1533 N   0  0  0  0  0  0  0  0  0  0  0  0
    2.3471    5.2813   -0.0838 C   0  0  0  0  0  0  0  0  0  0  0  0
    2.9308    5.6679   -1.3708 N   0  0  0  0  0  0  0  0  0  0  0  0
    2.4445    6.6423   -2.2106 C   0  0  0  0  0  0  0  0  0  0  0  0
    1.3523    7.5022   -2.1367 C   0  0  0  0  0  0  0  0  0  0  0  0
    1.1077    8.3965   -3.1551 C   0  0  0  0  0  0  0  0  0  0  0  0
    1.9407    8.4539   -4.2636 C   0  0  0  0  0  0  0  0  0  0  0  0
    3.0310    7.6131   -4.3625 C   0  0  0  0  0  0  0  0  0  0  0  0
    3.2950    6.6944   -3.3316 C   0  0  0  0  0  0  0  0  0  0  0  0
    4.3021    5.7214   -3.1332 C   0  0  0  0  0  0  0  0  0  0  0  0
    4.0652    5.1174   -1.9386 C   0  0  0  0  0  0  0  0  0  0  0  0
    4.8811    4.0481   -1.3476 C   0  0  0  0  0  0  0  0  0  0  0  0
    4.6360    3.6452   -0.2261 O   0  0  0  0  0  0  0  0  0  0  0  0
    5.9011    3.5136   -2.0478 N   0  0  0  0  0  0  0  0  0  0  0  0
    6.7805    2.5237   -1.4209 C   0  0  0  0  0  0  0  0  0  0  0  0
    7.8314    2.0879   -2.4093 C   0  0  0  0  0  0  0  0  0  0  0  0
    7.5952    1.0059   -3.2362 C   0  0  0  0  0  0  0  0  0  0  0  0
    8.5578    0.6081   -4.1487 C   0  0  0  0  0  0  0  0  0  0  0  0
    9.7614    1.2875   -4.2246 C   0  0  0  0  0  0  0  0  0  0  0  0
    9.9991    2.3674   -3.3920 C   0  0  0  0  0  0  0  0  0  0  0  0
    9.0328    2.7670   -2.4842 C   0  0  0  0  0  0  0  0  0  0  0  0
   11.1732    3.0317   -3.4654 F   0  0  0  0  0  0  0  0  0  0  0  0
    8.3246   -0.4464   -4.9603 F   0  0  0  0  0  0  0  0  0  0  0  0
    3.8433    7.6728   -5.4487 O   0  0  0  0  0  0  0  0  0  0  0  0
    0.9469    0.8768   -0.4969 H   0  0  0  0  0  0  0  0  0  0  0  0
    2.6631    2.6021   -0.1350 H   0  0  0  0  0  0  0  0  0  0  0  0
   -0.2897    5.6526   -0.5232 H   0  0  0  0  0  0  0  0  0  0  0  0
   -1.3939    1.5263   -0.8833 H   0  0  0  0  0  0  0  0  0  0  0  0
   -3.1251    2.1273   -1.1481 H   0  0  0  0  0  0  0  0  0  0  0  0
   -4.2923    3.3258   -1.3017 H   0  0  0  0  0  0  0  0  0  0  0  0
    1.8972    6.1548    0.3881 H   0  0  0  0  0  0  0  0  0  0  0  0
    3.1272    4.8802    0.5631 H   0  0  0  0  0  0  0  0  0  0  0  0
    0.6958    7.4678   -1.2798 H   0  0  0  0  0  0  0  0  0  0  0  0
    0.2580    9.0602   -3.0905 H   0  0  0  0  0  0  0  0  0  0  0  0
    1.7349    9.1610   -5.0537 H   0  0  0  0  0  0  0  0  0  0  0  0
    5.1162    5.5010   -3.8078 H   0  0  0  0  0  0  0  0  0  0  0  0
    6.0531    3.7844   -2.9667 H   0  0  0  0  0  0  0  0  0  0  0  0
    7.2628    2.9663   -0.5493 H   0  0  0  0  0  0  0  0  0  0  0  0
    6.1925    1.6598   -1.1112 H   0  0  0  0  0  0  0  0  0  0  0  0
    6.6579    0.4730   -3.1733 H   0  0  0  0  0  0  0  0  0  0  0  0
   10.5143    0.9753   -4.9331 H   0  0  0  0  0  0  0  0  0  0  0  0
    9.2179    3.6098   -1.8348 H   0  0  0  0  0  0  0  0  0  0  0  0
    3.5771    7.0882   -6.1715 H   0  0  0  0  0  0  0  0  0  0  0  0
   -2.6754    5.3265   -0.9455 N   0  3  0  0  0  0  0  0  0  0  0  0
   -1.9220    6.0065   -0.7896 H   0  0  0  0  0  0  0  0  0  0  0  0
  1  6  2  0  0  0  0
  1  2  1  0  0  0  0
  1 33  1  0  0  0  0
  2  3  2  0  0  0  0
  2 34  1  0  0  0  0
  3  4  1  0  0  0  0
  3 10  1  0  0  0  0
  4  5  2  0  0  0  0
  4 35  1  0  0  0  0
  5  6  1  0  0  0  0
  5  7  1  0  0  0  0
  6 36  1  0  0  0  0
  7  9  1  0  0  0  0
  7 52  2  0  0  0  0
  8 52  1  0  0  0  0
  9 37  1  0  0  0  0
  9 38  1  0  0  0  0
 10 11  1  0  0  0  0
 10 39  1  0  0  0  0
 10 40  1  0  0  0  0
 11 19  1  0  0  0  0
 11 12  1  0  0  0  0
 12 17  2  0  0  0  0
 12 13  1  0  0  0  0
 13 14  2  0  0  0  0
 13 41  1  0  0  0  0
 14 15  1  0  0  0  0
 14 42  1  0  0  0  0
 15 16  2  0  0  0  0
 15 43  1  0  0  0  0
 16 17  1  0  0  0  0
 16 32  1  0  0  0  0
 17 18  1  0  0  0  0
 18 19  2  0  0  0  0
 18 44  1  0  0  0  0
 19 20  1  0  0  0  0
 20 21  2  0  0  0  0
 20 22  1  0  0  0  0
 22 23  1  0  0  0  0
 22 45  1  0  0  0  0
 23 24  1  0  0  0  0
 23 46  1  0  0  0  0
 23 47  1  0  0  0  0
 24 29  2  0  0  0  0
 24 25  1  0  0  0  0
 25 26  2  0  0  0  0
 25 48  1  0  0  0  0
 26 27  1  0  0  0  0
 26 31  1  0  0  0  0
 27 28  2  0  0  0  0
 27 49  1  0  0  0  0
 28 29  1  0  0  0  0
 28 30  1  0  0  0  0
 29 50  1  0  0  0  0
 32 51  1  0  0  0  0
 52 53  1  0  0  0  0
M  CHG  1  52   1
M  END
$$$$
ZINC04631116
  -OEChem-08230709403D

 53 56  0     0  0  0  0  0  0999 V2000
    0.6708    1.9210   -0.5035 C   0  0  0  0  0  0  0  0  0  0  0  0
    1.6358    2.8914   -0.3001 C   0  0  0  0  0  0  0  0  0  0  0  0
    1.2901    4.2307   -0.3071 C   0  0  0  0  0  0  0  0  0  0  0  0
   -0.0210    4.6066   -0.5177 C   0  0  0  0  0  0  0  0  0  0  0  0
   -0.9979    3.6333   -0.7237 C   0  0  0  0  0  0  0  0  0  0  0  0
   -0.6423    2.2846   -0.7203 C   0  0  0  0  0  0  0  0  0  0  0  0
   -2.4066    4.0300   -0.9501 C   0  0  0  0  0  0  0  0  0  0  0  0
   -3.6310    5.6499   -1.0970 H   0  0  0  0  0  0  0  0  0  0  0  0
   -3.3697    3.0660   -1.1533 N   0  0  0  0  0  0  0  0  0  0  0  0
    2.3471    5.2813   -0.0838 C   0  0  0  0  0  0  0  0  0  0  0  0
    2.9308    5.6679   -1.3708 N   0  0  0  0  0  0  0  0  0  0  0  0
    2.4445    6.6423   -2.2106 C   0  0  0  0  0  0  0  0  0  0  0  0
    1.3523    7.5022   -2.1367 C   0  0  0  0  0  0  0  0  0  0  0  0
    1.1077    8.3965   -3.1551 C   0  0  0  0  0  0  0  0  0  0  0  0
    1.9407    8.4539   -4.2636 C   0  0  0  0  0  0  0  0  0  0  0  0
    3.0310    7.6131   -4.3625 C   0  0  0  0  0  0  0  0  0  0  0  0
    3.2950    6.6944   -3.3316 C   0  0  0  0  0  0  0  0  0  0  0  0
    4.3021    5.7214   -3.1332 C   0  0  0  0  0  0  0  0  0  0  0  0
    4.0652    5.1174   -1.9386 C   0  0  0  0  0  0  0  0  0  0  0  0
    4.8811    4.0481   -1.3476 C   0  0  0  0  0  0  0  0  0  0  0  0
    4.6360    3.6452   -0.2261 O   0  0  0  0  0  0  0  0  0  0  0  0
    5.9011    3.5136   -2.0478 N   0  0  0  0  0  0  0  0  0  0  0  0
    6.7805    2.5237   -1.4209 C   0  0  0  0  0  0  0  0  0  0  0  0
    7.8314    2.0879   -2.4093 C   0  0  0  0  0  0  0  0  0  0  0  0
    9.1294    2.5465   -2.2850 C   0  0  0  0  0  0  0  0  0  0  0  0
   10.0947    2.1468   -3.1919 C   0  0  0  0  0  0  0  0  0  0  0  0
    9.7610    1.2878   -4.2239 C   0  0  0  0  0  0  0  0  0  0  0  0
    8.4626    0.8288   -4.3488 C   0  0  0  0  0  0  0  0  0  0  0  0
    7.4981    1.2248   -3.4372 C   0  0  0  0  0  0  0  0  0  0  0  0
    5.8695    0.6429   -3.5886 Cl  0  0  0  0  0  0  0  0  0  0  0  0
    8.0435   -0.2495   -5.6431 Cl  0  0  0  0  0  0  0  0  0  0  0  0
   11.7245    2.7237   -3.0353 Cl  0  0  0  0  0  0  0  0  0  0  0  0
    3.8433    7.6728   -5.4487 O   0  0  0  0  0  0  0  0  0  0  0  0
    0.9469    0.8768   -0.4970 H   0  0  0  0  0  0  0  0  0  0  0  0
    2.6631    2.6021   -0.1350 H   0  0  0  0  0  0  0  0  0  0  0  0
   -0.2897    5.6526   -0.5232 H   0  0  0  0  0  0  0  0  0  0  0  0
   -1.3939    1.5263   -0.8833 H   0  0  0  0  0  0  0  0  0  0  0  0
   -3.1251    2.1273   -1.1481 H   0  0  0  0  0  0  0  0  0  0  0  0
   -4.2923    3.3258   -1.3017 H   0  0  0  0  0  0  0  0  0  0  0  0
    1.8972    6.1548    0.3881 H   0  0  0  0  0  0  0  0  0  0  0  0
    3.1272    4.8802    0.5631 H   0  0  0  0  0  0  0  0  0  0  0  0
    0.6958    7.4678   -1.2798 H   0  0  0  0  0  0  0  0  0  0  0  0
    0.2580    9.0602   -3.0905 H   0  0  0  0  0  0  0  0  0  0  0  0
    1.7349    9.1610   -5.0537 H   0  0  0  0  0  0  0  0  0  0  0  0
    5.1162    5.5010   -3.8078 H   0  0  0  0  0  0  0  0  0  0  0  0
    6.0531    3.7844   -2.9667 H   0  0  0  0  0  0  0  0  0  0  0  0
    7.2628    2.9663   -0.5493 H   0  0  0  0  0  0  0  0  0  0  0  0
    6.1925    1.6598   -1.1112 H   0  0  0  0  0  0  0  0  0  0  0  0
    9.3904    3.2168   -1.4793 H   0  0  0  0  0  0  0  0  0  0  0  0
   10.5145    0.9762   -4.9321 H   0  0  0  0  0  0  0  0  0  0  0  0
    3.5771    7.0882   -6.1715 H   0  0  0  0  0  0  0  0  0  0  0  0
   -2.6754    5.3265   -0.9455 N   0  3  0  0  0  0  0  0  0  0  0  0
   -1.9220    6.0065   -0.7896 H   0  0  0  0  0  0  0  0  0  0  0  0
  1  6  2  0  0  0  0
  1  2  1  0  0  0  0
  1 34  1  0  0  0  0
  2  3  2  0  0  0  0
  2 35  1  0  0  0  0
  3  4  1  0  0  0  0
  3 10  1  0  0  0  0
  4  5  2  0  0  0  0
  4 36  1  0  0  0  0
  5  6  1  0  0  0  0
  5  7  1  0  0  0  0
  6 37  1  0  0  0  0
  7  9  1  0  0  0  0
  7 52  2  0  0  0  0
  8 52  1  0  0  0  0
  9 38  1  0  0  0  0
  9 39  1  0  0  0  0
 10 11  1  0  0  0  0
 10 40  1  0  0  0  0
 10 41  1  0  0  0  0
 11 19  1  0  0  0  0
 11 12  1  0  0  0  0
 12 17  2  0  0  0  0
 12 13  1  0  0  0  0
 13 14  2  0  0  0  0
 13 42  1  0  0  0  0
 14 15  1  0  0  0  0
 14 43  1  0  0  0  0
 15 16  2  0  0  0  0
 15 44  1  0  0  0  0
 16 17  1  0  0  0  0
 16 33  1  0  0  0  0
 17 18  1  0  0  0  0
 18 19  2  0  0  0  0
 18 45  1  0  0  0  0
 19 20  1  0  0  0  0
 20 21  2  0  0  0  0
 20 22  1  0  0  0  0
 22 23  1  0  0  0  0
 22 46  1  0  0  0  0
 23 24  1  0  0  0  0
 23 47  1  0  0  0  0
 23 48  1  0  0  0  0
 24 29  2  0  0  0  0
 24 25  1  0  0  0  0
 25 26  2  0  0  0  0
 25 49  1  0  0  0  0
 26 27  1  0  0  0  0
 26 32  1  0  0  0  0
 27 28  2  0  0  0  0
 27 50  1  0  0  0  0
 28 29  1  0  0  0  0
 28 31  1  0  0  0  0
 29 30  1  0  0  0  0
 33 51  1  0  0  0  0
 52 53  1  0  0  0  0
M  CHG  1  52   1
M  END
$$$$
ZINC04631118
  -OEChem-08230709403D

 53 56  0     0  0  0  0  0  0999 V2000
    0.6708    1.9210   -0.5035 C   0  0  0  0  0  0  0  0  0  0  0  0
    1.6358    2.8914   -0.3001 C   0  0  0  0  0  0  0  0  0  0  0  0
    1.2901    4.2307   -0.3071 C   0  0  0  0  0  0  0  0  0  0  0  0
   -0.0210    4.6066   -0.5177 C   0  0  0  0  0  0  0  0  0  0  0  0
   -0.9979    3.6333   -0.7237 C   0  0  0  0  0  0  0  0  0  0  0  0
   -0.6423    2.2846   -0.7203 C   0  0  0  0  0  0  0  0  0  0  0  0
   -2.4066    4.0300   -0.9501 C   0  0  0  0  0  0  0  0  0  0  0  0
   -3.6310    5.6499   -1.0970 H   0  0  0  0  0  0  0  0  0  0  0  0
   -3.3697    3.0660   -1.1533 N   0  0  0  0  0  0  0  0  0  0  0  0
    2.3471    5.2813   -0.0838 C   0  0  0  0  0  0  0  0  0  0  0  0
    2.9308    5.6679   -1.3708 N   0  0  0  0  0  0  0  0  0  0  0  0
    2.4445    6.6423   -2.2106 C   0  0  0  0  0  0  0  0  0  0  0  0
    1.3523    7.5022   -2.1367 C   0  0  0  0  0  0  0  0  0  0  0  0
    1.1077    8.3965   -3.1551 C   0  0  0  0  0  0  0  0  0  0  0  0
    1.9407    8.4539   -4.2636 C   0  0  0  0  0  0  0  0  0  0  0  0
    3.0310    7.6131   -4.3625 C   0  0  0  0  0  0  0  0  0  0  0  0
    3.2950    6.6944   -3.3316 C   0  0  0  0  0  0  0  0  0  0  0  0
    4.3021    5.7214   -3.1332 C   0  0  0  0  0  0  0  0  0  0  0  0
    4.0652    5.1174   -1.9386 C   0  0  0  0  0  0  0  0  0  0  0  0
    4.8811    4.0481   -1.3476 C   0  0  0  0  0  0  0  0  0  0  0  0
    4.6360    3.6452   -0.2261 O   0  0  0  0  0  0  0  0  0  0  0  0
    5.9011    3.5136   -2.0478 N   0  0  0  0  0  0  0  0  0  0  0  0
    6.7805    2.5237   -1.4209 C   0  0  0  0  0  0  0  0  0  0  0  0
    7.8314    2.0879   -2.4093 C   0  0  0  0  0  0  0  0  0  0  0  0
    7.5953    1.0055   -3.2366 C   0  0  0  0  0  0  0  0  0  0  0  0
    8.5559    0.6083   -4.1473 C   0  0  0  0  0  0  0  0  0  0  0  0
    9.7591    1.2868   -4.2238 C   0  0  0  0  0  0  0  0  0  0  0  0
    9.9977    2.3671   -3.3915 C   0  0  0  0  0  0  0  0  0  0  0  0
    9.0327    2.7669   -2.4843 C   0  0  0  0  0  0  0  0  0  0  0  0
   11.5068    3.2200   -3.4867 Cl  0  0  0  0  0  0  0  0  0  0  0  0
   10.9686    0.7843   -5.3631 Cl  0  0  0  0  0  0  0  0  0  0  0  0
    3.8433    7.6728   -5.4487 O   0  0  0  0  0  0  0  0  0  0  0  0
    0.9469    0.8768   -0.4970 H   0  0  0  0  0  0  0  0  0  0  0  0
    2.6631    2.6021   -0.1350 H   0  0  0  0  0  0  0  0  0  0  0  0
   -0.2897    5.6526   -0.5232 H   0  0  0  0  0  0  0  0  0  0  0  0
   -1.3939    1.5263   -0.8833 H   0  0  0  0  0  0  0  0  0  0  0  0
   -3.1251    2.1273   -1.1481 H   0  0  0  0  0  0  0  0  0  0  0  0
   -4.2923    3.3258   -1.3017 H   0  0  0  0  0  0  0  0  0  0  0  0
    1.8972    6.1548    0.3881 H   0  0  0  0  0  0  0  0  0  0  0  0
    3.1272    4.8802    0.5631 H   0  0  0  0  0  0  0  0  0  0  0  0
    0.6958    7.4678   -1.2798 H   0  0  0  0  0  0  0  0  0  0  0  0
    0.2580    9.0602   -3.0905 H   0  0  0  0  0  0  0  0  0  0  0  0
    1.7349    9.1610   -5.0537 H   0  0  0  0  0  0  0  0  0  0  0  0
    5.1162    5.5010   -3.8078 H   0  0  0  0  0  0  0  0  0  0  0  0
    6.0531    3.7844   -2.9667 H   0  0  0  0  0  0  0  0  0  0  0  0
    7.2628    2.9663   -0.5493 H   0  0  0  0  0  0  0  0  0  0  0  0
    6.1925    1.6598   -1.1112 H   0  0  0  0  0  0  0  0  0  0  0  0
    6.6579    0.4726   -3.1738 H   0  0  0  0  0  0  0  0  0  0  0  0
    8.3692   -0.2348   -4.7960 H   0  0  0  0  0  0  0  0  0  0  0  0
    9.2184    3.6093   -1.8346 H   0  0  0  0  0  0  0  0  0  0  0  0
    3.5771    7.0882   -6.1715 H   0  0  0  0  0  0  0  0  0  0  0  0
   -2.6754    5.3265   -0.9455 N   0  3  0  0  0  0  0  0  0  0  0  0
   -1.9220    6.0065   -0.7896 H   0  0  0  0  0  0  0  0  0  0  0  0
  1  6  2  0  0  0  0
  1  2  1  0  0  0  0
  1 33  1  0  0  0  0
  2  3  2  0  0  0  0
  2 34  1  0  0  0  0
  3  4  1  0  0  0  0
  3 10  1  0  0  0  0
  4  5  2  0  0  0  0
  4 35  1  0  0  0  0
  5  6  1  0  0  0  0
  5  7  1  0  0  0  0
  6 36  1  0  0  0  0
  7  9  1  0  0  0  0
  7 52  2  0  0  0  0
  8 52  1  0  0  0  0
  9 37  1  0  0  0  0
  9 38  1  0  0  0  0
 10 11  1  0  0  0  0
 10 39  1  0  0  0  0
 10 40  1  0  0  0  0
 11 19  1  0  0  0  0
 11 12  1  0  0  0  0
 12 17  2  0  0  0  0
 12 13  1  0  0  0  0
 13 14  2  0  0  0  0
 13 41  1  0  0  0  0
 14 15  1  0  0  0  0
 14 42  1  0  0  0  0
 15 16  2  0  0  0  0
 15 43  1  0  0  0  0
 16 17  1  0  0  0  0
 16 32  1  0  0  0  0
 17 18  1  0  0  0  0
 18 19  2  0  0  0  0
 18 44  1  0  0  0  0
 19 20  1  0  0  0  0
 20 21  2  0  0  0  0
 20 22  1  0  0  0  0
 22 23  1  0  0  0  0
 22 45  1  0  0  0  0
 23 24  1  0  0  0  0
 23 46  1  0  0  0  0
 23 47  1  0  0  0  0
 24 29  2  0  0  0  0
 24 25  1  0  0  0  0
 25 26  2  0  0  0  0
 25 48  1  0  0  0  0
 26 27  1  0  0  0  0
 26 49  1  0  0  0  0
 27 28  2  0  0  0  0
 27 31  1  0  0  0  0
 28 29  1  0  0  0  0
 28 30  1  0  0  0  0
 29 50  1  0  0  0  0
 32 51  1  0  0  0  0
 52 53  1  0  0  0  0
M  CHG  1  52   1
M  END
$$$$
ZINC04631119
  -OEChem-08230709403D

 59 62  0     0  0  0  0  0  0999 V2000
    2.1499    4.8712    1.2959 C   0  0  0  0  0  0  0  0  0  0  0  0
    3.3091    5.6191    1.1893 C   0  0  0  0  0  0  0  0  0  0  0  0
    3.2418    6.9941    1.0557 C   0  0  0  0  0  0  0  0  0  0  0  0
    2.0164    7.6283    1.0276 C   0  0  0  0  0  0  0  0  0  0  0  0
    0.8447    6.8800    1.1342 C   0  0  0  0  0  0  0  0  0  0  0  0
    0.9188    5.4933    1.2638 C   0  0  0  0  0  0  0  0  0  0  0  0
   -0.4734    7.5544    1.1047 C   0  0  0  0  0  0  0  0  0  0  0  0
   -1.3561    9.3823    0.9496 H   0  0  0  0  0  0  0  0  0  0  0  0
   -1.6295    6.8123    1.2103 N   0  0  0  0  0  0  0  0  0  0  0  0
    4.5091    7.8014    0.9412 C   0  0  0  0  0  0  0  0  0  0  0  0
    4.8873    7.9192   -0.4693 N   0  0  0  0  0  0  0  0  0  0  0  0
    4.4453    8.8887   -1.3388 C   0  0  0  0  0  0  0  0  0  0  0  0
    3.5831    9.9722   -1.1957 C   0  0  0  0  0  0  0  0  0  0  0  0
    3.3213   10.7926   -2.2704 C   0  0  0  0  0  0  0  0  0  0  0  0
    3.9091   10.5536   -3.5048 C   0  0  0  0  0  0  0  0  0  0  0  0
    4.7682    9.4866   -3.6745 C   0  0  0  0  0  0  0  0  0  0  0  0
    5.0464    8.6394   -2.5876 C   0  0  0  0  0  0  0  0  0  0  0  0
    5.8592    7.4922   -2.4346 C   0  0  0  0  0  0  0  0  0  0  0  0
    5.7521    7.0775   -1.1444 C   0  0  0  0  0  0  0  0  0  0  0  0
    6.4414    5.9182   -0.5618 C   0  0  0  0  0  0  0  0  0  0  0  0
    6.3516    5.6931    0.6305 O   0  0  0  0  0  0  0  0  0  0  0  0
    7.1731    5.1042   -1.3481 N   0  0  0  0  0  0  0  0  0  0  0  0
    7.9462    4.0114   -0.7528 C   0  0  0  0  0  0  0  0  0  0  0  0
    8.6692    3.2576   -1.8391 C   0  0  0  0  0  0  0  0  0  0  0  0
    8.0591    2.1774   -2.4512 C   0  0  0  0  0  0  0  0  0  0  0  0
    8.7142    1.4862   -3.4499 C   0  0  0  0  0  0  0  0  0  0  0  0
    9.9978    1.8724   -3.8348 C   0  0  0  0  0  0  0  0  0  0  0  0
   10.6096    2.9589   -3.2103 C   0  0  0  0  0  0  0  0  0  0  0  0
    9.9426    3.6451   -2.2162 C   0  0  0  0  0  0  0  0  0  0  0  0
   10.7080    1.1319   -4.9025 C   0  0  0  0  0  0  0  0  0  0  0  0
   12.4531    1.0733   -5.9494 H   0  0  0  0  0  0  0  0  0  0  0  0
   10.1010    0.0589   -5.5177 N   0  0  0  0  0  0  0  0  0  0  0  0
    5.3411    9.2566   -4.8838 O   0  0  0  0  0  0  0  0  0  0  0  0
    2.2088    3.7978    1.3999 H   0  0  0  0  0  0  0  0  0  0  0  0
    4.2704    5.1273    1.2107 H   0  0  0  0  0  0  0  0  0  0  0  0
    1.9650    8.7020    0.9230 H   0  0  0  0  0  0  0  0  0  0  0  0
    0.0147    4.9079    1.3427 H   0  0  0  0  0  0  0  0  0  0  0  0
   -1.5800    5.8481    1.3038 H   0  0  0  0  0  0  0  0  0  0  0  0
   -2.4928    7.2540    1.1910 H   0  0  0  0  0  0  0  0  0  0  0  0
    4.3457    8.7953    1.3578 H   0  0  0  0  0  0  0  0  0  0  0  0
    5.3079    7.3038    1.4911 H   0  0  0  0  0  0  0  0  0  0  0  0
    3.1186   10.1694   -0.2409 H   0  0  0  0  0  0  0  0  0  0  0  0
    2.6509   11.6310   -2.1516 H   0  0  0  0  0  0  0  0  0  0  0  0
    3.6932   11.2065   -4.3375 H   0  0  0  0  0  0  0  0  0  0  0  0
    6.4609    7.0310   -3.2038 H   0  0  0  0  0  0  0  0  0  0  0  0
    7.1880    5.2419   -2.3082 H   0  0  0  0  0  0  0  0  0  0  0  0
    8.6718    4.4206   -0.0497 H   0  0  0  0  0  0  0  0  0  0  0  0
    7.2729    3.3344   -0.2270 H   0  0  0  0  0  0  0  0  0  0  0  0
    7.0666    1.8770   -2.1497 H   0  0  0  0  0  0  0  0  0  0  0  0
    8.2351    0.6458   -3.9301 H   0  0  0  0  0  0  0  0  0  0  0  0
   11.6034    3.2628   -3.5043 H   0  0  0  0  0  0  0  0  0  0  0  0
   10.4153    4.4867   -1.7319 H   0  0  0  0  0  0  0  0  0  0  0  0
    9.2083   -0.2116   -5.2514 H   0  0  0  0  0  0  0  0  0  0  0  0
   10.5661   -0.4261   -6.2172 H   0  0  0  0  0  0  0  0  0  0  0  0
    4.8245    8.6766   -5.4598 H   0  0  0  0  0  0  0  0  0  0  0  0
   -0.4731    8.8721    0.9750 N   0  3  0  0  0  0  0  0  0  0  0  0
    0.4159    9.3803    0.8999 H   0  0  0  0  0  0  0  0  0  0  0  0
   11.9233    1.5508   -5.2199 N   0  3  0  0  0  0  0  0  0  0  0  0
   12.3326    2.3561   -4.7319 H   0  0  0  0  0  0  0  0  0  0  0  0
  1  6  2  0  0  0  0
  1  2  1  0  0  0  0
  1 34  1  0  0  0  0
  2  3  2  0  0  0  0
  2 35  1  0  0  0  0
  3  4  1  0  0  0  0
  3 10  1  0  0  0  0
  4  5  2  0  0  0  0
  4 36  1  0  0  0  0
  5  6  1  0  0  0  0
  5  7  1  0  0  0  0
  6 37  1  0  0  0  0
  7  9  1  0  0  0  0
  7 56  2  0  0  0  0
  8 56  1  0  0  0  0
  9 38  1  0  0  0  0
  9 39  1  0  0  0  0
 10 11  1  0  0  0  0
 10 40  1  0  0  0  0
 10 41  1  0  0  0  0
 11 19  1  0  0  0  0
 11 12  1  0  0  0  0
 12 17  2  0  0  0  0
 12 13  1  0  0  0  0
 13 14  2  0  0  0  0
 13 42  1  0  0  0  0
 14 15  1  0  0  0  0
 14 43  1  0  0  0  0
 15 16  2  0  0  0  0
 15 44  1  0  0  0  0
 16 17  1  0  0  0  0
 16 33  1  0  0  0  0
 17 18  1  0  0  0  0
 18 19  2  0  0  0  0
 18 45  1  0  0  0  0
 19 20  1  0  0  0  0
 20 21  2  0  0  0  0
 20 22  1  0  0  0  0
 22 23  1  0  0  0  0
 22 46  1  0  0  0  0
 23 24  1  0  0  0  0
 23 47  1  0  0  0  0
 23 48  1  0  0  0  0
 24 29  2  0  0  0  0
 24 25  1  0  0  0  0
 25 26  2  0  0  0  0
 25 49  1  0  0  0  0
 26 27  1  0  0  0  0
 26 50  1  0  0  0  0
 27 28  2  0  0  0  0
 27 30  1  0  0  0  0
 28 29  1  0  0  0  0
 28 51  1  0  0  0  0
 29 52  1  0  0  0  0
 30 32  1  0  0  0  0
 30 58  2  0  0  0  0
 31 58  1  0  0  0  0
 32 53  1  0  0  0  0
 32 54  1  0  0  0  0
 33 55  1  0  0  0  0
 56 57  1  0  0  0  0
 58 59  1  0  0  0  0
M  CHG  2  56   1  58   1
M  END
$$$$
ZINC04631121
  -OEChem-08230709403D

 50 53  0     0  0  0  0  0  0999 V2000
   -1.6948   -0.1305    3.4873 C   0  0  0  0  0  0  0  0  0  0  0  0
   -2.3151    0.0727    2.2673 C   0  0  0  0  0  0  0  0  0  0  0  0
   -3.6580    0.3999    2.2140 C   0  0  0  0  0  0  0  0  0  0  0  0
   -4.3900    0.5144    3.3784 C   0  0  0  0  0  0  0  0  0  0  0  0
   -3.7719    0.3051    4.6105 C   0  0  0  0  0  0  0  0  0  0  0  0
   -2.4161   -0.0190    4.6581 C   0  0  0  0  0  0  0  0  0  0  0  0
   -4.5518    0.4259    5.8635 C   0  0  0  0  0  0  0  0  0  0  0  0
   -6.4132    0.8303    6.5818 H   0  0  0  0  0  0  0  0  0  0  0  0
   -3.9382    0.2185    7.0796 N   0  0  0  0  0  0  0  0  0  0  0  0
   -4.3245    0.6258    0.8814 C   0  0  0  0  0  0  0  0  0  0  0  0
   -4.2338    2.0437    0.5241 N   0  0  0  0  0  0  0  0  0  0  0  0
   -5.0399    3.0459    1.0114 C   0  0  0  0  0  0  0  0  0  0  0  0
   -6.1011    3.0583    1.9122 C   0  0  0  0  0  0  0  0  0  0  0  0
   -6.7339    4.2431    2.2171 C   0  0  0  0  0  0  0  0  0  0  0  0
   -6.3265    5.4349    1.6341 C   0  0  0  0  0  0  0  0  0  0  0  0
   -5.2770    5.4512    0.7375 C   0  0  0  0  0  0  0  0  0  0  0  0
   -4.6200    4.2505    0.4157 C   0  0  0  0  0  0  0  0  0  0  0  0
   -3.5366    3.9359   -0.4369 C   0  0  0  0  0  0  0  0  0  0  0  0
   -3.3239    2.5952   -0.3591 C   0  0  0  0  0  0  0  0  0  0  0  0
   -2.2893    1.8527   -1.0911 C   0  0  0  0  0  0  0  0  0  0  0  0
   -2.2153    0.6433   -0.9804 O   0  0  0  0  0  0  0  0  0  0  0  0
   -1.4186    2.5117   -1.8810 N   0  0  0  0  0  0  0  0  0  0  0  0
   -0.3752    1.8183   -2.5020 C   0  0  0  0  0  0  0  0  0  0  0  0
   -0.4844    0.4521   -2.7267 C   0  0  0  0  0  0  0  0  0  0  0  0
    0.5465   -0.2300   -3.3451 C   0  0  0  0  0  0  0  0  0  0  0  0
    1.6912    0.4452   -3.7308 C   0  0  0  0  0  0  0  0  0  0  0  0
    1.8050    1.8055   -3.5034 C   0  0  0  0  0  0  0  0  0  0  0  0
    0.7747    2.4934   -2.8902 C   0  0  0  0  0  0  0  0  0  0  0  0
    3.2424    2.6487   -3.9895 Cl  0  0  0  0  0  0  0  0  0  0  0  0
    0.4080   -1.9365   -3.6322 Cl  0  0  0  0  0  0  0  0  0  0  0  0
   -4.8820    6.6194    0.1696 O   0  0  0  0  0  0  0  0  0  0  0  0
   -0.6451   -0.3819    3.5229 H   0  0  0  0  0  0  0  0  0  0  0  0
   -1.7475   -0.0201    1.3533 H   0  0  0  0  0  0  0  0  0  0  0  0
   -5.4396    0.7652    3.3352 H   0  0  0  0  0  0  0  0  0  0  0  0
   -1.9318   -0.1819    5.6096 H   0  0  0  0  0  0  0  0  0  0  0  0
   -2.9953   -0.0067    7.1151 H   0  0  0  0  0  0  0  0  0  0  0  0
   -4.4490    0.2977    7.9004 H   0  0  0  0  0  0  0  0  0  0  0  0
   -5.3726    0.3335    0.9452 H   0  0  0  0  0  0  0  0  0  0  0  0
   -3.8260    0.0266    0.1196 H   0  0  0  0  0  0  0  0  0  0  0  0
   -6.4285    2.1380    2.3728 H   0  0  0  0  0  0  0  0  0  0  0  0
   -7.5562    4.2446    2.9172 H   0  0  0  0  0  0  0  0  0  0  0  0
   -6.8336    6.3552    1.8836 H   0  0  0  0  0  0  0  0  0  0  0  0
   -2.9789    4.6349   -1.0426 H   0  0  0  0  0  0  0  0  0  0  0  0
   -1.5157    3.4669   -2.0187 H   0  0  0  0  0  0  0  0  0  0  0  0
   -1.3757   -0.0762   -2.4218 H   0  0  0  0  0  0  0  0  0  0  0  0
    2.4974   -0.0905   -4.2098 H   0  0  0  0  0  0  0  0  0  0  0  0
    0.8639    3.5552   -2.7133 H   0  0  0  0  0  0  0  0  0  0  0  0
   -5.3339    6.8262   -0.6599 H   0  0  0  0  0  0  0  0  0  0  0  0
   -5.8338    0.7356    5.7475 N   0  3  0  0  0  0  0  0  0  0  0  0
   -6.2449    0.8804    4.8179 H   0  0  0  0  0  0  0  0  0  0  0  0
  1  6  2  0  0  0  0
  1  2  1  0  0  0  0
  1 32  1  0  0  0  0
  2  3  2  0  0  0  0
  2 33  1  0  0  0  0
  3  4  1  0  0  0  0
  3 10  1  0  0  0  0
  4  5  2  0  0  0  0
  4 34  1  0  0  0  0
  5  6  1  0  0  0  0
  5  7  1  0  0  0  0
  6 35  1  0  0  0  0
  7  9  1  0  0  0  0
  7 49  2  0  0  0  0
  8 49  1  0  0  0  0
  9 36  1  0  0  0  0
  9 37  1  0  0  0  0
 10 11  1  0  0  0  0
 10 38  1  0  0  0  0
 10 39  1  0  0  0  0
 11 19  1  0  0  0  0
 11 12  1  0  0  0  0
 12 17  2  0  0  0  0
 12 13  1  0  0  0  0
 13 14  2  0  0  0  0
 13 40  1  0  0  0  0
 14 15  1  0  0  0  0
 14 41  1  0  0  0  0
 15 16  2  0  0  0  0
 15 42  1  0  0  0  0
 16 17  1  0  0  0  0
 16 31  1  0  0  0  0
 17 18  1  0  0  0  0
 18 19  2  0  0  0  0
 18 43  1  0  0  0  0
 19 20  1  0  0  0  0
 20 21  2  0  0  0  0
 20 22  1  0  0  0  0
 22 23  1  0  0  0  0
 22 44  1  0  0  0  0
 23 28  2  0  0  0  0
 23 24  1  0  0  0  0
 24 25  2  0  0  0  0
 24 45  1  0  0  0  0
 25 26  1  0  0  0  0
 25 30  1  0  0  0  0
 26 27  2  0  0  0  0
 26 46  1  0  0  0  0
 27 28  1  0  0  0  0
 27 29  1  0  0  0  0
 28 47  1  0  0  0  0
 31 48  1  0  0  0  0
 49 50  1  0  0  0  0
M  CHG  1  49   1
M  END
$$$$
ZINC04631124
  -OEChem-08230709403D

 56 59  0     0  0  0  0  0  0999 V2000
    8.5594    0.6131   -4.1486 C   0  0  0  0  0  0  0  0  0  0  0  0
    7.5966    1.0094   -3.2389 C   0  0  0  0  0  0  0  0  0  0  0  0
    7.8315    2.0910   -2.4113 C   0  0  0  0  0  0  0  0  0  0  0  0
    9.0331    2.7707   -2.4862 C   0  0  0  0  0  0  0  0  0  0  0  0
    9.9971    2.3722   -3.3928 C   0  0  0  0  0  0  0  0  0  0  0  0
    9.7602    1.2931   -4.2242 C   0  0  0  0  0  0  0  0  0  0  0  0
   11.3067    3.1134   -3.4749 C   0  0  0  0  0  0  0  0  0  0  0  0
   12.2272    2.5324   -2.5961 F   0  0  0  0  0  0  0  0  0  0  0  0
   11.8012    3.0431   -4.7817 F   0  0  0  0  0  0  0  0  0  0  0  0
   11.1074    4.4527   -3.1231 F   0  0  0  0  0  0  0  0  0  0  0  0
    6.7803    2.5258   -1.4228 C   0  0  0  0  0  0  0  0  0  0  0  0
    5.9004    3.5155   -2.0492 N   0  0  0  0  0  0  0  0  0  0  0  0
    4.8800    4.0491   -1.3489 C   0  0  0  0  0  0  0  0  0  0  0  0
    4.6350    3.6454   -0.2275 O   0  0  0  0  0  0  0  0  0  0  0  0
    4.0634    5.1181   -1.9394 C   0  0  0  0  0  0  0  0  0  0  0  0
    4.3001    5.7228   -3.1337 C   0  0  0  0  0  0  0  0  0  0  0  0
    3.2928    6.6956   -3.3315 C   0  0  0  0  0  0  0  0  0  0  0  0
    2.4425    6.6431   -2.2100 C   0  0  0  0  0  0  0  0  0  0  0  0
    2.9294    5.6685   -1.3706 N   0  0  0  0  0  0  0  0  0  0  0  0
    2.3465    5.2816   -0.0835 C   0  0  0  0  0  0  0  0  0  0  0  0
    1.2895    4.2309   -0.3063 C   0  0  0  0  0  0  0  0  0  0  0  0
    1.6353    2.8912   -0.2993 C   0  0  0  0  0  0  0  0  0  0  0  0
    0.6707    1.9210   -0.5025 C   0  0  0  0  0  0  0  0  0  0  0  0
   -0.6428    2.2848   -0.7199 C   0  0  0  0  0  0  0  0  0  0  0  0
   -0.9985    3.6331   -0.7225 C   0  0  0  0  0  0  0  0  0  0  0  0
   -0.0213    4.6067   -0.5165 C   0  0  0  0  0  0  0  0  0  0  0  0
   -2.4072    4.0298   -0.9486 C   0  0  0  0  0  0  0  0  0  0  0  0
   -3.6318    5.6495   -1.0950 H   0  0  0  0  0  0  0  0  0  0  0  0
   -3.3703    3.0656   -1.1519 N   0  0  0  0  0  0  0  0  0  0  0  0
    1.3505    7.5027   -2.1354 C   0  0  0  0  0  0  0  0  0  0  0  0
    1.1054    8.3975   -3.1538 C   0  0  0  0  0  0  0  0  0  0  0  0
    1.9381    8.4558   -4.2620 C   0  0  0  0  0  0  0  0  0  0  0  0
    3.0286    7.6146   -4.3616 C   0  0  0  0  0  0  0  0  0  0  0  0
    3.8407    7.6749   -5.4481 O   0  0  0  0  0  0  0  0  0  0  0  0
    8.3745   -0.2301   -4.7977 H   0  0  0  0  0  0  0  0  0  0  0  0
    6.6597    0.4757   -3.1773 H   0  0  0  0  0  0  0  0  0  0  0  0
    9.2182    3.6134   -1.8366 H   0  0  0  0  0  0  0  0  0  0  0  0
   10.5137    0.9814   -4.9324 H   0  0  0  0  0  0  0  0  0  0  0  0
    7.2622    2.9682   -0.5510 H   0  0  0  0  0  0  0  0  0  0  0  0
    6.1928    1.6613   -1.1136 H   0  0  0  0  0  0  0  0  0  0  0  0
    6.0522    3.7868   -2.9680 H   0  0  0  0  0  0  0  0  0  0  0  0
    5.1140    5.5027   -3.8085 H   0  0  0  0  0  0  0  0  0  0  0  0
    1.8968    6.1549    0.3889 H   0  0  0  0  0  0  0  0  0  0  0  0
    3.1271    4.8804    0.5629 H   0  0  0  0  0  0  0  0  0  0  0  0
    2.6626    2.6019   -0.1340 H   0  0  0  0  0  0  0  0  0  0  0  0
    0.9466    0.8769   -0.4956 H   0  0  0  0  0  0  0  0  0  0  0  0
   -1.3944    1.5264   -0.8829 H   0  0  0  0  0  0  0  0  0  0  0  0
   -0.2902    5.6527   -0.5217 H   0  0  0  0  0  0  0  0  0  0  0  0
   -3.1256    2.1269   -1.1468 H   0  0  0  0  0  0  0  0  0  0  0  0
   -4.2931    3.3255   -1.3000 H   0  0  0  0  0  0  0  0  0  0  0  0
    0.6943    7.4678   -1.2784 H   0  0  0  0  0  0  0  0  0  0  0  0
    0.2558    9.0612   -3.0886 H   0  0  0  0  0  0  0  0  0  0  0  0
    1.7322    9.1634   -5.0514 H   0  0  0  0  0  0  0  0  0  0  0  0
    3.5741    7.0905   -6.1710 H   0  0  0  0  0  0  0  0  0  0  0  0
   -2.6761    5.3262   -0.9437 N   0  3  0  0  0  0  0  0  0  0  0  0
   -1.9228    6.0062   -0.7877 H   0  0  0  0  0  0  0  0  0  0  0  0
  1  6  2  0  0  0  0
  1  2  1  0  0  0  0
  1 35  1  0  0  0  0
  2  3  2  0  0  0  0
  2 36  1  0  0  0  0
  3  4  1  0  0  0  0
  3 11  1  0  0  0  0
  4  5  2  0  0  0  0
  4 37  1  0  0  0  0
  5  6  1  0  0  0  0
  5  7  1  0  0  0  0
  6 38  1  0  0  0  0
  7  8  1  0  0  0  0
  7  9  1  0  0  0  0
  7 10  1  0  0  0  0
 11 12  1  0  0  0  0
 11 39  1  0  0  0  0
 11 40  1  0  0  0  0
 12 13  1  0  0  0  0
 12 41  1  0  0  0  0
 13 14  2  0  0  0  0
 13 15  1  0  0  0  0
 15 19  1  0  0  0  0
 15 16  2  0  0  0  0
 16 17  1  0  0  0  0
 16 42  1  0  0  0  0
 17 33  2  0  0  0  0
 17 18  1  0  0  0  0
 18 19  1  0  0  0  0
 18 30  2  0  0  0  0
 19 20  1  0  0  0  0
 20 21  1  0  0  0  0
 20 43  1  0  0  0  0
 20 44  1  0  0  0  0
 21 26  2  0  0  0  0
 21 22  1  0  0  0  0
 22 23  2  0  0  0  0
 22 45  1  0  0  0  0
 23 24  1  0  0  0  0
 23 46  1  0  0  0  0
 24 25  2  0  0  0  0
 24 47  1  0  0  0  0
 25 26  1  0  0  0  0
 25 27  1  0  0  0  0
 26 48  1  0  0  0  0
 27 29  1  0  0  0  0
 27 55  2  0  0  0  0
 28 55  1  0  0  0  0
 29 49  1  0  0  0  0
 29 50  1  0  0  0  0
 30 31  1  0  0  0  0
 30 51  1  0  0  0  0
 31 32  2  0  0  0  0
 31 52  1  0  0  0  0
 32 33  1  0  0  0  0
 32 53  1  0  0  0  0
 33 34  1  0  0  0  0
 34 54  1  0  0  0  0
 55 56  1  0  0  0  0
M  CHG  1  55   1
M  END
$$$$
ZINC04631127
  -OEChem-08230709403D

 56 59  0     0  0  0  0  0  0999 V2000
   10.7162    0.5409   -0.5177 C   0  0  0  0  0  0  0  0  0  0  0  0
    9.8883    1.4746   -1.1132 C   0  0  0  0  0  0  0  0  0  0  0  0
    8.7506    1.0636   -1.7819 C   0  0  0  0  0  0  0  0  0  0  0  0
    8.4455   -0.2822   -1.8649 C   0  0  0  0  0  0  0  0  0  0  0  0
    9.2762   -1.2171   -1.2738 C   0  0  0  0  0  0  0  0  0  0  0  0
   10.4122   -0.8047   -0.5999 C   0  0  0  0  0  0  0  0  0  0  0  0
    8.8940   -2.9074   -1.3780 Cl  0  0  0  0  0  0  0  0  0  0  0  0
    7.8460    2.0822   -2.4262 C   0  0  0  0  0  0  0  0  0  0  0  0
    6.7793    2.5241   -1.4225 C   0  0  0  0  0  0  0  0  0  0  0  0
    5.8998    3.5144   -2.0488 N   0  0  0  0  0  0  0  0  0  0  0  0
    4.8798    4.0485   -1.3483 C   0  0  0  0  0  0  0  0  0  0  0  0
    4.6347    3.6449   -0.2270 O   0  0  0  0  0  0  0  0  0  0  0  0
    4.0639    5.1183   -1.9387 C   0  0  0  0  0  0  0  0  0  0  0  0
    4.3010    5.7229   -3.1329 C   0  0  0  0  0  0  0  0  0  0  0  0
    3.2938    6.6958   -3.3309 C   0  0  0  0  0  0  0  0  0  0  0  0
    2.4432    6.6434   -2.2097 C   0  0  0  0  0  0  0  0  0  0  0  0
    2.9298    5.6687   -1.3702 N   0  0  0  0  0  0  0  0  0  0  0  0
    2.3466    5.2819   -0.0831 C   0  0  0  0  0  0  0  0  0  0  0  0
    1.2894    4.2313   -0.3061 C   0  0  0  0  0  0  0  0  0  0  0  0
    1.6351    2.8917   -0.2993 C   0  0  0  0  0  0  0  0  0  0  0  0
    0.6704    1.9216   -0.5029 C   0  0  0  0  0  0  0  0  0  0  0  0
   -0.6430    2.2855   -0.7203 C   0  0  0  0  0  0  0  0  0  0  0  0
   -0.9985    3.6338   -0.7226 C   0  0  0  0  0  0  0  0  0  0  0  0
   -0.0212    4.6073   -0.5164 C   0  0  0  0  0  0  0  0  0  0  0  0
   -2.4072    4.0307   -0.9489 C   0  0  0  0  0  0  0  0  0  0  0  0
   -3.6315    5.6506   -1.0951 H   0  0  0  0  0  0  0  0  0  0  0  0
   -3.3704    3.0667   -1.1523 N   0  0  0  0  0  0  0  0  0  0  0  0
    1.3506    7.5022   -2.1358 C   0  0  0  0  0  0  0  0  0  0  0  0
    1.1062    8.3977   -3.1539 C   0  0  0  0  0  0  0  0  0  0  0  0
    1.9390    8.4555   -4.2621 C   0  0  0  0  0  0  0  0  0  0  0  0
    3.0297    7.6147   -4.3613 C   0  0  0  0  0  0  0  0  0  0  0  0
    3.8419    7.6748   -5.4476 O   0  0  0  0  0  0  0  0  0  0  0  0
   11.6028    0.8630    0.0083 H   0  0  0  0  0  0  0  0  0  0  0  0
   10.1286    2.5257   -1.0524 H   0  0  0  0  0  0  0  0  0  0  0  0
    7.5586   -0.6035   -2.3907 H   0  0  0  0  0  0  0  0  0  0  0  0
   11.0613   -1.5342   -0.1386 H   0  0  0  0  0  0  0  0  0  0  0  0
    7.3637    1.6400   -3.2980 H   0  0  0  0  0  0  0  0  0  0  0  0
    8.4341    2.9463   -2.7355 H   0  0  0  0  0  0  0  0  0  0  0  0
    7.2615    2.9663   -0.5507 H   0  0  0  0  0  0  0  0  0  0  0  0
    6.1912    1.6601   -1.1132 H   0  0  0  0  0  0  0  0  0  0  0  0
    6.0517    3.7856   -2.9677 H   0  0  0  0  0  0  0  0  0  0  0  0
    5.1152    5.5030   -3.8074 H   0  0  0  0  0  0  0  0  0  0  0  0
    1.8970    6.1553    0.3892 H   0  0  0  0  0  0  0  0  0  0  0  0
    3.1270    4.8805    0.5634 H   0  0  0  0  0  0  0  0  0  0  0  0
    2.6624    2.6021   -0.1340 H   0  0  0  0  0  0  0  0  0  0  0  0
    0.9462    0.8774   -0.4960 H   0  0  0  0  0  0  0  0  0  0  0  0
   -1.3946    1.5273   -0.8834 H   0  0  0  0  0  0  0  0  0  0  0  0
   -0.2900    5.6533   -0.5215 H   0  0  0  0  0  0  0  0  0  0  0  0
   -3.1257    2.1281   -1.1474 H   0  0  0  0  0  0  0  0  0  0  0  0
   -4.2931    3.3267   -1.3004 H   0  0  0  0  0  0  0  0  0  0  0  0
    0.6942    7.4675   -1.2789 H   0  0  0  0  0  0  0  0  0  0  0  0
    0.2566    9.0611   -3.0891 H   0  0  0  0  0  0  0  0  0  0  0  0
    1.7329    9.1628   -5.0519 H   0  0  0  0  0  0  0  0  0  0  0  0
    3.5756    7.0902   -6.1705 H   0  0  0  0  0  0  0  0  0  0  0  0
   -2.6759    5.3272   -0.9437 N   0  3  0  0  0  0  0  0  0  0  0  0
   -1.9225    6.0070   -0.7874 H   0  0  0  0  0  0  0  0  0  0  0  0
  1  6  2  0  0  0  0
  1  2  1  0  0  0  0
  1 33  1  0  0  0  0
  2  3  2  0  0  0  0
  2 34  1  0  0  0  0
  3  4  1  0  0  0  0
  3  8  1  0  0  0  0
  4  5  2  0  0  0  0
  4 35  1  0  0  0  0
  5  6  1  0  0  0  0
  5  7  1  0  0  0  0
  6 36  1  0  0  0  0
  8  9  1  0  0  0  0
  8 37  1  0  0  0  0
  8 38  1  0  0  0  0
  9 10  1  0  0  0  0
  9 39  1  0  0  0  0
  9 40  1  0  0  0  0
 10 11  1  0  0  0  0
 10 41  1  0  0  0  0
 11 12  2  0  0  0  0
 11 13  1  0  0  0  0
 13 17  1  0  0  0  0
 13 14  2  0  0  0  0
 14 15  1  0  0  0  0
 14 42  1  0  0  0  0
 15 31  2  0  0  0  0
 15 16  1  0  0  0  0
 16 17  1  0  0  0  0
 16 28  2  0  0  0  0
 17 18  1  0  0  0  0
 18 19  1  0  0  0  0
 18 43  1  0  0  0  0
 18 44  1  0  0  0  0
 19 24  2  0  0  0  0
 19 20  1  0  0  0  0
 20 21  2  0  0  0  0
 20 45  1  0  0  0  0
 21 22  1  0  0  0  0
 21 46  1  0  0  0  0
 22 23  2  0  0  0  0
 22 47  1  0  0  0  0
 23 24  1  0  0  0  0
 23 25  1  0  0  0  0
 24 48  1  0  0  0  0
 25 27  1  0  0  0  0
 25 55  2  0  0  0  0
 26 55  1  0  0  0  0
 27 49  1  0  0  0  0
 27 50  1  0  0  0  0
 28 29  1  0  0  0  0
 28 51  1  0  0  0  0
 29 30  2  0  0  0  0
 29 52  1  0  0  0  0
 30 31  1  0  0  0  0
 30 53  1  0  0  0  0
 31 32  1  0  0  0  0
 32 54  1  0  0  0  0
 55 56  1  0  0  0  0
M  CHG  1  55   1
M  END
$$$$
ZINC04631128
  -OEChem-08230709403D

 53 56  0     0  0  0  0  0  0999 V2000
    8.5585    0.6128   -4.1494 C   0  0  0  0  0  0  0  0  0  0  0  0
    7.5964    1.0093   -3.2389 C   0  0  0  0  0  0  0  0  0  0  0  0
    7.8315    2.0910   -2.4113 C   0  0  0  0  0  0  0  0  0  0  0  0
    9.0329    2.7708   -2.4861 C   0  0  0  0  0  0  0  0  0  0  0  0
    9.9979    2.3713   -3.3932 C   0  0  0  0  0  0  0  0  0  0  0  0
    9.7599    1.2916   -4.2251 C   0  0  0  0  0  0  0  0  0  0  0  0
   11.5070    3.2242   -3.4874 Cl  0  0  0  0  0  0  0  0  0  0  0  0
    6.7803    2.5258   -1.4228 C   0  0  0  0  0  0  0  0  0  0  0  0
    5.9004    3.5155   -2.0492 N   0  0  0  0  0  0  0  0  0  0  0  0
    4.8800    4.0491   -1.3489 C   0  0  0  0  0  0  0  0  0  0  0  0
    4.6350    3.6454   -0.2275 O   0  0  0  0  0  0  0  0  0  0  0  0
    4.0634    5.1181   -1.9394 C   0  0  0  0  0  0  0  0  0  0  0  0
    4.3001    5.7228   -3.1337 C   0  0  0  0  0  0  0  0  0  0  0  0
    3.2928    6.6956   -3.3315 C   0  0  0  0  0  0  0  0  0  0  0  0
    2.4425    6.6431   -2.2100 C   0  0  0  0  0  0  0  0  0  0  0  0
    2.9294    5.6685   -1.3706 N   0  0  0  0  0  0  0  0  0  0  0  0
    2.3465    5.2816   -0.0835 C   0  0  0  0  0  0  0  0  0  0  0  0
    1.2895    4.2309   -0.3063 C   0  0  0  0  0  0  0  0  0  0  0  0
    1.6353    2.8912   -0.2993 C   0  0  0  0  0  0  0  0  0  0  0  0
    0.6707    1.9210   -0.5025 C   0  0  0  0  0  0  0  0  0  0  0  0
   -0.6428    2.2848   -0.7199 C   0  0  0  0  0  0  0  0  0  0  0  0
   -0.9985    3.6331   -0.7225 C   0  0  0  0  0  0  0  0  0  0  0  0
   -0.0213    4.6067   -0.5165 C   0  0  0  0  0  0  0  0  0  0  0  0
   -2.4072    4.0298   -0.9486 C   0  0  0  0  0  0  0  0  0  0  0  0
   -3.6318    5.6495   -1.0950 H   0  0  0  0  0  0  0  0  0  0  0  0
   -3.3703    3.0656   -1.1519 N   0  0  0  0  0  0  0  0  0  0  0  0
    1.3505    7.5027   -2.1354 C   0  0  0  0  0  0  0  0  0  0  0  0
    1.1054    8.3975   -3.1538 C   0  0  0  0  0  0  0  0  0  0  0  0
    1.9381    8.4558   -4.2620 C   0  0  0  0  0  0  0  0  0  0  0  0
    3.0286    7.6146   -4.3616 C   0  0  0  0  0  0  0  0  0  0  0  0
    3.8407    7.6749   -5.4481 O   0  0  0  0  0  0  0  0  0  0  0  0
    8.3727   -0.2299   -4.7987 H   0  0  0  0  0  0  0  0  0  0  0  0
    6.6594    0.4758   -3.1769 H   0  0  0  0  0  0  0  0  0  0  0  0
    9.2179    3.6137   -1.8367 H   0  0  0  0  0  0  0  0  0  0  0  0
   10.5130    0.9790   -4.9333 H   0  0  0  0  0  0  0  0  0  0  0  0
    7.2622    2.9682   -0.5510 H   0  0  0  0  0  0  0  0  0  0  0  0
    6.1928    1.6613   -1.1136 H   0  0  0  0  0  0  0  0  0  0  0  0
    6.0522    3.7868   -2.9680 H   0  0  0  0  0  0  0  0  0  0  0  0
    5.1140    5.5027   -3.8085 H   0  0  0  0  0  0  0  0  0  0  0  0
    1.8968    6.1549    0.3889 H   0  0  0  0  0  0  0  0  0  0  0  0
    3.1271    4.8804    0.5629 H   0  0  0  0  0  0  0  0  0  0  0  0
    2.6626    2.6019   -0.1340 H   0  0  0  0  0  0  0  0  0  0  0  0
    0.9466    0.8769   -0.4956 H   0  0  0  0  0  0  0  0  0  0  0  0
   -1.3944    1.5264   -0.8829 H   0  0  0  0  0  0  0  0  0  0  0  0
   -0.2902    5.6527   -0.5217 H   0  0  0  0  0  0  0  0  0  0  0  0
   -3.1256    2.1269   -1.1468 H   0  0  0  0  0  0  0  0  0  0  0  0
   -4.2931    3.3255   -1.3000 H   0  0  0  0  0  0  0  0  0  0  0  0
    0.6943    7.4678   -1.2784 H   0  0  0  0  0  0  0  0  0  0  0  0
    0.2558    9.0612   -3.0886 H   0  0  0  0  0  0  0  0  0  0  0  0
    1.7322    9.1634   -5.0514 H   0  0  0  0  0  0  0  0  0  0  0  0
    3.5741    7.0905   -6.1710 H   0  0  0  0  0  0  0  0  0  0  0  0
   -2.6761    5.3262   -0.9437 N   0  3  0  0  0  0  0  0  0  0  0  0
   -1.9228    6.0062   -0.7877 H   0  0  0  0  0  0  0  0  0  0  0  0
  1  6  2  0  0  0  0
  1  2  1  0  0  0  0
  1 32  1  0  0  0  0
  2  3  2  0  0  0  0
  2 33  1  0  0  0  0
  3  4  1  0  0  0  0
  3  8  1  0  0  0  0
  4  5  2  0  0  0  0
  4 34  1  0  0  0  0
  5  6  1  0  0  0  0
  5  7  1  0  0  0  0
  6 35  1  0  0  0  0
  8  9  1  0  0  0  0
  8 36  1  0  0  0  0
  8 37  1  0  0  0  0
  9 10  1  0  0  0  0
  9 38  1  0  0  0  0
 10 11  2  0  0  0  0
 10 12  1  0  0  0  0
 12 16  1  0  0  0  0
 12 13  2  0  0  0  0
 13 14  1  0  0  0  0
 13 39  1  0  0  0  0
 14 30  2  0  0  0  0
 14 15  1  0  0  0  0
 15 16  1  0  0  0  0
 15 27  2  0  0  0  0
 16 17  1  0  0  0  0
 17 18  1  0  0  0  0
 17 40  1  0  0  0  0
 17 41  1  0  0  0  0
 18 23  2  0  0  0  0
 18 19  1  0  0  0  0
 19 20  2  0  0  0  0
 19 42  1  0  0  0  0
 20 21  1  0  0  0  0
 20 43  1  0  0  0  0
 21 22  2  0  0  0  0
 21 44  1  0  0  0  0
 22 23  1  0  0  0  0
 22 24  1  0  0  0  0
 23 45  1  0  0  0  0
 24 26  1  0  0  0  0
 24 52  2  0  0  0  0
 25 52  1  0  0  0  0
 26 46  1  0  0  0  0
 26 47  1  0  0  0  0
 27 28  1  0  0  0  0
 27 48  1  0  0  0  0
 28 29  2  0  0  0  0
 28 49  1  0  0  0  0
 29 30  1  0  0  0  0
 29 50  1  0  0  0  0
 30 31  1  0  0  0  0
 31 51  1  0  0  0  0
 52 53  1  0  0  0  0
M  CHG  1  52   1
M  END
$$$$
ZINC04631129
  -OEChem-08230709403D

 53 56  0     0  0  0  0  0  0999 V2000
    8.5576    0.6128   -4.1503 C   0  0  0  0  0  0  0  0  0  0  0  0
    7.5962    1.0092   -3.2389 C   0  0  0  0  0  0  0  0  0  0  0  0
    7.8315    2.0910   -2.4113 C   0  0  0  0  0  0  0  0  0  0  0  0
    9.0326    2.7708   -2.4860 C   0  0  0  0  0  0  0  0  0  0  0  0
    9.9981    2.3713   -3.3942 C   0  0  0  0  0  0  0  0  0  0  0  0
    9.7591    1.2908   -4.2268 C   0  0  0  0  0  0  0  0  0  0  0  0
   11.1728    3.0346   -3.4678 F   0  0  0  0  0  0  0  0  0  0  0  0
    6.7803    2.5258   -1.4228 C   0  0  0  0  0  0  0  0  0  0  0  0
    5.9004    3.5155   -2.0492 N   0  0  0  0  0  0  0  0  0  0  0  0
    4.8800    4.0491   -1.3489 C   0  0  0  0  0  0  0  0  0  0  0  0
    4.6350    3.6454   -0.2275 O   0  0  0  0  0  0  0  0  0  0  0  0
    4.0634    5.1181   -1.9394 C   0  0  0  0  0  0  0  0  0  0  0  0
    4.3001    5.7228   -3.1337 C   0  0  0  0  0  0  0  0  0  0  0  0
    3.2928    6.6956   -3.3315 C   0  0  0  0  0  0  0  0  0  0  0  0
    2.4425    6.6431   -2.2100 C   0  0  0  0  0  0  0  0  0  0  0  0
    2.9294    5.6685   -1.3706 N   0  0  0  0  0  0  0  0  0  0  0  0
    2.3465    5.2816   -0.0835 C   0  0  0  0  0  0  0  0  0  0  0  0
    1.2895    4.2309   -0.3063 C   0  0  0  0  0  0  0  0  0  0  0  0
    1.6353    2.8912   -0.2993 C   0  0  0  0  0  0  0  0  0  0  0  0
    0.6707    1.9210   -0.5025 C   0  0  0  0  0  0  0  0  0  0  0  0
   -0.6428    2.2848   -0.7199 C   0  0  0  0  0  0  0  0  0  0  0  0
   -0.9985    3.6331   -0.7225 C   0  0  0  0  0  0  0  0  0  0  0  0
   -0.0213    4.6067   -0.5165 C   0  0  0  0  0  0  0  0  0  0  0  0
   -2.4072    4.0298   -0.9486 C   0  0  0  0  0  0  0  0  0  0  0  0
   -3.6318    5.6495   -1.0950 H   0  0  0  0  0  0  0  0  0  0  0  0
   -3.3703    3.0656   -1.1519 N   0  0  0  0  0  0  0  0  0  0  0  0
    1.3505    7.5027   -2.1354 C   0  0  0  0  0  0  0  0  0  0  0  0
    1.1054    8.3975   -3.1538 C   0  0  0  0  0  0  0  0  0  0  0  0
    1.9381    8.4558   -4.2620 C   0  0  0  0  0  0  0  0  0  0  0  0
    3.0286    7.6146   -4.3616 C   0  0  0  0  0  0  0  0  0  0  0  0
    3.8407    7.6749   -5.4481 O   0  0  0  0  0  0  0  0  0  0  0  0
    8.3710   -0.2298   -4.7995 H   0  0  0  0  0  0  0  0  0  0  0  0
    6.6591    0.4761   -3.1767 H   0  0  0  0  0  0  0  0  0  0  0  0
    9.2178    3.6135   -1.8364 H   0  0  0  0  0  0  0  0  0  0  0  0
   10.5118    0.9780   -4.9354 H   0  0  0  0  0  0  0  0  0  0  0  0
    7.2622    2.9682   -0.5510 H   0  0  0  0  0  0  0  0  0  0  0  0
    6.1928    1.6613   -1.1136 H   0  0  0  0  0  0  0  0  0  0  0  0
    6.0522    3.7868   -2.9680 H   0  0  0  0  0  0  0  0  0  0  0  0
    5.1140    5.5027   -3.8085 H   0  0  0  0  0  0  0  0  0  0  0  0
    1.8968    6.1549    0.3889 H   0  0  0  0  0  0  0  0  0  0  0  0
    3.1271    4.8804    0.5629 H   0  0  0  0  0  0  0  0  0  0  0  0
    2.6626    2.6019   -0.1340 H   0  0  0  0  0  0  0  0  0  0  0  0
    0.9466    0.8769   -0.4956 H   0  0  0  0  0  0  0  0  0  0  0  0
   -1.3944    1.5264   -0.8829 H   0  0  0  0  0  0  0  0  0  0  0  0
   -0.2902    5.6527   -0.5217 H   0  0  0  0  0  0  0  0  0  0  0  0
   -3.1256    2.1269   -1.1468 H   0  0  0  0  0  0  0  0  0  0  0  0
   -4.2931    3.3255   -1.3000 H   0  0  0  0  0  0  0  0  0  0  0  0
    0.6943    7.4678   -1.2784 H   0  0  0  0  0  0  0  0  0  0  0  0
    0.2558    9.0612   -3.0886 H   0  0  0  0  0  0  0  0  0  0  0  0
    1.7322    9.1634   -5.0514 H   0  0  0  0  0  0  0  0  0  0  0  0
    3.5741    7.0905   -6.1710 H   0  0  0  0  0  0  0  0  0  0  0  0
   -2.6761    5.3262   -0.9437 N   0  3  0  0  0  0  0  0  0  0  0  0
   -1.9228    6.0062   -0.7877 H   0  0  0  0  0  0  0  0  0  0  0  0
  1  6  2  0  0  0  0
  1  2  1  0  0  0  0
  1 32  1  0  0  0  0
  2  3  2  0  0  0  0
  2 33  1  0  0  0  0
  3  4  1  0  0  0  0
  3  8  1  0  0  0  0
  4  5  2  0  0  0  0
  4 34  1  0  0  0  0
  5  6  1  0  0  0  0
  5  7  1  0  0  0  0
  6 35  1  0  0  0  0
  8  9  1  0  0  0  0
  8 36  1  0  0  0  0
  8 37  1  0  0  0  0
  9 10  1  0  0  0  0
  9 38  1  0  0  0  0
 10 11  2  0  0  0  0
 10 12  1  0  0  0  0
 12 16  1  0  0  0  0
 12 13  2  0  0  0  0
 13 14  1  0  0  0  0
 13 39  1  0  0  0  0
 14 30  2  0  0  0  0
 14 15  1  0  0  0  0
 15 16  1  0  0  0  0
 15 27  2  0  0  0  0
 16 17  1  0  0  0  0
 17 18  1  0  0  0  0
 17 40  1  0  0  0  0
 17 41  1  0  0  0  0
 18 23  2  0  0  0  0
 18 19  1  0  0  0  0
 19 20  2  0  0  0  0
 19 42  1  0  0  0  0
 20 21  1  0  0  0  0
 20 43  1  0  0  0  0
 21 22  2  0  0  0  0
 21 44  1  0  0  0  0
 22 23  1  0  0  0  0
 22 24  1  0  0  0  0
 23 45  1  0  0  0  0
 24 26  1  0  0  0  0
 24 52  2  0  0  0  0
 25 52  1  0  0  0  0
 26 46  1  0  0  0  0
 26 47  1  0  0  0  0
 27 28  1  0  0  0  0
 27 48  1  0  0  0  0
 28 29  2  0  0  0  0
 28 49  1  0  0  0  0
 29 30  1  0  0  0  0
 29 50  1  0  0  0  0
 30 31  1  0  0  0  0
 31 51  1  0  0  0  0
 52 53  1  0  0  0  0
M  CHG  1  52   1
M  END
$$$$
ZINC04631134
  -OEChem-08230709403D

 53 56  0     0  0  0  0  0  0999 V2000
    8.5585    0.6137   -4.1499 C   0  0  0  0  0  0  0  0  0  0  0  0
    7.5965    1.0093   -3.2389 C   0  0  0  0  0  0  0  0  0  0  0  0
    7.8315    2.0910   -2.4113 C   0  0  0  0  0  0  0  0  0  0  0  0
    9.0330    2.7708   -2.4862 C   0  0  0  0  0  0  0  0  0  0  0  0
    9.9974    2.3719   -3.3932 C   0  0  0  0  0  0  0  0  0  0  0  0
    9.7597    1.2929   -4.2253 C   0  0  0  0  0  0  0  0  0  0  0  0
   11.8186    3.4012   -3.5066 I   0  0  0  0  0  0  0  0  0  0  0  0
    6.7803    2.5258   -1.4228 C   0  0  0  0  0  0  0  0  0  0  0  0
    5.9004    3.5155   -2.0492 N   0  0  0  0  0  0  0  0  0  0  0  0
    4.8800    4.0491   -1.3489 C   0  0  0  0  0  0  0  0  0  0  0  0
    4.6350    3.6454   -0.2275 O   0  0  0  0  0  0  0  0  0  0  0  0
    4.0634    5.1181   -1.9394 C   0  0  0  0  0  0  0  0  0  0  0  0
    4.3001    5.7228   -3.1337 C   0  0  0  0  0  0  0  0  0  0  0  0
    3.2928    6.6956   -3.3315 C   0  0  0  0  0  0  0  0  0  0  0  0
    2.4425    6.6431   -2.2100 C   0  0  0  0  0  0  0  0  0  0  0  0
    2.9294    5.6685   -1.3706 N   0  0  0  0  0  0  0  0  0  0  0  0
    2.3465    5.2816   -0.0835 C   0  0  0  0  0  0  0  0  0  0  0  0
    1.2895    4.2309   -0.3063 C   0  0  0  0  0  0  0  0  0  0  0  0
    1.6353    2.8912   -0.2993 C   0  0  0  0  0  0  0  0  0  0  0  0
    0.6707    1.9210   -0.5025 C   0  0  0  0  0  0  0  0  0  0  0  0
   -0.6428    2.2848   -0.7199 C   0  0  0  0  0  0  0  0  0  0  0  0
   -0.9985    3.6331   -0.7225 C   0  0  0  0  0  0  0  0  0  0  0  0
   -0.0213    4.6067   -0.5165 C   0  0  0  0  0  0  0  0  0  0  0  0
   -2.4072    4.0298   -0.9486 C   0  0  0  0  0  0  0  0  0  0  0  0
   -3.6318    5.6495   -1.0950 H   0  0  0  0  0  0  0  0  0  0  0  0
   -3.3703    3.0656   -1.1519 N   0  0  0  0  0  0  0  0  0  0  0  0
    1.3505    7.5027   -2.1354 C   0  0  0  0  0  0  0  0  0  0  0  0
    1.1054    8.3975   -3.1538 C   0  0  0  0  0  0  0  0  0  0  0  0
    1.9381    8.4558   -4.2620 C   0  0  0  0  0  0  0  0  0  0  0  0
    3.0286    7.6146   -4.3616 C   0  0  0  0  0  0  0  0  0  0  0  0
    3.8407    7.6749   -5.4481 O   0  0  0  0  0  0  0  0  0  0  0  0
    8.3729   -0.2288   -4.7996 H   0  0  0  0  0  0  0  0  0  0  0  0
    6.6595    0.4757   -3.1772 H   0  0  0  0  0  0  0  0  0  0  0  0
    9.2181    3.6135   -1.8366 H   0  0  0  0  0  0  0  0  0  0  0  0
   10.5130    0.9809   -4.9336 H   0  0  0  0  0  0  0  0  0  0  0  0
    7.2622    2.9682   -0.5510 H   0  0  0  0  0  0  0  0  0  0  0  0
    6.1928    1.6613   -1.1136 H   0  0  0  0  0  0  0  0  0  0  0  0
    6.0522    3.7868   -2.9680 H   0  0  0  0  0  0  0  0  0  0  0  0
    5.1140    5.5027   -3.8085 H   0  0  0  0  0  0  0  0  0  0  0  0
    1.8968    6.1549    0.3889 H   0  0  0  0  0  0  0  0  0  0  0  0
    3.1271    4.8804    0.5629 H   0  0  0  0  0  0  0  0  0  0  0  0
    2.6626    2.6019   -0.1340 H   0  0  0  0  0  0  0  0  0  0  0  0
    0.9466    0.8769   -0.4956 H   0  0  0  0  0  0  0  0  0  0  0  0
   -1.3944    1.5264   -0.8829 H   0  0  0  0  0  0  0  0  0  0  0  0
   -0.2902    5.6527   -0.5217 H   0  0  0  0  0  0  0  0  0  0  0  0
   -3.1256    2.1269   -1.1468 H   0  0  0  0  0  0  0  0  0  0  0  0
   -4.2931    3.3255   -1.3000 H   0  0  0  0  0  0  0  0  0  0  0  0
    0.6943    7.4678   -1.2784 H   0  0  0  0  0  0  0  0  0  0  0  0
    0.2558    9.0612   -3.0886 H   0  0  0  0  0  0  0  0  0  0  0  0
    1.7322    9.1634   -5.0514 H   0  0  0  0  0  0  0  0  0  0  0  0
    3.5741    7.0905   -6.1710 H   0  0  0  0  0  0  0  0  0  0  0  0
   -2.6761    5.3262   -0.9437 N   0  3  0  0  0  0  0  0  0  0  0  0
   -1.9228    6.0062   -0.7877 H   0  0  0  0  0  0  0  0  0  0  0  0
  1  6  2  0  0  0  0
  1  2  1  0  0  0  0
  1 32  1  0  0  0  0
  2  3  2  0  0  0  0
  2 33  1  0  0  0  0
  3  4  1  0  0  0  0
  3  8  1  0  0  0  0
  4  5  2  0  0  0  0
  4 34  1  0  0  0  0
  5  6  1  0  0  0  0
  5  7  1  0  0  0  0
  6 35  1  0  0  0  0
  8  9  1  0  0  0  0
  8 36  1  0  0  0  0
  8 37  1  0  0  0  0
  9 10  1  0  0  0  0
  9 38  1  0  0  0  0
 10 11  2  0  0  0  0
 10 12  1  0  0  0  0
 12 16  1  0  0  0  0
 12 13  2  0  0  0  0
 13 14  1  0  0  0  0
 13 39  1  0  0  0  0
 14 30  2  0  0  0  0
 14 15  1  0  0  0  0
 15 16  1  0  0  0  0
 15 27  2  0  0  0  0
 16 17  1  0  0  0  0
 17 18  1  0  0  0  0
 17 40  1  0  0  0  0
 17 41  1  0  0  0  0
 18 23  2  0  0  0  0
 18 19  1  0  0  0  0
 19 20  2  0  0  0  0
 19 42  1  0  0  0  0
 20 21  1  0  0  0  0
 20 43  1  0  0  0  0
 21 22  2  0  0  0  0
 21 44  1  0  0  0  0
 22 23  1  0  0  0  0
 22 24  1  0  0  0  0
 23 45  1  0  0  0  0
 24 26  1  0  0  0  0
 24 52  2  0  0  0  0
 25 52  1  0  0  0  0
 26 46  1  0  0  0  0
 26 47  1  0  0  0  0
 27 28  1  0  0  0  0
 27 48  1  0  0  0  0
 28 29  2  0  0  0  0
 28 49  1  0  0  0  0
 29 30  1  0  0  0  0
 29 50  1  0  0  0  0
 30 31  1  0  0  0  0
 31 51  1  0  0  0  0
 52 53  1  0  0  0  0
M  CHG  1  52   1
M  END
$$$$
ZINC04631135
  -OEChem-08230709403D

 59 62  0     0  0  0  0  0  0999 V2000
    8.7482    0.6981   -4.3365 C   0  0  0  0  0  0  0  0  0  0  0  0
    7.7904    1.0500   -3.4028 C   0  0  0  0  0  0  0  0  0  0  0  0
    8.0240    2.0955   -2.5288 C   0  0  0  0  0  0  0  0  0  0  0  0
    9.2198    2.7854   -2.5788 C   0  0  0  0  0  0  0  0  0  0  0  0
   10.1854    2.4311   -3.5114 C   0  0  0  0  0  0  0  0  0  0  0  0
    9.9456    1.3838   -4.3915 C   0  0  0  0  0  0  0  0  0  0  0  0
   11.3981    3.1277   -3.5642 N   0  0  0  0  0  0  0  0  0  0  0  0
   12.0102    3.3260   -4.7485 C   0  0  0  0  0  0  0  0  0  0  0  0
   11.4648    2.9833   -5.7798 O   0  0  0  0  0  0  0  0  0  0  0  0
   13.2269    3.9044   -4.7896 N   0  0  0  0  0  0  0  0  0  0  0  0
    6.9755    2.4790   -1.5165 C   0  0  0  0  0  0  0  0  0  0  0  0
    6.0864    3.4902   -2.0936 N   0  0  0  0  0  0  0  0  0  0  0  0
    5.0665    3.9855   -1.3648 C   0  0  0  0  0  0  0  0  0  0  0  0
    4.8281    3.5285   -0.2627 O   0  0  0  0  0  0  0  0  0  0  0  0
    4.2426    5.0772   -1.9013 C   0  0  0  0  0  0  0  0  0  0  0  0
    4.3941    5.6520   -3.1239 C   0  0  0  0  0  0  0  0  0  0  0  0
    3.4121    6.6618   -3.2503 C   0  0  0  0  0  0  0  0  0  0  0  0
    2.6649    6.6626   -2.0565 C   0  0  0  0  0  0  0  0  0  0  0  0
    3.1869    5.6827   -1.2446 N   0  0  0  0  0  0  0  0  0  0  0  0
    2.7077    5.3412    0.0970 C   0  0  0  0  0  0  0  0  0  0  0  0
    1.5510    4.3815   -0.0120 C   0  0  0  0  0  0  0  0  0  0  0  0
    1.7873    3.0197   -0.0751 C   0  0  0  0  0  0  0  0  0  0  0  0
    0.7308    2.1325   -0.1747 C   0  0  0  0  0  0  0  0  0  0  0  0
   -0.5663    2.6020   -0.2180 C   0  0  0  0  0  0  0  0  0  0  0  0
   -0.8112    3.9730   -0.1490 C   0  0  0  0  0  0  0  0  0  0  0  0
    0.2584    4.8625   -0.0482 C   0  0  0  0  0  0  0  0  0  0  0  0
   -2.2010    4.4828   -0.1883 C   0  0  0  0  0  0  0  0  0  0  0  0
   -3.3014    6.1951   -0.1475 H   0  0  0  0  0  0  0  0  0  0  0  0
   -3.2555    3.6016   -0.2881 N   0  0  0  0  0  0  0  0  0  0  0  0
    1.6188    7.5671   -1.9017 C   0  0  0  0  0  0  0  0  0  0  0  0
    1.3181    8.4544   -2.9118 C   0  0  0  0  0  0  0  0  0  0  0  0
    2.0491    8.4603   -4.0910 C   0  0  0  0  0  0  0  0  0  0  0  0
    3.0925    7.5739   -4.2708 C   0  0  0  0  0  0  0  0  0  0  0  0
    3.8048    7.5829   -5.4266 O   0  0  0  0  0  0  0  0  0  0  0  0
    8.5610   -0.1164   -5.0205 H   0  0  0  0  0  0  0  0  0  0  0  0
    6.8563    0.5096   -3.3590 H   0  0  0  0  0  0  0  0  0  0  0  0
    9.4032    3.5995   -1.8933 H   0  0  0  0  0  0  0  0  0  0  0  0
   10.6949    1.1057   -5.1178 H   0  0  0  0  0  0  0  0  0  0  0  0
   11.7980    3.4677   -2.7486 H   0  0  0  0  0  0  0  0  0  0  0  0
   13.6619    4.1779   -3.9670 H   0  0  0  0  0  0  0  0  0  0  0  0
   13.6674    4.0472   -5.6420 H   0  0  0  0  0  0  0  0  0  0  0  0
    7.4595    2.8850   -0.6283 H   0  0  0  0  0  0  0  0  0  0  0  0
    6.3948    1.5979   -1.2433 H   0  0  0  0  0  0  0  0  0  0  0  0
    6.2316    3.8032   -3.0000 H   0  0  0  0  0  0  0  0  0  0  0  0
    5.1347    5.3878   -3.8643 H   0  0  0  0  0  0  0  0  0  0  0  0
    2.3814    6.2471    0.6078 H   0  0  0  0  0  0  0  0  0  0  0  0
    3.5142    4.8753    0.6632 H   0  0  0  0  0  0  0  0  0  0  0  0
    2.8008    2.6478   -0.0460 H   0  0  0  0  0  0  0  0  0  0  0  0
    0.9215    1.0706   -0.2233 H   0  0  0  0  0  0  0  0  0  0  0  0
   -1.3902    1.9086   -0.3003 H   0  0  0  0  0  0  0  0  0  0  0  0
    0.0751    5.9257    0.0012 H   0  0  0  0  0  0  0  0  0  0  0  0
   -3.0875    2.6473   -0.3324 H   0  0  0  0  0  0  0  0  0  0  0  0
   -4.1658    3.9356   -0.3138 H   0  0  0  0  0  0  0  0  0  0  0  0
    1.0416    7.5732   -0.9889 H   0  0  0  0  0  0  0  0  0  0  0  0
    0.5045    9.1531   -2.7843 H   0  0  0  0  0  0  0  0  0  0  0  0
    1.8009    9.1628   -4.8728 H   0  0  0  0  0  0  0  0  0  0  0  0
    3.4515    6.9982   -6.1110 H   0  0  0  0  0  0  0  0  0  0  0  0
   -2.3631    5.7953   -0.1239 N   0  3  0  0  0  0  0  0  0  0  0  0
   -1.5445    6.4107   -0.0504 H   0  0  0  0  0  0  0  0  0  0  0  0
  1  6  2  0  0  0  0
  1  2  1  0  0  0  0
  1 35  1  0  0  0  0
  2  3  2  0  0  0  0
  2 36  1  0  0  0  0
  3  4  1  0  0  0  0
  3 11  1  0  0  0  0
  4  5  2  0  0  0  0
  4 37  1  0  0  0  0
  5  6  1  0  0  0  0
  5  7  1  0  0  0  0
  6 38  1  0  0  0  0
  7  8  1  0  0  0  0
  7 39  1  0  0  0  0
  8  9  2  0  0  0  0
  8 10  1  0  0  0  0
 10 40  1  0  0  0  0
 10 41  1  0  0  0  0
 11 12  1  0  0  0  0
 11 42  1  0  0  0  0
 11 43  1  0  0  0  0
 12 13  1  0  0  0  0
 12 44  1  0  0  0  0
 13 14  2  0  0  0  0
 13 15  1  0  0  0  0
 15 19  1  0  0  0  0
 15 16  2  0  0  0  0
 16 17  1  0  0  0  0
 16 45  1  0  0  0  0
 17 33  2  0  0  0  0
 17 18  1  0  0  0  0
 18 19  1  0  0  0  0
 18 30  2  0  0  0  0
 19 20  1  0  0  0  0
 20 21  1  0  0  0  0
 20 46  1  0  0  0  0
 20 47  1  0  0  0  0
 21 26  2  0  0  0  0
 21 22  1  0  0  0  0
 22 23  2  0  0  0  0
 22 48  1  0  0  0  0
 23 24  1  0  0  0  0
 23 49  1  0  0  0  0
 24 25  2  0  0  0  0
 24 50  1  0  0  0  0
 25 26  1  0  0  0  0
 25 27  1  0  0  0  0
 26 51  1  0  0  0  0
 27 29  1  0  0  0  0
 27 58  2  0  0  0  0
 28 58  1  0  0  0  0
 29 52  1  0  0  0  0
 29 53  1  0  0  0  0
 30 31  1  0  0  0  0
 30 54  1  0  0  0  0
 31 32  2  0  0  0  0
 31 55  1  0  0  0  0
 32 33  1  0  0  0  0
 32 56  1  0  0  0  0
 33 34  1  0  0  0  0
 34 57  1  0  0  0  0
 58 59  1  0  0  0  0
M  CHG  1  58   1
M  END
$$$$
ZINC04631136
  -OEChem-08230709403D

 67 73  0     0  0  0  0  0  0999 V2000
    1.0555   -1.6808   -0.2045 C   0  0  0  0  0  0  0  0  0  0  0  0
    2.4729   -1.3228   -0.4029 C   0  0  0  0  0  0  0  0  0  0  0  0
    2.7809   -0.1194   -0.8225 C   0  0  0  0  0  0  0  0  0  0  0  0
    4.1739    0.3076   -1.0419 C   0  0  0  0  0  0  0  0  0  0  0  0
    4.4270    1.5276   -1.4644 C   0  0  0  0  0  0  0  0  0  0  0  0
    3.3633    2.5064   -1.7331 C   0  0  0  0  0  0  0  0  0  0  0  0
    3.7066    3.8624   -2.2058 C   0  0  0  0  0  0  0  0  0  0  0  0
    2.7548    4.7392   -2.4448 C   0  0  0  0  0  0  0  0  0  0  0  0
    1.3376    4.3815   -2.2455 C   0  0  0  0  0  0  0  0  0  0  0  0
    1.0297    3.1777   -1.8269 C   0  0  0  0  0  0  0  0  0  0  0  0
    2.1002    2.1991   -1.5601 C   0  0  0  0  0  0  0  0  0  0  0  0
    1.7103    0.8589   -1.0904 C   0  0  0  0  0  0  0  0  0  0  0  0
    0.4472    0.5517   -0.9171 C   0  0  0  0  0  0  0  0  0  0  0  0
    0.1039   -0.8043   -0.4445 C   0  0  0  0  0  0  0  0  0  0  0  0
   -0.6164    1.5311   -1.1842 C   0  0  0  0  0  0  0  0  0  0  0  0
   -0.3634    2.7514   -1.6058 C   0  0  0  0  0  0  0  0  0  0  0  0
   -1.4966    3.7095   -1.8679 C   0  0  0  0  0  0  0  0  0  0  0  0
   -1.7727    3.7575   -3.3059 N   0  0  0  0  0  0  0  0  0  0  0  0
   -2.7529    4.5533   -3.7776 C   0  0  0  0  0  0  0  0  0  0  0  0
   -3.4761    5.1516   -3.0035 O   0  0  0  0  0  0  0  0  0  0  0  0
   -2.9482    4.6980   -5.2265 C   0  0  0  0  0  0  0  0  0  0  0  0
   -3.9792    5.3544   -5.8216 C   0  0  0  0  0  0  0  0  0  0  0  0
   -3.7965    5.2654   -7.2212 C   0  0  0  0  0  0  0  0  0  0  0  0
   -2.6204    4.5214   -7.4374 C   0  0  0  0  0  0  0  0  0  0  0  0
   -2.1159    4.1831   -6.2035 N   0  0  0  0  0  0  0  0  0  0  0  0
   -0.8977    3.4053   -5.9637 C   0  0  0  0  0  0  0  0  0  0  0  0
   -1.2315    1.9358   -5.9658 C   0  0  0  0  0  0  0  0  0  0  0  0
   -1.3680    1.2585   -4.7673 C   0  0  0  0  0  0  0  0  0  0  0  0
   -1.6783   -0.0860   -4.7627 C   0  0  0  0  0  0  0  0  0  0  0  0
   -1.8443   -0.7645   -5.9699 C   0  0  0  0  0  0  0  0  0  0  0  0
   -1.7003   -0.0774   -7.1750 C   0  0  0  0  0  0  0  0  0  0  0  0
   -1.3945    1.2681   -7.1665 C   0  0  0  0  0  0  0  0  0  0  0  0
   -2.1728   -2.2084   -5.9721 C   0  0  0  0  0  0  0  0  0  0  0  0
   -2.5438   -3.7847   -7.2057 H   0  0  0  0  0  0  0  0  0  0  0  0
   -2.3146   -2.8844   -4.7798 N   0  0  0  0  0  0  0  0  0  0  0  0
   -2.1966    4.2698   -8.7387 C   0  0  0  0  0  0  0  0  0  0  0  0
   -2.9247    4.7470   -9.8065 C   0  0  0  0  0  0  0  0  0  0  0  0
   -4.0842    5.4812   -9.6023 C   0  0  0  0  0  0  0  0  0  0  0  0
   -4.5276    5.7451   -8.3216 C   0  0  0  0  0  0  0  0  0  0  0  0
   -5.6627    6.4640   -8.1264 O   0  0  0  0  0  0  0  0  0  0  0  0
    0.7967   -2.6707    0.1411 H   0  0  0  0  0  0  0  0  0  0  0  0
    3.2503   -2.0456   -0.2038 H   0  0  0  0  0  0  0  0  0  0  0  0
    4.9860   -0.3798   -0.8561 H   0  0  0  0  0  0  0  0  0  0  0  0
    5.4547    1.8211   -1.6195 H   0  0  0  0  0  0  0  0  0  0  0  0
    4.7407    4.1353   -2.3552 H   0  0  0  0  0  0  0  0  0  0  0  0
    3.0137    5.7295   -2.7894 H   0  0  0  0  0  0  0  0  0  0  0  0
    0.5603    5.1051   -2.4424 H   0  0  0  0  0  0  0  0  0  0  0  0
   -0.9304   -1.0772   -0.2955 H   0  0  0  0  0  0  0  0  0  0  0  0
   -1.6441    1.2378   -1.0281 H   0  0  0  0  0  0  0  0  0  0  0  0
   -2.3874    3.3724   -1.3379 H   0  0  0  0  0  0  0  0  0  0  0  0
   -1.2199    4.7039   -1.5176 H   0  0  0  0  0  0  0  0  0  0  0  0
   -1.2502    3.2167   -3.9184 H   0  0  0  0  0  0  0  0  0  0  0  0
   -4.7910    5.8561   -5.3160 H   0  0  0  0  0  0  0  0  0  0  0  0
   -0.1724    3.6143   -6.7501 H   0  0  0  0  0  0  0  0  0  0  0  0
   -0.4752    3.6805   -4.9973 H   0  0  0  0  0  0  0  0  0  0  0  0
   -1.2355    1.7842   -3.8333 H   0  0  0  0  0  0  0  0  0  0  0  0
   -1.7889   -0.6126   -3.8264 H   0  0  0  0  0  0  0  0  0  0  0  0
   -1.8280   -0.5974   -8.1128 H   0  0  0  0  0  0  0  0  0  0  0  0
   -1.2827    1.8012   -8.0991 H   0  0  0  0  0  0  0  0  0  0  0  0
   -2.1991   -2.4146   -3.9391 H   0  0  0  0  0  0  0  0  0  0  0  0
   -2.5296   -3.8303   -4.7812 H   0  0  0  0  0  0  0  0  0  0  0  0
   -1.2956    3.6999   -8.9119 H   0  0  0  0  0  0  0  0  0  0  0  0
   -2.5893    4.5475  -10.8135 H   0  0  0  0  0  0  0  0  0  0  0  0
   -4.6434    5.8482  -10.4502 H   0  0  0  0  0  0  0  0  0  0  0  0
   -5.5178    7.4178   -8.0598 H   0  0  0  0  0  0  0  0  0  0  0  0
   -2.3173   -2.7915   -7.1519 N   0  3  0  0  0  0  0  0  0  0  0  0
   -2.2014   -2.2441   -8.0128 H   0  0  0  0  0  0  0  0  0  0  0  0
  1 14  2  0  0  0  0
  1  2  1  0  0  0  0
  1 41  1  0  0  0  0
  2  3  2  0  0  0  0
  2 42  1  0  0  0  0
  3 12  1  0  0  0  0
  3  4  1  0  0  0  0
  4  5  2  0  0  0  0
  4 43  1  0  0  0  0
  5  6  1  0  0  0  0
  5 44  1  0  0  0  0
  6 11  2  0  0  0  0
  6  7  1  0  0  0  0
  7  8  2  0  0  0  0
  7 45  1  0  0  0  0
  8  9  1  0  0  0  0
  8 46  1  0  0  0  0
  9 10  2  0  0  0  0
  9 47  1  0  0  0  0
 10 16  1  0  0  0  0
 10 11  1  0  0  0  0
 11 12  1  0  0  0  0
 12 13  2  0  0  0  0
 13 14  1  0  0  0  0
 13 15  1  0  0  0  0
 14 48  1  0  0  0  0
 15 16  2  0  0  0  0
 15 49  1  0  0  0  0
 16 17  1  0  0  0  0
 17 18  1  0  0  0  0
 17 50  1  0  0  0  0
 17 51  1  0  0  0  0
 18 19  1  0  0  0  0
 18 52  1  0  0  0  0
 19 20  2  0  0  0  0
 19 21  1  0  0  0  0
 21 25  1  0  0  0  0
 21 22  2  0  0  0  0
 22 23  1  0  0  0  0
 22 53  1  0  0  0  0
 23 39  2  0  0  0  0
 23 24  1  0  0  0  0
 24 25  1  0  0  0  0
 24 36  2  0  0  0  0
 25 26  1  0  0  0  0
 26 27  1  0  0  0  0
 26 54  1  0  0  0  0
 26 55  1  0  0  0  0
 27 32  2  0  0  0  0
 27 28  1  0  0  0  0
 28 29  2  0  0  0  0
 28 56  1  0  0  0  0
 29 30  1  0  0  0  0
 29 57  1  0  0  0  0
 30 31  2  0  0  0  0
 30 33  1  0  0  0  0
 31 32  1  0  0  0  0
 31 58  1  0  0  0  0
 32 59  1  0  0  0  0
 33 35  1  0  0  0  0
 33 66  2  0  0  0  0
 34 66  1  0  0  0  0
 35 60  1  0  0  0  0
 35 61  1  0  0  0  0
 36 37  1  0  0  0  0
 36 62  1  0  0  0  0
 37 38  2  0  0  0  0
 37 63  1  0  0  0  0
 38 39  1  0  0  0  0
 38 64  1  0  0  0  0
 39 40  1  0  0  0  0
 40 65  1  0  0  0  0
 66 67  1  0  0  0  0
M  CHG  1  66   1
M  END
$$$$
ZINC04631137
  -OEChem-08230709403D

 53 56  0     0  0  0  0  0  0999 V2000
    9.2549    0.6349   -3.8572 C   0  0  0  0  0  0  0  0  0  0  0  0
   10.3901    1.4242   -3.8586 C   0  0  0  0  0  0  0  0  0  0  0  0
   10.4761    2.5129   -3.0118 C   0  0  0  0  0  0  0  0  0  0  0  0
    9.4257    2.8131   -2.1624 C   0  0  0  0  0  0  0  0  0  0  0  0
    8.2901    2.0232   -2.1617 C   0  0  0  0  0  0  0  0  0  0  0  0
    8.2074    0.9315   -3.0056 C   0  0  0  0  0  0  0  0  0  0  0  0
    7.1460    2.3492   -1.2367 C   0  0  0  0  0  0  0  0  0  0  0  0
    6.3780    3.4694   -1.7857 N   0  0  0  0  0  0  0  0  0  0  0  0
    5.3633    4.0026   -1.0767 C   0  0  0  0  0  0  0  0  0  0  0  0
    5.0248    3.4960   -0.0238 O   0  0  0  0  0  0  0  0  0  0  0  0
    4.6661    5.1958   -1.5755 C   0  0  0  0  0  0  0  0  0  0  0  0
    4.9458    5.8448   -2.7367 C   0  0  0  0  0  0  0  0  0  0  0  0
    4.0566    6.9392   -2.8439 C   0  0  0  0  0  0  0  0  0  0  0  0
    3.2314    6.9138   -1.7029 C   0  0  0  0  0  0  0  0  0  0  0  0
    3.6182    5.8368   -0.9402 N   0  0  0  0  0  0  0  0  0  0  0  0
    3.0228    5.4380    0.3376 C   0  0  0  0  0  0  0  0  0  0  0  0
    1.8122    4.5780    0.0809 C   0  0  0  0  0  0  0  0  0  0  0  0
    1.9561    3.2098   -0.0666 C   0  0  0  0  0  0  0  0  0  0  0  0
    0.8497    2.4138   -0.3020 C   0  0  0  0  0  0  0  0  0  0  0  0
   -0.4046    2.9814   -0.3970 C   0  0  0  0  0  0  0  0  0  0  0  0
   -0.5568    4.3591   -0.2435 C   0  0  0  0  0  0  0  0  0  0  0  0
    0.5627    5.1564   -0.0059 C   0  0  0  0  0  0  0  0  0  0  0  0
   -1.9008    4.9736   -0.3377 C   0  0  0  0  0  0  0  0  0  0  0  0
   -2.8779    6.7571   -0.2440 H   0  0  0  0  0  0  0  0  0  0  0  0
   -3.0047    4.1833   -0.5725 N   0  0  0  0  0  0  0  0  0  0  0  0
    2.2509    7.8883   -1.5427 C   0  0  0  0  0  0  0  0  0  0  0  0
    2.0906    8.8698   -2.4961 C   0  0  0  0  0  0  0  0  0  0  0  0
    2.8992    8.9020   -3.6231 C   0  0  0  0  0  0  0  0  0  0  0  0
    3.8800    7.9477   -3.8070 C   0  0  0  0  0  0  0  0  0  0  0  0
    4.6687    7.9829   -4.9116 O   0  0  0  0  0  0  0  0  0  0  0  0
    9.5334    4.1801   -1.0977 Cl  0  0  0  0  0  0  0  0  0  0  0  0
    9.1884   -0.2161   -4.5187 H   0  0  0  0  0  0  0  0  0  0  0  0
   11.2098    1.1898   -4.5216 H   0  0  0  0  0  0  0  0  0  0  0  0
   11.3631    3.1290   -3.0124 H   0  0  0  0  0  0  0  0  0  0  0  0
    7.3226    0.3121   -3.0019 H   0  0  0  0  0  0  0  0  0  0  0  0
    7.5375    2.6227   -0.2569 H   0  0  0  0  0  0  0  0  0  0  0  0
    6.4983    1.4780   -1.1389 H   0  0  0  0  0  0  0  0  0  0  0  0
    6.5998    3.8275   -2.6596 H   0  0  0  0  0  0  0  0  0  0  0  0
    5.7125    5.5754   -3.4480 H   0  0  0  0  0  0  0  0  0  0  0  0
    2.7255    6.3274    0.8932 H   0  0  0  0  0  0  0  0  0  0  0  0
    3.7527    4.8740    0.9183 H   0  0  0  0  0  0  0  0  0  0  0  0
    2.9362    2.7615    0.0025 H   0  0  0  0  0  0  0  0  0  0  0  0
    0.9681    1.3464   -0.4160 H   0  0  0  0  0  0  0  0  0  0  0  0
   -1.2673    2.3595   -0.5852 H   0  0  0  0  0  0  0  0  0  0  0  0
    0.4517    6.2244    0.1095 H   0  0  0  0  0  0  0  0  0  0  0  0
   -2.9016    3.2245   -0.6760 H   0  0  0  0  0  0  0  0  0  0  0  0
   -3.8851    4.5860   -0.6343 H   0  0  0  0  0  0  0  0  0  0  0  0
    1.6146    7.8749   -0.6702 H   0  0  0  0  0  0  0  0  0  0  0  0
    1.3273    9.6224   -2.3647 H   0  0  0  0  0  0  0  0  0  0  0  0
    2.7609    9.6786   -4.3609 H   0  0  0  0  0  0  0  0  0  0  0  0
    4.3186    7.4817   -5.6609 H   0  0  0  0  0  0  0  0  0  0  0  0
   -1.9744    6.2871   -0.1875 N   0  3  0  0  0  0  0  0  0  0  0  0
   -1.1219    6.8325   -0.0142 H   0  0  0  0  0  0  0  0  0  0  0  0
  1  6  2  0  0  0  0
  1  2  1  0  0  0  0
  1 32  1  0  0  0  0
  2  3  2  0  0  0  0
  2 33  1  0  0  0  0
  3  4  1  0  0  0  0
  3 34  1  0  0  0  0
  4  5  2  0  0  0  0
  4 31  1  0  0  0  0
  5  6  1  0  0  0  0
  5  7  1  0  0  0  0
  6 35  1  0  0  0  0
  7  8  1  0  0  0  0
  7 36  1  0  0  0  0
  7 37  1  0  0  0  0
  8  9  1  0  0  0  0
  8 38  1  0  0  0  0
  9 10  2  0  0  0  0
  9 11  1  0  0  0  0
 11 15  1  0  0  0  0
 11 12  2  0  0  0  0
 12 13  1  0  0  0  0
 12 39  1  0  0  0  0
 13 29  2  0  0  0  0
 13 14  1  0  0  0  0
 14 15  1  0  0  0  0
 14 26  2  0  0  0  0
 15 16  1  0  0  0  0
 16 17  1  0  0  0  0
 16 40  1  0  0  0  0
 16 41  1  0  0  0  0
 17 22  2  0  0  0  0
 17 18  1  0  0  0  0
 18 19  2  0  0  0  0
 18 42  1  0  0  0  0
 19 20  1  0  0  0  0
 19 43  1  0  0  0  0
 20 21  2  0  0  0  0
 20 44  1  0  0  0  0
 21 22  1  0  0  0  0
 21 23  1  0  0  0  0
 22 45  1  0  0  0  0
 23 25  1  0  0  0  0
 23 52  2  0  0  0  0
 24 52  1  0  0  0  0
 25 46  1  0  0  0  0
 25 47  1  0  0  0  0
 26 27  1  0  0  0  0
 26 48  1  0  0  0  0
 27 28  2  0  0  0  0
 27 49  1  0  0  0  0
 28 29  1  0  0  0  0
 28 50  1  0  0  0  0
 29 30  1  0  0  0  0
 30 51  1  0  0  0  0
 52 53  1  0  0  0  0
M  CHG  1  52   1
M  END
$$$$
ZINC04631140
  -OEChem-08230709403D

 53 56  0     0  0  0  0  0  0999 V2000
    9.7601    1.2934   -4.2245 C   0  0  0  0  0  0  0  0  0  0  0  0
    9.9973    2.3717   -3.3927 C   0  0  0  0  0  0  0  0  0  0  0  0
    9.0329    2.7707   -2.4862 C   0  0  0  0  0  0  0  0  0  0  0  0
    7.8315    2.0910   -2.4113 C   0  0  0  0  0  0  0  0  0  0  0  0
    7.5966    1.0092   -3.2391 C   0  0  0  0  0  0  0  0  0  0  0  0
    8.5586    0.6138   -4.1495 C   0  0  0  0  0  0  0  0  0  0  0  0
    6.7803    2.5258   -1.4228 C   0  0  0  0  0  0  0  0  0  0  0  0
    5.9004    3.5155   -2.0492 N   0  0  0  0  0  0  0  0  0  0  0  0
    4.8800    4.0491   -1.3489 C   0  0  0  0  0  0  0  0  0  0  0  0
    4.6350    3.6454   -0.2275 O   0  0  0  0  0  0  0  0  0  0  0  0
    4.0634    5.1181   -1.9394 C   0  0  0  0  0  0  0  0  0  0  0  0
    4.3001    5.7228   -3.1337 C   0  0  0  0  0  0  0  0  0  0  0  0
    3.2928    6.6956   -3.3315 C   0  0  0  0  0  0  0  0  0  0  0  0
    2.4425    6.6431   -2.2100 C   0  0  0  0  0  0  0  0  0  0  0  0
    2.9294    5.6685   -1.3706 N   0  0  0  0  0  0  0  0  0  0  0  0
    2.3465    5.2816   -0.0835 C   0  0  0  0  0  0  0  0  0  0  0  0
    1.2895    4.2309   -0.3063 C   0  0  0  0  0  0  0  0  0  0  0  0
    1.6353    2.8912   -0.2993 C   0  0  0  0  0  0  0  0  0  0  0  0
    0.6707    1.9210   -0.5025 C   0  0  0  0  0  0  0  0  0  0  0  0
   -0.6428    2.2848   -0.7199 C   0  0  0  0  0  0  0  0  0  0  0  0
   -0.9985    3.6331   -0.7225 C   0  0  0  0  0  0  0  0  0  0  0  0
   -0.0213    4.6067   -0.5165 C   0  0  0  0  0  0  0  0  0  0  0  0
   -2.4072    4.0298   -0.9486 C   0  0  0  0  0  0  0  0  0  0  0  0
   -3.6318    5.6495   -1.0950 H   0  0  0  0  0  0  0  0  0  0  0  0
   -3.3703    3.0656   -1.1519 N   0  0  0  0  0  0  0  0  0  0  0  0
    1.3505    7.5027   -2.1354 C   0  0  0  0  0  0  0  0  0  0  0  0
    1.1054    8.3975   -3.1538 C   0  0  0  0  0  0  0  0  0  0  0  0
    1.9381    8.4558   -4.2620 C   0  0  0  0  0  0  0  0  0  0  0  0
    3.0286    7.6146   -4.3616 C   0  0  0  0  0  0  0  0  0  0  0  0
    3.8407    7.6749   -5.4481 O   0  0  0  0  0  0  0  0  0  0  0  0
   10.5133    0.9822   -4.9331 H   0  0  0  0  0  0  0  0  0  0  0  0
   10.9359    2.9026   -3.4513 H   0  0  0  0  0  0  0  0  0  0  0  0
    9.2182    3.6131   -1.8364 H   0  0  0  0  0  0  0  0  0  0  0  0
    6.6596    0.4755   -3.1775 H   0  0  0  0  0  0  0  0  0  0  0  0
    8.3732   -0.2285   -4.7996 H   0  0  0  0  0  0  0  0  0  0  0  0
    7.2622    2.9682   -0.5510 H   0  0  0  0  0  0  0  0  0  0  0  0
    6.1928    1.6613   -1.1136 H   0  0  0  0  0  0  0  0  0  0  0  0
    6.0522    3.7868   -2.9680 H   0  0  0  0  0  0  0  0  0  0  0  0
    5.1140    5.5027   -3.8085 H   0  0  0  0  0  0  0  0  0  0  0  0
    1.8968    6.1549    0.3889 H   0  0  0  0  0  0  0  0  0  0  0  0
    3.1271    4.8804    0.5629 H   0  0  0  0  0  0  0  0  0  0  0  0
    2.6626    2.6019   -0.1340 H   0  0  0  0  0  0  0  0  0  0  0  0
    0.9466    0.8769   -0.4956 H   0  0  0  0  0  0  0  0  0  0  0  0
   -1.3944    1.5264   -0.8829 H   0  0  0  0  0  0  0  0  0  0  0  0
   -0.2902    5.6527   -0.5217 H   0  0  0  0  0  0  0  0  0  0  0  0
   -3.1256    2.1269   -1.1468 H   0  0  0  0  0  0  0  0  0  0  0  0
   -4.2931    3.3255   -1.3000 H   0  0  0  0  0  0  0  0  0  0  0  0
    0.6943    7.4678   -1.2784 H   0  0  0  0  0  0  0  0  0  0  0  0
    0.2558    9.0612   -3.0886 H   0  0  0  0  0  0  0  0  0  0  0  0
    1.7322    9.1634   -5.0514 H   0  0  0  0  0  0  0  0  0  0  0  0
    3.5741    7.0905   -6.1710 H   0  0  0  0  0  0  0  0  0  0  0  0
   -2.6761    5.3262   -0.9437 N   0  3  0  0  0  0  0  0  0  0  0  0
   -1.9228    6.0062   -0.7877 H   0  0  0  0  0  0  0  0  0  0  0  0
  1  6  2  0  0  0  0
  1  2  1  0  0  0  0
  1 31  1  0  0  0  0
  2  3  2  0  0  0  0
  2 32  1  0  0  0  0
  3  4  1  0  0  0  0
  3 33  1  0  0  0  0
  4  5  2  0  0  0  0
  4  7  1  0  0  0  0
  5  6  1  0  0  0  0
  5 34  1  0  0  0  0
  6 35  1  0  0  0  0
  7  8  1  0  0  0  0
  7 36  1  0  0  0  0
  7 37  1  0  0  0  0
  8  9  1  0  0  0  0
  8 38  1  0  0  0  0
  9 10  2  0  0  0  0
  9 11  1  0  0  0  0
 11 15  1  0  0  0  0
 11 12  2  0  0  0  0
 12 13  1  0  0  0  0
 12 39  1  0  0  0  0
 13 29  2  0  0  0  0
 13 14  1  0  0  0  0
 14 15  1  0  0  0  0
 14 26  2  0  0  0  0
 15 16  1  0  0  0  0
 16 17  1  0  0  0  0
 16 40  1  0  0  0  0
 16 41  1  0  0  0  0
 17 22  2  0  0  0  0
 17 18  1  0  0  0  0
 18 19  2  0  0  0  0
 18 42  1  0  0  0  0
 19 20  1  0  0  0  0
 19 43  1  0  0  0  0
 20 21  2  0  0  0  0
 20 44  1  0  0  0  0
 21 22  1  0  0  0  0
 21 23  1  0  0  0  0
 22 45  1  0  0  0  0
 23 25  1  0  0  0  0
 23 52  2  0  0  0  0
 24 52  1  0  0  0  0
 25 46  1  0  0  0  0
 25 47  1  0  0  0  0
 26 27  1  0  0  0  0
 26 48  1  0  0  0  0
 27 28  2  0  0  0  0
 27 49  1  0  0  0  0
 28 29  1  0  0  0  0
 28 50  1  0  0  0  0
 29 30  1  0  0  0  0
 30 51  1  0  0  0  0
 52 53  1  0  0  0  0
M  CHG  1  52   1
M  END
$$$$
ZINC04631143
  -OEChem-08230709403D

 52 55  0     0  0  0  0  0  0999 V2000
   -7.6018   -1.9367    2.4635 C   0  0  0  0  0  0  0  0  0  0  0  0
   -6.7417   -1.7090    3.5214 C   0  0  0  0  0  0  0  0  0  0  0  0
   -6.0218   -0.5306    3.5856 C   0  0  0  0  0  0  0  0  0  0  0  0
   -6.1625    0.4202    2.5920 C   0  0  0  0  0  0  0  0  0  0  0  0
   -7.0269    0.1950    1.5372 C   0  0  0  0  0  0  0  0  0  0  0  0
   -7.7425   -0.9859    1.4700 C   0  0  0  0  0  0  0  0  0  0  0  0
   -5.3781    1.7050    2.6623 C   0  0  0  0  0  0  0  0  0  0  0  0
   -4.0955    1.5322    1.9756 N   0  0  0  0  0  0  0  0  0  0  0  0
   -3.2224    2.5570    1.9109 C   0  0  0  0  0  0  0  0  0  0  0  0
   -3.5391    3.6534    2.3319 O   0  0  0  0  0  0  0  0  0  0  0  0
   -1.8869    2.3495    1.3313 C   0  0  0  0  0  0  0  0  0  0  0  0
   -0.9830    3.3284    1.0652 C   0  0  0  0  0  0  0  0  0  0  0  0
    0.1688    2.7140    0.5168 C   0  0  0  0  0  0  0  0  0  0  0  0
    1.3980    3.2080    0.0610 C   0  0  0  0  0  0  0  0  0  0  0  0
    2.3369    2.3465   -0.4267 C   0  0  0  0  0  0  0  0  0  0  0  0
    2.0863    0.9808   -0.4762 C   0  0  0  0  0  0  0  0  0  0  0  0
    0.8862    0.4710   -0.0346 C   0  0  0  0  0  0  0  0  0  0  0  0
   -0.0902    1.3306    0.4621 C   0  0  0  0  0  0  0  0  0  0  0  0
   -1.3512    1.1282    0.9709 N   0  0  0  0  0  0  0  0  0  0  0  0
   -2.0192   -0.1689    1.1038 C   0  0  0  0  0  0  0  0  0  0  0  0
   -2.6671   -0.5368   -0.2062 C   0  0  0  0  0  0  0  0  0  0  0  0
   -3.9147   -0.0308   -0.5255 C   0  0  0  0  0  0  0  0  0  0  0  0
   -4.5135   -0.3600   -1.7281 C   0  0  0  0  0  0  0  0  0  0  0  0
   -3.8737   -1.2046   -2.6124 C   0  0  0  0  0  0  0  0  0  0  0  0
   -2.6185   -1.7218   -2.2939 C   0  0  0  0  0  0  0  0  0  0  0  0
   -2.0174   -1.3819   -1.0821 C   0  0  0  0  0  0  0  0  0  0  0  0
   -1.9268   -2.6288   -3.2383 C   0  0  0  0  0  0  0  0  0  0  0  0
   -0.2221   -3.7126   -3.4908 H   0  0  0  0  0  0  0  0  0  0  0  0
   -2.5232   -2.9628   -4.4346 N   0  0  0  0  0  0  0  0  0  0  0  0
   -8.1638   -2.8577    2.4130 H   0  0  0  0  0  0  0  0  0  0  0  0
   -6.6318   -2.4518    4.2976 H   0  0  0  0  0  0  0  0  0  0  0  0
   -5.3498   -0.3527    4.4121 H   0  0  0  0  0  0  0  0  0  0  0  0
   -7.1401    0.9396    0.7632 H   0  0  0  0  0  0  0  0  0  0  0  0
   -8.4144   -1.1640    0.6433 H   0  0  0  0  0  0  0  0  0  0  0  0
   -5.1994    1.9652    3.7056 H   0  0  0  0  0  0  0  0  0  0  0  0
   -5.9435    2.5028    2.1806 H   0  0  0  0  0  0  0  0  0  0  0  0
   -3.8747    0.6804    1.5676 H   0  0  0  0  0  0  0  0  0  0  0  0
   -1.1185    4.3853    1.2409 H   0  0  0  0  0  0  0  0  0  0  0  0
    1.6018    4.2681    0.0951 H   0  0  0  0  0  0  0  0  0  0  0  0
    3.2836    2.7298   -0.7779 H   0  0  0  0  0  0  0  0  0  0  0  0
    2.8403    0.3125   -0.8651 H   0  0  0  0  0  0  0  0  0  0  0  0
    0.7007   -0.5920   -0.0774 H   0  0  0  0  0  0  0  0  0  0  0  0
   -1.2861   -0.9293    1.3728 H   0  0  0  0  0  0  0  0  0  0  0  0
   -2.7808   -0.1073    1.8811 H   0  0  0  0  0  0  0  0  0  0  0  0
   -4.4210    0.6271    0.1651 H   0  0  0  0  0  0  0  0  0  0  0  0
   -5.4858    0.0409   -1.9735 H   0  0  0  0  0  0  0  0  0  0  0  0
   -4.3439   -1.4638   -3.5495 H   0  0  0  0  0  0  0  0  0  0  0  0
   -1.0457   -1.7797   -0.8298 H   0  0  0  0  0  0  0  0  0  0  0  0
   -3.3961   -2.6038   -4.6583 H   0  0  0  0  0  0  0  0  0  0  0  0
   -2.0701   -3.5570   -5.0532 H   0  0  0  0  0  0  0  0  0  0  0  0
   -0.7382   -3.0847   -2.8743 N   0  3  0  0  0  0  0  0  0  0  0  0
   -0.3360   -2.8063   -1.9716 H   0  0  0  0  0  0  0  0  0  0  0  0
  1  6  2  0  0  0  0
  1  2  1  0  0  0  0
  1 30  1  0  0  0  0
  2  3  2  0  0  0  0
  2 31  1  0  0  0  0
  3  4  1  0  0  0  0
  3 32  1  0  0  0  0
  4  5  2  0  0  0  0
  4  7  1  0  0  0  0
  5  6  1  0  0  0  0
  5 33  1  0  0  0  0
  6 34  1  0  0  0  0
  7  8  1  0  0  0  0
  7 35  1  0  0  0  0
  7 36  1  0  0  0  0
  8  9  1  0  0  0  0
  8 37  1  0  0  0  0
  9 10  2  0  0  0  0
  9 11  1  0  0  0  0
 11 19  1  0  0  0  0
 11 12  2  0  0  0  0
 12 13  1  0  0  0  0
 12 38  1  0  0  0  0
 13 18  2  0  0  0  0
 13 14  1  0  0  0  0
 14 15  2  0  0  0  0
 14 39  1  0  0  0  0
 15 16  1  0  0  0  0
 15 40  1  0  0  0  0
 16 17  2  0  0  0  0
 16 41  1  0  0  0  0
 17 18  1  0  0  0  0
 17 42  1  0  0  0  0
 18 19  1  0  0  0  0
 19 20  1  0  0  0  0
 20 21  1  0  0  0  0
 20 43  1  0  0  0  0
 20 44  1  0  0  0  0
 21 26  2  0  0  0  0
 21 22  1  0  0  0  0
 22 23  2  0  0  0  0
 22 45  1  0  0  0  0
 23 24  1  0  0  0  0
 23 46  1  0  0  0  0
 24 25  2  0  0  0  0
 24 47  1  0  0  0  0
 25 26  1  0  0  0  0
 25 27  1  0  0  0  0
 26 48  1  0  0  0  0
 27 29  1  0  0  0  0
 27 51  2  0  0  0  0
 28 51  1  0  0  0  0
 29 49  1  0  0  0  0
 29 50  1  0  0  0  0
 51 52  1  0  0  0  0
M  CHG  1  51   1
M  END
$$$$
ZINC04631144
  -OEChem-08230709403D

 72 76  0     0  0  0  0  0  0999 V2000
    1.2019   14.4308   -7.5653 C   0  0  0  0  0  0  0  0  0  0  0  0
    0.3587   13.3704   -7.2902 C   0  0  0  0  0  0  0  0  0  0  0  0
    0.5214   12.6417   -6.1270 C   0  0  0  0  0  0  0  0  0  0  0  0
    1.5271   12.9735   -5.2384 C   0  0  0  0  0  0  0  0  0  0  0  0
    2.3667   14.0373   -5.5107 C   0  0  0  0  0  0  0  0  0  0  0  0
    2.2076   14.7626   -6.6767 C   0  0  0  0  0  0  0  0  0  0  0  0
    1.7041   12.1792   -3.9700 C   0  0  0  0  0  0  0  0  0  0  0  0
    2.6013   11.0932   -4.2094 O   0  0  0  0  0  0  0  0  0  0  0  0
    2.8711   10.2722   -3.1595 C   0  0  0  0  0  0  0  0  0  0  0  0
    2.2782   10.5131   -1.9212 C   0  0  0  0  0  0  0  0  0  0  0  0
    2.5404    9.6932   -0.8477 C   0  0  0  0  0  0  0  0  0  0  0  0
    3.4032    8.6104   -0.9925 C   0  0  0  0  0  0  0  0  0  0  0  0
    4.0047    8.3621   -2.2413 C   0  0  0  0  0  0  0  0  0  0  0  0
    3.7289    9.2061   -3.3256 C   0  0  0  0  0  0  0  0  0  0  0  0
    4.8180    7.2133   -2.0875 C   0  0  0  0  0  0  0  0  0  0  0  0
    4.7091    6.7983   -0.7982 C   0  0  0  0  0  0  0  0  0  0  0  0
    3.8457    7.6389   -0.1232 N   0  0  0  0  0  0  0  0  0  0  0  0
    3.4679    7.5199    1.2872 C   0  0  0  0  0  0  0  0  0  0  0  0
    2.2003    6.7130    1.4015 C   0  0  0  0  0  0  0  0  0  0  0  0
    2.2673    5.3374    1.5344 C   0  0  0  0  0  0  0  0  0  0  0  0
    1.1082    4.5900    1.6403 C   0  0  0  0  0  0  0  0  0  0  0  0
   -0.1230    5.2126    1.6077 C   0  0  0  0  0  0  0  0  0  0  0  0
   -0.1968    6.5991    1.4797 C   0  0  0  0  0  0  0  0  0  0  0  0
    0.9755    7.3474    1.3738 C   0  0  0  0  0  0  0  0  0  0  0  0
   -1.5146    7.2739    1.4506 C   0  0  0  0  0  0  0  0  0  0  0  0
   -2.3967    9.1022    1.2966 H   0  0  0  0  0  0  0  0  0  0  0  0
   -2.6709    6.5320    1.5554 N   0  0  0  0  0  0  0  0  0  0  0  0
    5.3981    5.6373   -0.2153 C   0  0  0  0  0  0  0  0  0  0  0  0
    5.3071    5.4112    0.9765 O   0  0  0  0  0  0  0  0  0  0  0  0
    6.1304    4.8236   -1.0016 N   0  0  0  0  0  0  0  0  0  0  0  0
    6.9032    3.7306   -0.4063 C   0  0  0  0  0  0  0  0  0  0  0  0
    7.6269    2.9774   -1.4925 C   0  0  0  0  0  0  0  0  0  0  0  0
    7.0186    1.8972   -2.1067 C   0  0  0  0  0  0  0  0  0  0  0  0
    7.6742    1.2045   -3.1085 C   0  0  0  0  0  0  0  0  0  0  0  0
    8.9450    1.5807   -3.4934 C   0  0  0  0  0  0  0  0  0  0  0  0
    9.5657    2.6649   -2.8742 C   0  0  0  0  0  0  0  0  0  0  0  0
    8.8972    3.3630   -1.8687 C   0  0  0  0  0  0  0  0  0  0  0  0
   10.9294    3.0734   -3.2823 C   0  0  0  0  0  0  0  0  0  0  0  0
   12.3980    4.4302   -2.8995 H   0  0  0  0  0  0  0  0  0  0  0  0
   11.5873    2.3819   -4.2760 N   0  0  0  0  0  0  0  0  0  0  0  0
    1.0753   14.9997   -8.4745 H   0  0  0  0  0  0  0  0  0  0  0  0
   -0.4270   13.1112   -7.9845 H   0  0  0  0  0  0  0  0  0  0  0  0
   -0.1375   11.8133   -5.9121 H   0  0  0  0  0  0  0  0  0  0  0  0
    3.1495   14.2993   -4.8144 H   0  0  0  0  0  0  0  0  0  0  0  0
    2.8665   15.5907   -6.8917 H   0  0  0  0  0  0  0  0  0  0  0  0
    0.7387   11.7887   -3.6481 H   0  0  0  0  0  0  0  0  0  0  0  0
    2.1132   12.8237   -3.1919 H   0  0  0  0  0  0  0  0  0  0  0  0
    1.6077   11.3514   -1.8030 H   0  0  0  0  0  0  0  0  0  0  0  0
    2.0755    9.8890    0.1073 H   0  0  0  0  0  0  0  0  0  0  0  0
    4.1866    9.0224   -4.2863 H   0  0  0  0  0  0  0  0  0  0  0  0
    5.4203    6.7520   -2.8562 H   0  0  0  0  0  0  0  0  0  0  0  0
    3.3049    8.5136    1.7047 H   0  0  0  0  0  0  0  0  0  0  0  0
    4.2667    7.0217    1.8366 H   0  0  0  0  0  0  0  0  0  0  0  0
    3.2284    4.8453    1.5560 H   0  0  0  0  0  0  0  0  0  0  0  0
    1.1669    3.5166    1.7442 H   0  0  0  0  0  0  0  0  0  0  0  0
   -1.0274    4.6274    1.6860 H   0  0  0  0  0  0  0  0  0  0  0  0
    0.9245    8.4212    1.2700 H   0  0  0  0  0  0  0  0  0  0  0  0
   -2.6218    5.5678    1.6481 H   0  0  0  0  0  0  0  0  0  0  0  0
   -3.5341    6.9740    1.5363 H   0  0  0  0  0  0  0  0  0  0  0  0
    6.1459    4.9618   -1.9616 H   0  0  0  0  0  0  0  0  0  0  0  0
    7.6283    4.1395    0.2973 H   0  0  0  0  0  0  0  0  0  0  0  0
    6.2295    3.0533    0.1186 H   0  0  0  0  0  0  0  0  0  0  0  0
    6.0260    1.5962   -1.8056 H   0  0  0  0  0  0  0  0  0  0  0  0
    7.1925    0.3648   -3.5873 H   0  0  0  0  0  0  0  0  0  0  0  0
    9.4579    1.0361   -4.2724 H   0  0  0  0  0  0  0  0  0  0  0  0
    9.3726    4.2039   -1.3858 H   0  0  0  0  0  0  0  0  0  0  0  0
   11.1572    1.6274   -4.7081 H   0  0  0  0  0  0  0  0  0  0  0  0
   12.4806    2.6494   -4.5432 H   0  0  0  0  0  0  0  0  0  0  0  0
   -1.5139    8.5917    1.3218 N   0  3  0  0  0  0  0  0  0  0  0  0
   -0.6247    9.0998    1.2473 H   0  0  0  0  0  0  0  0  0  0  0  0
   11.4608    4.1106   -2.6540 N   0  3  0  0  0  0  0  0  0  0  0  0
   10.9298    4.5933   -1.9197 H   0  0  0  0  0  0  0  0  0  0  0  0
  1  6  2  0  0  0  0
  1  2  1  0  0  0  0
  1 41  1  0  0  0  0
  2  3  2  0  0  0  0
  2 42  1  0  0  0  0
  3  4  1  0  0  0  0
  3 43  1  0  0  0  0
  4  5  2  0  0  0  0
  4  7  1  0  0  0  0
  5  6  1  0  0  0  0
  5 44  1  0  0  0  0
  6 45  1  0  0  0  0
  7  8  1  0  0  0  0
  7 46  1  0  0  0  0
  7 47  1  0  0  0  0
  8  9  1  0  0  0  0
  9 14  2  0  0  0  0
  9 10  1  0  0  0  0
 10 11  2  0  0  0  0
 10 48  1  0  0  0  0
 11 12  1  0  0  0  0
 11 49  1  0  0  0  0
 12 17  1  0  0  0  0
 12 13  2  0  0  0  0
 13 14  1  0  0  0  0
 13 15  1  0  0  0  0
 14 50  1  0  0  0  0
 15 16  2  0  0  0  0
 15 51  1  0  0  0  0
 16 17  1  0  0  0  0
 16 28  1  0  0  0  0
 17 18  1  0  0  0  0
 18 19  1  0  0  0  0
 18 52  1  0  0  0  0
 18 53  1  0  0  0  0
 19 24  2  0  0  0  0
 19 20  1  0  0  0  0
 20 21  2  0  0  0  0
 20 54  1  0  0  0  0
 21 22  1  0  0  0  0
 21 55  1  0  0  0  0
 22 23  2  0  0  0  0
 22 56  1  0  0  0  0
 23 24  1  0  0  0  0
 23 25  1  0  0  0  0
 24 57  1  0  0  0  0
 25 27  1  0  0  0  0
 25 69  2  0  0  0  0
 26 69  1  0  0  0  0
 27 58  1  0  0  0  0
 27 59  1  0  0  0  0
 28 29  2  0  0  0  0
 28 30  1  0  0  0  0
 30 31  1  0  0  0  0
 30 60  1  0  0  0  0
 31 32  1  0  0  0  0
 31 61  1  0  0  0  0
 31 62  1  0  0  0  0
 32 37  2  0  0  0  0
 32 33  1  0  0  0  0
 33 34  2  0  0  0  0
 33 63  1  0  0  0  0
 34 35  1  0  0  0  0
 34 64  1  0  0  0  0
 35 36  2  0  0  0  0
 35 65  1  0  0  0  0
 36 37  1  0  0  0  0
 36 38  1  0  0  0  0
 37 66  1  0  0  0  0
 38 40  1  0  0  0  0
 38 71  2  0  0  0  0
 39 71  1  0  0  0  0
 40 67  1  0  0  0  0
 40 68  1  0  0  0  0
 69 70  1  0  0  0  0
 71 72  1  0  0  0  0
M  CHG  2  69   1  71   1
M  END
$$$$
ZINC04631147
  -OEChem-08230709403D

 71 75  0     0  0  0  0  0  0999 V2000
   -3.7770   10.0496   -9.7487 C   0  0  0  0  0  0  0  0  0  0  0  0
   -4.2675    8.8722   -9.2160 C   0  0  0  0  0  0  0  0  0  0  0  0
   -3.6872    8.3312   -8.0839 C   0  0  0  0  0  0  0  0  0  0  0  0
   -2.6167    8.9680   -7.4844 C   0  0  0  0  0  0  0  0  0  0  0  0
   -2.1298   10.1484   -8.0139 C   0  0  0  0  0  0  0  0  0  0  0  0
   -2.7066   10.6864   -9.1492 C   0  0  0  0  0  0  0  0  0  0  0  0
   -1.9844    8.3784   -6.2501 C   0  0  0  0  0  0  0  0  0  0  0  0
   -0.9336    7.4884   -6.6319 O   0  0  0  0  0  0  0  0  0  0  0  0
   -0.2554    6.8680   -5.6297 C   0  0  0  0  0  0  0  0  0  0  0  0
   -0.6007    7.1156   -4.3023 C   0  0  0  0  0  0  0  0  0  0  0  0
    0.0752    6.4974   -3.2755 C   0  0  0  0  0  0  0  0  0  0  0  0
    1.1135    5.6139   -3.5575 C   0  0  0  0  0  0  0  0  0  0  0  0
    1.4664    5.3596   -4.8969 C   0  0  0  0  0  0  0  0  0  0  0  0
    0.7695    5.9974   -5.9323 C   0  0  0  0  0  0  0  0  0  0  0  0
    2.5385    4.4356   -4.8741 C   0  0  0  0  0  0  0  0  0  0  0  0
    2.8164    4.1552   -3.5730 C   0  0  0  0  0  0  0  0  0  0  0  0
    1.9505    4.8640   -2.7625 N   0  0  0  0  0  0  0  0  0  0  0  0
    1.9306    4.8279   -1.2980 C   0  0  0  0  0  0  0  0  0  0  0  0
    0.9967    3.7397   -0.8350 C   0  0  0  0  0  0  0  0  0  0  0  0
    1.4774    2.4585   -0.6296 C   0  0  0  0  0  0  0  0  0  0  0  0
    0.6264    1.4545   -0.2042 C   0  0  0  0  0  0  0  0  0  0  0  0
   -0.7097    1.7240    0.0121 C   0  0  0  0  0  0  0  0  0  0  0  0
   -1.1989    3.0145   -0.1875 C   0  0  0  0  0  0  0  0  0  0  0  0
   -0.3357    4.0229   -0.6161 C   0  0  0  0  0  0  0  0  0  0  0  0
   -2.6301    3.3119    0.0491 C   0  0  0  0  0  0  0  0  0  0  0  0
   -4.0067    4.8103   -0.0151 H   0  0  0  0  0  0  0  0  0  0  0  0
   -3.4802    2.3137    0.4725 N   0  0  0  0  0  0  0  0  0  0  0  0
    3.8669    3.2420   -3.1041 C   0  0  0  0  0  0  0  0  0  0  0  0
    4.5756    2.6671   -3.9074 O   0  0  0  0  0  0  0  0  0  0  0  0
    4.0452    3.0412   -1.7827 O   0  0  0  0  0  0  0  0  0  0  0  0
    5.1020    2.1254   -1.3917 C   0  0  0  0  0  0  0  0  0  0  0  0
    5.1516    2.0277    0.1113 C   0  0  0  0  0  0  0  0  0  0  0  0
    5.9564    2.8912    0.8330 C   0  0  0  0  0  0  0  0  0  0  0  0
    6.0028    2.8114    2.2131 C   0  0  0  0  0  0  0  0  0  0  0  0
    5.2543    1.8613    2.8778 C   0  0  0  0  0  0  0  0  0  0  0  0
    4.4455    0.9845    2.1555 C   0  0  0  0  0  0  0  0  0  0  0  0
    4.3986    1.0738    0.7644 C   0  0  0  0  0  0  0  0  0  0  0  0
    3.6402   -0.0374    2.8625 C   0  0  0  0  0  0  0  0  0  0  0  0
    2.3219   -1.5585    2.5578 H   0  0  0  0  0  0  0  0  0  0  0  0
    3.6886   -0.1231    4.2368 N   0  0  0  0  0  0  0  0  0  0  0  0
   -4.2300   10.4719  -10.6336 H   0  0  0  0  0  0  0  0  0  0  0  0
   -5.1040    8.3747   -9.6844 H   0  0  0  0  0  0  0  0  0  0  0  0
   -4.0705    7.4112   -7.6678 H   0  0  0  0  0  0  0  0  0  0  0  0
   -1.2963   10.6482   -7.5429 H   0  0  0  0  0  0  0  0  0  0  0  0
   -2.3232   11.6062   -9.5657 H   0  0  0  0  0  0  0  0  0  0  0  0
   -2.7367    7.8303   -5.6829 H   0  0  0  0  0  0  0  0  0  0  0  0
   -1.5762    9.1790   -5.6332 H   0  0  0  0  0  0  0  0  0  0  0  0
   -1.4055    7.7998   -4.0774 H   0  0  0  0  0  0  0  0  0  0  0  0
   -0.2006    6.6966   -2.2505 H   0  0  0  0  0  0  0  0  0  0  0  0
    1.0343    5.8078   -6.9620 H   0  0  0  0  0  0  0  0  0  0  0  0
    3.0471    4.0290   -5.7358 H   0  0  0  0  0  0  0  0  0  0  0  0
    1.5866    5.7890   -0.9157 H   0  0  0  0  0  0  0  0  0  0  0  0
    2.9352    4.6274   -0.9259 H   0  0  0  0  0  0  0  0  0  0  0  0
    2.5212    2.2418   -0.8019 H   0  0  0  0  0  0  0  0  0  0  0  0
    1.0075    0.4565   -0.0453 H   0  0  0  0  0  0  0  0  0  0  0  0
   -1.3740    0.9383    0.3401 H   0  0  0  0  0  0  0  0  0  0  0  0
   -0.7098    5.0232   -0.7768 H   0  0  0  0  0  0  0  0  0  0  0  0
   -3.1413    1.4162    0.6155 H   0  0  0  0  0  0  0  0  0  0  0  0
   -4.4178    2.5085    0.6275 H   0  0  0  0  0  0  0  0  0  0  0  0
    4.9034    1.1401   -1.8136 H   0  0  0  0  0  0  0  0  0  0  0  0
    6.0581    2.4938   -1.7636 H   0  0  0  0  0  0  0  0  0  0  0  0
    6.5477    3.6332    0.3171 H   0  0  0  0  0  0  0  0  0  0  0  0
    6.6295    3.4910    2.7715 H   0  0  0  0  0  0  0  0  0  0  0  0
    5.2950    1.7968    3.9551 H   0  0  0  0  0  0  0  0  0  0  0  0
    3.7738    0.3977    0.1996 H   0  0  0  0  0  0  0  0  0  0  0  0
    4.2503    0.4861    4.7413 H   0  0  0  0  0  0  0  0  0  0  0  0
    3.1611   -0.7924    4.7000 H   0  0  0  0  0  0  0  0  0  0  0  0
   -3.0301    4.5559   -0.1642 N   0  3  0  0  0  0  0  0  0  0  0  0
   -2.3574    5.2645   -0.4798 H   0  0  0  0  0  0  0  0  0  0  0  0
    2.8945   -0.8383    2.1172 N   0  3  0  0  0  0  0  0  0  0  0  0
    2.8927   -0.7346    1.0956 H   0  0  0  0  0  0  0  0  0  0  0  0
  1  6  2  0  0  0  0
  1  2  1  0  0  0  0
  1 41  1  0  0  0  0
  2  3  2  0  0  0  0
  2 42  1  0  0  0  0
  3  4  1  0  0  0  0
  3 43  1  0  0  0  0
  4  5  2  0  0  0  0
  4  7  1  0  0  0  0
  5  6  1  0  0  0  0
  5 44  1  0  0  0  0
  6 45  1  0  0  0  0
  7  8  1  0  0  0  0
  7 46  1  0  0  0  0
  7 47  1  0  0  0  0
  8  9  1  0  0  0  0
  9 14  2  0  0  0  0
  9 10  1  0  0  0  0
 10 11  2  0  0  0  0
 10 48  1  0  0  0  0
 11 12  1  0  0  0  0
 11 49  1  0  0  0  0
 12 17  1  0  0  0  0
 12 13  2  0  0  0  0
 13 14  1  0  0  0  0
 13 15  1  0  0  0  0
 14 50  1  0  0  0  0
 15 16  2  0  0  0  0
 15 51  1  0  0  0  0
 16 17  1  0  0  0  0
 16 28  1  0  0  0  0
 17 18  1  0  0  0  0
 18 19  1  0  0  0  0
 18 52  1  0  0  0  0
 18 53  1  0  0  0  0
 19 24  2  0  0  0  0
 19 20  1  0  0  0  0
 20 21  2  0  0  0  0
 20 54  1  0  0  0  0
 21 22  1  0  0  0  0
 21 55  1  0  0  0  0
 22 23  2  0  0  0  0
 22 56  1  0  0  0  0
 23 24  1  0  0  0  0
 23 25  1  0  0  0  0
 24 57  1  0  0  0  0
 25 27  1  0  0  0  0
 25 68  2  0  0  0  0
 26 68  1  0  0  0  0
 27 58  1  0  0  0  0
 27 59  1  0  0  0  0
 28 29  2  0  0  0  0
 28 30  1  0  0  0  0
 30 31  1  0  0  0  0
 31 32  1  0  0  0  0
 31 60  1  0  0  0  0
 31 61  1  0  0  0  0
 32 37  2  0  0  0  0
 32 33  1  0  0  0  0
 33 34  2  0  0  0  0
 33 62  1  0  0  0  0
 34 35  1  0  0  0  0
 34 63  1  0  0  0  0
 35 36  2  0  0  0  0
 35 64  1  0  0  0  0
 36 37  1  0  0  0  0
 36 38  1  0  0  0  0
 37 65  1  0  0  0  0
 38 40  1  0  0  0  0
 38 70  2  0  0  0  0
 39 70  1  0  0  0  0
 40 66  1  0  0  0  0
 40 67  1  0  0  0  0
 68 69  1  0  0  0  0
 70 71  1  0  0  0  0
M  CHG  2  68   1  70   1
M  END
$$$$
ZINC04631149
  -OEChem-08230709403D

 61 65  0     1  0  0  0  0  0999 V2000
    8.6511    0.8492   -4.2214 C   0  0  0  0  0  0  0  0  0  0  0  0
    8.2525    0.0578   -3.1604 C   0  0  0  0  0  0  0  0  0  0  0  0
    7.5585    0.6169   -2.1037 C   0  0  0  0  0  0  0  0  0  0  0  0
    7.2635    1.9674   -2.1078 C   0  0  0  0  0  0  0  0  0  0  0  0
    7.6575    2.7577   -3.1713 C   0  0  0  0  0  0  0  0  0  0  0  0
    8.3553    2.1995   -4.2260 C   0  0  0  0  0  0  0  0  0  0  0  0
    6.5070    2.5769   -0.9557 C   0  0  1  0  0  0  0  0  0  0  0  0
    5.9790    1.7931   -0.4124 H   0  0  0  0  0  0  0  0  0  0  0  0
    7.4741    3.2667   -0.0284 C   0  0  0  0  0  0  0  0  0  0  0  0
    8.0180    4.4985   -0.3587 C   0  0  0  0  0  0  0  0  0  0  0  0
    8.8985    5.1029    0.5185 C   0  0  0  0  0  0  0  0  0  0  0  0
    9.2293    4.5173    1.6527 N   0  0  0  0  0  0  0  0  0  0  0  0
    8.7354    3.3441    1.9972 C   0  0  0  0  0  0  0  0  0  0  0  0
    7.8456    2.6820    1.1726 C   0  0  0  0  0  0  0  0  0  0  0  0
    5.5409    3.5522   -1.4673 N   0  0  0  0  0  0  0  0  0  0  0  0
    4.4245    3.8275   -0.7641 C   0  0  0  0  0  0  0  0  0  0  0  0
    4.1732    3.2009    0.2479 O   0  0  0  0  0  0  0  0  0  0  0  0
    3.5103    4.8852   -1.2202 C   0  0  0  0  0  0  0  0  0  0  0  0
    3.7039    5.6795   -2.3055 C   0  0  0  0  0  0  0  0  0  0  0  0
    2.6026    6.5651   -2.3933 C   0  0  0  0  0  0  0  0  0  0  0  0
    2.2617    7.5913   -3.2841 C   0  0  0  0  0  0  0  0  0  0  0  0
    1.1020    8.2875   -3.1057 C   0  0  0  0  0  0  0  0  0  0  0  0
    0.2530    7.9888   -2.0472 C   0  0  0  0  0  0  0  0  0  0  0  0
    0.5660    6.9853   -1.1582 C   0  0  0  0  0  0  0  0  0  0  0  0
    1.7438    6.2607   -1.3190 C   0  0  0  0  0  0  0  0  0  0  0  0
    2.3164    5.2275   -0.6155 N   0  0  0  0  0  0  0  0  0  0  0  0
    1.7555    4.5974    0.5823 C   0  0  0  0  0  0  0  0  0  0  0  0
    0.7953    3.5097    0.1749 C   0  0  0  0  0  0  0  0  0  0  0  0
    1.2586    2.2232   -0.0361 C   0  0  0  0  0  0  0  0  0  0  0  0
    0.3834    1.2194   -0.4097 C   0  0  0  0  0  0  0  0  0  0  0  0
   -0.9577    1.4975   -0.5804 C   0  0  0  0  0  0  0  0  0  0  0  0
   -1.4315    2.7910   -0.3636 C   0  0  0  0  0  0  0  0  0  0  0  0
   -0.5441    3.7988    0.0135 C   0  0  0  0  0  0  0  0  0  0  0  0
   -2.8703    3.0945   -0.5386 C   0  0  0  0  0  0  0  0  0  0  0  0
   -4.2340    4.6022   -0.4296 H   0  0  0  0  0  0  0  0  0  0  0  0
   -3.7446    2.0969   -0.9112 N   0  0  0  0  0  0  0  0  0  0  0  0
    9.1939    0.4125   -5.0467 H   0  0  0  0  0  0  0  0  0  0  0  0
    8.4835   -0.9971   -3.1569 H   0  0  0  0  0  0  0  0  0  0  0  0
    7.2470   -0.0014   -1.2747 H   0  0  0  0  0  0  0  0  0  0  0  0
    7.4232    3.8120   -3.1765 H   0  0  0  0  0  0  0  0  0  0  0  0
    8.6670    2.8179   -5.0547 H   0  0  0  0  0  0  0  0  0  0  0  0
    7.7545    4.9812   -1.2882 H   0  0  0  0  0  0  0  0  0  0  0  0
    9.3240    6.0641    0.2702 H   0  0  0  0  0  0  0  0  0  0  0  0
    9.0298    2.8954    2.9344 H   0  0  0  0  0  0  0  0  0  0  0  0
    7.4445    1.7214    1.4602 H   0  0  0  0  0  0  0  0  0  0  0  0
    5.7047    3.9999   -2.3121 H   0  0  0  0  0  0  0  0  0  0  0  0
    4.5482    5.6446   -2.9778 H   0  0  0  0  0  0  0  0  0  0  0  0
    2.9152    7.8305   -4.1101 H   0  0  0  0  0  0  0  0  0  0  0  0
    0.8415    9.0784   -3.7936 H   0  0  0  0  0  0  0  0  0  0  0  0
   -0.6613    8.5495   -1.9203 H   0  0  0  0  0  0  0  0  0  0  0  0
   -0.1000    6.7612   -0.3381 H   0  0  0  0  0  0  0  0  0  0  0  0
    1.2274    5.3458    1.1730 H   0  0  0  0  0  0  0  0  0  0  0  0
    2.5610    4.1669    1.1773 H   0  0  0  0  0  0  0  0  0  0  0  0
    2.3079    2.0017    0.0918 H   0  0  0  0  0  0  0  0  0  0  0  0
    0.7508    0.2170   -0.5727 H   0  0  0  0  0  0  0  0  0  0  0  0
   -1.6393    0.7140   -0.8764 H   0  0  0  0  0  0  0  0  0  0  0  0
   -0.9046    4.8033    0.1785 H   0  0  0  0  0  0  0  0  0  0  0  0
   -3.4175    1.1957   -1.0589 H   0  0  0  0  0  0  0  0  0  0  0  0
   -4.6870    2.2958   -1.0258 H   0  0  0  0  0  0  0  0  0  0  0  0
   -3.2531    4.3434   -0.3220 N   0  3  0  0  0  0  0  0  0  0  0  0
   -2.5627    5.0514   -0.0457 H   0  0  0  0  0  0  0  0  0  0  0  0
  1  6  2  0  0  0  0
  1  2  1  0  0  0  0
  1 37  1  0  0  0  0
  2  3  2  0  0  0  0
  2 38  1  0  0  0  0
  3  4  1  0  0  0  0
  3 39  1  0  0  0  0
  4  5  2  0  0  0  0
  4  7  1  0  0  0  0
  5  6  1  0  0  0  0
  5 40  1  0  0  0  0
  6 41  1  0  0  0  0
  7  8  1  0  0  0  0
  7  9  1  0  0  0  0
  7 15  1  0  0  0  0
  9 14  2  0  0  0  0
  9 10  1  0  0  0  0
 10 11  2  0  0  0  0
 10 42  1  0  0  0  0
 11 12  1  0  0  0  0
 11 43  1  0  0  0  0
 12 13  2  0  0  0  0
 13 14  1  0  0  0  0
 13 44  1  0  0  0  0
 14 45  1  0  0  0  0
 15 16  1  0  0  0  0
 15 46  1  0  0  0  0
 16 17  2  0  0  0  0
 16 18  1  0  0  0  0
 18 26  1  0  0  0  0
 18 19  2  0  0  0  0
 19 20  1  0  0  0  0
 19 47  1  0  0  0  0
 20 25  2  0  0  0  0
 20 21  1  0  0  0  0
 21 22  2  0  0  0  0
 21 48  1  0  0  0  0
 22 23  1  0  0  0  0
 22 49  1  0  0  0  0
 23 24  2  0  0  0  0
 23 50  1  0  0  0  0
 24 25  1  0  0  0  0
 24 51  1  0  0  0  0
 25 26  1  0  0  0  0
 26 27  1  0  0  0  0
 27 28  1  0  0  0  0
 27 52  1  0  0  0  0
 27 53  1  0  0  0  0
 28 33  2  0  0  0  0
 28 29  1  0  0  0  0
 29 30  2  0  0  0  0
 29 54  1  0  0  0  0
 30 31  1  0  0  0  0
 30 55  1  0  0  0  0
 31 32  2  0  0  0  0
 31 56  1  0  0  0  0
 32 33  1  0  0  0  0
 32 34  1  0  0  0  0
 33 57  1  0  0  0  0
 34 36  1  0  0  0  0
 34 60  2  0  0  0  0
 35 60  1  0  0  0  0
 36 58  1  0  0  0  0
 36 59  1  0  0  0  0
 60 61  1  0  0  0  0
M  CHG  1  60   1
M  END
$$$$
ZINC04631152
  -OEChem-08230709403D

 52 55  0     0  0  0  0  0  0999 V2000
   -3.1372   -3.4981   -4.3530 C   0  0  0  0  0  0  0  0  0  0  0  0
   -3.4507   -2.9532   -3.1140 C   0  0  0  0  0  0  0  0  0  0  0  0
   -2.4736   -2.3786   -2.3327 C   0  0  0  0  0  0  0  0  0  0  0  0
   -1.1567   -2.3462   -2.7836 C   0  0  0  0  0  0  0  0  0  0  0  0
   -0.8426   -2.8944   -4.0423 C   0  0  0  0  0  0  0  0  0  0  0  0
   -1.8548   -3.4737   -4.8184 C   0  0  0  0  0  0  0  0  0  0  0  0
    0.5494   -2.7153   -4.2358 C   0  0  0  0  0  0  0  0  0  0  0  0
    1.0413   -2.0807   -3.1382 C   0  0  0  0  0  0  0  0  0  0  0  0
    0.0081   -1.8483   -2.2490 N   0  0  0  0  0  0  0  0  0  0  0  0
    0.1349   -1.1860   -0.9484 C   0  0  0  0  0  0  0  0  0  0  0  0
    0.3679   -2.2212    0.1218 C   0  0  0  0  0  0  0  0  0  0  0  0
    1.6591   -2.5612    0.4840 C   0  0  0  0  0  0  0  0  0  0  0  0
    1.8810   -3.5100    1.4656 C   0  0  0  0  0  0  0  0  0  0  0  0
    0.8140   -4.1239    2.0897 C   0  0  0  0  0  0  0  0  0  0  0  0
   -0.4897   -3.7855    1.7290 C   0  0  0  0  0  0  0  0  0  0  0  0
   -0.7070   -2.8275    0.7387 C   0  0  0  0  0  0  0  0  0  0  0  0
   -1.6390   -4.4397    2.3953 C   0  0  0  0  0  0  0  0  0  0  0  0
   -3.6692   -4.5847    2.3540 H   0  0  0  0  0  0  0  0  0  0  0  0
   -1.4255   -5.2975    3.4522 N   0  0  0  0  0  0  0  0  0  0  0  0
    2.4457   -1.7021   -2.9307 C   0  0  0  0  0  0  0  0  0  0  0  0
    3.2399   -2.5202   -2.5063 O   0  0  0  0  0  0  0  0  0  0  0  0
    2.8541   -0.4485   -3.2104 N   0  0  0  0  0  0  0  0  0  0  0  0
    4.2736   -0.1007   -3.1084 C   0  0  0  0  0  0  0  0  0  0  0  0
    4.4479    1.3758   -3.3540 C   0  0  0  0  0  0  0  0  0  0  0  0
    4.5683    1.8518   -4.6461 C   0  0  0  0  0  0  0  0  0  0  0  0
    4.7226    3.2080   -4.8725 C   0  0  0  0  0  0  0  0  0  0  0  0
    4.7673    4.0864   -3.8049 C   0  0  0  0  0  0  0  0  0  0  0  0
    4.6525    3.6090   -2.5117 C   0  0  0  0  0  0  0  0  0  0  0  0
    4.4929    2.2531   -2.2869 C   0  0  0  0  0  0  0  0  0  0  0  0
    4.7079    4.7107   -1.1713 Cl  0  0  0  0  0  0  0  0  0  0  0  0
    4.8667    3.8063   -6.4958 Cl  0  0  0  0  0  0  0  0  0  0  0  0
    1.5446   -3.2614   -5.7482 Br  0  0  0  0  0  0  0  0  0  0  0  0
   -3.9157   -3.9453   -4.9532 H   0  0  0  0  0  0  0  0  0  0  0  0
   -4.4707   -2.9810   -2.7603 H   0  0  0  0  0  0  0  0  0  0  0  0
   -2.7271   -1.9584   -1.3705 H   0  0  0  0  0  0  0  0  0  0  0  0
   -1.6207   -3.8997   -5.7828 H   0  0  0  0  0  0  0  0  0  0  0  0
   -0.7809   -0.6369   -0.7295 H   0  0  0  0  0  0  0  0  0  0  0  0
    0.9765   -0.4938   -0.9737 H   0  0  0  0  0  0  0  0  0  0  0  0
    2.4974   -2.0835   -0.0014 H   0  0  0  0  0  0  0  0  0  0  0  0
    2.8913   -3.7743    1.7412 H   0  0  0  0  0  0  0  0  0  0  0  0
    0.9884   -4.8645    2.8561 H   0  0  0  0  0  0  0  0  0  0  0  0
   -1.7145   -2.5614    0.4551 H   0  0  0  0  0  0  0  0  0  0  0  0
   -0.5225   -5.4729    3.7598 H   0  0  0  0  0  0  0  0  0  0  0  0
   -2.1784   -5.7260    3.8887 H   0  0  0  0  0  0  0  0  0  0  0  0
    2.2082    0.2233   -3.4792 H   0  0  0  0  0  0  0  0  0  0  0  0
    4.6377   -0.3487   -2.1115 H   0  0  0  0  0  0  0  0  0  0  0  0
    4.8395   -0.6620   -3.8519 H   0  0  0  0  0  0  0  0  0  0  0  0
    4.5375    1.1654   -5.4794 H   0  0  0  0  0  0  0  0  0  0  0  0
    4.8923    5.1446   -3.9809 H   0  0  0  0  0  0  0  0  0  0  0  0
    4.4032    1.8801   -1.2772 H   0  0  0  0  0  0  0  0  0  0  0  0
   -2.8458   -4.1589    1.9284 N   0  3  0  0  0  0  0  0  0  0  0  0
   -2.9527   -3.5124    1.1378 H   0  0  0  0  0  0  0  0  0  0  0  0
  1  6  2  0  0  0  0
  1  2  1  0  0  0  0
  1 33  1  0  0  0  0
  2  3  2  0  0  0  0
  2 34  1  0  0  0  0
  3  4  1  0  0  0  0
  3 35  1  0  0  0  0
  4  9  1  0  0  0  0
  4  5  2  0  0  0  0
  5  6  1  0  0  0  0
  5  7  1  0  0  0  0
  6 36  1  0  0  0  0
  7  8  2  0  0  0  0
  7 32  1  0  0  0  0
  8  9  1  0  0  0  0
  8 20  1  0  0  0  0
  9 10  1  0  0  0  0
 10 11  1  0  0  0  0
 10 37  1  0  0  0  0
 10 38  1  0  0  0  0
 11 16  2  0  0  0  0
 11 12  1  0  0  0  0
 12 13  2  0  0  0  0
 12 39  1  0  0  0  0
 13 14  1  0  0  0  0
 13 40  1  0  0  0  0
 14 15  2  0  0  0  0
 14 41  1  0  0  0  0
 15 16  1  0  0  0  0
 15 17  1  0  0  0  0
 16 42  1  0  0  0  0
 17 19  1  0  0  0  0
 17 51  2  0  0  0  0
 18 51  1  0  0  0  0
 19 43  1  0  0  0  0
 19 44  1  0  0  0  0
 20 21  2  0  0  0  0
 20 22  1  0  0  0  0
 22 23  1  0  0  0  0
 22 45  1  0  0  0  0
 23 24  1  0  0  0  0
 23 46  1  0  0  0  0
 23 47  1  0  0  0  0
 24 29  2  0  0  0  0
 24 25  1  0  0  0  0
 25 26  2  0  0  0  0
 25 48  1  0  0  0  0
 26 27  1  0  0  0  0
 26 31  1  0  0  0  0
 27 28  2  0  0  0  0
 27 49  1  0  0  0  0
 28 29  1  0  0  0  0
 28 30  1  0  0  0  0
 29 50  1  0  0  0  0
 51 52  1  0  0  0  0
M  CHG  1  51   1
M  END
$$$$
ZINC04631154
  -OEChem-08230709403D

 58 61  0     0  0  0  0  0  0999 V2000
   -2.1535   -0.6251    2.0205 C   0  0  0  0  0  0  0  0  0  0  0  0
   -3.0548    0.3487    1.6087 C   0  0  0  0  0  0  0  0  0  0  0  0
   -2.7573    1.6853    1.7511 C   0  0  0  0  0  0  0  0  0  0  0  0
   -1.5377    2.0680    2.3033 C   0  0  0  0  0  0  0  0  0  0  0  0
   -0.6236    1.0788    2.7146 C   0  0  0  0  0  0  0  0  0  0  0  0
   -0.9520   -0.2746    2.5639 C   0  0  0  0  0  0  0  0  0  0  0  0
    0.5116    1.7525    3.2291 C   0  0  0  0  0  0  0  0  0  0  0  0
    0.2807    3.0889    3.1273 C   0  0  0  0  0  0  0  0  0  0  0  0
   -0.9660    3.2910    2.5641 N   0  0  0  0  0  0  0  0  0  0  0  0
   -1.5769    4.5940    2.2900 C   0  0  0  0  0  0  0  0  0  0  0  0
   -1.3257    4.9743    0.8536 C   0  0  0  0  0  0  0  0  0  0  0  0
   -0.1252    5.5610    0.4945 C   0  0  0  0  0  0  0  0  0  0  0  0
    0.1146    5.9084   -0.8227 C   0  0  0  0  0  0  0  0  0  0  0  0
   -0.8479    5.6811   -1.7854 C   0  0  0  0  0  0  0  0  0  0  0  0
   -2.0619    5.0951   -1.4287 C   0  0  0  0  0  0  0  0  0  0  0  0
   -2.2956    4.7421   -0.0998 C   0  0  0  0  0  0  0  0  0  0  0  0
   -3.0989    4.8490   -2.4567 C   0  0  0  0  0  0  0  0  0  0  0  0
   -4.9734    4.1004   -2.7217 H   0  0  0  0  0  0  0  0  0  0  0  0
   -2.8651    5.1987   -3.7688 N   0  0  0  0  0  0  0  0  0  0  0  0
    1.2075    4.1483    3.5484 C   0  0  0  0  0  0  0  0  0  0  0  0
    2.2150    3.8641    4.1683 O   0  0  0  0  0  0  0  0  0  0  0  0
    0.9417    5.4349    3.2477 N   0  0  0  0  0  0  0  0  0  0  0  0
    1.7980    6.5016    3.7722 C   0  0  0  0  0  0  0  0  0  0  0  0
    1.2884    7.8364    3.2924 C   0  0  0  0  0  0  0  0  0  0  0  0
    1.7573    8.3676    2.1041 C   0  0  0  0  0  0  0  0  0  0  0  0
    1.2901    9.5895    1.6544 C   0  0  0  0  0  0  0  0  0  0  0  0
    0.3610   10.2913    2.3953 C   0  0  0  0  0  0  0  0  0  0  0  0
   -0.1109    9.7637    3.5966 C   0  0  0  0  0  0  0  0  0  0  0  0
    0.3597    8.5285    4.0420 C   0  0  0  0  0  0  0  0  0  0  0  0
   -1.1075   10.5119    4.3966 C   0  0  0  0  0  0  0  0  0  0  0  0
   -2.1990   10.4313    6.1132 H   0  0  0  0  0  0  0  0  0  0  0  0
   -1.5705   11.7318    3.9541 N   0  0  0  0  0  0  0  0  0  0  0  0
    2.0682    0.9397    3.9306 Br  0  0  0  0  0  0  0  0  0  0  0  0
   -2.4045   -1.6692    1.9054 H   0  0  0  0  0  0  0  0  0  0  0  0
   -3.9995    0.0543    1.1760 H   0  0  0  0  0  0  0  0  0  0  0  0
   -3.4663    2.4350    1.4321 H   0  0  0  0  0  0  0  0  0  0  0  0
   -0.2558   -1.0387    2.8768 H   0  0  0  0  0  0  0  0  0  0  0  0
   -2.6507    4.5365    2.4682 H   0  0  0  0  0  0  0  0  0  0  0  0
   -1.1394    5.3459    2.9468 H   0  0  0  0  0  0  0  0  0  0  0  0
    0.6294    5.7445    1.2450 H   0  0  0  0  0  0  0  0  0  0  0  0
    1.0553    6.3619   -1.0977 H   0  0  0  0  0  0  0  0  0  0  0  0
   -0.6611    5.9562   -2.8129 H   0  0  0  0  0  0  0  0  0  0  0  0
   -3.2341    4.2882    0.1825 H   0  0  0  0  0  0  0  0  0  0  0  0
   -2.0212    5.6062   -4.0191 H   0  0  0  0  0  0  0  0  0  0  0  0
   -3.5444    5.0375   -4.4422 H   0  0  0  0  0  0  0  0  0  0  0  0
    0.1834    5.6545    2.6843 H   0  0  0  0  0  0  0  0  0  0  0  0
    1.7827    6.4772    4.8619 H   0  0  0  0  0  0  0  0  0  0  0  0
    2.8188    6.3544    3.4198 H   0  0  0  0  0  0  0  0  0  0  0  0
    2.4878    7.8244    1.5232 H   0  0  0  0  0  0  0  0  0  0  0  0
    1.6565    9.9971    0.7238 H   0  0  0  0  0  0  0  0  0  0  0  0
    0.0006   11.2474    2.0456 H   0  0  0  0  0  0  0  0  0  0  0  0
   -0.0024    8.1147    4.9715 H   0  0  0  0  0  0  0  0  0  0  0  0
   -1.2437   12.1006    3.1186 H   0  0  0  0  0  0  0  0  0  0  0  0
   -2.2232   12.2219    4.4781 H   0  0  0  0  0  0  0  0  0  0  0  0
   -4.2286    4.2900   -2.0510 N   0  3  0  0  0  0  0  0  0  0  0  0
   -4.3548    4.0475   -1.0614 H   0  0  0  0  0  0  0  0  0  0  0  0
   -1.5134    9.9548    5.5271 N   0  3  0  0  0  0  0  0  0  0  0  0
   -1.1382    9.0430    5.8138 H   0  0  0  0  0  0  0  0  0  0  0  0
  1  6  2  0  0  0  0
  1  2  1  0  0  0  0
  1 34  1  0  0  0  0
  2  3  2  0  0  0  0
  2 35  1  0  0  0  0
  3  4  1  0  0  0  0
  3 36  1  0  0  0  0
  4  9  1  0  0  0  0
  4  5  2  0  0  0  0
  5  6  1  0  0  0  0
  5  7  1  0  0  0  0
  6 37  1  0  0  0  0
  7  8  2  0  0  0  0
  7 33  1  0  0  0  0
  8  9  1  0  0  0  0
  8 20  1  0  0  0  0
  9 10  1  0  0  0  0
 10 11  1  0  0  0  0
 10 38  1  0  0  0  0
 10 39  1  0  0  0  0
 11 16  2  0  0  0  0
 11 12  1  0  0  0  0
 12 13  2  0  0  0  0
 12 40  1  0  0  0  0
 13 14  1  0  0  0  0
 13 41  1  0  0  0  0
 14 15  2  0  0  0  0
 14 42  1  0  0  0  0
 15 16  1  0  0  0  0
 15 17  1  0  0  0  0
 16 43  1  0  0  0  0
 17 19  1  0  0  0  0
 17 55  2  0  0  0  0
 18 55  1  0  0  0  0
 19 44  1  0  0  0  0
 19 45  1  0  0  0  0
 20 21  2  0  0  0  0
 20 22  1  0  0  0  0
 22 23  1  0  0  0  0
 22 46  1  0  0  0  0
 23 24  1  0  0  0  0
 23 47  1  0  0  0  0
 23 48  1  0  0  0  0
 24 29  2  0  0  0  0
 24 25  1  0  0  0  0
 25 26  2  0  0  0  0
 25 49  1  0  0  0  0
 26 27  1  0  0  0  0
 26 50  1  0  0  0  0
 27 28  2  0  0  0  0
 27 51  1  0  0  0  0
 28 29  1  0  0  0  0
 28 30  1  0  0  0  0
 29 52  1  0  0  0  0
 30 32  1  0  0  0  0
 30 57  2  0  0  0  0
 31 57  1  0  0  0  0
 32 53  1  0  0  0  0
 32 54  1  0  0  0  0
 55 56  1  0  0  0  0
 57 58  1  0  0  0  0
M  CHG  2  55   1  57   1
M  END
$$$$
ZINC04631156
  -OEChem-08230709403D

 58 62  0     0  0  0  0  0  0999 V2000
   10.7367    4.6695   -1.3783 C   0  0  0  0  0  0  0  0  0  0  0  0
   11.7729    4.3318   -2.2467 C   0  0  0  0  0  0  0  0  0  0  0  0
   11.6811    3.2452   -3.0608 C   0  0  0  0  0  0  0  0  0  0  0  0
   10.5166    2.4575   -3.0438 C   0  0  0  0  0  0  0  0  0  0  0  0
    9.4619    2.8060   -2.1639 C   0  0  0  0  0  0  0  0  0  0  0  0
    9.5967    3.9270   -1.3288 C   0  0  0  0  0  0  0  0  0  0  0  0
    8.2997    2.0125   -2.1437 C   0  0  0  0  0  0  0  0  0  0  0  0
    8.2364    0.9408   -2.9884 C   0  0  0  0  0  0  0  0  0  0  0  0
    9.3071    0.6572   -3.8330 C   0  0  0  0  0  0  0  0  0  0  0  0
   10.3907    1.3951   -3.8450 N   0  0  0  0  0  0  0  0  0  0  0  0
    7.1545    2.3398   -1.2205 C   0  0  0  0  0  0  0  0  0  0  0  0
    6.3931    3.4659   -1.7669 N   0  0  0  0  0  0  0  0  0  0  0  0
    5.3787    4.0004   -1.0587 C   0  0  0  0  0  0  0  0  0  0  0  0
    5.0348    3.4906   -0.0089 O   0  0  0  0  0  0  0  0  0  0  0  0
    4.6882    5.1988   -1.5542 C   0  0  0  0  0  0  0  0  0  0  0  0
    4.9744    5.8517   -2.7116 C   0  0  0  0  0  0  0  0  0  0  0  0
    4.0904    6.9507   -2.8166 C   0  0  0  0  0  0  0  0  0  0  0  0
    3.2617    6.9238   -1.6783 C   0  0  0  0  0  0  0  0  0  0  0  0
    3.6414    5.8417   -0.9192 N   0  0  0  0  0  0  0  0  0  0  0  0
    3.0402    5.4398    0.3550 C   0  0  0  0  0  0  0  0  0  0  0  0
    1.8272    4.5855    0.0908 C   0  0  0  0  0  0  0  0  0  0  0  0
    1.9663    3.2174   -0.0620 C   0  0  0  0  0  0  0  0  0  0  0  0
    0.8576    2.4267   -0.3042 C   0  0  0  0  0  0  0  0  0  0  0  0
   -0.3942    2.9996   -0.4010 C   0  0  0  0  0  0  0  0  0  0  0  0
   -0.5415    4.3770   -0.2423 C   0  0  0  0  0  0  0  0  0  0  0  0
    0.5802    5.1691    0.0023 C   0  0  0  0  0  0  0  0  0  0  0  0
   -1.8828    4.9972   -0.3385 C   0  0  0  0  0  0  0  0  0  0  0  0
   -2.8535    6.7840   -0.2407 H   0  0  0  0  0  0  0  0  0  0  0  0
   -2.9890    4.2121   -0.5801 N   0  0  0  0  0  0  0  0  0  0  0  0
    2.2850    7.9020   -1.5167 C   0  0  0  0  0  0  0  0  0  0  0  0
    2.1319    8.8883   -2.4662 C   0  0  0  0  0  0  0  0  0  0  0  0
    2.9442    8.9220   -3.5906 C   0  0  0  0  0  0  0  0  0  0  0  0
    3.9212    7.9641   -3.7758 C   0  0  0  0  0  0  0  0  0  0  0  0
    4.7134    8.0007   -4.8778 O   0  0  0  0  0  0  0  0  0  0  0  0
   10.8395    5.5315   -0.7357 H   0  0  0  0  0  0  0  0  0  0  0  0
   12.6676    4.9364   -2.2667 H   0  0  0  0  0  0  0  0  0  0  0  0
   12.4934    2.9975   -3.7279 H   0  0  0  0  0  0  0  0  0  0  0  0
    8.8005    4.1987   -0.6516 H   0  0  0  0  0  0  0  0  0  0  0  0
    7.3571    0.3137   -3.0011 H   0  0  0  0  0  0  0  0  0  0  0  0
    9.2430   -0.1934   -4.4956 H   0  0  0  0  0  0  0  0  0  0  0  0
    7.5444    2.6073   -0.2384 H   0  0  0  0  0  0  0  0  0  0  0  0
    6.5025    1.4710   -1.1283 H   0  0  0  0  0  0  0  0  0  0  0  0
    6.6191    3.8267   -2.6385 H   0  0  0  0  0  0  0  0  0  0  0  0
    5.7422    5.5821   -3.4217 H   0  0  0  0  0  0  0  0  0  0  0  0
    2.7445    6.3280    0.9132 H   0  0  0  0  0  0  0  0  0  0  0  0
    3.7661    4.8707    0.9356 H   0  0  0  0  0  0  0  0  0  0  0  0
    2.9444    2.7652    0.0086 H   0  0  0  0  0  0  0  0  0  0  0  0
    0.9724    1.3593   -0.4221 H   0  0  0  0  0  0  0  0  0  0  0  0
   -1.2586    2.3817   -0.5945 H   0  0  0  0  0  0  0  0  0  0  0  0
    0.4728    6.2371    0.1216 H   0  0  0  0  0  0  0  0  0  0  0  0
   -2.8892    3.2533   -0.6872 H   0  0  0  0  0  0  0  0  0  0  0  0
   -3.8676    4.6184   -0.6432 H   0  0  0  0  0  0  0  0  0  0  0  0
    1.6460    7.8875   -0.6461 H   0  0  0  0  0  0  0  0  0  0  0  0
    1.3715    9.6438   -2.3337 H   0  0  0  0  0  0  0  0  0  0  0  0
    2.8115    9.7025   -4.3253 H   0  0  0  0  0  0  0  0  0  0  0  0
    4.3635    7.5045   -5.6303 H   0  0  0  0  0  0  0  0  0  0  0  0
   -1.9519    6.3103   -0.1831 N   0  3  0  0  0  0  0  0  0  0  0  0
   -1.0980    6.8517   -0.0045 H   0  0  0  0  0  0  0  0  0  0  0  0
  1  6  2  0  0  0  0
  1  2  1  0  0  0  0
  1 35  1  0  0  0  0
  2  3  2  0  0  0  0
  2 36  1  0  0  0  0
  3  4  1  0  0  0  0
  3 37  1  0  0  0  0
  4 10  2  0  0  0  0
  4  5  1  0  0  0  0
  5  6  1  0  0  0  0
  5  7  2  0  0  0  0
  6 38  1  0  0  0  0
  7  8  1  0  0  0  0
  7 11  1  0  0  0  0
  8  9  2  0  0  0  0
  8 39  1  0  0  0  0
  9 10  1  0  0  0  0
  9 40  1  0  0  0  0
 11 12  1  0  0  0  0
 11 41  1  0  0  0  0
 11 42  1  0  0  0  0
 12 13  1  0  0  0  0
 12 43  1  0  0  0  0
 13 14  2  0  0  0  0
 13 15  1  0  0  0  0
 15 19  1  0  0  0  0
 15 16  2  0  0  0  0
 16 17  1  0  0  0  0
 16 44  1  0  0  0  0
 17 33  2  0  0  0  0
 17 18  1  0  0  0  0
 18 19  1  0  0  0  0
 18 30  2  0  0  0  0
 19 20  1  0  0  0  0
 20 21  1  0  0  0  0
 20 45  1  0  0  0  0
 20 46  1  0  0  0  0
 21 26  2  0  0  0  0
 21 22  1  0  0  0  0
 22 23  2  0  0  0  0
 22 47  1  0  0  0  0
 23 24  1  0  0  0  0
 23 48  1  0  0  0  0
 24 25  2  0  0  0  0
 24 49  1  0  0  0  0
 25 26  1  0  0  0  0
 25 27  1  0  0  0  0
 26 50  1  0  0  0  0
 27 29  1  0  0  0  0
 27 57  2  0  0  0  0
 28 57  1  0  0  0  0
 29 51  1  0  0  0  0
 29 52  1  0  0  0  0
 30 31  1  0  0  0  0
 30 53  1  0  0  0  0
 31 32  2  0  0  0  0
 31 54  1  0  0  0  0
 32 33  1  0  0  0  0
 32 55  1  0  0  0  0
 33 34  1  0  0  0  0
 34 56  1  0  0  0  0
 57 58  1  0  0  0  0
M  CHG  1  57   1
M  END
$$$$
ZINC04631158
  -OEChem-08230709403D

 58 61  0     0  0  0  0  0  0999 V2000
    2.2513    1.8280   -2.2625 C   0  0  0  0  0  0  0  0  0  0  0  0
    1.0181    1.2150   -2.0927 C   0  0  0  0  0  0  0  0  0  0  0  0
    0.9252   -0.1542   -1.9726 C   0  0  0  0  0  0  0  0  0  0  0  0
    2.0757   -0.9349   -2.0213 C   0  0  0  0  0  0  0  0  0  0  0  0
    3.3226   -0.3132   -2.1931 C   0  0  0  0  0  0  0  0  0  0  0  0
    3.4018    1.0721   -2.3136 C   0  0  0  0  0  0  0  0  0  0  0  0
    4.3182   -1.4006   -2.2019 C   0  0  0  0  0  0  0  0  0  0  0  0
    3.6229   -2.5625   -2.0399 C   0  0  0  0  0  0  0  0  0  0  0  0
    2.2994   -2.2934   -1.9329 N   0  0  0  0  0  0  0  0  0  0  0  0
    1.2535   -3.3025   -1.7492 C   0  0  0  0  0  0  0  0  0  0  0  0
    0.6723   -3.6732   -3.0893 C   0  0  0  0  0  0  0  0  0  0  0  0
   -0.4159   -2.9779   -3.5860 C   0  0  0  0  0  0  0  0  0  0  0  0
   -0.9518   -3.3091   -4.8174 C   0  0  0  0  0  0  0  0  0  0  0  0
   -0.4100   -4.3433   -5.5533 C   0  0  0  0  0  0  0  0  0  0  0  0
    0.6833   -5.0512   -5.0555 C   0  0  0  0  0  0  0  0  0  0  0  0
    1.2227   -4.7091   -3.8157 C   0  0  0  0  0  0  0  0  0  0  0  0
    1.2691   -6.1624   -5.8400 C   0  0  0  0  0  0  0  0  0  0  0  0
    2.7437   -7.5656   -5.8116 H   0  0  0  0  0  0  0  0  0  0  0  0
    0.7341   -6.4981   -7.0645 N   0  0  0  0  0  0  0  0  0  0  0  0
    5.7727   -1.2602   -2.3543 C   0  0  0  0  0  0  0  0  0  0  0  0
    6.2661   -0.1566   -2.4924 O   0  0  0  0  0  0  0  0  0  0  0  0
    6.5603   -2.3537   -2.3415 N   0  0  0  0  0  0  0  0  0  0  0  0
    8.0106   -2.2137   -2.4935 C   0  0  0  0  0  0  0  0  0  0  0  0
    8.6546   -3.5753   -2.4447 C   0  0  0  0  0  0  0  0  0  0  0  0
    9.0697   -4.0980   -1.2330 C   0  0  0  0  0  0  0  0  0  0  0  0
    9.6556   -5.3462   -1.1813 C   0  0  0  0  0  0  0  0  0  0  0  0
    9.8383   -6.0768   -2.3551 C   0  0  0  0  0  0  0  0  0  0  0  0
    9.4226   -5.5422   -3.5742 C   0  0  0  0  0  0  0  0  0  0  0  0
    8.8336   -4.2950   -3.6125 C   0  0  0  0  0  0  0  0  0  0  0  0
   10.4708   -7.4149   -2.3071 C   0  0  0  0  0  0  0  0  0  0  0  0
   11.0439   -8.9800   -3.4761 H   0  0  0  0  0  0  0  0  0  0  0  0
   10.8803   -7.9404   -1.1011 N   0  0  0  0  0  0  0  0  0  0  0  0
    2.3093    2.9023   -2.3553 H   0  0  0  0  0  0  0  0  0  0  0  0
    0.1219    1.8168   -2.0588 H   0  0  0  0  0  0  0  0  0  0  0  0
   -0.0397   -0.6211   -1.8412 H   0  0  0  0  0  0  0  0  0  0  0  0
    4.3605    1.5515   -2.4462 H   0  0  0  0  0  0  0  0  0  0  0  0
    4.0612   -3.5489   -2.0029 H   0  0  0  0  0  0  0  0  0  0  0  0
    1.6819   -4.1889   -1.2812 H   0  0  0  0  0  0  0  0  0  0  0  0
    0.4672   -2.8989   -1.1113 H   0  0  0  0  0  0  0  0  0  0  0  0
   -0.8459   -2.1704   -3.0120 H   0  0  0  0  0  0  0  0  0  0  0  0
   -1.7984   -2.7597   -5.2021 H   0  0  0  0  0  0  0  0  0  0  0  0
   -0.8322   -4.6040   -6.5126 H   0  0  0  0  0  0  0  0  0  0  0  0
    2.0692   -5.2540   -3.4248 H   0  0  0  0  0  0  0  0  0  0  0  0
   -0.0263   -6.0066   -7.4128 H   0  0  0  0  0  0  0  0  0  0  0  0
    1.1178   -7.2259   -7.5784 H   0  0  0  0  0  0  0  0  0  0  0  0
    6.1669   -3.2335   -2.2314 H   0  0  0  0  0  0  0  0  0  0  0  0
    8.2317   -1.7414   -3.4507 H   0  0  0  0  0  0  0  0  0  0  0  0
    8.4029   -1.5970   -1.6849 H   0  0  0  0  0  0  0  0  0  0  0  0
    8.9310   -3.5297   -0.3251 H   0  0  0  0  0  0  0  0  0  0  0  0
    9.9752   -5.7552   -0.2341 H   0  0  0  0  0  0  0  0  0  0  0  0
    9.5612   -6.1034   -4.4865 H   0  0  0  0  0  0  0  0  0  0  0  0
    8.5112   -3.8799   -4.5561 H   0  0  0  0  0  0  0  0  0  0  0  0
   10.7545   -7.4339   -0.2835 H   0  0  0  0  0  0  0  0  0  0  0  0
   11.2945   -8.8170   -1.0696 H   0  0  0  0  0  0  0  0  0  0  0  0
    2.3053   -6.7933   -5.3097 N   0  3  0  0  0  0  0  0  0  0  0  0
    2.6675   -6.5052   -4.3931 H   0  0  0  0  0  0  0  0  0  0  0  0
   10.6139   -8.0551   -3.4572 N   0  3  0  0  0  0  0  0  0  0  0  0
   10.2921   -7.6207   -4.3301 H   0  0  0  0  0  0  0  0  0  0  0  0
  1  6  2  0  0  0  0
  1  2  1  0  0  0  0
  1 33  1  0  0  0  0
  2  3  2  0  0  0  0
  2 34  1  0  0  0  0
  3  4  1  0  0  0  0
  3 35  1  0  0  0  0
  4  9  1  0  0  0  0
  4  5  2  0  0  0  0
  5  6  1  0  0  0  0
  5  7  1  0  0  0  0
  6 36  1  0  0  0  0
  7  8  2  0  0  0  0
  7 20  1  0  0  0  0
  8  9  1  0  0  0  0
  8 37  1  0  0  0  0
  9 10  1  0  0  0  0
 10 11  1  0  0  0  0
 10 38  1  0  0  0  0
 10 39  1  0  0  0  0
 11 16  2  0  0  0  0
 11 12  1  0  0  0  0
 12 13  2  0  0  0  0
 12 40  1  0  0  0  0
 13 14  1  0  0  0  0
 13 41  1  0  0  0  0
 14 15  2  0  0  0  0
 14 42  1  0  0  0  0
 15 16  1  0  0  0  0
 15 17  1  0  0  0  0
 16 43  1  0  0  0  0
 17 19  1  0  0  0  0
 17 55  2  0  0  0  0
 18 55  1  0  0  0  0
 19 44  1  0  0  0  0
 19 45  1  0  0  0  0
 20 21  2  0  0  0  0
 20 22  1  0  0  0  0
 22 23  1  0  0  0  0
 22 46  1  0  0  0  0
 23 24  1  0  0  0  0
 23 47  1  0  0  0  0
 23 48  1  0  0  0  0
 24 29  2  0  0  0  0
 24 25  1  0  0  0  0
 25 26  2  0  0  0  0
 25 49  1  0  0  0  0
 26 27  1  0  0  0  0
 26 50  1  0  0  0  0
 27 28  2  0  0  0  0
 27 30  1  0  0  0  0
 28 29  1  0  0  0  0
 28 51  1  0  0  0  0
 29 52  1  0  0  0  0
 30 32  1  0  0  0  0
 30 57  2  0  0  0  0
 31 57  1  0  0  0  0
 32 53  1  0  0  0  0
 32 54  1  0  0  0  0
 55 56  1  0  0  0  0
 57 58  1  0  0  0  0
M  CHG  2  55   1  57   1
M  END
$$$$
ZINC04631162
  -OEChem-08230709403D

 58 61  0     0  0  0  0  0  0999 V2000
    2.0872    2.4553   -1.3351 C   0  0  0  0  0  0  0  0  0  0  0  0
    0.8538    1.8427   -1.1655 C   0  0  0  0  0  0  0  0  0  0  0  0
    0.7605    0.4735   -1.0454 C   0  0  0  0  0  0  0  0  0  0  0  0
    1.9107   -0.3075   -1.0941 C   0  0  0  0  0  0  0  0  0  0  0  0
    3.1578    0.3138   -1.2658 C   0  0  0  0  0  0  0  0  0  0  0  0
    3.2375    1.6990   -1.3862 C   0  0  0  0  0  0  0  0  0  0  0  0
    4.1531   -0.7740   -1.2745 C   0  0  0  0  0  0  0  0  0  0  0  0
    3.4574   -1.9357   -1.1126 C   0  0  0  0  0  0  0  0  0  0  0  0
    2.1340   -1.6661   -1.0057 N   0  0  0  0  0  0  0  0  0  0  0  0
    1.0877   -2.6749   -0.8221 C   0  0  0  0  0  0  0  0  0  0  0  0
    0.5064   -3.0454   -2.1623 C   0  0  0  0  0  0  0  0  0  0  0  0
   -0.5814   -2.3496   -2.6591 C   0  0  0  0  0  0  0  0  0  0  0  0
   -1.1174   -2.6807   -3.8905 C   0  0  0  0  0  0  0  0  0  0  0  0
   -0.5759   -3.7150   -4.6264 C   0  0  0  0  0  0  0  0  0  0  0  0
    0.5171   -4.4233   -4.1286 C   0  0  0  0  0  0  0  0  0  0  0  0
    1.0566   -4.0814   -2.8887 C   0  0  0  0  0  0  0  0  0  0  0  0
    1.1026   -5.5346   -4.9131 C   0  0  0  0  0  0  0  0  0  0  0  0
    2.5768   -6.9383   -4.8846 H   0  0  0  0  0  0  0  0  0  0  0  0
    0.5676   -5.8701   -6.1376 N   0  0  0  0  0  0  0  0  0  0  0  0
    5.6076   -0.6340   -1.4269 C   0  0  0  0  0  0  0  0  0  0  0  0
    6.1014    0.4694   -1.5649 O   0  0  0  0  0  0  0  0  0  0  0  0
    6.3948   -1.7278   -1.4140 N   0  0  0  0  0  0  0  0  0  0  0  0
    7.8452   -1.5883   -1.5660 C   0  0  0  0  0  0  0  0  0  0  0  0
    8.4888   -2.9501   -1.5172 C   0  0  0  0  0  0  0  0  0  0  0  0
    8.9041   -3.4744   -0.3060 C   0  0  0  0  0  0  0  0  0  0  0  0
    9.4904   -4.7260   -0.2525 C   0  0  0  0  0  0  0  0  0  0  0  0
    9.6749   -5.4548   -1.4099 C   0  0  0  0  0  0  0  0  0  0  0  0
    9.2636   -4.9293   -2.6342 C   0  0  0  0  0  0  0  0  0  0  0  0
    8.6678   -3.6690   -2.6811 C   0  0  0  0  0  0  0  0  0  0  0  0
    9.4590   -5.7059   -3.8799 C   0  0  0  0  0  0  0  0  0  0  0  0
    9.1592   -5.6445   -5.8925 H   0  0  0  0  0  0  0  0  0  0  0  0
   10.0478   -6.9506   -3.8305 N   0  0  0  0  0  0  0  0  0  0  0  0
    2.1455    3.5296   -1.4279 H   0  0  0  0  0  0  0  0  0  0  0  0
   -0.0422    2.4448   -1.1316 H   0  0  0  0  0  0  0  0  0  0  0  0
   -0.2046    0.0069   -0.9141 H   0  0  0  0  0  0  0  0  0  0  0  0
    4.1963    2.1781   -1.5187 H   0  0  0  0  0  0  0  0  0  0  0  0
    3.8953   -2.9221   -1.0757 H   0  0  0  0  0  0  0  0  0  0  0  0
    1.5158   -3.5614   -0.3542 H   0  0  0  0  0  0  0  0  0  0  0  0
    0.3015   -2.2711   -0.1842 H   0  0  0  0  0  0  0  0  0  0  0  0
   -1.0112   -1.5421   -2.0850 H   0  0  0  0  0  0  0  0  0  0  0  0
   -1.9638   -2.1310   -4.2752 H   0  0  0  0  0  0  0  0  0  0  0  0
   -0.9981   -3.9755   -5.5857 H   0  0  0  0  0  0  0  0  0  0  0  0
    1.9029   -4.6266   -2.4978 H   0  0  0  0  0  0  0  0  0  0  0  0
   -0.1927   -5.3784   -6.4859 H   0  0  0  0  0  0  0  0  0  0  0  0
    0.9511   -6.5980   -6.6515 H   0  0  0  0  0  0  0  0  0  0  0  0
    6.0011   -2.6075   -1.3040 H   0  0  0  0  0  0  0  0  0  0  0  0
    8.0665   -1.1160   -2.5231 H   0  0  0  0  0  0  0  0  0  0  0  0
    8.2377   -0.9718   -0.7573 H   0  0  0  0  0  0  0  0  0  0  0  0
    8.7662   -2.9058    0.6017 H   0  0  0  0  0  0  0  0  0  0  0  0
    9.8086   -5.1320    0.6964 H   0  0  0  0  0  0  0  0  0  0  0  0
   10.1371   -6.4299   -1.3675 H   0  0  0  0  0  0  0  0  0  0  0  0
    8.3469   -3.2570   -3.6264 H   0  0  0  0  0  0  0  0  0  0  0  0
   10.3345   -7.3181   -2.9798 H   0  0  0  0  0  0  0  0  0  0  0  0
   10.1759   -7.4593   -4.6464 H   0  0  0  0  0  0  0  0  0  0  0  0
    2.1386   -6.1659   -4.3827 N   0  3  0  0  0  0  0  0  0  0  0  0
    2.5008   -5.8780   -3.4661 H   0  0  0  0  0  0  0  0  0  0  0  0
    9.0465   -5.1489   -5.0080 N   0  3  0  0  0  0  0  0  0  0  0  0
    8.6132   -4.2182   -4.9925 H   0  0  0  0  0  0  0  0  0  0  0  0
  1  6  2  0  0  0  0
  1  2  1  0  0  0  0
  1 33  1  0  0  0  0
  2  3  2  0  0  0  0
  2 34  1  0  0  0  0
  3  4  1  0  0  0  0
  3 35  1  0  0  0  0
  4  9  1  0  0  0  0
  4  5  2  0  0  0  0
  5  6  1  0  0  0  0
  5  7  1  0  0  0  0
  6 36  1  0  0  0  0
  7  8  2  0  0  0  0
  7 20  1  0  0  0  0
  8  9  1  0  0  0  0
  8 37  1  0  0  0  0
  9 10  1  0  0  0  0
 10 11  1  0  0  0  0
 10 38  1  0  0  0  0
 10 39  1  0  0  0  0
 11 16  2  0  0  0  0
 11 12  1  0  0  0  0
 12 13  2  0  0  0  0
 12 40  1  0  0  0  0
 13 14  1  0  0  0  0
 13 41  1  0  0  0  0
 14 15  2  0  0  0  0
 14 42  1  0  0  0  0
 15 16  1  0  0  0  0
 15 17  1  0  0  0  0
 16 43  1  0  0  0  0
 17 19  1  0  0  0  0
 17 55  2  0  0  0  0
 18 55  1  0  0  0  0
 19 44  1  0  0  0  0
 19 45  1  0  0  0  0
 20 21  2  0  0  0  0
 20 22  1  0  0  0  0
 22 23  1  0  0  0  0
 22 46  1  0  0  0  0
 23 24  1  0  0  0  0
 23 47  1  0  0  0  0
 23 48  1  0  0  0  0
 24 29  2  0  0  0  0
 24 25  1  0  0  0  0
 25 26  2  0  0  0  0
 25 49  1  0  0  0  0
 26 27  1  0  0  0  0
 26 50  1  0  0  0  0
 27 28  2  0  0  0  0
 27 51  1  0  0  0  0
 28 29  1  0  0  0  0
 28 30  1  0  0  0  0
 29 52  1  0  0  0  0
 30 32  1  0  0  0  0
 30 57  2  0  0  0  0
 31 57  1  0  0  0  0
 32 53  1  0  0  0  0
 32 54  1  0  0  0  0
 55 56  1  0  0  0  0
 57 58  1  0  0  0  0
M  CHG  2  55   1  57   1
M  END
$$$$
ZINC04631166
  -OEChem-08230709403D

 62 66  0     0  0  0  0  0  0999 V2000
    5.1777    5.0683   -2.9685 C   0  0  0  0  0  0  0  0  0  0  0  0
    5.1252    5.9510   -1.9021 C   0  0  0  0  0  0  0  0  0  0  0  0
    4.7683    5.5483   -0.6269 C   0  0  0  0  0  0  0  0  0  0  0  0
    4.4584    4.2007   -0.4544 C   0  0  0  0  0  0  0  0  0  0  0  0
    4.5129    3.3015   -1.5501 C   0  0  0  0  0  0  0  0  0  0  0  0
    4.8772    3.7359   -2.8282 C   0  0  0  0  0  0  0  0  0  0  0  0
    4.1361    2.0052   -1.0236 C   0  0  0  0  0  0  0  0  0  0  0  0
    3.8875    2.1718    0.2934 C   0  0  0  0  0  0  0  0  0  0  0  0
    4.0764    3.4825    0.6420 N   0  0  0  0  0  0  0  0  0  0  0  0
    3.8964    4.0311    1.9884 C   0  0  0  0  0  0  0  0  0  0  0  0
    2.5221    4.6385    2.1037 C   0  0  0  0  0  0  0  0  0  0  0  0
    1.4776    3.8907    2.6177 C   0  0  0  0  0  0  0  0  0  0  0  0
    0.2134    4.4412    2.7266 C   0  0  0  0  0  0  0  0  0  0  0  0
   -0.0132    5.7414    2.3230 C   0  0  0  0  0  0  0  0  0  0  0  0
    1.0353    6.5001    1.8042 C   0  0  0  0  0  0  0  0  0  0  0  0
    2.3091    5.9411    1.7017 C   0  0  0  0  0  0  0  0  0  0  0  0
    0.7988    7.8957    1.3689 C   0  0  0  0  0  0  0  0  0  0  0  0
    1.7247    9.5245    0.5729 H   0  0  0  0  0  0  0  0  0  0  0  0
   -0.4593    8.4469    1.4763 N   0  0  0  0  0  0  0  0  0  0  0  0
    3.4698    1.0458    1.2127 C   0  0  0  0  0  0  0  0  0  0  0  0
    3.1355   -0.1149    0.3701 N   0  0  0  0  0  0  0  0  0  0  0  0
    4.0368   -0.4520   -0.7421 C   0  0  0  0  0  0  0  0  0  0  0  0
    4.0258    0.6945   -1.7601 C   0  0  0  0  0  0  0  0  0  0  0  0
    2.0299   -0.8474    0.6101 C   0  0  0  0  0  0  0  0  0  0  0  0
    1.7859   -1.8216   -0.0746 O   0  0  0  0  0  0  0  0  0  0  0  0
    1.1137   -0.4658    1.7068 C   0  0  0  0  0  0  0  0  0  0  0  0
    0.6749    0.8545    1.8227 C   0  0  0  0  0  0  0  0  0  0  0  0
   -0.1827    1.2082    2.8412 C   0  0  0  0  0  0  0  0  0  0  0  0
   -0.6036    0.2498    3.7635 C   0  0  0  0  0  0  0  0  0  0  0  0
   -0.1613   -1.0685    3.6512 C   0  0  0  0  0  0  0  0  0  0  0  0
    0.6918   -1.4246    2.6297 C   0  0  0  0  0  0  0  0  0  0  0  0
   -1.5211    0.6322    4.8623 C   0  0  0  0  0  0  0  0  0  0  0  0
   -2.5140   -0.1092    6.4767 H   0  0  0  0  0  0  0  0  0  0  0  0
   -1.9580    1.9342    4.9734 N   0  0  0  0  0  0  0  0  0  0  0  0
    5.4640    5.4400   -3.9413 H   0  0  0  0  0  0  0  0  0  0  0  0
    5.3715    6.9887   -2.0715 H   0  0  0  0  0  0  0  0  0  0  0  0
    4.7320    6.2462    0.1965 H   0  0  0  0  0  0  0  0  0  0  0  0
    4.9207    3.0553   -3.6656 H   0  0  0  0  0  0  0  0  0  0  0  0
    4.0038    3.2333    2.7232 H   0  0  0  0  0  0  0  0  0  0  0  0
    4.6490    4.7978    2.1720 H   0  0  0  0  0  0  0  0  0  0  0  0
    1.6500    2.8729    2.9348 H   0  0  0  0  0  0  0  0  0  0  0  0
   -0.5979    3.8526    3.1286 H   0  0  0  0  0  0  0  0  0  0  0  0
   -1.0005    6.1705    2.4092 H   0  0  0  0  0  0  0  0  0  0  0  0
    3.1263    6.5254    1.3051 H   0  0  0  0  0  0  0  0  0  0  0  0
   -1.1902    7.9208    1.8369 H   0  0  0  0  0  0  0  0  0  0  0  0
   -0.6143    9.3610    1.1912 H   0  0  0  0  0  0  0  0  0  0  0  0
    4.2912    0.7905    1.8822 H   0  0  0  0  0  0  0  0  0  0  0  0
    2.5982    1.3466    1.7940 H   0  0  0  0  0  0  0  0  0  0  0  0
    3.6967   -1.3695   -1.2221 H   0  0  0  0  0  0  0  0  0  0  0  0
    5.0486   -0.5927   -0.3619 H   0  0  0  0  0  0  0  0  0  0  0  0
    4.8705    0.5864   -2.4406 H   0  0  0  0  0  0  0  0  0  0  0  0
    3.0944    0.6712   -2.3258 H   0  0  0  0  0  0  0  0  0  0  0  0
    1.0042    1.5974    1.1113 H   0  0  0  0  0  0  0  0  0  0  0  0
   -0.5256    2.2286    2.9283 H   0  0  0  0  0  0  0  0  0  0  0  0
   -0.4881   -1.8102    4.3651 H   0  0  0  0  0  0  0  0  0  0  0  0
    1.0338   -2.4453    2.5427 H   0  0  0  0  0  0  0  0  0  0  0  0
   -1.6650    2.6006    4.3321 H   0  0  0  0  0  0  0  0  0  0  0  0
   -2.5587    2.1845    5.6927 H   0  0  0  0  0  0  0  0  0  0  0  0
    1.8371    8.5601    0.8858 N   0  3  0  0  0  0  0  0  0  0  0  0
    2.7554    8.1048    0.8262 H   0  0  0  0  0  0  0  0  0  0  0  0
   -1.8836   -0.3228    5.7037 N   0  3  0  0  0  0  0  0  0  0  0  0
   -1.5303   -1.2787    5.5785 H   0  0  0  0  0  0  0  0  0  0  0  0
  1  6  2  0  0  0  0
  1  2  1  0  0  0  0
  1 35  1  0  0  0  0
  2  3  2  0  0  0  0
  2 36  1  0  0  0  0
  3  4  1  0  0  0  0
  3 37  1  0  0  0  0
  4  9  1  0  0  0  0
  4  5  2  0  0  0  0
  5  6  1  0  0  0  0
  5  7  1  0  0  0  0
  6 38  1  0  0  0  0
  7 23  1  0  0  0  0
  7  8  2  0  0  0  0
  8  9  1  0  0  0  0
  8 20  1  0  0  0  0
  9 10  1  0  0  0  0
 10 11  1  0  0  0  0
 10 39  1  0  0  0  0
 10 40  1  0  0  0  0
 11 16  2  0  0  0  0
 11 12  1  0  0  0  0
 12 13  2  0  0  0  0
 12 41  1  0  0  0  0
 13 14  1  0  0  0  0
 13 42  1  0  0  0  0
 14 15  2  0  0  0  0
 14 43  1  0  0  0  0
 15 16  1  0  0  0  0
 15 17  1  0  0  0  0
 16 44  1  0  0  0  0
 17 19  1  0  0  0  0
 17 59  2  0  0  0  0
 18 59  1  0  0  0  0
 19 45  1  0  0  0  0
 19 46  1  0  0  0  0
 20 21  1  0  0  0  0
 20 47  1  0  0  0  0
 20 48  1  0  0  0  0
 21 22  1  0  0  0  0
 21 24  1  0  0  0  0
 22 23  1  0  0  0  0
 22 49  1  0  0  0  0
 22 50  1  0  0  0  0
 23 51  1  0  0  0  0
 23 52  1  0  0  0  0
 24 25  2  0  0  0  0
 24 26  1  0  0  0  0
 26 31  2  0  0  0  0
 26 27  1  0  0  0  0
 27 28  2  0  0  0  0
 27 53  1  0  0  0  0
 28 29  1  0  0  0  0
 28 54  1  0  0  0  0
 29 30  2  0  0  0  0
 29 32  1  0  0  0  0
 30 31  1  0  0  0  0
 30 55  1  0  0  0  0
 31 56  1  0  0  0  0
 32 34  1  0  0  0  0
 32 61  2  0  0  0  0
 33 61  1  0  0  0  0
 34 57  1  0  0  0  0
 34 58  1  0  0  0  0
 59 60  1  0  0  0  0
 61 62  1  0  0  0  0
M  CHG  2  59   1  61   1
M  END
$$$$
ZINC04631167
  -OEChem-08230709403D

 39 41  0     0  0  0  0  0  0999 V2000
    1.9725    8.4556   -4.2551 C   0  0  0  0  0  0  0  0  0  0  0  0
    1.1296    8.4040   -3.1518 C   0  0  0  0  0  0  0  0  0  0  0  0
    1.3634    7.5103   -2.1311 C   0  0  0  0  0  0  0  0  0  0  0  0
    2.4541    6.6480   -2.2026 C   0  0  0  0  0  0  0  0  0  0  0  0
    3.3069    6.7019   -3.3222 C   0  0  0  0  0  0  0  0  0  0  0  0
    3.0477    7.6208   -4.3477 C   0  0  0  0  0  0  0  0  0  0  0  0
    4.3123    5.7251   -3.1231 C   0  0  0  0  0  0  0  0  0  0  0  0
    4.0702    5.1195   -1.9312 C   0  0  0  0  0  0  0  0  0  0  0  0
    2.9371    5.6707   -1.3649 N   0  0  0  0  0  0  0  0  0  0  0  0
    2.3503    5.2820   -0.0800 C   0  0  0  0  0  0  0  0  0  0  0  0
    1.2917    4.2340   -0.3077 C   0  0  0  0  0  0  0  0  0  0  0  0
    1.6347    2.8936   -0.3025 C   0  0  0  0  0  0  0  0  0  0  0  0
    0.6685    1.9259   -0.5102 C   0  0  0  0  0  0  0  0  0  0  0  0
   -0.6435    2.2928   -0.7304 C   0  0  0  0  0  0  0  0  0  0  0  0
   -0.9964    3.6418   -0.7313 C   0  0  0  0  0  0  0  0  0  0  0  0
   -0.0177    4.6131   -0.5207 C   0  0  0  0  0  0  0  0  0  0  0  0
   -2.4036    4.0420   -0.9604 C   0  0  0  0  0  0  0  0  0  0  0  0
   -3.6243    5.6646   -1.1069 H   0  0  0  0  0  0  0  0  0  0  0  0
   -3.3682    3.0803   -1.1681 N   0  0  0  0  0  0  0  0  0  0  0  0
    4.8829    4.0459   -1.3398 C   0  0  0  0  0  0  0  0  0  0  0  0
    4.6339    3.6410   -0.2201 O   0  0  0  0  0  0  0  0  0  0  0  0
    5.9037    3.5108   -2.0384 N   0  0  0  0  0  0  0  0  0  0  0  0
    1.7750    9.1633   -5.0466 H   0  0  0  0  0  0  0  0  0  0  0  0
    0.2827    9.0719   -3.0942 H   0  0  0  0  0  0  0  0  0  0  0  0
    0.7027    7.4783   -1.2774 H   0  0  0  0  0  0  0  0  0  0  0  0
    3.6972    7.6679   -5.2093 H   0  0  0  0  0  0  0  0  0  0  0  0
    5.1277    5.5041   -3.7959 H   0  0  0  0  0  0  0  0  0  0  0  0
    1.9013    6.1552    0.3932 H   0  0  0  0  0  0  0  0  0  0  0  0
    3.1285    4.8778    0.5674 H   0  0  0  0  0  0  0  0  0  0  0  0
    2.6610    2.6018   -0.1350 H   0  0  0  0  0  0  0  0  0  0  0  0
    0.9423    0.8812   -0.5046 H   0  0  0  0  0  0  0  0  0  0  0  0
   -1.3963    1.5365   -0.8969 H   0  0  0  0  0  0  0  0  0  0  0  0
   -0.2842    5.6596   -0.5246 H   0  0  0  0  0  0  0  0  0  0  0  0
   -3.1255    2.1411   -1.1644 H   0  0  0  0  0  0  0  0  0  0  0  0
   -4.2900    3.3425   -1.3182 H   0  0  0  0  0  0  0  0  0  0  0  0
    6.0568    3.7808   -2.9573 H   0  0  0  0  0  0  0  0  0  0  0  0
    6.4855    2.8556   -1.6222 H   0  0  0  0  0  0  0  0  0  0  0  0
   -2.6698    5.3390   -0.9537 N   0  3  0  0  0  0  0  0  0  0  0  0
   -1.9155    6.0171   -0.7943 H   0  0  0  0  0  0  0  0  0  0  0  0
  1  6  2  0  0  0  0
  1  2  1  0  0  0  0
  1 23  1  0  0  0  0
  2  3  2  0  0  0  0
  2 24  1  0  0  0  0
  3  4  1  0  0  0  0
  3 25  1  0  0  0  0
  4  9  1  0  0  0  0
  4  5  2  0  0  0  0
  5  6  1  0  0  0  0
  5  7  1  0  0  0  0
  6 26  1  0  0  0  0
  7  8  2  0  0  0  0
  7 27  1  0  0  0  0
  8  9  1  0  0  0  0
  8 20  1  0  0  0  0
  9 10  1  0  0  0  0
 10 11  1  0  0  0  0
 10 28  1  0  0  0  0
 10 29  1  0  0  0  0
 11 16  2  0  0  0  0
 11 12  1  0  0  0  0
 12 13  2  0  0  0  0
 12 30  1  0  0  0  0
 13 14  1  0  0  0  0
 13 31  1  0  0  0  0
 14 15  2  0  0  0  0
 14 32  1  0  0  0  0
 15 16  1  0  0  0  0
 15 17  1  0  0  0  0
 16 33  1  0  0  0  0
 17 19  1  0  0  0  0
 17 38  2  0  0  0  0
 18 38  1  0  0  0  0
 19 34  1  0  0  0  0
 19 35  1  0  0  0  0
 20 21  2  0  0  0  0
 20 22  1  0  0  0  0
 22 36  1  0  0  0  0
 22 37  1  0  0  0  0
 38 39  1  0  0  0  0
M  CHG  1  38   1
M  END
$$$$
ZINC04631169
  -OEChem-08230709403D

 58 61  0     0  0  0  0  0  0999 V2000
    3.5904    1.1024    2.4180 C   0  0  0  0  0  0  0  0  0  0  0  0
    3.1581   -0.1557    2.0168 C   0  0  0  0  0  0  0  0  0  0  0  0
    1.8455   -0.5342    2.1868 C   0  0  0  0  0  0  0  0  0  0  0  0
    0.9385    0.3523    2.7615 C   0  0  0  0  0  0  0  0  0  0  0  0
    1.3805    1.6247    3.1731 C   0  0  0  0  0  0  0  0  0  0  0  0
    2.7215    1.9861    2.9887 C   0  0  0  0  0  0  0  0  0  0  0  0
    0.2592    2.2946    3.7195 C   0  0  0  0  0  0  0  0  0  0  0  0
   -0.8042    1.4525    3.6416 C   0  0  0  0  0  0  0  0  0  0  0  0
   -0.4001    0.2649    3.0628 N   0  0  0  0  0  0  0  0  0  0  0  0
   -1.2581   -0.8946    2.8070 C   0  0  0  0  0  0  0  0  0  0  0  0
   -1.7495   -0.8515    1.3830 C   0  0  0  0  0  0  0  0  0  0  0  0
   -2.8508   -0.0806    1.0558 C   0  0  0  0  0  0  0  0  0  0  0  0
   -3.3048   -0.0322   -0.2498 C   0  0  0  0  0  0  0  0  0  0  0  0
   -2.6672   -0.7617   -1.2326 C   0  0  0  0  0  0  0  0  0  0  0  0
   -1.5599   -1.5446   -0.9080 C   0  0  0  0  0  0  0  0  0  0  0  0
   -1.1036   -1.5852    0.4094 C   0  0  0  0  0  0  0  0  0  0  0  0
   -0.8715   -2.3302   -1.9577 C   0  0  0  0  0  0  0  0  0  0  0  0
    0.6802   -3.6108   -2.2687 H   0  0  0  0  0  0  0  0  0  0  0  0
   -1.3246   -2.2881   -3.2583 N   0  0  0  0  0  0  0  0  0  0  0  0
   -2.1678    1.7564    4.1006 C   0  0  0  0  0  0  0  0  0  0  0  0
   -2.3845    2.7731    4.7325 O   0  0  0  0  0  0  0  0  0  0  0  0
   -3.1776    0.9088    3.8209 N   0  0  0  0  0  0  0  0  0  0  0  0
   -4.5103    1.1470    4.3809 C   0  0  0  0  0  0  0  0  0  0  0  0
   -5.4502    0.0634    3.9191 C   0  0  0  0  0  0  0  0  0  0  0  0
   -6.1705    0.2286    2.7496 C   0  0  0  0  0  0  0  0  0  0  0  0
   -7.0291   -0.7622    2.3190 C   0  0  0  0  0  0  0  0  0  0  0  0
   -7.1777   -1.9274    3.0708 C   0  0  0  0  0  0  0  0  0  0  0  0
   -6.4528   -2.0857    4.2516 C   0  0  0  0  0  0  0  0  0  0  0  0
   -5.5937   -1.0900    4.6693 C   0  0  0  0  0  0  0  0  0  0  0  0
   -8.1009   -2.9924    2.6168 C   0  0  0  0  0  0  0  0  0  0  0  0
   -8.8173   -4.8340    3.1060 H   0  0  0  0  0  0  0  0  0  0  0  0
   -8.8157   -2.8330    1.4496 N   0  0  0  0  0  0  0  0  0  0  0  0
    4.6235    1.3834    2.2767 H   0  0  0  0  0  0  0  0  0  0  0  0
    3.8588   -0.8433    1.5668 H   0  0  0  0  0  0  0  0  0  0  0  0
    1.5191   -1.5141    1.8714 H   0  0  0  0  0  0  0  0  0  0  0  0
    3.0665    2.9620    3.2971 H   0  0  0  0  0  0  0  0  0  0  0  0
    0.2507    3.2952    4.1258 H   0  0  0  0  0  0  0  0  0  0  0  0
   -0.6888   -1.8102    2.9674 H   0  0  0  0  0  0  0  0  0  0  0  0
   -2.1102   -0.8729    3.4863 H   0  0  0  0  0  0  0  0  0  0  0  0
   -3.3556    0.4888    1.8222 H   0  0  0  0  0  0  0  0  0  0  0  0
   -4.1628    0.5743   -0.5000 H   0  0  0  0  0  0  0  0  0  0  0  0
   -3.0248   -0.7261   -2.2511 H   0  0  0  0  0  0  0  0  0  0  0  0
   -0.2467   -2.1901    0.6668 H   0  0  0  0  0  0  0  0  0  0  0  0
   -2.0945   -1.7439   -3.4862 H   0  0  0  0  0  0  0  0  0  0  0  0
   -0.8736   -2.8027   -3.9458 H   0  0  0  0  0  0  0  0  0  0  0  0
   -3.0221    0.1410    3.2491 H   0  0  0  0  0  0  0  0  0  0  0  0
   -4.4538    1.1394    5.4694 H   0  0  0  0  0  0  0  0  0  0  0  0
   -4.8785    2.1157    4.0430 H   0  0  0  0  0  0  0  0  0  0  0  0
   -6.0574    1.1330    2.1702 H   0  0  0  0  0  0  0  0  0  0  0  0
   -7.5875   -0.6340    1.4035 H   0  0  0  0  0  0  0  0  0  0  0  0
   -6.5634   -2.9860    4.8378 H   0  0  0  0  0  0  0  0  0  0  0  0
   -5.0318   -1.2115    5.5836 H   0  0  0  0  0  0  0  0  0  0  0  0
   -8.7141   -2.0232    0.9254 H   0  0  0  0  0  0  0  0  0  0  0  0
   -9.4205   -3.5306    1.1522 H   0  0  0  0  0  0  0  0  0  0  0  0
    0.1726   -3.0525   -1.5821 N   0  3  0  0  0  0  0  0  0  0  0  0
    0.4715   -3.0507   -0.5998 H   0  0  0  0  0  0  0  0  0  0  0  0
   -8.1946   -4.0727    3.3765 N   0  3  0  0  0  0  0  0  0  0  0  0
   -7.6404   -4.1441    4.2379 H   0  0  0  0  0  0  0  0  0  0  0  0
  1  6  2  0  0  0  0
  1  2  1  0  0  0  0
  1 33  1  0  0  0  0
  2  3  2  0  0  0  0
  2 34  1  0  0  0  0
  3  4  1  0  0  0  0
  3 35  1  0  0  0  0
  4  9  1  0  0  0  0
  4  5  2  0  0  0  0
  5  6  1  0  0  0  0
  5  7  1  0  0  0  0
  6 36  1  0  0  0  0
  7  8  2  0  0  0  0
  7 37  1  0  0  0  0
  8  9  1  0  0  0  0
  8 20  1  0  0  0  0
  9 10  1  0  0  0  0
 10 11  1  0  0  0  0
 10 38  1  0  0  0  0
 10 39  1  0  0  0  0
 11 16  2  0  0  0  0
 11 12  1  0  0  0  0
 12 13  2  0  0  0  0
 12 40  1  0  0  0  0
 13 14  1  0  0  0  0
 13 41  1  0  0  0  0
 14 15  2  0  0  0  0
 14 42  1  0  0  0  0
 15 16  1  0  0  0  0
 15 17  1  0  0  0  0
 16 43  1  0  0  0  0
 17 19  1  0  0  0  0
 17 55  2  0  0  0  0
 18 55  1  0  0  0  0
 19 44  1  0  0  0  0
 19 45  1  0  0  0  0
 20 21  2  0  0  0  0
 20 22  1  0  0  0  0
 22 23  1  0  0  0  0
 22 46  1  0  0  0  0
 23 24  1  0  0  0  0
 23 47  1  0  0  0  0
 23 48  1  0  0  0  0
 24 29  2  0  0  0  0
 24 25  1  0  0  0  0
 25 26  2  0  0  0  0
 25 49  1  0  0  0  0
 26 27  1  0  0  0  0
 26 50  1  0  0  0  0
 27 28  2  0  0  0  0
 27 30  1  0  0  0  0
 28 29  1  0  0  0  0
 28 51  1  0  0  0  0
 29 52  1  0  0  0  0
 30 32  1  0  0  0  0
 30 57  2  0  0  0  0
 31 57  1  0  0  0  0
 32 53  1  0  0  0  0
 32 54  1  0  0  0  0
 55 56  1  0  0  0  0
 57 58  1  0  0  0  0
M  CHG  2  55   1  57   1
M  END
$$$$
ZINC04631173
  -OEChem-08230709403D

 52 55  0     0  0  0  0  0  0999 V2000
    2.3371    2.3464   -0.4269 C   0  0  0  0  0  0  0  0  0  0  0  0
    2.0865    0.9807   -0.4762 C   0  0  0  0  0  0  0  0  0  0  0  0
    0.8862    0.4710   -0.0347 C   0  0  0  0  0  0  0  0  0  0  0  0
   -0.0900    1.3306    0.4621 C   0  0  0  0  0  0  0  0  0  0  0  0
    0.1690    2.7139    0.5169 C   0  0  0  0  0  0  0  0  0  0  0  0
    1.3983    3.2079    0.0609 C   0  0  0  0  0  0  0  0  0  0  0  0
   -0.9827    3.3284    1.0653 C   0  0  0  0  0  0  0  0  0  0  0  0
   -1.8866    2.3495    1.3313 C   0  0  0  0  0  0  0  0  0  0  0  0
   -1.3510    1.1282    0.9709 N   0  0  0  0  0  0  0  0  0  0  0  0
   -2.0191   -0.1689    1.1038 C   0  0  0  0  0  0  0  0  0  0  0  0
   -2.6670   -0.5367   -0.2061 C   0  0  0  0  0  0  0  0  0  0  0  0
   -3.9146   -0.0308   -0.5255 C   0  0  0  0  0  0  0  0  0  0  0  0
   -4.5135   -0.3599   -1.7280 C   0  0  0  0  0  0  0  0  0  0  0  0
   -3.8736   -1.2045   -2.6124 C   0  0  0  0  0  0  0  0  0  0  0  0
   -2.6186   -1.7217   -2.2939 C   0  0  0  0  0  0  0  0  0  0  0  0
   -2.0174   -1.3819   -1.0821 C   0  0  0  0  0  0  0  0  0  0  0  0
   -1.9269   -2.6288   -3.2383 C   0  0  0  0  0  0  0  0  0  0  0  0
   -0.2222   -3.7126   -3.4908 H   0  0  0  0  0  0  0  0  0  0  0  0
   -2.5232   -2.9628   -4.4346 N   0  0  0  0  0  0  0  0  0  0  0  0
   -3.2222    2.5570    1.9110 C   0  0  0  0  0  0  0  0  0  0  0  0
   -3.5388    3.6535    2.3319 O   0  0  0  0  0  0  0  0  0  0  0  0
   -4.0953    1.5323    1.9757 N   0  0  0  0  0  0  0  0  0  0  0  0
   -5.3779    1.7052    2.6624 C   0  0  0  0  0  0  0  0  0  0  0  0
   -6.1623    0.4203    2.5922 C   0  0  0  0  0  0  0  0  0  0  0  0
   -7.0268    0.1954    1.5371 C   0  0  0  0  0  0  0  0  0  0  0  0
   -7.7422   -0.9852    1.4693 C   0  0  0  0  0  0  0  0  0  0  0  0
   -7.6017   -1.9370    2.4634 C   0  0  0  0  0  0  0  0  0  0  0  0
   -6.7407   -1.7089    3.5221 C   0  0  0  0  0  0  0  0  0  0  0  0
   -6.0215   -0.5304    3.5859 C   0  0  0  0  0  0  0  0  0  0  0  0
   -8.5050   -3.4173    2.3824 Cl  0  0  0  0  0  0  0  0  0  0  0  0
    3.2838    2.7296   -0.7781 H   0  0  0  0  0  0  0  0  0  0  0  0
    2.8404    0.3124   -0.8652 H   0  0  0  0  0  0  0  0  0  0  0  0
    0.7008   -0.5921   -0.0774 H   0  0  0  0  0  0  0  0  0  0  0  0
    1.6020    4.2680    0.0950 H   0  0  0  0  0  0  0  0  0  0  0  0
   -1.1183    4.3853    1.2410 H   0  0  0  0  0  0  0  0  0  0  0  0
   -1.2860   -0.9293    1.3728 H   0  0  0  0  0  0  0  0  0  0  0  0
   -2.7806   -0.1073    1.8812 H   0  0  0  0  0  0  0  0  0  0  0  0
   -4.4209    0.6272    0.1652 H   0  0  0  0  0  0  0  0  0  0  0  0
   -5.4858    0.0411   -1.9734 H   0  0  0  0  0  0  0  0  0  0  0  0
   -4.3440   -1.4638   -3.5494 H   0  0  0  0  0  0  0  0  0  0  0  0
   -1.0456   -1.7797   -0.8298 H   0  0  0  0  0  0  0  0  0  0  0  0
   -3.3961   -2.6038   -4.6583 H   0  0  0  0  0  0  0  0  0  0  0  0
   -2.0702   -3.5569   -5.0532 H   0  0  0  0  0  0  0  0  0  0  0  0
   -3.8745    0.6805    1.5677 H   0  0  0  0  0  0  0  0  0  0  0  0
   -5.1992    1.9653    3.7057 H   0  0  0  0  0  0  0  0  0  0  0  0
   -5.9433    2.5029    2.1807 H   0  0  0  0  0  0  0  0  0  0  0  0
   -7.1396    0.9404    0.7634 H   0  0  0  0  0  0  0  0  0  0  0  0
   -8.4142   -1.1627    0.6426 H   0  0  0  0  0  0  0  0  0  0  0  0
   -6.6303   -2.4517    4.2983 H   0  0  0  0  0  0  0  0  0  0  0  0
   -5.3490   -0.3522    4.4121 H   0  0  0  0  0  0  0  0  0  0  0  0
   -0.7382   -3.0847   -2.8743 N   0  3  0  0  0  0  0  0  0  0  0  0
   -0.3359   -2.8062   -1.9716 H   0  0  0  0  0  0  0  0  0  0  0  0
  1  6  2  0  0  0  0
  1  2  1  0  0  0  0
  1 31  1  0  0  0  0
  2  3  2  0  0  0  0
  2 32  1  0  0  0  0
  3  4  1  0  0  0  0
  3 33  1  0  0  0  0
  4  9  1  0  0  0  0
  4  5  2  0  0  0  0
  5  6  1  0  0  0  0
  5  7  1  0  0  0  0
  6 34  1  0  0  0  0
  7  8  2  0  0  0  0
  7 35  1  0  0  0  0
  8  9  1  0  0  0  0
  8 20  1  0  0  0  0
  9 10  1  0  0  0  0
 10 11  1  0  0  0  0
 10 36  1  0  0  0  0
 10 37  1  0  0  0  0
 11 16  2  0  0  0  0
 11 12  1  0  0  0  0
 12 13  2  0  0  0  0
 12 38  1  0  0  0  0
 13 14  1  0  0  0  0
 13 39  1  0  0  0  0
 14 15  2  0  0  0  0
 14 40  1  0  0  0  0
 15 16  1  0  0  0  0
 15 17  1  0  0  0  0
 16 41  1  0  0  0  0
 17 19  1  0  0  0  0
 17 51  2  0  0  0  0
 18 51  1  0  0  0  0
 19 42  1  0  0  0  0
 19 43  1  0  0  0  0
 20 21  2  0  0  0  0
 20 22  1  0  0  0  0
 22 23  1  0  0  0  0
 22 44  1  0  0  0  0
 23 24  1  0  0  0  0
 23 45  1  0  0  0  0
 23 46  1  0  0  0  0
 24 29  2  0  0  0  0
 24 25  1  0  0  0  0
 25 26  2  0  0  0  0
 25 47  1  0  0  0  0
 26 27  1  0  0  0  0
 26 48  1  0  0  0  0
 27 28  2  0  0  0  0
 27 30  1  0  0  0  0
 28 29  1  0  0  0  0
 28 49  1  0  0  0  0
 29 50  1  0  0  0  0
 51 52  1  0  0  0  0
M  CHG  1  51   1
M  END
$$$$
ZINC04631175
  -OEChem-08230709403D

 56 59  0     0  0  0  0  0  0999 V2000
   -0.4745    4.0376   -1.6953 C   0  0  0  0  0  0  0  0  0  0  0  0
   -0.4129    2.6539   -1.8047 C   0  0  0  0  0  0  0  0  0  0  0  0
   -1.5189    1.8789   -1.5374 C   0  0  0  0  0  0  0  0  0  0  0  0
   -2.7137    2.4851   -1.1586 C   0  0  0  0  0  0  0  0  0  0  0  0
   -2.7721    3.8877   -1.0438 C   0  0  0  0  0  0  0  0  0  0  0  0
   -1.6326    4.6543   -1.3213 C   0  0  0  0  0  0  0  0  0  0  0  0
   -4.0900    4.2148   -0.6429 C   0  0  0  0  0  0  0  0  0  0  0  0
   -4.7888    3.0547   -0.5330 C   0  0  0  0  0  0  0  0  0  0  0  0
   -3.9575    1.9946   -0.8389 N   0  0  0  0  0  0  0  0  0  0  0  0
   -4.3390    0.5802   -0.8253 C   0  0  0  0  0  0  0  0  0  0  0  0
   -3.9602   -0.0296    0.4997 C   0  0  0  0  0  0  0  0  0  0  0  0
   -2.6784   -0.5118    0.6966 C   0  0  0  0  0  0  0  0  0  0  0  0
   -2.3218   -1.0684    1.9116 C   0  0  0  0  0  0  0  0  0  0  0  0
   -3.2471   -1.1555    2.9319 C   0  0  0  0  0  0  0  0  0  0  0  0
   -4.5420   -0.6761    2.7378 C   0  0  0  0  0  0  0  0  0  0  0  0
   -4.8939   -0.1111    1.5120 C   0  0  0  0  0  0  0  0  0  0  0  0
   -5.5397   -0.7670    3.8284 C   0  0  0  0  0  0  0  0  0  0  0  0
   -7.5004   -0.4345    4.2637 H   0  0  0  0  0  0  0  0  0  0  0  0
   -5.1621   -1.2278    5.0707 N   0  0  0  0  0  0  0  0  0  0  0  0
   -6.2014    2.9444   -0.1392 C   0  0  0  0  0  0  0  0  0  0  0  0
   -6.7063    1.8483    0.0138 O   0  0  0  0  0  0  0  0  0  0  0  0
   -6.9366    4.0577    0.0518 N   0  0  0  0  0  0  0  0  0  0  0  0
   -8.3099    3.9518    0.5508 C   0  0  0  0  0  0  0  0  0  0  0  0
   -8.8647    5.3322    0.7916 C   0  0  0  0  0  0  0  0  0  0  0  0
   -8.6237    5.9730    1.9942 C   0  0  0  0  0  0  0  0  0  0  0  0
   -9.1252    7.2422    2.2213 C   0  0  0  0  0  0  0  0  0  0  0  0
   -9.8786    7.8731    1.2528 C   0  0  0  0  0  0  0  0  0  0  0  0
  -10.1299    7.2302    0.0398 C   0  0  0  0  0  0  0  0  0  0  0  0
   -9.6163    5.9518   -0.1850 C   0  0  0  0  0  0  0  0  0  0  0  0
  -10.9368    7.9001   -1.0023 C   0  0  0  0  0  0  0  0  0  0  0  0
  -11.1543    7.3377   -2.0576 O   0  0  0  0  0  0  0  0  0  0  0  0
  -11.4311    9.1345   -0.7820 N   0  0  0  0  0  0  0  0  0  0  0  0
    0.4026    4.6307   -1.9087 H   0  0  0  0  0  0  0  0  0  0  0  0
    0.5116    2.1817   -2.1027 H   0  0  0  0  0  0  0  0  0  0  0  0
   -1.4612    0.8041   -1.6257 H   0  0  0  0  0  0  0  0  0  0  0  0
   -1.6711    5.7305   -1.2396 H   0  0  0  0  0  0  0  0  0  0  0  0
   -4.4739    5.2087   -0.4663 H   0  0  0  0  0  0  0  0  0  0  0  0
   -5.4156    0.4928   -0.9710 H   0  0  0  0  0  0  0  0  0  0  0  0
   -3.8201    0.0562   -1.6280 H   0  0  0  0  0  0  0  0  0  0  0  0
   -1.9521   -0.4496   -0.1003 H   0  0  0  0  0  0  0  0  0  0  0  0
   -1.3187   -1.4396    2.0606 H   0  0  0  0  0  0  0  0  0  0  0  0
   -2.9686   -1.5937    3.8789 H   0  0  0  0  0  0  0  0  0  0  0  0
   -5.8955    0.2617    1.3557 H   0  0  0  0  0  0  0  0  0  0  0  0
   -4.2429   -1.4927    5.2311 H   0  0  0  0  0  0  0  0  0  0  0  0
   -5.8157   -1.2873    5.7851 H   0  0  0  0  0  0  0  0  0  0  0  0
   -6.5564    4.9290   -0.1409 H   0  0  0  0  0  0  0  0  0  0  0  0
   -8.9256    3.4363   -0.1864 H   0  0  0  0  0  0  0  0  0  0  0  0
   -8.3148    3.3902    1.4849 H   0  0  0  0  0  0  0  0  0  0  0  0
   -8.0383    5.4817    2.7573 H   0  0  0  0  0  0  0  0  0  0  0  0
   -8.9300    7.7384    3.1605 H   0  0  0  0  0  0  0  0  0  0  0  0
  -10.2733    8.8621    1.4332 H   0  0  0  0  0  0  0  0  0  0  0  0
   -9.8069    5.4491   -1.1217 H   0  0  0  0  0  0  0  0  0  0  0  0
  -11.2575    9.5833    0.0602 H   0  0  0  0  0  0  0  0  0  0  0  0
  -11.9605    9.5740   -1.4658 H   0  0  0  0  0  0  0  0  0  0  0  0
   -6.7772   -0.3903    3.5456 N   0  3  0  0  0  0  0  0  0  0  0  0
   -7.0088   -0.0538    2.6037 H   0  0  0  0  0  0  0  0  0  0  0  0
  1  6  2  0  0  0  0
  1  2  1  0  0  0  0
  1 33  1  0  0  0  0
  2  3  2  0  0  0  0
  2 34  1  0  0  0  0
  3  4  1  0  0  0  0
  3 35  1  0  0  0  0
  4  9  1  0  0  0  0
  4  5  2  0  0  0  0
  5  6  1  0  0  0  0
  5  7  1  0  0  0  0
  6 36  1  0  0  0  0
  7  8  2  0  0  0  0
  7 37  1  0  0  0  0
  8  9  1  0  0  0  0
  8 20  1  0  0  0  0
  9 10  1  0  0  0  0
 10 11  1  0  0  0  0
 10 38  1  0  0  0  0
 10 39  1  0  0  0  0
 11 16  2  0  0  0  0
 11 12  1  0  0  0  0
 12 13  2  0  0  0  0
 12 40  1  0  0  0  0
 13 14  1  0  0  0  0
 13 41  1  0  0  0  0
 14 15  2  0  0  0  0
 14 42  1  0  0  0  0
 15 16  1  0  0  0  0
 15 17  1  0  0  0  0
 16 43  1  0  0  0  0
 17 19  1  0  0  0  0
 17 55  2  0  0  0  0
 18 55  1  0  0  0  0
 19 44  1  0  0  0  0
 19 45  1  0  0  0  0
 20 21  2  0  0  0  0
 20 22  1  0  0  0  0
 22 23  1  0  0  0  0
 22 46  1  0  0  0  0
 23 24  1  0  0  0  0
 23 47  1  0  0  0  0
 23 48  1  0  0  0  0
 24 29  2  0  0  0  0
 24 25  1  0  0  0  0
 25 26  2  0  0  0  0
 25 49  1  0  0  0  0
 26 27  1  0  0  0  0
 26 50  1  0  0  0  0
 27 28  2  0  0  0  0
 27 51  1  0  0  0  0
 28 29  1  0  0  0  0
 28 30  1  0  0  0  0
 29 52  1  0  0  0  0
 30 31  2  0  0  0  0
 30 32  1  0  0  0  0
 32 53  1  0  0  0  0
 32 54  1  0  0  0  0
 55 56  1  0  0  0  0
M  CHG  1  55   1
M  END
$$$$
ZINC04631177
  -OEChem-08230709403D

 58 61  0     0  0  0  0  0  0999 V2000
   -1.0144    2.9639   -3.9767 C   0  0  0  0  0  0  0  0  0  0  0  0
   -1.1511    1.6584   -4.4319 C   0  0  0  0  0  0  0  0  0  0  0  0
   -2.3159    0.9575   -4.2141 C   0  0  0  0  0  0  0  0  0  0  0  0
   -3.3709    1.5620   -3.5360 C   0  0  0  0  0  0  0  0  0  0  0  0
   -3.2280    2.8840   -3.0713 C   0  0  0  0  0  0  0  0  0  0  0  0
   -2.0326    3.5759   -3.3057 C   0  0  0  0  0  0  0  0  0  0  0  0
   -4.4395    3.2274   -2.4239 C   0  0  0  0  0  0  0  0  0  0  0  0
   -5.2716    2.1565   -2.5084 C   0  0  0  0  0  0  0  0  0  0  0  0
   -4.6277    1.1345   -3.1786 N   0  0  0  0  0  0  0  0  0  0  0  0
   -5.1916   -0.1876   -3.4622 C   0  0  0  0  0  0  0  0  0  0  0  0
   -4.7579   -1.1584   -2.3942 C   0  0  0  0  0  0  0  0  0  0  0  0
   -3.5386   -1.8035   -2.5017 C   0  0  0  0  0  0  0  0  0  0  0  0
   -3.1315   -2.6923   -1.5231 C   0  0  0  0  0  0  0  0  0  0  0  0
   -3.9450   -2.9485   -0.4381 C   0  0  0  0  0  0  0  0  0  0  0  0
   -5.1773   -2.3055   -0.3269 C   0  0  0  0  0  0  0  0  0  0  0  0
   -5.5799   -1.4064   -1.3144 C   0  0  0  0  0  0  0  0  0  0  0  0
   -6.0551   -2.5764    0.8344 C   0  0  0  0  0  0  0  0  0  0  0  0
   -7.8954   -2.1713    1.6051 H   0  0  0  0  0  0  0  0  0  0  0  0
   -5.6115   -3.3825    1.8600 N   0  0  0  0  0  0  0  0  0  0  0  0
   -6.6356    2.0918   -1.9629 C   0  0  0  0  0  0  0  0  0  0  0  0
   -7.2636    1.0513   -2.0170 O   0  0  0  0  0  0  0  0  0  0  0  0
   -7.1901    3.1852   -1.4030 N   0  0  0  0  0  0  0  0  0  0  0  0
   -8.5037    3.0932   -0.7608 C   0  0  0  0  0  0  0  0  0  0  0  0
   -8.8391    4.4115   -0.1122 C   0  0  0  0  0  0  0  0  0  0  0  0
   -8.3867    4.6871    1.1659 C   0  0  0  0  0  0  0  0  0  0  0  0
   -8.6858    5.8971    1.7656 C   0  0  0  0  0  0  0  0  0  0  0  0
   -9.4478    6.8328    1.0957 C   0  0  0  0  0  0  0  0  0  0  0  0
   -9.9115    6.5584   -0.1905 C   0  0  0  0  0  0  0  0  0  0  0  0
   -9.6017    5.3388   -0.7921 C   0  0  0  0  0  0  0  0  0  0  0  0
  -10.7298    7.5579   -0.9145 C   0  0  0  0  0  0  0  0  0  0  0  0
  -11.7046    7.8894   -2.6707 H   0  0  0  0  0  0  0  0  0  0  0  0
  -11.0342    8.7619   -0.3176 N   0  0  0  0  0  0  0  0  0  0  0  0
   -0.0938    3.4994   -4.1562 H   0  0  0  0  0  0  0  0  0  0  0  0
   -0.3357    1.1888   -4.9621 H   0  0  0  0  0  0  0  0  0  0  0  0
   -2.4126   -0.0569   -4.5722 H   0  0  0  0  0  0  0  0  0  0  0  0
   -1.9173    4.5913   -2.9563 H   0  0  0  0  0  0  0  0  0  0  0  0
   -4.6653    4.1742   -1.9560 H   0  0  0  0  0  0  0  0  0  0  0  0
   -6.2796   -0.1235   -3.4747 H   0  0  0  0  0  0  0  0  0  0  0  0
   -4.8369   -0.5332   -4.4332 H   0  0  0  0  0  0  0  0  0  0  0  0
   -2.9003   -1.6093   -3.3510 H   0  0  0  0  0  0  0  0  0  0  0  0
   -2.1770   -3.1900   -1.6105 H   0  0  0  0  0  0  0  0  0  0  0  0
   -3.6277   -3.6455    0.3234 H   0  0  0  0  0  0  0  0  0  0  0  0
   -6.5334   -0.9055   -1.2338 H   0  0  0  0  0  0  0  0  0  0  0  0
   -4.7242   -3.7726    1.8213 H   0  0  0  0  0  0  0  0  0  0  0  0
   -6.1866   -3.5600    2.6208 H   0  0  0  0  0  0  0  0  0  0  0  0
   -6.7194    4.0331   -1.4252 H   0  0  0  0  0  0  0  0  0  0  0  0
   -9.2585    2.8543   -1.5100 H   0  0  0  0  0  0  0  0  0  0  0  0
   -8.4834    2.3101   -0.0028 H   0  0  0  0  0  0  0  0  0  0  0  0
   -7.7942    3.9560    1.6960 H   0  0  0  0  0  0  0  0  0  0  0  0
   -8.3260    6.1084    2.7618 H   0  0  0  0  0  0  0  0  0  0  0  0
   -9.6846    7.7752    1.5668 H   0  0  0  0  0  0  0  0  0  0  0  0
   -9.9577    5.1209   -1.7881 H   0  0  0  0  0  0  0  0  0  0  0  0
  -10.7123    8.9548    0.5769 H   0  0  0  0  0  0  0  0  0  0  0  0
  -11.5702    9.4166   -0.7918 H   0  0  0  0  0  0  0  0  0  0  0  0
   -7.2541   -2.0147    0.8273 N   0  3  0  0  0  0  0  0  0  0  0  0
   -7.5384   -1.4214    0.0390 H   0  0  0  0  0  0  0  0  0  0  0  0
  -11.1382    7.2342   -2.1317 N   0  3  0  0  0  0  0  0  0  0  0  0
  -10.8849    6.3237   -2.5330 H   0  0  0  0  0  0  0  0  0  0  0  0
  1  6  2  0  0  0  0
  1  2  1  0  0  0  0
  1 33  1  0  0  0  0
  2  3  2  0  0  0  0
  2 34  1  0  0  0  0
  3  4  1  0  0  0  0
  3 35  1  0  0  0  0
  4  9  1  0  0  0  0
  4  5  2  0  0  0  0
  5  6  1  0  0  0  0
  5  7  1  0  0  0  0
  6 36  1  0  0  0  0
  7  8  2  0  0  0  0
  7 37  1  0  0  0  0
  8  9  1  0  0  0  0
  8 20  1  0  0  0  0
  9 10  1  0  0  0  0
 10 11  1  0  0  0  0
 10 38  1  0  0  0  0
 10 39  1  0  0  0  0
 11 16  2  0  0  0  0
 11 12  1  0  0  0  0
 12 13  2  0  0  0  0
 12 40  1  0  0  0  0
 13 14  1  0  0  0  0
 13 41  1  0  0  0  0
 14 15  2  0  0  0  0
 14 42  1  0  0  0  0
 15 16  1  0  0  0  0
 15 17  1  0  0  0  0
 16 43  1  0  0  0  0
 17 19  1  0  0  0  0
 17 55  2  0  0  0  0
 18 55  1  0  0  0  0
 19 44  1  0  0  0  0
 19 45  1  0  0  0  0
 20 21  2  0  0  0  0
 20 22  1  0  0  0  0
 22 23  1  0  0  0  0
 22 46  1  0  0  0  0
 23 24  1  0  0  0  0
 23 47  1  0  0  0  0
 23 48  1  0  0  0  0
 24 29  2  0  0  0  0
 24 25  1  0  0  0  0
 25 26  2  0  0  0  0
 25 49  1  0  0  0  0
 26 27  1  0  0  0  0
 26 50  1  0  0  0  0
 27 28  2  0  0  0  0
 27 51  1  0  0  0  0
 28 29  1  0  0  0  0
 28 30  1  0  0  0  0
 29 52  1  0  0  0  0
 30 32  1  0  0  0  0
 30 57  2  0  0  0  0
 31 57  1  0  0  0  0
 32 53  1  0  0  0  0
 32 54  1  0  0  0  0
 55 56  1  0  0  0  0
 57 58  1  0  0  0  0
M  CHG  2  55   1  57   1
M  END
$$$$
ZINC04631183
  -OEChem-08230709403D

 58 62  0     0  0  0  0  0  0999 V2000
   -1.9763    9.7321    5.1481 C   0  0  0  0  0  0  0  0  0  0  0  0
   -1.2895    8.5233    5.2466 C   0  0  0  0  0  0  0  0  0  0  0  0
   -0.2685    8.2262    4.3972 C   0  0  0  0  0  0  0  0  0  0  0  0
    0.0990    9.1482    3.4023 C   0  0  0  0  0  0  0  0  0  0  0  0
   -0.5967   10.3794    3.3048 C   0  0  0  0  0  0  0  0  0  0  0  0
   -1.6460   10.6505    4.1997 C   0  0  0  0  0  0  0  0  0  0  0  0
   -0.2266   11.3030    2.3129 C   0  0  0  0  0  0  0  0  0  0  0  0
    0.7952   11.0063    1.4638 C   0  0  0  0  0  0  0  0  0  0  0  0
    1.4822    9.7981    1.5627 C   0  0  0  0  0  0  0  0  0  0  0  0
    1.1518    8.8796    2.5114 C   0  0  0  0  0  0  0  0  0  0  0  0
    1.9072    7.5787    2.6018 C   0  0  0  0  0  0  0  0  0  0  0  0
    1.1318    6.5177    1.9542 N   0  0  0  0  0  0  0  0  0  0  0  0
    1.6140    5.2599    1.9129 C   0  0  0  0  0  0  0  0  0  0  0  0
    2.7361    5.0249    2.3206 O   0  0  0  0  0  0  0  0  0  0  0  0
    0.7851    4.1729    1.3759 C   0  0  0  0  0  0  0  0  0  0  0  0
    1.2083    2.9025    1.1361 C   0  0  0  0  0  0  0  0  0  0  0  0
    0.1078    2.1713    0.6236 C   0  0  0  0  0  0  0  0  0  0  0  0
   -0.0536    0.8442    0.2054 C   0  0  0  0  0  0  0  0  0  0  0  0
   -1.2669    0.4193   -0.2518 C   0  0  0  0  0  0  0  0  0  0  0  0
   -2.3456    1.2929   -0.3122 C   0  0  0  0  0  0  0  0  0  0  0  0
   -2.2132    2.6006    0.0973 C   0  0  0  0  0  0  0  0  0  0  0  0
   -0.9853    3.0575    0.5685 C   0  0  0  0  0  0  0  0  0  0  0  0
   -0.5510    4.2768    1.0328 N   0  0  0  0  0  0  0  0  0  0  0  0
   -1.3689    5.4870    1.1457 C   0  0  0  0  0  0  0  0  0  0  0  0
   -1.4013    6.1972   -0.1832 C   0  0  0  0  0  0  0  0  0  0  0  0
   -0.3629    7.0384   -0.5418 C   0  0  0  0  0  0  0  0  0  0  0  0
   -0.3831    7.6899   -1.7617 C   0  0  0  0  0  0  0  0  0  0  0  0
   -1.4455    7.5123   -2.6244 C   0  0  0  0  0  0  0  0  0  0  0  0
   -2.4975    6.6700   -2.2664 C   0  0  0  0  0  0  0  0  0  0  0  0
   -2.4688    6.0116   -1.0371 C   0  0  0  0  0  0  0  0  0  0  0  0
   -3.6407    6.4755   -3.1874 C   0  0  0  0  0  0  0  0  0  0  0  0
   -5.4147    5.4967   -3.3852 H   0  0  0  0  0  0  0  0  0  0  0  0
   -3.6661    7.1272   -4.4010 N   0  0  0  0  0  0  0  0  0  0  0  0
    2.8087    2.2876    1.4084 Cl  0  0  0  0  0  0  0  0  0  0  0  0
   -2.7830    9.9429    5.8345 H   0  0  0  0  0  0  0  0  0  0  0  0
   -1.5721    7.8115    6.0081 H   0  0  0  0  0  0  0  0  0  0  0  0
    0.2542    7.2851    4.4850 H   0  0  0  0  0  0  0  0  0  0  0  0
   -2.1875   11.5826    4.1349 H   0  0  0  0  0  0  0  0  0  0  0  0
   -0.7504   12.2434    2.2242 H   0  0  0  0  0  0  0  0  0  0  0  0
    1.0774   11.7178    0.7020 H   0  0  0  0  0  0  0  0  0  0  0  0
    2.2892    9.5874    0.8766 H   0  0  0  0  0  0  0  0  0  0  0  0
    2.0676    7.3236    3.6493 H   0  0  0  0  0  0  0  0  0  0  0  0
    2.8699    7.6821    2.1014 H   0  0  0  0  0  0  0  0  0  0  0  0
    0.2712    6.7205    1.5550 H   0  0  0  0  0  0  0  0  0  0  0  0
    0.7804    0.1591    0.2445 H   0  0  0  0  0  0  0  0  0  0  0  0
   -1.3887   -0.6043   -0.5740 H   0  0  0  0  0  0  0  0  0  0  0  0
   -3.2982    0.9417   -0.6807 H   0  0  0  0  0  0  0  0  0  0  0  0
   -3.0586    3.2711    0.0500 H   0  0  0  0  0  0  0  0  0  0  0  0
   -2.3833    5.2142    1.4365 H   0  0  0  0  0  0  0  0  0  0  0  0
   -0.9397    6.1466    1.8998 H   0  0  0  0  0  0  0  0  0  0  0  0
    0.4687    7.1837    0.1318 H   0  0  0  0  0  0  0  0  0  0  0  0
    0.4324    8.3418   -2.0381 H   0  0  0  0  0  0  0  0  0  0  0  0
   -1.4620    8.0245   -3.5752 H   0  0  0  0  0  0  0  0  0  0  0  0
   -3.2808    5.3582   -0.7541 H   0  0  0  0  0  0  0  0  0  0  0  0
   -2.9352    7.7134   -4.6523 H   0  0  0  0  0  0  0  0  0  0  0  0
   -4.4149    6.9998   -5.0044 H   0  0  0  0  0  0  0  0  0  0  0  0
   -4.6060    5.6630   -2.7861 N   0  3  0  0  0  0  0  0  0  0  0  0
   -4.5407    5.2003   -1.8718 H   0  0  0  0  0  0  0  0  0  0  0  0
  1  6  2  0  0  0  0
  1  2  1  0  0  0  0
  1 35  1  0  0  0  0
  2  3  2  0  0  0  0
  2 36  1  0  0  0  0
  3  4  1  0  0  0  0
  3 37  1  0  0  0  0
  4 10  2  0  0  0  0
  4  5  1  0  0  0  0
  5  6  1  0  0  0  0
  5  7  2  0  0  0  0
  6 38  1  0  0  0  0
  7  8  1  0  0  0  0
  7 39  1  0  0  0  0
  8  9  2  0  0  0  0
  8 40  1  0  0  0  0
  9 10  1  0  0  0  0
  9 41  1  0  0  0  0
 10 11  1  0  0  0  0
 11 12  1  0  0  0  0
 11 42  1  0  0  0  0
 11 43  1  0  0  0  0
 12 13  1  0  0  0  0
 12 44  1  0  0  0  0
 13 14  2  0  0  0  0
 13 15  1  0  0  0  0
 15 23  1  0  0  0  0
 15 16  2  0  0  0  0
 16 17  1  0  0  0  0
 16 34  1  0  0  0  0
 17 22  2  0  0  0  0
 17 18  1  0  0  0  0
 18 19  2  0  0  0  0
 18 45  1  0  0  0  0
 19 20  1  0  0  0  0
 19 46  1  0  0  0  0
 20 21  2  0  0  0  0
 20 47  1  0  0  0  0
 21 22  1  0  0  0  0
 21 48  1  0  0  0  0
 22 23  1  0  0  0  0
 23 24  1  0  0  0  0
 24 25  1  0  0  0  0
 24 49  1  0  0  0  0
 24 50  1  0  0  0  0
 25 30  2  0  0  0  0
 25 26  1  0  0  0  0
 26 27  2  0  0  0  0
 26 51  1  0  0  0  0
 27 28  1  0  0  0  0
 27 52  1  0  0  0  0
 28 29  2  0  0  0  0
 28 53  1  0  0  0  0
 29 30  1  0  0  0  0
 29 31  1  0  0  0  0
 30 54  1  0  0  0  0
 31 33  1  0  0  0  0
 31 57  2  0  0  0  0
 32 57  1  0  0  0  0
 33 55  1  0  0  0  0
 33 56  1  0  0  0  0
 57 58  1  0  0  0  0
M  CHG  1  57   1
M  END
$$$$
ZINC04631190
  -OEChem-08230709403D

 59 63  0     0  0  0  0  0  0999 V2000
   11.7577    4.3528   -2.1876 C   0  0  0  0  0  0  0  0  0  0  0  0
   10.7087    4.6722   -1.3273 C   0  0  0  0  0  0  0  0  0  0  0  0
    9.5737    3.9218   -1.2972 C   0  0  0  0  0  0  0  0  0  0  0  0
    9.4528    2.8096   -2.1477 C   0  0  0  0  0  0  0  0  0  0  0  0
   10.5214    2.4821   -3.0195 C   0  0  0  0  0  0  0  0  0  0  0  0
   11.6776    3.2811   -3.0225 C   0  0  0  0  0  0  0  0  0  0  0  0
   10.4023    1.3677   -3.8668 C   0  0  0  0  0  0  0  0  0  0  0  0
    9.2674    0.6165   -3.8362 C   0  0  0  0  0  0  0  0  0  0  0  0
    8.2190    0.9355   -2.9758 C   0  0  0  0  0  0  0  0  0  0  0  0
    8.2992    2.0074   -2.1405 C   0  0  0  0  0  0  0  0  0  0  0  0
    7.1541    2.3358   -1.2174 C   0  0  0  0  0  0  0  0  0  0  0  0
    6.3949    3.4636   -1.7631 N   0  0  0  0  0  0  0  0  0  0  0  0
    5.3811    3.9992   -1.0547 C   0  0  0  0  0  0  0  0  0  0  0  0
    5.0359    3.4890   -0.0056 O   0  0  0  0  0  0  0  0  0  0  0  0
    4.6929    5.1993   -1.5494 C   0  0  0  0  0  0  0  0  0  0  0  0
    4.9809    5.8531   -2.7059 C   0  0  0  0  0  0  0  0  0  0  0  0
    4.0981    6.9530   -2.8108 C   0  0  0  0  0  0  0  0  0  0  0  0
    3.2680    6.9257   -1.6733 C   0  0  0  0  0  0  0  0  0  0  0  0
    3.6459    5.8424   -0.9150 N   0  0  0  0  0  0  0  0  0  0  0  0
    3.0428    5.4398    0.3580 C   0  0  0  0  0  0  0  0  0  0  0  0
    1.8295    4.5866    0.0916 C   0  0  0  0  0  0  0  0  0  0  0  0
    1.9678    3.2186   -0.0624 C   0  0  0  0  0  0  0  0  0  0  0  0
    0.8588    2.4289   -0.3067 C   0  0  0  0  0  0  0  0  0  0  0  0
   -0.3925    3.0029   -0.4044 C   0  0  0  0  0  0  0  0  0  0  0  0
   -0.5390    4.3802   -0.2446 C   0  0  0  0  0  0  0  0  0  0  0  0
    0.5830    5.1713    0.0021 C   0  0  0  0  0  0  0  0  0  0  0  0
   -1.8797    5.0015   -0.3419 C   0  0  0  0  0  0  0  0  0  0  0  0
   -2.8492    6.7890   -0.2435 H   0  0  0  0  0  0  0  0  0  0  0  0
   -2.9862    4.2175   -0.5856 N   0  0  0  0  0  0  0  0  0  0  0  0
    2.2921    7.9045   -1.5119 C   0  0  0  0  0  0  0  0  0  0  0  0
    2.1404    8.8916   -2.4610 C   0  0  0  0  0  0  0  0  0  0  0  0
    2.9540    8.9257   -3.5843 C   0  0  0  0  0  0  0  0  0  0  0  0
    3.9307    7.9673   -3.7692 C   0  0  0  0  0  0  0  0  0  0  0  0
    4.7243    8.0044   -4.8703 O   0  0  0  0  0  0  0  0  0  0  0  0
   12.6473    4.9651   -2.1918 H   0  0  0  0  0  0  0  0  0  0  0  0
   10.7977    5.5284   -0.6750 H   0  0  0  0  0  0  0  0  0  0  0  0
    8.7688    4.1819   -0.6258 H   0  0  0  0  0  0  0  0  0  0  0  0
   12.4982    3.0460   -3.6842 H   0  0  0  0  0  0  0  0  0  0  0  0
   11.2067    1.1086   -4.5392 H   0  0  0  0  0  0  0  0  0  0  0  0
    9.1783   -0.2393   -4.4888 H   0  0  0  0  0  0  0  0  0  0  0  0
    7.3295    0.3231   -2.9712 H   0  0  0  0  0  0  0  0  0  0  0  0
    7.5442    2.6018   -0.2350 H   0  0  0  0  0  0  0  0  0  0  0  0
    6.5007    1.4680   -1.1262 H   0  0  0  0  0  0  0  0  0  0  0  0
    6.6218    3.8249   -2.6343 H   0  0  0  0  0  0  0  0  0  0  0  0
    5.7493    5.5835   -3.4154 H   0  0  0  0  0  0  0  0  0  0  0  0
    2.7471    6.3277    0.9168 H   0  0  0  0  0  0  0  0  0  0  0  0
    3.7676    4.8695    0.9391 H   0  0  0  0  0  0  0  0  0  0  0  0
    2.9454    2.7655    0.0089 H   0  0  0  0  0  0  0  0  0  0  0  0
    0.9728    1.3616   -0.4256 H   0  0  0  0  0  0  0  0  0  0  0  0
   -1.2572    2.3857   -0.5996 H   0  0  0  0  0  0  0  0  0  0  0  0
    0.4763    6.2393    0.1224 H   0  0  0  0  0  0  0  0  0  0  0  0
   -2.8870    3.2587   -0.6935 H   0  0  0  0  0  0  0  0  0  0  0  0
   -3.8644    4.6245   -0.6493 H   0  0  0  0  0  0  0  0  0  0  0  0
    1.6517    7.8896   -0.6423 H   0  0  0  0  0  0  0  0  0  0  0  0
    1.3801    9.6472   -2.3289 H   0  0  0  0  0  0  0  0  0  0  0  0
    2.8228    9.7068   -4.3185 H   0  0  0  0  0  0  0  0  0  0  0  0
    4.3749    7.5090   -5.6237 H   0  0  0  0  0  0  0  0  0  0  0  0
   -1.9480    6.3145   -0.1853 N   0  3  0  0  0  0  0  0  0  0  0  0
   -1.0939    6.8552   -0.0053 H   0  0  0  0  0  0  0  0  0  0  0  0
  1  6  2  0  0  0  0
  1  2  1  0  0  0  0
  1 35  1  0  0  0  0
  2  3  2  0  0  0  0
  2 36  1  0  0  0  0
  3  4  1  0  0  0  0
  3 37  1  0  0  0  0
  4 10  2  0  0  0  0
  4  5  1  0  0  0  0
  5  6  1  0  0  0  0
  5  7  2  0  0  0  0
  6 38  1  0  0  0  0
  7  8  1  0  0  0  0
  7 39  1  0  0  0  0
  8  9  2  0  0  0  0
  8 40  1  0  0  0  0
  9 10  1  0  0  0  0
  9 41  1  0  0  0  0
 10 11  1  0  0  0  0
 11 12  1  0  0  0  0
 11 42  1  0  0  0  0
 11 43  1  0  0  0  0
 12 13  1  0  0  0  0
 12 44  1  0  0  0  0
 13 14  2  0  0  0  0
 13 15  1  0  0  0  0
 15 19  1  0  0  0  0
 15 16  2  0  0  0  0
 16 17  1  0  0  0  0
 16 45  1  0  0  0  0
 17 33  2  0  0  0  0
 17 18  1  0  0  0  0
 18 19  1  0  0  0  0
 18 30  2  0  0  0  0
 19 20  1  0  0  0  0
 20 21  1  0  0  0  0
 20 46  1  0  0  0  0
 20 47  1  0  0  0  0
 21 26  2  0  0  0  0
 21 22  1  0  0  0  0
 22 23  2  0  0  0  0
 22 48  1  0  0  0  0
 23 24  1  0  0  0  0
 23 49  1  0  0  0  0
 24 25  2  0  0  0  0
 24 50  1  0  0  0  0
 25 26  1  0  0  0  0
 25 27  1  0  0  0  0
 26 51  1  0  0  0  0
 27 29  1  0  0  0  0
 27 58  2  0  0  0  0
 28 58  1  0  0  0  0
 29 52  1  0  0  0  0
 29 53  1  0  0  0  0
 30 31  1  0  0  0  0
 30 54  1  0  0  0  0
 31 32  2  0  0  0  0
 31 55  1  0  0  0  0
 32 33  1  0  0  0  0
 32 56  1  0  0  0  0
 33 34  1  0  0  0  0
 34 57  1  0  0  0  0
 58 59  1  0  0  0  0
M  CHG  1  58   1
M  END
$$$$
ZINC04631194
  -OEChem-08230709403D

 58 62  0     0  0  0  0  0  0999 V2000
    7.2052   -1.1534   -4.9656 C   0  0  0  0  0  0  0  0  0  0  0  0
    6.2111   -0.7792   -4.0631 C   0  0  0  0  0  0  0  0  0  0  0  0
    6.3884    0.2739   -3.2185 C   0  0  0  0  0  0  0  0  0  0  0  0
    7.5941    0.9922   -3.2521 C   0  0  0  0  0  0  0  0  0  0  0  0
    8.6036    0.6138   -4.1757 C   0  0  0  0  0  0  0  0  0  0  0  0
    8.3855   -0.4764   -5.0304 C   0  0  0  0  0  0  0  0  0  0  0  0
    9.7997    1.3535   -4.1937 C   0  0  0  0  0  0  0  0  0  0  0  0
    9.9343    2.3995   -3.3317 C   0  0  0  0  0  0  0  0  0  0  0  0
    8.9728    2.7353   -2.4830 N   0  0  0  0  0  0  0  0  0  0  0  0
    7.8315    2.0908   -2.4109 C   0  0  0  0  0  0  0  0  0  0  0  0
    6.7803    2.5256   -1.4225 C   0  0  0  0  0  0  0  0  0  0  0  0
    5.9004    3.5153   -2.0489 N   0  0  0  0  0  0  0  0  0  0  0  0
    4.8800    4.0489   -1.3486 C   0  0  0  0  0  0  0  0  0  0  0  0
    4.6350    3.6452   -0.2273 O   0  0  0  0  0  0  0  0  0  0  0  0
    4.0635    5.1180   -1.9392 C   0  0  0  0  0  0  0  0  0  0  0  0
    4.3002    5.7226   -3.1335 C   0  0  0  0  0  0  0  0  0  0  0  0
    3.2929    6.6954   -3.3314 C   0  0  0  0  0  0  0  0  0  0  0  0
    2.4425    6.6430   -2.2100 C   0  0  0  0  0  0  0  0  0  0  0  0
    2.9294    5.6684   -1.3705 N   0  0  0  0  0  0  0  0  0  0  0  0
    2.3465    5.2816   -0.0834 C   0  0  0  0  0  0  0  0  0  0  0  0
    1.2894    4.2309   -0.3062 C   0  0  0  0  0  0  0  0  0  0  0  0
    1.6353    2.8912   -0.2990 C   0  0  0  0  0  0  0  0  0  0  0  0
    0.6705    1.9210   -0.5023 C   0  0  0  0  0  0  0  0  0  0  0  0
   -0.6428    2.2847   -0.7197 C   0  0  0  0  0  0  0  0  0  0  0  0
   -0.9985    3.6330   -0.7225 C   0  0  0  0  0  0  0  0  0  0  0  0
   -0.0214    4.6066   -0.5164 C   0  0  0  0  0  0  0  0  0  0  0  0
   -2.4073    4.0297   -0.9486 C   0  0  0  0  0  0  0  0  0  0  0  0
   -3.6317    5.6496   -1.0951 H   0  0  0  0  0  0  0  0  0  0  0  0
   -3.3704    3.0656   -1.1519 N   0  0  0  0  0  0  0  0  0  0  0  0
    1.3506    7.5025   -2.1354 C   0  0  0  0  0  0  0  0  0  0  0  0
    1.1056    8.3974   -3.1538 C   0  0  0  0  0  0  0  0  0  0  0  0
    1.9384    8.4556   -4.2620 C   0  0  0  0  0  0  0  0  0  0  0  0
    3.0288    7.6145   -4.3615 C   0  0  0  0  0  0  0  0  0  0  0  0
    3.8408    7.6745   -5.4480 O   0  0  0  0  0  0  0  0  0  0  0  0
    7.0373   -1.9932   -5.6236 H   0  0  0  0  0  0  0  0  0  0  0  0
    5.2851   -1.3341   -4.0330 H   0  0  0  0  0  0  0  0  0  0  0  0
    5.6089    0.5519   -2.5245 H   0  0  0  0  0  0  0  0  0  0  0  0
    9.1475   -0.7771   -5.7342 H   0  0  0  0  0  0  0  0  0  0  0  0
   10.5958    1.0969   -4.8771 H   0  0  0  0  0  0  0  0  0  0  0  0
   10.8501    2.9719   -3.3401 H   0  0  0  0  0  0  0  0  0  0  0  0
    7.2621    2.9680   -0.5506 H   0  0  0  0  0  0  0  0  0  0  0  0
    6.1927    1.6612   -1.1132 H   0  0  0  0  0  0  0  0  0  0  0  0
    6.0522    3.7865   -2.9678 H   0  0  0  0  0  0  0  0  0  0  0  0
    5.1142    5.5025   -3.8083 H   0  0  0  0  0  0  0  0  0  0  0  0
    1.8968    6.1549    0.3890 H   0  0  0  0  0  0  0  0  0  0  0  0
    3.1271    4.8803    0.5631 H   0  0  0  0  0  0  0  0  0  0  0  0
    2.6625    2.6018   -0.1337 H   0  0  0  0  0  0  0  0  0  0  0  0
    0.9465    0.8768   -0.4954 H   0  0  0  0  0  0  0  0  0  0  0  0
   -1.3945    1.5265   -0.8827 H   0  0  0  0  0  0  0  0  0  0  0  0
   -0.2902    5.6527   -0.5217 H   0  0  0  0  0  0  0  0  0  0  0  0
   -3.1257    2.1270   -1.1468 H   0  0  0  0  0  0  0  0  0  0  0  0
   -4.2931    3.3255   -1.3000 H   0  0  0  0  0  0  0  0  0  0  0  0
    0.6944    7.4677   -1.2784 H   0  0  0  0  0  0  0  0  0  0  0  0
    0.2560    9.0610   -3.0887 H   0  0  0  0  0  0  0  0  0  0  0  0
    1.7325    9.1633   -5.0514 H   0  0  0  0  0  0  0  0  0  0  0  0
    3.5744    7.0903   -6.1710 H   0  0  0  0  0  0  0  0  0  0  0  0
   -2.6761    5.3262   -0.9437 N   0  3  0  0  0  0  0  0  0  0  0  0
   -1.9227    6.0061   -0.7876 H   0  0  0  0  0  0  0  0  0  0  0  0
  1  6  2  0  0  0  0
  1  2  1  0  0  0  0
  1 35  1  0  0  0  0
  2  3  2  0  0  0  0
  2 36  1  0  0  0  0
  3  4  1  0  0  0  0
  3 37  1  0  0  0  0
  4 10  2  0  0  0  0
  4  5  1  0  0  0  0
  5  6  1  0  0  0  0
  5  7  2  0  0  0  0
  6 38  1  0  0  0  0
  7  8  1  0  0  0  0
  7 39  1  0  0  0  0
  8  9  2  0  0  0  0
  8 40  1  0  0  0  0
  9 10  1  0  0  0  0
 10 11  1  0  0  0  0
 11 12  1  0  0  0  0
 11 41  1  0  0  0  0
 11 42  1  0  0  0  0
 12 13  1  0  0  0  0
 12 43  1  0  0  0  0
 13 14  2  0  0  0  0
 13 15  1  0  0  0  0
 15 19  1  0  0  0  0
 15 16  2  0  0  0  0
 16 17  1  0  0  0  0
 16 44  1  0  0  0  0
 17 33  2  0  0  0  0
 17 18  1  0  0  0  0
 18 19  1  0  0  0  0
 18 30  2  0  0  0  0
 19 20  1  0  0  0  0
 20 21  1  0  0  0  0
 20 45  1  0  0  0  0
 20 46  1  0  0  0  0
 21 26  2  0  0  0  0
 21 22  1  0  0  0  0
 22 23  2  0  0  0  0
 22 47  1  0  0  0  0
 23 24  1  0  0  0  0
 23 48  1  0  0  0  0
 24 25  2  0  0  0  0
 24 49  1  0  0  0  0
 25 26  1  0  0  0  0
 25 27  1  0  0  0  0
 26 50  1  0  0  0  0
 27 29  1  0  0  0  0
 27 57  2  0  0  0  0
 28 57  1  0  0  0  0
 29 51  1  0  0  0  0
 29 52  1  0  0  0  0
 30 31  1  0  0  0  0
 30 53  1  0  0  0  0
 31 32  2  0  0  0  0
 31 54  1  0  0  0  0
 32 33  1  0  0  0  0
 32 55  1  0  0  0  0
 33 34  1  0  0  0  0
 34 56  1  0  0  0  0
 57 58  1  0  0  0  0
M  CHG  1  57   1
M  END
$$$$
ZINC04631198
  -OEChem-08230709403D

 59 63  0     0  0  0  0  0  0999 V2000
   11.9015    1.5299   -5.2294 C   0  0  0  0  0  0  0  0  0  0  0  0
   12.1514    2.6187   -4.3960 C   0  0  0  0  0  0  0  0  0  0  0  0
   11.2233    3.0375   -3.4930 C   0  0  0  0  0  0  0  0  0  0  0  0
    9.9934    2.3644   -3.3969 C   0  0  0  0  0  0  0  0  0  0  0  0
    9.0106    2.7673   -2.4765 C   0  0  0  0  0  0  0  0  0  0  0  0
    7.8315    2.0910   -2.4113 C   0  0  0  0  0  0  0  0  0  0  0  0
    7.5837    0.9988   -3.2410 C   0  0  0  0  0  0  0  0  0  0  0  0
    8.5095    0.5839   -4.1481 C   0  0  0  0  0  0  0  0  0  0  0  0
    9.7393    1.2572   -4.2442 C   0  0  0  0  0  0  0  0  0  0  0  0
   10.7222    0.8537   -5.1641 C   0  0  0  0  0  0  0  0  0  0  0  0
    6.7803    2.5258   -1.4228 C   0  0  0  0  0  0  0  0  0  0  0  0
    5.9004    3.5155   -2.0492 N   0  0  0  0  0  0  0  0  0  0  0  0
    4.8800    4.0491   -1.3489 C   0  0  0  0  0  0  0  0  0  0  0  0
    4.6350    3.6454   -0.2275 O   0  0  0  0  0  0  0  0  0  0  0  0
    4.0634    5.1181   -1.9394 C   0  0  0  0  0  0  0  0  0  0  0  0
    4.3001    5.7228   -3.1337 C   0  0  0  0  0  0  0  0  0  0  0  0
    3.2928    6.6956   -3.3315 C   0  0  0  0  0  0  0  0  0  0  0  0
    2.4425    6.6431   -2.2100 C   0  0  0  0  0  0  0  0  0  0  0  0
    2.9294    5.6685   -1.3706 N   0  0  0  0  0  0  0  0  0  0  0  0
    2.3465    5.2816   -0.0835 C   0  0  0  0  0  0  0  0  0  0  0  0
    1.2895    4.2309   -0.3063 C   0  0  0  0  0  0  0  0  0  0  0  0
    1.6353    2.8912   -0.2993 C   0  0  0  0  0  0  0  0  0  0  0  0
    0.6707    1.9210   -0.5025 C   0  0  0  0  0  0  0  0  0  0  0  0
   -0.6428    2.2848   -0.7199 C   0  0  0  0  0  0  0  0  0  0  0  0
   -0.9985    3.6331   -0.7225 C   0  0  0  0  0  0  0  0  0  0  0  0
   -0.0213    4.6067   -0.5165 C   0  0  0  0  0  0  0  0  0  0  0  0
   -2.4072    4.0298   -0.9486 C   0  0  0  0  0  0  0  0  0  0  0  0
   -3.6318    5.6495   -1.0950 H   0  0  0  0  0  0  0  0  0  0  0  0
   -3.3703    3.0656   -1.1519 N   0  0  0  0  0  0  0  0  0  0  0  0
    1.3505    7.5027   -2.1354 C   0  0  0  0  0  0  0  0  0  0  0  0
    1.1054    8.3975   -3.1538 C   0  0  0  0  0  0  0  0  0  0  0  0
    1.9381    8.4558   -4.2620 C   0  0  0  0  0  0  0  0  0  0  0  0
    3.0286    7.6146   -4.3616 C   0  0  0  0  0  0  0  0  0  0  0  0
    3.8407    7.6749   -5.4481 O   0  0  0  0  0  0  0  0  0  0  0  0
   12.6550    1.2179   -5.9374 H   0  0  0  0  0  0  0  0  0  0  0  0
   13.0959    3.1376   -4.4676 H   0  0  0  0  0  0  0  0  0  0  0  0
   11.4310    3.8826   -2.8534 H   0  0  0  0  0  0  0  0  0  0  0  0
    9.1905    3.6091   -1.8242 H   0  0  0  0  0  0  0  0  0  0  0  0
    6.6413    0.4768   -3.1658 H   0  0  0  0  0  0  0  0  0  0  0  0
    8.3022   -0.2617   -4.7871 H   0  0  0  0  0  0  0  0  0  0  0  0
   10.5424    0.0118   -5.8162 H   0  0  0  0  0  0  0  0  0  0  0  0
    7.2622    2.9682   -0.5510 H   0  0  0  0  0  0  0  0  0  0  0  0
    6.1928    1.6613   -1.1136 H   0  0  0  0  0  0  0  0  0  0  0  0
    6.0522    3.7868   -2.9680 H   0  0  0  0  0  0  0  0  0  0  0  0
    5.1140    5.5027   -3.8085 H   0  0  0  0  0  0  0  0  0  0  0  0
    1.8968    6.1549    0.3889 H   0  0  0  0  0  0  0  0  0  0  0  0
    3.1271    4.8804    0.5629 H   0  0  0  0  0  0  0  0  0  0  0  0
    2.6626    2.6019   -0.1340 H   0  0  0  0  0  0  0  0  0  0  0  0
    0.9466    0.8769   -0.4956 H   0  0  0  0  0  0  0  0  0  0  0  0
   -1.3944    1.5264   -0.8829 H   0  0  0  0  0  0  0  0  0  0  0  0
   -0.2902    5.6527   -0.5217 H   0  0  0  0  0  0  0  0  0  0  0  0
   -3.1256    2.1269   -1.1468 H   0  0  0  0  0  0  0  0  0  0  0  0
   -4.2931    3.3255   -1.3000 H   0  0  0  0  0  0  0  0  0  0  0  0
    0.6943    7.4678   -1.2784 H   0  0  0  0  0  0  0  0  0  0  0  0
    0.2558    9.0612   -3.0886 H   0  0  0  0  0  0  0  0  0  0  0  0
    1.7322    9.1634   -5.0514 H   0  0  0  0  0  0  0  0  0  0  0  0
    3.5741    7.0905   -6.1710 H   0  0  0  0  0  0  0  0  0  0  0  0
   -2.6761    5.3262   -0.9437 N   0  3  0  0  0  0  0  0  0  0  0  0
   -1.9228    6.0062   -0.7877 H   0  0  0  0  0  0  0  0  0  0  0  0
  1 10  2  0  0  0  0
  1  2  1  0  0  0  0
  1 35  1  0  0  0  0
  2  3  2  0  0  0  0
  2 36  1  0  0  0  0
  3  4  1  0  0  0  0
  3 37  1  0  0  0  0
  4  9  2  0  0  0  0
  4  5  1  0  0  0  0
  5  6  2  0  0  0  0
  5 38  1  0  0  0  0
  6  7  1  0  0  0  0
  6 11  1  0  0  0  0
  7  8  2  0  0  0  0
  7 39  1  0  0  0  0
  8  9  1  0  0  0  0
  8 40  1  0  0  0  0
  9 10  1  0  0  0  0
 10 41  1  0  0  0  0
 11 12  1  0  0  0  0
 11 42  1  0  0  0  0
 11 43  1  0  0  0  0
 12 13  1  0  0  0  0
 12 44  1  0  0  0  0
 13 14  2  0  0  0  0
 13 15  1  0  0  0  0
 15 19  1  0  0  0  0
 15 16  2  0  0  0  0
 16 17  1  0  0  0  0
 16 45  1  0  0  0  0
 17 33  2  0  0  0  0
 17 18  1  0  0  0  0
 18 19  1  0  0  0  0
 18 30  2  0  0  0  0
 19 20  1  0  0  0  0
 20 21  1  0  0  0  0
 20 46  1  0  0  0  0
 20 47  1  0  0  0  0
 21 26  2  0  0  0  0
 21 22  1  0  0  0  0
 22 23  2  0  0  0  0
 22 48  1  0  0  0  0
 23 24  1  0  0  0  0
 23 49  1  0  0  0  0
 24 25  2  0  0  0  0
 24 50  1  0  0  0  0
 25 26  1  0  0  0  0
 25 27  1  0  0  0  0
 26 51  1  0  0  0  0
 27 29  1  0  0  0  0
 27 58  2  0  0  0  0
 28 58  1  0  0  0  0
 29 52  1  0  0  0  0
 29 53  1  0  0  0  0
 30 31  1  0  0  0  0
 30 54  1  0  0  0  0
 31 32  2  0  0  0  0
 31 55  1  0  0  0  0
 32 33  1  0  0  0  0
 32 56  1  0  0  0  0
 33 34  1  0  0  0  0
 34 57  1  0  0  0  0
 58 59  1  0  0  0  0
M  CHG  1  58   1
M  END
$$$$
ZINC04631204
  -OEChem-08230709403D

 63 67  0     0  0  0  0  0  0999 V2000
   -4.5687   14.7291   -7.7458 C   0  0  0  0  0  0  0  0  0  0  0  0
   -5.4653   14.4484   -6.7162 C   0  0  0  0  0  0  0  0  0  0  0  0
   -5.0800   13.7246   -5.6300 C   0  0  0  0  0  0  0  0  0  0  0  0
   -3.7589   13.2518   -5.5419 C   0  0  0  0  0  0  0  0  0  0  0  0
   -3.3268   12.5023   -4.4356 C   0  0  0  0  0  0  0  0  0  0  0  0
   -2.0248   12.0568   -4.3850 C   0  0  0  0  0  0  0  0  0  0  0  0
   -1.1295   12.3480   -5.4211 C   0  0  0  0  0  0  0  0  0  0  0  0
   -1.5249   13.0667   -6.5047 C   0  0  0  0  0  0  0  0  0  0  0  0
   -2.8471   13.5373   -6.5890 C   0  0  0  0  0  0  0  0  0  0  0  0
   -3.2823   14.2877   -7.6947 C   0  0  0  0  0  0  0  0  0  0  0  0
   -1.5910   11.3106   -3.2844 N   0  0  0  0  0  0  0  0  0  0  0  0
   -0.7070   10.3079   -3.4564 C   0  0  0  0  0  0  0  0  0  0  0  0
   -0.2244   10.1059   -4.5506 O   0  0  0  0  0  0  0  0  0  0  0  0
   -0.3184    9.4376   -2.2891 C   0  0  0  0  0  0  0  0  0  0  0  0
    0.6480    8.4295   -2.7320 N   0  0  0  0  0  0  0  0  0  0  0  0
    1.1396    7.5348   -1.8519 C   0  0  0  0  0  0  0  0  0  0  0  0
    0.8524    7.6204   -0.6728 O   0  0  0  0  0  0  0  0  0  0  0  0
    2.0222    6.4562   -2.3167 C   0  0  0  0  0  0  0  0  0  0  0  0
    2.4967    6.3159   -3.5828 C   0  0  0  0  0  0  0  0  0  0  0  0
    3.3055    5.1562   -3.6142 C   0  0  0  0  0  0  0  0  0  0  0  0
    3.2994    4.6136   -2.3145 C   0  0  0  0  0  0  0  0  0  0  0  0
    2.5031    5.4209   -1.5362 N   0  0  0  0  0  0  0  0  0  0  0  0
    2.2168    5.2205   -0.1135 C   0  0  0  0  0  0  0  0  0  0  0  0
    1.0480    4.2810    0.0362 C   0  0  0  0  0  0  0  0  0  0  0  0
    1.2556    2.9131    0.0222 C   0  0  0  0  0  0  0  0  0  0  0  0
    0.1880    2.0446    0.1595 C   0  0  0  0  0  0  0  0  0  0  0  0
   -1.0925    2.5381    0.3053 C   0  0  0  0  0  0  0  0  0  0  0  0
   -1.3074    3.9157    0.3259 C   0  0  0  0  0  0  0  0  0  0  0  0
   -0.2267    4.7866    0.1875 C   0  0  0  0  0  0  0  0  0  0  0  0
   -2.6782    4.4520    0.4886 C   0  0  0  0  0  0  0  0  0  0  0  0
   -3.7372    6.1868    0.6040 H   0  0  0  0  0  0  0  0  0  0  0  0
   -3.7437    3.5893    0.6252 N   0  0  0  0  0  0  0  0  0  0  0  0
    4.0268    3.4570   -2.0498 C   0  0  0  0  0  0  0  0  0  0  0  0
    4.7500    2.8512   -3.0538 C   0  0  0  0  0  0  0  0  0  0  0  0
    4.7642    3.3812   -4.3359 C   0  0  0  0  0  0  0  0  0  0  0  0
    4.0452    4.5233   -4.6281 C   0  0  0  0  0  0  0  0  0  0  0  0
    4.0635    5.0394   -5.8837 O   0  0  0  0  0  0  0  0  0  0  0  0
   -4.8997   15.3059   -8.5968 H   0  0  0  0  0  0  0  0  0  0  0  0
   -6.4805   14.8108   -6.7812 H   0  0  0  0  0  0  0  0  0  0  0  0
   -5.7853   13.5151   -4.8395 H   0  0  0  0  0  0  0  0  0  0  0  0
   -4.0105   12.2774   -3.6303 H   0  0  0  0  0  0  0  0  0  0  0  0
   -0.1112   11.9931   -5.3602 H   0  0  0  0  0  0  0  0  0  0  0  0
   -0.8234   13.2799   -7.2976 H   0  0  0  0  0  0  0  0  0  0  0  0
   -2.5990   14.5131   -8.5002 H   0  0  0  0  0  0  0  0  0  0  0  0
   -1.9262   11.5149   -2.3974 H   0  0  0  0  0  0  0  0  0  0  0  0
   -1.2052    8.9420   -1.8941 H   0  0  0  0  0  0  0  0  0  0  0  0
    0.1307   10.0538   -1.5101 H   0  0  0  0  0  0  0  0  0  0  0  0
    0.9339    8.4059   -3.6585 H   0  0  0  0  0  0  0  0  0  0  0  0
    2.2926    6.9724   -4.4156 H   0  0  0  0  0  0  0  0  0  0  0  0
    1.9742    6.1783    0.3467 H   0  0  0  0  0  0  0  0  0  0  0  0
    3.0916    4.7931    0.3766 H   0  0  0  0  0  0  0  0  0  0  0  0
    2.2553    2.5221   -0.0961 H   0  0  0  0  0  0  0  0  0  0  0  0
    0.3562    0.9778    0.1481 H   0  0  0  0  0  0  0  0  0  0  0  0
   -1.9259    1.8590    0.4080 H   0  0  0  0  0  0  0  0  0  0  0  0
   -0.3875    5.8545    0.1984 H   0  0  0  0  0  0  0  0  0  0  0  0
   -3.5960    2.6306    0.6148 H   0  0  0  0  0  0  0  0  0  0  0  0
   -4.6416    3.9405    0.7318 H   0  0  0  0  0  0  0  0  0  0  0  0
    4.0240    3.0337   -1.0562 H   0  0  0  0  0  0  0  0  0  0  0  0
    5.3123    1.9542   -2.8404 H   0  0  0  0  0  0  0  0  0  0  0  0
    5.3363    2.8941   -5.1116 H   0  0  0  0  0  0  0  0  0  0  0  0
    4.7747    5.6764   -6.0368 H   0  0  0  0  0  0  0  0  0  0  0  0
   -2.8129    5.7692    0.4947 N   0  3  0  0  0  0  0  0  0  0  0  0
   -1.9871    6.3702    0.3895 H   0  0  0  0  0  0  0  0  0  0  0  0
  1 10  2  0  0  0  0
  1  2  1  0  0  0  0
  1 38  1  0  0  0  0
  2  3  2  0  0  0  0
  2 39  1  0  0  0  0
  3  4  1  0  0  0  0
  3 40  1  0  0  0  0
  4  9  2  0  0  0  0
  4  5  1  0  0  0  0
  5  6  2  0  0  0  0
  5 41  1  0  0  0  0
  6  7  1  0  0  0  0
  6 11  1  0  0  0  0
  7  8  2  0  0  0  0
  7 42  1  0  0  0  0
  8  9  1  0  0  0  0
  8 43  1  0  0  0  0
  9 10  1  0  0  0  0
 10 44  1  0  0  0  0
 11 12  1  0  0  0  0
 11 45  1  0  0  0  0
 12 13  2  0  0  0  0
 12 14  1  0  0  0  0
 14 15  1  0  0  0  0
 14 46  1  0  0  0  0
 14 47  1  0  0  0  0
 15 16  1  0  0  0  0
 15 48  1  0  0  0  0
 16 17  2  0  0  0  0
 16 18  1  0  0  0  0
 18 22  1  0  0  0  0
 18 19  2  0  0  0  0
 19 20  1  0  0  0  0
 19 49  1  0  0  0  0
 20 36  2  0  0  0  0
 20 21  1  0  0  0  0
 21 22  1  0  0  0  0
 21 33  2  0  0  0  0
 22 23  1  0  0  0  0
 23 24  1  0  0  0  0
 23 50  1  0  0  0  0
 23 51  1  0  0  0  0
 24 29  2  0  0  0  0
 24 25  1  0  0  0  0
 25 26  2  0  0  0  0
 25 52  1  0  0  0  0
 26 27  1  0  0  0  0
 26 53  1  0  0  0  0
 27 28  2  0  0  0  0
 27 54  1  0  0  0  0
 28 29  1  0  0  0  0
 28 30  1  0  0  0  0
 29 55  1  0  0  0  0
 30 32  1  0  0  0  0
 30 62  2  0  0  0  0
 31 62  1  0  0  0  0
 32 56  1  0  0  0  0
 32 57  1  0  0  0  0
 33 34  1  0  0  0  0
 33 58  1  0  0  0  0
 34 35  2  0  0  0  0
 34 59  1  0  0  0  0
 35 36  1  0  0  0  0
 35 60  1  0  0  0  0
 36 37  1  0  0  0  0
 37 61  1  0  0  0  0
 62 63  1  0  0  0  0
M  CHG  1  62   1
M  END
$$$$
ZINC04631205
  -OEChem-08230709403D

 52 55  0     0  0  0  0  0  0999 V2000
   10.0283    2.3009   -3.3222 C   0  0  0  0  0  0  0  0  0  0  0  0
    9.7072    1.2828   -4.2074 C   0  0  0  0  0  0  0  0  0  0  0  0
    8.4499    0.7124   -4.1502 C   0  0  0  0  0  0  0  0  0  0  0  0
    7.5628    1.1224   -3.2645 N   0  0  0  0  0  0  0  0  0  0  0  0
    7.8315    2.0910   -2.4113 C   0  0  0  0  0  0  0  0  0  0  0  0
    9.0681    2.7085   -2.4091 C   0  0  0  0  0  0  0  0  0  0  0  0
    6.7803    2.5258   -1.4228 C   0  0  0  0  0  0  0  0  0  0  0  0
    5.9004    3.5155   -2.0492 N   0  0  0  0  0  0  0  0  0  0  0  0
    4.8800    4.0491   -1.3489 C   0  0  0  0  0  0  0  0  0  0  0  0
    4.6350    3.6454   -0.2275 O   0  0  0  0  0  0  0  0  0  0  0  0
    4.0634    5.1181   -1.9394 C   0  0  0  0  0  0  0  0  0  0  0  0
    4.3001    5.7228   -3.1337 C   0  0  0  0  0  0  0  0  0  0  0  0
    3.2928    6.6956   -3.3315 C   0  0  0  0  0  0  0  0  0  0  0  0
    2.4425    6.6431   -2.2100 C   0  0  0  0  0  0  0  0  0  0  0  0
    2.9294    5.6685   -1.3706 N   0  0  0  0  0  0  0  0  0  0  0  0
    2.3465    5.2816   -0.0835 C   0  0  0  0  0  0  0  0  0  0  0  0
    1.2895    4.2309   -0.3063 C   0  0  0  0  0  0  0  0  0  0  0  0
    1.6353    2.8912   -0.2993 C   0  0  0  0  0  0  0  0  0  0  0  0
    0.6707    1.9210   -0.5025 C   0  0  0  0  0  0  0  0  0  0  0  0
   -0.6428    2.2848   -0.7199 C   0  0  0  0  0  0  0  0  0  0  0  0
   -0.9985    3.6331   -0.7225 C   0  0  0  0  0  0  0  0  0  0  0  0
   -0.0213    4.6067   -0.5165 C   0  0  0  0  0  0  0  0  0  0  0  0
   -2.4072    4.0298   -0.9486 C   0  0  0  0  0  0  0  0  0  0  0  0
   -3.6318    5.6495   -1.0950 H   0  0  0  0  0  0  0  0  0  0  0  0
   -3.3703    3.0656   -1.1519 N   0  0  0  0  0  0  0  0  0  0  0  0
    1.3505    7.5027   -2.1354 C   0  0  0  0  0  0  0  0  0  0  0  0
    1.1054    8.3975   -3.1538 C   0  0  0  0  0  0  0  0  0  0  0  0
    1.9381    8.4558   -4.2620 C   0  0  0  0  0  0  0  0  0  0  0  0
    3.0286    7.6146   -4.3616 C   0  0  0  0  0  0  0  0  0  0  0  0
    3.8407    7.6749   -5.4481 O   0  0  0  0  0  0  0  0  0  0  0  0
   11.0030    2.7655   -3.3441 H   0  0  0  0  0  0  0  0  0  0  0  0
   10.4308    0.9398   -4.9319 H   0  0  0  0  0  0  0  0  0  0  0  0
    8.1920   -0.0809   -4.8360 H   0  0  0  0  0  0  0  0  0  0  0  0
    9.2838    3.4984   -1.7049 H   0  0  0  0  0  0  0  0  0  0  0  0
    7.2622    2.9682   -0.5510 H   0  0  0  0  0  0  0  0  0  0  0  0
    6.1928    1.6613   -1.1136 H   0  0  0  0  0  0  0  0  0  0  0  0
    6.0522    3.7868   -2.9680 H   0  0  0  0  0  0  0  0  0  0  0  0
    5.1140    5.5027   -3.8085 H   0  0  0  0  0  0  0  0  0  0  0  0
    1.8968    6.1549    0.3889 H   0  0  0  0  0  0  0  0  0  0  0  0
    3.1271    4.8804    0.5629 H   0  0  0  0  0  0  0  0  0  0  0  0
    2.6626    2.6019   -0.1340 H   0  0  0  0  0  0  0  0  0  0  0  0
    0.9466    0.8769   -0.4956 H   0  0  0  0  0  0  0  0  0  0  0  0
   -1.3944    1.5264   -0.8829 H   0  0  0  0  0  0  0  0  0  0  0  0
   -0.2902    5.6527   -0.5217 H   0  0  0  0  0  0  0  0  0  0  0  0
   -3.1256    2.1269   -1.1468 H   0  0  0  0  0  0  0  0  0  0  0  0
   -4.2931    3.3255   -1.3000 H   0  0  0  0  0  0  0  0  0  0  0  0
    0.6943    7.4678   -1.2784 H   0  0  0  0  0  0  0  0  0  0  0  0
    0.2558    9.0612   -3.0886 H   0  0  0  0  0  0  0  0  0  0  0  0
    1.7322    9.1634   -5.0514 H   0  0  0  0  0  0  0  0  0  0  0  0
    3.5741    7.0905   -6.1710 H   0  0  0  0  0  0  0  0  0  0  0  0
   -2.6761    5.3262   -0.9437 N   0  3  0  0  0  0  0  0  0  0  0  0
   -1.9228    6.0062   -0.7877 H   0  0  0  0  0  0  0  0  0  0  0  0
  1  6  2  0  0  0  0
  1  2  1  0  0  0  0
  1 31  1  0  0  0  0
  2  3  2  0  0  0  0
  2 32  1  0  0  0  0
  3  4  1  0  0  0  0
  3 33  1  0  0  0  0
  4  5  2  0  0  0  0
  5  6  1  0  0  0  0
  5  7  1  0  0  0  0
  6 34  1  0  0  0  0
  7  8  1  0  0  0  0
  7 35  1  0  0  0  0
  7 36  1  0  0  0  0
  8  9  1  0  0  0  0
  8 37  1  0  0  0  0
  9 10  2  0  0  0  0
  9 11  1  0  0  0  0
 11 15  1  0  0  0  0
 11 12  2  0  0  0  0
 12 13  1  0  0  0  0
 12 38  1  0  0  0  0
 13 29  2  0  0  0  0
 13 14  1  0  0  0  0
 14 15  1  0  0  0  0
 14 26  2  0  0  0  0
 15 16  1  0  0  0  0
 16 17  1  0  0  0  0
 16 39  1  0  0  0  0
 16 40  1  0  0  0  0
 17 22  2  0  0  0  0
 17 18  1  0  0  0  0
 18 19  2  0  0  0  0
 18 41  1  0  0  0  0
 19 20  1  0  0  0  0
 19 42  1  0  0  0  0
 20 21  2  0  0  0  0
 20 43  1  0  0  0  0
 21 22  1  0  0  0  0
 21 23  1  0  0  0  0
 22 44  1  0  0  0  0
 23 25  1  0  0  0  0
 23 51  2  0  0  0  0
 24 51  1  0  0  0  0
 25 45  1  0  0  0  0
 25 46  1  0  0  0  0
 26 27  1  0  0  0  0
 26 47  1  0  0  0  0
 27 28  2  0  0  0  0
 27 48  1  0  0  0  0
 28 29  1  0  0  0  0
 28 49  1  0  0  0  0
 29 30  1  0  0  0  0
 30 50  1  0  0  0  0
 51 52  1  0  0  0  0
M  CHG  1  51   1
M  END
$$$$
ZINC04633281
  -OEChem-08230709403D

 75 77  0     1  0  0  0  0  0999 V2000
   -0.5905   -4.2086    1.2344 C   0  0  0  0  0  0  0  0  0  0  0  0
   -0.5311   -2.6798    1.2421 C   0  0  2  0  0  0  0  0  0  0  0  0
   -1.0220   -2.3016    2.1388 H   0  0  0  0  0  0  0  0  0  0  0  0
   -1.2439   -2.1355    0.0025 C   0  0  1  0  0  0  0  0  0  0  0  0
   -0.7531   -2.5137   -0.8943 H   0  0  0  0  0  0  0  0  0  0  0  0
   -2.7051   -2.5893    0.0140 C   0  0  0  0  0  0  0  0  0  0  0  0
   -3.3751   -2.1579   -1.2651 C   0  0  0  0  0  0  0  0  0  0  0  0
   -4.0043   -0.9287   -1.3354 C   0  0  0  0  0  0  0  0  0  0  0  0
   -4.6146   -0.5311   -2.5100 C   0  0  0  0  0  0  0  0  0  0  0  0
   -4.6051   -1.3668   -3.6113 C   0  0  0  0  0  0  0  0  0  0  0  0
   -3.9806   -2.5977   -3.5394 C   0  0  0  0  0  0  0  0  0  0  0  0
   -3.3656   -2.9933   -2.3661 C   0  0  0  0  0  0  0  0  0  0  0  0
   -3.9707   -3.5089   -4.7397 C   0  0  0  0  0  0  0  0  0  0  0  0
   -1.1855   -0.6297    0.0100 C   0  0  0  0  0  0  0  0  0  0  0  0
   -2.2076    0.0145    0.0232 O   0  0  0  0  0  0  0  0  0  0  0  0
    0.0021   -0.0041    0.0020 O   0  0  0  0  0  0  0  0  0  0  0  0
   -0.0176    1.4478    0.0100 C   0  0  0  0  0  0  0  0  0  0  0  0
    0.8679   -2.2453    1.2310 N   0  0  0  0  0  0  0  0  0  0  0  0
    1.5527   -2.1489    2.3878 C   0  0  0  0  0  0  0  0  0  0  0  0
    1.0108   -2.4217    3.4379 O   0  0  0  0  0  0  0  0  0  0  0  0
    2.9919   -1.7020    2.3765 C   0  0  0  0  0  0  0  0  0  0  0  0
    3.8214   -2.6747    1.5359 C   0  0  0  0  0  0  0  0  0  0  0  0
    3.7278   -4.0778    2.1389 C   0  0  0  0  0  0  0  0  0  0  0  0
    4.2658   -4.0543    3.5710 C   0  0  0  0  0  0  0  0  0  0  0  0
    3.4364   -3.0815    4.4116 C   0  0  0  0  0  0  0  0  0  0  0  0
    3.5299   -1.6785    3.8086 C   0  0  0  0  0  0  0  0  0  0  0  0
    4.1723   -5.4573    4.1740 C   0  0  0  0  0  0  0  0  0  0  0  0
    4.7099   -5.4334    5.6067 C   0  0  0  0  0  0  0  0  0  0  0  0
    4.5823   -6.8318    6.2191 C   0  0  0  0  0  0  0  0  0  0  0  0
    5.2549   -7.7966    5.3385 N   0  3  0  0  0  0  0  0  0  0  0  0
    4.8776   -7.8400    3.9192 C   0  0  0  0  0  0  0  0  0  0  0  0
    5.0015   -6.4303    3.3327 C   0  0  0  0  0  0  0  0  0  0  0  0
    6.2483   -8.6677    5.8479 O   0  5  0  0  0  0  0  0  0  0  0  0
   -0.0996   -4.5868    0.3377 H   0  0  0  0  0  0  0  0  0  0  0  0
   -0.0826   -4.5963    2.1175 H   0  0  0  0  0  0  0  0  0  0  0  0
   -1.6314   -4.5319    1.2426 H   0  0  0  0  0  0  0  0  0  0  0  0
   -2.7476   -3.6752    0.0981 H   0  0  0  0  0  0  0  0  0  0  0  0
   -3.2188   -2.1386    0.8632 H   0  0  0  0  0  0  0  0  0  0  0  0
   -4.0156   -0.2778   -0.4737 H   0  0  0  0  0  0  0  0  0  0  0  0
   -5.1029    0.4306   -2.5661 H   0  0  0  0  0  0  0  0  0  0  0  0
   -5.0859   -1.0579   -4.5278 H   0  0  0  0  0  0  0  0  0  0  0  0
   -2.8779   -3.9553   -2.3097 H   0  0  0  0  0  0  0  0  0  0  0  0
   -4.8476   -4.1557   -4.7122 H   0  0  0  0  0  0  0  0  0  0  0  0
   -3.1923   -2.0935   -6.0162 H   0  0  0  0  0  0  0  0  0  0  0  0
   -4.0545   -3.2900   -6.7850 H   0  0  0  0  0  0  0  0  0  0  0  0
   -2.7239   -4.9522   -5.5149 H   0  0  0  0  0  0  0  0  0  0  0  0
   -1.9276   -3.7548   -4.6793 H   0  0  0  0  0  0  0  0  0  0  0  0
    1.0050    1.8251    0.0023 H   0  0  0  0  0  0  0  0  0  0  0  0
   -0.5448    1.8089   -0.8731 H   0  0  0  0  0  0  0  0  0  0  0  0
   -0.5278    1.7993    0.9068 H   0  0  0  0  0  0  0  0  0  0  0  0
    1.3014   -2.0271    0.3912 H   0  0  0  0  0  0  0  0  0  0  0  0
    3.0586   -0.7024    1.9469 H   0  0  0  0  0  0  0  0  0  0  0  0
    3.4381   -2.6914    0.5157 H   0  0  0  0  0  0  0  0  0  0  0  0
    4.8623   -2.3515    1.5277 H   0  0  0  0  0  0  0  0  0  0  0  0
    4.3188   -4.7708    1.5401 H   0  0  0  0  0  0  0  0  0  0  0  0
    2.6869   -4.4010    2.1471 H   0  0  0  0  0  0  0  0  0  0  0  0
    5.3068   -3.7310    3.5628 H   0  0  0  0  0  0  0  0  0  0  0  0
    3.8197   -3.0648    5.4318 H   0  0  0  0  0  0  0  0  0  0  0  0
    2.3954   -3.4048    4.4198 H   0  0  0  0  0  0  0  0  0  0  0  0
    4.5709   -1.3552    3.8004 H   0  0  0  0  0  0  0  0  0  0  0  0
    2.9390   -0.9855    4.4074 H   0  0  0  0  0  0  0  0  0  0  0  0
    3.1313   -5.7804    4.1822 H   0  0  0  0  0  0  0  0  0  0  0  0
    5.7580   -5.1345    5.5970 H   0  0  0  0  0  0  0  0  0  0  0  0
    4.1339   -4.7229    6.1996 H   0  0  0  0  0  0  0  0  0  0  0  0
    3.5288   -7.0953    6.3127 H   0  0  0  0  0  0  0  0  0  0  0  0
    5.0513   -6.8463    7.2029 H   0  0  0  0  0  0  0  0  0  0  0  0
    3.8481   -8.1857    3.8252 H   0  0  0  0  0  0  0  0  0  0  0  0
    5.5412   -8.5185    3.3830 H   0  0  0  0  0  0  0  0  0  0  0  0
    4.6331   -6.4293    2.3068 H   0  0  0  0  0  0  0  0  0  0  0  0
    6.0468   -6.1215    3.3442 H   0  0  0  0  0  0  0  0  0  0  0  0
   -4.0170   -2.6891   -5.9633 N   0  3  0  0  0  0  0  0  0  0  0  0
   -4.8563   -2.0980   -5.9420 H   0  0  0  0  0  0  0  0  0  0  0  0
   -2.7578   -4.3448   -4.6979 N   0  3  0  0  0  0  0  0  0  0  0  0
   -2.7762   -4.9240   -3.8503 H   0  0  0  0  0  0  0  0  0  0  0  0
    5.9416   -8.4257    5.7027 H   0  0  0  0  0  0  0  0  0  0  0  0
  1  2  1  0  0  0  0
  1 34  1  0  0  0  0
  1 35  1  0  0  0  0
  1 36  1  0  0  0  0
  2  3  1  0  0  0  0
  2  4  1  0  0  0  0
  2 18  1  0  0  0  0
  4  5  1  0  0  0  0
  4  6  1  0  0  0  0
  4 14  1  0  0  0  0
  6  7  1  0  0  0  0
  6 37  1  0  0  0  0
  6 38  1  0  0  0  0
  7 12  2  0  0  0  0
  7  8  1  0  0  0  0
  8  9  2  0  0  0  0
  8 39  1  0  0  0  0
  9 10  1  0  0  0  0
  9 40  1  0  0  0  0
 10 11  2  0  0  0  0
 10 41  1  0  0  0  0
 11 12  1  0  0  0  0
 11 13  1  0  0  0  0
 12 42  1  0  0  0  0
 13 43  1  0  0  0  0
 13 71  1  0  0  0  0
 13 73  1  0  0  0  0
 14 15  2  0  0  0  0
 14 16  1  0  0  0  0
 16 17  1  0  0  0  0
 17 48  1  0  0  0  0
 17 49  1  0  0  0  0
 17 50  1  0  0  0  0
 18 19  1  0  0  0  0
 18 51  1  0  0  0  0
 19 20  2  0  0  0  0
 19 21  1  0  0  0  0
 21 26  1  0  0  0  0
 21 22  1  0  0  0  0
 21 52  1  0  0  0  0
 22 23  1  0  0  0  0
 22 53  1  0  0  0  0
 22 54  1  0  0  0  0
 23 24  1  0  0  0  0
 23 55  1  0  0  0  0
 23 56  1  0  0  0  0
 24 25  1  0  0  0  0
 24 27  1  0  0  0  0
 24 57  1  0  0  0  0
 25 26  1  0  0  0  0
 25 58  1  0  0  0  0
 25 59  1  0  0  0  0
 26 60  1  0  0  0  0
 26 61  1  0  0  0  0
 27 32  1  0  0  0  0
 27 28  1  0  0  0  0
 27 62  1  0  0  0  0
 28 29  1  0  0  0  0
 28 63  1  0  0  0  0
 28 64  1  0  0  0  0
 29 30  1  0  0  0  0
 29 65  1  0  0  0  0
 29 66  1  0  0  0  0
 30 31  1  0  0  0  0
 30 33  1  0  0  0  0
 31 32  1  0  0  0  0
 31 67  1  0  0  0  0
 31 68  1  0  0  0  0
 32 69  1  0  0  0  0
 32 70  1  0  0  0  0
 44 71  1  0  0  0  0
 45 71  1  0  0  0  0
 46 73  1  0  0  0  0
 47 73  1  0  0  0  0
 71 72  1  0  0  0  0
 73 74  1  0  0  0  0
 30 75  1  0  0  0  0
M  CHG  4  30   1  33  -1  71   1  73   1
M  END
$$$$
