ZINC01546562
  -OEChem-08230709403D

 52 55  0     1  0  0  0  0  0999 V2000
   -0.3960    9.4445    0.7715 C   0  0  0  0  0  0  0  0  0  0  0  0
   -0.2963    7.9314    0.9752 C   0  0  0  0  0  0  0  0  0  0  0  0
    0.9194    7.3938    0.2176 C   0  0  0  0  0  0  0  0  0  0  0  0
    1.0190    5.8807    0.4213 C   0  0  0  0  0  0  0  0  0  0  0  0
    2.2439    5.3390   -0.3420 C   0  0  2  0  0  0  0  0  0  0  0  0
    2.2026    5.6544   -1.3768 H   0  0  0  0  0  0  0  0  0  0  0  0
    2.2633    3.8392   -0.2373 C   0  0  0  0  0  0  0  0  0  0  0  0
    3.4803    3.2031    0.0486 C   0  0  0  0  0  0  0  0  0  0  0  0
    3.5266    1.8443    0.3461 C   0  0  0  0  0  0  0  0  0  0  0  0
    2.3669    1.0978    0.3493 C   0  0  0  0  0  0  0  0  0  0  0  0
    1.1715    1.7004   -0.0023 C   0  0  0  0  0  0  0  0  0  0  0  0
    1.1428    3.0444   -0.4236 C   0  0  0  0  0  0  0  0  0  0  0  0
   -0.0726    3.4667   -1.1446 C   0  0  0  0  0  0  0  0  0  0  0  0
   -1.2326    2.8684   -0.8642 C   0  0  0  0  0  0  0  0  0  0  0  0
   -1.2860    1.6966    0.0763 C   0  0  0  0  0  0  0  0  0  0  0  0
   -0.0137    0.9643    0.0072 N   0  0  0  0  0  0  0  0  0  0  0  0
   -2.4297    0.7657   -0.3312 C   0  0  0  0  0  0  0  0  0  0  0  0
   -1.5165    2.1906    1.5048 C   0  0  0  0  0  0  0  0  0  0  0  0
   -0.0745    4.5221   -2.2150 C   0  0  0  0  0  0  0  0  0  0  0  0
    4.7245    4.0068    0.0772 C   0  0  0  0  0  0  0  0  0  0  0  0
    5.9785    3.4178   -0.0090 C   0  0  0  0  0  0  0  0  0  0  0  0
    7.1061    4.2179   -0.0768 C   0  0  0  0  0  0  0  0  0  0  0  0
    6.9841    5.5979   -0.0482 C   0  0  0  0  0  0  0  0  0  0  0  0
    5.7390    6.1892    0.0651 C   0  0  0  0  0  0  0  0  0  0  0  0
    4.6066    5.3989    0.1459 C   0  0  0  0  0  0  0  0  0  0  0  0
    3.3774    5.9366    0.2949 O   0  0  0  0  0  0  0  0  0  0  0  0
    8.3294    3.6516   -0.1674 F   0  0  0  0  0  0  0  0  0  0  0  0
    0.5080    9.9223    1.1492 H   0  0  0  0  0  0  0  0  0  0  0  0
   -0.5048    9.6617   -0.2911 H   0  0  0  0  0  0  0  0  0  0  0  0
   -1.2621    9.8276    1.3111 H   0  0  0  0  0  0  0  0  0  0  0  0
   -1.2003    7.4537    0.5974 H   0  0  0  0  0  0  0  0  0  0  0  0
   -0.1875    7.7143    2.0377 H   0  0  0  0  0  0  0  0  0  0  0  0
    1.8233    7.8716    0.5954 H   0  0  0  0  0  0  0  0  0  0  0  0
    0.8106    7.6110   -0.8450 H   0  0  0  0  0  0  0  0  0  0  0  0
    0.1151    5.4029    0.0435 H   0  0  0  0  0  0  0  0  0  0  0  0
    1.1278    5.6635    1.4839 H   0  0  0  0  0  0  0  0  0  0  0  0
    4.4728    1.3746    0.5719 H   0  0  0  0  0  0  0  0  0  0  0  0
    2.3877    0.0536    0.6217 H   0  0  0  0  0  0  0  0  0  0  0  0
   -2.1312    3.2065   -1.3540 H   0  0  0  0  0  0  0  0  0  0  0  0
   -0.0024   -0.0042    0.0019 H   0  0  0  0  0  0  0  0  0  0  0  0
   -2.4630   -0.0873    0.3466 H   0  0  0  0  0  0  0  0  0  0  0  0
   -3.3744    1.3071   -0.2806 H   0  0  0  0  0  0  0  0  0  0  0  0
   -2.2666    0.4140   -1.3499 H   0  0  0  0  0  0  0  0  0  0  0  0
   -0.7012    2.8528    1.7962 H   0  0  0  0  0  0  0  0  0  0  0  0
   -2.4605    2.7334    1.5537 H   0  0  0  0  0  0  0  0  0  0  0  0
   -1.5521    1.3379    2.1829 H   0  0  0  0  0  0  0  0  0  0  0  0
    0.9166    4.5857   -2.6643 H   0  0  0  0  0  0  0  0  0  0  0  0
   -0.8046    4.2613   -2.9811 H   0  0  0  0  0  0  0  0  0  0  0  0
   -0.3367    5.4846   -1.7758 H   0  0  0  0  0  0  0  0  0  0  0  0
    6.0759    2.3429   -0.0373 H   0  0  0  0  0  0  0  0  0  0  0  0
    7.8671    6.2159   -0.1148 H   0  0  0  0  0  0  0  0  0  0  0  0
    5.6510    7.2650    0.0903 H   0  0  0  0  0  0  0  0  0  0  0  0
  1  2  1  0  0  0  0
  1 28  1  0  0  0  0
  1 29  1  0  0  0  0
  1 30  1  0  0  0  0
  2  3  1  0  0  0  0
  2 31  1  0  0  0  0
  2 32  1  0  0  0  0
  3  4  1  0  0  0  0
  3 33  1  0  0  0  0
  3 34  1  0  0  0  0
  4  5  1  0  0  0  0
  4 35  1  0  0  0  0
  4 36  1  0  0  0  0
  5  6  1  0  0  0  0
  5 26  1  0  0  0  0
  5  7  1  0  0  0  0
  7 12  2  0  0  0  0
  7  8  1  0  0  0  0
  8  9  2  0  0  0  0
  8 20  1  0  0  0  0
  9 10  1  0  0  0  0
  9 37  1  0  0  0  0
 10 11  2  0  0  0  0
 10 38  1  0  0  0  0
 11 16  1  0  0  0  0
 11 12  1  0  0  0  0
 12 13  1  0  0  0  0
 13 14  2  0  0  0  0
 13 19  1  0  0  0  0
 14 15  1  0  0  0  0
 14 39  1  0  0  0  0
 15 16  1  0  0  0  0
 15 17  1  0  0  0  0
 15 18  1  0  0  0  0
 16 40  1  0  0  0  0
 17 41  1  0  0  0  0
 17 42  1  0  0  0  0
 17 43  1  0  0  0  0
 18 44  1  0  0  0  0
 18 45  1  0  0  0  0
 18 46  1  0  0  0  0
 19 47  1  0  0  0  0
 19 48  1  0  0  0  0
 19 49  1  0  0  0  0
 20 25  2  0  0  0  0
 20 21  1  0  0  0  0
 21 22  2  0  0  0  0
 21 50  1  0  0  0  0
 22 23  1  0  0  0  0
 22 27  1  0  0  0  0
 23 24  2  0  0  0  0
 23 51  1  0  0  0  0
 24 25  1  0  0  0  0
 24 52  1  0  0  0  0
 25 26  1  0  0  0  0
M  END
$$$$
ZINC02003450
  -OEChem-08230709403D

 53 57  0     1  0  0  0  0  0999 V2000
    3.7814    0.3949   -1.8325 C   0  0  0  0  0  0  0  0  0  0  0  0
    3.6727    0.2784   -0.3339 C   0  0  0  0  0  0  0  0  0  0  0  0
    3.8346    1.3984    0.4601 C   0  0  0  0  0  0  0  0  0  0  0  0
    3.7344    1.2919    1.8345 C   0  0  0  0  0  0  0  0  0  0  0  0
    3.4779    0.0642    2.4164 C   0  0  0  0  0  0  0  0  0  0  0  0
    3.3103   -1.0551    1.6234 C   0  0  0  0  0  0  0  0  0  0  0  0
    3.4104   -0.9491    0.2474 C   0  0  0  0  0  0  0  0  0  0  0  0
    3.2075   -2.3561   -0.7490 Cl  0  0  0  0  0  0  0  0  0  0  0  0
    3.9110    2.5132    2.6995 C   0  0  2  0  0  0  0  0  0  0  0  0
    3.7574    2.2450    3.7413 H   0  0  0  0  0  0  0  0  0  0  0  0
    2.9136    3.5580    2.2765 C   0  0  0  0  0  0  0  0  0  0  0  0
    3.3847    4.8304    1.9365 C   0  0  0  0  0  0  0  0  0  0  0  0
    2.6014    5.7154    1.2063 C   0  0  0  0  0  0  0  0  0  0  0  0
    1.3375    5.3290    0.8074 C   0  0  0  0  0  0  0  0  0  0  0  0
    0.8304    4.1104    1.2238 C   0  0  0  0  0  0  0  0  0  0  0  0
    1.5675    3.2746    2.0915 C   0  0  0  0  0  0  0  0  0  0  0  0
    0.8610    2.1119    2.6476 C   0  0  0  0  0  0  0  0  0  0  0  0
   -0.2252    1.6380    2.0469 C   0  0  0  0  0  0  0  0  0  0  0  0
   -0.7347    2.2433    0.7692 C   0  0  0  0  0  0  0  0  0  0  0  0
   -0.3902    3.6657    0.7152 N   0  0  0  0  0  0  0  0  0  0  0  0
   -0.1077    1.5192   -0.4246 C   0  0  0  0  0  0  0  0  0  0  0  0
   -2.2569    2.0877    0.7074 C   0  0  0  0  0  0  0  0  0  0  0  0
    1.2800    1.4615    3.9430 C   0  0  0  0  0  0  0  0  0  0  0  0
    4.7283    5.2327    2.4186 C   0  0  0  0  0  0  0  0  0  0  0  0
    5.0860    6.5619    2.5864 C   0  0  0  0  0  0  0  0  0  0  0  0
    6.3525    6.8733    3.0520 C   0  0  0  0  0  0  0  0  0  0  0  0
    7.2526    5.8631    3.3501 C   0  0  0  0  0  0  0  0  0  0  0  0
    6.8998    4.5362    3.1841 C   0  0  0  0  0  0  0  0  0  0  0  0
    5.6382    4.2111    2.7170 C   0  0  0  0  0  0  0  0  0  0  0  0
    5.2630    2.9310    2.5260 O   0  0  0  0  0  0  0  0  0  0  0  0
    6.7110    8.1655    3.2163 F   0  0  0  0  0  0  0  0  0  0  0  0
    4.8163    0.2356   -2.1352 H   0  0  0  0  0  0  0  0  0  0  0  0
    3.1458   -0.3557   -2.3023 H   0  0  0  0  0  0  0  0  0  0  0  0
    3.4606    1.3890   -2.1439 H   0  0  0  0  0  0  0  0  0  0  0  0
    4.0390    2.3569    0.0063 H   0  0  0  0  0  0  0  0  0  0  0  0
    3.4042   -0.0193    3.4906 H   0  0  0  0  0  0  0  0  0  0  0  0
    3.1059   -2.0133    2.0778 H   0  0  0  0  0  0  0  0  0  0  0  0
    2.9772    6.6943    0.9525 H   0  0  0  0  0  0  0  0  0  0  0  0
    0.7458    5.9723    0.1729 H   0  0  0  0  0  0  0  0  0  0  0  0
   -0.7486    0.8033    2.4886 H   0  0  0  0  0  0  0  0  0  0  0  0
   -1.0139    4.3041    0.3236 H   0  0  0  0  0  0  0  0  0  0  0  0
   -0.3759    0.4633   -0.3908 H   0  0  0  0  0  0  0  0  0  0  0  0
    0.9768    1.6202   -0.3820 H   0  0  0  0  0  0  0  0  0  0  0  0
   -0.4775    1.9585   -1.3511 H   0  0  0  0  0  0  0  0  0  0  0  0
   -2.5157    1.0295    0.7436 H   0  0  0  0  0  0  0  0  0  0  0  0
   -2.7094    2.6016    1.5555 H   0  0  0  0  0  0  0  0  0  0  0  0
   -2.6291    2.5213   -0.2208 H   0  0  0  0  0  0  0  0  0  0  0  0
    0.6409    0.6010    4.1409 H   0  0  0  0  0  0  0  0  0  0  0  0
    2.3169    1.1341    3.8664 H   0  0  0  0  0  0  0  0  0  0  0  0
    1.1851    2.1797    4.7575 H   0  0  0  0  0  0  0  0  0  0  0  0
    4.3835    7.3500    2.3606 H   0  0  0  0  0  0  0  0  0  0  0  0
    8.2374    6.1136    3.7161 H   0  0  0  0  0  0  0  0  0  0  0  0
    7.6070    3.7547    3.4171 H   0  0  0  0  0  0  0  0  0  0  0  0
  1  2  1  0  0  0  0
  1 32  1  0  0  0  0
  1 33  1  0  0  0  0
  1 34  1  0  0  0  0
  2  7  2  0  0  0  0
  2  3  1  0  0  0  0
  3  4  2  0  0  0  0
  3 35  1  0  0  0  0
  4  5  1  0  0  0  0
  4  9  1  0  0  0  0
  5  6  2  0  0  0  0
  5 36  1  0  0  0  0
  6  7  1  0  0  0  0
  6 37  1  0  0  0  0
  7  8  1  0  0  0  0
  9 10  1  0  0  0  0
  9 30  1  0  0  0  0
  9 11  1  0  0  0  0
 11 16  2  0  0  0  0
 11 12  1  0  0  0  0
 12 13  2  0  0  0  0
 12 24  1  0  0  0  0
 13 14  1  0  0  0  0
 13 38  1  0  0  0  0
 14 15  2  0  0  0  0
 14 39  1  0  0  0  0
 15 20  1  0  0  0  0
 15 16  1  0  0  0  0
 16 17  1  0  0  0  0
 17 18  2  0  0  0  0
 17 23  1  0  0  0  0
 18 19  1  0  0  0  0
 18 40  1  0  0  0  0
 19 20  1  0  0  0  0
 19 21  1  0  0  0  0
 19 22  1  0  0  0  0
 20 41  1  0  0  0  0
 21 42  1  0  0  0  0
 21 43  1  0  0  0  0
 21 44  1  0  0  0  0
 22 45  1  0  0  0  0
 22 46  1  0  0  0  0
 22 47  1  0  0  0  0
 23 48  1  0  0  0  0
 23 49  1  0  0  0  0
 23 50  1  0  0  0  0
 24 29  2  0  0  0  0
 24 25  1  0  0  0  0
 25 26  2  0  0  0  0
 25 51  1  0  0  0  0
 26 27  1  0  0  0  0
 26 31  1  0  0  0  0
 27 28  2  0  0  0  0
 27 52  1  0  0  0  0
 28 29  1  0  0  0  0
 28 53  1  0  0  0  0
 29 30  1  0  0  0  0
M  END
$$$$
ZINC02007389
  -OEChem-08230709403D

 54 58  0     1  0  0  0  0  0999 V2000
   -0.0240    4.1562    2.0329 C   0  0  0  0  0  0  0  0  0  0  0  0
   -0.1723    3.1967    0.8766 C   0  0  0  0  0  0  0  0  0  0  0  0
    0.4579    2.0295    0.9634 C   0  0  0  0  0  0  0  0  0  0  0  0
    0.3111    1.0002   -0.1244 C   0  0  0  0  0  0  0  0  0  0  0  0
   -1.0421    1.1086   -0.6900 N   0  0  0  0  0  0  0  0  0  0  0  0
   -1.5294    2.3815   -0.9896 C   0  0  0  0  0  0  0  0  0  0  0  0
   -1.0288    3.5011   -0.2792 C   0  0  0  0  0  0  0  0  0  0  0  0
   -1.3218    4.7590   -0.7690 C   0  0  0  0  0  0  0  0  0  0  0  0
   -2.4278    4.9087   -1.6232 C   0  0  0  0  0  0  0  0  0  0  0  0
   -2.9921    3.7984   -2.2404 C   0  0  0  0  0  0  0  0  0  0  0  0
   -2.5205    2.5358   -1.9415 C   0  0  0  0  0  0  0  0  0  0  0  0
   -2.9359    6.2731   -1.8893 C   0  0  0  0  0  0  0  0  0  0  0  0
   -2.0229    7.3301   -1.7596 C   0  0  0  0  0  0  0  0  0  0  0  0
   -2.4287    8.6285   -2.0005 C   0  0  0  0  0  0  0  0  0  0  0  0
   -3.7395    8.8850   -2.3627 C   0  0  0  0  0  0  0  0  0  0  0  0
   -4.6479    7.8508   -2.4794 C   0  0  0  0  0  0  0  0  0  0  0  0
   -4.2545    6.5395   -2.2379 C   0  0  0  0  0  0  0  0  0  0  0  0
   -5.1735    5.5431   -2.3285 O   0  0  0  0  0  0  0  0  0  0  0  0
   -6.5032    5.9182   -2.6937 C   0  0  0  0  0  0  0  0  0  0  0  0
   -0.7545    7.0331   -1.4022 O   0  0  0  0  0  0  0  0  0  0  0  0
   -0.5196    5.9907   -0.4462 C   0  0  2  0  0  0  0  0  0  0  0  0
   -0.7434    6.3492    0.5490 H   0  0  0  0  0  0  0  0  0  0  0  0
    0.9483    5.6711   -0.5643 C   0  0  0  0  0  0  0  0  0  0  0  0
    1.7890    5.8752    0.5139 C   0  0  0  0  0  0  0  0  0  0  0  0
    3.1348    5.5779    0.4070 C   0  0  0  0  0  0  0  0  0  0  0  0
    3.6415    5.0851   -0.7810 C   0  0  0  0  0  0  0  0  0  0  0  0
    2.8017    4.8859   -1.8608 C   0  0  0  0  0  0  0  0  0  0  0  0
    1.4552    5.1792   -1.7525 C   0  0  0  0  0  0  0  0  0  0  0  0
    0.5070   -0.3979    0.4619 C   0  0  0  0  0  0  0  0  0  0  0  0
    1.3479    1.2490   -1.2183 C   0  0  0  0  0  0  0  0  0  0  0  0
    0.9821    4.0764    2.4446 H   0  0  0  0  0  0  0  0  0  0  0  0
   -0.1940    5.1748    1.6840 H   0  0  0  0  0  0  0  0  0  0  0  0
   -0.7531    3.9102    2.8049 H   0  0  0  0  0  0  0  0  0  0  0  0
    1.0779    1.8217    1.8201 H   0  0  0  0  0  0  0  0  0  0  0  0
   -1.5590    0.3136   -0.8805 H   0  0  0  0  0  0  0  0  0  0  0  0
   -3.8036    3.9126   -2.9422 H   0  0  0  0  0  0  0  0  0  0  0  0
   -2.9233    1.6708   -2.4481 H   0  0  0  0  0  0  0  0  0  0  0  0
   -1.7251    9.4426   -1.9071 H   0  0  0  0  0  0  0  0  0  0  0  0
   -4.0531    9.9002   -2.5543 H   0  0  0  0  0  0  0  0  0  0  0  0
   -5.6698    8.0601   -2.7601 H   0  0  0  0  0  0  0  0  0  0  0  0
   -7.1342    5.0302   -2.7297 H   0  0  0  0  0  0  0  0  0  0  0  0
   -6.8995    6.6158   -1.9559 H   0  0  0  0  0  0  0  0  0  0  0  0
   -6.4900    6.3946   -3.6740 H   0  0  0  0  0  0  0  0  0  0  0  0
    1.3938    6.2638    1.4409 H   0  0  0  0  0  0  0  0  0  0  0  0
    3.7908    5.7332    1.2507 H   0  0  0  0  0  0  0  0  0  0  0  0
    4.6934    4.8553   -0.8654 H   0  0  0  0  0  0  0  0  0  0  0  0
    3.1976    4.5009   -2.7890 H   0  0  0  0  0  0  0  0  0  0  0  0
    0.7991    5.0236   -2.5962 H   0  0  0  0  0  0  0  0  0  0  0  0
    0.3806   -1.1425   -0.3240 H   0  0  0  0  0  0  0  0  0  0  0  0
    1.5098   -0.4788    0.8813 H   0  0  0  0  0  0  0  0  0  0  0  0
   -0.2299   -0.5693    1.2466 H   0  0  0  0  0  0  0  0  0  0  0  0
    1.2079    2.2481   -1.6311 H   0  0  0  0  0  0  0  0  0  0  0  0
    2.3492    1.1678   -0.7952 H   0  0  0  0  0  0  0  0  0  0  0  0
    1.2265    0.5088   -2.0092 H   0  0  0  0  0  0  0  0  0  0  0  0
  1  2  1  0  0  0  0
  1 31  1  0  0  0  0
  1 32  1  0  0  0  0
  1 33  1  0  0  0  0
  2  7  1  0  0  0  0
  2  3  2  0  0  0  0
  3  4  1  0  0  0  0
  3 34  1  0  0  0  0
  4  5  1  0  0  0  0
  4 29  1  0  0  0  0
  4 30  1  0  0  0  0
  5  6  1  0  0  0  0
  5 35  1  0  0  0  0
  6 11  2  0  0  0  0
  6  7  1  0  0  0  0
  7  8  2  0  0  0  0
  8 21  1  0  0  0  0
  8  9  1  0  0  0  0
  9 10  2  0  0  0  0
  9 12  1  0  0  0  0
 10 11  1  0  0  0  0
 10 36  1  0  0  0  0
 11 37  1  0  0  0  0
 12 17  2  0  0  0  0
 12 13  1  0  0  0  0
 13 14  2  0  0  0  0
 13 20  1  0  0  0  0
 14 15  1  0  0  0  0
 14 38  1  0  0  0  0
 15 16  2  0  0  0  0
 15 39  1  0  0  0  0
 16 17  1  0  0  0  0
 16 40  1  0  0  0  0
 17 18  1  0  0  0  0
 18 19  1  0  0  0  0
 19 41  1  0  0  0  0
 19 42  1  0  0  0  0
 19 43  1  0  0  0  0
 20 21  1  0  0  0  0
 21 22  1  0  0  0  0
 21 23  1  0  0  0  0
 23 28  2  0  0  0  0
 23 24  1  0  0  0  0
 24 25  2  0  0  0  0
 24 44  1  0  0  0  0
 25 26  1  0  0  0  0
 25 45  1  0  0  0  0
 26 27  2  0  0  0  0
 26 46  1  0  0  0  0
 27 28  1  0  0  0  0
 27 47  1  0  0  0  0
 28 48  1  0  0  0  0
 29 49  1  0  0  0  0
 29 50  1  0  0  0  0
 29 51  1  0  0  0  0
 30 52  1  0  0  0  0
 30 53  1  0  0  0  0
 30 54  1  0  0  0  0
M  END
$$$$
ZINC03814371
  -OEChem-08230709403D

 62 65  0     1  0  0  0  0  0999 V2000
   -2.7167    1.8537    2.6708 C   0  0  0  0  0  0  0  0  0  0  0  0
   -2.0957    1.5905    1.2974 C   0  0  1  0  0  0  0  0  0  0  0  0
   -2.6137    2.1790    0.5401 H   0  0  0  0  0  0  0  0  0  0  0  0
   -0.6145    1.9739    1.3215 C   0  0  0  0  0  0  0  0  0  0  0  0
    0.0282    1.5963   -0.0160 C   0  0  2  0  0  0  0  0  0  0  0  0
   -0.5002    2.0718   -0.8423 H   0  0  0  0  0  0  0  0  0  0  0  0
   -0.0064    0.0697   -0.1787 C   0  0  2  0  0  0  0  0  0  0  0  0
    0.4776   -0.3895    0.6833 H   0  0  0  0  0  0  0  0  0  0  0  0
    0.7116   -0.3791   -1.4480 C   0  0  0  0  0  0  0  0  0  0  0  0
    2.1481    0.1637   -1.5103 C   0  0  0  0  0  0  0  0  0  0  0  0
    2.0615    1.6752   -1.4196 C   0  0  1  0  0  0  0  0  0  0  0  0
    1.4864    2.0191   -0.0196 C   0  0  1  0  0  0  0  0  0  0  0  0
    2.0359    1.4884    0.7580 H   0  0  0  0  0  0  0  0  0  0  0  0
    1.7442    3.5276    0.0609 C   0  0  0  0  0  0  0  0  0  0  0  0
    3.1703    3.6680   -0.5383 C   0  0  0  0  0  0  0  0  0  0  0  0
    3.3848    2.4338   -1.4497 C   0  0  2  0  0  0  0  0  0  0  0  0
    3.7035    2.8721   -2.8558 C   0  0  0  0  0  0  0  0  0  0  0  0
    3.4082    3.9839   -3.2233 O   0  0  0  0  0  0  0  0  0  0  0  0
    4.3909    1.9231   -3.8034 C   0  0  0  0  0  0  0  0  0  0  0  0
    4.4536    1.6018   -0.9265 O   0  0  0  0  0  0  0  0  0  0  0  0
    5.6750    2.1537   -0.8527 C   0  0  0  0  0  0  0  0  0  0  0  0
    5.8312    3.3160   -1.1434 O   0  0  0  0  0  0  0  0  0  0  0  0
    6.8513    1.3237   -0.4073 C   0  0  0  0  0  0  0  0  0  0  0  0
    1.1285    2.2075   -2.5091 C   0  0  0  0  0  0  0  0  0  0  0  0
   -1.4630   -0.4074   -0.2283 C   0  0  2  0  0  0  0  0  0  0  0  0
   -2.2089    0.1145    0.9614 C   0  0  0  0  0  0  0  0  0  0  0  0
   -2.9848   -0.6419    1.7365 C   0  0  0  0  0  0  0  0  0  0  0  0
   -3.1554   -2.0674    1.4344 C   0  0  0  0  0  0  0  0  0  0  0  0
   -3.5190   -2.8602    2.2778 O   0  0  0  0  0  0  0  0  0  0  0  0
   -2.8527   -2.4974    0.0123 C   0  0  0  0  0  0  0  0  0  0  0  0
   -1.4877   -1.9201   -0.3596 C   0  0  0  0  0  0  0  0  0  0  0  0
   -2.1138    0.1887   -1.4780 C   0  0  0  0  0  0  0  0  0  0  0  0
   -2.1905    1.2692    3.4255 H   0  0  0  0  0  0  0  0  0  0  0  0
   -2.6342    2.9140    2.9097 H   0  0  0  0  0  0  0  0  0  0  0  0
   -3.7678    1.5654    2.6555 H   0  0  0  0  0  0  0  0  0  0  0  0
   -0.1136    1.4402    2.1293 H   0  0  0  0  0  0  0  0  0  0  0  0
   -0.5192    3.0480    1.4805 H   0  0  0  0  0  0  0  0  0  0  0  0
    0.7418   -1.4684   -1.4732 H   0  0  0  0  0  0  0  0  0  0  0  0
    0.1580   -0.0201   -2.3156 H   0  0  0  0  0  0  0  0  0  0  0  0
    2.7285   -0.2256   -0.6739 H   0  0  0  0  0  0  0  0  0  0  0  0
    2.6135   -0.1254   -2.4526 H   0  0  0  0  0  0  0  0  0  0  0  0
    1.0179    4.0757   -0.5392 H   0  0  0  0  0  0  0  0  0  0  0  0
    1.7257    3.8674    1.0964 H   0  0  0  0  0  0  0  0  0  0  0  0
    3.2408    4.5835   -1.1256 H   0  0  0  0  0  0  0  0  0  0  0  0
    3.9123    3.6780    0.2601 H   0  0  0  0  0  0  0  0  0  0  0  0
    3.7089    1.3383   -4.2426 H   0  0  0  0  0  0  0  0  0  0  0  0
    4.9252    2.4925   -4.5639 H   0  0  0  0  0  0  0  0  0  0  0  0
    5.0972    1.3047   -3.2495 H   0  0  0  0  0  0  0  0  0  0  0  0
    6.5183    0.3088   -0.1898 H   0  0  0  0  0  0  0  0  0  0  0  0
    7.5992    1.2986   -1.1998 H   0  0  0  0  0  0  0  0  0  0  0  0
    7.2871    1.7632    0.4899 H   0  0  0  0  0  0  0  0  0  0  0  0
    0.1517    1.7330   -2.4147 H   0  0  0  0  0  0  0  0  0  0  0  0
    1.0203    3.2866   -2.3994 H   0  0  0  0  0  0  0  0  0  0  0  0
    1.5487    1.9823   -3.4893 H   0  0  0  0  0  0  0  0  0  0  0  0
   -3.4876   -0.2060    2.5871 H   0  0  0  0  0  0  0  0  0  0  0  0
   -3.5624   -2.1484   -0.5997 H   0  0  0  0  0  0  0  0  0  0  0  0
   -2.8239   -3.5853   -0.0487 H   0  0  0  0  0  0  0  0  0  0  0  0
   -1.2556   -2.1913   -1.3895 H   0  0  0  0  0  0  0  0  0  0  0  0
   -0.7312   -2.3465    0.2991 H   0  0  0  0  0  0  0  0  0  0  0  0
   -1.5766   -0.1497   -2.3640 H   0  0  0  0  0  0  0  0  0  0  0  0
   -3.1526   -0.1362   -1.5368 H   0  0  0  0  0  0  0  0  0  0  0  0
   -2.0759    1.2767   -1.4236 H   0  0  0  0  0  0  0  0  0  0  0  0
  1  2  1  0  0  0  0
  1 33  1  0  0  0  0
  1 34  1  0  0  0  0
  1 35  1  0  0  0  0
  2  3  1  0  0  0  0
  2 26  1  0  0  0  0
  2  4  1  0  0  0  0
  4  5  1  0  0  0  0
  4 36  1  0  0  0  0
  4 37  1  0  0  0  0
  5  6  1  0  0  0  0
  5 12  1  0  0  0  0
  5  7  1  0  0  0  0
  7  8  1  0  0  0  0
  7  9  1  0  0  0  0
  7 25  1  0  0  0  0
  9 10  1  0  0  0  0
  9 38  1  0  0  0  0
  9 39  1  0  0  0  0
 10 11  1  0  0  0  0
 10 40  1  0  0  0  0
 10 41  1  0  0  0  0
 11 16  1  0  0  0  0
 11 12  1  0  0  0  0
 11 24  1  0  0  0  0
 12 13  1  0  0  0  0
 12 14  1  0  0  0  0
 14 15  1  0  0  0  0
 14 42  1  0  0  0  0
 14 43  1  0  0  0  0
 15 16  1  0  0  0  0
 15 44  1  0  0  0  0
 15 45  1  0  0  0  0
 16 17  1  0  0  0  0
 16 20  1  0  0  0  0
 17 18  2  0  0  0  0
 17 19  1  0  0  0  0
 19 46  1  0  0  0  0
 19 47  1  0  0  0  0
 19 48  1  0  0  0  0
 20 21  1  0  0  0  0
 21 22  2  0  0  0  0
 21 23  1  0  0  0  0
 23 49  1  0  0  0  0
 23 50  1  0  0  0  0
 23 51  1  0  0  0  0
 24 52  1  0  0  0  0
 24 53  1  0  0  0  0
 24 54  1  0  0  0  0
 25 31  1  0  0  0  0
 25 26  1  0  0  0  0
 25 32  1  0  0  0  0
 26 27  2  0  0  0  0
 27 28  1  0  0  0  0
 27 55  1  0  0  0  0
 28 29  2  0  0  0  0
 28 30  1  0  0  0  0
 30 31  1  0  0  0  0
 30 56  1  0  0  0  0
 30 57  1  0  0  0  0
 31 58  1  0  0  0  0
 31 59  1  0  0  0  0
 32 60  1  0  0  0  0
 32 61  1  0  0  0  0
 32 62  1  0  0  0  0
M  END
$$$$
ZINC03814382
  -OEChem-08230709403D

 67 71  0     1  0  0  0  0  0999 V2000
   -3.9266    4.9070    0.4656 C   0  0  0  0  0  0  0  0  0  0  0  0
   -3.0447    3.7547    0.2180 C   0  0  0  0  0  0  0  0  0  0  0  0
   -2.3414    2.8357    0.0206 C   0  0  0  0  0  0  0  0  0  0  0  0
   -1.4595    1.6834   -0.2270 C   0  0  1  0  0  0  0  0  0  0  0  0
   -1.0022    1.6669   -1.7057 C   0  0  0  0  0  0  0  0  0  0  0  0
    0.5749    1.7048   -1.6926 C   0  0  0  0  0  0  0  0  0  0  0  0
    0.8928    1.1375   -0.3026 C   0  0  2  0  0  0  0  0  0  0  0  0
    0.7732    0.0541   -0.2950 H   0  0  0  0  0  0  0  0  0  0  0  0
   -0.1785    1.8122    0.5942 C   0  0  2  0  0  0  0  0  0  0  0  0
   -0.1920    1.0680    1.9178 C   0  0  0  0  0  0  0  0  0  0  0  0
    1.1459    1.3575    2.6161 C   0  0  1  0  0  0  0  0  0  0  0  0
    1.2323    0.7270    3.5011 H   0  0  0  0  0  0  0  0  0  0  0  0
    2.3101    1.0755    1.6872 C   0  0  0  0  0  0  0  0  0  0  0  0
    3.3681    0.4494    2.1991 C   0  0  0  0  0  0  0  0  0  0  0  0
    3.3740    0.0089    3.6451 C   0  0  0  0  0  0  0  0  0  0  0  0
    3.9930   -1.3895    3.7291 C   0  0  0  0  0  0  0  0  0  0  0  0
    5.3094   -1.4123    3.0000 C   0  0  0  0  0  0  0  0  0  0  0  0
    6.2224   -2.0824    3.4391 O   0  0  0  0  0  0  0  0  0  0  0  0
    5.5020   -0.6726    1.8205 C   0  0  0  0  0  0  0  0  0  0  0  0
    4.5616    0.1978    1.3919 C   0  0  0  0  0  0  0  0  0  0  0  0
    4.7048    0.9412    0.0874 C   0  0  0  0  0  0  0  0  0  0  0  0
    3.3478    0.9167   -0.6149 C   0  0  0  0  0  0  0  0  0  0  0  0
    2.2575    1.5272    0.2494 C   0  0  1  0  0  0  0  0  0  0  0  0
    2.3520    2.6128    0.2249 H   0  0  0  0  0  0  0  0  0  0  0  0
    1.1835    2.8051    3.0331 C   0  0  0  0  0  0  0  0  0  0  0  0
    2.3368    3.5459    2.8502 C   0  0  0  0  0  0  0  0  0  0  0  0
    2.3729    4.8744    3.2259 C   0  0  0  0  0  0  0  0  0  0  0  0
    1.2527    5.4632    3.7987 C   0  0  0  0  0  0  0  0  0  0  0  0
    0.0977    4.7146    3.9862 C   0  0  0  0  0  0  0  0  0  0  0  0
    0.0666    3.3882    3.6030 C   0  0  0  0  0  0  0  0  0  0  0  0
    1.2877    6.8048    4.1856 N   0  0  0  0  0  0  0  0  0  0  0  0
    0.1055    7.4240    4.7899 C   0  0  0  0  0  0  0  0  0  0  0  0
    2.5067    7.5928    3.9870 C   0  0  0  0  0  0  0  0  0  0  0  0
    0.1723    3.2862    0.8070 C   0  0  0  0  0  0  0  0  0  0  0  0
   -2.1335    0.4654    0.0958 O   0  0  0  0  0  0  0  0  0  0  0  0
   -4.8360    4.8023   -0.1261 H   0  0  0  0  0  0  0  0  0  0  0  0
   -4.1843    4.9465    1.5240 H   0  0  0  0  0  0  0  0  0  0  0  0
   -3.4125    5.8255    0.1823 H   0  0  0  0  0  0  0  0  0  0  0  0
   -1.3460    0.7547   -2.1934 H   0  0  0  0  0  0  0  0  0  0  0  0
   -1.3933    2.5400   -2.2280 H   0  0  0  0  0  0  0  0  0  0  0  0
    0.9362    2.7292   -1.7825 H   0  0  0  0  0  0  0  0  0  0  0  0
    1.0018    1.0746   -2.4728 H   0  0  0  0  0  0  0  0  0  0  0  0
   -0.2940   -0.0027    1.7405 H   0  0  0  0  0  0  0  0  0  0  0  0
   -1.0172    1.4232    2.5350 H   0  0  0  0  0  0  0  0  0  0  0  0
    3.9654    0.7068    4.2377 H   0  0  0  0  0  0  0  0  0  0  0  0
    2.3521   -0.0176    4.0235 H   0  0  0  0  0  0  0  0  0  0  0  0
    4.1434   -1.6304    4.6879 H   0  0  0  0  0  0  0  0  0  0  0  0
    3.3163   -2.1128    3.2742 H   0  0  0  0  0  0  0  0  0  0  0  0
    6.4106   -0.8015    1.2509 H   0  0  0  0  0  0  0  0  0  0  0  0
    5.4524    0.4514   -0.5366 H   0  0  0  0  0  0  0  0  0  0  0  0
    5.0025    1.9720    0.2797 H   0  0  0  0  0  0  0  0  0  0  0  0
    3.0842   -0.1160   -0.8431 H   0  0  0  0  0  0  0  0  0  0  0  0
    3.4193    1.4782   -1.5464 H   0  0  0  0  0  0  0  0  0  0  0  0
    3.2089    3.0862    2.4092 H   0  0  0  0  0  0  0  0  0  0  0  0
    3.2725    5.4536    3.0788 H   0  0  0  0  0  0  0  0  0  0  0  0
   -0.7749    5.1692    4.4315 H   0  0  0  0  0  0  0  0  0  0  0  0
   -0.8310    2.8055    3.7488 H   0  0  0  0  0  0  0  0  0  0  0  0
    0.1436    7.3001    5.8722 H   0  0  0  0  0  0  0  0  0  0  0  0
    0.0871    8.4863    4.5463 H   0  0  0  0  0  0  0  0  0  0  0  0
   -0.7937    6.9464    4.4009 H   0  0  0  0  0  0  0  0  0  0  0  0
    2.4777    8.0658    3.0054 H   0  0  0  0  0  0  0  0  0  0  0  0
    2.5729    8.3603    4.7583 H   0  0  0  0  0  0  0  0  0  0  0  0
    3.3764    6.9388    4.0497 H   0  0  0  0  0  0  0  0  0  0  0  0
    0.0251    3.8329   -0.1244 H   0  0  0  0  0  0  0  0  0  0  0  0
   -0.4721    3.7051    1.5799 H   0  0  0  0  0  0  0  0  0  0  0  0
    1.2138    3.3707    1.1172 H   0  0  0  0  0  0  0  0  0  0  0  0
   -2.9551    0.3284   -0.3953 H   0  0  0  0  0  0  0  0  0  0  0  0
  1  2  1  0  0  0  0
  1 36  1  0  0  0  0
  1 37  1  0  0  0  0
  1 38  1  0  0  0  0
  2  3  3  0  0  0  0
  3  4  1  0  0  0  0
  4  9  1  0  0  0  0
  4  5  1  0  0  0  0
  4 35  1  0  0  0  0
  5  6  1  0  0  0  0
  5 39  1  0  0  0  0
  5 40  1  0  0  0  0
  6  7  1  0  0  0  0
  6 41  1  0  0  0  0
  6 42  1  0  0  0  0
  7  8  1  0  0  0  0
  7 23  1  0  0  0  0
  7  9  1  0  0  0  0
  9 10  1  0  0  0  0
  9 34  1  0  0  0  0
 10 11  1  0  0  0  0
 10 43  1  0  0  0  0
 10 44  1  0  0  0  0
 11 12  1  0  0  0  0
 11 13  1  0  0  0  0
 11 25  1  0  0  0  0
 13 23  1  0  0  0  0
 13 14  2  0  0  0  0
 14 20  1  0  0  0  0
 14 15  1  0  0  0  0
 15 16  1  0  0  0  0
 15 45  1  0  0  0  0
 15 46  1  0  0  0  0
 16 17  1  0  0  0  0
 16 47  1  0  0  0  0
 16 48  1  0  0  0  0
 17 18  2  0  0  0  0
 17 19  1  0  0  0  0
 19 20  2  0  0  0  0
 19 49  1  0  0  0  0
 20 21  1  0  0  0  0
 21 22  1  0  0  0  0
 21 50  1  0  0  0  0
 21 51  1  0  0  0  0
 22 23  1  0  0  0  0
 22 52  1  0  0  0  0
 22 53  1  0  0  0  0
 23 24  1  0  0  0  0
 25 30  2  0  0  0  0
 25 26  1  0  0  0  0
 26 27  2  0  0  0  0
 26 54  1  0  0  0  0
 27 28  1  0  0  0  0
 27 55  1  0  0  0  0
 28 29  2  0  0  0  0
 28 31  1  0  0  0  0
 29 30  1  0  0  0  0
 29 56  1  0  0  0  0
 30 57  1  0  0  0  0
 31 32  1  0  0  0  0
 31 33  1  0  0  0  0
 32 58  1  0  0  0  0
 32 59  1  0  0  0  0
 32 60  1  0  0  0  0
 33 61  1  0  0  0  0
 33 62  1  0  0  0  0
 33 63  1  0  0  0  0
 34 64  1  0  0  0  0
 34 65  1  0  0  0  0
 34 66  1  0  0  0  0
 35 67  1  0  0  0  0
M  END
$$$$
ZINC03814383
  -OEChem-08230709403D

 53 56  0     1  0  0  0  0  0999 V2000
   -2.2176    2.2641    1.2286 C   0  0  0  0  0  0  0  0  0  0  0  0
   -0.7281    2.0356    1.2402 C   0  0  0  0  0  0  0  0  0  0  0  0
   -0.0910    2.2576    2.2418 O   0  0  0  0  0  0  0  0  0  0  0  0
   -0.0337    1.5299    0.0020 C   0  0  1  0  0  0  0  0  0  0  0  0
   -0.4737    1.9167   -0.8084 H   0  0  0  0  0  0  0  0  0  0  0  0
    1.4696    1.9020    0.0399 C   0  0  0  0  0  0  0  0  0  0  0  0
    2.2545    0.5665   -0.0714 C   0  0  0  0  0  0  0  0  0  0  0  0
    1.2520   -0.3645   -0.7629 C   0  0  2  0  0  0  0  0  0  0  0  0
    1.1801   -0.1401   -1.8271 H   0  0  0  0  0  0  0  0  0  0  0  0
   -0.0706    0.0058   -0.0395 C   0  0  2  0  0  0  0  0  0  0  0  0
   -1.2029   -0.6226   -0.8290 C   0  0  0  0  0  0  0  0  0  0  0  0
   -1.0332   -2.1469   -0.7280 C   0  0  0  0  0  0  0  0  0  0  0  0
    0.3299   -2.5982   -1.2435 C   0  0  1  0  0  0  0  0  0  0  0  0
    0.3863   -2.4038   -2.3145 H   0  0  0  0  0  0  0  0  0  0  0  0
    1.4785   -1.8504   -0.5509 C   0  0  1  0  0  0  0  0  0  0  0  0
    1.4886   -2.0867    0.5131 H   0  0  0  0  0  0  0  0  0  0  0  0
    2.8054   -2.2675   -1.1918 C   0  0  0  0  0  0  0  0  0  0  0  0
    3.0538   -3.7520   -0.9151 C   0  0  0  0  0  0  0  0  0  0  0  0
    1.8581   -4.5461   -1.4089 C   0  0  0  0  0  0  0  0  0  0  0  0
    2.0927   -5.6150   -2.1691 C   0  0  0  0  0  0  0  0  0  0  0  0
    0.9750   -6.4391   -2.6420 C   0  0  0  0  0  0  0  0  0  0  0  0
    1.0826   -7.1687   -3.6054 O   0  0  0  0  0  0  0  0  0  0  0  0
   -0.3218   -6.3309   -1.8640 C   0  0  0  0  0  0  0  0  0  0  0  0
   -0.6375   -4.8442   -1.7050 C   0  0  0  0  0  0  0  0  0  0  0  0
    0.4861   -4.1046   -1.0011 C   0  0  2  0  0  0  0  0  0  0  0  0
    0.3328   -4.3592    0.4998 C   0  0  0  0  0  0  0  0  0  0  0  0
   -0.0603   -0.5520    1.3851 C   0  0  0  0  0  0  0  0  0  0  0  0
   -2.5834    2.0320    0.3273 H   0  0  0  0  0  0  0  0  0  0  0  0
   -2.6877    1.6350    1.9845 H   0  0  0  0  0  0  0  0  0  0  0  0
   -2.4263    3.3115    1.4466 H   0  0  0  0  0  0  0  0  0  0  0  0
    1.7155    2.5516   -0.8001 H   0  0  0  0  0  0  0  0  0  0  0  0
    1.7084    2.3990    0.9802 H   0  0  0  0  0  0  0  0  0  0  0  0
    2.5137    0.1879    0.9173 H   0  0  0  0  0  0  0  0  0  0  0  0
    3.1489    0.6914   -0.6817 H   0  0  0  0  0  0  0  0  0  0  0  0
   -2.1616   -0.3266   -0.4033 H   0  0  0  0  0  0  0  0  0  0  0  0
   -1.1463   -0.3109   -1.8719 H   0  0  0  0  0  0  0  0  0  0  0  0
   -1.1365   -2.4478    0.3146 H   0  0  0  0  0  0  0  0  0  0  0  0
   -1.8135   -2.6311   -1.3153 H   0  0  0  0  0  0  0  0  0  0  0  0
    3.6167   -1.6770   -0.7662 H   0  0  0  0  0  0  0  0  0  0  0  0
    2.7582   -2.1007   -2.2679 H   0  0  0  0  0  0  0  0  0  0  0  0
    3.1792   -3.9082    0.1563 H   0  0  0  0  0  0  0  0  0  0  0  0
    3.9517   -4.0788   -1.4397 H   0  0  0  0  0  0  0  0  0  0  0  0
    3.1061   -5.8745   -2.4375 H   0  0  0  0  0  0  0  0  0  0  0  0
   -1.0515   -6.7950   -2.3662 H   0  0  0  0  0  0  0  0  0  0  0  0
   -0.2052   -6.7928   -0.8836 H   0  0  0  0  0  0  0  0  0  0  0  0
   -1.5535   -4.7353   -1.1242 H   0  0  0  0  0  0  0  0  0  0  0  0
   -0.7890   -4.4053   -2.6912 H   0  0  0  0  0  0  0  0  0  0  0  0
   -0.6520   -4.0251    0.8263 H   0  0  0  0  0  0  0  0  0  0  0  0
    0.4398   -5.4253    0.7003 H   0  0  0  0  0  0  0  0  0  0  0  0
    1.1015   -3.8086    1.0421 H   0  0  0  0  0  0  0  0  0  0  0  0
   -0.9848   -0.2737    1.8910 H   0  0  0  0  0  0  0  0  0  0  0  0
    0.0215   -1.6383    1.3494 H   0  0  0  0  0  0  0  0  0  0  0  0
    0.7899   -0.1414    1.9299 H   0  0  0  0  0  0  0  0  0  0  0  0
  1  2  1  0  0  0  0
  1 28  1  0  0  0  0
  1 29  1  0  0  0  0
  1 30  1  0  0  0  0
  2  3  2  0  0  0  0
  2  4  1  0  0  0  0
  4  5  1  0  0  0  0
  4 10  1  0  0  0  0
  4  6  1  0  0  0  0
  6  7  1  0  0  0  0
  6 31  1  0  0  0  0
  6 32  1  0  0  0  0
  7  8  1  0  0  0  0
  7 33  1  0  0  0  0
  7 34  1  0  0  0  0
  8  9  1  0  0  0  0
  8 15  1  0  0  0  0
  8 10  1  0  0  0  0
 10 11  1  0  0  0  0
 10 27  1  0  0  0  0
 11 12  1  0  0  0  0
 11 35  1  0  0  0  0
 11 36  1  0  0  0  0
 12 13  1  0  0  0  0
 12 37  1  0  0  0  0
 12 38  1  0  0  0  0
 13 14  1  0  0  0  0
 13 25  1  0  0  0  0
 13 15  1  0  0  0  0
 15 16  1  0  0  0  0
 15 17  1  0  0  0  0
 17 18  1  0  0  0  0
 17 39  1  0  0  0  0
 17 40  1  0  0  0  0
 18 19  1  0  0  0  0
 18 41  1  0  0  0  0
 18 42  1  0  0  0  0
 19 25  1  0  0  0  0
 19 20  2  0  0  0  0
 20 21  1  0  0  0  0
 20 43  1  0  0  0  0
 21 22  2  0  0  0  0
 21 23  1  0  0  0  0
 23 24  1  0  0  0  0
 23 44  1  0  0  0  0
 23 45  1  0  0  0  0
 24 25  1  0  0  0  0
 24 46  1  0  0  0  0
 24 47  1  0  0  0  0
 25 26  1  0  0  0  0
 26 48  1  0  0  0  0
 26 49  1  0  0  0  0
 26 50  1  0  0  0  0
 27 51  1  0  0  0  0
 27 52  1  0  0  0  0
 27 53  1  0  0  0  0
M  END
$$$$
ZINC03828608
  -OEChem-08230709403D

 50 54  0     1  0  0  0  0  0999 V2000
    3.5362    1.5786   -0.4568 C   0  0  0  0  0  0  0  0  0  0  0  0
    4.1164    2.1959   -1.7032 C   0  0  0  0  0  0  0  0  0  0  0  0
    5.0954    1.5834   -2.3565 C   0  0  0  0  0  0  0  0  0  0  0  0
    5.7007    2.1883   -3.5952 C   0  0  0  0  0  0  0  0  0  0  0  0
    4.7064    3.0204   -4.2843 N   0  0  0  0  0  0  0  0  0  0  0  0
    3.9082    3.8727   -3.5190 C   0  0  0  0  0  0  0  0  0  0  0  0
    3.5980    3.4851   -2.2027 C   0  0  0  0  0  0  0  0  0  0  0  0
    2.8148    4.3094   -1.4117 C   0  0  0  0  0  0  0  0  0  0  0  0
    2.3339    5.5116   -1.9380 C   0  0  0  0  0  0  0  0  0  0  0  0
    2.6442    5.8879   -3.2391 C   0  0  0  0  0  0  0  0  0  0  0  0
    3.4319    5.0682   -4.0272 C   0  0  0  0  0  0  0  0  0  0  0  0
    1.4882    6.3551   -1.0597 C   0  0  0  0  0  0  0  0  0  0  0  0
    0.6757    7.3571   -1.5701 C   0  0  0  0  0  0  0  0  0  0  0  0
   -0.0942    8.1181   -0.7074 C   0  0  0  0  0  0  0  0  0  0  0  0
   -0.0518    7.8801    0.6570 C   0  0  0  0  0  0  0  0  0  0  0  0
    0.7563    6.8825    1.1712 C   0  0  0  0  0  0  0  0  0  0  0  0
    1.5286    6.1128    0.3202 C   0  0  0  0  0  0  0  0  0  0  0  0
    2.3243    5.1212    0.7982 O   0  0  0  0  0  0  0  0  0  0  0  0
    2.4633    3.9395    0.0053 C   0  0  1  0  0  0  0  0  0  0  0  0
    3.2537    3.3160    0.4232 H   0  0  0  0  0  0  0  0  0  0  0  0
    1.1648    3.1747    0.0153 C   0  0  0  0  0  0  0  0  0  0  0  0
    0.6441    2.6814   -1.1668 C   0  0  0  0  0  0  0  0  0  0  0  0
   -0.5470    1.9803   -1.1585 C   0  0  0  0  0  0  0  0  0  0  0  0
   -1.2209    1.7760    0.0311 C   0  0  0  0  0  0  0  0  0  0  0  0
   -0.6973    2.2640    1.2149 C   0  0  0  0  0  0  0  0  0  0  0  0
    0.4950    2.9662    1.2059 C   0  0  0  0  0  0  0  0  0  0  0  0
   -1.5393    2.0017    2.7101 Cl  0  0  0  0  0  0  0  0  0  0  0  0
   -0.8884    9.0953   -1.1968 F   0  0  0  0  0  0  0  0  0  0  0  0
    6.1644    1.0707   -4.5316 C   0  0  0  0  0  0  0  0  0  0  0  0
    6.9019    3.0514   -3.2040 C   0  0  0  0  0  0  0  0  0  0  0  0
    4.0270    2.0007    0.4201 H   0  0  0  0  0  0  0  0  0  0  0  0
    2.4675    1.7883   -0.4112 H   0  0  0  0  0  0  0  0  0  0  0  0
    3.6943    0.5004   -0.4779 H   0  0  0  0  0  0  0  0  0  0  0  0
    5.4638    0.6351   -1.9941 H   0  0  0  0  0  0  0  0  0  0  0  0
    4.6062    2.9787   -5.2482 H   0  0  0  0  0  0  0  0  0  0  0  0
    2.2701    6.8204   -3.6352 H   0  0  0  0  0  0  0  0  0  0  0  0
    3.6745    5.3609   -5.0381 H   0  0  0  0  0  0  0  0  0  0  0  0
    0.6438    7.5420   -2.6337 H   0  0  0  0  0  0  0  0  0  0  0  0
   -0.6542    8.4787    1.3242 H   0  0  0  0  0  0  0  0  0  0  0  0
    0.7836    6.7041    2.2360 H   0  0  0  0  0  0  0  0  0  0  0  0
    1.1682    2.8443   -2.0970 H   0  0  0  0  0  0  0  0  0  0  0  0
   -0.9536    1.5958   -2.0822 H   0  0  0  0  0  0  0  0  0  0  0  0
   -2.1537    1.2317    0.0369 H   0  0  0  0  0  0  0  0  0  0  0  0
    0.9021    3.3510    2.1292 H   0  0  0  0  0  0  0  0  0  0  0  0
    6.6112    1.5072   -5.4249 H   0  0  0  0  0  0  0  0  0  0  0  0
    6.9027    0.4521   -4.0213 H   0  0  0  0  0  0  0  0  0  0  0  0
    5.3098    0.4567   -4.8157 H   0  0  0  0  0  0  0  0  0  0  0  0
    6.5737    3.8514   -2.5403 H   0  0  0  0  0  0  0  0  0  0  0  0
    7.6409    2.4349   -2.6922 H   0  0  0  0  0  0  0  0  0  0  0  0
    7.3468    3.4828   -4.1007 H   0  0  0  0  0  0  0  0  0  0  0  0
  1  2  1  0  0  0  0
  1 31  1  0  0  0  0
  1 32  1  0  0  0  0
  1 33  1  0  0  0  0
  2  7  1  0  0  0  0
  2  3  2  0  0  0  0
  3  4  1  0  0  0  0
  3 34  1  0  0  0  0
  4  5  1  0  0  0  0
  4 29  1  0  0  0  0
  4 30  1  0  0  0  0
  5  6  1  0  0  0  0
  5 35  1  0  0  0  0
  6 11  2  0  0  0  0
  6  7  1  0  0  0  0
  7  8  2  0  0  0  0
  8 19  1  0  0  0  0
  8  9  1  0  0  0  0
  9 10  2  0  0  0  0
  9 12  1  0  0  0  0
 10 11  1  0  0  0  0
 10 36  1  0  0  0  0
 11 37  1  0  0  0  0
 12 17  2  0  0  0  0
 12 13  1  0  0  0  0
 13 14  2  0  0  0  0
 13 38  1  0  0  0  0
 14 15  1  0  0  0  0
 14 28  1  0  0  0  0
 15 16  2  0  0  0  0
 15 39  1  0  0  0  0
 16 17  1  0  0  0  0
 16 40  1  0  0  0  0
 17 18  1  0  0  0  0
 18 19  1  0  0  0  0
 19 20  1  0  0  0  0
 19 21  1  0  0  0  0
 21 26  2  0  0  0  0
 21 22  1  0  0  0  0
 22 23  2  0  0  0  0
 22 41  1  0  0  0  0
 23 24  1  0  0  0  0
 23 42  1  0  0  0  0
 24 25  2  0  0  0  0
 24 43  1  0  0  0  0
 25 26  1  0  0  0  0
 25 27  1  0  0  0  0
 26 44  1  0  0  0  0
 29 45  1  0  0  0  0
 29 46  1  0  0  0  0
 29 47  1  0  0  0  0
 30 48  1  0  0  0  0
 30 49  1  0  0  0  0
 30 50  1  0  0  0  0
M  END
$$$$
ZINC03831930
  -OEChem-08230709403D

 66 69  0     1  0  0  0  0  0999 V2000
   -8.8638    7.6281    4.9657 C   0  0  0  0  0  0  0  0  0  0  0  0
   -9.4954    6.4361    5.6375 C   0  0  0  0  0  0  0  0  0  0  0  0
   -9.0846    5.2039    5.3335 C   0  0  0  0  0  0  0  0  0  0  0  0
   -9.6724    3.9837    5.9667 C   0  0  0  0  0  0  0  0  0  0  0  0
  -10.9893    3.8578    6.2266 C   0  0  0  0  0  0  0  0  0  0  0  0
  -11.4786    2.6836    6.6891 O   0  0  0  0  0  0  0  0  0  0  0  0
  -12.8834    2.6212    6.9430 C   0  0  0  0  0  0  0  0  0  0  0  0
   -8.6796    2.9175    6.2874 C   0  0  0  0  0  0  0  0  0  0  0  0
   -9.0170    1.8773    7.1477 C   0  0  0  0  0  0  0  0  0  0  0  0
   -8.0938    0.8905    7.4387 C   0  0  0  0  0  0  0  0  0  0  0  0
   -6.8342    0.9451    6.8678 C   0  0  0  0  0  0  0  0  0  0  0  0
   -6.4892    1.9945    6.0018 C   0  0  0  0  0  0  0  0  0  0  0  0
   -7.4164    2.9932    5.7060 C   0  0  0  0  0  0  0  0  0  0  0  0
   -7.0277    4.1083    4.7819 C   0  0  2  0  0  0  0  0  0  0  0  0
   -6.2546    4.7039    5.2674 H   0  0  0  0  0  0  0  0  0  0  0  0
   -8.0970    4.9655    4.4222 O   0  0  0  0  0  0  0  0  0  0  0  0
   -6.4503    3.5096    3.5252 C   0  0  0  0  0  0  0  0  0  0  0  0
   -6.5451    2.1482    3.3018 C   0  0  0  0  0  0  0  0  0  0  0  0
   -6.0169    1.5960    2.1498 C   0  0  0  0  0  0  0  0  0  0  0  0
   -5.3966    2.4042    1.2165 C   0  0  0  0  0  0  0  0  0  0  0  0
   -5.2952    3.7692    1.4409 C   0  0  0  0  0  0  0  0  0  0  0  0
   -5.8266    4.3210    2.5977 C   0  0  0  0  0  0  0  0  0  0  0  0
   -4.6813    4.5658    0.5264 O   0  0  0  0  0  0  0  0  0  0  0  0
   -5.3631    4.8387   -0.6025 C   0  0  0  0  0  0  0  0  0  0  0  0
   -6.4361    4.3066   -0.8079 O   0  0  0  0  0  0  0  0  0  0  0  0
   -4.8554    5.7019   -1.5045 N   0  0  0  0  0  0  0  0  0  0  0  0
   -5.5971    5.9987   -2.7325 C   0  0  0  0  0  0  0  0  0  0  0  0
   -3.5617    6.3433   -1.2569 C   0  0  0  0  0  0  0  0  0  0  0  0
   -5.1320    2.0190    5.4202 C   0  0  0  0  0  0  0  0  0  0  0  0
   -4.3797    0.9267    5.4631 C   0  0  0  0  0  0  0  0  0  0  0  0
   -4.8917   -0.3462    6.0827 C   0  0  0  0  0  0  0  0  0  0  0  0
   -5.8728   -0.0350    7.1300 N   0  0  0  0  0  0  0  0  0  0  0  0
   -5.5553   -1.2049    5.0042 C   0  0  0  0  0  0  0  0  0  0  0  0
   -3.7221   -1.1189    6.6958 C   0  0  0  0  0  0  0  0  0  0  0  0
   -4.6039    3.2779    4.7819 C   0  0  0  0  0  0  0  0  0  0  0  0
   -7.7961    7.6449    5.1844 H   0  0  0  0  0  0  0  0  0  0  0  0
   -9.0129    7.5591    3.8882 H   0  0  0  0  0  0  0  0  0  0  0  0
   -9.3256    8.5423    5.3387 H   0  0  0  0  0  0  0  0  0  0  0  0
  -10.2805    6.5794    6.3651 H   0  0  0  0  0  0  0  0  0  0  0  0
  -11.6538    4.6938    6.0658 H   0  0  0  0  0  0  0  0  0  0  0  0
  -13.1505    3.3656    7.6931 H   0  0  0  0  0  0  0  0  0  0  0  0
  -13.4286    2.8228    6.0209 H   0  0  0  0  0  0  0  0  0  0  0  0
  -13.1428    1.6276    7.3087 H   0  0  0  0  0  0  0  0  0  0  0  0
  -10.0020    1.8408    7.5890 H   0  0  0  0  0  0  0  0  0  0  0  0
   -8.3535    0.0826    8.1067 H   0  0  0  0  0  0  0  0  0  0  0  0
   -7.0329    1.5153    4.0284 H   0  0  0  0  0  0  0  0  0  0  0  0
   -6.0928    0.5326    1.9772 H   0  0  0  0  0  0  0  0  0  0  0  0
   -4.9874    1.9729    0.3148 H   0  0  0  0  0  0  0  0  0  0  0  0
   -5.7522    5.3841    2.7730 H   0  0  0  0  0  0  0  0  0  0  0  0
   -5.3049    5.2955   -3.5124 H   0  0  0  0  0  0  0  0  0  0  0  0
   -5.3718    7.0148   -3.0564 H   0  0  0  0  0  0  0  0  0  0  0  0
   -6.6664    5.9066   -2.5423 H   0  0  0  0  0  0  0  0  0  0  0  0
   -3.7171    7.2792   -0.7202 H   0  0  0  0  0  0  0  0  0  0  0  0
   -2.9363    5.6808   -0.6586 H   0  0  0  0  0  0  0  0  0  0  0  0
   -3.0694    6.5472   -2.2078 H   0  0  0  0  0  0  0  0  0  0  0  0
   -3.3834    0.9514    5.0469 H   0  0  0  0  0  0  0  0  0  0  0  0
   -5.8544   -0.4981    7.9822 H   0  0  0  0  0  0  0  0  0  0  0  0
   -4.8258   -1.4444    4.2305 H   0  0  0  0  0  0  0  0  0  0  0  0
   -5.9265   -2.1271    5.4514 H   0  0  0  0  0  0  0  0  0  0  0  0
   -6.3863   -0.6552    4.5623 H   0  0  0  0  0  0  0  0  0  0  0  0
   -3.2445   -0.5077    7.4616 H   0  0  0  0  0  0  0  0  0  0  0  0
   -4.0913   -2.0409    7.1449 H   0  0  0  0  0  0  0  0  0  0  0  0
   -2.9973   -1.3585    5.9178 H   0  0  0  0  0  0  0  0  0  0  0  0
   -5.1261    4.1411    5.1945 H   0  0  0  0  0  0  0  0  0  0  0  0
   -3.5367    3.3679    4.9845 H   0  0  0  0  0  0  0  0  0  0  0  0
   -4.7670    3.2352    3.7050 H   0  0  0  0  0  0  0  0  0  0  0  0
  1  2  1  0  0  0  0
  1 36  1  0  0  0  0
  1 37  1  0  0  0  0
  1 38  1  0  0  0  0
  2  3  2  0  0  0  0
  2 39  1  0  0  0  0
  3 16  1  0  0  0  0
  3  4  1  0  0  0  0
  4  5  2  0  0  0  0
  4  8  1  0  0  0  0
  5  6  1  0  0  0  0
  5 40  1  0  0  0  0
  6  7  1  0  0  0  0
  7 41  1  0  0  0  0
  7 42  1  0  0  0  0
  7 43  1  0  0  0  0
  8 13  2  0  0  0  0
  8  9  1  0  0  0  0
  9 10  2  0  0  0  0
  9 44  1  0  0  0  0
 10 11  1  0  0  0  0
 10 45  1  0  0  0  0
 11 32  1  0  0  0  0
 11 12  2  0  0  0  0
 12 13  1  0  0  0  0
 12 29  1  0  0  0  0
 13 14  1  0  0  0  0
 14 15  1  0  0  0  0
 14 16  1  0  0  0  0
 14 17  1  0  0  0  0
 17 22  2  0  0  0  0
 17 18  1  0  0  0  0
 18 19  2  0  0  0  0
 18 46  1  0  0  0  0
 19 20  1  0  0  0  0
 19 47  1  0  0  0  0
 20 21  2  0  0  0  0
 20 48  1  0  0  0  0
 21 22  1  0  0  0  0
 21 23  1  0  0  0  0
 22 49  1  0  0  0  0
 23 24  1  0  0  0  0
 24 25  2  0  0  0  0
 24 26  1  0  0  0  0
 26 27  1  0  0  0  0
 26 28  1  0  0  0  0
 27 50  1  0  0  0  0
 27 51  1  0  0  0  0
 27 52  1  0  0  0  0
 28 53  1  0  0  0  0
 28 54  1  0  0  0  0
 28 55  1  0  0  0  0
 29 30  2  0  0  0  0
 29 35  1  0  0  0  0
 30 31  1  0  0  0  0
 30 56  1  0  0  0  0
 31 32  1  0  0  0  0
 31 33  1  0  0  0  0
 31 34  1  0  0  0  0
 32 57  1  0  0  0  0
 33 58  1  0  0  0  0
 33 59  1  0  0  0  0
 33 60  1  0  0  0  0
 34 61  1  0  0  0  0
 34 62  1  0  0  0  0
 34 63  1  0  0  0  0
 35 64  1  0  0  0  0
 35 65  1  0  0  0  0
 35 66  1  0  0  0  0
M  END
$$$$
ZINC03831931
  -OEChem-08230709403D

 54 58  0     1  0  0  0  0  0999 V2000
    0.6458    5.4075   -0.5769 C   0  0  0  0  0  0  0  0  0  0  0  0
   -0.2544    4.3439   -0.0029 C   0  0  0  0  0  0  0  0  0  0  0  0
   -1.5181    4.6257    0.2874 C   0  0  0  0  0  0  0  0  0  0  0  0
   -2.4316    3.5830    0.8747 C   0  0  0  0  0  0  0  0  0  0  0  0
   -2.0139    2.2458    0.4341 N   0  0  0  0  0  0  0  0  0  0  0  0
   -0.6517    1.9378    0.4508 C   0  0  0  0  0  0  0  0  0  0  0  0
    0.2655    2.9831    0.2386 C   0  0  0  0  0  0  0  0  0  0  0  0
    1.6248    2.7170    0.2576 C   0  0  0  0  0  0  0  0  0  0  0  0
    2.0660    1.4104    0.4854 C   0  0  0  0  0  0  0  0  0  0  0  0
    1.1538    0.3821    0.6897 C   0  0  0  0  0  0  0  0  0  0  0  0
   -0.2039    0.6467    0.6665 C   0  0  0  0  0  0  0  0  0  0  0  0
    3.5291    1.1736    0.4998 C   0  0  0  0  0  0  0  0  0  0  0  0
    4.3724    2.2813    0.6607 C   0  0  0  0  0  0  0  0  0  0  0  0
    5.7433    2.0977    0.6853 C   0  0  0  0  0  0  0  0  0  0  0  0
    6.2739    0.8271    0.5488 C   0  0  0  0  0  0  0  0  0  0  0  0
    5.4456   -0.2676    0.3857 C   0  0  0  0  0  0  0  0  0  0  0  0
    4.0678   -0.1017    0.3603 C   0  0  0  0  0  0  0  0  0  0  0  0
    3.2516   -1.1760    0.2009 O   0  0  0  0  0  0  0  0  0  0  0  0
    3.8789   -2.4527    0.0641 C   0  0  0  0  0  0  0  0  0  0  0  0
    3.8282    3.5186    0.7895 O   0  0  0  0  0  0  0  0  0  0  0  0
    2.6434    3.8053    0.0421 C   0  0  1  0  0  0  0  0  0  0  0  0
    2.2304    4.7584    0.3725 H   0  0  0  0  0  0  0  0  0  0  0  0
    2.9842    3.8888   -1.4235 C   0  0  0  0  0  0  0  0  0  0  0  0
    2.1794    3.2626   -2.3566 C   0  0  0  0  0  0  0  0  0  0  0  0
    2.4886    3.3436   -3.7028 C   0  0  0  0  0  0  0  0  0  0  0  0
    3.6100    4.0415   -4.1138 C   0  0  0  0  0  0  0  0  0  0  0  0
    4.4182    4.6632   -3.1790 C   0  0  0  0  0  0  0  0  0  0  0  0
    4.1046    4.5866   -1.8336 C   0  0  0  0  0  0  0  0  0  0  0  0
    5.8260    5.5388   -3.6939 Cl  0  0  0  0  0  0  0  0  0  0  0  0
    1.4736    2.5632   -4.8752 Cl  0  0  0  0  0  0  0  0  0  0  0  0
   -2.3712    3.6566    2.4017 C   0  0  0  0  0  0  0  0  0  0  0  0
   -3.8657    3.8440    0.4098 C   0  0  0  0  0  0  0  0  0  0  0  0
    1.3362    4.9540   -1.2881 H   0  0  0  0  0  0  0  0  0  0  0  0
    0.0419    6.1590   -1.0855 H   0  0  0  0  0  0  0  0  0  0  0  0
    1.2104    5.8786    0.2276 H   0  0  0  0  0  0  0  0  0  0  0  0
   -1.8974    5.6193    0.0998 H   0  0  0  0  0  0  0  0  0  0  0  0
   -2.6677    1.5927    0.1392 H   0  0  0  0  0  0  0  0  0  0  0  0
    1.5048   -0.6246    0.8623 H   0  0  0  0  0  0  0  0  0  0  0  0
   -0.9133   -0.1530    0.8204 H   0  0  0  0  0  0  0  0  0  0  0  0
    6.3995    2.9461    0.8120 H   0  0  0  0  0  0  0  0  0  0  0  0
    7.3449    0.6894    0.5694 H   0  0  0  0  0  0  0  0  0  0  0  0
    5.8716   -1.2542    0.2781 H   0  0  0  0  0  0  0  0  0  0  0  0
    4.4706   -2.6640    0.9547 H   0  0  0  0  0  0  0  0  0  0  0  0
    3.1156   -3.2215   -0.0559 H   0  0  0  0  0  0  0  0  0  0  0  0
    4.5288   -2.4463   -0.8109 H   0  0  0  0  0  0  0  0  0  0  0  0
    1.3065    2.7138   -2.0352 H   0  0  0  0  0  0  0  0  0  0  0  0
    3.8546    4.1007   -5.1641 H   0  0  0  0  0  0  0  0  0  0  0  0
    4.7355    5.0719   -1.1037 H   0  0  0  0  0  0  0  0  0  0  0  0
   -2.6892    4.6460    2.7307 H   0  0  0  0  0  0  0  0  0  0  0  0
   -3.0322    2.9021    2.8283 H   0  0  0  0  0  0  0  0  0  0  0  0
   -1.3493    3.4742    2.7342 H   0  0  0  0  0  0  0  0  0  0  0  0
   -3.9095    3.7952   -0.6782 H   0  0  0  0  0  0  0  0  0  0  0  0
   -4.5282    3.0897    0.8343 H   0  0  0  0  0  0  0  0  0  0  0  0
   -4.1811    4.8330    0.7422 H   0  0  0  0  0  0  0  0  0  0  0  0
  1  2  1  0  0  0  0
  1 33  1  0  0  0  0
  1 34  1  0  0  0  0
  1 35  1  0  0  0  0
  2  7  1  0  0  0  0
  2  3  2  0  0  0  0
  3  4  1  0  0  0  0
  3 36  1  0  0  0  0
  4  5  1  0  0  0  0
  4 31  1  0  0  0  0
  4 32  1  0  0  0  0
  5  6  1  0  0  0  0
  5 37  1  0  0  0  0
  6 11  2  0  0  0  0
  6  7  1  0  0  0  0
  7  8  2  0  0  0  0
  8 21  1  0  0  0  0
  8  9  1  0  0  0  0
  9 10  2  0  0  0  0
  9 12  1  0  0  0  0
 10 11  1  0  0  0  0
 10 38  1  0  0  0  0
 11 39  1  0  0  0  0
 12 17  2  0  0  0  0
 12 13  1  0  0  0  0
 13 14  2  0  0  0  0
 13 20  1  0  0  0  0
 14 15  1  0  0  0  0
 14 40  1  0  0  0  0
 15 16  2  0  0  0  0
 15 41  1  0  0  0  0
 16 17  1  0  0  0  0
 16 42  1  0  0  0  0
 17 18  1  0  0  0  0
 18 19  1  0  0  0  0
 19 43  1  0  0  0  0
 19 44  1  0  0  0  0
 19 45  1  0  0  0  0
 20 21  1  0  0  0  0
 21 22  1  0  0  0  0
 21 23  1  0  0  0  0
 23 28  2  0  0  0  0
 23 24  1  0  0  0  0
 24 25  2  0  0  0  0
 24 46  1  0  0  0  0
 25 26  1  0  0  0  0
 25 30  1  0  0  0  0
 26 27  2  0  0  0  0
 26 47  1  0  0  0  0
 27 28  1  0  0  0  0
 27 29  1  0  0  0  0
 28 48  1  0  0  0  0
 31 49  1  0  0  0  0
 31 50  1  0  0  0  0
 31 51  1  0  0  0  0
 32 52  1  0  0  0  0
 32 53  1  0  0  0  0
 32 54  1  0  0  0  0
M  END
$$$$
ZINC03831933
  -OEChem-08230709403D

 63 66  0     1  0  0  0  0  0999 V2000
    4.9450   -2.6694    1.3026 C   0  0  0  0  0  0  0  0  0  0  0  0
    3.9739   -1.5579    1.6067 C   0  0  0  0  0  0  0  0  0  0  0  0
    3.2297   -1.0367    0.6301 C   0  0  0  0  0  0  0  0  0  0  0  0
    3.2286   -1.5891   -0.7591 C   0  0  0  0  0  0  0  0  0  0  0  0
    3.2688   -2.9113   -1.0196 C   0  0  0  0  0  0  0  0  0  0  0  0
    3.3617   -3.3468   -2.2977 O   0  0  0  0  0  0  0  0  0  0  0  0
    3.3996   -4.7609   -2.5002 C   0  0  0  0  0  0  0  0  0  0  0  0
    3.1799   -0.5549   -1.8330 C   0  0  0  0  0  0  0  0  0  0  0  0
    3.4851   -0.8909   -3.1482 C   0  0  0  0  0  0  0  0  0  0  0  0
    3.4345    0.0710   -4.1397 C   0  0  0  0  0  0  0  0  0  0  0  0
    3.0784    1.3681   -3.8140 C   0  0  0  0  0  0  0  0  0  0  0  0
    2.7742    1.7119   -2.4876 C   0  0  0  0  0  0  0  0  0  0  0  0
    2.8219    0.7422   -1.4831 C   0  0  0  0  0  0  0  0  0  0  0  0
    2.4966    1.1324   -0.0724 C   0  0  2  0  0  0  0  0  0  0  0  0
    3.2664    1.8169    0.2840 H   0  0  0  0  0  0  0  0  0  0  0  0
    2.4143    0.0401    0.8264 O   0  0  0  0  0  0  0  0  0  0  0  0
    1.1750    1.8565   -0.0684 C   0  0  0  0  0  0  0  0  0  0  0  0
    0.3975    1.8815   -1.2117 C   0  0  0  0  0  0  0  0  0  0  0  0
   -0.8127    2.5497   -1.2130 C   0  0  0  0  0  0  0  0  0  0  0  0
   -1.2538    3.1847   -0.0679 C   0  0  0  0  0  0  0  0  0  0  0  0
   -0.4760    3.1607    1.0804 C   0  0  0  0  0  0  0  0  0  0  0  0
    0.7410    2.4942    1.0774 C   0  0  0  0  0  0  0  0  0  0  0  0
   -0.9054    3.7885    2.2066 O   0  0  0  0  0  0  0  0  0  0  0  0
   -2.1678    4.4545    2.1368 C   0  0  0  0  0  0  0  0  0  0  0  0
   -3.5021    3.2260    2.1683 S   0  0  0  0  0  0  0  0  0  0  0  0
   -3.5615    2.6869    3.8993 C   0  0  0  0  0  0  0  0  0  0  0  0
    2.4089    3.1097   -2.1816 C   0  0  0  0  0  0  0  0  0  0  0  0
    2.0703    3.9303   -3.1680 C   0  0  0  0  0  0  0  0  0  0  0  0
    2.0368    3.4564   -4.5965 C   0  0  0  0  0  0  0  0  0  0  0  0
    3.0054    2.3691   -4.7870 N   0  0  0  0  0  0  0  0  0  0  0  0
    0.6324    2.9498   -4.9308 C   0  0  0  0  0  0  0  0  0  0  0  0
    2.3921    4.6188   -5.5258 C   0  0  0  0  0  0  0  0  0  0  0  0
    2.4211    3.6017   -0.7572 C   0  0  0  0  0  0  0  0  0  0  0  0
    5.3717   -2.5180    0.3111 H   0  0  0  0  0  0  0  0  0  0  0  0
    5.7427   -2.6684    2.0455 H   0  0  0  0  0  0  0  0  0  0  0  0
    4.4231   -3.6259    1.3313 H   0  0  0  0  0  0  0  0  0  0  0  0
    3.8804   -1.1834    2.6154 H   0  0  0  0  0  0  0  0  0  0  0  0
    3.2267   -3.6230   -0.2084 H   0  0  0  0  0  0  0  0  0  0  0  0
    4.2644   -5.1787   -1.9848 H   0  0  0  0  0  0  0  0  0  0  0  0
    2.4887   -5.2092   -2.1036 H   0  0  0  0  0  0  0  0  0  0  0  0
    3.4746   -4.9733   -3.5667 H   0  0  0  0  0  0  0  0  0  0  0  0
    3.7624   -1.9051   -3.3949 H   0  0  0  0  0  0  0  0  0  0  0  0
    3.6715   -0.1878   -5.1611 H   0  0  0  0  0  0  0  0  0  0  0  0
    0.7384    1.3820   -2.1065 H   0  0  0  0  0  0  0  0  0  0  0  0
   -1.4160    2.5716   -2.1085 H   0  0  0  0  0  0  0  0  0  0  0  0
   -2.2012    3.7032   -0.0682 H   0  0  0  0  0  0  0  0  0  0  0  0
    1.3485    2.4744    1.9701 H   0  0  0  0  0  0  0  0  0  0  0  0
   -2.2719    5.1260    2.9891 H   0  0  0  0  0  0  0  0  0  0  0  0
   -2.2248    5.0293    1.2124 H   0  0  0  0  0  0  0  0  0  0  0  0
   -4.3441    1.9378    4.0199 H   0  0  0  0  0  0  0  0  0  0  0  0
   -2.6001    2.2562    4.1789 H   0  0  0  0  0  0  0  0  0  0  0  0
   -3.7761    3.5428    4.5392 H   0  0  0  0  0  0  0  0  0  0  0  0
    1.8149    4.9551   -2.9423 H   0  0  0  0  0  0  0  0  0  0  0  0
    3.5801    2.3463   -5.5680 H   0  0  0  0  0  0  0  0  0  0  0  0
   -0.0866    3.7583   -4.7986 H   0  0  0  0  0  0  0  0  0  0  0  0
    0.6066    2.6063   -5.9650 H   0  0  0  0  0  0  0  0  0  0  0  0
    0.3765    2.1239   -4.2671 H   0  0  0  0  0  0  0  0  0  0  0  0
    3.3911    4.9831   -5.2864 H   0  0  0  0  0  0  0  0  0  0  0  0
    2.3682    4.2771   -6.5606 H   0  0  0  0  0  0  0  0  0  0  0  0
    1.6699    5.4243   -5.3924 H   0  0  0  0  0  0  0  0  0  0  0  0
    3.1016    2.9882   -0.1668 H   0  0  0  0  0  0  0  0  0  0  0  0
    2.7542    4.6392   -0.7340 H   0  0  0  0  0  0  0  0  0  0  0  0
    1.4162    3.5333   -0.3406 H   0  0  0  0  0  0  0  0  0  0  0  0
  1  2  1  0  0  0  0
  1 34  1  0  0  0  0
  1 35  1  0  0  0  0
  1 36  1  0  0  0  0
  2  3  2  0  0  0  0
  2 37  1  0  0  0  0
  3 16  1  0  0  0  0
  3  4  1  0  0  0  0
  4  5  2  0  0  0  0
  4  8  1  0  0  0  0
  5  6  1  0  0  0  0
  5 38  1  0  0  0  0
  6  7  1  0  0  0  0
  7 39  1  0  0  0  0
  7 40  1  0  0  0  0
  7 41  1  0  0  0  0
  8 13  2  0  0  0  0
  8  9  1  0  0  0  0
  9 10  2  0  0  0  0
  9 42  1  0  0  0  0
 10 11  1  0  0  0  0
 10 43  1  0  0  0  0
 11 30  1  0  0  0  0
 11 12  2  0  0  0  0
 12 13  1  0  0  0  0
 12 27  1  0  0  0  0
 13 14  1  0  0  0  0
 14 15  1  0  0  0  0
 14 16  1  0  0  0  0
 14 17  1  0  0  0  0
 17 22  2  0  0  0  0
 17 18  1  0  0  0  0
 18 19  2  0  0  0  0
 18 44  1  0  0  0  0
 19 20  1  0  0  0  0
 19 45  1  0  0  0  0
 20 21  2  0  0  0  0
 20 46  1  0  0  0  0
 21 22  1  0  0  0  0
 21 23  1  0  0  0  0
 22 47  1  0  0  0  0
 23 24  1  0  0  0  0
 24 25  1  0  0  0  0
 24 48  1  0  0  0  0
 24 49  1  0  0  0  0
 25 26  1  0  0  0  0
 26 50  1  0  0  0  0
 26 51  1  0  0  0  0
 26 52  1  0  0  0  0
 27 28  2  0  0  0  0
 27 33  1  0  0  0  0
 28 29  1  0  0  0  0
 28 53  1  0  0  0  0
 29 30  1  0  0  0  0
 29 31  1  0  0  0  0
 29 32  1  0  0  0  0
 30 54  1  0  0  0  0
 31 55  1  0  0  0  0
 31 56  1  0  0  0  0
 31 57  1  0  0  0  0
 32 58  1  0  0  0  0
 32 59  1  0  0  0  0
 32 60  1  0  0  0  0
 33 61  1  0  0  0  0
 33 62  1  0  0  0  0
 33 63  1  0  0  0  0
M  END
$$$$
ZINC03831934
  -OEChem-08230709403D

 55 58  0     1  0  0  0  0  0999 V2000
    2.1232   -0.0266   -0.5798 C   0  0  0  0  0  0  0  0  0  0  0  0
    1.9372    1.4253   -0.9380 C   0  0  0  0  0  0  0  0  0  0  0  0
    0.7475    1.8628   -1.3533 C   0  0  0  0  0  0  0  0  0  0  0  0
   -0.3950    0.9387   -1.6293 C   0  0  0  0  0  0  0  0  0  0  0  0
   -0.2371   -0.2607   -2.2244 C   0  0  0  0  0  0  0  0  0  0  0  0
   -1.3218   -0.9928   -2.5699 O   0  0  0  0  0  0  0  0  0  0  0  0
   -1.0804   -2.2540   -3.1969 C   0  0  0  0  0  0  0  0  0  0  0  0
   -1.7250    1.4575   -1.1967 C   0  0  0  0  0  0  0  0  0  0  0  0
   -2.8192    0.6026   -1.1078 C   0  0  0  0  0  0  0  0  0  0  0  0
   -4.0494    1.0896   -0.7077 C   0  0  0  0  0  0  0  0  0  0  0  0
   -4.1839    2.4318   -0.3983 C   0  0  0  0  0  0  0  0  0  0  0  0
   -3.0831    3.2924   -0.4783 C   0  0  0  0  0  0  0  0  0  0  0  0
   -1.8396    2.8081   -0.8831 C   0  0  0  0  0  0  0  0  0  0  0  0
   -0.6767    3.7503   -0.9740 C   0  0  2  0  0  0  0  0  0  0  0  0
   -0.9770    4.6150   -1.5658 H   0  0  0  0  0  0  0  0  0  0  0  0
    0.4848    3.1865   -1.5577 O   0  0  0  0  0  0  0  0  0  0  0  0
   -0.3344    4.2193    0.4167 C   0  0  0  0  0  0  0  0  0  0  0  0
    0.7166    5.0959    0.6113 C   0  0  0  0  0  0  0  0  0  0  0  0
    1.0275    5.5298    1.8864 C   0  0  0  0  0  0  0  0  0  0  0  0
    0.2941    5.0790    2.9680 C   0  0  0  0  0  0  0  0  0  0  0  0
   -0.7535    4.1983    2.7739 C   0  0  0  0  0  0  0  0  0  0  0  0
   -1.0678    3.7685    1.4982 C   0  0  0  0  0  0  0  0  0  0  0  0
   -3.2722    4.7249   -0.1599 C   0  0  0  0  0  0  0  0  0  0  0  0
   -4.3570    5.1073    0.5020 C   0  0  0  0  0  0  0  0  0  0  0  0
   -5.3948    4.1073    0.9374 C   0  0  0  0  0  0  0  0  0  0  0  0
   -5.4083    2.9649    0.0148 N   0  0  0  0  0  0  0  0  0  0  0  0
   -6.7721    4.7736    0.9411 C   0  0  0  0  0  0  0  0  0  0  0  0
   -5.0665    3.6165    2.3489 C   0  0  0  0  0  0  0  0  0  0  0  0
   -2.2391    5.7413   -0.5730 C   0  0  0  0  0  0  0  0  0  0  0  0
    2.3536   -0.5963   -1.4800 H   0  0  0  0  0  0  0  0  0  0  0  0
    2.9436   -0.1232    0.1313 H   0  0  0  0  0  0  0  0  0  0  0  0
    1.2068   -0.4104   -0.1315 H   0  0  0  0  0  0  0  0  0  0  0  0
    2.7673    2.1117   -0.8585 H   0  0  0  0  0  0  0  0  0  0  0  0
    0.7549   -0.6374   -2.4255 H   0  0  0  0  0  0  0  0  0  0  0  0
   -0.5246   -2.0995   -4.1217 H   0  0  0  0  0  0  0  0  0  0  0  0
   -0.5007   -2.8881   -2.5262 H   0  0  0  0  0  0  0  0  0  0  0  0
   -2.0319   -2.7363   -3.4210 H   0  0  0  0  0  0  0  0  0  0  0  0
   -2.7072   -0.4433   -1.3524 H   0  0  0  0  0  0  0  0  0  0  0  0
   -4.8997    0.4274   -0.6374 H   0  0  0  0  0  0  0  0  0  0  0  0
    1.2924    5.4446   -0.2332 H   0  0  0  0  0  0  0  0  0  0  0  0
    1.8463    6.2176    2.0381 H   0  0  0  0  0  0  0  0  0  0  0  0
    0.5399    5.4146    3.9647 H   0  0  0  0  0  0  0  0  0  0  0  0
   -1.3263    3.8458    3.6189 H   0  0  0  0  0  0  0  0  0  0  0  0
   -1.8861    3.0802    1.3466 H   0  0  0  0  0  0  0  0  0  0  0  0
   -4.4979    6.1532    0.7318 H   0  0  0  0  0  0  0  0  0  0  0  0
   -6.2456    2.5899   -0.3002 H   0  0  0  0  0  0  0  0  0  0  0  0
   -7.5234    4.0531    1.2647 H   0  0  0  0  0  0  0  0  0  0  0  0
   -6.7636    5.6218    1.6256 H   0  0  0  0  0  0  0  0  0  0  0  0
   -7.0106    5.1204   -0.0643 H   0  0  0  0  0  0  0  0  0  0  0  0
   -4.0875    3.1373    2.3484 H   0  0  0  0  0  0  0  0  0  0  0  0
   -5.0561    4.4635    3.0349 H   0  0  0  0  0  0  0  0  0  0  0  0
   -5.8220    2.8990    2.6690 H   0  0  0  0  0  0  0  0  0  0  0  0
   -2.6029    6.7429   -0.3439 H   0  0  0  0  0  0  0  0  0  0  0  0
   -1.3120    5.5583   -0.0299 H   0  0  0  0  0  0  0  0  0  0  0  0
   -2.0553    5.6577   -1.6442 H   0  0  0  0  0  0  0  0  0  0  0  0
  1  2  1  0  0  0  0
  1 30  1  0  0  0  0
  1 31  1  0  0  0  0
  1 32  1  0  0  0  0
  2  3  2  0  0  0  0
  2 33  1  0  0  0  0
  3 16  1  0  0  0  0
  3  4  1  0  0  0  0
  4  5  2  0  0  0  0
  4  8  1  0  0  0  0
  5  6  1  0  0  0  0
  5 34  1  0  0  0  0
  6  7  1  0  0  0  0
  7 35  1  0  0  0  0
  7 36  1  0  0  0  0
  7 37  1  0  0  0  0
  8 13  2  0  0  0  0
  8  9  1  0  0  0  0
  9 10  2  0  0  0  0
  9 38  1  0  0  0  0
 10 11  1  0  0  0  0
 10 39  1  0  0  0  0
 11 26  1  0  0  0  0
 11 12  2  0  0  0  0
 12 13  1  0  0  0  0
 12 23  1  0  0  0  0
 13 14  1  0  0  0  0
 14 15  1  0  0  0  0
 14 16  1  0  0  0  0
 14 17  1  0  0  0  0
 17 22  2  0  0  0  0
 17 18  1  0  0  0  0
 18 19  2  0  0  0  0
 18 40  1  0  0  0  0
 19 20  1  0  0  0  0
 19 41  1  0  0  0  0
 20 21  2  0  0  0  0
 20 42  1  0  0  0  0
 21 22  1  0  0  0  0
 21 43  1  0  0  0  0
 22 44  1  0  0  0  0
 23 24  2  0  0  0  0
 23 29  1  0  0  0  0
 24 25  1  0  0  0  0
 24 45  1  0  0  0  0
 25 26  1  0  0  0  0
 25 27  1  0  0  0  0
 25 28  1  0  0  0  0
 26 46  1  0  0  0  0
 27 47  1  0  0  0  0
 27 48  1  0  0  0  0
 27 49  1  0  0  0  0
 28 50  1  0  0  0  0
 28 51  1  0  0  0  0
 28 52  1  0  0  0  0
 29 53  1  0  0  0  0
 29 54  1  0  0  0  0
 29 55  1  0  0  0  0
M  END
$$$$
ZINC03831936
  -OEChem-08230709403D

 50 54  0     1  0  0  0  0  0999 V2000
    3.5368    1.5792   -0.4562 C   0  0  0  0  0  0  0  0  0  0  0  0
    4.1161    2.1957   -1.7033 C   0  0  0  0  0  0  0  0  0  0  0  0
    5.0946    1.5829   -2.3570 C   0  0  0  0  0  0  0  0  0  0  0  0
    5.6994    2.1874   -3.5961 C   0  0  0  0  0  0  0  0  0  0  0  0
    4.7049    3.0196   -4.2849 N   0  0  0  0  0  0  0  0  0  0  0  0
    3.9074    3.8722   -3.5194 C   0  0  0  0  0  0  0  0  0  0  0  0
    3.5980    3.4851   -2.2027 C   0  0  0  0  0  0  0  0  0  0  0  0
    2.8148    4.3094   -1.4117 C   0  0  0  0  0  0  0  0  0  0  0  0
    2.3339    5.5116   -1.9380 C   0  0  0  0  0  0  0  0  0  0  0  0
    2.6441    5.8878   -3.2392 C   0  0  0  0  0  0  0  0  0  0  0  0
    3.4311    5.0678   -4.0276 C   0  0  0  0  0  0  0  0  0  0  0  0
    1.4884    6.3552   -1.0596 C   0  0  0  0  0  0  0  0  0  0  0  0
    0.6759    7.3573   -1.5696 C   0  0  0  0  0  0  0  0  0  0  0  0
   -0.0933    8.1177   -0.7073 C   0  0  0  0  0  0  0  0  0  0  0  0
   -0.0512    7.8802    0.6563 C   0  0  0  0  0  0  0  0  0  0  0  0
    0.7561    6.8824    1.1711 C   0  0  0  0  0  0  0  0  0  0  0  0
    1.5289    6.1127    0.3204 C   0  0  0  0  0  0  0  0  0  0  0  0
    2.3243    5.1211    0.7982 O   0  0  0  0  0  0  0  0  0  0  0  0
    2.4633    3.9395    0.0053 C   0  0  1  0  0  0  0  0  0  0  0  0
    3.2537    3.3160    0.4232 H   0  0  0  0  0  0  0  0  0  0  0  0
    1.1648    3.1747    0.0152 C   0  0  0  0  0  0  0  0  0  0  0  0
    0.4940    2.9671    1.2063 C   0  0  0  0  0  0  0  0  0  0  0  0
   -0.6968    2.2654    1.2163 C   0  0  0  0  0  0  0  0  0  0  0  0
   -1.2153    1.7665    0.0359 C   0  0  0  0  0  0  0  0  0  0  0  0
   -0.5477    1.9792   -1.1569 C   0  0  0  0  0  0  0  0  0  0  0  0
    0.6445    2.6814   -1.1661 C   0  0  0  0  0  0  0  0  0  0  0  0
   -1.2019    1.3591   -2.6405 Cl  0  0  0  0  0  0  0  0  0  0  0  0
   -1.1136    9.3735   -1.3362 Cl  0  0  0  0  0  0  0  0  0  0  0  0
    6.1625    1.0696   -4.5325 C   0  0  0  0  0  0  0  0  0  0  0  0
    6.9010    3.0504   -3.2057 C   0  0  0  0  0  0  0  0  0  0  0  0
    4.0284    2.0018    0.4201 H   0  0  0  0  0  0  0  0  0  0  0  0
    2.4682    1.7889   -0.4098 H   0  0  0  0  0  0  0  0  0  0  0  0
    3.6950    0.5009   -0.4767 H   0  0  0  0  0  0  0  0  0  0  0  0
    5.4631    0.6346   -1.9945 H   0  0  0  0  0  0  0  0  0  0  0  0
    4.6047    2.9782   -5.2488 H   0  0  0  0  0  0  0  0  0  0  0  0
    2.2703    6.8205   -3.6352 H   0  0  0  0  0  0  0  0  0  0  0  0
    3.6732    5.3602   -5.0387 H   0  0  0  0  0  0  0  0  0  0  0  0
    0.6440    7.5424   -2.6332 H   0  0  0  0  0  0  0  0  0  0  0  0
   -0.6535    8.4793    1.3232 H   0  0  0  0  0  0  0  0  0  0  0  0
    0.7832    6.7043    2.2360 H   0  0  0  0  0  0  0  0  0  0  0  0
    0.9008    3.3532    2.1293 H   0  0  0  0  0  0  0  0  0  0  0  0
   -1.2199    2.1030    2.1470 H   0  0  0  0  0  0  0  0  0  0  0  0
   -2.1436    1.2147    0.0444 H   0  0  0  0  0  0  0  0  0  0  0  0
    1.1683    2.8442   -2.0965 H   0  0  0  0  0  0  0  0  0  0  0  0
    6.6089    1.5058   -5.4261 H   0  0  0  0  0  0  0  0  0  0  0  0
    6.9009    0.4509   -4.0225 H   0  0  0  0  0  0  0  0  0  0  0  0
    5.3076    0.4556   -4.8161 H   0  0  0  0  0  0  0  0  0  0  0  0
    6.5733    3.8505   -2.5420 H   0  0  0  0  0  0  0  0  0  0  0  0
    7.6402    2.4339   -2.6942 H   0  0  0  0  0  0  0  0  0  0  0  0
    7.3455    3.4815   -4.1027 H   0  0  0  0  0  0  0  0  0  0  0  0
  1  2  1  0  0  0  0
  1 31  1  0  0  0  0
  1 32  1  0  0  0  0
  1 33  1  0  0  0  0
  2  7  1  0  0  0  0
  2  3  2  0  0  0  0
  3  4  1  0  0  0  0
  3 34  1  0  0  0  0
  4  5  1  0  0  0  0
  4 29  1  0  0  0  0
  4 30  1  0  0  0  0
  5  6  1  0  0  0  0
  5 35  1  0  0  0  0
  6 11  2  0  0  0  0
  6  7  1  0  0  0  0
  7  8  2  0  0  0  0
  8 19  1  0  0  0  0
  8  9  1  0  0  0  0
  9 10  2  0  0  0  0
  9 12  1  0  0  0  0
 10 11  1  0  0  0  0
 10 36  1  0  0  0  0
 11 37  1  0  0  0  0
 12 17  2  0  0  0  0
 12 13  1  0  0  0  0
 13 14  2  0  0  0  0
 13 38  1  0  0  0  0
 14 15  1  0  0  0  0
 14 28  1  0  0  0  0
 15 16  2  0  0  0  0
 15 39  1  0  0  0  0
 16 17  1  0  0  0  0
 16 40  1  0  0  0  0
 17 18  1  0  0  0  0
 18 19  1  0  0  0  0
 19 20  1  0  0  0  0
 19 21  1  0  0  0  0
 21 26  2  0  0  0  0
 21 22  1  0  0  0  0
 22 23  2  0  0  0  0
 22 41  1  0  0  0  0
 23 24  1  0  0  0  0
 23 42  1  0  0  0  0
 24 25  2  0  0  0  0
 24 43  1  0  0  0  0
 25 26  1  0  0  0  0
 25 27  1  0  0  0  0
 26 44  1  0  0  0  0
 29 45  1  0  0  0  0
 29 46  1  0  0  0  0
 29 47  1  0  0  0  0
 30 48  1  0  0  0  0
 30 49  1  0  0  0  0
 30 50  1  0  0  0  0
M  END
$$$$
ZINC03831938
  -OEChem-08230709403D

 55 58  0     1  0  0  0  0  0999 V2000
   -0.3519    8.2184   -2.9203 C   0  0  0  0  0  0  0  0  0  0  0  0
    0.0411    6.7640   -2.8828 C   0  0  0  0  0  0  0  0  0  0  0  0
    0.1689    6.1376   -1.7121 C   0  0  0  0  0  0  0  0  0  0  0  0
   -0.0430    6.8309   -0.4045 C   0  0  0  0  0  0  0  0  0  0  0  0
    0.3708    8.0926   -0.1711 C   0  0  0  0  0  0  0  0  0  0  0  0
    0.2906    8.6113    1.0765 O   0  0  0  0  0  0  0  0  0  0  0  0
    0.7470    9.9541    1.2514 C   0  0  0  0  0  0  0  0  0  0  0  0
   -0.7501    6.0095    0.6205 C   0  0  0  0  0  0  0  0  0  0  0  0
   -1.2883    6.6091    1.7548 C   0  0  0  0  0  0  0  0  0  0  0  0
   -1.9473    5.8449    2.6942 C   0  0  0  0  0  0  0  0  0  0  0  0
   -2.0564    4.4776    2.5092 C   0  0  0  0  0  0  0  0  0  0  0  0
   -1.5092    3.8669    1.3717 C   0  0  0  0  0  0  0  0  0  0  0  0
   -0.8532    4.6365    0.4115 C   0  0  0  0  0  0  0  0  0  0  0  0
   -0.2865    3.9683   -0.8053 C   0  0  2  0  0  0  0  0  0  0  0  0
    0.3284    3.1276   -0.4841 H   0  0  0  0  0  0  0  0  0  0  0  0
    0.5020    4.8172   -1.6210 O   0  0  0  0  0  0  0  0  0  0  0  0
   -1.4267    3.4331   -1.6326 C   0  0  0  0  0  0  0  0  0  0  0  0
   -1.1717    2.8122   -2.8409 C   0  0  0  0  0  0  0  0  0  0  0  0
   -2.2177    2.3156   -3.5982 C   0  0  0  0  0  0  0  0  0  0  0  0
   -3.5199    2.4510   -3.1515 C   0  0  0  0  0  0  0  0  0  0  0  0
   -3.7749    3.0775   -1.9448 C   0  0  0  0  0  0  0  0  0  0  0  0
   -2.7276    3.5683   -1.1855 C   0  0  0  0  0  0  0  0  0  0  0  0
   -5.4088    3.2485   -1.3837 Cl  0  0  0  0  0  0  0  0  0  0  0  0
   -1.8966    1.5294   -5.1123 Cl  0  0  0  0  0  0  0  0  0  0  0  0
   -1.6474    2.4053    1.2109 C   0  0  0  0  0  0  0  0  0  0  0  0
   -2.5192    1.7421    1.9598 C   0  0  0  0  0  0  0  0  0  0  0  0
   -3.3880    2.4575    2.9598 C   0  0  0  0  0  0  0  0  0  0  0  0
   -2.7067    3.6655    3.4427 N   0  0  0  0  0  0  0  0  0  0  0  0
   -4.7090    2.8507    2.2954 C   0  0  0  0  0  0  0  0  0  0  0  0
   -3.6710    1.5292    4.1426 C   0  0  0  0  0  0  0  0  0  0  0  0
   -0.7984    1.6702    0.2060 C   0  0  0  0  0  0  0  0  0  0  0  0
    0.5383    8.8382   -2.8138 H   0  0  0  0  0  0  0  0  0  0  0  0
   -0.8369    8.4393   -3.8711 H   0  0  0  0  0  0  0  0  0  0  0  0
   -1.0415    8.4296   -2.1030 H   0  0  0  0  0  0  0  0  0  0  0  0
    0.2194    6.2290   -3.8039 H   0  0  0  0  0  0  0  0  0  0  0  0
    0.7663    8.6895   -0.9796 H   0  0  0  0  0  0  0  0  0  0  0  0
    0.6275   10.2455    2.2949 H   0  0  0  0  0  0  0  0  0  0  0  0
    1.7991   10.0193    0.9742 H   0  0  0  0  0  0  0  0  0  0  0  0
    0.1625   10.6218    0.6185 H   0  0  0  0  0  0  0  0  0  0  0  0
   -1.1964    7.6760    1.8955 H   0  0  0  0  0  0  0  0  0  0  0  0
   -2.3654    6.3095    3.5749 H   0  0  0  0  0  0  0  0  0  0  0  0
   -0.1553    2.7108   -3.1918 H   0  0  0  0  0  0  0  0  0  0  0  0
   -4.3371    2.0680   -3.7447 H   0  0  0  0  0  0  0  0  0  0  0  0
   -2.9266    4.0575   -0.2434 H   0  0  0  0  0  0  0  0  0  0  0  0
   -2.6067    0.6713    1.8505 H   0  0  0  0  0  0  0  0  0  0  0  0
   -2.7076    3.8938    4.3855 H   0  0  0  0  0  0  0  0  0  0  0  0
   -5.2201    1.9542    1.9444 H   0  0  0  0  0  0  0  0  0  0  0  0
   -5.3392    3.3688    3.0183 H   0  0  0  0  0  0  0  0  0  0  0  0
   -4.5087    3.5091    1.4502 H   0  0  0  0  0  0  0  0  0  0  0  0
   -2.7305    1.2453    4.6148 H   0  0  0  0  0  0  0  0  0  0  0  0
   -4.3000    2.0459    4.8675 H   0  0  0  0  0  0  0  0  0  0  0  0
   -4.1840    0.6352    3.7883 H   0  0  0  0  0  0  0  0  0  0  0  0
   -0.9526    0.5968    0.3162 H   0  0  0  0  0  0  0  0  0  0  0  0
    0.2521    1.9058    0.3763 H   0  0  0  0  0  0  0  0  0  0  0  0
   -1.0808    1.9762   -0.8013 H   0  0  0  0  0  0  0  0  0  0  0  0
  1  2  1  0  0  0  0
  1 32  1  0  0  0  0
  1 33  1  0  0  0  0
  1 34  1  0  0  0  0
  2  3  2  0  0  0  0
  2 35  1  0  0  0  0
  3 16  1  0  0  0  0
  3  4  1  0  0  0  0
  4  5  2  0  0  0  0
  4  8  1  0  0  0  0
  5  6  1  0  0  0  0
  5 36  1  0  0  0  0
  6  7  1  0  0  0  0
  7 37  1  0  0  0  0
  7 38  1  0  0  0  0
  7 39  1  0  0  0  0
  8 13  2  0  0  0  0
  8  9  1  0  0  0  0
  9 10  2  0  0  0  0
  9 40  1  0  0  0  0
 10 11  1  0  0  0  0
 10 41  1  0  0  0  0
 11 28  1  0  0  0  0
 11 12  2  0  0  0  0
 12 13  1  0  0  0  0
 12 25  1  0  0  0  0
 13 14  1  0  0  0  0
 14 15  1  0  0  0  0
 14 16  1  0  0  0  0
 14 17  1  0  0  0  0
 17 22  2  0  0  0  0
 17 18  1  0  0  0  0
 18 19  2  0  0  0  0
 18 42  1  0  0  0  0
 19 20  1  0  0  0  0
 19 24  1  0  0  0  0
 20 21  2  0  0  0  0
 20 43  1  0  0  0  0
 21 22  1  0  0  0  0
 21 23  1  0  0  0  0
 22 44  1  0  0  0  0
 25 26  2  0  0  0  0
 25 31  1  0  0  0  0
 26 27  1  0  0  0  0
 26 45  1  0  0  0  0
 27 28  1  0  0  0  0
 27 29  1  0  0  0  0
 27 30  1  0  0  0  0
 28 46  1  0  0  0  0
 29 47  1  0  0  0  0
 29 48  1  0  0  0  0
 29 49  1  0  0  0  0
 30 50  1  0  0  0  0
 30 51  1  0  0  0  0
 30 52  1  0  0  0  0
 31 53  1  0  0  0  0
 31 54  1  0  0  0  0
 31 55  1  0  0  0  0
M  END
$$$$
ZINC03831939
  -OEChem-08230709403D

 50 54  0     1  0  0  0  0  0999 V2000
    4.9263    1.8653   -0.9400 C   0  0  0  0  0  0  0  0  0  0  0  0
    3.5878    2.3001   -0.4034 C   0  0  0  0  0  0  0  0  0  0  0  0
    3.4372    3.5877   -0.0975 C   0  0  0  0  0  0  0  0  0  0  0  0
    2.0778    4.1124    0.2863 C   0  0  0  0  0  0  0  0  0  0  0  0
    1.0756    3.3726   -0.4971 N   0  0  0  0  0  0  0  0  0  0  0  0
    1.1665    1.9763   -0.5035 C   0  0  0  0  0  0  0  0  0  0  0  0
    2.4367    1.3851   -0.3025 C   0  0  0  0  0  0  0  0  0  0  0  0
    2.5141    0.0116   -0.1218 C   0  0  0  0  0  0  0  0  0  0  0  0
    1.3717   -0.7621   -0.3511 C   0  0  0  0  0  0  0  0  0  0  0  0
    0.1409   -0.1715   -0.6191 C   0  0  0  0  0  0  0  0  0  0  0  0
    0.0338    1.2035   -0.6615 C   0  0  0  0  0  0  0  0  0  0  0  0
    1.4974   -2.2396   -0.3709 C   0  0  0  0  0  0  0  0  0  0  0  0
    0.4990   -3.0439   -0.9053 C   0  0  0  0  0  0  0  0  0  0  0  0
    0.6606   -4.4171   -0.9215 C   0  0  0  0  0  0  0  0  0  0  0  0
    1.8165   -4.9862   -0.4140 C   0  0  0  0  0  0  0  0  0  0  0  0
    2.8117   -4.1913    0.1214 C   0  0  0  0  0  0  0  0  0  0  0  0
    2.6562   -2.8132    0.1585 C   0  0  0  0  0  0  0  0  0  0  0  0
    3.6034   -2.0309    0.7019 O   0  0  0  0  0  0  0  0  0  0  0  0
    3.7546   -0.6524    0.4085 C   0  0  2  0  0  0  0  0  0  0  0  0
    4.5669   -0.5500   -0.3141 H   0  0  0  0  0  0  0  0  0  0  0  0
    4.1552    0.0296    1.6912 C   0  0  0  0  0  0  0  0  0  0  0  0
    5.3437    0.7323    1.7584 C   0  0  0  0  0  0  0  0  0  0  0  0
    5.7093    1.3612    2.9338 C   0  0  0  0  0  0  0  0  0  0  0  0
    4.8904    1.2804    4.0446 C   0  0  0  0  0  0  0  0  0  0  0  0
    3.7045    0.5732    3.9790 C   0  0  0  0  0  0  0  0  0  0  0  0
    3.3370   -0.0524    2.8024 C   0  0  0  0  0  0  0  0  0  0  0  0
   -0.5874   -5.4295   -1.5776 Cl  0  0  0  0  0  0  0  0  0  0  0  0
    1.9896    5.6006   -0.0467 C   0  0  0  0  0  0  0  0  0  0  0  0
    1.8355    3.8980    1.7774 C   0  0  0  0  0  0  0  0  0  0  0  0
    4.9043    0.7955   -1.1477 H   0  0  0  0  0  0  0  0  0  0  0  0
    5.1434    2.4095   -1.8592 H   0  0  0  0  0  0  0  0  0  0  0  0
    5.6997    2.0763   -0.2015 H   0  0  0  0  0  0  0  0  0  0  0  0
    4.2850    4.2480   -0.1234 H   0  0  0  0  0  0  0  0  0  0  0  0
    0.3830    3.8339   -0.9866 H   0  0  0  0  0  0  0  0  0  0  0  0
   -0.7329   -0.7867   -0.7735 H   0  0  0  0  0  0  0  0  0  0  0  0
   -0.9267    1.6707   -0.8213 H   0  0  0  0  0  0  0  0  0  0  0  0
   -0.4005   -2.6016   -1.3065 H   0  0  0  0  0  0  0  0  0  0  0  0
    1.9407   -6.0587   -0.4379 H   0  0  0  0  0  0  0  0  0  0  0  0
    3.7138   -4.6391    0.5113 H   0  0  0  0  0  0  0  0  0  0  0  0
    5.9851    0.7927    0.8915 H   0  0  0  0  0  0  0  0  0  0  0  0
    6.6361    1.9134    2.9852 H   0  0  0  0  0  0  0  0  0  0  0  0
    5.1774    1.7694    4.9638 H   0  0  0  0  0  0  0  0  0  0  0  0
    3.0649    0.5097    4.8469 H   0  0  0  0  0  0  0  0  0  0  0  0
    2.4104   -0.6049    2.7511 H   0  0  0  0  0  0  0  0  0  0  0  0
    0.9935    5.9693    0.1980 H   0  0  0  0  0  0  0  0  0  0  0  0
    2.7323    6.1476    0.5341 H   0  0  0  0  0  0  0  0  0  0  0  0
    2.1801    5.7469   -1.1099 H   0  0  0  0  0  0  0  0  0  0  0  0
    1.9118    2.8356    2.0088 H   0  0  0  0  0  0  0  0  0  0  0  0
    2.5818    4.4491    2.3497 H   0  0  0  0  0  0  0  0  0  0  0  0
    0.8398    4.2562    2.0389 H   0  0  0  0  0  0  0  0  0  0  0  0
  1  2  1  0  0  0  0
  1 30  1  0  0  0  0
  1 31  1  0  0  0  0
  1 32  1  0  0  0  0
  2  7  1  0  0  0  0
  2  3  2  0  0  0  0
  3  4  1  0  0  0  0
  3 33  1  0  0  0  0
  4  5  1  0  0  0  0
  4 28  1  0  0  0  0
  4 29  1  0  0  0  0
  5  6  1  0  0  0  0
  5 34  1  0  0  0  0
  6 11  2  0  0  0  0
  6  7  1  0  0  0  0
  7  8  2  0  0  0  0
  8 19  1  0  0  0  0
  8  9  1  0  0  0  0
  9 10  2  0  0  0  0
  9 12  1  0  0  0  0
 10 11  1  0  0  0  0
 10 35  1  0  0  0  0
 11 36  1  0  0  0  0
 12 17  2  0  0  0  0
 12 13  1  0  0  0  0
 13 14  2  0  0  0  0
 13 37  1  0  0  0  0
 14 15  1  0  0  0  0
 14 27  1  0  0  0  0
 15 16  2  0  0  0  0
 15 38  1  0  0  0  0
 16 17  1  0  0  0  0
 16 39  1  0  0  0  0
 17 18  1  0  0  0  0
 18 19  1  0  0  0  0
 19 20  1  0  0  0  0
 19 21  1  0  0  0  0
 21 26  2  0  0  0  0
 21 22  1  0  0  0  0
 22 23  2  0  0  0  0
 22 40  1  0  0  0  0
 23 24  1  0  0  0  0
 23 41  1  0  0  0  0
 24 25  2  0  0  0  0
 24 42  1  0  0  0  0
 25 26  1  0  0  0  0
 25 43  1  0  0  0  0
 26 44  1  0  0  0  0
 28 45  1  0  0  0  0
 28 46  1  0  0  0  0
 28 47  1  0  0  0  0
 29 48  1  0  0  0  0
 29 49  1  0  0  0  0
 29 50  1  0  0  0  0
M  END
$$$$
ZINC03831941
  -OEChem-08230709403D

 58 61  0     1  0  0  0  0  0999 V2000
   -5.7093   -1.0506    1.4154 C   0  0  0  0  0  0  0  0  0  0  0  0
   -4.2560   -0.7630    1.6913 C   0  0  0  0  0  0  0  0  0  0  0  0
   -3.4522   -0.3782    0.6988 C   0  0  0  0  0  0  0  0  0  0  0  0
   -3.9573   -0.1022   -0.6810 C   0  0  0  0  0  0  0  0  0  0  0  0
   -5.1283    0.5223   -0.9190 C   0  0  0  0  0  0  0  0  0  0  0  0
   -5.5768    0.6585   -2.1887 O   0  0  0  0  0  0  0  0  0  0  0  0
   -6.8251    1.3308   -2.3672 C   0  0  0  0  0  0  0  0  0  0  0  0
   -3.0576   -0.5760   -1.7724 C   0  0  0  0  0  0  0  0  0  0  0  0
   -3.5265   -0.6733   -3.0788 C   0  0  0  0  0  0  0  0  0  0  0  0
   -2.6869   -1.1094   -4.0866 C   0  0  0  0  0  0  0  0  0  0  0  0
   -1.3789   -1.4475   -3.7861 C   0  0  0  0  0  0  0  0  0  0  0  0
   -0.9036   -1.3548   -2.4687 C   0  0  0  0  0  0  0  0  0  0  0  0
   -1.7482   -0.9124   -1.4478 C   0  0  0  0  0  0  0  0  0  0  0  0
   -1.2205   -0.8245   -0.0471 C   0  0  2  0  0  0  0  0  0  0  0  0
   -1.0042   -1.8330    0.3055 H   0  0  0  0  0  0  0  0  0  0  0  0
   -2.1087   -0.2082    0.8689 O   0  0  0  0  0  0  0  0  0  0  0  0
    0.0660   -0.0400   -0.0683 C   0  0  0  0  0  0  0  0  0  0  0  0
    0.4535    0.6214   -1.2189 C   0  0  0  0  0  0  0  0  0  0  0  0
    1.6331    1.3413   -1.2382 C   0  0  0  0  0  0  0  0  0  0  0  0
    2.4267    1.3985   -0.1075 C   0  0  0  0  0  0  0  0  0  0  0  0
    2.0389    0.7380    1.0431 C   0  0  0  0  0  0  0  0  0  0  0  0
    0.8584    0.0186    1.0627 C   0  0  0  0  0  0  0  0  0  0  0  0
    2.9031    0.8016    2.2760 C   0  0  0  0  0  0  0  0  0  0  0  0
    3.8198   -0.2551    2.2580 F   0  0  0  0  0  0  0  0  0  0  0  0
    3.5939    2.0179    2.2991 F   0  0  0  0  0  0  0  0  0  0  0  0
    2.0979    0.7010    3.4156 F   0  0  0  0  0  0  0  0  0  0  0  0
    0.4959   -1.7352   -2.1897 C   0  0  0  0  0  0  0  0  0  0  0  0
    1.3567   -1.8511   -3.1930 C   0  0  0  0  0  0  0  0  0  0  0  0
    0.9350   -1.5862   -4.6137 C   0  0  0  0  0  0  0  0  0  0  0  0
   -0.4938   -1.8836   -4.7763 N   0  0  0  0  0  0  0  0  0  0  0  0
    1.1897   -0.1163   -4.9534 C   0  0  0  0  0  0  0  0  0  0  0  0
    1.7472   -2.4740   -5.5586 C   0  0  0  0  0  0  0  0  0  0  0  0
    0.9438   -1.9906   -0.7737 C   0  0  0  0  0  0  0  0  0  0  0  0
   -5.8100   -1.4963    0.4258 H   0  0  0  0  0  0  0  0  0  0  0  0
   -6.0917   -1.7424    2.1660 H   0  0  0  0  0  0  0  0  0  0  0  0
   -6.2775   -0.1213    1.4549 H   0  0  0  0  0  0  0  0  0  0  0  0
   -3.8652   -0.8685    2.6926 H   0  0  0  0  0  0  0  0  0  0  0  0
   -5.7084    0.9139   -0.0965 H   0  0  0  0  0  0  0  0  0  0  0  0
   -7.6084    0.7897   -1.8363 H   0  0  0  0  0  0  0  0  0  0  0  0
   -6.7518    2.3440   -1.9722 H   0  0  0  0  0  0  0  0  0  0  0  0
   -7.0673    1.3714   -3.4291 H   0  0  0  0  0  0  0  0  0  0  0  0
   -4.5485   -0.4080   -3.3058 H   0  0  0  0  0  0  0  0  0  0  0  0
   -3.0491   -1.1860   -5.1011 H   0  0  0  0  0  0  0  0  0  0  0  0
   -0.1635    0.5718   -2.1039 H   0  0  0  0  0  0  0  0  0  0  0  0
    1.9358    1.8580   -2.1370 H   0  0  0  0  0  0  0  0  0  0  0  0
    3.3488    1.9604   -0.1228 H   0  0  0  0  0  0  0  0  0  0  0  0
    0.5555   -0.4977    1.9616 H   0  0  0  0  0  0  0  0  0  0  0  0
    2.3766   -2.1407   -2.9870 H   0  0  0  0  0  0  0  0  0  0  0  0
   -0.8153   -2.3706   -5.5512 H   0  0  0  0  0  0  0  0  0  0  0  0
    2.2514    0.1037   -4.8418 H   0  0  0  0  0  0  0  0  0  0  0  0
    0.8847    0.0771   -5.9819 H   0  0  0  0  0  0  0  0  0  0  0  0
    0.6144    0.5176   -4.2786 H   0  0  0  0  0  0  0  0  0  0  0  0
    1.5695   -3.5215   -5.3154 H   0  0  0  0  0  0  0  0  0  0  0  0
    1.4429   -2.2832   -6.5878 H   0  0  0  0  0  0  0  0  0  0  0  0
    2.8079   -2.2497   -5.4459 H   0  0  0  0  0  0  0  0  0  0  0  0
    0.0844   -2.2745   -0.1664 H   0  0  0  0  0  0  0  0  0  0  0  0
    1.6774   -2.7968   -0.7645 H   0  0  0  0  0  0  0  0  0  0  0  0
    1.3937   -1.0853   -0.3660 H   0  0  0  0  0  0  0  0  0  0  0  0
  1  2  1  0  0  0  0
  1 34  1  0  0  0  0
  1 35  1  0  0  0  0
  1 36  1  0  0  0  0
  2  3  2  0  0  0  0
  2 37  1  0  0  0  0
  3 16  1  0  0  0  0
  3  4  1  0  0  0  0
  4  5  2  0  0  0  0
  4  8  1  0  0  0  0
  5  6  1  0  0  0  0
  5 38  1  0  0  0  0
  6  7  1  0  0  0  0
  7 39  1  0  0  0  0
  7 40  1  0  0  0  0
  7 41  1  0  0  0  0
  8 13  2  0  0  0  0
  8  9  1  0  0  0  0
  9 10  2  0  0  0  0
  9 42  1  0  0  0  0
 10 11  1  0  0  0  0
 10 43  1  0  0  0  0
 11 30  1  0  0  0  0
 11 12  2  0  0  0  0
 12 13  1  0  0  0  0
 12 27  1  0  0  0  0
 13 14  1  0  0  0  0
 14 15  1  0  0  0  0
 14 16  1  0  0  0  0
 14 17  1  0  0  0  0
 17 22  2  0  0  0  0
 17 18  1  0  0  0  0
 18 19  2  0  0  0  0
 18 44  1  0  0  0  0
 19 20  1  0  0  0  0
 19 45  1  0  0  0  0
 20 21  2  0  0  0  0
 20 46  1  0  0  0  0
 21 22  1  0  0  0  0
 21 23  1  0  0  0  0
 22 47  1  0  0  0  0
 23 24  1  0  0  0  0
 23 25  1  0  0  0  0
 23 26  1  0  0  0  0
 27 28  2  0  0  0  0
 27 33  1  0  0  0  0
 28 29  1  0  0  0  0
 28 48  1  0  0  0  0
 29 30  1  0  0  0  0
 29 31  1  0  0  0  0
 29 32  1  0  0  0  0
 30 49  1  0  0  0  0
 31 50  1  0  0  0  0
 31 51  1  0  0  0  0
 31 52  1  0  0  0  0
 32 53  1  0  0  0  0
 32 54  1  0  0  0  0
 32 55  1  0  0  0  0
 33 56  1  0  0  0  0
 33 57  1  0  0  0  0
 33 58  1  0  0  0  0
M  END
$$$$
ZINC03831942
  -OEChem-08230709403D

 53 57  0     1  0  0  0  0  0999 V2000
    4.1260    0.5894   -1.6406 C   0  0  0  0  0  0  0  0  0  0  0  0
    3.9171    0.4311   -0.1566 C   0  0  0  0  0  0  0  0  0  0  0  0
    3.9657    1.5378    0.6703 C   0  0  0  0  0  0  0  0  0  0  0  0
    3.7737    1.3928    2.0314 C   0  0  0  0  0  0  0  0  0  0  0  0
    3.5384    0.1402    2.5674 C   0  0  0  0  0  0  0  0  0  0  0  0
    3.4840   -0.9661    1.7411 C   0  0  0  0  0  0  0  0  0  0  0  0
    3.6762   -0.8216    0.3784 C   0  0  0  0  0  0  0  0  0  0  0  0
    3.6155   -2.2120   -0.6594 Cl  0  0  0  0  0  0  0  0  0  0  0  0
    3.8268    2.5997    2.9324 C   0  0  2  0  0  0  0  0  0  0  0  0
    3.6926    2.3637    3.9637 H   0  0  0  0  0  0  0  0  0  0  0  0
    2.7006    3.5893    2.4389 C   0  0  0  0  0  0  0  0  0  0  0  0
    3.1434    4.8227    2.0326 C   0  0  0  0  0  0  0  0  0  0  0  0
    2.3111    5.6912    1.3615 C   0  0  0  0  0  0  0  0  0  0  0  0
    1.0617    5.2610    1.0489 C   0  0  0  0  0  0  0  0  0  0  0  0
    0.5939    3.9743    1.4035 C   0  0  0  0  0  0  0  0  0  0  0  0
    1.4444    3.2622    2.2362 C   0  0  0  0  0  0  0  0  0  0  0  0
    0.7665    2.0184    2.8270 C   0  0  0  0  0  0  0  0  0  0  0  0
   -0.2391    1.4757    2.2944 C   0  0  0  0  0  0  0  0  0  0  0  0
   -0.8130    2.0317    1.0387 C   0  0  0  0  0  0  0  0  0  0  0  0
   -0.5682    3.4542    0.9470 N   0  0  0  0  0  0  0  0  0  0  0  0
   -0.2507    1.3597   -0.1724 C   0  0  0  0  0  0  0  0  0  0  0  0
   -2.3377    1.7822    1.0057 C   0  0  0  0  0  0  0  0  0  0  0  0
    1.2345    1.4030    4.1621 C   0  0  0  0  0  0  0  0  0  0  0  0
    4.4471    5.3520    2.4996 C   0  0  0  0  0  0  0  0  0  0  0  0
    4.8062    6.6889    2.5560 C   0  0  0  0  0  0  0  0  0  0  0  0
    6.0084    7.1052    2.8662 C   0  0  0  0  0  0  0  0  0  0  0  0
    7.0631    6.1959    3.2828 C   0  0  0  0  0  0  0  0  0  0  0  0
    6.6836    4.8916    3.2493 C   0  0  0  0  0  0  0  0  0  0  0  0
    5.3942    4.4196    2.8204 C   0  0  0  0  0  0  0  0  0  0  0  0
    5.1632    3.1512    2.7726 O   0  0  0  0  0  0  0  0  0  0  0  0
    6.4411    8.8755    2.9654 Cl  0  0  0  0  0  0  0  0  0  0  0  0
    5.1865    0.4881   -1.8711 H   0  0  0  0  0  0  0  0  0  0  0  0
    3.5639   -0.1794   -2.1707 H   0  0  0  0  0  0  0  0  0  0  0  0
    3.7787    1.5741   -1.9534 H   0  0  0  0  0  0  0  0  0  0  0  0
    4.1534    2.5159    0.2527 H   0  0  0  0  0  0  0  0  0  0  0  0
    3.3929    0.0269    3.6316 H   0  0  0  0  0  0  0  0  0  0  0  0
    3.2962   -1.9440    2.1594 H   0  0  0  0  0  0  0  0  0  0  0  0
    2.6187    6.7422    1.0637 H   0  0  0  0  0  0  0  0  0  0  0  0
    0.3423    5.8567    0.3712 H   0  0  0  0  0  0  0  0  0  0  0  0
   -0.7335    0.6562    2.7328 H   0  0  0  0  0  0  0  0  0  0  0  0
   -1.2418    4.1050    0.5860 H   0  0  0  0  0  0  0  0  0  0  0  0
   -0.4770    0.2941   -0.1347 H   0  0  0  0  0  0  0  0  0  0  0  0
    0.8298    1.5010   -0.1975 H   0  0  0  0  0  0  0  0  0  0  0  0
   -0.6948    1.7940   -1.0680 H   0  0  0  0  0  0  0  0  0  0  0  0
   -2.5309    0.7098    1.0286 H   0  0  0  0  0  0  0  0  0  0  0  0
   -2.8018    2.2536    1.8720 H   0  0  0  0  0  0  0  0  0  0  0  0
   -2.7557    2.2074    0.0933 H   0  0  0  0  0  0  0  0  0  0  0  0
    0.6488    0.5087    4.3751 H   0  0  0  0  0  0  0  0  0  0  0  0
    2.2893    1.1379    4.0901 H   0  0  0  0  0  0  0  0  0  0  0  0
    1.0959    2.1277    4.9645 H   0  0  0  0  0  0  0  0  0  0  0  0
    4.0529    7.4735    2.1740 H   0  0  0  0  0  0  0  0  0  0  0  0
    7.9457    6.4887    3.5080 H   0  0  0  0  0  0  0  0  0  0  0  0
    7.4217    4.1312    3.5165 H   0  0  0  0  0  0  0  0  0  0  0  0
  1  2  1  0  0  0  0
  1 32  1  0  0  0  0
  1 33  1  0  0  0  0
  1 34  1  0  0  0  0
  2  7  2  0  0  0  0
  2  3  1  0  0  0  0
  3  4  2  0  0  0  0
  3 35  1  0  0  0  0
  4  5  1  0  0  0  0
  4  9  1  0  0  0  0
  5  6  2  0  0  0  0
  5 36  1  0  0  0  0
  6  7  1  0  0  0  0
  6 37  1  0  0  0  0
  7  8  1  0  0  0  0
  9 10  1  0  0  0  0
  9 30  1  0  0  0  0
  9 11  1  0  0  0  0
 11 16  2  0  0  0  0
 11 12  1  0  0  0  0
 12 13  2  0  0  0  0
 12 24  1  0  0  0  0
 13 14  1  0  0  0  0
 13 38  1  0  0  0  0
 14 15  2  0  0  0  0
 14 39  1  0  0  0  0
 15 20  1  0  0  0  0
 15 16  1  0  0  0  0
 16 17  1  0  0  0  0
 17 18  2  0  0  0  0
 17 23  1  0  0  0  0
 18 19  1  0  0  0  0
 18 40  1  0  0  0  0
 19 20  1  0  0  0  0
 19 21  1  0  0  0  0
 19 22  1  0  0  0  0
 20 41  1  0  0  0  0
 21 42  1  0  0  0  0
 21 43  1  0  0  0  0
 21 44  1  0  0  0  0
 22 45  1  0  0  0  0
 22 46  1  0  0  0  0
 22 47  1  0  0  0  0
 23 48  1  0  0  0  0
 23 49  1  0  0  0  0
 23 50  1  0  0  0  0
 24 29  2  0  0  0  0
 24 25  1  0  0  0  0
 25 26  2  0  0  0  0
 25 51  1  0  0  0  0
 26 27  1  0  0  0  0
 26 31  1  0  0  0  0
 27 28  2  0  0  0  0
 27 52  1  0  0  0  0
 28 29  1  0  0  0  0
 28 53  1  0  0  0  0
 29 30  1  0  0  0  0
M  END
$$$$
ZINC03831944
  -OEChem-08230709403D

 51 54  0     1  0  0  0  0  0999 V2000
   -3.5671    3.9036   -0.0135 C   0  0  0  0  0  0  0  0  0  0  0  0
   -2.2641    4.6198   -0.2590 C   0  0  0  0  0  0  0  0  0  0  0  0
   -1.1998    3.9397   -0.6822 C   0  0  0  0  0  0  0  0  0  0  0  0
   -1.2699    2.4934   -1.0647 C   0  0  0  0  0  0  0  0  0  0  0  0
   -2.3048    1.9684   -1.7354 C   0  0  0  0  0  0  0  0  0  0  0  0
   -0.0909    1.6856   -0.6354 C   0  0  0  0  0  0  0  0  0  0  0  0
   -0.1511    0.2957   -0.6384 C   0  0  0  0  0  0  0  0  0  0  0  0
    0.9476   -0.4472   -0.2502 C   0  0  0  0  0  0  0  0  0  0  0  0
    2.1059    0.2017    0.1419 C   0  0  0  0  0  0  0  0  0  0  0  0
    2.1686    1.6043    0.1501 C   0  0  0  0  0  0  0  0  0  0  0  0
    1.0629    2.3580   -0.2408 C   0  0  0  0  0  0  0  0  0  0  0  0
    1.1486    3.8548   -0.2193 C   0  0  1  0  0  0  0  0  0  0  0  0
    2.0457    4.1580   -0.7590 H   0  0  0  0  0  0  0  0  0  0  0  0
    0.0347    4.5106   -0.7993 O   0  0  0  0  0  0  0  0  0  0  0  0
    1.2777    4.3063    1.2127 C   0  0  0  0  0  0  0  0  0  0  0  0
    0.9581    3.4405    2.2419 C   0  0  0  0  0  0  0  0  0  0  0  0
    1.0811    3.8531    3.5555 C   0  0  0  0  0  0  0  0  0  0  0  0
    1.5141    5.1348    3.8397 C   0  0  0  0  0  0  0  0  0  0  0  0
    1.8282    6.0024    2.8104 C   0  0  0  0  0  0  0  0  0  0  0  0
    1.7102    5.5881    1.4969 C   0  0  0  0  0  0  0  0  0  0  0  0
    3.4211    2.2574    0.5811 C   0  0  0  0  0  0  0  0  0  0  0  0
    4.5401    1.5477    0.6520 C   0  0  0  0  0  0  0  0  0  0  0  0
    4.5590    0.0875    0.2859 C   0  0  0  0  0  0  0  0  0  0  0  0
    3.2409   -0.5095    0.5359 N   0  0  0  0  0  0  0  0  0  0  0  0
    5.6117   -0.6340    1.1297 C   0  0  0  0  0  0  0  0  0  0  0  0
    4.9106   -0.0601   -1.1958 C   0  0  0  0  0  0  0  0  0  0  0  0
    3.4285    3.7216    0.9374 C   0  0  0  0  0  0  0  0  0  0  0  0
   -3.3654    2.9045    0.3727 H   0  0  0  0  0  0  0  0  0  0  0  0
   -4.1572    4.4618    0.7133 H   0  0  0  0  0  0  0  0  0  0  0  0
   -4.1212    3.8264   -0.9490 H   0  0  0  0  0  0  0  0  0  0  0  0
   -2.1932    5.6844   -0.0918 H   0  0  0  0  0  0  0  0  0  0  0  0
   -2.2772    0.9351   -2.0482 H   0  0  0  0  0  0  0  0  0  0  0  0
   -3.1662    2.5787   -1.9630 H   0  0  0  0  0  0  0  0  0  0  0  0
   -1.0582   -0.2037   -0.9451 H   0  0  0  0  0  0  0  0  0  0  0  0
    0.9030   -1.5263   -0.2530 H   0  0  0  0  0  0  0  0  0  0  0  0
    0.6159    2.4405    2.0197 H   0  0  0  0  0  0  0  0  0  0  0  0
    0.8354    3.1754    4.3596 H   0  0  0  0  0  0  0  0  0  0  0  0
    1.6067    5.4583    4.8659 H   0  0  0  0  0  0  0  0  0  0  0  0
    2.1662    7.0038    3.0325 H   0  0  0  0  0  0  0  0  0  0  0  0
    1.9556    6.2659    0.6927 H   0  0  0  0  0  0  0  0  0  0  0  0
    5.4523    2.0253    0.9780 H   0  0  0  0  0  0  0  0  0  0  0  0
    3.1608   -1.3761    0.9643 H   0  0  0  0  0  0  0  0  0  0  0  0
    5.6330   -1.6897    0.8592 H   0  0  0  0  0  0  0  0  0  0  0  0
    6.5908   -0.1919    0.9452 H   0  0  0  0  0  0  0  0  0  0  0  0
    5.3614   -0.5345    2.1859 H   0  0  0  0  0  0  0  0  0  0  0  0
    4.1597    0.4492   -1.7999 H   0  0  0  0  0  0  0  0  0  0  0  0
    5.8888    0.3827   -1.3830 H   0  0  0  0  0  0  0  0  0  0  0  0
    4.9337   -1.1173   -1.4602 H   0  0  0  0  0  0  0  0  0  0  0  0
    4.4525    4.0448    1.1249 H   0  0  0  0  0  0  0  0  0  0  0  0
    3.0108    4.2985    0.1123 H   0  0  0  0  0  0  0  0  0  0  0  0
    2.8276    3.8807    1.8328 H   0  0  0  0  0  0  0  0  0  0  0  0
  1  2  1  0  0  0  0
  1 28  1  0  0  0  0
  1 29  1  0  0  0  0
  1 30  1  0  0  0  0
  2  3  2  0  0  0  0
  2 31  1  0  0  0  0
  3 14  1  0  0  0  0
  3  4  1  0  0  0  0
  4  5  2  0  0  0  0
  4  6  1  0  0  0  0
  5 32  1  0  0  0  0
  5 33  1  0  0  0  0
  6 11  2  0  0  0  0
  6  7  1  0  0  0  0
  7  8  2  0  0  0  0
  7 34  1  0  0  0  0
  8  9  1  0  0  0  0
  8 35  1  0  0  0  0
  9 24  1  0  0  0  0
  9 10  2  0  0  0  0
 10 11  1  0  0  0  0
 10 21  1  0  0  0  0
 11 12  1  0  0  0  0
 12 13  1  0  0  0  0
 12 14  1  0  0  0  0
 12 15  1  0  0  0  0
 15 20  2  0  0  0  0
 15 16  1  0  0  0  0
 16 17  2  0  0  0  0
 16 36  1  0  0  0  0
 17 18  1  0  0  0  0
 17 37  1  0  0  0  0
 18 19  2  0  0  0  0
 18 38  1  0  0  0  0
 19 20  1  0  0  0  0
 19 39  1  0  0  0  0
 20 40  1  0  0  0  0
 21 22  2  0  0  0  0
 21 27  1  0  0  0  0
 22 23  1  0  0  0  0
 22 41  1  0  0  0  0
 23 24  1  0  0  0  0
 23 25  1  0  0  0  0
 23 26  1  0  0  0  0
 24 42  1  0  0  0  0
 25 43  1  0  0  0  0
 25 44  1  0  0  0  0
 25 45  1  0  0  0  0
 26 46  1  0  0  0  0
 26 47  1  0  0  0  0
 26 48  1  0  0  0  0
 27 49  1  0  0  0  0
 27 50  1  0  0  0  0
 27 51  1  0  0  0  0
M  END
$$$$
ZINC03831945
  -OEChem-08230709403D

 50 54  0     1  0  0  0  0  0999 V2000
    3.5567    1.5864   -0.4495 C   0  0  0  0  0  0  0  0  0  0  0  0
    4.1339    2.2064   -1.6959 C   0  0  0  0  0  0  0  0  0  0  0  0
    5.1202    1.6019   -2.3458 C   0  0  0  0  0  0  0  0  0  0  0  0
    5.7221    2.2100   -3.5846 C   0  0  0  0  0  0  0  0  0  0  0  0
    4.7196    3.0289   -4.2782 N   0  0  0  0  0  0  0  0  0  0  0  0
    3.9135    3.8768   -3.5163 C   0  0  0  0  0  0  0  0  0  0  0  0
    3.6052    3.4899   -2.1992 C   0  0  0  0  0  0  0  0  0  0  0  0
    2.8160    4.3107   -1.4105 C   0  0  0  0  0  0  0  0  0  0  0  0
    2.3325    5.5115   -1.9376 C   0  0  0  0  0  0  0  0  0  0  0  0
    2.6378    5.8850   -3.2408 C   0  0  0  0  0  0  0  0  0  0  0  0
    3.4285    5.0672   -4.0278 C   0  0  0  0  0  0  0  0  0  0  0  0
    1.4904    6.3571   -1.0579 C   0  0  0  0  0  0  0  0  0  0  0  0
    0.6804    7.3619   -1.5662 C   0  0  0  0  0  0  0  0  0  0  0  0
   -0.0826    8.1257   -0.7030 C   0  0  0  0  0  0  0  0  0  0  0  0
   -0.0391    7.8893    0.6598 C   0  0  0  0  0  0  0  0  0  0  0  0
    0.7642    6.8878    1.1739 C   0  0  0  0  0  0  0  0  0  0  0  0
    1.5323    6.1144    0.3222 C   0  0  0  0  0  0  0  0  0  0  0  0
    2.3265    5.1221    0.7994 O   0  0  0  0  0  0  0  0  0  0  0  0
    2.4647    3.9404    0.0065 C   0  0  1  0  0  0  0  0  0  0  0  0
    3.2549    3.3165    0.4240 H   0  0  0  0  0  0  0  0  0  0  0  0
    1.1658    3.1763    0.0166 C   0  0  0  0  0  0  0  0  0  0  0  0
    0.6433    2.6856   -1.1657 C   0  0  0  0  0  0  0  0  0  0  0  0
   -0.5482    1.9851   -1.1570 C   0  0  0  0  0  0  0  0  0  0  0  0
   -1.2205    1.7790    0.0332 C   0  0  0  0  0  0  0  0  0  0  0  0
   -0.6950    2.2643    1.2169 C   0  0  0  0  0  0  0  0  0  0  0  0
    0.4974    2.9658    1.2077 C   0  0  0  0  0  0  0  0  0  0  0  0
   -1.6102    1.9760    2.8464 Br  0  0  0  0  0  0  0  0  0  0  0  0
    6.2006    1.0951   -4.5168 C   0  0  0  0  0  0  0  0  0  0  0  0
    6.9124    3.0878   -3.1928 C   0  0  0  0  0  0  0  0  0  0  0  0
    4.0409    2.0158    0.4276 H   0  0  0  0  0  0  0  0  0  0  0  0
    2.4858    1.7853   -0.4071 H   0  0  0  0  0  0  0  0  0  0  0  0
    3.7258    0.5098   -0.4673 H   0  0  0  0  0  0  0  0  0  0  0  0
    5.4971    0.6580   -1.9804 H   0  0  0  0  0  0  0  0  0  0  0  0
    4.6198    2.9816   -5.2419 H   0  0  0  0  0  0  0  0  0  0  0  0
    2.2579    6.8142   -3.6391 H   0  0  0  0  0  0  0  0  0  0  0  0
    3.6666    5.3575   -5.0405 H   0  0  0  0  0  0  0  0  0  0  0  0
    0.6463    7.5465   -2.6298 H   0  0  0  0  0  0  0  0  0  0  0  0
   -0.7146    8.9097   -1.0933 H   0  0  0  0  0  0  0  0  0  0  0  0
   -0.6376    8.4915    1.3272 H   0  0  0  0  0  0  0  0  0  0  0  0
    0.7914    6.7095    2.2388 H   0  0  0  0  0  0  0  0  0  0  0  0
    1.1661    2.8500   -2.0963 H   0  0  0  0  0  0  0  0  0  0  0  0
   -0.9564    1.6026   -2.0808 H   0  0  0  0  0  0  0  0  0  0  0  0
   -2.1535    1.2352    0.0393 H   0  0  0  0  0  0  0  0  0  0  0  0
    0.9060    3.3486    2.1313 H   0  0  0  0  0  0  0  0  0  0  0  0
    6.6443    1.5341   -5.4104 H   0  0  0  0  0  0  0  0  0  0  0  0
    6.9448    0.4865   -4.0032 H   0  0  0  0  0  0  0  0  0  0  0  0
    5.3537    0.4706   -4.8010 H   0  0  0  0  0  0  0  0  0  0  0  0
    6.5735    3.8856   -2.5319 H   0  0  0  0  0  0  0  0  0  0  0  0
    7.6573    2.4812   -2.6779 H   0  0  0  0  0  0  0  0  0  0  0  0
    7.3543    3.5221   -4.0896 H   0  0  0  0  0  0  0  0  0  0  0  0
  1  2  1  0  0  0  0
  1 30  1  0  0  0  0
  1 31  1  0  0  0  0
  1 32  1  0  0  0  0
  2  7  1  0  0  0  0
  2  3  2  0  0  0  0
  3  4  1  0  0  0  0
  3 33  1  0  0  0  0
  4  5  1  0  0  0  0
  4 28  1  0  0  0  0
  4 29  1  0  0  0  0
  5  6  1  0  0  0  0
  5 34  1  0  0  0  0
  6 11  2  0  0  0  0
  6  7  1  0  0  0  0
  7  8  2  0  0  0  0
  8 19  1  0  0  0  0
  8  9  1  0  0  0  0
  9 10  2  0  0  0  0
  9 12  1  0  0  0  0
 10 11  1  0  0  0  0
 10 35  1  0  0  0  0
 11 36  1  0  0  0  0
 12 17  2  0  0  0  0
 12 13  1  0  0  0  0
 13 14  2  0  0  0  0
 13 37  1  0  0  0  0
 14 15  1  0  0  0  0
 14 38  1  0  0  0  0
 15 16  2  0  0  0  0
 15 39  1  0  0  0  0
 16 17  1  0  0  0  0
 16 40  1  0  0  0  0
 17 18  1  0  0  0  0
 18 19  1  0  0  0  0
 19 20  1  0  0  0  0
 19 21  1  0  0  0  0
 21 26  2  0  0  0  0
 21 22  1  0  0  0  0
 22 23  2  0  0  0  0
 22 41  1  0  0  0  0
 23 24  1  0  0  0  0
 23 42  1  0  0  0  0
 24 25  2  0  0  0  0
 24 43  1  0  0  0  0
 25 26  1  0  0  0  0
 25 27  1  0  0  0  0
 26 44  1  0  0  0  0
 28 45  1  0  0  0  0
 28 46  1  0  0  0  0
 28 47  1  0  0  0  0
 29 48  1  0  0  0  0
 29 49  1  0  0  0  0
 29 50  1  0  0  0  0
M  END
$$$$
ZINC03831946
  -OEChem-08230709403D

 50 54  0     1  0  0  0  0  0999 V2000
   -1.1490    2.1303    0.2054 C   0  0  0  0  0  0  0  0  0  0  0  0
    0.0931    1.3145   -0.0505 C   0  0  0  0  0  0  0  0  0  0  0  0
    1.2504    1.9715   -0.0914 C   0  0  0  0  0  0  0  0  0  0  0  0
    2.5527    1.2213   -0.1755 C   0  0  0  0  0  0  0  0  0  0  0  0
    2.3915   -0.0614    0.5237 N   0  0  0  0  0  0  0  0  0  0  0  0
    1.2585   -0.8241    0.2243 C   0  0  0  0  0  0  0  0  0  0  0  0
    0.0708   -0.1535   -0.1471 C   0  0  0  0  0  0  0  0  0  0  0  0
   -0.9784   -0.9099   -0.6606 C   0  0  0  0  0  0  0  0  0  0  0  0
   -0.9417   -2.2985   -0.5031 C   0  0  0  0  0  0  0  0  0  0  0  0
    0.1801   -2.9384    0.0150 C   0  0  0  0  0  0  0  0  0  0  0  0
    1.3032   -2.2009    0.3257 C   0  0  0  0  0  0  0  0  0  0  0  0
   -2.1467   -3.0958   -0.8380 C   0  0  0  0  0  0  0  0  0  0  0  0
   -2.2623   -4.4251   -0.4532 C   0  0  0  0  0  0  0  0  0  0  0  0
   -3.4064   -5.1327   -0.7694 C   0  0  0  0  0  0  0  0  0  0  0  0
   -4.4359   -4.5153   -1.4570 C   0  0  0  0  0  0  0  0  0  0  0  0
   -4.3270   -3.1932   -1.8431 C   0  0  0  0  0  0  0  0  0  0  0  0
   -3.1743   -2.4763   -1.5536 C   0  0  0  0  0  0  0  0  0  0  0  0
   -3.0284   -1.2140   -1.9852 O   0  0  0  0  0  0  0  0  0  0  0  0
   -2.0901   -0.2915   -1.4602 C   0  0  2  0  0  0  0  0  0  0  0  0
   -2.6409    0.4208   -0.8405 H   0  0  0  0  0  0  0  0  0  0  0  0
   -1.4907    0.4469   -2.6292 C   0  0  0  0  0  0  0  0  0  0  0  0
   -1.6011    1.8230   -2.7071 C   0  0  0  0  0  0  0  0  0  0  0  0
   -1.0479    2.5025   -3.7760 C   0  0  0  0  0  0  0  0  0  0  0  0
   -0.3920    1.8052   -4.7745 C   0  0  0  0  0  0  0  0  0  0  0  0
   -0.2856    0.4258   -4.6995 C   0  0  0  0  0  0  0  0  0  0  0  0
   -0.8360   -0.2523   -3.6253 C   0  0  0  0  0  0  0  0  0  0  0  0
    0.3550   -0.2568   -5.6736 F   0  0  0  0  0  0  0  0  0  0  0  0
    0.2978    2.6578   -6.1202 Cl  0  0  0  0  0  0  0  0  0  0  0  0
    3.6576    2.0332    0.4994 C   0  0  0  0  0  0  0  0  0  0  0  0
    2.9166    0.9714   -1.6374 C   0  0  0  0  0  0  0  0  0  0  0  0
   -2.0191    1.4739    0.2154 H   0  0  0  0  0  0  0  0  0  0  0  0
   -1.0616    2.6327    1.1688 H   0  0  0  0  0  0  0  0  0  0  0  0
   -1.2640    2.8741   -0.5831 H   0  0  0  0  0  0  0  0  0  0  0  0
    1.2515    3.0485   -0.0670 H   0  0  0  0  0  0  0  0  0  0  0  0
    3.0450   -0.3665    1.1671 H   0  0  0  0  0  0  0  0  0  0  0  0
    0.1820   -4.0096    0.1434 H   0  0  0  0  0  0  0  0  0  0  0  0
    2.2131   -2.6949    0.6332 H   0  0  0  0  0  0  0  0  0  0  0  0
   -1.4638   -4.9068    0.0913 H   0  0  0  0  0  0  0  0  0  0  0  0
   -3.4976   -6.1678   -0.4765 H   0  0  0  0  0  0  0  0  0  0  0  0
   -5.3324   -5.0708   -1.6900 H   0  0  0  0  0  0  0  0  0  0  0  0
   -5.1334   -2.7161   -2.3796 H   0  0  0  0  0  0  0  0  0  0  0  0
   -2.1169    2.3677   -1.9302 H   0  0  0  0  0  0  0  0  0  0  0  0
   -1.1315    3.5777   -3.8339 H   0  0  0  0  0  0  0  0  0  0  0  0
   -0.7534   -1.3275   -3.5656 H   0  0  0  0  0  0  0  0  0  0  0  0
    4.5940    1.4768    0.4586 H   0  0  0  0  0  0  0  0  0  0  0  0
    3.7775    2.9846   -0.0188 H   0  0  0  0  0  0  0  0  0  0  0  0
    3.3894    2.2174    1.5397 H   0  0  0  0  0  0  0  0  0  0  0  0
    2.1235    0.3972   -2.1162 H   0  0  0  0  0  0  0  0  0  0  0  0
    3.0348    1.9258   -2.1506 H   0  0  0  0  0  0  0  0  0  0  0  0
    3.8513    0.4130   -1.6888 H   0  0  0  0  0  0  0  0  0  0  0  0
  1  2  1  0  0  0  0
  1 31  1  0  0  0  0
  1 32  1  0  0  0  0
  1 33  1  0  0  0  0
  2  7  1  0  0  0  0
  2  3  2  0  0  0  0
  3  4  1  0  0  0  0
  3 34  1  0  0  0  0
  4  5  1  0  0  0  0
  4 29  1  0  0  0  0
  4 30  1  0  0  0  0
  5  6  1  0  0  0  0
  5 35  1  0  0  0  0
  6 11  2  0  0  0  0
  6  7  1  0  0  0  0
  7  8  2  0  0  0  0
  8 19  1  0  0  0  0
  8  9  1  0  0  0  0
  9 10  2  0  0  0  0
  9 12  1  0  0  0  0
 10 11  1  0  0  0  0
 10 36  1  0  0  0  0
 11 37  1  0  0  0  0
 12 17  2  0  0  0  0
 12 13  1  0  0  0  0
 13 14  2  0  0  0  0
 13 38  1  0  0  0  0
 14 15  1  0  0  0  0
 14 39  1  0  0  0  0
 15 16  2  0  0  0  0
 15 40  1  0  0  0  0
 16 17  1  0  0  0  0
 16 41  1  0  0  0  0
 17 18  1  0  0  0  0
 18 19  1  0  0  0  0
 19 20  1  0  0  0  0
 19 21  1  0  0  0  0
 21 26  2  0  0  0  0
 21 22  1  0  0  0  0
 22 23  2  0  0  0  0
 22 42  1  0  0  0  0
 23 24  1  0  0  0  0
 23 43  1  0  0  0  0
 24 25  2  0  0  0  0
 24 28  1  0  0  0  0
 25 26  1  0  0  0  0
 25 27  1  0  0  0  0
 26 44  1  0  0  0  0
 29 45  1  0  0  0  0
 29 46  1  0  0  0  0
 29 47  1  0  0  0  0
 30 48  1  0  0  0  0
 30 49  1  0  0  0  0
 30 50  1  0  0  0  0
M  END
$$$$
ZINC03831947
  -OEChem-08230709403D

 72 76  0     1  0  0  0  0  0999 V2000
    2.8896   -4.0968   -2.6979 C   0  0  0  0  0  0  0  0  0  0  0  0
    1.8116   -4.4652   -1.6766 C   0  0  1  0  0  0  0  0  0  0  0  0
    2.3543   -4.2491   -0.2693 C   0  0  0  0  0  0  0  0  0  0  0  0
    2.6420   -2.7584   -0.0515 C   0  0  1  0  0  0  0  0  0  0  0  0
    3.3675   -2.4089   -0.7861 H   0  0  0  0  0  0  0  0  0  0  0  0
    1.3277   -2.0185   -0.2297 C   0  0  0  0  0  0  0  0  0  0  0  0
    1.2723   -0.7286    0.0772 C   0  0  0  0  0  0  0  0  0  0  0  0
    2.5087    0.0290    0.4981 C   0  0  0  0  0  0  0  0  0  0  0  0
    2.5116    1.3931   -0.1981 C   0  0  0  0  0  0  0  0  0  0  0  0
    1.1850    2.0759    0.0019 C   0  0  0  0  0  0  0  0  0  0  0  0
    1.1516    3.2798    0.1595 O   0  0  0  0  0  0  0  0  0  0  0  0
   -0.0162    1.3450    0.0094 C   0  0  0  0  0  0  0  0  0  0  0  0
    0.0021   -0.0041    0.0020 C   0  0  0  0  0  0  0  0  0  0  0  0
   -1.2659   -0.8188   -0.0687 C   0  0  0  0  0  0  0  0  0  0  0  0
   -1.0490   -1.9447   -1.0779 C   0  0  0  0  0  0  0  0  0  0  0  0
    0.1472   -2.8110   -0.7121 C   0  0  1  0  0  0  0  0  0  0  0  0
   -0.1630   -3.4924    0.0801 H   0  0  0  0  0  0  0  0  0  0  0  0
    0.5518   -3.6359   -1.9360 C   0  0  2  0  0  0  0  0  0  0  0  0
    0.7151   -2.9752   -2.7874 H   0  0  0  0  0  0  0  0  0  0  0  0
   -0.5780   -4.6352   -2.2646 C   0  0  0  0  0  0  0  0  0  0  0  0
   -0.1146   -5.9585   -1.6053 C   0  0  0  0  0  0  0  0  0  0  0  0
    1.4147   -5.9463   -1.8520 C   0  0  2  0  0  0  0  0  0  0  0  0
    2.1311   -6.8190   -0.8195 C   0  0  0  0  0  0  0  0  0  0  0  0
    1.7213   -8.2802   -1.0145 C   0  0  0  0  0  0  0  0  0  0  0  0
    2.4377   -9.1529    0.0180 C   0  0  0  0  0  0  0  0  0  0  0  0
    2.0549  -10.5176   -0.1641 O   0  0  0  0  0  0  0  0  0  0  0  0
    1.7145   -6.3915   -3.1764 O   0  0  0  0  0  0  0  0  0  0  0  0
    3.1718   -2.5358    1.3416 C   0  0  0  0  0  0  0  0  0  0  0  0
    2.4203   -2.9239    2.4356 C   0  0  0  0  0  0  0  0  0  0  0  0
    2.9054   -2.7265    3.7136 C   0  0  0  0  0  0  0  0  0  0  0  0
    4.1447   -2.1272    3.8995 C   0  0  0  0  0  0  0  0  0  0  0  0
    4.8945   -1.7335    2.7984 C   0  0  0  0  0  0  0  0  0  0  0  0
    4.4059   -1.9389    1.5231 C   0  0  0  0  0  0  0  0  0  0  0  0
    4.6360   -1.9213    5.1907 N   0  0  0  0  0  0  0  0  0  0  0  0
    5.9434   -1.2895    5.3849 C   0  0  0  0  0  0  0  0  0  0  0  0
    3.8438   -2.3372    6.3508 C   0  0  0  0  0  0  0  0  0  0  0  0
    3.1290   -3.0373   -2.6074 H   0  0  0  0  0  0  0  0  0  0  0  0
    3.7853   -4.6890   -2.5104 H   0  0  0  0  0  0  0  0  0  0  0  0
    2.5225   -4.3017   -3.7036 H   0  0  0  0  0  0  0  0  0  0  0  0
    1.6176   -4.5868    0.4596 H   0  0  0  0  0  0  0  0  0  0  0  0
    3.2756   -4.8181   -0.1444 H   0  0  0  0  0  0  0  0  0  0  0  0
    2.5003    0.1704    1.5789 H   0  0  0  0  0  0  0  0  0  0  0  0
    3.3972   -0.5326    0.2099 H   0  0  0  0  0  0  0  0  0  0  0  0
    3.2363    1.9632    0.1888 H   0  0  0  0  0  0  0  0  0  0  0  0
    2.6882    1.2546   -1.2647 H   0  0  0  0  0  0  0  0  0  0  0  0
   -0.9612    1.8678    0.0167 H   0  0  0  0  0  0  0  0  0  0  0  0
   -1.4879   -1.2406    0.9115 H   0  0  0  0  0  0  0  0  0  0  0  0
   -2.0922   -0.1867   -0.3941 H   0  0  0  0  0  0  0  0  0  0  0  0
   -0.8844   -1.5105   -2.0641 H   0  0  0  0  0  0  0  0  0  0  0  0
   -1.9424   -2.5684   -1.1096 H   0  0  0  0  0  0  0  0  0  0  0  0
   -1.5207   -4.3020   -1.8304 H   0  0  0  0  0  0  0  0  0  0  0  0
   -0.6760   -4.7597   -3.3430 H   0  0  0  0  0  0  0  0  0  0  0  0
   -0.5777   -6.8160   -2.0933 H   0  0  0  0  0  0  0  0  0  0  0  0
   -0.3336   -5.9555   -0.5376 H   0  0  0  0  0  0  0  0  0  0  0  0
    3.2093   -6.7238   -0.9487 H   0  0  0  0  0  0  0  0  0  0  0  0
    1.8554   -6.4951    0.1840 H   0  0  0  0  0  0  0  0  0  0  0  0
    0.6432   -8.3754   -0.8853 H   0  0  0  0  0  0  0  0  0  0  0  0
    1.9970   -8.6041   -2.0180 H   0  0  0  0  0  0  0  0  0  0  0  0
    3.5158   -9.0577   -0.1112 H   0  0  0  0  0  0  0  0  0  0  0  0
    2.1620   -8.8290    1.0216 H   0  0  0  0  0  0  0  0  0  0  0  0
    2.4719  -11.1294    0.4579 H   0  0  0  0  0  0  0  0  0  0  0  0
    1.4852   -7.3162   -3.3418 H   0  0  0  0  0  0  0  0  0  0  0  0
    1.4548   -3.3854    2.2905 H   0  0  0  0  0  0  0  0  0  0  0  0
    2.3199   -3.0338    4.5675 H   0  0  0  0  0  0  0  0  0  0  0  0
    5.8582   -1.2669    2.9395 H   0  0  0  0  0  0  0  0  0  0  0  0
    4.9885   -1.6334    0.6666 H   0  0  0  0  0  0  0  0  0  0  0  0
    5.8178   -0.2092    5.4569 H   0  0  0  0  0  0  0  0  0  0  0  0
    6.3955   -1.6648    6.3029 H   0  0  0  0  0  0  0  0  0  0  0  0
    6.5897   -1.5246    4.5392 H   0  0  0  0  0  0  0  0  0  0  0  0
    4.0973   -3.3640    6.6146 H   0  0  0  0  0  0  0  0  0  0  0  0
    4.0617   -1.6812    7.1935 H   0  0  0  0  0  0  0  0  0  0  0  0
    2.7831   -2.2758    6.1073 H   0  0  0  0  0  0  0  0  0  0  0  0
  1  2  1  0  0  0  0
  1 37  1  0  0  0  0
  1 38  1  0  0  0  0
  1 39  1  0  0  0  0
  2 18  1  0  0  0  0
  2 22  1  0  0  0  0
  2  3  1  0  0  0  0
  3  4  1  0  0  0  0
  3 40  1  0  0  0  0
  3 41  1  0  0  0  0
  4  5  1  0  0  0  0
  4  6  1  0  0  0  0
  4 28  1  0  0  0  0
  6 16  1  0  0  0  0
  6  7  2  0  0  0  0
  7 13  1  0  0  0  0
  7  8  1  0  0  0  0
  8  9  1  0  0  0  0
  8 42  1  0  0  0  0
  8 43  1  0  0  0  0
  9 10  1  0  0  0  0
  9 44  1  0  0  0  0
  9 45  1  0  0  0  0
 10 11  2  0  0  0  0
 10 12  1  0  0  0  0
 12 13  2  0  0  0  0
 12 46  1  0  0  0  0
 13 14  1  0  0  0  0
 14 15  1  0  0  0  0
 14 47  1  0  0  0  0
 14 48  1  0  0  0  0
 15 16  1  0  0  0  0
 15 49  1  0  0  0  0
 15 50  1  0  0  0  0
 16 17  1  0  0  0  0
 16 18  1  0  0  0  0
 18 19  1  0  0  0  0
 18 20  1  0  0  0  0
 20 21  1  0  0  0  0
 20 51  1  0  0  0  0
 20 52  1  0  0  0  0
 21 22  1  0  0  0  0
 21 53  1  0  0  0  0
 21 54  1  0  0  0  0
 22 23  1  0  0  0  0
 22 27  1  0  0  0  0
 23 24  1  0  0  0  0
 23 55  1  0  0  0  0
 23 56  1  0  0  0  0
 24 25  1  0  0  0  0
 24 57  1  0  0  0  0
 24 58  1  0  0  0  0
 25 26  1  0  0  0  0
 25 59  1  0  0  0  0
 25 60  1  0  0  0  0
 26 61  1  0  0  0  0
 27 62  1  0  0  0  0
 28 33  2  0  0  0  0
 28 29  1  0  0  0  0
 29 30  2  0  0  0  0
 29 63  1  0  0  0  0
 30 31  1  0  0  0  0
 30 64  1  0  0  0  0
 31 32  2  0  0  0  0
 31 34  1  0  0  0  0
 32 33  1  0  0  0  0
 32 65  1  0  0  0  0
 33 66  1  0  0  0  0
 34 35  1  0  0  0  0
 34 36  1  0  0  0  0
 35 67  1  0  0  0  0
 35 68  1  0  0  0  0
 35 69  1  0  0  0  0
 36 70  1  0  0  0  0
 36 71  1  0  0  0  0
 36 72  1  0  0  0  0
M  END
$$$$
ZINC03831948
  -OEChem-08230709403D

 53 57  0     1  0  0  0  0  0999 V2000
   -4.1585    0.9766   -2.7795 C   0  0  0  0  0  0  0  0  0  0  0  0
   -2.7572    1.4777   -2.5419 C   0  0  0  0  0  0  0  0  0  0  0  0
   -2.0438    1.0396   -1.4416 C   0  0  0  0  0  0  0  0  0  0  0  0
   -0.7603    1.5026   -1.2206 C   0  0  0  0  0  0  0  0  0  0  0  0
   -0.1856    2.3958   -2.1053 C   0  0  0  0  0  0  0  0  0  0  0  0
   -0.8969    2.8303   -3.2090 C   0  0  0  0  0  0  0  0  0  0  0  0
   -2.1835    2.3706   -3.4269 C   0  0  0  0  0  0  0  0  0  0  0  0
   -0.1111    4.0516   -4.4200 Br  0  0  0  0  0  0  0  0  0  0  0  0
    0.0149    1.0288   -0.0182 C   0  0  1  0  0  0  0  0  0  0  0  0
    0.3382    0.0002   -0.1785 H   0  0  0  0  0  0  0  0  0  0  0  0
    1.2223    1.9078    0.1764 C   0  0  0  0  0  0  0  0  0  0  0  0
    1.1030    3.0611    0.9571 C   0  0  0  0  0  0  0  0  0  0  0  0
    2.1978    3.8915    1.1630 C   0  0  0  0  0  0  0  0  0  0  0  0
    3.4182    3.5825    0.5898 C   0  0  0  0  0  0  0  0  0  0  0  0
    3.5468    2.4462   -0.1891 C   0  0  0  0  0  0  0  0  0  0  0  0
    2.4427    1.6009   -0.4023 C   0  0  0  0  0  0  0  0  0  0  0  0
    2.6204    0.4026   -1.2466 C   0  0  0  0  0  0  0  0  0  0  0  0
    3.8434   -0.0269   -1.5296 C   0  0  0  0  0  0  0  0  0  0  0  0
    5.0594    0.6785   -0.9907 C   0  0  0  0  0  0  0  0  0  0  0  0
    4.7625    2.1015   -0.7827 N   0  0  0  0  0  0  0  0  0  0  0  0
    5.4659    0.0445    0.3411 C   0  0  0  0  0  0  0  0  0  0  0  0
    6.2099    0.5427   -1.9901 C   0  0  0  0  0  0  0  0  0  0  0  0
    1.4179   -0.3290   -1.7850 C   0  0  0  0  0  0  0  0  0  0  0  0
   -0.2266    3.3580    1.5420 C   0  0  0  0  0  0  0  0  0  0  0  0
   -0.5542    4.6218    2.0107 C   0  0  0  0  0  0  0  0  0  0  0  0
   -1.8078    4.8465    2.5483 C   0  0  0  0  0  0  0  0  0  0  0  0
   -2.7297    3.8170    2.6196 C   0  0  0  0  0  0  0  0  0  0  0  0
   -2.4106    2.5544    2.1539 C   0  0  0  0  0  0  0  0  0  0  0  0
   -1.1609    2.3152    1.6114 C   0  0  0  0  0  0  0  0  0  0  0  0
   -0.8236    1.0881    1.1384 O   0  0  0  0  0  0  0  0  0  0  0  0
   -4.1228    0.0715   -3.3858 H   0  0  0  0  0  0  0  0  0  0  0  0
   -4.6321    0.7548   -1.8231 H   0  0  0  0  0  0  0  0  0  0  0  0
   -4.7342    1.7411   -3.3013 H   0  0  0  0  0  0  0  0  0  0  0  0
   -2.4908    0.3384   -0.7525 H   0  0  0  0  0  0  0  0  0  0  0  0
    0.8187    2.7546   -1.9346 H   0  0  0  0  0  0  0  0  0  0  0  0
   -2.7395    2.7099   -4.2884 H   0  0  0  0  0  0  0  0  0  0  0  0
    2.0959    4.7785    1.7707 H   0  0  0  0  0  0  0  0  0  0  0  0
    4.2695    4.2276    0.7497 H   0  0  0  0  0  0  0  0  0  0  0  0
    3.9688   -0.8969   -2.1571 H   0  0  0  0  0  0  0  0  0  0  0  0
    5.3958    2.7854   -1.0512 H   0  0  0  0  0  0  0  0  0  0  0  0
    5.6953   -1.0098    0.1865 H   0  0  0  0  0  0  0  0  0  0  0  0
    6.3462    0.5543    0.7324 H   0  0  0  0  0  0  0  0  0  0  0  0
    4.6457    0.1373    1.0530 H   0  0  0  0  0  0  0  0  0  0  0  0
    5.9204    0.9907   -2.9406 H   0  0  0  0  0  0  0  0  0  0  0  0
    7.0911    1.0530   -1.6013 H   0  0  0  0  0  0  0  0  0  0  0  0
    6.4379   -0.5126   -2.1403 H   0  0  0  0  0  0  0  0  0  0  0  0
    0.6308    0.3880   -2.0182 H   0  0  0  0  0  0  0  0  0  0  0  0
    1.6965   -0.8697   -2.6895 H   0  0  0  0  0  0  0  0  0  0  0  0
    1.0568   -1.0345   -1.0366 H   0  0  0  0  0  0  0  0  0  0  0  0
    0.1654    5.4253    1.9556 H   0  0  0  0  0  0  0  0  0  0  0  0
   -2.0683    5.8286    2.9144 H   0  0  0  0  0  0  0  0  0  0  0  0
   -3.7062    4.0009    3.0426 H   0  0  0  0  0  0  0  0  0  0  0  0
   -3.1359    1.7565    2.2141 H   0  0  0  0  0  0  0  0  0  0  0  0
  1  2  1  0  0  0  0
  1 31  1  0  0  0  0
  1 32  1  0  0  0  0
  1 33  1  0  0  0  0
  2  7  2  0  0  0  0
  2  3  1  0  0  0  0
  3  4  2  0  0  0  0
  3 34  1  0  0  0  0
  4  5  1  0  0  0  0
  4  9  1  0  0  0  0
  5  6  2  0  0  0  0
  5 35  1  0  0  0  0
  6  7  1  0  0  0  0
  6  8  1  0  0  0  0
  7 36  1  0  0  0  0
  9 10  1  0  0  0  0
  9 30  1  0  0  0  0
  9 11  1  0  0  0  0
 11 16  2  0  0  0  0
 11 12  1  0  0  0  0
 12 13  2  0  0  0  0
 12 24  1  0  0  0  0
 13 14  1  0  0  0  0
 13 37  1  0  0  0  0
 14 15  2  0  0  0  0
 14 38  1  0  0  0  0
 15 20  1  0  0  0  0
 15 16  1  0  0  0  0
 16 17  1  0  0  0  0
 17 18  2  0  0  0  0
 17 23  1  0  0  0  0
 18 19  1  0  0  0  0
 18 39  1  0  0  0  0
 19 20  1  0  0  0  0
 19 21  1  0  0  0  0
 19 22  1  0  0  0  0
 20 40  1  0  0  0  0
 21 41  1  0  0  0  0
 21 42  1  0  0  0  0
 21 43  1  0  0  0  0
 22 44  1  0  0  0  0
 22 45  1  0  0  0  0
 22 46  1  0  0  0  0
 23 47  1  0  0  0  0
 23 48  1  0  0  0  0
 23 49  1  0  0  0  0
 24 29  2  0  0  0  0
 24 25  1  0  0  0  0
 25 26  2  0  0  0  0
 25 50  1  0  0  0  0
 26 27  1  0  0  0  0
 26 51  1  0  0  0  0
 27 28  2  0  0  0  0
 27 52  1  0  0  0  0
 28 29  1  0  0  0  0
 28 53  1  0  0  0  0
 29 30  1  0  0  0  0
M  END
$$$$
ZINC03831950
  -OEChem-08230709403D

 53 57  0     1  0  0  0  0  0999 V2000
    1.4626    1.5790    4.0993 C   0  0  0  0  0  0  0  0  0  0  0  0
    0.9019    2.2012    2.8465 C   0  0  0  0  0  0  0  0  0  0  0  0
   -0.2214    1.7351    2.3162 C   0  0  0  0  0  0  0  0  0  0  0  0
   -0.7919    2.3298    1.0564 C   0  0  0  0  0  0  0  0  0  0  0  0
   -0.4094    3.7436    0.9513 N   0  0  0  0  0  0  0  0  0  0  0  0
    0.9073    4.0992    1.2496 C   0  0  0  0  0  0  0  0  0  0  0  0
    1.6005    3.3320    2.2035 C   0  0  0  0  0  0  0  0  0  0  0  0
    2.9116    3.6497    2.5176 C   0  0  0  0  0  0  0  0  0  0  0  0
    3.5251    4.7356    1.8868 C   0  0  0  0  0  0  0  0  0  0  0  0
    2.8335    5.4902    0.9471 C   0  0  0  0  0  0  0  0  0  0  0  0
    1.5259    5.1701    0.6292 C   0  0  0  0  0  0  0  0  0  0  0  0
    4.9255    5.0450    2.2626 C   0  0  0  0  0  0  0  0  0  0  0  0
    5.5006    6.2780    1.9920 C   0  0  0  0  0  0  0  0  0  0  0  0
    6.8107    6.5160    2.3629 C   0  0  0  0  0  0  0  0  0  0  0  0
    7.5443    5.5304    2.9996 C   0  0  0  0  0  0  0  0  0  0  0  0
    6.9779    4.2988    3.2732 C   0  0  0  0  0  0  0  0  0  0  0  0
    5.6673    4.0467    2.9094 C   0  0  0  0  0  0  0  0  0  0  0  0
    5.0836    2.8490    3.1702 O   0  0  0  0  0  0  0  0  0  0  0  0
    3.6975    2.8476    3.5214 C   0  0  1  0  0  0  0  0  0  0  0  0
    3.3280    1.8222    3.5324 H   0  0  0  0  0  0  0  0  0  0  0  0
    3.5275    3.4553    4.8899 C   0  0  0  0  0  0  0  0  0  0  0  0
    4.3587    3.0701    5.9254 C   0  0  0  0  0  0  0  0  0  0  0  0
    4.2054    3.6303    7.1796 C   0  0  0  0  0  0  0  0  0  0  0  0
    3.2153    4.5695    7.4008 C   0  0  0  0  0  0  0  0  0  0  0  0
    2.3813    4.9511    6.3668 C   0  0  0  0  0  0  0  0  0  0  0  0
    2.5371    4.3936    5.1113 C   0  0  0  0  0  0  0  0  0  0  0  0
    1.3017    5.9746    6.6080 C   0  0  0  0  0  0  0  0  0  0  0  0
    0.1267    5.3280    7.0060 F   0  0  0  0  0  0  0  0  0  0  0  0
    1.7118    6.8570    7.6132 F   0  0  0  0  0  0  0  0  0  0  0  0
    1.0644    6.6889    5.4287 F   0  0  0  0  0  0  0  0  0  0  0  0
   -0.2528    1.5665   -0.1550 C   0  0  0  0  0  0  0  0  0  0  0  0
   -2.3176    2.2196    1.0883 C   0  0  0  0  0  0  0  0  0  0  0  0
    2.2097    0.8320    3.8311 H   0  0  0  0  0  0  0  0  0  0  0  0
    1.9255    2.3518    4.7131 H   0  0  0  0  0  0  0  0  0  0  0  0
    0.6581    1.1031    4.6601 H   0  0  0  0  0  0  0  0  0  0  0  0
   -0.7353    0.9156    2.7966 H   0  0  0  0  0  0  0  0  0  0  0  0
   -1.0559    4.4143    0.6809 H   0  0  0  0  0  0  0  0  0  0  0  0
    3.3172    6.3267    0.4645 H   0  0  0  0  0  0  0  0  0  0  0  0
    0.9886    5.7551   -0.1026 H   0  0  0  0  0  0  0  0  0  0  0  0
    4.9284    7.0470    1.4944 H   0  0  0  0  0  0  0  0  0  0  0  0
    7.2634    7.4742    2.1548 H   0  0  0  0  0  0  0  0  0  0  0  0
    8.5675    5.7248    3.2856 H   0  0  0  0  0  0  0  0  0  0  0  0
    7.5577    3.5352    3.7703 H   0  0  0  0  0  0  0  0  0  0  0  0
    5.1297    2.3336    5.7536 H   0  0  0  0  0  0  0  0  0  0  0  0
    4.8568    3.3318    7.9877 H   0  0  0  0  0  0  0  0  0  0  0  0
    3.0933    5.0048    8.3816 H   0  0  0  0  0  0  0  0  0  0  0  0
    1.8852    4.6915    4.3034 H   0  0  0  0  0  0  0  0  0  0  0  0
   -0.5437    0.5185   -0.0830 H   0  0  0  0  0  0  0  0  0  0  0  0
    0.8345    1.6411   -0.1771 H   0  0  0  0  0  0  0  0  0  0  0  0
   -0.6650    1.9960   -1.0681 H   0  0  0  0  0  0  0  0  0  0  0  0
   -2.6046    1.1707    1.1617 H   0  0  0  0  0  0  0  0  0  0  0  0
   -2.7031    2.7631    1.9509 H   0  0  0  0  0  0  0  0  0  0  0  0
   -2.7319    2.6466    0.1750 H   0  0  0  0  0  0  0  0  0  0  0  0
  1  2  1  0  0  0  0
  1 33  1  0  0  0  0
  1 34  1  0  0  0  0
  1 35  1  0  0  0  0
  2  7  1  0  0  0  0
  2  3  2  0  0  0  0
  3  4  1  0  0  0  0
  3 36  1  0  0  0  0
  4  5  1  0  0  0  0
  4 31  1  0  0  0  0
  4 32  1  0  0  0  0
  5  6  1  0  0  0  0
  5 37  1  0  0  0  0
  6 11  2  0  0  0  0
  6  7  1  0  0  0  0
  7  8  2  0  0  0  0
  8 19  1  0  0  0  0
  8  9  1  0  0  0  0
  9 10  2  0  0  0  0
  9 12  1  0  0  0  0
 10 11  1  0  0  0  0
 10 38  1  0  0  0  0
 11 39  1  0  0  0  0
 12 17  2  0  0  0  0
 12 13  1  0  0  0  0
 13 14  2  0  0  0  0
 13 40  1  0  0  0  0
 14 15  1  0  0  0  0
 14 41  1  0  0  0  0
 15 16  2  0  0  0  0
 15 42  1  0  0  0  0
 16 17  1  0  0  0  0
 16 43  1  0  0  0  0
 17 18  1  0  0  0  0
 18 19  1  0  0  0  0
 19 20  1  0  0  0  0
 19 21  1  0  0  0  0
 21 26  2  0  0  0  0
 21 22  1  0  0  0  0
 22 23  2  0  0  0  0
 22 44  1  0  0  0  0
 23 24  1  0  0  0  0
 23 45  1  0  0  0  0
 24 25  2  0  0  0  0
 24 46  1  0  0  0  0
 25 26  1  0  0  0  0
 25 27  1  0  0  0  0
 26 47  1  0  0  0  0
 27 28  1  0  0  0  0
 27 29  1  0  0  0  0
 27 30  1  0  0  0  0
 31 48  1  0  0  0  0
 31 49  1  0  0  0  0
 31 50  1  0  0  0  0
 32 51  1  0  0  0  0
 32 52  1  0  0  0  0
 32 53  1  0  0  0  0
M  END
$$$$
ZINC03831952
  -OEChem-08230709403D

 55 58  0     1  0  0  0  0  0999 V2000
   -0.4308    9.4825    0.1102 C   0  0  0  0  0  0  0  0  0  0  0  0
   -0.2581    8.0141    0.5039 C   0  0  0  0  0  0  0  0  0  0  0  0
    0.8640    7.3913   -0.3292 C   0  0  0  0  0  0  0  0  0  0  0  0
    1.0367    5.9230    0.0645 C   0  0  0  0  0  0  0  0  0  0  0  0
    2.1663    5.2960   -0.7742 C   0  0  2  0  0  0  0  0  0  0  0  0
    1.9297    5.4343   -1.8338 H   0  0  0  0  0  0  0  0  0  0  0  0
    2.2385    3.8279   -0.4625 C   0  0  0  0  0  0  0  0  0  0  0  0
    3.4196    3.2908    0.0563 C   0  0  0  0  0  0  0  0  0  0  0  0
    3.4662    1.9887    0.5475 C   0  0  0  0  0  0  0  0  0  0  0  0
    2.3301    1.2060    0.5363 C   0  0  0  0  0  0  0  0  0  0  0  0
    1.1630    1.7138   -0.0005 C   0  0  0  0  0  0  0  0  0  0  0  0
    1.1331    2.9960   -0.5922 C   0  0  0  0  0  0  0  0  0  0  0  0
   -0.1053    3.3353   -1.3172 C   0  0  0  0  0  0  0  0  0  0  0  0
   -1.2646    2.8198   -0.9095 C   0  0  0  0  0  0  0  0  0  0  0  0
   -1.2849    1.6957    0.0915 C   0  0  0  0  0  0  0  0  0  0  0  0
   -0.0121    0.9599    0.0073 N   0  0  0  0  0  0  0  0  0  0  0  0
   -2.4400    0.7465   -0.2284 C   0  0  0  0  0  0  0  0  0  0  0  0
   -1.4590    2.2597    1.5007 C   0  0  0  0  0  0  0  0  0  0  0  0
   -0.1083    4.1703   -2.5706 C   0  0  0  0  0  0  0  0  0  0  0  0
    4.6521    4.1155    0.0583 C   0  0  0  0  0  0  0  0  0  0  0  0
    5.8906    3.5575    0.3500 C   0  0  0  0  0  0  0  0  0  0  0  0
    7.0224    4.3499    0.3299 C   0  0  0  0  0  0  0  0  0  0  0  0
    6.9223    5.6935    0.0155 C   0  0  0  0  0  0  0  0  0  0  0  0
    5.6943    6.2548   -0.2750 C   0  0  0  0  0  0  0  0  0  0  0  0
    4.5460    5.4742   -0.2475 C   0  0  0  0  0  0  0  0  0  0  0  0
    3.3491    6.0234   -0.5028 O   0  0  0  0  0  0  0  0  0  0  0  0
    8.3672    3.7497    0.6483 C   0  0  0  0  0  0  0  0  0  0  0  0
   -1.2302    9.9261    0.7037 H   0  0  0  0  0  0  0  0  0  0  0  0
    0.4995   10.0198    0.2941 H   0  0  0  0  0  0  0  0  0  0  0  0
   -0.6848    9.5475   -0.9478 H   0  0  0  0  0  0  0  0  0  0  0  0
   -1.1884    7.4767    0.3199 H   0  0  0  0  0  0  0  0  0  0  0  0
   -0.0041    7.9491    1.5619 H   0  0  0  0  0  0  0  0  0  0  0  0
    1.7943    7.9287   -0.1452 H   0  0  0  0  0  0  0  0  0  0  0  0
    0.6100    7.4563   -1.3872 H   0  0  0  0  0  0  0  0  0  0  0  0
    0.1064    5.3856   -0.1195 H   0  0  0  0  0  0  0  0  0  0  0  0
    1.2907    5.8580    1.1225 H   0  0  0  0  0  0  0  0  0  0  0  0
    4.3901    1.5922    0.9412 H   0  0  0  0  0  0  0  0  0  0  0  0
    2.3521    0.2060    0.9435 H   0  0  0  0  0  0  0  0  0  0  0  0
   -2.1832    3.1446   -1.3658 H   0  0  0  0  0  0  0  0  0  0  0  0
    0.0002   -0.0041    0.0020 H   0  0  0  0  0  0  0  0  0  0  0  0
   -2.4451   -0.0744    0.4887 H   0  0  0  0  0  0  0  0  0  0  0  0
   -3.3836    1.2887   -0.1668 H   0  0  0  0  0  0  0  0  0  0  0  0
   -2.3149    0.3484   -1.2354 H   0  0  0  0  0  0  0  0  0  0  0  0
   -0.6343    2.9359    1.7258 H   0  0  0  0  0  0  0  0  0  0  0  0
   -2.4016    2.8037    1.5604 H   0  0  0  0  0  0  0  0  0  0  0  0
   -1.4652    1.4418    2.2212 H   0  0  0  0  0  0  0  0  0  0  0  0
    0.8601    4.0883   -3.0641 H   0  0  0  0  0  0  0  0  0  0  0  0
   -0.8896    3.8145   -3.2422 H   0  0  0  0  0  0  0  0  0  0  0  0
   -0.2976    5.2122   -2.3126 H   0  0  0  0  0  0  0  0  0  0  0  0
    5.9724    2.5079    0.5898 H   0  0  0  0  0  0  0  0  0  0  0  0
    7.8116    6.3063   -0.0040 H   0  0  0  0  0  0  0  0  0  0  0  0
    5.6205    7.3039   -0.5201 H   0  0  0  0  0  0  0  0  0  0  0  0
    8.5554    3.8273    1.7191 H   0  0  0  0  0  0  0  0  0  0  0  0
    8.3759    2.7004    0.3530 H   0  0  0  0  0  0  0  0  0  0  0  0
    9.1432    4.2869    0.1030 H   0  0  0  0  0  0  0  0  0  0  0  0
  1  2  1  0  0  0  0
  1 28  1  0  0  0  0
  1 29  1  0  0  0  0
  1 30  1  0  0  0  0
  2  3  1  0  0  0  0
  2 31  1  0  0  0  0
  2 32  1  0  0  0  0
  3  4  1  0  0  0  0
  3 33  1  0  0  0  0
  3 34  1  0  0  0  0
  4  5  1  0  0  0  0
  4 35  1  0  0  0  0
  4 36  1  0  0  0  0
  5  6  1  0  0  0  0
  5 26  1  0  0  0  0
  5  7  1  0  0  0  0
  7 12  2  0  0  0  0
  7  8  1  0  0  0  0
  8  9  2  0  0  0  0
  8 20  1  0  0  0  0
  9 10  1  0  0  0  0
  9 37  1  0  0  0  0
 10 11  2  0  0  0  0
 10 38  1  0  0  0  0
 11 16  1  0  0  0  0
 11 12  1  0  0  0  0
 12 13  1  0  0  0  0
 13 14  2  0  0  0  0
 13 19  1  0  0  0  0
 14 15  1  0  0  0  0
 14 39  1  0  0  0  0
 15 16  1  0  0  0  0
 15 17  1  0  0  0  0
 15 18  1  0  0  0  0
 16 40  1  0  0  0  0
 17 41  1  0  0  0  0
 17 42  1  0  0  0  0
 17 43  1  0  0  0  0
 18 44  1  0  0  0  0
 18 45  1  0  0  0  0
 18 46  1  0  0  0  0
 19 47  1  0  0  0  0
 19 48  1  0  0  0  0
 19 49  1  0  0  0  0
 20 25  2  0  0  0  0
 20 21  1  0  0  0  0
 21 22  2  0  0  0  0
 21 50  1  0  0  0  0
 22 23  1  0  0  0  0
 22 27  1  0  0  0  0
 23 24  2  0  0  0  0
 23 51  1  0  0  0  0
 24 25  1  0  0  0  0
 24 52  1  0  0  0  0
 25 26  1  0  0  0  0
 27 53  1  0  0  0  0
 27 54  1  0  0  0  0
 27 55  1  0  0  0  0
M  END
$$$$
ZINC03831954
  -OEChem-08230709403D

 50 54  0     1  0  0  0  0  0999 V2000
    3.5566    1.5860   -0.4495 C   0  0  0  0  0  0  0  0  0  0  0  0
    4.1340    2.2059   -1.6959 C   0  0  0  0  0  0  0  0  0  0  0  0
    5.1201    1.6012   -2.3458 C   0  0  0  0  0  0  0  0  0  0  0  0
    5.7221    2.2092   -3.5846 C   0  0  0  0  0  0  0  0  0  0  0  0
    4.7198    3.0283   -4.2782 N   0  0  0  0  0  0  0  0  0  0  0  0
    3.9139    3.8763   -3.5163 C   0  0  0  0  0  0  0  0  0  0  0  0
    3.6055    3.4895   -2.1992 C   0  0  0  0  0  0  0  0  0  0  0  0
    2.8164    4.3104   -1.4106 C   0  0  0  0  0  0  0  0  0  0  0  0
    2.3331    5.5112   -1.9377 C   0  0  0  0  0  0  0  0  0  0  0  0
    2.6384    5.8847   -3.2408 C   0  0  0  0  0  0  0  0  0  0  0  0
    3.4290    5.0668   -4.0279 C   0  0  0  0  0  0  0  0  0  0  0  0
    1.4911    6.3570   -1.0579 C   0  0  0  0  0  0  0  0  0  0  0  0
    0.6813    7.3619   -1.5662 C   0  0  0  0  0  0  0  0  0  0  0  0
   -0.0816    8.1259   -0.7030 C   0  0  0  0  0  0  0  0  0  0  0  0
   -0.0381    7.8895    0.6598 C   0  0  0  0  0  0  0  0  0  0  0  0
    0.7650    6.8878    1.1739 C   0  0  0  0  0  0  0  0  0  0  0  0
    1.5330    6.1143    0.3222 C   0  0  0  0  0  0  0  0  0  0  0  0
    2.3270    5.1219    0.7994 O   0  0  0  0  0  0  0  0  0  0  0  0
    2.4650    3.9402    0.0065 C   0  0  1  0  0  0  0  0  0  0  0  0
    3.2551    3.3161    0.4240 H   0  0  0  0  0  0  0  0  0  0  0  0
    1.1660    3.1763    0.0166 C   0  0  0  0  0  0  0  0  0  0  0  0
    0.6434    2.6857   -1.1657 C   0  0  0  0  0  0  0  0  0  0  0  0
   -0.5482    1.9853   -1.1572 C   0  0  0  0  0  0  0  0  0  0  0  0
   -1.2206    1.7792    0.0329 C   0  0  0  0  0  0  0  0  0  0  0  0
   -0.6952    2.2645    1.2169 C   0  0  0  0  0  0  0  0  0  0  0  0
    0.4976    2.9659    1.2077 C   0  0  0  0  0  0  0  0  0  0  0  0
   -1.5354    1.9998    2.7128 Cl  0  0  0  0  0  0  0  0  0  0  0  0
    6.2005    1.0943   -4.5168 C   0  0  0  0  0  0  0  0  0  0  0  0
    6.9125    3.0868   -3.1928 C   0  0  0  0  0  0  0  0  0  0  0  0
    4.0410    2.0153    0.4276 H   0  0  0  0  0  0  0  0  0  0  0  0
    2.4858    1.7851   -0.4071 H   0  0  0  0  0  0  0  0  0  0  0  0
    3.7256    0.5093   -0.4673 H   0  0  0  0  0  0  0  0  0  0  0  0
    5.4969    0.6573   -1.9804 H   0  0  0  0  0  0  0  0  0  0  0  0
    4.6200    2.9810   -5.2419 H   0  0  0  0  0  0  0  0  0  0  0  0
    2.2587    6.8140   -3.6391 H   0  0  0  0  0  0  0  0  0  0  0  0
    3.6671    5.3570   -5.0405 H   0  0  0  0  0  0  0  0  0  0  0  0
    0.6472    7.5466   -2.6298 H   0  0  0  0  0  0  0  0  0  0  0  0
   -0.7134    8.9100   -1.0933 H   0  0  0  0  0  0  0  0  0  0  0  0
   -0.6365    8.4918    1.3272 H   0  0  0  0  0  0  0  0  0  0  0  0
    0.7922    6.7095    2.2388 H   0  0  0  0  0  0  0  0  0  0  0  0
    1.1663    2.8500   -2.0963 H   0  0  0  0  0  0  0  0  0  0  0  0
   -0.9563    1.6030   -2.0812 H   0  0  0  0  0  0  0  0  0  0  0  0
   -2.1538    1.2355    0.0388 H   0  0  0  0  0  0  0  0  0  0  0  0
    0.9063    3.3486    2.1313 H   0  0  0  0  0  0  0  0  0  0  0  0
    6.6442    1.5332   -5.4104 H   0  0  0  0  0  0  0  0  0  0  0  0
    6.9445    0.4855   -4.0032 H   0  0  0  0  0  0  0  0  0  0  0  0
    5.3534    0.4698   -4.8010 H   0  0  0  0  0  0  0  0  0  0  0  0
    6.5738    3.8847   -2.5319 H   0  0  0  0  0  0  0  0  0  0  0  0
    7.6574    2.4801   -2.6779 H   0  0  0  0  0  0  0  0  0  0  0  0
    7.3546    3.5210   -4.0896 H   0  0  0  0  0  0  0  0  0  0  0  0
  1  2  1  0  0  0  0
  1 30  1  0  0  0  0
  1 31  1  0  0  0  0
  1 32  1  0  0  0  0
  2  7  1  0  0  0  0
  2  3  2  0  0  0  0
  3  4  1  0  0  0  0
  3 33  1  0  0  0  0
  4  5  1  0  0  0  0
  4 28  1  0  0  0  0
  4 29  1  0  0  0  0
  5  6  1  0  0  0  0
  5 34  1  0  0  0  0
  6 11  2  0  0  0  0
  6  7  1  0  0  0  0
  7  8  2  0  0  0  0
  8 19  1  0  0  0  0
  8  9  1  0  0  0  0
  9 10  2  0  0  0  0
  9 12  1  0  0  0  0
 10 11  1  0  0  0  0
 10 35  1  0  0  0  0
 11 36  1  0  0  0  0
 12 17  2  0  0  0  0
 12 13  1  0  0  0  0
 13 14  2  0  0  0  0
 13 37  1  0  0  0  0
 14 15  1  0  0  0  0
 14 38  1  0  0  0  0
 15 16  2  0  0  0  0
 15 39  1  0  0  0  0
 16 17  1  0  0  0  0
 16 40  1  0  0  0  0
 17 18  1  0  0  0  0
 18 19  1  0  0  0  0
 19 20  1  0  0  0  0
 19 21  1  0  0  0  0
 21 26  2  0  0  0  0
 21 22  1  0  0  0  0
 22 23  2  0  0  0  0
 22 41  1  0  0  0  0
 23 24  1  0  0  0  0
 23 42  1  0  0  0  0
 24 25  2  0  0  0  0
 24 43  1  0  0  0  0
 25 26  1  0  0  0  0
 25 27  1  0  0  0  0
 26 44  1  0  0  0  0
 28 45  1  0  0  0  0
 28 46  1  0  0  0  0
 28 47  1  0  0  0  0
 29 48  1  0  0  0  0
 29 49  1  0  0  0  0
 29 50  1  0  0  0  0
M  END
$$$$
ZINC03831956
  -OEChem-08230709403D

 50 54  0     1  0  0  0  0  0999 V2000
    1.9637   -2.8246    1.3087 C   0  0  0  0  0  0  0  0  0  0  0  0
    2.3372   -1.9019    2.4374 C   0  0  0  0  0  0  0  0  0  0  0  0
    1.4048   -1.6730    3.3615 C   0  0  0  0  0  0  0  0  0  0  0  0
    1.7140   -0.9077    4.6158 C   0  0  0  0  0  0  0  0  0  0  0  0
    3.1428   -0.9938    4.9219 N   0  0  0  0  0  0  0  0  0  0  0  0
    4.0821   -0.9790    3.8899 C   0  0  0  0  0  0  0  0  0  0  0  0
    3.6689   -1.2938    2.5796 C   0  0  0  0  0  0  0  0  0  0  0  0
    4.5335   -1.0211    1.5241 C   0  0  0  0  0  0  0  0  0  0  0  0
    5.8889   -0.8304    1.8273 C   0  0  0  0  0  0  0  0  0  0  0  0
    6.3050   -0.5752    3.1304 C   0  0  0  0  0  0  0  0  0  0  0  0
    5.3899   -0.6239    4.1610 C   0  0  0  0  0  0  0  0  0  0  0  0
    6.8815   -0.8434    0.7271 C   0  0  0  0  0  0  0  0  0  0  0  0
    8.2353   -1.0347    0.9679 C   0  0  0  0  0  0  0  0  0  0  0  0
    9.1205   -1.0654   -0.0932 C   0  0  0  0  0  0  0  0  0  0  0  0
    8.6587   -0.9116   -1.3886 C   0  0  0  0  0  0  0  0  0  0  0  0
    7.3119   -0.7222   -1.6358 C   0  0  0  0  0  0  0  0  0  0  0  0
    6.4148   -0.6786   -0.5813 C   0  0  0  0  0  0  0  0  0  0  0  0
    5.1002   -0.4778   -0.7887 O   0  0  0  0  0  0  0  0  0  0  0  0
    4.1104   -1.0180    0.0852 C   0  0  2  0  0  0  0  0  0  0  0  0
    3.8614   -2.0214   -0.2467 H   0  0  0  0  0  0  0  0  0  0  0  0
    2.8970   -0.1161   -0.0672 C   0  0  0  0  0  0  0  0  0  0  0  0
    1.6897   -0.6466   -0.4829 C   0  0  0  0  0  0  0  0  0  0  0  0
    0.5854    0.1726   -0.6224 C   0  0  0  0  0  0  0  0  0  0  0  0
    0.6877    1.5244   -0.3461 C   0  0  0  0  0  0  0  0  0  0  0  0
    1.8965    2.0556    0.0700 C   0  0  0  0  0  0  0  0  0  0  0  0
    3.0009    1.2340    0.2091 C   0  0  0  0  0  0  0  0  0  0  0  0
    2.0266    3.7516    0.4165 Cl  0  0  0  0  0  0  0  0  0  0  0  0
   -0.7009    2.5526   -0.5143 Cl  0  0  0  0  0  0  0  0  0  0  0  0
    1.3190    0.5598    4.4297 C   0  0  0  0  0  0  0  0  0  0  0  0
    0.9109   -1.4972    5.7795 C   0  0  0  0  0  0  0  0  0  0  0  0
    2.7907   -2.8868    0.6014 H   0  0  0  0  0  0  0  0  0  0  0  0
    1.7501   -3.8169    1.7061 H   0  0  0  0  0  0  0  0  0  0  0  0
    1.0797   -2.4385    0.8011 H   0  0  0  0  0  0  0  0  0  0  0  0
    0.4179   -2.0869    3.2184 H   0  0  0  0  0  0  0  0  0  0  0  0
    3.4413   -1.0615    5.8474 H   0  0  0  0  0  0  0  0  0  0  0  0
    7.3423   -0.3566    3.3336 H   0  0  0  0  0  0  0  0  0  0  0  0
    5.6911   -0.3882    5.1708 H   0  0  0  0  0  0  0  0  0  0  0  0
    8.5961   -1.1612    1.9776 H   0  0  0  0  0  0  0  0  0  0  0  0
   10.1749   -1.2113    0.0890 H   0  0  0  0  0  0  0  0  0  0  0  0
    9.3561   -0.9423   -2.2127 H   0  0  0  0  0  0  0  0  0  0  0  0
    6.9583   -0.6041   -2.6491 H   0  0  0  0  0  0  0  0  0  0  0  0
    1.6095   -1.7019   -0.6983 H   0  0  0  0  0  0  0  0  0  0  0  0
   -0.3573   -0.2424   -0.9470 H   0  0  0  0  0  0  0  0  0  0  0  0
    3.9442    1.6477    0.5341 H   0  0  0  0  0  0  0  0  0  0  0  0
    0.2516    0.6248    4.2186 H   0  0  0  0  0  0  0  0  0  0  0  0
    1.5436    1.1149    5.3405 H   0  0  0  0  0  0  0  0  0  0  0  0
    1.8804    0.9845    3.5975 H   0  0  0  0  0  0  0  0  0  0  0  0
    1.1823   -2.5443    5.9146 H   0  0  0  0  0  0  0  0  0  0  0  0
    1.1333   -0.9437    6.6917 H   0  0  0  0  0  0  0  0  0  0  0  0
   -0.1542   -1.4233    5.5602 H   0  0  0  0  0  0  0  0  0  0  0  0
  1  2  1  0  0  0  0
  1 31  1  0  0  0  0
  1 32  1  0  0  0  0
  1 33  1  0  0  0  0
  2  7  1  0  0  0  0
  2  3  2  0  0  0  0
  3  4  1  0  0  0  0
  3 34  1  0  0  0  0
  4  5  1  0  0  0  0
  4 29  1  0  0  0  0
  4 30  1  0  0  0  0
  5  6  1  0  0  0  0
  5 35  1  0  0  0  0
  6 11  2  0  0  0  0
  6  7  1  0  0  0  0
  7  8  2  0  0  0  0
  8 19  1  0  0  0  0
  8  9  1  0  0  0  0
  9 10  2  0  0  0  0
  9 12  1  0  0  0  0
 10 11  1  0  0  0  0
 10 36  1  0  0  0  0
 11 37  1  0  0  0  0
 12 17  2  0  0  0  0
 12 13  1  0  0  0  0
 13 14  2  0  0  0  0
 13 38  1  0  0  0  0
 14 15  1  0  0  0  0
 14 39  1  0  0  0  0
 15 16  2  0  0  0  0
 15 40  1  0  0  0  0
 16 17  1  0  0  0  0
 16 41  1  0  0  0  0
 17 18  1  0  0  0  0
 18 19  1  0  0  0  0
 19 20  1  0  0  0  0
 19 21  1  0  0  0  0
 21 26  2  0  0  0  0
 21 22  1  0  0  0  0
 22 23  2  0  0  0  0
 22 42  1  0  0  0  0
 23 24  1  0  0  0  0
 23 43  1  0  0  0  0
 24 25  2  0  0  0  0
 24 28  1  0  0  0  0
 25 26  1  0  0  0  0
 25 27  1  0  0  0  0
 26 44  1  0  0  0  0
 29 45  1  0  0  0  0
 29 46  1  0  0  0  0
 29 47  1  0  0  0  0
 30 48  1  0  0  0  0
 30 49  1  0  0  0  0
 30 50  1  0  0  0  0
M  END
$$$$
ZINC03831957
  -OEChem-08230709403D

 53 57  0     1  0  0  0  0  0999 V2000
    1.8166    3.0338   -0.5172 C   0  0  0  0  0  0  0  0  0  0  0  0
    1.6461    1.5452   -0.3556 C   0  0  0  0  0  0  0  0  0  0  0  0
    0.4228    0.9571   -0.6166 C   0  0  0  0  0  0  0  0  0  0  0  0
    0.2660   -0.4082   -0.4681 C   0  0  0  0  0  0  0  0  0  0  0  0
    1.3324   -1.1871   -0.0583 C   0  0  0  0  0  0  0  0  0  0  0  0
    2.5561   -0.6013    0.2037 C   0  0  0  0  0  0  0  0  0  0  0  0
    2.7144    0.7664    0.0552 C   0  0  0  0  0  0  0  0  0  0  0  0
    3.9089    1.3410    0.3164 F   0  0  0  0  0  0  0  0  0  0  0  0
    1.1583   -2.6878    0.1046 C   0  0  2  0  0  0  0  0  0  0  0  0
    0.1616   -2.9751   -0.2166 H   0  0  0  0  0  0  0  0  0  0  0  0
    1.3801   -3.0475    1.5436 C   0  0  0  0  0  0  0  0  0  0  0  0
    2.2249   -4.1249    1.8454 C   0  0  0  0  0  0  0  0  0  0  0  0
    2.6657   -4.3503    3.1459 C   0  0  0  0  0  0  0  0  0  0  0  0
    2.1760   -3.5758    4.1765 C   0  0  0  0  0  0  0  0  0  0  0  0
    1.2128   -2.6215    3.9086 C   0  0  0  0  0  0  0  0  0  0  0  0
    0.7217   -2.4284    2.6016 C   0  0  0  0  0  0  0  0  0  0  0  0
   -0.4714   -1.5791    2.4653 C   0  0  0  0  0  0  0  0  0  0  0  0
   -0.7302   -0.6515    3.3864 C   0  0  0  0  0  0  0  0  0  0  0  0
    0.0987   -0.5300    4.6325 C   0  0  0  0  0  0  0  0  0  0  0  0
    0.7404   -1.8091    4.9402 N   0  0  0  0  0  0  0  0  0  0  0  0
    1.1711    0.5440    4.4303 C   0  0  0  0  0  0  0  0  0  0  0  0
   -0.8024   -0.1218    5.8021 C   0  0  0  0  0  0  0  0  0  0  0  0
   -1.4676   -1.7228    1.3465 C   0  0  0  0  0  0  0  0  0  0  0  0
    2.6992   -4.9977    0.7460 C   0  0  0  0  0  0  0  0  0  0  0  0
    3.2117   -6.2647    0.9895 C   0  0  0  0  0  0  0  0  0  0  0  0
    3.6175   -7.0532   -0.0708 C   0  0  0  0  0  0  0  0  0  0  0  0
    3.5082   -6.5839   -1.3680 C   0  0  0  0  0  0  0  0  0  0  0  0
    2.9975   -5.3240   -1.6179 C   0  0  0  0  0  0  0  0  0  0  0  0
    2.5970   -4.5188   -0.5644 C   0  0  0  0  0  0  0  0  0  0  0  0
    2.1126   -3.2807   -0.7747 O   0  0  0  0  0  0  0  0  0  0  0  0
    2.1340    3.2546   -1.5363 H   0  0  0  0  0  0  0  0  0  0  0  0
    0.8683    3.5321   -0.3160 H   0  0  0  0  0  0  0  0  0  0  0  0
    2.5708    3.3913    0.1838 H   0  0  0  0  0  0  0  0  0  0  0  0
   -0.4108    1.5645   -0.9368 H   0  0  0  0  0  0  0  0  0  0  0  0
   -0.6903   -0.8668   -0.6719 H   0  0  0  0  0  0  0  0  0  0  0  0
    3.3887   -1.2098    0.5244 H   0  0  0  0  0  0  0  0  0  0  0  0
    3.3749   -5.1387    3.3472 H   0  0  0  0  0  0  0  0  0  0  0  0
    2.5398   -3.7131    5.1838 H   0  0  0  0  0  0  0  0  0  0  0  0
   -1.5829   -0.0040    3.2473 H   0  0  0  0  0  0  0  0  0  0  0  0
    0.8393   -2.0961    5.8665 H   0  0  0  0  0  0  0  0  0  0  0  0
    0.6925    1.4999    4.2179 H   0  0  0  0  0  0  0  0  0  0  0  0
    1.7725    0.6318    5.3351 H   0  0  0  0  0  0  0  0  0  0  0  0
    1.8118    0.2647    3.5939 H   0  0  0  0  0  0  0  0  0  0  0  0
   -1.5728   -0.8788    5.9487 H   0  0  0  0  0  0  0  0  0  0  0  0
   -0.2034   -0.0327    6.7084 H   0  0  0  0  0  0  0  0  0  0  0  0
   -1.2723    0.8367    5.5815 H   0  0  0  0  0  0  0  0  0  0  0  0
   -1.1145   -2.4739    0.6399 H   0  0  0  0  0  0  0  0  0  0  0  0
   -2.4300   -2.0318    1.7545 H   0  0  0  0  0  0  0  0  0  0  0  0
   -1.5798   -0.7669    0.8349 H   0  0  0  0  0  0  0  0  0  0  0  0
    3.2915   -6.6347    2.0007 H   0  0  0  0  0  0  0  0  0  0  0  0
    4.0193   -8.0386    0.1135 H   0  0  0  0  0  0  0  0  0  0  0  0
    3.8223   -7.2083   -2.1914 H   0  0  0  0  0  0  0  0  0  0  0  0
    2.9140   -4.9645   -2.6327 H   0  0  0  0  0  0  0  0  0  0  0  0
  1  2  1  0  0  0  0
  1 31  1  0  0  0  0
  1 32  1  0  0  0  0
  1 33  1  0  0  0  0
  2  7  2  0  0  0  0
  2  3  1  0  0  0  0
  3  4  2  0  0  0  0
  3 34  1  0  0  0  0
  4  5  1  0  0  0  0
  4 35  1  0  0  0  0
  5  6  2  0  0  0  0
  5  9  1  0  0  0  0
  6  7  1  0  0  0  0
  6 36  1  0  0  0  0
  7  8  1  0  0  0  0
  9 10  1  0  0  0  0
  9 30  1  0  0  0  0
  9 11  1  0  0  0  0
 11 16  2  0  0  0  0
 11 12  1  0  0  0  0
 12 13  2  0  0  0  0
 12 24  1  0  0  0  0
 13 14  1  0  0  0  0
 13 37  1  0  0  0  0
 14 15  2  0  0  0  0
 14 38  1  0  0  0  0
 15 20  1  0  0  0  0
 15 16  1  0  0  0  0
 16 17  1  0  0  0  0
 17 18  2  0  0  0  0
 17 23  1  0  0  0  0
 18 19  1  0  0  0  0
 18 39  1  0  0  0  0
 19 20  1  0  0  0  0
 19 21  1  0  0  0  0
 19 22  1  0  0  0  0
 20 40  1  0  0  0  0
 21 41  1  0  0  0  0
 21 42  1  0  0  0  0
 21 43  1  0  0  0  0
 22 44  1  0  0  0  0
 22 45  1  0  0  0  0
 22 46  1  0  0  0  0
 23 47  1  0  0  0  0
 23 48  1  0  0  0  0
 23 49  1  0  0  0  0
 24 29  2  0  0  0  0
 24 25  1  0  0  0  0
 25 26  2  0  0  0  0
 25 50  1  0  0  0  0
 26 27  1  0  0  0  0
 26 51  1  0  0  0  0
 27 28  2  0  0  0  0
 27 52  1  0  0  0  0
 28 29  1  0  0  0  0
 28 53  1  0  0  0  0
 29 30  1  0  0  0  0
M  END
$$$$
ZINC03831958
  -OEChem-08230709403D

 50 54  0     1  0  0  0  0  0999 V2000
    0.8204   -1.2124    1.2121 C   0  0  0  0  0  0  0  0  0  0  0  0
    1.1060   -0.2943    2.3716 C   0  0  0  0  0  0  0  0  0  0  0  0
    0.2394   -0.3079    3.3836 C   0  0  0  0  0  0  0  0  0  0  0  0
    0.5489    0.4445    4.6510 C   0  0  0  0  0  0  0  0  0  0  0  0
    2.0039    0.3865    4.8608 N   0  0  0  0  0  0  0  0  0  0  0  0
    2.8235    0.7206    3.7788 C   0  0  0  0  0  0  0  0  0  0  0  0
    2.3340    0.5161    2.4669 C   0  0  0  0  0  0  0  0  0  0  0  0
    3.0721    0.9939    1.3922 C   0  0  0  0  0  0  0  0  0  0  0  0
    4.3873    1.4132    1.6256 C   0  0  0  0  0  0  0  0  0  0  0  0
    4.8957    1.5188    2.9172 C   0  0  0  0  0  0  0  0  0  0  0  0
    4.0953    1.2127    3.9974 C   0  0  0  0  0  0  0  0  0  0  0  0
    5.2662    1.7281    0.4735 C   0  0  0  0  0  0  0  0  0  0  0  0
    6.6314    1.9258    0.6409 C   0  0  0  0  0  0  0  0  0  0  0  0
    7.4238    2.2051   -0.4564 C   0  0  0  0  0  0  0  0  0  0  0  0
    6.8611    2.2785   -1.7184 C   0  0  0  0  0  0  0  0  0  0  0  0
    5.5042    2.0855   -1.8918 C   0  0  0  0  0  0  0  0  0  0  0  0
    4.6929    1.8235   -0.7968 C   0  0  0  0  0  0  0  0  0  0  0  0
    3.3671    1.6756   -0.9495 O   0  0  0  0  0  0  0  0  0  0  0  0
    2.5309    1.0224   -0.0082 C   0  0  2  0  0  0  0  0  0  0  0  0
    2.3564    0.0056   -0.3637 H   0  0  0  0  0  0  0  0  0  0  0  0
    1.2128    1.7767   -0.0038 C   0  0  0  0  0  0  0  0  0  0  0  0
    1.1756    3.1007    0.3921 C   0  0  0  0  0  0  0  0  0  0  0  0
   -0.0246    3.7861    0.4013 C   0  0  0  0  0  0  0  0  0  0  0  0
   -1.1871    3.1499    0.0047 C   0  0  0  0  0  0  0  0  0  0  0  0
   -1.1494    1.8253   -0.3918 C   0  0  0  0  0  0  0  0  0  0  0  0
    0.0505    1.1393   -0.3961 C   0  0  0  0  0  0  0  0  0  0  0  0
   -2.8285    4.0890    0.0108 Br  0  0  0  0  0  0  0  0  0  0  0  0
   -0.1642   -0.2160    5.8296 C   0  0  0  0  0  0  0  0  0  0  0  0
    0.1001    1.8974    4.5212 C   0  0  0  0  0  0  0  0  0  0  0  0
    1.6773   -1.2244    0.5385 H   0  0  0  0  0  0  0  0  0  0  0  0
    0.6361   -2.2204    1.5836 H   0  0  0  0  0  0  0  0  0  0  0  0
   -0.0590   -0.8567    0.6751 H   0  0  0  0  0  0  0  0  0  0  0  0
   -0.6813   -0.8571    3.2917 H   0  0  0  0  0  0  0  0  0  0  0  0
    2.3765    0.1264    5.7130 H   0  0  0  0  0  0  0  0  0  0  0  0
    5.9065    1.8633    3.0738 H   0  0  0  0  0  0  0  0  0  0  0  0
    4.4580    1.3563    5.0043 H   0  0  0  0  0  0  0  0  0  0  0  0
    7.0758    1.8591    1.6225 H   0  0  0  0  0  0  0  0  0  0  0  0
    8.4843    2.3644   -0.3292 H   0  0  0  0  0  0  0  0  0  0  0  0
    7.4876    2.4886   -2.5730 H   0  0  0  0  0  0  0  0  0  0  0  0
    5.0687    2.1455   -2.8783 H   0  0  0  0  0  0  0  0  0  0  0  0
    2.0839    3.5983    0.6986 H   0  0  0  0  0  0  0  0  0  0  0  0
   -0.0542    4.8192    0.7146 H   0  0  0  0  0  0  0  0  0  0  0  0
   -2.0575    1.3270   -0.6977 H   0  0  0  0  0  0  0  0  0  0  0  0
    0.0801    0.1050   -0.7057 H   0  0  0  0  0  0  0  0  0  0  0  0
    0.0909    0.3100    6.7496 H   0  0  0  0  0  0  0  0  0  0  0  0
   -1.2420   -0.1723    5.6729 H   0  0  0  0  0  0  0  0  0  0  0  0
    0.1498   -1.2569    5.9072 H   0  0  0  0  0  0  0  0  0  0  0  0
    0.6043    2.3590    3.6723 H   0  0  0  0  0  0  0  0  0  0  0  0
   -0.9783    1.9321    4.3662 H   0  0  0  0  0  0  0  0  0  0  0  0
    0.3537    2.4387    5.4327 H   0  0  0  0  0  0  0  0  0  0  0  0
  1  2  1  0  0  0  0
  1 30  1  0  0  0  0
  1 31  1  0  0  0  0
  1 32  1  0  0  0  0
  2  7  1  0  0  0  0
  2  3  2  0  0  0  0
  3  4  1  0  0  0  0
  3 33  1  0  0  0  0
  4  5  1  0  0  0  0
  4 28  1  0  0  0  0
  4 29  1  0  0  0  0
  5  6  1  0  0  0  0
  5 34  1  0  0  0  0
  6 11  2  0  0  0  0
  6  7  1  0  0  0  0
  7  8  2  0  0  0  0
  8 19  1  0  0  0  0
  8  9  1  0  0  0  0
  9 10  2  0  0  0  0
  9 12  1  0  0  0  0
 10 11  1  0  0  0  0
 10 35  1  0  0  0  0
 11 36  1  0  0  0  0
 12 17  2  0  0  0  0
 12 13  1  0  0  0  0
 13 14  2  0  0  0  0
 13 37  1  0  0  0  0
 14 15  1  0  0  0  0
 14 38  1  0  0  0  0
 15 16  2  0  0  0  0
 15 39  1  0  0  0  0
 16 17  1  0  0  0  0
 16 40  1  0  0  0  0
 17 18  1  0  0  0  0
 18 19  1  0  0  0  0
 19 20  1  0  0  0  0
 19 21  1  0  0  0  0
 21 26  2  0  0  0  0
 21 22  1  0  0  0  0
 22 23  2  0  0  0  0
 22 41  1  0  0  0  0
 23 24  1  0  0  0  0
 23 42  1  0  0  0  0
 24 25  2  0  0  0  0
 24 27  1  0  0  0  0
 25 26  1  0  0  0  0
 25 43  1  0  0  0  0
 26 44  1  0  0  0  0
 28 45  1  0  0  0  0
 28 46  1  0  0  0  0
 28 47  1  0  0  0  0
 29 48  1  0  0  0  0
 29 49  1  0  0  0  0
 29 50  1  0  0  0  0
M  END
$$$$
ZINC03831960
  -OEChem-08230709403D

 53 57  0     1  0  0  0  0  0999 V2000
   -2.2666    3.3962    4.7396 C   0  0  0  0  0  0  0  0  0  0  0  0
   -1.6748    2.7672    3.5046 C   0  0  0  0  0  0  0  0  0  0  0  0
   -1.0860    3.5617    2.5387 C   0  0  0  0  0  0  0  0  0  0  0  0
   -0.5427    2.9847    1.4061 C   0  0  0  0  0  0  0  0  0  0  0  0
   -0.5887    1.6132    1.2391 C   0  0  0  0  0  0  0  0  0  0  0  0
   -1.1826    0.8192    2.2023 C   0  0  0  0  0  0  0  0  0  0  0  0
   -1.7212    1.3958    3.3374 C   0  0  0  0  0  0  0  0  0  0  0  0
    0.0032    0.9842    0.0042 C   0  0  2  0  0  0  0  0  0  0  0  0
   -0.1468   -0.0960    0.0499 H   0  0  0  0  0  0  0  0  0  0  0  0
    1.4710    1.2978   -0.0416 C   0  0  0  0  0  0  0  0  0  0  0  0
    2.0169    1.8524   -1.2055 C   0  0  0  0  0  0  0  0  0  0  0  0
    3.3435    2.2712   -1.2570 C   0  0  0  0  0  0  0  0  0  0  0  0
    4.1463    2.1467   -0.1427 C   0  0  0  0  0  0  0  0  0  0  0  0
    3.6450    1.5250    0.9839 C   0  0  0  0  0  0  0  0  0  0  0  0
    2.3279    1.0084    1.0117 C   0  0  0  0  0  0  0  0  0  0  0  0
    2.0269    0.1084    2.1401 C   0  0  0  0  0  0  0  0  0  0  0  0
    2.6775    0.2520    3.2941 C   0  0  0  0  0  0  0  0  0  0  0  0
    3.7676    1.2848    3.4182 C   0  0  0  0  0  0  0  0  0  0  0  0
    4.4499    1.3671    2.1167 N   0  0  0  0  0  0  0  0  0  0  0  0
    4.7650    0.8551    4.4920 C   0  0  0  0  0  0  0  0  0  0  0  0
    3.1664    2.6404    3.7772 C   0  0  0  0  0  0  0  0  0  0  0  0
    1.0806   -1.0580    2.0257 C   0  0  0  0  0  0  0  0  0  0  0  0
    1.1725    1.9724   -2.4187 C   0  0  0  0  0  0  0  0  0  0  0  0
    1.7238    2.2950   -3.6525 C   0  0  0  0  0  0  0  0  0  0  0  0
    0.9087    2.3854   -4.7649 C   0  0  0  0  0  0  0  0  0  0  0  0
   -0.4492    2.1447   -4.6522 C   0  0  0  0  0  0  0  0  0  0  0  0
   -1.0044    1.8265   -3.4282 C   0  0  0  0  0  0  0  0  0  0  0  0
   -0.2014    1.7514   -2.2988 C   0  0  0  0  0  0  0  0  0  0  0  0
   -0.7384    1.4813   -1.0981 O   0  0  0  0  0  0  0  0  0  0  0  0
   -3.3142    3.6364    4.5585 H   0  0  0  0  0  0  0  0  0  0  0  0
   -2.1927    2.6984    5.5737 H   0  0  0  0  0  0  0  0  0  0  0  0
   -1.7208    4.3086    4.9797 H   0  0  0  0  0  0  0  0  0  0  0  0
   -1.0500    4.6332    2.6691 H   0  0  0  0  0  0  0  0  0  0  0  0
   -0.0827    3.6054    0.6514 H   0  0  0  0  0  0  0  0  0  0  0  0
   -1.2224   -0.2519    2.0698 H   0  0  0  0  0  0  0  0  0  0  0  0
   -2.1815    0.7751    4.0919 H   0  0  0  0  0  0  0  0  0  0  0  0
    3.7365    2.7144   -2.1595 H   0  0  0  0  0  0  0  0  0  0  0  0
    5.1559    2.5297   -0.1493 H   0  0  0  0  0  0  0  0  0  0  0  0
    2.4208   -0.3688    4.1336 H   0  0  0  0  0  0  0  0  0  0  0  0
    5.4110    1.3151    2.0486 H   0  0  0  0  0  0  0  0  0  0  0  0
    5.5720    1.5854    4.5513 H   0  0  0  0  0  0  0  0  0  0  0  0
    4.2583    0.7946    5.4552 H   0  0  0  0  0  0  0  0  0  0  0  0
    5.1765   -0.1212    4.2360 H   0  0  0  0  0  0  0  0  0  0  0  0
    2.4470    2.9329    3.0124 H   0  0  0  0  0  0  0  0  0  0  0  0
    2.6634    2.5708    4.7417 H   0  0  0  0  0  0  0  0  0  0  0  0
    3.9595    3.3860    3.8341 H   0  0  0  0  0  0  0  0  0  0  0  0
    0.7418   -1.1511    0.9938 H   0  0  0  0  0  0  0  0  0  0  0  0
    1.5934   -1.9725    2.3237 H   0  0  0  0  0  0  0  0  0  0  0  0
    0.2218   -0.8943    2.6767 H   0  0  0  0  0  0  0  0  0  0  0  0
    2.7845    2.4730   -3.7467 H   0  0  0  0  0  0  0  0  0  0  0  0
    1.3329    2.6416   -5.7244 H   0  0  0  0  0  0  0  0  0  0  0  0
   -1.0787    2.2071   -5.5277 H   0  0  0  0  0  0  0  0  0  0  0  0
   -2.0649    1.6422   -3.3423 H   0  0  0  0  0  0  0  0  0  0  0  0
  1  2  1  0  0  0  0
  1 30  1  0  0  0  0
  1 31  1  0  0  0  0
  1 32  1  0  0  0  0
  2  7  2  0  0  0  0
  2  3  1  0  0  0  0
  3  4  2  0  0  0  0
  3 33  1  0  0  0  0
  4  5  1  0  0  0  0
  4 34  1  0  0  0  0
  5  6  2  0  0  0  0
  5  8  1  0  0  0  0
  6  7  1  0  0  0  0
  6 35  1  0  0  0  0
  7 36  1  0  0  0  0
  8  9  1  0  0  0  0
  8 29  1  0  0  0  0
  8 10  1  0  0  0  0
 10 15  2  0  0  0  0
 10 11  1  0  0  0  0
 11 12  2  0  0  0  0
 11 23  1  0  0  0  0
 12 13  1  0  0  0  0
 12 37  1  0  0  0  0
 13 14  2  0  0  0  0
 13 38  1  0  0  0  0
 14 19  1  0  0  0  0
 14 15  1  0  0  0  0
 15 16  1  0  0  0  0
 16 17  2  0  0  0  0
 16 22  1  0  0  0  0
 17 18  1  0  0  0  0
 17 39  1  0  0  0  0
 18 19  1  0  0  0  0
 18 20  1  0  0  0  0
 18 21  1  0  0  0  0
 19 40  1  0  0  0  0
 20 41  1  0  0  0  0
 20 42  1  0  0  0  0
 20 43  1  0  0  0  0
 21 44  1  0  0  0  0
 21 45  1  0  0  0  0
 21 46  1  0  0  0  0
 22 47  1  0  0  0  0
 22 48  1  0  0  0  0
 22 49  1  0  0  0  0
 23 28  2  0  0  0  0
 23 24  1  0  0  0  0
 24 25  2  0  0  0  0
 24 50  1  0  0  0  0
 25 26  1  0  0  0  0
 25 51  1  0  0  0  0
 26 27  2  0  0  0  0
 26 52  1  0  0  0  0
 27 28  1  0  0  0  0
 27 53  1  0  0  0  0
 28 29  1  0  0  0  0
M  END
$$$$
ZINC03831961
  -OEChem-08230709403D

 50 54  0     1  0  0  0  0  0999 V2000
   -2.2161   -0.2146   -0.4566 C   0  0  0  0  0  0  0  0  0  0  0  0
   -0.8523   -0.7163   -0.0571 C   0  0  0  0  0  0  0  0  0  0  0  0
   -0.6147   -2.0200    0.0086 C   0  0  0  0  0  0  0  0  0  0  0  0
    0.7351   -2.5442    0.4206 C   0  0  0  0  0  0  0  0  0  0  0  0
    1.7807   -1.5800    0.0562 N   0  0  0  0  0  0  0  0  0  0  0  0
    1.5519   -0.2258    0.3073 C   0  0  0  0  0  0  0  0  0  0  0  0
    0.2254    0.2408    0.2634 C   0  0  0  0  0  0  0  0  0  0  0  0
   -0.0399    1.5774    0.5123 C   0  0  0  0  0  0  0  0  0  0  0  0
    1.0176    2.4462    0.7960 C   0  0  0  0  0  0  0  0  0  0  0  0
    2.3253    1.9782    0.8374 C   0  0  0  0  0  0  0  0  0  0  0  0
    2.5902    0.6426    0.5935 C   0  0  0  0  0  0  0  0  0  0  0  0
    0.6880    3.8709    1.0403 C   0  0  0  0  0  0  0  0  0  0  0  0
    1.6498    4.8678    0.9670 C   0  0  0  0  0  0  0  0  0  0  0  0
    1.2904    6.1815    1.2036 C   0  0  0  0  0  0  0  0  0  0  0  0
   -0.0203    6.5000    1.5124 C   0  0  0  0  0  0  0  0  0  0  0  0
   -0.9848    5.5116    1.5875 C   0  0  0  0  0  0  0  0  0  0  0  0
   -0.6403    4.1929    1.3517 C   0  0  0  0  0  0  0  0  0  0  0  0
   -1.5671    3.2026    1.4134 O   0  0  0  0  0  0  0  0  0  0  0  0
   -1.4451    2.1189    0.4910 C   0  0  1  0  0  0  0  0  0  0  0  0
   -2.1419    1.3277    0.7677 H   0  0  0  0  0  0  0  0  0  0  0  0
   -1.7719    2.6073   -0.8968 C   0  0  0  0  0  0  0  0  0  0  0  0
   -2.8958    3.3832   -1.1092 C   0  0  0  0  0  0  0  0  0  0  0  0
   -3.1933    3.8366   -2.3821 C   0  0  0  0  0  0  0  0  0  0  0  0
   -2.3720    3.5034   -3.4442 C   0  0  0  0  0  0  0  0  0  0  0  0
   -1.2504    2.7221   -3.2319 C   0  0  0  0  0  0  0  0  0  0  0  0
   -0.9506    2.2744   -1.9575 C   0  0  0  0  0  0  0  0  0  0  0  0
   -0.2188    2.3039   -4.5640 Cl  0  0  0  0  0  0  0  0  0  0  0  0
   -4.6011    4.8171   -2.6476 Cl  0  0  0  0  0  0  0  0  0  0  0  0
    1.0012   -3.8740   -0.2878 C   0  0  0  0  0  0  0  0  0  0  0  0
    0.7534   -2.7653    1.9344 C   0  0  0  0  0  0  0  0  0  0  0  0
   -2.1101    0.6992   -1.0413 H   0  0  0  0  0  0  0  0  0  0  0  0
   -2.7210   -0.9726   -1.0554 H   0  0  0  0  0  0  0  0  0  0  0  0
   -2.8034   -0.0075    0.4379 H   0  0  0  0  0  0  0  0  0  0  0  0
   -1.4026   -2.7165   -0.2373 H   0  0  0  0  0  0  0  0  0  0  0  0
    2.6104   -1.8767   -0.3495 H   0  0  0  0  0  0  0  0  0  0  0  0
    3.1350    2.6573    1.0602 H   0  0  0  0  0  0  0  0  0  0  0  0
    3.6063    0.2781    0.6269 H   0  0  0  0  0  0  0  0  0  0  0  0
    2.6729    4.6192    0.7263 H   0  0  0  0  0  0  0  0  0  0  0  0
    2.0351    6.9618    1.1477 H   0  0  0  0  0  0  0  0  0  0  0  0
   -0.2925    7.5289    1.6960 H   0  0  0  0  0  0  0  0  0  0  0  0
   -2.0053    5.7690    1.8303 H   0  0  0  0  0  0  0  0  0  0  0  0
   -3.5396    3.6393   -0.2807 H   0  0  0  0  0  0  0  0  0  0  0  0
   -2.6065    3.8528   -4.4388 H   0  0  0  0  0  0  0  0  0  0  0  0
   -0.0750    1.6644   -1.7916 H   0  0  0  0  0  0  0  0  0  0  0  0
    1.9742   -4.2595    0.0168 H   0  0  0  0  0  0  0  0  0  0  0  0
    0.2257   -4.5909   -0.0182 H   0  0  0  0  0  0  0  0  0  0  0  0
    0.9934   -3.7188   -1.3667 H   0  0  0  0  0  0  0  0  0  0  0  0
    0.5687   -1.8186    2.4422 H   0  0  0  0  0  0  0  0  0  0  0  0
   -0.0224   -3.4810    2.2066 H   0  0  0  0  0  0  0  0  0  0  0  0
    1.7271   -3.1538    2.2331 H   0  0  0  0  0  0  0  0  0  0  0  0
  1  2  1  0  0  0  0
  1 31  1  0  0  0  0
  1 32  1  0  0  0  0
  1 33  1  0  0  0  0
  2  7  1  0  0  0  0
  2  3  2  0  0  0  0
  3  4  1  0  0  0  0
  3 34  1  0  0  0  0
  4  5  1  0  0  0  0
  4 29  1  0  0  0  0
  4 30  1  0  0  0  0
  5  6  1  0  0  0  0
  5 35  1  0  0  0  0
  6 11  2  0  0  0  0
  6  7  1  0  0  0  0
  7  8  2  0  0  0  0
  8 19  1  0  0  0  0
  8  9  1  0  0  0  0
  9 10  2  0  0  0  0
  9 12  1  0  0  0  0
 10 11  1  0  0  0  0
 10 36  1  0  0  0  0
 11 37  1  0  0  0  0
 12 17  2  0  0  0  0
 12 13  1  0  0  0  0
 13 14  2  0  0  0  0
 13 38  1  0  0  0  0
 14 15  1  0  0  0  0
 14 39  1  0  0  0  0
 15 16  2  0  0  0  0
 15 40  1  0  0  0  0
 16 17  1  0  0  0  0
 16 41  1  0  0  0  0
 17 18  1  0  0  0  0
 18 19  1  0  0  0  0
 19 20  1  0  0  0  0
 19 21  1  0  0  0  0
 21 26  2  0  0  0  0
 21 22  1  0  0  0  0
 22 23  2  0  0  0  0
 22 42  1  0  0  0  0
 23 24  1  0  0  0  0
 23 28  1  0  0  0  0
 24 25  2  0  0  0  0
 24 43  1  0  0  0  0
 25 26  1  0  0  0  0
 25 27  1  0  0  0  0
 26 44  1  0  0  0  0
 29 45  1  0  0  0  0
 29 46  1  0  0  0  0
 29 47  1  0  0  0  0
 30 48  1  0  0  0  0
 30 49  1  0  0  0  0
 30 50  1  0  0  0  0
M  END
$$$$
ZINC03831962
  -OEChem-08230709403D

 56 59  0     1  0  0  0  0  0999 V2000
   -0.4235    9.4856    0.0982 C   0  0  0  0  0  0  0  0  0  0  0  0
   -0.2517    8.0181    0.4952 C   0  0  0  0  0  0  0  0  0  0  0  0
    0.8687    7.3922   -0.3378 C   0  0  0  0  0  0  0  0  0  0  0  0
    1.0405    5.9246    0.0593 C   0  0  0  0  0  0  0  0  0  0  0  0
    2.1684    5.2945   -0.7794 C   0  0  2  0  0  0  0  0  0  0  0  0
    1.9305    5.4304   -1.8391 H   0  0  0  0  0  0  0  0  0  0  0  0
    2.2398    3.8271   -0.4644 C   0  0  0  0  0  0  0  0  0  0  0  0
    3.4208    3.2902    0.0547 C   0  0  0  0  0  0  0  0  0  0  0  0
    3.4665    1.9884    0.5468 C   0  0  0  0  0  0  0  0  0  0  0  0
    2.3302    1.2061    0.5364 C   0  0  0  0  0  0  0  0  0  0  0  0
    1.1631    1.7137   -0.0004 C   0  0  0  0  0  0  0  0  0  0  0  0
    1.1337    2.9956   -0.5930 C   0  0  0  0  0  0  0  0  0  0  0  0
   -0.1051    3.3355   -1.3174 C   0  0  0  0  0  0  0  0  0  0  0  0
   -1.2645    2.8201   -0.9087 C   0  0  0  0  0  0  0  0  0  0  0  0
   -1.2850    1.6954    0.0912 C   0  0  0  0  0  0  0  0  0  0  0  0
   -0.0121    0.9602    0.0073 N   0  0  0  0  0  0  0  0  0  0  0  0
   -2.4397    0.7460   -0.2297 C   0  0  0  0  0  0  0  0  0  0  0  0
   -1.4595    2.2590    1.5005 C   0  0  0  0  0  0  0  0  0  0  0  0
   -0.1092    4.1706   -2.5707 C   0  0  0  0  0  0  0  0  0  0  0  0
    4.6538    4.1140    0.0560 C   0  0  0  0  0  0  0  0  0  0  0  0
    5.8913    3.5553    0.3502 C   0  0  0  0  0  0  0  0  0  0  0  0
    7.0271    4.3494    0.3292 C   0  0  0  0  0  0  0  0  0  0  0  0
    6.9250    5.6963    0.0108 C   0  0  0  0  0  0  0  0  0  0  0  0
    5.6959    6.2539   -0.2806 C   0  0  0  0  0  0  0  0  0  0  0  0
    4.5487    5.4719   -0.2525 C   0  0  0  0  0  0  0  0  0  0  0  0
    3.3517    6.0218   -0.5106 O   0  0  0  0  0  0  0  0  0  0  0  0
    8.2407    3.8085    0.6177 O   0  0  0  0  0  0  0  0  0  0  0  0
    9.3685    4.6850    0.5740 C   0  0  0  0  0  0  0  0  0  0  0  0
   -1.2217    9.9315    0.6916 H   0  0  0  0  0  0  0  0  0  0  0  0
    0.5076   10.0225    0.2796 H   0  0  0  0  0  0  0  0  0  0  0  0
   -0.6789    9.5483   -0.9596 H   0  0  0  0  0  0  0  0  0  0  0  0
   -1.1828    7.4812    0.3138 H   0  0  0  0  0  0  0  0  0  0  0  0
    0.0036    7.9554    1.5531 H   0  0  0  0  0  0  0  0  0  0  0  0
    1.7997    7.9291   -0.1563 H   0  0  0  0  0  0  0  0  0  0  0  0
    0.6133    7.4548   -1.3956 H   0  0  0  0  0  0  0  0  0  0  0  0
    0.1094    5.3877   -0.1222 H   0  0  0  0  0  0  0  0  0  0  0  0
    1.2958    5.8619    1.1171 H   0  0  0  0  0  0  0  0  0  0  0  0
    4.3898    1.5918    0.9415 H   0  0  0  0  0  0  0  0  0  0  0  0
    2.3515    0.2063    0.9442 H   0  0  0  0  0  0  0  0  0  0  0  0
   -2.1833    3.1450   -1.3651 H   0  0  0  0  0  0  0  0  0  0  0  0
    0.0003   -0.0041    0.0020 H   0  0  0  0  0  0  0  0  0  0  0  0
   -2.4449   -0.0751    0.4871 H   0  0  0  0  0  0  0  0  0  0  0  0
   -3.3834    1.2879   -0.1683 H   0  0  0  0  0  0  0  0  0  0  0  0
   -2.3140    0.3483   -1.2368 H   0  0  0  0  0  0  0  0  0  0  0  0
   -0.6350    2.9354    1.7260 H   0  0  0  0  0  0  0  0  0  0  0  0
   -2.4023    2.8027    1.5603 H   0  0  0  0  0  0  0  0  0  0  0  0
   -1.4656    1.4408    2.2208 H   0  0  0  0  0  0  0  0  0  0  0  0
    0.8587    4.0887   -3.0651 H   0  0  0  0  0  0  0  0  0  0  0  0
   -0.8912    3.8150   -3.2417 H   0  0  0  0  0  0  0  0  0  0  0  0
   -0.2982    5.2125   -2.3124 H   0  0  0  0  0  0  0  0  0  0  0  0
    5.9722    2.5062    0.5920 H   0  0  0  0  0  0  0  0  0  0  0  0
    7.8134    6.3103   -0.0108 H   0  0  0  0  0  0  0  0  0  0  0  0
    5.6200    7.3027   -0.5266 H   0  0  0  0  0  0  0  0  0  0  0  0
   10.2715    4.1279    0.8236 H   0  0  0  0  0  0  0  0  0  0  0  0
    9.4650    5.1034   -0.4279 H   0  0  0  0  0  0  0  0  0  0  0  0
    9.2293    5.4923    1.2930 H   0  0  0  0  0  0  0  0  0  0  0  0
  1  2  1  0  0  0  0
  1 29  1  0  0  0  0
  1 30  1  0  0  0  0
  1 31  1  0  0  0  0
  2  3  1  0  0  0  0
  2 32  1  0  0  0  0
  2 33  1  0  0  0  0
  3  4  1  0  0  0  0
  3 34  1  0  0  0  0
  3 35  1  0  0  0  0
  4  5  1  0  0  0  0
  4 36  1  0  0  0  0
  4 37  1  0  0  0  0
  5  6  1  0  0  0  0
  5 26  1  0  0  0  0
  5  7  1  0  0  0  0
  7 12  2  0  0  0  0
  7  8  1  0  0  0  0
  8  9  2  0  0  0  0
  8 20  1  0  0  0  0
  9 10  1  0  0  0  0
  9 38  1  0  0  0  0
 10 11  2  0  0  0  0
 10 39  1  0  0  0  0
 11 16  1  0  0  0  0
 11 12  1  0  0  0  0
 12 13  1  0  0  0  0
 13 14  2  0  0  0  0
 13 19  1  0  0  0  0
 14 15  1  0  0  0  0
 14 40  1  0  0  0  0
 15 16  1  0  0  0  0
 15 17  1  0  0  0  0
 15 18  1  0  0  0  0
 16 41  1  0  0  0  0
 17 42  1  0  0  0  0
 17 43  1  0  0  0  0
 17 44  1  0  0  0  0
 18 45  1  0  0  0  0
 18 46  1  0  0  0  0
 18 47  1  0  0  0  0
 19 48  1  0  0  0  0
 19 49  1  0  0  0  0
 19 50  1  0  0  0  0
 20 25  2  0  0  0  0
 20 21  1  0  0  0  0
 21 22  2  0  0  0  0
 21 51  1  0  0  0  0
 22 23  1  0  0  0  0
 22 27  1  0  0  0  0
 23 24  2  0  0  0  0
 23 52  1  0  0  0  0
 24 25  1  0  0  0  0
 24 53  1  0  0  0  0
 25 26  1  0  0  0  0
 27 28  1  0  0  0  0
 28 54  1  0  0  0  0
 28 55  1  0  0  0  0
 28 56  1  0  0  0  0
M  END
$$$$
ZINC03831964
  -OEChem-08230709403D

 53 57  0     1  0  0  0  0  0999 V2000
    3.7774    0.3430   -1.8365 C   0  0  0  0  0  0  0  0  0  0  0  0
    3.6647    0.2370   -0.3375 C   0  0  0  0  0  0  0  0  0  0  0  0
    3.8358    1.3602    0.4498 C   0  0  0  0  0  0  0  0  0  0  0  0
    3.7321    1.2632    1.8247 C   0  0  0  0  0  0  0  0  0  0  0  0
    3.4627    0.0417    2.4137 C   0  0  0  0  0  0  0  0  0  0  0  0
    3.2859   -1.0809    1.6274 C   0  0  0  0  0  0  0  0  0  0  0  0
    3.3896   -0.9844    0.2509 C   0  0  0  0  0  0  0  0  0  0  0  0
    3.1752   -2.3956   -0.7371 Cl  0  0  0  0  0  0  0  0  0  0  0  0
    3.9187    2.4882    2.6825 C   0  0  2  0  0  0  0  0  0  0  0  0
    3.7556    2.2275    3.7255 H   0  0  0  0  0  0  0  0  0  0  0  0
    2.9345    3.5404    2.2485 C   0  0  0  0  0  0  0  0  0  0  0  0
    3.4200    4.8043    1.8974 C   0  0  0  0  0  0  0  0  0  0  0  0
    2.6445    5.6950    1.1653 C   0  0  0  0  0  0  0  0  0  0  0  0
    1.3739    5.3238    0.7746 C   0  0  0  0  0  0  0  0  0  0  0  0
    0.8549    4.1123    1.1970 C   0  0  0  0  0  0  0  0  0  0  0  0
    1.5847    3.2716    2.0658 C   0  0  0  0  0  0  0  0  0  0  0  0
    0.8652    2.1187    2.6264 C   0  0  0  0  0  0  0  0  0  0  0  0
   -0.2241    1.6520    2.0252 C   0  0  0  0  0  0  0  0  0  0  0  0
   -0.7242    2.2576    0.7435 C   0  0  0  0  0  0  0  0  0  0  0  0
   -0.3707    3.6781    0.6905 N   0  0  0  0  0  0  0  0  0  0  0  0
   -0.0941    1.5290   -0.4459 C   0  0  0  0  0  0  0  0  0  0  0  0
   -2.2467    2.1106    0.6736 C   0  0  0  0  0  0  0  0  0  0  0  0
    1.2744    1.4708    3.9262 C   0  0  0  0  0  0  0  0  0  0  0  0
    4.7715    5.1948    2.3667 C   0  0  0  0  0  0  0  0  0  0  0  0
    5.1509    6.5212    2.5029 C   0  0  0  0  0  0  0  0  0  0  0  0
    6.4247    6.8233    2.9480 C   0  0  0  0  0  0  0  0  0  0  0  0
    7.3113    5.8079    3.2602 C   0  0  0  0  0  0  0  0  0  0  0  0
    6.9393    4.4830    3.1257 C   0  0  0  0  0  0  0  0  0  0  0  0
    5.6695    4.1651    2.6743 C   0  0  0  0  0  0  0  0  0  0  0  0
    5.2761    2.8875    2.5162 O   0  0  0  0  0  0  0  0  0  0  0  0
    4.8113    0.1719   -2.1362 H   0  0  0  0  0  0  0  0  0  0  0  0
    3.1355   -0.4044   -2.3029 H   0  0  0  0  0  0  0  0  0  0  0  0
    3.4668    1.3382   -2.1547 H   0  0  0  0  0  0  0  0  0  0  0  0
    4.0503    2.3139   -0.0094 H   0  0  0  0  0  0  0  0  0  0  0  0
    3.3861   -0.0344    3.4883 H   0  0  0  0  0  0  0  0  0  0  0  0
    3.0707   -2.0341    2.0873 H   0  0  0  0  0  0  0  0  0  0  0  0
    3.0329    6.6670    0.9033 H   0  0  0  0  0  0  0  0  0  0  0  0
    0.7856    5.9737    0.1439 H   0  0  0  0  0  0  0  0  0  0  0  0
   -0.7564    0.8240    2.4683 H   0  0  0  0  0  0  0  0  0  0  0  0
   -0.9908    4.3217    0.3019 H   0  0  0  0  0  0  0  0  0  0  0  0
   -0.3670    0.4743   -0.4120 H   0  0  0  0  0  0  0  0  0  0  0  0
    0.9906    1.6254   -0.3978 H   0  0  0  0  0  0  0  0  0  0  0  0
   -0.4570    1.9686   -1.3750 H   0  0  0  0  0  0  0  0  0  0  0  0
   -2.5117    1.0539    0.7093 H   0  0  0  0  0  0  0  0  0  0  0  0
   -2.7008    2.6278    1.5187 H   0  0  0  0  0  0  0  0  0  0  0  0
   -2.6113    2.5454   -0.2571 H   0  0  0  0  0  0  0  0  0  0  0  0
    0.6275    0.6165    4.1258 H   0  0  0  0  0  0  0  0  0  0  0  0
    2.3087    1.1344    3.8547 H   0  0  0  0  0  0  0  0  0  0  0  0
    1.1825    2.1933    4.7371 H   0  0  0  0  0  0  0  0  0  0  0  0
    4.4583    7.3150    2.2655 H   0  0  0  0  0  0  0  0  0  0  0  0
    6.7279    7.8544    3.0526 H   0  0  0  0  0  0  0  0  0  0  0  0
    8.3028    6.0525    3.6120 H   0  0  0  0  0  0  0  0  0  0  0  0
    7.6370    3.6967    3.3723 H   0  0  0  0  0  0  0  0  0  0  0  0
  1  2  1  0  0  0  0
  1 31  1  0  0  0  0
  1 32  1  0  0  0  0
  1 33  1  0  0  0  0
  2  7  2  0  0  0  0
  2  3  1  0  0  0  0
  3  4  2  0  0  0  0
  3 34  1  0  0  0  0
  4  5  1  0  0  0  0
  4  9  1  0  0  0  0
  5  6  2  0  0  0  0
  5 35  1  0  0  0  0
  6  7  1  0  0  0  0
  6 36  1  0  0  0  0
  7  8  1  0  0  0  0
  9 10  1  0  0  0  0
  9 30  1  0  0  0  0
  9 11  1  0  0  0  0
 11 16  2  0  0  0  0
 11 12  1  0  0  0  0
 12 13  2  0  0  0  0
 12 24  1  0  0  0  0
 13 14  1  0  0  0  0
 13 37  1  0  0  0  0
 14 15  2  0  0  0  0
 14 38  1  0  0  0  0
 15 20  1  0  0  0  0
 15 16  1  0  0  0  0
 16 17  1  0  0  0  0
 17 18  2  0  0  0  0
 17 23  1  0  0  0  0
 18 19  1  0  0  0  0
 18 39  1  0  0  0  0
 19 20  1  0  0  0  0
 19 21  1  0  0  0  0
 19 22  1  0  0  0  0
 20 40  1  0  0  0  0
 21 41  1  0  0  0  0
 21 42  1  0  0  0  0
 21 43  1  0  0  0  0
 22 44  1  0  0  0  0
 22 45  1  0  0  0  0
 22 46  1  0  0  0  0
 23 47  1  0  0  0  0
 23 48  1  0  0  0  0
 23 49  1  0  0  0  0
 24 29  2  0  0  0  0
 24 25  1  0  0  0  0
 25 26  2  0  0  0  0
 25 50  1  0  0  0  0
 26 27  1  0  0  0  0
 26 51  1  0  0  0  0
 27 28  2  0  0  0  0
 27 52  1  0  0  0  0
 28 29  1  0  0  0  0
 28 53  1  0  0  0  0
 29 30  1  0  0  0  0
M  END
$$$$
ZINC03831965
  -OEChem-08230709403D

 50 54  0     1  0  0  0  0  0999 V2000
    0.8204   -1.2128    1.2112 C   0  0  0  0  0  0  0  0  0  0  0  0
    1.1063   -0.2951    2.3709 C   0  0  0  0  0  0  0  0  0  0  0  0
    0.2396   -0.3086    3.3829 C   0  0  0  0  0  0  0  0  0  0  0  0
    0.5494    0.4433    4.6505 C   0  0  0  0  0  0  0  0  0  0  0  0
    2.0044    0.3847    4.8603 N   0  0  0  0  0  0  0  0  0  0  0  0
    2.8241    0.7188    3.7785 C   0  0  0  0  0  0  0  0  0  0  0  0
    2.3346    0.5148    2.4665 C   0  0  0  0  0  0  0  0  0  0  0  0
    3.0729    0.9926    1.3920 C   0  0  0  0  0  0  0  0  0  0  0  0
    4.3883    1.4113    1.6255 C   0  0  0  0  0  0  0  0  0  0  0  0
    4.8967    1.5163    2.9171 C   0  0  0  0  0  0  0  0  0  0  0  0
    4.0962    1.2103    3.9973 C   0  0  0  0  0  0  0  0  0  0  0  0
    5.2674    1.7262    0.4736 C   0  0  0  0  0  0  0  0  0  0  0  0
    6.6326    1.9232    0.6410 C   0  0  0  0  0  0  0  0  0  0  0  0
    7.4252    2.2025   -0.4562 C   0  0  0  0  0  0  0  0  0  0  0  0
    6.8626    2.2765   -1.7181 C   0  0  0  0  0  0  0  0  0  0  0  0
    5.5056    2.0841   -1.8917 C   0  0  0  0  0  0  0  0  0  0  0  0
    4.6942    1.8221   -0.7967 C   0  0  0  0  0  0  0  0  0  0  0  0
    3.3683    1.6748   -0.9496 O   0  0  0  0  0  0  0  0  0  0  0  0
    2.5318    1.0217   -0.0085 C   0  0  2  0  0  0  0  0  0  0  0  0
    2.3569    0.0050   -0.3642 H   0  0  0  0  0  0  0  0  0  0  0  0
    1.2140    1.7765   -0.0039 C   0  0  0  0  0  0  0  0  0  0  0  0
    0.0515    1.1395   -0.3963 C   0  0  0  0  0  0  0  0  0  0  0  0
   -1.1472    1.8276   -0.3978 C   0  0  0  0  0  0  0  0  0  0  0  0
   -1.1853    3.1510    0.0039 C   0  0  0  0  0  0  0  0  0  0  0  0
   -0.0217    3.7878    0.3970 C   0  0  0  0  0  0  0  0  0  0  0  0
    1.1773    3.1002    0.3930 C   0  0  0  0  0  0  0  0  0  0  0  0
   -2.6915    4.0141    0.0081 Cl  0  0  0  0  0  0  0  0  0  0  0  0
   -0.1640   -0.2171    5.8289 C   0  0  0  0  0  0  0  0  0  0  0  0
    0.1011    1.8964    4.5211 C   0  0  0  0  0  0  0  0  0  0  0  0
    1.6771   -1.2247    0.5374 H   0  0  0  0  0  0  0  0  0  0  0  0
    0.6361   -2.2209    1.5824 H   0  0  0  0  0  0  0  0  0  0  0  0
   -0.0590   -0.8569    0.6744 H   0  0  0  0  0  0  0  0  0  0  0  0
   -0.6813   -0.8574    3.2908 H   0  0  0  0  0  0  0  0  0  0  0  0
    2.3769    0.1243    5.7125 H   0  0  0  0  0  0  0  0  0  0  0  0
    5.9076    1.8604    3.0739 H   0  0  0  0  0  0  0  0  0  0  0  0
    4.4588    1.3535    5.0042 H   0  0  0  0  0  0  0  0  0  0  0  0
    7.0770    1.8561    1.6226 H   0  0  0  0  0  0  0  0  0  0  0  0
    8.4858    2.3614   -0.3289 H   0  0  0  0  0  0  0  0  0  0  0  0
    7.4892    2.4865   -2.5727 H   0  0  0  0  0  0  0  0  0  0  0  0
    5.0702    2.1445   -2.8782 H   0  0  0  0  0  0  0  0  0  0  0  0
    0.0808    0.1053   -0.7060 H   0  0  0  0  0  0  0  0  0  0  0  0
   -2.0545    1.3312   -0.7090 H   0  0  0  0  0  0  0  0  0  0  0  0
   -0.0501    4.8221    0.7064 H   0  0  0  0  0  0  0  0  0  0  0  0
    2.0857    3.5972    0.6998 H   0  0  0  0  0  0  0  0  0  0  0  0
    0.0912    0.3085    6.7490 H   0  0  0  0  0  0  0  0  0  0  0  0
   -1.2418   -0.1730    5.6722 H   0  0  0  0  0  0  0  0  0  0  0  0
    0.1496   -1.2582    5.9062 H   0  0  0  0  0  0  0  0  0  0  0  0
    0.6056    2.3580    3.6722 H   0  0  0  0  0  0  0  0  0  0  0  0
   -0.9772    1.9316    4.3660 H   0  0  0  0  0  0  0  0  0  0  0  0
    0.3549    2.4374    5.4327 H   0  0  0  0  0  0  0  0  0  0  0  0
  1  2  1  0  0  0  0
  1 30  1  0  0  0  0
  1 31  1  0  0  0  0
  1 32  1  0  0  0  0
  2  7  1  0  0  0  0
  2  3  2  0  0  0  0
  3  4  1  0  0  0  0
  3 33  1  0  0  0  0
  4  5  1  0  0  0  0
  4 28  1  0  0  0  0
  4 29  1  0  0  0  0
  5  6  1  0  0  0  0
  5 34  1  0  0  0  0
  6 11  2  0  0  0  0
  6  7  1  0  0  0  0
  7  8  2  0  0  0  0
  8 19  1  0  0  0  0
  8  9  1  0  0  0  0
  9 10  2  0  0  0  0
  9 12  1  0  0  0  0
 10 11  1  0  0  0  0
 10 35  1  0  0  0  0
 11 36  1  0  0  0  0
 12 17  2  0  0  0  0
 12 13  1  0  0  0  0
 13 14  2  0  0  0  0
 13 37  1  0  0  0  0
 14 15  1  0  0  0  0
 14 38  1  0  0  0  0
 15 16  2  0  0  0  0
 15 39  1  0  0  0  0
 16 17  1  0  0  0  0
 16 40  1  0  0  0  0
 17 18  1  0  0  0  0
 18 19  1  0  0  0  0
 19 20  1  0  0  0  0
 19 21  1  0  0  0  0
 21 26  2  0  0  0  0
 21 22  1  0  0  0  0
 22 23  2  0  0  0  0
 22 41  1  0  0  0  0
 23 24  1  0  0  0  0
 23 42  1  0  0  0  0
 24 25  2  0  0  0  0
 24 27  1  0  0  0  0
 25 26  1  0  0  0  0
 25 43  1  0  0  0  0
 26 44  1  0  0  0  0
 28 45  1  0  0  0  0
 28 46  1  0  0  0  0
 28 47  1  0  0  0  0
 29 48  1  0  0  0  0
 29 49  1  0  0  0  0
 29 50  1  0  0  0  0
M  END
$$$$
ZINC03831966
  -OEChem-08230709403D

 50 54  0     1  0  0  0  0  0999 V2000
    4.1367   -4.0717   -1.5019 C   0  0  0  0  0  0  0  0  0  0  0  0
    4.9904   -3.2796   -0.5454 C   0  0  0  0  0  0  0  0  0  0  0  0
    6.1861   -3.7309   -0.1891 C   0  0  0  0  0  0  0  0  0  0  0  0
    7.0498   -2.9640    0.7766 C   0  0  0  0  0  0  0  0  0  0  0  0
    6.7568   -1.5284    0.6796 N   0  0  0  0  0  0  0  0  0  0  0  0
    5.4212   -1.1272    0.6097 C   0  0  0  0  0  0  0  0  0  0  0  0
    4.4999   -1.9976   -0.0011 C   0  0  0  0  0  0  0  0  0  0  0  0
    3.1649   -1.6372   -0.0804 C   0  0  0  0  0  0  0  0  0  0  0  0
    2.7521   -0.4102    0.4465 C   0  0  0  0  0  0  0  0  0  0  0  0
    3.6685    0.4462    1.0447 C   0  0  0  0  0  0  0  0  0  0  0  0
    5.0017    0.0861    1.1254 C   0  0  0  0  0  0  0  0  0  0  0  0
    1.3137   -0.0670    0.3395 C   0  0  0  0  0  0  0  0  0  0  0  0
    0.8587    1.2344    0.4933 C   0  0  0  0  0  0  0  0  0  0  0  0
   -0.4936    1.5013    0.3888 C   0  0  0  0  0  0  0  0  0  0  0  0
   -1.3875    0.4769    0.1322 C   0  0  0  0  0  0  0  0  0  0  0  0
   -0.9416   -0.8228   -0.0242 C   0  0  0  0  0  0  0  0  0  0  0  0
    0.4090   -1.1050    0.0766 C   0  0  0  0  0  0  0  0  0  0  0  0
    0.8750   -2.3705   -0.0799 O   0  0  0  0  0  0  0  0  0  0  0  0
    2.1423   -2.5394   -0.7198 C   0  0  1  0  0  0  0  0  0  0  0  0
    2.4624   -3.5766   -0.6207 H   0  0  0  0  0  0  0  0  0  0  0  0
    2.0131   -2.1930   -2.1807 C   0  0  0  0  0  0  0  0  0  0  0  0
    0.9394   -2.6668   -2.9111 C   0  0  0  0  0  0  0  0  0  0  0  0
    0.8187   -2.3454   -4.2502 C   0  0  0  0  0  0  0  0  0  0  0  0
    1.7764   -1.5577   -4.8610 C   0  0  0  0  0  0  0  0  0  0  0  0
    2.8529   -1.0881   -4.1318 C   0  0  0  0  0  0  0  0  0  0  0  0
    2.9713   -1.4060   -2.7918 C   0  0  0  0  0  0  0  0  0  0  0  0
    6.7688   -3.4447    2.2017 C   0  0  0  0  0  0  0  0  0  0  0  0
    8.5232   -3.2035    0.4409 C   0  0  0  0  0  0  0  0  0  0  0  0
    3.5744   -3.3884   -2.1384 H   0  0  0  0  0  0  0  0  0  0  0  0
    4.7744   -4.7030   -2.1207 H   0  0  0  0  0  0  0  0  0  0  0  0
    3.4438   -4.6966   -0.9384 H   0  0  0  0  0  0  0  0  0  0  0  0
    6.5455   -4.6636   -0.5981 H   0  0  0  0  0  0  0  0  0  0  0  0
    7.4734   -0.8749    0.6641 H   0  0  0  0  0  0  0  0  0  0  0  0
    3.3397    1.3931    1.4468 H   0  0  0  0  0  0  0  0  0  0  0  0
    5.7142    0.7515    1.5902 H   0  0  0  0  0  0  0  0  0  0  0  0
    1.5566    2.0341    0.6927 H   0  0  0  0  0  0  0  0  0  0  0  0
   -0.8534    2.5126    0.5076 H   0  0  0  0  0  0  0  0  0  0  0  0
   -2.4420    0.6948    0.0489 H   0  0  0  0  0  0  0  0  0  0  0  0
   -1.6464   -1.6161   -0.2250 H   0  0  0  0  0  0  0  0  0  0  0  0
    0.1932   -3.2854   -2.4348 H   0  0  0  0  0  0  0  0  0  0  0  0
   -0.0225   -2.7120   -4.8198 H   0  0  0  0  0  0  0  0  0  0  0  0
    1.6834   -1.3088   -5.9078 H   0  0  0  0  0  0  0  0  0  0  0  0
    3.6011   -0.4727   -4.6091 H   0  0  0  0  0  0  0  0  0  0  0  0
    3.8124   -1.0391   -2.2221 H   0  0  0  0  0  0  0  0  0  0  0  0
    6.9941   -4.5085    2.2774 H   0  0  0  0  0  0  0  0  0  0  0  0
    7.3936   -2.8903    2.9020 H   0  0  0  0  0  0  0  0  0  0  0  0
    5.7186   -3.2779    2.4409 H   0  0  0  0  0  0  0  0  0  0  0  0
    8.7241   -2.8647   -0.5754 H   0  0  0  0  0  0  0  0  0  0  0  0
    9.1498   -2.6489    1.1394 H   0  0  0  0  0  0  0  0  0  0  0  0
    8.7455   -4.2677    0.5197 H   0  0  0  0  0  0  0  0  0  0  0  0
  1  2  1  0  0  0  0
  1 29  1  0  0  0  0
  1 30  1  0  0  0  0
  1 31  1  0  0  0  0
  2  7  1  0  0  0  0
  2  3  2  0  0  0  0
  3  4  1  0  0  0  0
  3 32  1  0  0  0  0
  4  5  1  0  0  0  0
  4 27  1  0  0  0  0
  4 28  1  0  0  0  0
  5  6  1  0  0  0  0
  5 33  1  0  0  0  0
  6 11  2  0  0  0  0
  6  7  1  0  0  0  0
  7  8  2  0  0  0  0
  8 19  1  0  0  0  0
  8  9  1  0  0  0  0
  9 10  2  0  0  0  0
  9 12  1  0  0  0  0
 10 11  1  0  0  0  0
 10 34  1  0  0  0  0
 11 35  1  0  0  0  0
 12 17  2  0  0  0  0
 12 13  1  0  0  0  0
 13 14  2  0  0  0  0
 13 36  1  0  0  0  0
 14 15  1  0  0  0  0
 14 37  1  0  0  0  0
 15 16  2  0  0  0  0
 15 38  1  0  0  0  0
 16 17  1  0  0  0  0
 16 39  1  0  0  0  0
 17 18  1  0  0  0  0
 18 19  1  0  0  0  0
 19 20  1  0  0  0  0
 19 21  1  0  0  0  0
 21 26  2  0  0  0  0
 21 22  1  0  0  0  0
 22 23  2  0  0  0  0
 22 40  1  0  0  0  0
 23 24  1  0  0  0  0
 23 41  1  0  0  0  0
 24 25  2  0  0  0  0
 24 42  1  0  0  0  0
 25 26  1  0  0  0  0
 25 43  1  0  0  0  0
 26 44  1  0  0  0  0
 27 45  1  0  0  0  0
 27 46  1  0  0  0  0
 27 47  1  0  0  0  0
 28 48  1  0  0  0  0
 28 49  1  0  0  0  0
 28 50  1  0  0  0  0
M  END
$$$$
ZINC03831968
  -OEChem-08230709403D

 55 58  0     1  0  0  0  0  0999 V2000
   -1.3146   -0.1910   -2.5965 C   0  0  0  0  0  0  0  0  0  0  0  0
   -1.6481   -1.6566   -2.7045 C   0  0  0  0  0  0  0  0  0  0  0  0
   -2.0468   -2.1660   -3.8630 C   0  0  0  0  0  0  0  0  0  0  0  0
   -2.3993   -3.6241   -3.9907 C   0  0  0  0  0  0  0  0  0  0  0  0
   -1.6330   -4.4117   -3.0165 N   0  0  0  0  0  0  0  0  0  0  0  0
   -1.5214   -3.9264   -1.7122 C   0  0  0  0  0  0  0  0  0  0  0  0
   -1.5337   -2.5326   -1.5212 C   0  0  0  0  0  0  0  0  0  0  0  0
   -1.4338   -2.0151   -0.2403 C   0  0  0  0  0  0  0  0  0  0  0  0
   -1.3181   -2.8873    0.8457 C   0  0  0  0  0  0  0  0  0  0  0  0
   -1.3034   -4.2628    0.6492 C   0  0  0  0  0  0  0  0  0  0  0  0
   -1.4053   -4.7802   -0.6297 C   0  0  0  0  0  0  0  0  0  0  0  0
   -1.2121   -2.2886    2.1980 C   0  0  0  0  0  0  0  0  0  0  0  0
   -0.7446   -3.0136    3.2843 C   0  0  0  0  0  0  0  0  0  0  0  0
   -0.6692   -2.4104    4.5258 C   0  0  0  0  0  0  0  0  0  0  0  0
   -1.0571   -1.0916    4.6840 C   0  0  0  0  0  0  0  0  0  0  0  0
   -1.5220   -0.3616    3.6053 C   0  0  0  0  0  0  0  0  0  0  0  0
   -1.6019   -0.9514    2.3566 C   0  0  0  0  0  0  0  0  0  0  0  0
   -2.0505   -0.2570    1.2797 O   0  0  0  0  0  0  0  0  0  0  0  0
   -1.4473   -0.5305    0.0126 C   0  0  1  0  0  0  0  0  0  0  0  0
   -2.0178   -0.0347   -0.7728 H   0  0  0  0  0  0  0  0  0  0  0  0
   -0.0116   -0.0014    0.0087 C   0  0  0  0  0  0  0  0  0  0  0  0
   -0.0312    1.5272    0.0713 C   0  0  0  0  0  0  0  0  0  0  0  0
    1.4044    2.0562    0.0674 C   0  0  0  0  0  0  0  0  0  0  0  0
    1.3845    3.5847    0.0041 C   0  0  0  0  0  0  0  0  0  0  0  0
    2.1166    1.6079    1.3452 C   0  0  0  0  0  0  0  0  0  0  0  0
   -2.0688   -4.1048   -5.4051 C   0  0  0  0  0  0  0  0  0  0  0  0
   -3.8954   -3.8098   -3.7297 C   0  0  0  0  0  0  0  0  0  0  0  0
   -2.1858    0.3541   -2.2331 H   0  0  0  0  0  0  0  0  0  0  0  0
   -0.4862   -0.0571   -1.9009 H   0  0  0  0  0  0  0  0  0  0  0  0
   -1.0307    0.1903   -3.5773 H   0  0  0  0  0  0  0  0  0  0  0  0
   -2.1192   -1.5242   -4.7286 H   0  0  0  0  0  0  0  0  0  0  0  0
   -1.2149   -5.2486   -3.2728 H   0  0  0  0  0  0  0  0  0  0  0  0
   -1.2120   -4.9280    1.4950 H   0  0  0  0  0  0  0  0  0  0  0  0
   -1.3939   -5.8492   -0.7829 H   0  0  0  0  0  0  0  0  0  0  0  0
   -0.4417   -4.0429    3.1609 H   0  0  0  0  0  0  0  0  0  0  0  0
   -0.3058   -2.9702    5.3749 H   0  0  0  0  0  0  0  0  0  0  0  0
   -0.9960   -0.6285    5.6578 H   0  0  0  0  0  0  0  0  0  0  0  0
   -1.8219    0.6674    3.7376 H   0  0  0  0  0  0  0  0  0  0  0  0
    0.4910   -0.3213   -0.9040 H   0  0  0  0  0  0  0  0  0  0  0  0
    0.5225   -0.3937    0.8742 H   0  0  0  0  0  0  0  0  0  0  0  0
   -0.5653    1.9194   -0.7942 H   0  0  0  0  0  0  0  0  0  0  0  0
   -0.5338    1.8470    0.9840 H   0  0  0  0  0  0  0  0  0  0  0  0
    1.9340    1.6634   -0.8006 H   0  0  0  0  0  0  0  0  0  0  0  0
    0.8549    3.9775    0.8721 H   0  0  0  0  0  0  0  0  0  0  0  0
    2.4073    3.9616    0.0013 H   0  0  0  0  0  0  0  0  0  0  0  0
    0.8771    3.9041   -0.9062 H   0  0  0  0  0  0  0  0  0  0  0  0
    1.5870    2.0006    2.2132 H   0  0  0  0  0  0  0  0  0  0  0  0
    2.1308    0.5189    1.3903 H   0  0  0  0  0  0  0  0  0  0  0  0
    3.1394    1.9848    1.3424 H   0  0  0  0  0  0  0  0  0  0  0  0
   -2.3314   -5.1582   -5.5015 H   0  0  0  0  0  0  0  0  0  0  0  0
   -2.6370   -3.5209   -6.1293 H   0  0  0  0  0  0  0  0  0  0  0  0
   -1.0025   -3.9775   -5.5922 H   0  0  0  0  0  0  0  0  0  0  0  0
   -4.1330   -3.4720   -2.7210 H   0  0  0  0  0  0  0  0  0  0  0  0
   -4.4655   -3.2257   -4.4522 H   0  0  0  0  0  0  0  0  0  0  0  0
   -4.1536   -4.8640   -3.8301 H   0  0  0  0  0  0  0  0  0  0  0  0
  1  2  1  0  0  0  0
  1 28  1  0  0  0  0
  1 29  1  0  0  0  0
  1 30  1  0  0  0  0
  2  7  1  0  0  0  0
  2  3  2  0  0  0  0
  3  4  1  0  0  0  0
  3 31  1  0  0  0  0
  4  5  1  0  0  0  0
  4 26  1  0  0  0  0
  4 27  1  0  0  0  0
  5  6  1  0  0  0  0
  5 32  1  0  0  0  0
  6 11  2  0  0  0  0
  6  7  1  0  0  0  0
  7  8  2  0  0  0  0
  8 19  1  0  0  0  0
  8  9  1  0  0  0  0
  9 10  2  0  0  0  0
  9 12  1  0  0  0  0
 10 11  1  0  0  0  0
 10 33  1  0  0  0  0
 11 34  1  0  0  0  0
 12 17  2  0  0  0  0
 12 13  1  0  0  0  0
 13 14  2  0  0  0  0
 13 35  1  0  0  0  0
 14 15  1  0  0  0  0
 14 36  1  0  0  0  0
 15 16  2  0  0  0  0
 15 37  1  0  0  0  0
 16 17  1  0  0  0  0
 16 38  1  0  0  0  0
 17 18  1  0  0  0  0
 18 19  1  0  0  0  0
 19 20  1  0  0  0  0
 19 21  1  0  0  0  0
 21 22  1  0  0  0  0
 21 39  1  0  0  0  0
 21 40  1  0  0  0  0
 22 23  1  0  0  0  0
 22 41  1  0  0  0  0
 22 42  1  0  0  0  0
 23 24  1  0  0  0  0
 23 25  1  0  0  0  0
 23 43  1  0  0  0  0
 24 44  1  0  0  0  0
 24 45  1  0  0  0  0
 24 46  1  0  0  0  0
 25 47  1  0  0  0  0
 25 48  1  0  0  0  0
 25 49  1  0  0  0  0
 26 50  1  0  0  0  0
 26 51  1  0  0  0  0
 26 52  1  0  0  0  0
 27 53  1  0  0  0  0
 27 54  1  0  0  0  0
 27 55  1  0  0  0  0
M  END
$$$$
ZINC03831971
  -OEChem-08230709403D

 51 55  0     1  0  0  0  0  0999 V2000
    3.6149   -1.3327   -0.6139 C   0  0  0  0  0  0  0  0  0  0  0  0
    3.4386   -0.5435    0.6850 C   0  0  2  0  0  0  0  0  0  0  0  0
    3.5410   -1.1597    1.4659 H   0  0  0  0  0  0  0  0  0  0  0  0
    2.0649    0.0795    0.7124 C   0  0  0  0  0  0  0  0  0  0  0  0
    1.8663    1.3999    1.0904 C   0  0  0  0  0  0  0  0  0  0  0  0
    0.5764    1.9297    1.1272 C   0  0  0  0  0  0  0  0  0  0  0  0
   -0.5083    1.1531    0.7781 C   0  0  0  0  0  0  0  0  0  0  0  0
   -0.3079   -0.1638    0.3897 C   0  0  0  0  0  0  0  0  0  0  0  0
    0.9821   -0.7005    0.3612 C   0  0  0  0  0  0  0  0  0  0  0  0
    1.1662   -2.1374   -0.0539 C   0  0  2  0  0  0  0  0  0  0  0  0
    1.2936   -2.1882   -1.1352 H   0  0  0  0  0  0  0  0  0  0  0  0
    0.0203   -2.9047    0.3238 O   0  0  0  0  0  0  0  0  0  0  0  0
   -1.2028   -2.4289   -0.0234 C   0  0  0  0  0  0  0  0  0  0  0  0
   -1.4299   -1.0453   -0.0113 C   0  0  0  0  0  0  0  0  0  0  0  0
   -2.6708   -0.5374   -0.3667 C   0  0  0  0  0  0  0  0  0  0  0  0
   -3.6838   -1.4045   -0.7316 C   0  0  0  0  0  0  0  0  0  0  0  0
   -3.4612   -2.7703   -0.7418 C   0  0  0  0  0  0  0  0  0  0  0  0
   -2.2265   -3.2840   -0.3894 C   0  0  0  0  0  0  0  0  0  0  0  0
    2.3902   -2.7004    0.6213 C   0  0  0  0  0  0  0  0  0  0  0  0
    2.5903   -2.4933    1.9736 C   0  0  0  0  0  0  0  0  0  0  0  0
    3.7125   -3.0091    2.5942 C   0  0  0  0  0  0  0  0  0  0  0  0
    4.6360   -3.7327    1.8634 C   0  0  0  0  0  0  0  0  0  0  0  0
    4.4367   -3.9407    0.5093 C   0  0  0  0  0  0  0  0  0  0  0  0
    3.3091   -3.4282   -0.1102 C   0  0  0  0  0  0  0  0  0  0  0  0
    5.3384   -4.6481   -0.2059 F   0  0  0  0  0  0  0  0  0  0  0  0
    2.9297    2.2393    1.4357 N   0  0  0  0  0  0  0  0  0  0  0  0
    4.2443    1.6662    1.7519 C   0  0  0  0  0  0  0  0  0  0  0  0
    4.4858    0.5436    0.7600 C   0  0  0  0  0  0  0  0  0  0  0  0
    5.4706    0.5201    0.0615 O   0  0  0  0  0  0  0  0  0  0  0  0
    5.3292    2.7350    1.6057 C   0  0  0  0  0  0  0  0  0  0  0  0
    4.2435    1.1121    3.1781 C   0  0  0  0  0  0  0  0  0  0  0  0
    3.9112   -0.6543   -1.4139 H   0  0  0  0  0  0  0  0  0  0  0  0
    4.3857   -2.0911   -0.4764 H   0  0  0  0  0  0  0  0  0  0  0  0
    2.6734   -1.8151   -0.8766 H   0  0  0  0  0  0  0  0  0  0  0  0
    0.4263    2.9551    1.4313 H   0  0  0  0  0  0  0  0  0  0  0  0
   -1.5052    1.5679    0.8024 H   0  0  0  0  0  0  0  0  0  0  0  0
   -2.8445    0.5285   -0.3580 H   0  0  0  0  0  0  0  0  0  0  0  0
   -4.6518   -1.0147   -1.0098 H   0  0  0  0  0  0  0  0  0  0  0  0
   -4.2585   -3.4406   -1.0270 H   0  0  0  0  0  0  0  0  0  0  0  0
   -2.0617   -4.3513   -0.4004 H   0  0  0  0  0  0  0  0  0  0  0  0
    1.8695   -1.9277    2.5454 H   0  0  0  0  0  0  0  0  0  0  0  0
    3.8677   -2.8470    3.6506 H   0  0  0  0  0  0  0  0  0  0  0  0
    5.5126   -4.1359    2.3486 H   0  0  0  0  0  0  0  0  0  0  0  0
    3.1503   -3.5937   -1.1656 H   0  0  0  0  0  0  0  0  0  0  0  0
    2.7992    3.2001    1.4661 H   0  0  0  0  0  0  0  0  0  0  0  0
    5.1228    3.5582    2.2897 H   0  0  0  0  0  0  0  0  0  0  0  0
    6.3009    2.3012    1.8421 H   0  0  0  0  0  0  0  0  0  0  0  0
    5.3370    3.1071    0.5812 H   0  0  0  0  0  0  0  0  0  0  0  0
    3.4831    0.3361    3.2659 H   0  0  0  0  0  0  0  0  0  0  0  0
    5.2222    0.6890    3.4041 H   0  0  0  0  0  0  0  0  0  0  0  0
    4.0244    1.9165    3.8803 H   0  0  0  0  0  0  0  0  0  0  0  0
  1  2  1  0  0  0  0
  1 32  1  0  0  0  0
  1 33  1  0  0  0  0
  1 34  1  0  0  0  0
  2  3  1  0  0  0  0
  2 28  1  0  0  0  0
  2  4  1  0  0  0  0
  4  9  2  0  0  0  0
  4  5  1  0  0  0  0
  5  6  2  0  0  0  0
  5 26  1  0  0  0  0
  6  7  1  0  0  0  0
  6 35  1  0  0  0  0
  7  8  2  0  0  0  0
  7 36  1  0  0  0  0
  8 14  1  0  0  0  0
  8  9  1  0  0  0  0
  9 10  1  0  0  0  0
 10 11  1  0  0  0  0
 10 12  1  0  0  0  0
 10 19  1  0  0  0  0
 12 13  1  0  0  0  0
 13 18  2  0  0  0  0
 13 14  1  0  0  0  0
 14 15  2  0  0  0  0
 15 16  1  0  0  0  0
 15 37  1  0  0  0  0
 16 17  2  0  0  0  0
 16 38  1  0  0  0  0
 17 18  1  0  0  0  0
 17 39  1  0  0  0  0
 18 40  1  0  0  0  0
 19 24  2  0  0  0  0
 19 20  1  0  0  0  0
 20 21  2  0  0  0  0
 20 41  1  0  0  0  0
 21 22  1  0  0  0  0
 21 42  1  0  0  0  0
 22 23  2  0  0  0  0
 22 43  1  0  0  0  0
 23 24  1  0  0  0  0
 23 25  1  0  0  0  0
 24 44  1  0  0  0  0
 26 27  1  0  0  0  0
 26 45  1  0  0  0  0
 27 28  1  0  0  0  0
 27 30  1  0  0  0  0
 27 31  1  0  0  0  0
 28 29  2  0  0  0  0
 30 46  1  0  0  0  0
 30 47  1  0  0  0  0
 30 48  1  0  0  0  0
 31 49  1  0  0  0  0
 31 50  1  0  0  0  0
 31 51  1  0  0  0  0
M  END
$$$$
ZINC03831973
  -OEChem-08230709403D

 51 55  0     1  0  0  0  0  0999 V2000
   -3.7466    8.5862   -0.2949 C   0  0  0  0  0  0  0  0  0  0  0  0
   -3.0853    7.9455    0.9279 C   0  0  1  0  0  0  0  0  0  0  0  0
   -3.7326    7.3244    1.3698 H   0  0  0  0  0  0  0  0  0  0  0  0
   -1.8515    7.1870    0.5004 C   0  0  0  0  0  0  0  0  0  0  0  0
   -0.6838    7.9227    0.3029 C   0  0  0  0  0  0  0  0  0  0  0  0
    0.4783    7.2884   -0.1165 C   0  0  0  0  0  0  0  0  0  0  0  0
    0.4932    5.9195   -0.2760 C   0  0  0  0  0  0  0  0  0  0  0  0
   -0.6388    5.1857    0.0415 C   0  0  0  0  0  0  0  0  0  0  0  0
   -1.8474    5.8220    0.3331 C   0  0  0  0  0  0  0  0  0  0  0  0
   -3.1220    5.0246    0.3919 C   0  0  2  0  0  0  0  0  0  0  0  0
   -3.6192    5.2503    1.3471 H   0  0  0  0  0  0  0  0  0  0  0  0
   -2.9629    3.6295    0.2621 O   0  0  0  0  0  0  0  0  0  0  0  0
   -1.7894    2.9911    0.1251 C   0  0  0  0  0  0  0  0  0  0  0  0
   -0.5893    3.6990    0.0347 C   0  0  0  0  0  0  0  0  0  0  0  0
    0.6169    3.0158   -0.0317 C   0  0  0  0  0  0  0  0  0  0  0  0
    0.6214    1.6312   -0.0424 C   0  0  0  0  0  0  0  0  0  0  0  0
   -0.5709    0.9289   -0.0228 C   0  0  0  0  0  0  0  0  0  0  0  0
   -1.7733    1.6061    0.0782 C   0  0  0  0  0  0  0  0  0  0  0  0
   -4.0315    5.4538   -0.7305 C   0  0  0  0  0  0  0  0  0  0  0  0
   -5.2081    6.1226   -0.4494 C   0  0  0  0  0  0  0  0  0  0  0  0
   -6.0402    6.5201   -1.4792 C   0  0  0  0  0  0  0  0  0  0  0  0
   -5.7003    6.2403   -2.7896 C   0  0  0  0  0  0  0  0  0  0  0  0
   -4.5260    5.5673   -3.0704 C   0  0  0  0  0  0  0  0  0  0  0  0
   -3.6918    5.1736   -2.0409 C   0  0  0  0  0  0  0  0  0  0  0  0
   -0.6736    9.3006    0.5069 N   0  0  0  0  0  0  0  0  0  0  0  0
   -1.5272    9.9627    1.4939 C   0  0  0  0  0  0  0  0  0  0  0  0
   -2.6723    9.0544    1.8730 C   0  0  0  0  0  0  0  0  0  0  0  0
   -3.2750    9.2348    2.9084 O   0  0  0  0  0  0  0  0  0  0  0  0
   -2.0518   11.2880    0.9250 C   0  0  0  0  0  0  0  0  0  0  0  0
   -0.6895   10.2721    2.7482 C   0  0  0  0  0  0  0  0  0  0  0  0
   -3.9082    7.8270   -1.0602 H   0  0  0  0  0  0  0  0  0  0  0  0
   -4.7040    9.0193   -0.0051 H   0  0  0  0  0  0  0  0  0  0  0  0
   -3.0987    9.3685   -0.6903 H   0  0  0  0  0  0  0  0  0  0  0  0
    1.3670    7.8669   -0.3423 H   0  0  0  0  0  0  0  0  0  0  0  0
    1.3685    5.4343   -0.6802 H   0  0  0  0  0  0  0  0  0  0  0  0
    1.5474    3.5664   -0.0490 H   0  0  0  0  0  0  0  0  0  0  0  0
    1.5677    1.0982   -0.0265 H   0  0  0  0  0  0  0  0  0  0  0  0
   -0.5516   -0.1570   -0.0733 H   0  0  0  0  0  0  0  0  0  0  0  0
   -2.6938    1.0476    0.1214 H   0  0  0  0  0  0  0  0  0  0  0  0
   -5.4756    6.3376    0.5747 H   0  0  0  0  0  0  0  0  0  0  0  0
   -6.9575    7.0463   -1.2598 H   0  0  0  0  0  0  0  0  0  0  0  0
   -6.3520    6.5479   -3.5939 H   0  0  0  0  0  0  0  0  0  0  0  0
   -4.2605    5.3487   -4.0942 H   0  0  0  0  0  0  0  0  0  0  0  0
   -2.7745    4.6474   -2.2603 H   0  0  0  0  0  0  0  0  0  0  0  0
   -0.0798    9.8535   -0.0448 H   0  0  0  0  0  0  0  0  0  0  0  0
   -2.6648   11.7880    1.6750 H   0  0  0  0  0  0  0  0  0  0  0  0
   -1.2103   11.9274    0.6584 H   0  0  0  0  0  0  0  0  0  0  0  0
   -2.6530   11.0898    0.0377 H   0  0  0  0  0  0  0  0  0  0  0  0
   -0.2977    9.3428    3.1618 H   0  0  0  0  0  0  0  0  0  0  0  0
    0.1387   10.9278    2.4793 H   0  0  0  0  0  0  0  0  0  0  0  0
   -1.3165   10.7647    3.4914 H   0  0  0  0  0  0  0  0  0  0  0  0
  1  2  1  0  0  0  0
  1 31  1  0  0  0  0
  1 32  1  0  0  0  0
  1 33  1  0  0  0  0
  2  3  1  0  0  0  0
  2 27  1  0  0  0  0
  2  4  1  0  0  0  0
  4  9  2  0  0  0  0
  4  5  1  0  0  0  0
  5  6  2  0  0  0  0
  5 25  1  0  0  0  0
  6  7  1  0  0  0  0
  6 34  1  0  0  0  0
  7  8  2  0  0  0  0
  7 35  1  0  0  0  0
  8 14  1  0  0  0  0
  8  9  1  0  0  0  0
  9 10  1  0  0  0  0
 10 11  1  0  0  0  0
 10 12  1  0  0  0  0
 10 19  1  0  0  0  0
 12 13  1  0  0  0  0
 13 18  2  0  0  0  0
 13 14  1  0  0  0  0
 14 15  2  0  0  0  0
 15 16  1  0  0  0  0
 15 36  1  0  0  0  0
 16 17  2  0  0  0  0
 16 37  1  0  0  0  0
 17 18  1  0  0  0  0
 17 38  1  0  0  0  0
 18 39  1  0  0  0  0
 19 24  2  0  0  0  0
 19 20  1  0  0  0  0
 20 21  2  0  0  0  0
 20 40  1  0  0  0  0
 21 22  1  0  0  0  0
 21 41  1  0  0  0  0
 22 23  2  0  0  0  0
 22 42  1  0  0  0  0
 23 24  1  0  0  0  0
 23 43  1  0  0  0  0
 24 44  1  0  0  0  0
 25 26  1  0  0  0  0
 25 45  1  0  0  0  0
 26 27  1  0  0  0  0
 26 29  1  0  0  0  0
 26 30  1  0  0  0  0
 27 28  2  0  0  0  0
 29 46  1  0  0  0  0
 29 47  1  0  0  0  0
 29 48  1  0  0  0  0
 30 49  1  0  0  0  0
 30 50  1  0  0  0  0
 30 51  1  0  0  0  0
M  END
$$$$
ZINC03831975
  -OEChem-08230709403D

 54 58  0     1  0  0  0  0  0999 V2000
   -2.2254    0.6575    0.1153 C   0  0  0  0  0  0  0  0  0  0  0  0
   -1.0997    1.5571    0.6295 C   0  0  2  0  0  0  0  0  0  0  0  0
   -1.4699    2.2090    1.2912 H   0  0  0  0  0  0  0  0  0  0  0  0
   -0.4915    2.3075   -0.5244 C   0  0  0  0  0  0  0  0  0  0  0  0
    0.8826    2.4139   -0.6864 C   0  0  0  0  0  0  0  0  0  0  0  0
    1.4061    3.1387   -1.7570 C   0  0  0  0  0  0  0  0  0  0  0  0
    0.5666    3.7454   -2.6674 C   0  0  0  0  0  0  0  0  0  0  0  0
   -0.8073    3.6295   -2.5108 C   0  0  0  0  0  0  0  0  0  0  0  0
   -1.3350    2.9102   -1.4352 C   0  0  0  0  0  0  0  0  0  0  0  0
   -2.8314    2.8096   -1.2879 C   0  0  2  0  0  0  0  0  0  0  0  0
   -3.1922    1.9427   -1.8414 H   0  0  0  0  0  0  0  0  0  0  0  0
   -3.4517    3.9917   -1.8000 O   0  0  0  0  0  0  0  0  0  0  0  0
   -3.0904    4.4113   -3.0396 C   0  0  0  0  0  0  0  0  0  0  0  0
   -1.7624    4.2499   -3.4593 C   0  0  0  0  0  0  0  0  0  0  0  0
   -1.3741    4.6634   -4.7251 C   0  0  0  0  0  0  0  0  0  0  0  0
   -2.3047    5.2383   -5.5704 C   0  0  0  0  0  0  0  0  0  0  0  0
   -3.6150    5.4005   -5.1561 C   0  0  0  0  0  0  0  0  0  0  0  0
   -4.0098    4.9901   -3.8958 C   0  0  0  0  0  0  0  0  0  0  0  0
   -3.1815    2.6519    0.1693 C   0  0  0  0  0  0  0  0  0  0  0  0
   -4.0760    1.6741    0.5635 C   0  0  0  0  0  0  0  0  0  0  0  0
   -4.3970    1.5294    1.9000 C   0  0  0  0  0  0  0  0  0  0  0  0
   -3.8230    2.3619    2.8429 C   0  0  0  0  0  0  0  0  0  0  0  0
   -2.9281    3.3387    2.4490 C   0  0  0  0  0  0  0  0  0  0  0  0
   -2.6039    3.4809    1.1125 C   0  0  0  0  0  0  0  0  0  0  0  0
   -2.3020    4.2457    3.4768 C   0  0  0  0  0  0  0  0  0  0  0  0
   -2.3166    3.6154    4.7257 F   0  0  0  0  0  0  0  0  0  0  0  0
   -0.9808    4.5239    3.1102 F   0  0  0  0  0  0  0  0  0  0  0  0
   -3.0273    5.4398    3.5486 F   0  0  0  0  0  0  0  0  0  0  0  0
    1.7815    1.8090    0.1973 N   0  0  0  0  0  0  0  0  0  0  0  0
    1.3184    1.3447    1.5115 C   0  0  0  0  0  0  0  0  0  0  0  0
   -0.0429    0.7090    1.2987 C   0  0  0  0  0  0  0  0  0  0  0  0
   -0.2701   -0.4256    1.6440 O   0  0  0  0  0  0  0  0  0  0  0  0
    1.1976    2.5297    2.4718 C   0  0  0  0  0  0  0  0  0  0  0  0
    2.2951    0.3116    2.0770 C   0  0  0  0  0  0  0  0  0  0  0  0
   -2.9170    0.4397    0.9292 H   0  0  0  0  0  0  0  0  0  0  0  0
   -2.7585    1.1658   -0.6882 H   0  0  0  0  0  0  0  0  0  0  0  0
   -1.8028   -0.2740   -0.2614 H   0  0  0  0  0  0  0  0  0  0  0  0
    2.4762    3.2257   -1.8735 H   0  0  0  0  0  0  0  0  0  0  0  0
    0.9749    4.3058   -3.4954 H   0  0  0  0  0  0  0  0  0  0  0  0
   -0.3515    4.5366   -5.0484 H   0  0  0  0  0  0  0  0  0  0  0  0
   -2.0081    5.5621   -6.5571 H   0  0  0  0  0  0  0  0  0  0  0  0
   -4.3353    5.8517   -5.8224 H   0  0  0  0  0  0  0  0  0  0  0  0
   -5.0345    5.1210   -3.5807 H   0  0  0  0  0  0  0  0  0  0  0  0
   -4.5241    1.0236   -0.1730 H   0  0  0  0  0  0  0  0  0  0  0  0
   -5.0961    0.7659    2.2078 H   0  0  0  0  0  0  0  0  0  0  0  0
   -4.0736    2.2486    3.8873 H   0  0  0  0  0  0  0  0  0  0  0  0
   -1.9018    4.2418    0.8051 H   0  0  0  0  0  0  0  0  0  0  0  0
    2.7107    1.6964   -0.0573 H   0  0  0  0  0  0  0  0  0  0  0  0
    0.8098    2.1830    3.4296 H   0  0  0  0  0  0  0  0  0  0  0  0
    2.1793    2.9798    2.6187 H   0  0  0  0  0  0  0  0  0  0  0  0
    0.5175    3.2704    2.0511 H   0  0  0  0  0  0  0  0  0  0  0  0
    2.3920   -0.5181    1.3767 H   0  0  0  0  0  0  0  0  0  0  0  0
    3.2695    0.7766    2.2265 H   0  0  0  0  0  0  0  0  0  0  0  0
    1.9194   -0.0596    3.0305 H   0  0  0  0  0  0  0  0  0  0  0  0
  1  2  1  0  0  0  0
  1 35  1  0  0  0  0
  1 36  1  0  0  0  0
  1 37  1  0  0  0  0
  2  3  1  0  0  0  0
  2 31  1  0  0  0  0
  2  4  1  0  0  0  0
  4  9  2  0  0  0  0
  4  5  1  0  0  0  0
  5  6  2  0  0  0  0
  5 29  1  0  0  0  0
  6  7  1  0  0  0  0
  6 38  1  0  0  0  0
  7  8  2  0  0  0  0
  7 39  1  0  0  0  0
  8 14  1  0  0  0  0
  8  9  1  0  0  0  0
  9 10  1  0  0  0  0
 10 11  1  0  0  0  0
 10 12  1  0  0  0  0
 10 19  1  0  0  0  0
 12 13  1  0  0  0  0
 13 18  2  0  0  0  0
 13 14  1  0  0  0  0
 14 15  2  0  0  0  0
 15 16  1  0  0  0  0
 15 40  1  0  0  0  0
 16 17  2  0  0  0  0
 16 41  1  0  0  0  0
 17 18  1  0  0  0  0
 17 42  1  0  0  0  0
 18 43  1  0  0  0  0
 19 24  2  0  0  0  0
 19 20  1  0  0  0  0
 20 21  2  0  0  0  0
 20 44  1  0  0  0  0
 21 22  1  0  0  0  0
 21 45  1  0  0  0  0
 22 23  2  0  0  0  0
 22 46  1  0  0  0  0
 23 24  1  0  0  0  0
 23 25  1  0  0  0  0
 24 47  1  0  0  0  0
 25 26  1  0  0  0  0
 25 27  1  0  0  0  0
 25 28  1  0  0  0  0
 29 30  1  0  0  0  0
 29 48  1  0  0  0  0
 30 31  1  0  0  0  0
 30 33  1  0  0  0  0
 30 34  1  0  0  0  0
 31 32  2  0  0  0  0
 33 49  1  0  0  0  0
 33 50  1  0  0  0  0
 33 51  1  0  0  0  0
 34 52  1  0  0  0  0
 34 53  1  0  0  0  0
 34 54  1  0  0  0  0
M  END
$$$$
ZINC03831976
  -OEChem-08230709403D

 54 58  0     1  0  0  0  0  0999 V2000
   -0.5878    6.4283   -1.4629 C   0  0  0  0  0  0  0  0  0  0  0  0
   -0.4500    5.8598   -0.0498 C   0  0  1  0  0  0  0  0  0  0  0  0
   -1.2399    6.1344    0.4985 H   0  0  0  0  0  0  0  0  0  0  0  0
   -0.4002    4.3554   -0.0838 C   0  0  0  0  0  0  0  0  0  0  0  0
    0.8286    3.7043   -0.1683 C   0  0  0  0  0  0  0  0  0  0  0  0
    0.8635    2.3123   -0.2189 C   0  0  0  0  0  0  0  0  0  0  0  0
   -0.3075    1.5815   -0.1482 C   0  0  0  0  0  0  0  0  0  0  0  0
   -1.5185    2.2348    0.0428 C   0  0  0  0  0  0  0  0  0  0  0  0
   -1.5700    3.6342   -0.0048 C   0  0  0  0  0  0  0  0  0  0  0  0
   -2.9185    4.3083    0.0095 C   0  0  2  0  0  0  0  0  0  0  0  0
   -2.8231    5.3308    0.3752 H   0  0  0  0  0  0  0  0  0  0  0  0
   -3.8114    3.5963    0.8697 O   0  0  0  0  0  0  0  0  0  0  0  0
   -3.9016    2.2473    0.7188 C   0  0  0  0  0  0  0  0  0  0  0  0
   -2.7733    1.5030    0.3405 C   0  0  0  0  0  0  0  0  0  0  0  0
   -2.8621    0.1229    0.2451 C   0  0  0  0  0  0  0  0  0  0  0  0
   -4.0690   -0.5181    0.4901 C   0  0  0  0  0  0  0  0  0  0  0  0
   -5.1908    0.2219    0.8150 C   0  0  0  0  0  0  0  0  0  0  0  0
   -5.1121    1.5986    0.9221 C   0  0  0  0  0  0  0  0  0  0  0  0
   -3.4771    4.3092   -1.3902 C   0  0  0  0  0  0  0  0  0  0  0  0
   -3.8646    3.1207   -1.9807 C   0  0  0  0  0  0  0  0  0  0  0  0
   -4.3772    3.1216   -3.2642 C   0  0  0  0  0  0  0  0  0  0  0  0
   -4.5026    4.3111   -3.9577 C   0  0  0  0  0  0  0  0  0  0  0  0
   -4.1153    5.4993   -3.3674 C   0  0  0  0  0  0  0  0  0  0  0  0
   -3.6074    5.4990   -2.0815 C   0  0  0  0  0  0  0  0  0  0  0  0
   -4.2525    6.7959   -4.1230 C   0  0  0  0  0  0  0  0  0  0  0  0
   -4.7911    6.5431   -5.3892 F   0  0  0  0  0  0  0  0  0  0  0  0
   -5.1001    7.6583   -3.4194 F   0  0  0  0  0  0  0  0  0  0  0  0
   -2.9936    7.3902   -4.2619 F   0  0  0  0  0  0  0  0  0  0  0  0
    2.0131    4.4374   -0.2178 N   0  0  0  0  0  0  0  0  0  0  0  0
    2.1530    5.7968    0.2971 C   0  0  0  0  0  0  0  0  0  0  0  0
    0.8022    6.4042    0.5940 C   0  0  0  0  0  0  0  0  0  0  0  0
    0.7078    7.3567    1.3578 O   0  0  0  0  0  0  0  0  0  0  0  0
    2.9024    6.6796   -0.7238 C   0  0  0  0  0  0  0  0  0  0  0  0
    2.9753    5.7751    1.5968 C   0  0  0  0  0  0  0  0  0  0  0  0
   -1.4346    5.9580   -1.9627 H   0  0  0  0  0  0  0  0  0  0  0  0
   -0.7506    7.5046   -1.4073 H   0  0  0  0  0  0  0  0  0  0  0  0
    0.3237    6.2273   -2.0258 H   0  0  0  0  0  0  0  0  0  0  0  0
    1.8053    1.7945   -0.2996 H   0  0  0  0  0  0  0  0  0  0  0  0
   -0.2660    0.5073   -0.2175 H   0  0  0  0  0  0  0  0  0  0  0  0
   -2.0046   -0.4762   -0.0201 H   0  0  0  0  0  0  0  0  0  0  0  0
   -4.1352   -1.5986    0.4543 H   0  0  0  0  0  0  0  0  0  0  0  0
   -6.1408   -0.2761    0.9857 H   0  0  0  0  0  0  0  0  0  0  0  0
   -5.9928    2.1725    1.1777 H   0  0  0  0  0  0  0  0  0  0  0  0
   -3.7669    2.1915   -1.4389 H   0  0  0  0  0  0  0  0  0  0  0  0
   -4.6802    2.1932   -3.7254 H   0  0  0  0  0  0  0  0  0  0  0  0
   -4.9036    4.3119   -4.9605 H   0  0  0  0  0  0  0  0  0  0  0  0
   -3.3088    6.4280   -1.6185 H   0  0  0  0  0  0  0  0  0  0  0  0
    2.8049    4.0242   -0.6387 H   0  0  0  0  0  0  0  0  0  0  0  0
    3.0369    7.6790   -0.3102 H   0  0  0  0  0  0  0  0  0  0  0  0
    3.8769    6.2406   -0.9375 H   0  0  0  0  0  0  0  0  0  0  0  0
    2.3224    6.7425   -1.6446 H   0  0  0  0  0  0  0  0  0  0  0  0
    2.4554    5.1777    2.3457 H   0  0  0  0  0  0  0  0  0  0  0  0
    3.9546    5.3390    1.3998 H   0  0  0  0  0  0  0  0  0  0  0  0
    3.0985    6.7933    1.9658 H   0  0  0  0  0  0  0  0  0  0  0  0
  1  2  1  0  0  0  0
  1 35  1  0  0  0  0
  1 36  1  0  0  0  0
  1 37  1  0  0  0  0
  2  3  1  0  0  0  0
  2 31  1  0  0  0  0
  2  4  1  0  0  0  0
  4  9  2  0  0  0  0
  4  5  1  0  0  0  0
  5  6  2  0  0  0  0
  5 29  1  0  0  0  0
  6  7  1  0  0  0  0
  6 38  1  0  0  0  0
  7  8  2  0  0  0  0
  7 39  1  0  0  0  0
  8 14  1  0  0  0  0
  8  9  1  0  0  0  0
  9 10  1  0  0  0  0
 10 11  1  0  0  0  0
 10 12  1  0  0  0  0
 10 19  1  0  0  0  0
 12 13  1  0  0  0  0
 13 18  2  0  0  0  0
 13 14  1  0  0  0  0
 14 15  2  0  0  0  0
 15 16  1  0  0  0  0
 15 40  1  0  0  0  0
 16 17  2  0  0  0  0
 16 41  1  0  0  0  0
 17 18  1  0  0  0  0
 17 42  1  0  0  0  0
 18 43  1  0  0  0  0
 19 24  2  0  0  0  0
 19 20  1  0  0  0  0
 20 21  2  0  0  0  0
 20 44  1  0  0  0  0
 21 22  1  0  0  0  0
 21 45  1  0  0  0  0
 22 23  2  0  0  0  0
 22 46  1  0  0  0  0
 23 24  1  0  0  0  0
 23 25  1  0  0  0  0
 24 47  1  0  0  0  0
 25 26  1  0  0  0  0
 25 27  1  0  0  0  0
 25 28  1  0  0  0  0
 29 30  1  0  0  0  0
 29 48  1  0  0  0  0
 30 31  1  0  0  0  0
 30 33  1  0  0  0  0
 30 34  1  0  0  0  0
 31 32  2  0  0  0  0
 33 49  1  0  0  0  0
 33 50  1  0  0  0  0
 33 51  1  0  0  0  0
 34 52  1  0  0  0  0
 34 53  1  0  0  0  0
 34 54  1  0  0  0  0
M  END
$$$$
ZINC03831977
  -OEChem-08230709403D

 50 53  0     1  0  0  0  0  0999 V2000
    6.6617   -2.1455   -4.0847 C   0  0  0  0  0  0  0  0  0  0  0  0
    5.4450   -1.3095   -3.6824 C   0  0  0  0  0  0  0  0  0  0  0  0
    5.2138   -1.4378   -2.1754 C   0  0  0  0  0  0  0  0  0  0  0  0
    4.0775   -0.6570   -1.7996 O   0  0  0  0  0  0  0  0  0  0  0  0
    3.7714   -0.7080   -0.3964 C   0  0  2  0  0  0  0  0  0  0  0  0
    3.8095   -1.7336   -0.0787 H   0  0  0  0  0  0  0  0  0  0  0  0
    2.4323   -0.0571   -0.1790 C   0  0  0  0  0  0  0  0  0  0  0  0
    2.4261    1.3497   -0.1616 C   0  0  0  0  0  0  0  0  0  0  0  0
    1.2370    2.0644   -0.0887 C   0  0  0  0  0  0  0  0  0  0  0  0
    0.0350    1.3880   -0.0455 C   0  0  0  0  0  0  0  0  0  0  0  0
    0.0328    0.0090   -0.0246 C   0  0  0  0  0  0  0  0  0  0  0  0
    1.2384   -0.7356   -0.0211 C   0  0  0  0  0  0  0  0  0  0  0  0
    1.0874   -2.1935    0.1446 C   0  0  0  0  0  0  0  0  0  0  0  0
   -0.0290   -2.7905   -0.2816 C   0  0  0  0  0  0  0  0  0  0  0  0
   -1.1663   -1.9630   -0.8199 C   0  0  0  0  0  0  0  0  0  0  0  0
   -1.1751   -0.6975   -0.0622 N   0  0  0  0  0  0  0  0  0  0  0  0
   -2.4887   -2.6972   -0.6050 C   0  0  0  0  0  0  0  0  0  0  0  0
   -0.9598   -1.6823   -2.3051 C   0  0  0  0  0  0  0  0  0  0  0  0
    2.0860   -3.0495    0.8772 C   0  0  0  0  0  0  0  0  0  0  0  0
    3.7236    2.0641   -0.2374 C   0  0  0  0  0  0  0  0  0  0  0  0
    3.7952    3.4166   -0.5437 C   0  0  0  0  0  0  0  0  0  0  0  0
    5.0301    4.0342   -0.6304 C   0  0  0  0  0  0  0  0  0  0  0  0
    6.1903    3.3107   -0.4110 C   0  0  0  0  0  0  0  0  0  0  0  0
    6.1273    1.9644   -0.0982 C   0  0  0  0  0  0  0  0  0  0  0  0
    4.8990    1.3392   -0.0067 C   0  0  0  0  0  0  0  0  0  0  0  0
    4.7910    0.0207    0.3049 O   0  0  0  0  0  0  0  0  0  0  0  0
    5.1255    5.7246   -1.0150 Cl  0  0  0  0  0  0  0  0  0  0  0  0
    6.8264   -2.0541   -5.1583 H   0  0  0  0  0  0  0  0  0  0  0  0
    7.5415   -1.7871   -3.5503 H   0  0  0  0  0  0  0  0  0  0  0  0
    6.4839   -3.1908   -3.8320 H   0  0  0  0  0  0  0  0  0  0  0  0
    4.5652   -1.6679   -4.2167 H   0  0  0  0  0  0  0  0  0  0  0  0
    5.6228   -0.2642   -3.9350 H   0  0  0  0  0  0  0  0  0  0  0  0
    6.0937   -1.0794   -1.6410 H   0  0  0  0  0  0  0  0  0  0  0  0
    5.0361   -2.4831   -1.9228 H   0  0  0  0  0  0  0  0  0  0  0  0
    1.2524    3.1437   -0.0634 H   0  0  0  0  0  0  0  0  0  0  0  0
   -0.8968    1.9347   -0.0237 H   0  0  0  0  0  0  0  0  0  0  0  0
   -0.1102   -3.8627   -0.2388 H   0  0  0  0  0  0  0  0  0  0  0  0
   -1.9689   -0.3769    0.3817 H   0  0  0  0  0  0  0  0  0  0  0  0
   -3.3116   -2.0725   -0.9523 H   0  0  0  0  0  0  0  0  0  0  0  0
   -2.4805   -3.6320   -1.1656 H   0  0  0  0  0  0  0  0  0  0  0  0
   -2.6173   -2.9109    0.4560 H   0  0  0  0  0  0  0  0  0  0  0  0
   -0.0076   -1.1720   -2.4495 H   0  0  0  0  0  0  0  0  0  0  0  0
   -0.9549   -2.6232   -2.8554 H   0  0  0  0  0  0  0  0  0  0  0  0
   -1.7695   -1.0513   -2.6716 H   0  0  0  0  0  0  0  0  0  0  0  0
    2.7523   -3.5264    0.1583 H   0  0  0  0  0  0  0  0  0  0  0  0
    2.6693   -2.4272    1.5559 H   0  0  0  0  0  0  0  0  0  0  0  0
    1.5594   -3.8146    1.4476 H   0  0  0  0  0  0  0  0  0  0  0  0
    2.8937    3.9844   -0.7184 H   0  0  0  0  0  0  0  0  0  0  0  0
    7.1499    3.8000   -0.4833 H   0  0  0  0  0  0  0  0  0  0  0  0
    7.0359    1.4065    0.0728 H   0  0  0  0  0  0  0  0  0  0  0  0
  1  2  1  0  0  0  0
  1 28  1  0  0  0  0
  1 29  1  0  0  0  0
  1 30  1  0  0  0  0
  2  3  1  0  0  0  0
  2 31  1  0  0  0  0
  2 32  1  0  0  0  0
  3  4  1  0  0  0  0
  3 33  1  0  0  0  0
  3 34  1  0  0  0  0
  4  5  1  0  0  0  0
  5  6  1  0  0  0  0
  5 26  1  0  0  0  0
  5  7  1  0  0  0  0
  7 12  2  0  0  0  0
  7  8  1  0  0  0  0
  8  9  2  0  0  0  0
  8 20  1  0  0  0  0
  9 10  1  0  0  0  0
  9 35  1  0  0  0  0
 10 11  2  0  0  0  0
 10 36  1  0  0  0  0
 11 16  1  0  0  0  0
 11 12  1  0  0  0  0
 12 13  1  0  0  0  0
 13 14  2  0  0  0  0
 13 19  1  0  0  0  0
 14 15  1  0  0  0  0
 14 37  1  0  0  0  0
 15 16  1  0  0  0  0
 15 17  1  0  0  0  0
 15 18  1  0  0  0  0
 16 38  1  0  0  0  0
 17 39  1  0  0  0  0
 17 40  1  0  0  0  0
 17 41  1  0  0  0  0
 18 42  1  0  0  0  0
 18 43  1  0  0  0  0
 18 44  1  0  0  0  0
 19 45  1  0  0  0  0
 19 46  1  0  0  0  0
 19 47  1  0  0  0  0
 20 25  2  0  0  0  0
 20 21  1  0  0  0  0
 21 22  2  0  0  0  0
 21 48  1  0  0  0  0
 22 23  1  0  0  0  0
 22 27  1  0  0  0  0
 23 24  2  0  0  0  0
 23 49  1  0  0  0  0
 24 25  1  0  0  0  0
 24 50  1  0  0  0  0
 25 26  1  0  0  0  0
M  END
$$$$
ZINC03831981
  -OEChem-08230709403D

 51 55  0     1  0  0  0  0  0999 V2000
   -1.0371    3.3665   -0.9249 C   0  0  0  0  0  0  0  0  0  0  0  0
   -1.1098    2.2752    0.1450 C   0  0  2  0  0  0  0  0  0  0  0  0
   -1.2576    2.6955    1.0403 H   0  0  0  0  0  0  0  0  0  0  0  0
    0.1841    1.4998    0.1610 C   0  0  0  0  0  0  0  0  0  0  0  0
    0.2069    0.1135    0.2197 C   0  0  0  0  0  0  0  0  0  0  0  0
    1.4253   -0.5643    0.2612 C   0  0  0  0  0  0  0  0  0  0  0  0
    2.6145    0.1333    0.2317 C   0  0  0  0  0  0  0  0  0  0  0  0
    2.5910    1.5189    0.1610 C   0  0  0  0  0  0  0  0  0  0  0  0
    1.3719    2.2014    0.1285 C   0  0  0  0  0  0  0  0  0  0  0  0
    1.3794    3.7068    0.0613 C   0  0  1  0  0  0  0  0  0  0  0  0
    0.4770    4.0948    0.5336 H   0  0  0  0  0  0  0  0  0  0  0  0
    2.5286    4.2188    0.7406 O   0  0  0  0  0  0  0  0  0  0  0  0
    3.7388    3.6905    0.4254 C   0  0  0  0  0  0  0  0  0  0  0  0
    3.8334    2.3260    0.1170 C   0  0  0  0  0  0  0  0  0  0  0  0
    5.0587    1.7680   -0.2165 C   0  0  0  0  0  0  0  0  0  0  0  0
    6.1876    2.5655   -0.2407 C   0  0  0  0  0  0  0  0  0  0  0  0
    6.0958    3.9117    0.0658 C   0  0  0  0  0  0  0  0  0  0  0  0
    4.8774    4.4756    0.3981 C   0  0  0  0  0  0  0  0  0  0  0  0
    1.4158    4.1415   -1.3812 C   0  0  0  0  0  0  0  0  0  0  0  0
    1.3001    5.4811   -1.7024 C   0  0  0  0  0  0  0  0  0  0  0  0
    1.3391    5.8808   -3.0249 C   0  0  0  0  0  0  0  0  0  0  0  0
    1.4826    4.9389   -4.0280 C   0  0  0  0  0  0  0  0  0  0  0  0
    1.5927    3.5978   -3.7063 C   0  0  0  0  0  0  0  0  0  0  0  0
    1.5592    3.1998   -2.3831 C   0  0  0  0  0  0  0  0  0  0  0  0
    1.5251    5.4396   -5.6897 Cl  0  0  0  0  0  0  0  0  0  0  0  0
   -0.9666   -0.6465    0.2230 N   0  0  0  0  0  0  0  0  0  0  0  0
   -2.2532   -0.0084    0.5303 C   0  0  0  0  0  0  0  0  0  0  0  0
   -2.2544    1.3391   -0.1672 C   0  0  0  0  0  0  0  0  0  0  0  0
   -3.1308    1.6496   -0.9378 O   0  0  0  0  0  0  0  0  0  0  0  0
   -3.4027   -0.8702    0.0041 C   0  0  0  0  0  0  0  0  0  0  0  0
   -2.3937    0.1832    2.0417 C   0  0  0  0  0  0  0  0  0  0  0  0
   -0.4736    2.9980   -1.7820 H   0  0  0  0  0  0  0  0  0  0  0  0
   -2.0457    3.6334   -1.2406 H   0  0  0  0  0  0  0  0  0  0  0  0
   -0.5404    4.2455   -0.5141 H   0  0  0  0  0  0  0  0  0  0  0  0
    1.4374   -1.6428    0.3172 H   0  0  0  0  0  0  0  0  0  0  0  0
    3.5563   -0.3944    0.2631 H   0  0  0  0  0  0  0  0  0  0  0  0
    5.1304    0.7172   -0.4554 H   0  0  0  0  0  0  0  0  0  0  0  0
    7.1442    2.1364   -0.4999 H   0  0  0  0  0  0  0  0  0  0  0  0
    6.9828    4.5274    0.0449 H   0  0  0  0  0  0  0  0  0  0  0  0
    4.8150    5.5273    0.6357 H   0  0  0  0  0  0  0  0  0  0  0  0
    1.1837    6.2158   -0.9194 H   0  0  0  0  0  0  0  0  0  0  0  0
    1.2531    6.9278   -3.2754 H   0  0  0  0  0  0  0  0  0  0  0  0
    1.7043    2.8620   -4.4890 H   0  0  0  0  0  0  0  0  0  0  0  0
    1.6455    2.1530   -2.1319 H   0  0  0  0  0  0  0  0  0  0  0  0
   -0.9309   -1.5950    0.0228 H   0  0  0  0  0  0  0  0  0  0  0  0
   -3.3669   -1.8517    0.4769 H   0  0  0  0  0  0  0  0  0  0  0  0
   -4.3530   -0.3895    0.2363 H   0  0  0  0  0  0  0  0  0  0  0  0
   -3.3071   -0.9834   -1.0758 H   0  0  0  0  0  0  0  0  0  0  0  0
   -1.5836    0.8159    2.4046 H   0  0  0  0  0  0  0  0  0  0  0  0
   -3.3506    0.6570    2.2605 H   0  0  0  0  0  0  0  0  0  0  0  0
   -2.3469   -0.7867    2.5368 H   0  0  0  0  0  0  0  0  0  0  0  0
  1  2  1  0  0  0  0
  1 32  1  0  0  0  0
  1 33  1  0  0  0  0
  1 34  1  0  0  0  0
  2  3  1  0  0  0  0
  2 28  1  0  0  0  0
  2  4  1  0  0  0  0
  4  9  2  0  0  0  0
  4  5  1  0  0  0  0
  5  6  2  0  0  0  0
  5 26  1  0  0  0  0
  6  7  1  0  0  0  0
  6 35  1  0  0  0  0
  7  8  2  0  0  0  0
  7 36  1  0  0  0  0
  8 14  1  0  0  0  0
  8  9  1  0  0  0  0
  9 10  1  0  0  0  0
 10 11  1  0  0  0  0
 10 12  1  0  0  0  0
 10 19  1  0  0  0  0
 12 13  1  0  0  0  0
 13 18  2  0  0  0  0
 13 14  1  0  0  0  0
 14 15  2  0  0  0  0
 15 16  1  0  0  0  0
 15 37  1  0  0  0  0
 16 17  2  0  0  0  0
 16 38  1  0  0  0  0
 17 18  1  0  0  0  0
 17 39  1  0  0  0  0
 18 40  1  0  0  0  0
 19 24  2  0  0  0  0
 19 20  1  0  0  0  0
 20 21  2  0  0  0  0
 20 41  1  0  0  0  0
 21 22  1  0  0  0  0
 21 42  1  0  0  0  0
 22 23  2  0  0  0  0
 22 25  1  0  0  0  0
 23 24  1  0  0  0  0
 23 43  1  0  0  0  0
 24 44  1  0  0  0  0
 26 27  1  0  0  0  0
 26 45  1  0  0  0  0
 27 28  1  0  0  0  0
 27 30  1  0  0  0  0
 27 31  1  0  0  0  0
 28 29  2  0  0  0  0
 30 46  1  0  0  0  0
 30 47  1  0  0  0  0
 30 48  1  0  0  0  0
 31 49  1  0  0  0  0
 31 50  1  0  0  0  0
 31 51  1  0  0  0  0
M  END
$$$$
ZINC03831982
  -OEChem-08230709403D

 43 46  0     1  0  0  0  0  0999 V2000
    4.0747    2.5310    1.5113 C   0  0  0  0  0  0  0  0  0  0  0  0
    3.7353    2.1280    0.0737 C   0  0  2  0  0  0  0  0  0  0  0  0
    3.7631    2.9954   -0.5780 H   0  0  0  0  0  0  0  0  0  0  0  0
    2.3896    1.4595    0.0444 C   0  0  0  0  0  0  0  0  0  0  0  0
    2.3840    0.0551    0.0990 C   0  0  0  0  0  0  0  0  0  0  0  0
    1.2006   -0.6706    0.0603 C   0  0  0  0  0  0  0  0  0  0  0  0
    0.0010   -0.0038   -0.0013 C   0  0  0  0  0  0  0  0  0  0  0  0
   -0.0173    1.3812    0.0081 C   0  0  0  0  0  0  0  0  0  0  0  0
    1.1759    2.1431    0.0004 C   0  0  0  0  0  0  0  0  0  0  0  0
    1.0039    3.6028   -0.0469 C   0  0  0  0  0  0  0  0  0  0  0  0
   -0.1882    4.1640    0.1652 C   0  0  0  0  0  0  0  0  0  0  0  0
   -1.4279    3.3795    0.4591 C   0  0  0  0  0  0  0  0  0  0  0  0
   -1.2668    1.9976    0.0195 N   0  0  0  0  0  0  0  0  0  0  0  0
   -1.7072    3.4081    1.9656 C   0  0  0  0  0  0  0  0  0  0  0  0
   -2.6160    4.0110   -0.2758 C   0  0  0  0  0  0  0  0  0  0  0  0
    2.0993    4.5988   -0.3251 C   0  0  0  0  0  0  0  0  0  0  0  0
    3.6669   -0.6744    0.2451 C   0  0  0  0  0  0  0  0  0  0  0  0
    3.7030   -2.0053    0.6429 C   0  0  0  0  0  0  0  0  0  0  0  0
    4.9208   -2.6485    0.7726 C   0  0  0  0  0  0  0  0  0  0  0  0
    6.0995   -1.9694    0.5136 C   0  0  0  0  0  0  0  0  0  0  0  0
    6.0707   -0.6444    0.1181 C   0  0  0  0  0  0  0  0  0  0  0  0
    4.8579    0.0053   -0.0213 C   0  0  0  0  0  0  0  0  0  0  0  0
    4.7836    1.2927   -0.4206 O   0  0  0  0  0  0  0  0  0  0  0  0
    4.9713   -4.3139    1.2608 Cl  0  0  0  0  0  0  0  0  0  0  0  0
    4.0970    1.6423    2.1421 H   0  0  0  0  0  0  0  0  0  0  0  0
    5.0507    3.0158    1.5319 H   0  0  0  0  0  0  0  0  0  0  0  0
    3.3180    3.2217    1.8833 H   0  0  0  0  0  0  0  0  0  0  0  0
    1.2255   -1.7505    0.0683 H   0  0  0  0  0  0  0  0  0  0  0  0
   -0.9306   -0.5517   -0.0356 H   0  0  0  0  0  0  0  0  0  0  0  0
   -0.2466    5.2466    0.1182 H   0  0  0  0  0  0  0  0  0  0  0  0
   -2.0505    1.4885   -0.2747 H   0  0  0  0  0  0  0  0  0  0  0  0
   -1.8451    4.4395    2.2901 H   0  0  0  0  0  0  0  0  0  0  0  0
   -2.6105    2.8363    2.1785 H   0  0  0  0  0  0  0  0  0  0  0  0
   -0.8647    2.9687    2.4997 H   0  0  0  0  0  0  0  0  0  0  0  0
   -2.4256    4.0024   -1.3491 H   0  0  0  0  0  0  0  0  0  0  0  0
   -3.5200    3.4405   -0.0626 H   0  0  0  0  0  0  0  0  0  0  0  0
   -2.7472    5.0391    0.0617 H   0  0  0  0  0  0  0  0  0  0  0  0
    2.5850    4.3507   -1.2688 H   0  0  0  0  0  0  0  0  0  0  0  0
    1.6727    5.5999   -0.3882 H   0  0  0  0  0  0  0  0  0  0  0  0
    2.8328    4.5666    0.4806 H   0  0  0  0  0  0  0  0  0  0  0  0
    2.7874   -2.5380    0.8509 H   0  0  0  0  0  0  0  0  0  0  0  0
    7.0464   -2.4771    0.6198 H   0  0  0  0  0  0  0  0  0  0  0  0
    6.9932   -0.1197   -0.0813 H   0  0  0  0  0  0  0  0  0  0  0  0
  1  2  1  0  0  0  0
  1 25  1  0  0  0  0
  1 26  1  0  0  0  0
  1 27  1  0  0  0  0
  2  3  1  0  0  0  0
  2 23  1  0  0  0  0
  2  4  1  0  0  0  0
  4  9  2  0  0  0  0
  4  5  1  0  0  0  0
  5  6  2  0  0  0  0
  5 17  1  0  0  0  0
  6  7  1  0  0  0  0
  6 28  1  0  0  0  0
  7  8  2  0  0  0  0
  7 29  1  0  0  0  0
  8 13  1  0  0  0  0
  8  9  1  0  0  0  0
  9 10  1  0  0  0  0
 10 11  2  0  0  0  0
 10 16  1  0  0  0  0
 11 12  1  0  0  0  0
 11 30  1  0  0  0  0
 12 13  1  0  0  0  0
 12 14  1  0  0  0  0
 12 15  1  0  0  0  0
 13 31  1  0  0  0  0
 14 32  1  0  0  0  0
 14 33  1  0  0  0  0
 14 34  1  0  0  0  0
 15 35  1  0  0  0  0
 15 36  1  0  0  0  0
 15 37  1  0  0  0  0
 16 38  1  0  0  0  0
 16 39  1  0  0  0  0
 16 40  1  0  0  0  0
 17 22  2  0  0  0  0
 17 18  1  0  0  0  0
 18 19  2  0  0  0  0
 18 41  1  0  0  0  0
 19 20  1  0  0  0  0
 19 24  1  0  0  0  0
 20 21  2  0  0  0  0
 20 42  1  0  0  0  0
 21 22  1  0  0  0  0
 21 43  1  0  0  0  0
 22 23  1  0  0  0  0
M  END
$$$$
ZINC03831983
  -OEChem-08230709403D

 52 55  0     1  0  0  0  0  0999 V2000
   -0.3815    9.4483    0.7591 C   0  0  0  0  0  0  0  0  0  0  0  0
   -0.2836    7.9356    0.9667 C   0  0  0  0  0  0  0  0  0  0  0  0
    0.9294    7.3942    0.2075 C   0  0  0  0  0  0  0  0  0  0  0  0
    1.0273    5.8815    0.4150 C   0  0  0  0  0  0  0  0  0  0  0  0
    2.2495    5.3358   -0.3500 C   0  0  2  0  0  0  0  0  0  0  0  0
    2.2065    5.6488   -1.3856 H   0  0  0  0  0  0  0  0  0  0  0  0
    2.2669    3.8364   -0.2413 C   0  0  0  0  0  0  0  0  0  0  0  0
    3.4828    3.1993    0.0470 C   0  0  0  0  0  0  0  0  0  0  0  0
    3.5270    1.8412    0.3484 C   0  0  0  0  0  0  0  0  0  0  0  0
    2.3662    1.0965    0.3523 C   0  0  0  0  0  0  0  0  0  0  0  0
    1.1719    1.6996   -0.0023 C   0  0  0  0  0  0  0  0  0  0  0  0
    1.1449    3.0430   -0.4257 C   0  0  0  0  0  0  0  0  0  0  0  0
   -0.0705    3.4662   -1.1460 C   0  0  0  0  0  0  0  0  0  0  0  0
   -1.2310    2.8691   -0.8648 C   0  0  0  0  0  0  0  0  0  0  0  0
   -1.2859    1.6969    0.0749 C   0  0  0  0  0  0  0  0  0  0  0  0
   -0.0137    0.9643    0.0072 N   0  0  0  0  0  0  0  0  0  0  0  0
   -2.4289    0.7662   -0.3351 C   0  0  0  0  0  0  0  0  0  0  0  0
   -1.5181    2.1894    1.5036 C   0  0  0  0  0  0  0  0  0  0  0  0
   -0.0728    4.5214   -2.2167 C   0  0  0  0  0  0  0  0  0  0  0  0
    4.7286    4.0007    0.0741 C   0  0  0  0  0  0  0  0  0  0  0  0
    5.9816    3.4092   -0.0087 C   0  0  0  0  0  0  0  0  0  0  0  0
    7.1104    4.2064   -0.0736 C   0  0  0  0  0  0  0  0  0  0  0  0
    6.9918    5.5859   -0.0488 C   0  0  0  0  0  0  0  0  0  0  0  0
    5.7480    6.1809    0.0587 C   0  0  0  0  0  0  0  0  0  0  0  0
    4.6130    5.3934    0.1384 C   0  0  0  0  0  0  0  0  0  0  0  0
    3.3851    5.9342    0.2822 O   0  0  0  0  0  0  0  0  0  0  0  0
    8.6810    3.4747   -0.1818 Cl  0  0  0  0  0  0  0  0  0  0  0  0
    0.5241    9.9258    1.1333 H   0  0  0  0  0  0  0  0  0  0  0  0
   -0.4927    9.6628   -0.3037 H   0  0  0  0  0  0  0  0  0  0  0  0
   -1.2456    9.8341    1.3000 H   0  0  0  0  0  0  0  0  0  0  0  0
   -1.1892    7.4582    0.5925 H   0  0  0  0  0  0  0  0  0  0  0  0
   -0.1723    7.7212    2.0296 H   0  0  0  0  0  0  0  0  0  0  0  0
    1.8350    7.8716    0.5816 H   0  0  0  0  0  0  0  0  0  0  0  0
    0.8181    7.6086   -0.8554 H   0  0  0  0  0  0  0  0  0  0  0  0
    0.1217    5.4040    0.0409 H   0  0  0  0  0  0  0  0  0  0  0  0
    1.1385    5.6670    1.4779 H   0  0  0  0  0  0  0  0  0  0  0  0
    4.4724    1.3710    0.5768 H   0  0  0  0  0  0  0  0  0  0  0  0
    2.3850    0.0533    0.6288 H   0  0  0  0  0  0  0  0  0  0  0  0
   -2.1297    3.2090   -1.3536 H   0  0  0  0  0  0  0  0  0  0  0  0
   -0.0024   -0.0042    0.0019 H   0  0  0  0  0  0  0  0  0  0  0  0
   -2.4633   -0.0872    0.3421 H   0  0  0  0  0  0  0  0  0  0  0  0
   -3.3737    1.3075   -0.2857 H   0  0  0  0  0  0  0  0  0  0  0  0
   -2.2641    0.4152   -1.3538 H   0  0  0  0  0  0  0  0  0  0  0  0
   -0.7030    2.8510    1.7968 H   0  0  0  0  0  0  0  0  0  0  0  0
   -2.4620    2.7325    1.5518 H   0  0  0  0  0  0  0  0  0  0  0  0
   -1.5549    1.3360    2.1807 H   0  0  0  0  0  0  0  0  0  0  0  0
    0.9179    4.5844   -2.6669 H   0  0  0  0  0  0  0  0  0  0  0  0
   -0.8037    4.2608   -2.9821 H   0  0  0  0  0  0  0  0  0  0  0  0
   -0.3341    5.4842   -1.7775 H   0  0  0  0  0  0  0  0  0  0  0  0
    6.0766    2.3341   -0.0358 H   0  0  0  0  0  0  0  0  0  0  0  0
    7.8767    6.2014   -0.1127 H   0  0  0  0  0  0  0  0  0  0  0  0
    5.6623    7.2572    0.0789 H   0  0  0  0  0  0  0  0  0  0  0  0
  1  2  1  0  0  0  0
  1 28  1  0  0  0  0
  1 29  1  0  0  0  0
  1 30  1  0  0  0  0
  2  3  1  0  0  0  0
  2 31  1  0  0  0  0
  2 32  1  0  0  0  0
  3  4  1  0  0  0  0
  3 33  1  0  0  0  0
  3 34  1  0  0  0  0
  4  5  1  0  0  0  0
  4 35  1  0  0  0  0
  4 36  1  0  0  0  0
  5  6  1  0  0  0  0
  5 26  1  0  0  0  0
  5  7  1  0  0  0  0
  7 12  2  0  0  0  0
  7  8  1  0  0  0  0
  8  9  2  0  0  0  0
  8 20  1  0  0  0  0
  9 10  1  0  0  0  0
  9 37  1  0  0  0  0
 10 11  2  0  0  0  0
 10 38  1  0  0  0  0
 11 16  1  0  0  0  0
 11 12  1  0  0  0  0
 12 13  1  0  0  0  0
 13 14  2  0  0  0  0
 13 19  1  0  0  0  0
 14 15  1  0  0  0  0
 14 39  1  0  0  0  0
 15 16  1  0  0  0  0
 15 17  1  0  0  0  0
 15 18  1  0  0  0  0
 16 40  1  0  0  0  0
 17 41  1  0  0  0  0
 17 42  1  0  0  0  0
 17 43  1  0  0  0  0
 18 44  1  0  0  0  0
 18 45  1  0  0  0  0
 18 46  1  0  0  0  0
 19 47  1  0  0  0  0
 19 48  1  0  0  0  0
 19 49  1  0  0  0  0
 20 25  2  0  0  0  0
 20 21  1  0  0  0  0
 21 22  2  0  0  0  0
 21 50  1  0  0  0  0
 22 23  1  0  0  0  0
 22 27  1  0  0  0  0
 23 24  2  0  0  0  0
 23 51  1  0  0  0  0
 24 25  1  0  0  0  0
 24 52  1  0  0  0  0
 25 26  1  0  0  0  0
M  END
$$$$
ZINC03831984
  -OEChem-08230709403D

 54 58  0     0  0  0  0  0  0999 V2000
   -3.2572    4.3303    5.6432 C   0  0  0  0  0  0  0  0  0  0  0  0
   -3.3781    5.6751    4.9739 C   0  0  0  0  0  0  0  0  0  0  0  0
   -3.7189    6.7876    5.7141 C   0  0  0  0  0  0  0  0  0  0  0  0
   -3.8356    8.0225    5.1004 C   0  0  0  0  0  0  0  0  0  0  0  0
   -3.6064    8.1527    3.7414 C   0  0  0  0  0  0  0  0  0  0  0  0
   -3.2593    7.0513    2.9885 C   0  0  0  0  0  0  0  0  0  0  0  0
   -3.1393    5.7994    3.6014 C   0  0  0  0  0  0  0  0  0  0  0  0
   -2.7698    4.6189    2.8054 C   0  0  0  0  0  0  0  0  0  0  0  0
   -2.8845    4.6485    1.4629 C   0  0  0  0  0  0  0  0  0  0  0  0
   -2.4010    3.5732    0.5811 C   0  0  0  0  0  0  0  0  0  0  0  0
   -3.4123    3.0863   -0.2970 C   0  0  0  0  0  0  0  0  0  0  0  0
   -3.2839    1.8214   -0.8406 C   0  0  0  0  0  0  0  0  0  0  0  0
   -2.1105    1.1178   -0.6433 C   0  0  0  0  0  0  0  0  0  0  0  0
   -1.0413    1.6872    0.0372 C   0  0  0  0  0  0  0  0  0  0  0  0
   -1.1360    3.0042    0.5392 C   0  0  0  0  0  0  0  0  0  0  0  0
    0.0955    3.6392    1.0215 C   0  0  0  0  0  0  0  0  0  0  0  0
    1.2648    3.0115    0.9305 C   0  0  0  0  0  0  0  0  0  0  0  0
    1.4273    1.6491    0.3284 C   0  0  0  0  0  0  0  0  0  0  0  0
    0.1414    0.9705    0.1721 N   0  0  0  0  0  0  0  0  0  0  0  0
    2.3373    0.8036    1.2285 C   0  0  0  0  0  0  0  0  0  0  0  0
    2.0915    1.7844   -1.0481 C   0  0  0  0  0  0  0  0  0  0  0  0
    0.1024    5.0247    1.6194 C   0  0  0  0  0  0  0  0  0  0  0  0
   -4.5587    3.9814   -0.5525 C   0  0  0  0  0  0  0  0  0  0  0  0
   -5.6214    3.5751   -1.3545 C   0  0  0  0  0  0  0  0  0  0  0  0
   -6.6723    4.4383   -1.5919 C   0  0  0  0  0  0  0  0  0  0  0  0
   -6.6724    5.7079   -1.0400 C   0  0  0  0  0  0  0  0  0  0  0  0
   -5.6255    6.1220   -0.2393 C   0  0  0  0  0  0  0  0  0  0  0  0
   -4.5679    5.2652    0.0160 C   0  0  0  0  0  0  0  0  0  0  0  0
   -3.5408    5.6714    0.8181 O   0  0  0  0  0  0  0  0  0  0  0  0
   -2.2349    4.1897    5.9940 H   0  0  0  0  0  0  0  0  0  0  0  0
   -3.9417    4.2831    6.4901 H   0  0  0  0  0  0  0  0  0  0  0  0
   -3.5077    3.5455    4.9294 H   0  0  0  0  0  0  0  0  0  0  0  0
   -3.8994    6.6942    6.7748 H   0  0  0  0  0  0  0  0  0  0  0  0
   -4.1072    8.8892    5.6847 H   0  0  0  0  0  0  0  0  0  0  0  0
   -3.6995    9.1198    3.2698 H   0  0  0  0  0  0  0  0  0  0  0  0
   -3.0808    7.1545    1.9284 H   0  0  0  0  0  0  0  0  0  0  0  0
   -2.4066    3.7284    3.2968 H   0  0  0  0  0  0  0  0  0  0  0  0
   -4.0711    1.4010   -1.4470 H   0  0  0  0  0  0  0  0  0  0  0  0
   -2.0185    0.1099   -1.0224 H   0  0  0  0  0  0  0  0  0  0  0  0
    2.1446    3.5199    1.3170 H   0  0  0  0  0  0  0  0  0  0  0  0
    0.1199   -0.0070    0.1287 H   0  0  0  0  0  0  0  0  0  0  0  0
    2.4926   -0.1741    0.7723 H   0  0  0  0  0  0  0  0  0  0  0  0
    3.2975    1.3053    1.3481 H   0  0  0  0  0  0  0  0  0  0  0  0
    1.8684    0.6789    2.2045 H   0  0  0  0  0  0  0  0  0  0  0  0
    1.4468    2.3660   -1.7071 H   0  0  0  0  0  0  0  0  0  0  0  0
    3.0514    2.2896   -0.9403 H   0  0  0  0  0  0  0  0  0  0  0  0
    2.2483    0.7937   -1.4749 H   0  0  0  0  0  0  0  0  0  0  0  0
    1.1216    5.2973    1.8932 H   0  0  0  0  0  0  0  0  0  0  0  0
   -0.2805    5.7375    0.8890 H   0  0  0  0  0  0  0  0  0  0  0  0
   -0.5290    5.0402    2.5078 H   0  0  0  0  0  0  0  0  0  0  0  0
   -5.6259    2.5867   -1.7900 H   0  0  0  0  0  0  0  0  0  0  0  0
   -7.4982    4.1217   -2.2122 H   0  0  0  0  0  0  0  0  0  0  0  0
   -7.4974    6.3772   -1.2342 H   0  0  0  0  0  0  0  0  0  0  0  0
   -5.6344    7.1129    0.1909 H   0  0  0  0  0  0  0  0  0  0  0  0
  1  2  1  0  0  0  0
  1 30  1  0  0  0  0
  1 31  1  0  0  0  0
  1 32  1  0  0  0  0
  2  7  2  0  0  0  0
  2  3  1  0  0  0  0
  3  4  2  0  0  0  0
  3 33  1  0  0  0  0
  4  5  1  0  0  0  0
  4 34  1  0  0  0  0
  5  6  2  0  0  0  0
  5 35  1  0  0  0  0
  6  7  1  0  0  0  0
  6 36  1  0  0  0  0
  7  8  1  0  0  0  0
  8  9  2  0  0  0  0
  8 37  1  0  0  0  0
  9 29  1  0  0  0  0
  9 10  1  0  0  0  0
 10 15  2  0  0  0  0
 10 11  1  0  0  0  0
 11 12  2  0  0  0  0
 11 23  1  0  0  0  0
 12 13  1  0  0  0  0
 12 38  1  0  0  0  0
 13 14  2  0  0  0  0
 13 39  1  0  0  0  0
 14 19  1  0  0  0  0
 14 15  1  0  0  0  0
 15 16  1  0  0  0  0
 16 17  2  0  0  0  0
 16 22  1  0  0  0  0
 17 18  1  0  0  0  0
 17 40  1  0  0  0  0
 18 19  1  0  0  0  0
 18 20  1  0  0  0  0
 18 21  1  0  0  0  0
 19 41  1  0  0  0  0
 20 42  1  0  0  0  0
 20 43  1  0  0  0  0
 20 44  1  0  0  0  0
 21 45  1  0  0  0  0
 21 46  1  0  0  0  0
 21 47  1  0  0  0  0
 22 48  1  0  0  0  0
 22 49  1  0  0  0  0
 22 50  1  0  0  0  0
 23 28  2  0  0  0  0
 23 24  1  0  0  0  0
 24 25  2  0  0  0  0
 24 51  1  0  0  0  0
 25 26  1  0  0  0  0
 25 52  1  0  0  0  0
 26 27  2  0  0  0  0
 26 53  1  0  0  0  0
 27 28  1  0  0  0  0
 27 54  1  0  0  0  0
 28 29  1  0  0  0  0
M  END
$$$$
ZINC03831985
  -OEChem-08230709403D

 52 56  0     1  0  0  0  0  0999 V2000
   -2.3601    7.3703    0.0080 C   0  0  0  0  0  0  0  0  0  0  0  0
   -2.6013    6.4840   -1.2156 C   0  0  1  0  0  0  0  0  0  0  0  0
   -2.5367    7.0374   -2.0460 H   0  0  0  0  0  0  0  0  0  0  0  0
   -1.5622    5.3919   -1.2578 C   0  0  0  0  0  0  0  0  0  0  0  0
   -1.8620    4.0818   -0.9224 C   0  0  0  0  0  0  0  0  0  0  0  0
   -0.8634    3.1049   -0.9486 C   0  0  0  0  0  0  0  0  0  0  0  0
    0.4291    3.4189   -1.3145 C   0  0  0  0  0  0  0  0  0  0  0  0
    0.7403    4.7231   -1.6645 C   0  0  0  0  0  0  0  0  0  0  0  0
   -0.2628    5.7161   -1.6329 C   0  0  0  0  0  0  0  0  0  0  0  0
    0.1305    7.0900   -2.0071 C   0  0  0  0  0  0  0  0  0  0  0  0
   -0.7729    7.9732   -2.4872 C   0  0  0  0  0  0  0  0  0  0  0  0
   -0.5566    9.4176   -2.3083 C   0  0  0  0  0  0  0  0  0  0  0  0
    0.5146    9.8776   -1.5357 C   0  0  0  0  0  0  0  0  0  0  0  0
    0.7129   11.2327   -1.3761 C   0  0  0  0  0  0  0  0  0  0  0  0
   -0.1502   12.1368   -1.9704 C   0  0  0  0  0  0  0  0  0  0  0  0
   -1.2154   11.6895   -2.7325 C   0  0  0  0  0  0  0  0  0  0  0  0
   -1.4246   10.3376   -2.9053 C   0  0  0  0  0  0  0  0  0  0  0  0
    1.4422    7.4325   -1.8483 O   0  0  0  0  0  0  0  0  0  0  0  0
    2.3864    6.5089   -2.1646 C   0  0  0  0  0  0  0  0  0  0  0  0
    2.0978    5.1390   -2.0764 C   0  0  0  0  0  0  0  0  0  0  0  0
    3.0761    4.1993   -2.3836 C   0  0  0  0  0  0  0  0  0  0  0  0
    4.3293    4.6200   -2.7818 C   0  0  0  0  0  0  0  0  0  0  0  0
    4.6128    5.9720   -2.8750 C   0  0  0  0  0  0  0  0  0  0  0  0
    3.6493    6.9135   -2.5688 C   0  0  0  0  0  0  0  0  0  0  0  0
   -3.1536    3.6887   -0.5589 N   0  0  0  0  0  0  0  0  0  0  0  0
   -4.1491    4.6980   -0.1756 C   0  0  0  0  0  0  0  0  0  0  0  0
   -3.9783    5.8675   -1.1273 C   0  0  0  0  0  0  0  0  0  0  0  0
   -4.9009    6.2868   -1.7840 O   0  0  0  0  0  0  0  0  0  0  0  0
   -5.5588    4.1183   -0.3074 C   0  0  0  0  0  0  0  0  0  0  0  0
   -3.9027    5.1550    1.2637 C   0  0  0  0  0  0  0  0  0  0  0  0
   -2.2964    6.7479    0.9006 H   0  0  0  0  0  0  0  0  0  0  0  0
   -1.4271    7.9194   -0.1193 H   0  0  0  0  0  0  0  0  0  0  0  0
   -3.1848    8.0750    0.1145 H   0  0  0  0  0  0  0  0  0  0  0  0
   -1.1071    2.0882   -0.6779 H   0  0  0  0  0  0  0  0  0  0  0  0
    1.1921    2.6547   -1.3278 H   0  0  0  0  0  0  0  0  0  0  0  0
   -1.6536    7.6187   -3.0022 H   0  0  0  0  0  0  0  0  0  0  0  0
    1.1866    9.1732   -1.0680 H   0  0  0  0  0  0  0  0  0  0  0  0
    1.5416   11.5896   -0.7826 H   0  0  0  0  0  0  0  0  0  0  0  0
    0.0081   13.1970   -1.8385 H   0  0  0  0  0  0  0  0  0  0  0  0
   -1.8848   12.4011   -3.1928 H   0  0  0  0  0  0  0  0  0  0  0  0
   -2.2566    9.9900   -3.4996 H   0  0  0  0  0  0  0  0  0  0  0  0
    2.8562    3.1444   -2.3112 H   0  0  0  0  0  0  0  0  0  0  0  0
    5.0908    3.8925   -3.0209 H   0  0  0  0  0  0  0  0  0  0  0  0
    5.5947    6.2931   -3.1899 H   0  0  0  0  0  0  0  0  0  0  0  0
    3.8801    7.9658   -2.6445 H   0  0  0  0  0  0  0  0  0  0  0  0
   -3.3924    2.7485   -0.5602 H   0  0  0  0  0  0  0  0  0  0  0  0
   -5.6576    3.2510    0.3454 H   0  0  0  0  0  0  0  0  0  0  0  0
   -6.2906    4.8737   -0.0211 H   0  0  0  0  0  0  0  0  0  0  0  0
   -5.7327    3.8171   -1.3405 H   0  0  0  0  0  0  0  0  0  0  0  0
   -2.8364    5.3241    1.4137 H   0  0  0  0  0  0  0  0  0  0  0  0
   -4.4471    6.0809    1.4491 H   0  0  0  0  0  0  0  0  0  0  0  0
   -4.2491    4.3855    1.9536 H   0  0  0  0  0  0  0  0  0  0  0  0
  1  2  1  0  0  0  0
  1 31  1  0  0  0  0
  1 32  1  0  0  0  0
  1 33  1  0  0  0  0
  2  3  1  0  0  0  0
  2 27  1  0  0  0  0
  2  4  1  0  0  0  0
  4  9  2  0  0  0  0
  4  5  1  0  0  0  0
  5  6  2  0  0  0  0
  5 25  1  0  0  0  0
  6  7  1  0  0  0  0
  6 34  1  0  0  0  0
  7  8  2  0  0  0  0
  7 35  1  0  0  0  0
  8 20  1  0  0  0  0
  8  9  1  0  0  0  0
  9 10  1  0  0  0  0
 10 11  2  3  0  0  0
 10 18  1  0  0  0  0
 11 12  1  0  0  0  0
 11 36  1  0  0  0  0
 12 17  2  0  0  0  0
 12 13  1  0  0  0  0
 13 14  2  0  0  0  0
 13 37  1  0  0  0  0
 14 15  1  0  0  0  0
 14 38  1  0  0  0  0
 15 16  2  0  0  0  0
 15 39  1  0  0  0  0
 16 17  1  0  0  0  0
 16 40  1  0  0  0  0
 17 41  1  0  0  0  0
 18 19  1  0  0  0  0
 19 24  2  0  0  0  0
 19 20  1  0  0  0  0
 20 21  2  0  0  0  0
 21 22  1  0  0  0  0
 21 42  1  0  0  0  0
 22 23  2  0  0  0  0
 22 43  1  0  0  0  0
 23 24  1  0  0  0  0
 23 44  1  0  0  0  0
 24 45  1  0  0  0  0
 25 26  1  0  0  0  0
 25 46  1  0  0  0  0
 26 27  1  0  0  0  0
 26 29  1  0  0  0  0
 26 30  1  0  0  0  0
 27 28  2  0  0  0  0
 29 47  1  0  0  0  0
 29 48  1  0  0  0  0
 29 49  1  0  0  0  0
 30 50  1  0  0  0  0
 30 51  1  0  0  0  0
 30 52  1  0  0  0  0
M  END
$$$$
ZINC03831986
  -OEChem-08230709403D

 43 46  0     1  0  0  0  0  0999 V2000
    1.1717    4.1900   -1.3841 C   0  0  0  0  0  0  0  0  0  0  0  0
    1.1275    3.6065    0.0296 C   0  0  1  0  0  0  0  0  0  0  0  0
    0.4046    4.1613    0.6277 H   0  0  0  0  0  0  0  0  0  0  0  0
    0.7122    2.1604   -0.0384 C   0  0  0  0  0  0  0  0  0  0  0  0
    1.6948    1.1792   -0.1992 C   0  0  0  0  0  0  0  0  0  0  0  0
    1.3482   -0.1649   -0.2618 C   0  0  0  0  0  0  0  0  0  0  0  0
    0.0214   -0.5432   -0.1594 C   0  0  0  0  0  0  0  0  0  0  0  0
   -0.9587    0.4189    0.0040 C   0  0  0  0  0  0  0  0  0  0  0  0
   -0.6166    1.7827    0.0564 C   0  0  0  0  0  0  0  0  0  0  0  0
   -1.6995    2.7778    0.1968 C   0  0  0  0  0  0  0  0  0  0  0  0
   -2.8937    2.3867    0.6260 C   0  0  0  0  0  0  0  0  0  0  0  0
   -3.1551    0.9435    0.9709 C   0  0  0  0  0  0  0  0  0  0  0  0
   -2.3065    0.0768    0.1396 N   0  0  0  0  0  0  0  0  0  0  0  0
   -4.6269    0.6160    0.7113 C   0  0  0  0  0  0  0  0  0  0  0  0
   -2.8336    0.7062    2.4478 C   0  0  0  0  0  0  0  0  0  0  0  0
   -1.4507    4.2246   -0.1437 C   0  0  0  0  0  0  0  0  0  0  0  0
    3.1035    1.6302   -0.3019 C   0  0  0  0  0  0  0  0  0  0  0  0
    4.0983    0.8104   -0.8148 C   0  0  0  0  0  0  0  0  0  0  0  0
    5.3992    1.2780   -0.8861 C   0  0  0  0  0  0  0  0  0  0  0  0
    5.7045    2.5564   -0.4473 C   0  0  0  0  0  0  0  0  0  0  0  0
    4.7164    3.3784    0.0631 C   0  0  0  0  0  0  0  0  0  0  0  0
    3.4121    2.9245    0.1388 C   0  0  0  0  0  0  0  0  0  0  0  0
    2.4215    3.7144    0.6283 O   0  0  0  0  0  0  0  0  0  0  0  0
    6.3735    0.4861   -1.3851 F   0  0  0  0  0  0  0  0  0  0  0  0
    2.1054    3.9018   -1.8671 H   0  0  0  0  0  0  0  0  0  0  0  0
    0.3305    3.8068   -1.9617 H   0  0  0  0  0  0  0  0  0  0  0  0
    1.1106    5.2769   -1.3306 H   0  0  0  0  0  0  0  0  0  0  0  0
    2.1148   -0.9146   -0.3908 H   0  0  0  0  0  0  0  0  0  0  0  0
   -0.2485   -1.5879   -0.2065 H   0  0  0  0  0  0  0  0  0  0  0  0
   -3.6873    3.1120    0.7291 H   0  0  0  0  0  0  0  0  0  0  0  0
   -2.6708   -0.7070   -0.3006 H   0  0  0  0  0  0  0  0  0  0  0  0
   -4.8167   -0.4275    0.9625 H   0  0  0  0  0  0  0  0  0  0  0  0
   -5.2562    1.2583    1.3274 H   0  0  0  0  0  0  0  0  0  0  0  0
   -4.8563    0.7840   -0.3410 H   0  0  0  0  0  0  0  0  0  0  0  0
   -1.7849    0.9385    2.6332 H   0  0  0  0  0  0  0  0  0  0  0  0
   -3.4625    1.3485    3.0643 H   0  0  0  0  0  0  0  0  0  0  0  0
   -3.0243   -0.3373    2.6981 H   0  0  0  0  0  0  0  0  0  0  0  0
   -0.7543    4.2865   -0.9799 H   0  0  0  0  0  0  0  0  0  0  0  0
   -2.3922    4.7001   -0.4190 H   0  0  0  0  0  0  0  0  0  0  0  0
   -1.0259    4.7336    0.7214 H   0  0  0  0  0  0  0  0  0  0  0  0
    3.8593   -0.1858   -1.1564 H   0  0  0  0  0  0  0  0  0  0  0  0
    6.7220    2.9138   -0.5048 H   0  0  0  0  0  0  0  0  0  0  0  0
    4.9630    4.3737    0.4023 H   0  0  0  0  0  0  0  0  0  0  0  0
  1  2  1  0  0  0  0
  1 25  1  0  0  0  0
  1 26  1  0  0  0  0
  1 27  1  0  0  0  0
  2  3  1  0  0  0  0
  2 23  1  0  0  0  0
  2  4  1  0  0  0  0
  4  9  2  0  0  0  0
  4  5  1  0  0  0  0
  5  6  2  0  0  0  0
  5 17  1  0  0  0  0
  6  7  1  0  0  0  0
  6 28  1  0  0  0  0
  7  8  2  0  0  0  0
  7 29  1  0  0  0  0
  8 13  1  0  0  0  0
  8  9  1  0  0  0  0
  9 10  1  0  0  0  0
 10 11  2  0  0  0  0
 10 16  1  0  0  0  0
 11 12  1  0  0  0  0
 11 30  1  0  0  0  0
 12 13  1  0  0  0  0
 12 14  1  0  0  0  0
 12 15  1  0  0  0  0
 13 31  1  0  0  0  0
 14 32  1  0  0  0  0
 14 33  1  0  0  0  0
 14 34  1  0  0  0  0
 15 35  1  0  0  0  0
 15 36  1  0  0  0  0
 15 37  1  0  0  0  0
 16 38  1  0  0  0  0
 16 39  1  0  0  0  0
 16 40  1  0  0  0  0
 17 22  2  0  0  0  0
 17 18  1  0  0  0  0
 18 19  2  0  0  0  0
 18 41  1  0  0  0  0
 19 20  1  0  0  0  0
 19 24  1  0  0  0  0
 20 21  2  0  0  0  0
 20 42  1  0  0  0  0
 21 22  1  0  0  0  0
 21 43  1  0  0  0  0
 22 23  1  0  0  0  0
M  END
$$$$
ZINC03831987
  -OEChem-08230709403D

 52 55  0     1  0  0  0  0  0999 V2000
   -0.6516    9.4066    0.9886 C   0  0  0  0  0  0  0  0  0  0  0  0
   -0.4311    7.9095    1.2139 C   0  0  0  0  0  0  0  0  0  0  0  0
    0.7196    7.4247    0.3297 C   0  0  0  0  0  0  0  0  0  0  0  0
    0.9401    5.9275    0.5550 C   0  0  0  0  0  0  0  0  0  0  0  0
    2.0989    5.4394   -0.3354 C   0  0  2  0  0  0  0  0  0  0  0  0
    1.8751    5.6944   -1.3749 H   0  0  0  0  0  0  0  0  0  0  0  0
    2.2184    3.9484   -0.1917 C   0  0  0  0  0  0  0  0  0  0  0  0
    3.4175    3.4004    0.2707 C   0  0  0  0  0  0  0  0  0  0  0  0
    3.5005    2.0613    0.6459 C   0  0  0  0  0  0  0  0  0  0  0  0
    2.3861    1.2546    0.5658 C   0  0  0  0  0  0  0  0  0  0  0  0
    1.2038    1.7750    0.0702 C   0  0  0  0  0  0  0  0  0  0  0  0
    1.1364    3.1000   -0.4077 C   0  0  0  0  0  0  0  0  0  0  0  0
   -0.0751    3.4547   -1.1669 C   0  0  0  0  0  0  0  0  0  0  0  0
   -1.2125    2.7945   -0.9307 C   0  0  0  0  0  0  0  0  0  0  0  0
   -1.2487    1.6207    0.0061 C   0  0  0  0  0  0  0  0  0  0  0  0
    0.0671    0.9671    0.0076 N   0  0  0  0  0  0  0  0  0  0  0  0
   -2.3098    0.6233   -0.4631 C   0  0  0  0  0  0  0  0  0  0  0  0
   -1.5869    2.0961    1.4194 C   0  0  0  0  0  0  0  0  0  0  0  0
   -0.1175    4.5143   -2.2329 C   0  0  0  0  0  0  0  0  0  0  0  0
    4.6164    4.2630    0.3972 C   0  0  0  0  0  0  0  0  0  0  0  0
    5.8703    3.7206    0.6504 C   0  0  0  0  0  0  0  0  0  0  0  0
    6.9701    4.5511    0.7514 C   0  0  0  0  0  0  0  0  0  0  0  0
    6.8236    5.9179    0.5946 C   0  0  0  0  0  0  0  0  0  0  0  0
    5.5802    6.4641    0.3432 C   0  0  0  0  0  0  0  0  0  0  0  0
    4.4633    5.6437    0.2523 C   0  0  0  0  0  0  0  0  0  0  0  0
    3.2504    6.1728    0.0370 O   0  0  0  0  0  0  0  0  0  0  0  0
    0.2576    9.9504    1.2450 H   0  0  0  0  0  0  0  0  0  0  0  0
   -0.8982    9.5841   -0.0582 H   0  0  0  0  0  0  0  0  0  0  0  0
   -1.4714    9.7520    1.6185 H   0  0  0  0  0  0  0  0  0  0  0  0
   -1.3403    7.3657    0.9575 H   0  0  0  0  0  0  0  0  0  0  0  0
   -0.1846    7.7320    2.2607 H   0  0  0  0  0  0  0  0  0  0  0  0
    1.6288    7.9685    0.5861 H   0  0  0  0  0  0  0  0  0  0  0  0
    0.4730    7.6021   -0.7171 H   0  0  0  0  0  0  0  0  0  0  0  0
    0.0309    5.3837    0.2986 H   0  0  0  0  0  0  0  0  0  0  0  0
    1.1866    5.7501    1.6018 H   0  0  0  0  0  0  0  0  0  0  0  0
    4.4366    1.6571    1.0008 H   0  0  0  0  0  0  0  0  0  0  0  0
    2.4313    0.2241    0.8857 H   0  0  0  0  0  0  0  0  0  0  0  0
   -2.1065    3.0900   -1.4569 H   0  0  0  0  0  0  0  0  0  0  0  0
    0.1377    0.0018    0.0024 H   0  0  0  0  0  0  0  0  0  0  0  0
   -2.3285   -0.2320    0.2124 H   0  0  0  0  0  0  0  0  0  0  0  0
   -3.2869    1.1063   -0.4649 H   0  0  0  0  0  0  0  0  0  0  0  0
   -2.0700    0.2849   -1.4711 H   0  0  0  0  0  0  0  0  0  0  0  0
   -0.8305    2.8057    1.7548 H   0  0  0  0  0  0  0  0  0  0  0  0
   -2.5634    2.5806    1.4158 H   0  0  0  0  0  0  0  0  0  0  0  0
   -1.6080    1.2411    2.0951 H   0  0  0  0  0  0  0  0  0  0  0  0
    0.8579    4.5847   -2.7143 H   0  0  0  0  0  0  0  0  0  0  0  0
   -0.8711    4.2525   -2.9756 H   0  0  0  0  0  0  0  0  0  0  0  0
   -0.3700    5.4738   -1.7816 H   0  0  0  0  0  0  0  0  0  0  0  0
    5.9893    2.6537    0.7658 H   0  0  0  0  0  0  0  0  0  0  0  0
    7.9454    4.1329    0.9512 H   0  0  0  0  0  0  0  0  0  0  0  0
    7.6884    6.5609    0.6678 H   0  0  0  0  0  0  0  0  0  0  0  0
    5.4695    7.5315    0.2219 H   0  0  0  0  0  0  0  0  0  0  0  0
  1  2  1  0  0  0  0
  1 27  1  0  0  0  0
  1 28  1  0  0  0  0
  1 29  1  0  0  0  0
  2  3  1  0  0  0  0
  2 30  1  0  0  0  0
  2 31  1  0  0  0  0
  3  4  1  0  0  0  0
  3 32  1  0  0  0  0
  3 33  1  0  0  0  0
  4  5  1  0  0  0  0
  4 34  1  0  0  0  0
  4 35  1  0  0  0  0
  5  6  1  0  0  0  0
  5 26  1  0  0  0  0
  5  7  1  0  0  0  0
  7 12  2  0  0  0  0
  7  8  1  0  0  0  0
  8  9  2  0  0  0  0
  8 20  1  0  0  0  0
  9 10  1  0  0  0  0
  9 36  1  0  0  0  0
 10 11  2  0  0  0  0
 10 37  1  0  0  0  0
 11 16  1  0  0  0  0
 11 12  1  0  0  0  0
 12 13  1  0  0  0  0
 13 14  2  0  0  0  0
 13 19  1  0  0  0  0
 14 15  1  0  0  0  0
 14 38  1  0  0  0  0
 15 16  1  0  0  0  0
 15 17  1  0  0  0  0
 15 18  1  0  0  0  0
 16 39  1  0  0  0  0
 17 40  1  0  0  0  0
 17 41  1  0  0  0  0
 17 42  1  0  0  0  0
 18 43  1  0  0  0  0
 18 44  1  0  0  0  0
 18 45  1  0  0  0  0
 19 46  1  0  0  0  0
 19 47  1  0  0  0  0
 19 48  1  0  0  0  0
 20 25  2  0  0  0  0
 20 21  1  0  0  0  0
 21 22  2  0  0  0  0
 21 49  1  0  0  0  0
 22 23  1  0  0  0  0
 22 50  1  0  0  0  0
 23 24  2  0  0  0  0
 23 51  1  0  0  0  0
 24 25  1  0  0  0  0
 24 52  1  0  0  0  0
 25 26  1  0  0  0  0
M  END
$$$$
ZINC03831989
  -OEChem-08230709403D

 51 55  0     1  0  0  0  0  0999 V2000
   -2.5307    1.1377   -0.4241 C   0  0  0  0  0  0  0  0  0  0  0  0
   -1.4041    2.0682    0.0296 C   0  0  2  0  0  0  0  0  0  0  0  0
   -1.5925    2.3923    0.9567 H   0  0  0  0  0  0  0  0  0  0  0  0
   -1.3203    3.2455   -0.9037 C   0  0  0  0  0  0  0  0  0  0  0  0
   -0.1084    3.6979   -1.4059 C   0  0  0  0  0  0  0  0  0  0  0  0
   -0.0719    4.8091   -2.2484 C   0  0  0  0  0  0  0  0  0  0  0  0
   -1.2364    5.4606   -2.5967 C   0  0  0  0  0  0  0  0  0  0  0  0
   -2.4490    5.0014   -2.1025 C   0  0  0  0  0  0  0  0  0  0  0  0
   -2.4883    3.8912   -1.2546 C   0  0  0  0  0  0  0  0  0  0  0  0
   -3.8201    3.4201   -0.7298 C   0  0  1  0  0  0  0  0  0  0  0  0
   -3.6778    2.9365    0.2367 H   0  0  0  0  0  0  0  0  0  0  0  0
   -4.7046    4.5331   -0.5783 O   0  0  0  0  0  0  0  0  0  0  0  0
   -4.8442    5.3801   -1.6300 C   0  0  0  0  0  0  0  0  0  0  0  0
   -3.7357    5.6529   -2.4442 C   0  0  0  0  0  0  0  0  0  0  0  0
   -3.8583    6.5108   -3.5272 C   0  0  0  0  0  0  0  0  0  0  0  0
   -5.0799    7.0990   -3.7970 C   0  0  0  0  0  0  0  0  0  0  0  0
   -6.1734    6.8335   -2.9917 C   0  0  0  0  0  0  0  0  0  0  0  0
   -6.0598    5.9772   -1.9117 C   0  0  0  0  0  0  0  0  0  0  0  0
   -4.4199    2.4345   -1.6992 C   0  0  0  0  0  0  0  0  0  0  0  0
   -5.5952    1.7796   -1.3804 C   0  0  0  0  0  0  0  0  0  0  0  0
   -6.1466    0.8754   -2.2686 C   0  0  0  0  0  0  0  0  0  0  0  0
   -5.5234    0.6247   -3.4766 C   0  0  0  0  0  0  0  0  0  0  0  0
   -4.3466    1.2798   -3.7969 C   0  0  0  0  0  0  0  0  0  0  0  0
   -3.7982    2.1897   -2.9086 C   0  0  0  0  0  0  0  0  0  0  0  0
   -3.7369    1.0359   -4.9775 F   0  0  0  0  0  0  0  0  0  0  0  0
    1.1020    3.0703   -1.0962 N   0  0  0  0  0  0  0  0  0  0  0  0
    1.1775    2.1436    0.0407 C   0  0  0  0  0  0  0  0  0  0  0  0
   -0.0937    1.3153    0.0183 C   0  0  0  0  0  0  0  0  0  0  0  0
   -0.0599    0.1086   -0.0124 O   0  0  0  0  0  0  0  0  0  0  0  0
    1.2663    2.9293    1.3506 C   0  0  0  0  0  0  0  0  0  0  0  0
    2.3977    1.2322   -0.1055 C   0  0  0  0  0  0  0  0  0  0  0  0
   -2.3412    0.1302   -0.0539 H   0  0  0  0  0  0  0  0  0  0  0  0
   -3.4806    1.4974   -0.0285 H   0  0  0  0  0  0  0  0  0  0  0  0
   -2.5731    1.1226   -1.5132 H   0  0  0  0  0  0  0  0  0  0  0  0
    0.8748    5.1618   -2.6302 H   0  0  0  0  0  0  0  0  0  0  0  0
   -1.2049    6.3212   -3.2484 H   0  0  0  0  0  0  0  0  0  0  0  0
   -3.0047    6.7183   -4.1555 H   0  0  0  0  0  0  0  0  0  0  0  0
   -5.1810    7.7680   -4.6387 H   0  0  0  0  0  0  0  0  0  0  0  0
   -7.1238    7.2985   -3.2088 H   0  0  0  0  0  0  0  0  0  0  0  0
   -6.9187    5.7752   -1.2889 H   0  0  0  0  0  0  0  0  0  0  0  0
   -6.0830    1.9751   -0.4369 H   0  0  0  0  0  0  0  0  0  0  0  0
   -7.0648    0.3647   -2.0187 H   0  0  0  0  0  0  0  0  0  0  0  0
   -5.9546   -0.0816   -4.1706 H   0  0  0  0  0  0  0  0  0  0  0  0
   -2.8825    2.7047   -3.1593 H   0  0  0  0  0  0  0  0  0  0  0  0
    1.8912    3.2466   -1.6319 H   0  0  0  0  0  0  0  0  0  0  0  0
    1.2756    2.2350    2.1908 H   0  0  0  0  0  0  0  0  0  0  0  0
    2.1818    3.5209    1.3580 H   0  0  0  0  0  0  0  0  0  0  0  0
    0.4050    3.5917    1.4360 H   0  0  0  0  0  0  0  0  0  0  0  0
    2.3374    0.6931   -1.0509 H   0  0  0  0  0  0  0  0  0  0  0  0
    3.3056    1.8352   -0.0883 H   0  0  0  0  0  0  0  0  0  0  0  0
    2.4195    0.5192    0.7186 H   0  0  0  0  0  0  0  0  0  0  0  0
  1  2  1  0  0  0  0
  1 32  1  0  0  0  0
  1 33  1  0  0  0  0
  1 34  1  0  0  0  0
  2  3  1  0  0  0  0
  2 28  1  0  0  0  0
  2  4  1  0  0  0  0
  4  9  2  0  0  0  0
  4  5  1  0  0  0  0
  5  6  2  0  0  0  0
  5 26  1  0  0  0  0
  6  7  1  0  0  0  0
  6 35  1  0  0  0  0
  7  8  2  0  0  0  0
  7 36  1  0  0  0  0
  8 14  1  0  0  0  0
  8  9  1  0  0  0  0
  9 10  1  0  0  0  0
 10 11  1  0  0  0  0
 10 12  1  0  0  0  0
 10 19  1  0  0  0  0
 12 13  1  0  0  0  0
 13 18  2  0  0  0  0
 13 14  1  0  0  0  0
 14 15  2  0  0  0  0
 15 16  1  0  0  0  0
 15 37  1  0  0  0  0
 16 17  2  0  0  0  0
 16 38  1  0  0  0  0
 17 18  1  0  0  0  0
 17 39  1  0  0  0  0
 18 40  1  0  0  0  0
 19 24  2  0  0  0  0
 19 20  1  0  0  0  0
 20 21  2  0  0  0  0
 20 41  1  0  0  0  0
 21 22  1  0  0  0  0
 21 42  1  0  0  0  0
 22 23  2  0  0  0  0
 22 43  1  0  0  0  0
 23 24  1  0  0  0  0
 23 25  1  0  0  0  0
 24 44  1  0  0  0  0
 26 27  1  0  0  0  0
 26 45  1  0  0  0  0
 27 28  1  0  0  0  0
 27 30  1  0  0  0  0
 27 31  1  0  0  0  0
 28 29  2  0  0  0  0
 30 46  1  0  0  0  0
 30 47  1  0  0  0  0
 30 48  1  0  0  0  0
 31 49  1  0  0  0  0
 31 50  1  0  0  0  0
 31 51  1  0  0  0  0
M  END
$$$$
ZINC03831990
  -OEChem-08230709403D

 47 50  0     1  0  0  0  0  0999 V2000
   -2.2793   -0.5204    0.9061 C   0  0  0  0  0  0  0  0  0  0  0  0
   -1.8740   -0.9343    2.2973 C   0  0  0  0  0  0  0  0  0  0  0  0
   -2.5571   -1.8736    2.9389 C   0  0  0  0  0  0  0  0  0  0  0  0
   -2.1792   -2.2918    4.3350 C   0  0  0  0  0  0  0  0  0  0  0  0
   -0.7389   -2.0977    4.5437 N   0  0  0  0  0  0  0  0  0  0  0  0
   -0.1556   -0.9148    4.0859 C   0  0  0  0  0  0  0  0  0  0  0  0
   -0.7152   -0.2960    2.9531 C   0  0  0  0  0  0  0  0  0  0  0  0
   -0.1703    0.8853    2.4775 C   0  0  0  0  0  0  0  0  0  0  0  0
    0.9329    1.4440    3.1290 C   0  0  0  0  0  0  0  0  0  0  0  0
    1.4825    0.8254    4.2452 C   0  0  0  0  0  0  0  0  0  0  0  0
    0.9373   -0.3532    4.7219 C   0  0  0  0  0  0  0  0  0  0  0  0
    1.4834    2.7081    2.5836 C   0  0  0  0  0  0  0  0  0  0  0  0
    2.7544    3.1550    2.9138 C   0  0  0  0  0  0  0  0  0  0  0  0
    3.2179    4.3454    2.3857 C   0  0  0  0  0  0  0  0  0  0  0  0
    2.4190    5.0866    1.5329 C   0  0  0  0  0  0  0  0  0  0  0  0
    1.1520    4.6461    1.1964 C   0  0  0  0  0  0  0  0  0  0  0  0
    0.6750    3.4563    1.7165 C   0  0  0  0  0  0  0  0  0  0  0  0
   -0.5639    2.9991    1.4013 O   0  0  0  0  0  0  0  0  0  0  0  0
   -0.7394    1.5861    1.2719 C   0  0  1  0  0  0  0  0  0  0  0  0
   -1.8025    1.3593    1.1915 H   0  0  0  0  0  0  0  0  0  0  0  0
   -0.0191    1.0978    0.0134 C   0  0  0  0  0  0  0  0  0  0  0  0
   -0.7157    1.6420   -1.2071 C   0  0  0  0  0  0  0  0  0  0  0  0
   -0.0396    2.3258   -2.0968 C   0  0  0  0  0  0  0  0  0  0  0  0
   -2.9571   -1.4474    5.3463 C   0  0  0  0  0  0  0  0  0  0  0  0
   -2.5249   -3.7689    4.5339 C   0  0  0  0  0  0  0  0  0  0  0  0
   -1.3890   -0.2830    0.3238 H   0  0  0  0  0  0  0  0  0  0  0  0
   -2.8197   -1.3368    0.4271 H   0  0  0  0  0  0  0  0  0  0  0  0
   -2.9223    0.3580    0.9611 H   0  0  0  0  0  0  0  0  0  0  0  0
   -3.3973   -2.3460    2.4517 H   0  0  0  0  0  0  0  0  0  0  0  0
   -0.2058   -2.7747    4.9890 H   0  0  0  0  0  0  0  0  0  0  0  0
    2.3358    1.2646    4.7405 H   0  0  0  0  0  0  0  0  0  0  0  0
    1.3643   -0.8345    5.5893 H   0  0  0  0  0  0  0  0  0  0  0  0
    3.3778    2.5766    3.5796 H   0  0  0  0  0  0  0  0  0  0  0  0
    4.2065    4.6982    2.6397 H   0  0  0  0  0  0  0  0  0  0  0  0
    2.7883    6.0165    1.1263 H   0  0  0  0  0  0  0  0  0  0  0  0
    0.5356    5.2305    0.5293 H   0  0  0  0  0  0  0  0  0  0  0  0
   -0.0350    0.0083   -0.0147 H   0  0  0  0  0  0  0  0  0  0  0  0
    1.0137    1.4459    0.0278 H   0  0  0  0  0  0  0  0  0  0  0  0
   -1.7722    1.4683   -1.3483 H   0  0  0  0  0  0  0  0  0  0  0  0
    1.0169    2.4995   -1.9556 H   0  0  0  0  0  0  0  0  0  0  0  0
   -0.5388    2.7158   -2.9715 H   0  0  0  0  0  0  0  0  0  0  0  0
   -4.0266   -1.5971    5.1984 H   0  0  0  0  0  0  0  0  0  0  0  0
   -2.6845   -1.7491    6.3576 H   0  0  0  0  0  0  0  0  0  0  0  0
   -2.7144   -0.3944    5.2034 H   0  0  0  0  0  0  0  0  0  0  0  0
   -1.9740   -4.3715    3.8117 H   0  0  0  0  0  0  0  0  0  0  0  0
   -2.2518   -4.0731    5.5443 H   0  0  0  0  0  0  0  0  0  0  0  0
   -3.5952   -3.9145    4.3874 H   0  0  0  0  0  0  0  0  0  0  0  0
  1  2  1  0  0  0  0
  1 26  1  0  0  0  0
  1 27  1  0  0  0  0
  1 28  1  0  0  0  0
  2  7  1  0  0  0  0
  2  3  2  0  0  0  0
  3  4  1  0  0  0  0
  3 29  1  0  0  0  0
  4  5  1  0  0  0  0
  4 24  1  0  0  0  0
  4 25  1  0  0  0  0
  5  6  1  0  0  0  0
  5 30  1  0  0  0  0
  6 11  2  0  0  0  0
  6  7  1  0  0  0  0
  7  8  2  0  0  0  0
  8 19  1  0  0  0  0
  8  9  1  0  0  0  0
  9 10  2  0  0  0  0
  9 12  1  0  0  0  0
 10 11  1  0  0  0  0
 10 31  1  0  0  0  0
 11 32  1  0  0  0  0
 12 17  2  0  0  0  0
 12 13  1  0  0  0  0
 13 14  2  0  0  0  0
 13 33  1  0  0  0  0
 14 15  1  0  0  0  0
 14 34  1  0  0  0  0
 15 16  2  0  0  0  0
 15 35  1  0  0  0  0
 16 17  1  0  0  0  0
 16 36  1  0  0  0  0
 17 18  1  0  0  0  0
 18 19  1  0  0  0  0
 19 20  1  0  0  0  0
 19 21  1  0  0  0  0
 21 22  1  0  0  0  0
 21 37  1  0  0  0  0
 21 38  1  0  0  0  0
 22 23  2  0  0  0  0
 22 39  1  0  0  0  0
 23 40  1  0  0  0  0
 23 41  1  0  0  0  0
 24 42  1  0  0  0  0
 24 43  1  0  0  0  0
 24 44  1  0  0  0  0
 25 45  1  0  0  0  0
 25 46  1  0  0  0  0
 25 47  1  0  0  0  0
M  END
$$$$
ZINC03831991
  -OEChem-08230709403D

 51 55  0     1  0  0  0  0  0999 V2000
   -0.4028    2.7255   -1.2424 C   0  0  0  0  0  0  0  0  0  0  0  0
    0.1384    2.2323    0.1009 C   0  0  1  0  0  0  0  0  0  0  0  0
    0.0775    2.9682    0.7752 H   0  0  0  0  0  0  0  0  0  0  0  0
   -0.6770    1.0526    0.5690 C   0  0  0  0  0  0  0  0  0  0  0  0
   -0.1885   -0.2450    0.5126 C   0  0  0  0  0  0  0  0  0  0  0  0
   -0.9812   -1.3096    0.9415 C   0  0  0  0  0  0  0  0  0  0  0  0
   -2.2503   -1.0830    1.4314 C   0  0  0  0  0  0  0  0  0  0  0  0
   -2.7349    0.2157    1.4957 C   0  0  0  0  0  0  0  0  0  0  0  0
   -1.9449    1.2838    1.0620 C   0  0  0  0  0  0  0  0  0  0  0  0
   -2.5025    2.6819    1.1362 C   0  0  1  0  0  0  0  0  0  0  0  0
   -2.0504    3.2938    0.3556 H   0  0  0  0  0  0  0  0  0  0  0  0
   -3.9203    2.6507    0.9538 O   0  0  0  0  0  0  0  0  0  0  0  0
   -4.6370    1.7778    1.7071 C   0  0  0  0  0  0  0  0  0  0  0  0
   -4.0866    0.5263    2.0183 C   0  0  0  0  0  0  0  0  0  0  0  0
   -4.8001   -0.3783    2.7905 C   0  0  0  0  0  0  0  0  0  0  0  0
   -6.0592   -0.0396    3.2497 C   0  0  0  0  0  0  0  0  0  0  0  0
   -6.6043    1.1944    2.9411 C   0  0  0  0  0  0  0  0  0  0  0  0
   -5.8987    2.1021    2.1724 C   0  0  0  0  0  0  0  0  0  0  0  0
   -2.1842    3.2769    2.4836 C   0  0  0  0  0  0  0  0  0  0  0  0
   -2.8513    2.8329    3.6101 C   0  0  0  0  0  0  0  0  0  0  0  0
   -2.5557    3.3743    4.8469 C   0  0  0  0  0  0  0  0  0  0  0  0
   -1.6000    4.3688    4.9560 C   0  0  0  0  0  0  0  0  0  0  0  0
   -0.9368    4.8167    3.8275 C   0  0  0  0  0  0  0  0  0  0  0  0
   -1.2292    4.2706    2.5919 C   0  0  0  0  0  0  0  0  0  0  0  0
   -1.2337    5.0547    6.5081 Cl  0  0  0  0  0  0  0  0  0  0  0  0
    1.0990   -0.5318    0.0489 N   0  0  0  0  0  0  0  0  0  0  0  0
    1.8422    0.4741   -0.7211 C   0  0  0  0  0  0  0  0  0  0  0  0
    1.5820    1.8149   -0.0602 C   0  0  0  0  0  0  0  0  0  0  0  0
    2.4879    2.5173    0.3196 O   0  0  0  0  0  0  0  0  0  0  0  0
    3.3386    0.1568   -0.6881 C   0  0  0  0  0  0  0  0  0  0  0  0
    1.3450    0.4971   -2.1679 C   0  0  0  0  0  0  0  0  0  0  0  0
   -1.3912    3.1619   -1.0978 H   0  0  0  0  0  0  0  0  0  0  0  0
    0.2707    3.4788   -1.6510 H   0  0  0  0  0  0  0  0  0  0  0  0
   -0.4736    1.8872   -1.9355 H   0  0  0  0  0  0  0  0  0  0  0  0
   -0.5989   -2.3183    0.8887 H   0  0  0  0  0  0  0  0  0  0  0  0
   -2.8619   -1.9094    1.7620 H   0  0  0  0  0  0  0  0  0  0  0  0
   -4.3745   -1.3411    3.0319 H   0  0  0  0  0  0  0  0  0  0  0  0
   -6.6192   -0.7400    3.8514 H   0  0  0  0  0  0  0  0  0  0  0  0
   -7.5892    1.4504    3.3028 H   0  0  0  0  0  0  0  0  0  0  0  0
   -6.3318    3.0629    1.9364 H   0  0  0  0  0  0  0  0  0  0  0  0
   -3.6004    2.0597    3.5242 H   0  0  0  0  0  0  0  0  0  0  0  0
   -3.0738    3.0243    5.7275 H   0  0  0  0  0  0  0  0  0  0  0  0
   -0.1909    5.5932    3.9119 H   0  0  0  0  0  0  0  0  0  0  0  0
   -0.7112    4.6199    1.7110 H   0  0  0  0  0  0  0  0  0  0  0  0
    1.5012   -1.3944    0.2360 H   0  0  0  0  0  0  0  0  0  0  0  0
    3.5110   -0.8276   -1.1233 H   0  0  0  0  0  0  0  0  0  0  0  0
    3.8820    0.9077   -1.2616 H   0  0  0  0  0  0  0  0  0  0  0  0
    3.6889    0.1642    0.3440 H   0  0  0  0  0  0  0  0  0  0  0  0
    0.2556    0.4624   -2.1783 H   0  0  0  0  0  0  0  0  0  0  0  0
    1.6841    1.4118   -2.6541 H   0  0  0  0  0  0  0  0  0  0  0  0
    1.7412   -0.3666   -2.7020 H   0  0  0  0  0  0  0  0  0  0  0  0
  1  2  1  0  0  0  0
  1 32  1  0  0  0  0
  1 33  1  0  0  0  0
  1 34  1  0  0  0  0
  2  3  1  0  0  0  0
  2 28  1  0  0  0  0
  2  4  1  0  0  0  0
  4  9  2  0  0  0  0
  4  5  1  0  0  0  0
  5  6  2  0  0  0  0
  5 26  1  0  0  0  0
  6  7  1  0  0  0  0
  6 35  1  0  0  0  0
  7  8  2  0  0  0  0
  7 36  1  0  0  0  0
  8 14  1  0  0  0  0
  8  9  1  0  0  0  0
  9 10  1  0  0  0  0
 10 11  1  0  0  0  0
 10 12  1  0  0  0  0
 10 19  1  0  0  0  0
 12 13  1  0  0  0  0
 13 18  2  0  0  0  0
 13 14  1  0  0  0  0
 14 15  2  0  0  0  0
 15 16  1  0  0  0  0
 15 37  1  0  0  0  0
 16 17  2  0  0  0  0
 16 38  1  0  0  0  0
 17 18  1  0  0  0  0
 17 39  1  0  0  0  0
 18 40  1  0  0  0  0
 19 24  2  0  0  0  0
 19 20  1  0  0  0  0
 20 21  2  0  0  0  0
 20 41  1  0  0  0  0
 21 22  1  0  0  0  0
 21 42  1  0  0  0  0
 22 23  2  0  0  0  0
 22 25  1  0  0  0  0
 23 24  1  0  0  0  0
 23 43  1  0  0  0  0
 24 44  1  0  0  0  0
 26 27  1  0  0  0  0
 26 45  1  0  0  0  0
 27 28  1  0  0  0  0
 27 30  1  0  0  0  0
 27 31  1  0  0  0  0
 28 29  2  0  0  0  0
 30 46  1  0  0  0  0
 30 47  1  0  0  0  0
 30 48  1  0  0  0  0
 31 49  1  0  0  0  0
 31 50  1  0  0  0  0
 31 51  1  0  0  0  0
M  END
$$$$
ZINC03831993
  -OEChem-08230709403D

 52 56  0     1  0  0  0  0  0999 V2000
    3.9489    2.3822   -2.2476 C   0  0  0  0  0  0  0  0  0  0  0  0
    3.8775    2.4126   -0.7165 C   0  0  2  0  0  0  0  0  0  0  0  0
    4.6945    1.9793   -0.3361 H   0  0  0  0  0  0  0  0  0  0  0  0
    2.6690    1.6458   -0.2557 C   0  0  0  0  0  0  0  0  0  0  0  0
    1.4462    2.3104   -0.1851 C   0  0  0  0  0  0  0  0  0  0  0  0
    0.2777    1.6139    0.0902 C   0  0  0  0  0  0  0  0  0  0  0  0
    0.3136    0.2691    0.3960 C   0  0  0  0  0  0  0  0  0  0  0  0
    1.5337   -0.3843    0.4373 C   0  0  0  0  0  0  0  0  0  0  0  0
    2.7221    0.2992    0.0565 C   0  0  0  0  0  0  0  0  0  0  0  0
    3.9294   -0.5495    0.0357 C   0  0  0  0  0  0  0  0  0  0  0  0
    4.8836   -0.4874   -0.9150 C   0  0  0  0  0  0  0  0  0  0  0  0
    6.1347   -1.2448   -0.7523 C   0  0  0  0  0  0  0  0  0  0  0  0
    7.0534   -1.3188   -1.8046 C   0  0  0  0  0  0  0  0  0  0  0  0
    8.2237   -2.0301   -1.6458 C   0  0  0  0  0  0  0  0  0  0  0  0
    8.4919   -2.6708   -0.4489 C   0  0  0  0  0  0  0  0  0  0  0  0
    7.5875   -2.6030    0.5992 C   0  0  0  0  0  0  0  0  0  0  0  0
    6.4134   -1.8892    0.4566 C   0  0  0  0  0  0  0  0  0  0  0  0
    7.8570   -3.2318    1.7642 F   0  0  0  0  0  0  0  0  0  0  0  0
    4.0268   -1.4782    1.0435 O   0  0  0  0  0  0  0  0  0  0  0  0
    2.9403   -2.2867    1.1920 C   0  0  0  0  0  0  0  0  0  0  0  0
    1.6632   -1.7849    0.8923 C   0  0  0  0  0  0  0  0  0  0  0  0
    0.5524   -2.6123    1.0279 C   0  0  0  0  0  0  0  0  0  0  0  0
    0.7101   -3.9172    1.4443 C   0  0  0  0  0  0  0  0  0  0  0  0
    1.9692   -4.4082    1.7478 C   0  0  0  0  0  0  0  0  0  0  0  0
    3.0802   -3.5886    1.6420 C   0  0  0  0  0  0  0  0  0  0  0  0
    1.3948    3.6910   -0.3634 N   0  0  0  0  0  0  0  0  0  0  0  0
    2.5187    4.5453    0.0146 C   0  0  0  0  0  0  0  0  0  0  0  0
    3.8284    3.8519   -0.2704 C   0  0  0  0  0  0  0  0  0  0  0  0
    4.8718    4.4707   -0.1393 O   0  0  0  0  0  0  0  0  0  0  0  0
    2.4480    5.8687   -0.7629 C   0  0  0  0  0  0  0  0  0  0  0  0
    2.4294    4.8565    1.5182 C   0  0  0  0  0  0  0  0  0  0  0  0
    3.1289    2.9693   -2.6613 H   0  0  0  0  0  0  0  0  0  0  0  0
    4.8991    2.8037   -2.5754 H   0  0  0  0  0  0  0  0  0  0  0  0
    3.8693    1.3520   -2.5946 H   0  0  0  0  0  0  0  0  0  0  0  0
   -0.6766    2.1261    0.0733 H   0  0  0  0  0  0  0  0  0  0  0  0
   -0.6013   -0.2665    0.5958 H   0  0  0  0  0  0  0  0  0  0  0  0
    4.7297    0.1183   -1.7959 H   0  0  0  0  0  0  0  0  0  0  0  0
    6.8461   -0.8199   -2.7398 H   0  0  0  0  0  0  0  0  0  0  0  0
    8.9331   -2.0878   -2.4581 H   0  0  0  0  0  0  0  0  0  0  0  0
    9.4106   -3.2261   -0.3307 H   0  0  0  0  0  0  0  0  0  0  0  0
    5.7111   -1.8326    1.2751 H   0  0  0  0  0  0  0  0  0  0  0  0
   -0.4365   -2.2269    0.8130 H   0  0  0  0  0  0  0  0  0  0  0  0
   -0.1526   -4.5602    1.5341 H   0  0  0  0  0  0  0  0  0  0  0  0
    2.0846   -5.4287    2.0789 H   0  0  0  0  0  0  0  0  0  0  0  0
    4.0534   -3.9724    1.9153 H   0  0  0  0  0  0  0  0  0  0  0  0
    0.5882    4.0977   -0.7356 H   0  0  0  0  0  0  0  0  0  0  0  0
    1.5128    6.3777   -0.5294 H   0  0  0  0  0  0  0  0  0  0  0  0
    3.2877    6.5027   -0.4781 H   0  0  0  0  0  0  0  0  0  0  0  0
    2.4933    5.6645   -1.8326 H   0  0  0  0  0  0  0  0  0  0  0  0
    2.4687    3.9262    2.0848 H   0  0  0  0  0  0  0  0  0  0  0  0
    3.2651    5.4937    1.8076 H   0  0  0  0  0  0  0  0  0  0  0  0
    1.4912    5.3702    1.7278 H   0  0  0  0  0  0  0  0  0  0  0  0
  1  2  1  0  0  0  0
  1 32  1  0  0  0  0
  1 33  1  0  0  0  0
  1 34  1  0  0  0  0
  2  3  1  0  0  0  0
  2 28  1  0  0  0  0
  2  4  1  0  0  0  0
  4  9  2  0  0  0  0
  4  5  1  0  0  0  0
  5  6  2  0  0  0  0
  5 26  1  0  0  0  0
  6  7  1  0  0  0  0
  6 35  1  0  0  0  0
  7  8  2  0  0  0  0
  7 36  1  0  0  0  0
  8 21  1  0  0  0  0
  8  9  1  0  0  0  0
  9 10  1  0  0  0  0
 10 11  2  0  0  0  0
 10 19  1  0  0  0  0
 11 12  1  0  0  0  0
 11 37  1  0  0  0  0
 12 17  2  0  0  0  0
 12 13  1  0  0  0  0
 13 14  2  0  0  0  0
 13 38  1  0  0  0  0
 14 15  1  0  0  0  0
 14 39  1  0  0  0  0
 15 16  2  0  0  0  0
 15 40  1  0  0  0  0
 16 17  1  0  0  0  0
 16 18  1  0  0  0  0
 17 41  1  0  0  0  0
 19 20  1  0  0  0  0
 20 25  2  0  0  0  0
 20 21  1  0  0  0  0
 21 22  2  0  0  0  0
 22 23  1  0  0  0  0
 22 42  1  0  0  0  0
 23 24  2  0  0  0  0
 23 43  1  0  0  0  0
 24 25  1  0  0  0  0
 24 44  1  0  0  0  0
 25 45  1  0  0  0  0
 26 27  1  0  0  0  0
 26 46  1  0  0  0  0
 27 28  1  0  0  0  0
 27 30  1  0  0  0  0
 27 31  1  0  0  0  0
 28 29  2  0  0  0  0
 30 47  1  0  0  0  0
 30 48  1  0  0  0  0
 30 49  1  0  0  0  0
 31 50  1  0  0  0  0
 31 51  1  0  0  0  0
 31 52  1  0  0  0  0
M  END
$$$$
ZINC03833819
  -OEChem-08230709403D

 57 60  0     1  0  0  0  0  0999 V2000
    5.6316    1.4186   -4.5079 C   0  0  0  0  0  0  0  0  0  0  0  0
    5.5905    1.3647   -2.9794 C   0  0  0  0  0  0  0  0  0  0  0  0
    4.2594    0.8180   -2.5317 C   0  0  0  0  0  0  0  0  0  0  0  0
    3.4293    0.5039   -3.3506 O   0  0  0  0  0  0  0  0  0  0  0  0
    3.9643    0.6632   -1.0620 C   0  0  2  0  0  0  0  0  0  0  0  0
    2.9421   -0.4787   -0.8349 C   0  0  0  0  0  0  0  0  0  0  0  0
    1.6666    0.1854   -0.2480 C   0  0  0  0  0  0  0  0  0  0  0  0
    1.7575    1.6316   -0.7516 C   0  0  2  0  0  0  0  0  0  0  0  0
    1.4816    1.7181   -1.8026 H   0  0  0  0  0  0  0  0  0  0  0  0
    3.2898    1.9194   -0.5235 C   0  0  2  0  0  0  0  0  0  0  0  0
    3.6221    3.2249   -1.2150 C   0  0  0  0  0  0  0  0  0  0  0  0
    2.8264    4.3406   -0.5113 C   0  0  1  0  0  0  0  0  0  0  0  0
    3.0124    5.2881   -1.0170 H   0  0  0  0  0  0  0  0  0  0  0  0
    1.3345    4.0399   -0.5430 C   0  0  1  0  0  0  0  0  0  0  0  0
    1.0009    4.0377   -1.5807 H   0  0  0  0  0  0  0  0  0  0  0  0
    1.0261    2.6685    0.0744 C   0  0  1  0  0  0  0  0  0  0  0  0
    1.4254    2.6410    1.0883 H   0  0  0  0  0  0  0  0  0  0  0  0
   -0.4472    2.4225    0.1279 C   0  0  0  0  0  0  0  0  0  0  0  0
   -1.3463    3.4047    0.1215 C   0  0  0  0  0  0  0  0  0  0  0  0
   -0.9137    4.8066    0.0491 C   0  0  0  0  0  0  0  0  0  0  0  0
   -1.8202    5.7708   -0.2098 C   0  0  0  0  0  0  0  0  0  0  0  0
   -1.3838    7.1485   -0.4355 C   0  0  0  0  0  0  0  0  0  0  0  0
   -2.1982    8.0423   -0.5835 O   0  0  0  0  0  0  0  0  0  0  0  0
    0.0614    7.4329   -0.4807 C   0  0  0  0  0  0  0  0  0  0  0  0
    0.9340    6.4815   -0.1873 C   0  0  0  0  0  0  0  0  0  0  0  0
    0.5501    5.1031    0.2192 C   0  0  2  0  0  0  0  0  0  0  0  0
    0.8877    4.9579    1.7044 C   0  0  0  0  0  0  0  0  0  0  0  0
   -2.8153    3.0766    0.1944 C   0  0  0  0  0  0  0  0  0  0  0  0
    3.2577    4.4399    0.8475 O   0  0  0  0  0  0  0  0  0  0  0  0
    3.5663    2.0479    0.9758 C   0  0  0  0  0  0  0  0  0  0  0  0
    5.1694    0.4000   -0.3406 O   0  0  0  0  0  0  0  0  0  0  0  0
    5.4971    0.4147   -4.9107 H   0  0  0  0  0  0  0  0  0  0  0  0
    4.8326    2.0655   -4.8703 H   0  0  0  0  0  0  0  0  0  0  0  0
    6.5943    1.8140   -4.8318 H   0  0  0  0  0  0  0  0  0  0  0  0
    5.7140    2.2857   -2.6100 H   0  0  0  0  0  0  0  0  0  0  0  0
    6.3894    0.7177   -2.6171 H   0  0  0  0  0  0  0  0  0  0  0  0
    2.7086   -0.9655   -1.7817 H   0  0  0  0  0  0  0  0  0  0  0  0
    3.3440   -1.2055   -0.1290 H   0  0  0  0  0  0  0  0  0  0  0  0
    0.7683   -0.2879   -0.6445 H   0  0  0  0  0  0  0  0  0  0  0  0
    1.6767    0.1442    0.8412 H   0  0  0  0  0  0  0  0  0  0  0  0
    3.3340    3.1711   -2.2649 H   0  0  0  0  0  0  0  0  0  0  0  0
    4.6905    3.4256   -1.1347 H   0  0  0  0  0  0  0  0  0  0  0  0
   -0.7985    1.4021    0.1690 H   0  0  0  0  0  0  0  0  0  0  0  0
   -2.8711    5.5251   -0.2510 H   0  0  0  0  0  0  0  0  0  0  0  0
    0.4091    8.4185   -0.7532 H   0  0  0  0  0  0  0  0  0  0  0  0
    1.9857    6.7200   -0.2465 H   0  0  0  0  0  0  0  0  0  0  0  0
    1.9178    5.2704    1.8751 H   0  0  0  0  0  0  0  0  0  0  0  0
    0.2160    5.5832    2.2925 H   0  0  0  0  0  0  0  0  0  0  0  0
    0.7697    3.9164    2.0036 H   0  0  0  0  0  0  0  0  0  0  0  0
   -2.9440    1.9955    0.2461 H   0  0  0  0  0  0  0  0  0  0  0  0
   -3.2467    3.5368    1.0834 H   0  0  0  0  0  0  0  0  0  0  0  0
   -3.3178    3.4603   -0.6935 H   0  0  0  0  0  0  0  0  0  0  0  0
    4.2003    4.6306    0.9480 H   0  0  0  0  0  0  0  0  0  0  0  0
    2.8620    2.7537    1.4160 H   0  0  0  0  0  0  0  0  0  0  0  0
    3.4501    1.0741    1.4514 H   0  0  0  0  0  0  0  0  0  0  0  0
    4.5840    2.4074    1.1281 H   0  0  0  0  0  0  0  0  0  0  0  0
    5.6425   -0.3885   -0.6396 H   0  0  0  0  0  0  0  0  0  0  0  0
  1  2  1  0  0  0  0
  1 32  1  0  0  0  0
  1 33  1  0  0  0  0
  1 34  1  0  0  0  0
  2  3  1  0  0  0  0
  2 35  1  0  0  0  0
  2 36  1  0  0  0  0
  3  4  2  0  0  0  0
  3  5  1  0  0  0  0
  5 10  1  0  0  0  0
  5  6  1  0  0  0  0
  5 31  1  0  0  0  0
  6  7  1  0  0  0  0
  6 37  1  0  0  0  0
  6 38  1  0  0  0  0
  7  8  1  0  0  0  0
  7 39  1  0  0  0  0
  7 40  1  0  0  0  0
  8  9  1  0  0  0  0
  8 16  1  0  0  0  0
  8 10  1  0  0  0  0
 10 11  1  0  0  0  0
 10 30  1  0  0  0  0
 11 12  1  0  0  0  0
 11 41  1  0  0  0  0
 11 42  1  0  0  0  0
 12 13  1  0  0  0  0
 12 14  1  0  0  0  0
 12 29  1  0  0  0  0
 14 15  1  0  0  0  0
 14 26  1  0  0  0  0
 14 16  1  0  0  0  0
 16 17  1  0  0  0  0
 16 18  1  0  0  0  0
 18 19  2  0  0  0  0
 18 43  1  0  0  0  0
 19 20  1  0  0  0  0
 19 28  1  0  0  0  0
 20 26  1  0  0  0  0
 20 21  2  0  0  0  0
 21 22  1  0  0  0  0
 21 44  1  0  0  0  0
 22 23  2  0  0  0  0
 22 24  1  0  0  0  0
 24 25  2  0  0  0  0
 24 45  1  0  0  0  0
 25 26  1  0  0  0  0
 25 46  1  0  0  0  0
 26 27  1  0  0  0  0
 27 47  1  0  0  0  0
 27 48  1  0  0  0  0
 27 49  1  0  0  0  0
 28 50  1  0  0  0  0
 28 51  1  0  0  0  0
 28 52  1  0  0  0  0
 29 53  1  0  0  0  0
 30 54  1  0  0  0  0
 30 55  1  0  0  0  0
 30 56  1  0  0  0  0
 31 57  1  0  0  0  0
M  END
$$$$
ZINC03833820
  -OEChem-08230709403D

 59 62  0     1  0  0  0  0  0999 V2000
    6.2784   -1.8148    1.5566 C   0  0  0  0  0  0  0  0  0  0  0  0
    5.0839   -0.9746    2.0128 C   0  0  0  0  0  0  0  0  0  0  0  0
    5.4374    0.4879    1.9295 C   0  0  0  0  0  0  0  0  0  0  0  0
    6.5318    0.8236    1.5449 O   0  0  0  0  0  0  0  0  0  0  0  0
    4.4252    1.5316    2.3261 C   0  0  1  0  0  0  0  0  0  0  0  0
    5.1396    2.8424    2.7393 C   0  0  1  0  0  0  0  0  0  0  0  0
    6.2159    2.7421    2.5992 H   0  0  0  0  0  0  0  0  0  0  0  0
    4.5828    3.9562    1.8111 C   0  0  0  0  0  0  0  0  0  0  0  0
    3.2192    3.3994    1.3867 C   0  0  2  0  0  0  0  0  0  0  0  0
    2.4912    3.4930    2.1925 H   0  0  0  0  0  0  0  0  0  0  0  0
    3.5557    1.9058    1.1302 C   0  0  2  0  0  0  0  0  0  0  0  0
    2.2382    1.1669    0.9945 C   0  0  0  0  0  0  0  0  0  0  0  0
    1.5427    1.7079   -0.2647 C   0  0  2  0  0  0  0  0  0  0  0  0
    2.1558    1.4762   -1.1356 H   0  0  0  0  0  0  0  0  0  0  0  0
    1.3353    3.2174   -0.1894 C   0  0  1  0  0  0  0  0  0  0  0  0
    2.6512    3.9588    0.0950 C   0  0  1  0  0  0  0  0  0  0  0  0
    3.3481    3.7999   -0.7279 H   0  0  0  0  0  0  0  0  0  0  0  0
    2.3732    5.4548    0.2541 C   0  0  0  0  0  0  0  0  0  0  0  0
    1.8387    6.0231   -1.0644 C   0  0  0  0  0  0  0  0  0  0  0  0
    0.6240    5.2098   -1.4707 C   0  0  0  0  0  0  0  0  0  0  0  0
   -0.5024    5.8424   -1.7684 C   0  0  0  0  0  0  0  0  0  0  0  0
   -1.7068    5.0869   -2.1465 C   0  0  0  0  0  0  0  0  0  0  0  0
   -2.7315    5.6648   -2.4579 O   0  0  0  0  0  0  0  0  0  0  0  0
   -1.6446    3.6156   -2.1393 C   0  0  0  0  0  0  0  0  0  0  0  0
   -0.5073    3.0054   -1.8453 C   0  0  0  0  0  0  0  0  0  0  0  0
    0.7607    3.7167   -1.5185 C   0  0  2  0  0  0  0  0  0  0  0  0
    1.7666    3.3740   -2.6193 C   0  0  0  0  0  0  0  0  0  0  0  0
    0.4160    3.5058    0.8250 F   0  0  0  0  0  0  0  0  0  0  0  0
    0.2721    1.0693   -0.4062 O   0  0  0  0  0  0  0  0  0  0  0  0
    4.3647    1.7709   -0.1614 C   0  0  0  0  0  0  0  0  0  0  0  0
    4.8292    3.1714    4.2009 C   0  0  0  0  0  0  0  0  0  0  0  0
    3.6120    1.0516    3.3986 O   0  0  0  0  0  0  0  0  0  0  0  0
    6.5299   -1.5599    0.5271 H   0  0  0  0  0  0  0  0  0  0  0  0
    7.1335   -1.6105    2.2008 H   0  0  0  0  0  0  0  0  0  0  0  0
    6.0227   -2.8727    1.6168 H   0  0  0  0  0  0  0  0  0  0  0  0
    4.8532   -1.2085    2.9573 H   0  0  0  0  0  0  0  0  0  0  0  0
    4.2287   -1.1790    1.3685 H   0  0  0  0  0  0  0  0  0  0  0  0
    5.2293    4.0951    0.9446 H   0  0  0  0  0  0  0  0  0  0  0  0
    4.4641    4.8911    2.3588 H   0  0  0  0  0  0  0  0  0  0  0  0
    1.6167    1.3520    1.8706 H   0  0  0  0  0  0  0  0  0  0  0  0
    2.4214    0.0977    0.8873 H   0  0  0  0  0  0  0  0  0  0  0  0
    1.6332    5.6046    1.0402 H   0  0  0  0  0  0  0  0  0  0  0  0
    3.2963    5.9688    0.5222 H   0  0  0  0  0  0  0  0  0  0  0  0
    1.5540    7.0662   -0.9270 H   0  0  0  0  0  0  0  0  0  0  0  0
    2.6059    5.9488   -1.8351 H   0  0  0  0  0  0  0  0  0  0  0  0
   -0.5361    6.9213   -1.7334 H   0  0  0  0  0  0  0  0  0  0  0  0
   -2.5252    3.0356   -2.3730 H   0  0  0  0  0  0  0  0  0  0  0  0
   -0.4976    1.9254   -1.8428 H   0  0  0  0  0  0  0  0  0  0  0  0
    1.9152    2.2947   -2.6525 H   0  0  0  0  0  0  0  0  0  0  0  0
    1.3847    3.7180   -3.5804 H   0  0  0  0  0  0  0  0  0  0  0  0
    2.7167    3.8652   -2.4090 H   0  0  0  0  0  0  0  0  0  0  0  0
    0.3205    0.1051   -0.4611 H   0  0  0  0  0  0  0  0  0  0  0  0
    5.2884    2.3428   -0.0731 H   0  0  0  0  0  0  0  0  0  0  0  0
    4.6023    0.7211   -0.3333 H   0  0  0  0  0  0  0  0  0  0  0  0
    3.7796    2.1526   -0.9982 H   0  0  0  0  0  0  0  0  0  0  0  0
    5.1767    2.3582    4.8381 H   0  0  0  0  0  0  0  0  0  0  0  0
    5.3363    4.0947    4.4812 H   0  0  0  0  0  0  0  0  0  0  0  0
    3.7534    3.2957    4.3248 H   0  0  0  0  0  0  0  0  0  0  0  0
    4.1107    0.7980    4.1873 H   0  0  0  0  0  0  0  0  0  0  0  0
  1  2  1  0  0  0  0
  1 33  1  0  0  0  0
  1 34  1  0  0  0  0
  1 35  1  0  0  0  0
  2  3  1  0  0  0  0
  2 36  1  0  0  0  0
  2 37  1  0  0  0  0
  3  4  2  0  0  0  0
  3  5  1  0  0  0  0
  5 11  1  0  0  0  0
  5  6  1  0  0  0  0
  5 32  1  0  0  0  0
  6  7  1  0  0  0  0
  6  8  1  0  0  0  0
  6 31  1  0  0  0  0
  8  9  1  0  0  0  0
  8 38  1  0  0  0  0
  8 39  1  0  0  0  0
  9 10  1  0  0  0  0
  9 16  1  0  0  0  0
  9 11  1  0  0  0  0
 11 12  1  0  0  0  0
 11 30  1  0  0  0  0
 12 13  1  0  0  0  0
 12 40  1  0  0  0  0
 12 41  1  0  0  0  0
 13 14  1  0  0  0  0
 13 15  1  0  0  0  0
 13 29  1  0  0  0  0
 15 26  1  0  0  0  0
 15 16  1  0  0  0  0
 15 28  1  0  0  0  0
 16 17  1  0  0  0  0
 16 18  1  0  0  0  0
 18 19  1  0  0  0  0
 18 42  1  0  0  0  0
 18 43  1  0  0  0  0
 19 20  1  0  0  0  0
 19 44  1  0  0  0  0
 19 45  1  0  0  0  0
 20 26  1  0  0  0  0
 20 21  2  0  0  0  0
 21 22  1  0  0  0  0
 21 46  1  0  0  0  0
 22 23  2  0  0  0  0
 22 24  1  0  0  0  0
 24 25  2  0  0  0  0
 24 47  1  0  0  0  0
 25 26  1  0  0  0  0
 25 48  1  0  0  0  0
 26 27  1  0  0  0  0
 27 49  1  0  0  0  0
 27 50  1  0  0  0  0
 27 51  1  0  0  0  0
 29 52  1  0  0  0  0
 30 53  1  0  0  0  0
 30 54  1  0  0  0  0
 30 55  1  0  0  0  0
 31 56  1  0  0  0  0
 31 57  1  0  0  0  0
 31 58  1  0  0  0  0
 32 59  1  0  0  0  0
M  END
$$$$
ZINC03833821
  -OEChem-08230709403D

 54 57  0     1  0  0  0  0  0999 V2000
    3.6742   -2.2197    0.1918 C   0  0  0  0  0  0  0  0  0  0  0  0
    3.1296   -2.0875    1.6154 C   0  0  2  0  0  0  0  0  0  0  0  0
    1.7192   -2.6413    1.6796 C   0  0  0  0  0  0  0  0  0  0  0  0
    0.8980   -1.9191    0.5999 C   0  0  1  0  0  0  0  0  0  0  0  0
   -0.1329   -2.2702    0.6432 H   0  0  0  0  0  0  0  0  0  0  0  0
    0.9167   -0.4057    0.7942 C   0  0  1  0  0  0  0  0  0  0  0  0
    0.3983   -0.1561    1.7200 H   0  0  0  0  0  0  0  0  0  0  0  0
    2.3588    0.1217    0.8637 C   0  0  2  0  0  0  0  0  0  0  0  0
    2.8716   -0.0852   -0.0756 H   0  0  0  0  0  0  0  0  0  0  0  0
    3.0507   -0.5886    2.0116 C   0  0  2  0  0  0  0  0  0  0  0  0
    2.5022   -0.4699    2.9460 H   0  0  0  0  0  0  0  0  0  0  0  0
    4.5302   -0.2423    2.2136 C   0  0  0  0  0  0  0  0  0  0  0  0
    5.0797   -1.4873    2.9620 C   0  0  0  0  0  0  0  0  0  0  0  0
    4.1319   -2.6614    2.6115 C   0  0  2  0  0  0  0  0  0  0  0  0
    4.9082   -3.7885    1.9804 C   0  0  0  0  0  0  0  0  0  0  0  0
    5.9649   -3.5655    1.4401 O   0  0  0  0  0  0  0  0  0  0  0  0
    4.3656   -5.1938    2.0235 C   0  0  0  0  0  0  0  0  0  0  0  0
    5.2755   -6.0761    1.3634 O   0  0  0  0  0  0  0  0  0  0  0  0
    3.4569   -3.1199    3.7846 O   0  0  0  0  0  0  0  0  0  0  0  0
    2.3404    1.6261    1.1416 C   0  0  0  0  0  0  0  0  0  0  0  0
    1.6796    2.3566   -0.0318 C   0  0  0  0  0  0  0  0  0  0  0  0
    0.3045    1.7540   -0.2504 C   0  0  0  0  0  0  0  0  0  0  0  0
   -0.7466    2.5607   -0.3065 C   0  0  0  0  0  0  0  0  0  0  0  0
   -2.1005    2.0141   -0.4847 C   0  0  0  0  0  0  0  0  0  0  0  0
   -3.0630    2.7531   -0.5761 O   0  0  0  0  0  0  0  0  0  0  0  0
   -2.2648    0.5521   -0.5495 C   0  0  0  0  0  0  0  0  0  0  0  0
   -1.2009   -0.2339   -0.4967 C   0  0  0  0  0  0  0  0  0  0  0  0
    0.1992    0.2637   -0.3817 C   0  0  2  0  0  0  0  0  0  0  0  0
    0.9276   -0.1444   -1.6638 C   0  0  0  0  0  0  0  0  0  0  0  0
    1.4409   -2.2306   -0.6847 O   0  0  0  0  0  0  0  0  0  0  0  0
    3.1360   -1.5390   -0.4678 H   0  0  0  0  0  0  0  0  0  0  0  0
    4.7352   -1.9702    0.1840 H   0  0  0  0  0  0  0  0  0  0  0  0
    3.5393   -3.2442   -0.1551 H   0  0  0  0  0  0  0  0  0  0  0  0
    1.2896   -2.4498    2.6629 H   0  0  0  0  0  0  0  0  0  0  0  0
    1.7319   -3.7131    1.4813 H   0  0  0  0  0  0  0  0  0  0  0  0
    5.0314   -0.1168    1.2539 H   0  0  0  0  0  0  0  0  0  0  0  0
    4.6365    0.6535    2.8255 H   0  0  0  0  0  0  0  0  0  0  0  0
    6.0919   -1.7101    2.6245 H   0  0  0  0  0  0  0  0  0  0  0  0
    5.0740   -1.3101    4.0375 H   0  0  0  0  0  0  0  0  0  0  0  0
    4.2556   -5.4796    2.9755 H   0  0  0  0  0  0  0  0  0  0  0  0
    3.3991   -5.2257    1.5206 H   0  0  0  0  0  0  0  0  0  0  0  0
    4.9897   -6.9998    1.3528 H   0  0  0  0  0  0  0  0  0  0  0  0
    4.0441   -3.4958    4.4547 H   0  0  0  0  0  0  0  0  0  0  0  0
    1.7762    1.8198    2.0539 H   0  0  0  0  0  0  0  0  0  0  0  0
    3.3622    1.9853    1.2638 H   0  0  0  0  0  0  0  0  0  0  0  0
    2.2835    2.2307   -0.9304 H   0  0  0  0  0  0  0  0  0  0  0  0
    1.5836    3.4169    0.2021 H   0  0  0  0  0  0  0  0  0  0  0  0
   -0.6073    3.6283   -0.2209 H   0  0  0  0  0  0  0  0  0  0  0  0
   -3.2513    0.1219   -0.6396 H   0  0  0  0  0  0  0  0  0  0  0  0
   -1.3571   -1.3017   -0.5399 H   0  0  0  0  0  0  0  0  0  0  0  0
    2.0029   -0.1481   -1.4853 H   0  0  0  0  0  0  0  0  0  0  0  0
    0.6055   -1.1418   -1.9630 H   0  0  0  0  0  0  0  0  0  0  0  0
    0.6934    0.5661   -2.4566 H   0  0  0  0  0  0  0  0  0  0  0  0
    1.4632   -3.1767   -0.8834 H   0  0  0  0  0  0  0  0  0  0  0  0
  1  2  1  0  0  0  0
  1 31  1  0  0  0  0
  1 32  1  0  0  0  0
  1 33  1  0  0  0  0
  2 10  1  0  0  0  0
  2 14  1  0  0  0  0
  2  3  1  0  0  0  0
  3  4  1  0  0  0  0
  3 34  1  0  0  0  0
  3 35  1  0  0  0  0
  4  5  1  0  0  0  0
  4  6  1  0  0  0  0
  4 30  1  0  0  0  0
  6  7  1  0  0  0  0
  6 28  1  0  0  0  0
  6  8  1  0  0  0  0
  8  9  1  0  0  0  0
  8 10  1  0  0  0  0
  8 20  1  0  0  0  0
 10 11  1  0  0  0  0
 10 12  1  0  0  0  0
 12 13  1  0  0  0  0
 12 36  1  0  0  0  0
 12 37  1  0  0  0  0
 13 14  1  0  0  0  0
 13 38  1  0  0  0  0
 13 39  1  0  0  0  0
 14 15  1  0  0  0  0
 14 19  1  0  0  0  0
 15 16  2  0  0  0  0
 15 17  1  0  0  0  0
 17 18  1  0  0  0  0
 17 40  1  0  0  0  0
 17 41  1  0  0  0  0
 18 42  1  0  0  0  0
 19 43  1  0  0  0  0
 20 21  1  0  0  0  0
 20 44  1  0  0  0  0
 20 45  1  0  0  0  0
 21 22  1  0  0  0  0
 21 46  1  0  0  0  0
 21 47  1  0  0  0  0
 22 28  1  0  0  0  0
 22 23  2  0  0  0  0
 23 24  1  0  0  0  0
 23 48  1  0  0  0  0
 24 25  2  0  0  0  0
 24 26  1  0  0  0  0
 26 27  2  0  0  0  0
 26 49  1  0  0  0  0
 27 28  1  0  0  0  0
 27 50  1  0  0  0  0
 28 29  1  0  0  0  0
 29 51  1  0  0  0  0
 29 52  1  0  0  0  0
 29 53  1  0  0  0  0
 30 54  1  0  0  0  0
M  END
$$$$
ZINC03833822
  -OEChem-08230709403D

 56 59  0     1  0  0  0  0  0999 V2000
   -0.9905   -2.7188   -0.0223 C   0  0  0  0  0  0  0  0  0  0  0  0
   -1.6780   -2.6584    1.3431 C   0  0  2  0  0  0  0  0  0  0  0  0
   -1.1056   -3.8072    2.1370 C   0  0  0  0  0  0  0  0  0  0  0  0
   -2.1160   -4.3672    3.1374 C   0  0  0  0  0  0  0  0  0  0  0  0
   -3.3708   -4.7324    2.3667 C   0  0  0  0  0  0  0  0  0  0  0  0
   -3.8772   -5.8321    2.4466 O   0  0  0  0  0  0  0  0  0  0  0  0
   -3.9366   -3.6744    1.5177 C   0  0  0  0  0  0  0  0  0  0  0  0
   -3.1357   -2.7145    1.0634 C   0  0  0  0  0  0  0  0  0  0  0  0
   -3.7317   -1.5985    0.2221 C   0  0  0  0  0  0  0  0  0  0  0  0
   -3.3264   -0.2663    0.8634 C   0  0  0  0  0  0  0  0  0  0  0  0
   -1.8058   -0.1952    1.0037 C   0  0  2  0  0  0  0  0  0  0  0  0
   -1.3417   -0.3172    0.0250 H   0  0  0  0  0  0  0  0  0  0  0  0
   -1.3141   -1.3032    1.9507 C   0  0  2  0  0  0  0  0  0  0  0  0
   -1.8206   -1.2061    2.9110 H   0  0  0  0  0  0  0  0  0  0  0  0
    0.1939   -1.2290    2.1676 C   0  0  2  0  0  0  0  0  0  0  0  0
    0.4818   -1.9698    2.9135 H   0  0  0  0  0  0  0  0  0  0  0  0
    0.6296    0.1639    2.6499 C   0  0  0  0  0  0  0  0  0  0  0  0
    0.1648    1.1645    1.6094 C   0  0  1  0  0  0  0  0  0  0  0  0
   -1.3875    1.1339    1.6042 C   0  0  1  0  0  0  0  0  0  0  0  0
   -1.7740    1.2319    2.6187 H   0  0  0  0  0  0  0  0  0  0  0  0
   -1.7195    2.3744    0.7673 C   0  0  0  0  0  0  0  0  0  0  0  0
   -0.7026    3.4271    1.2867 C   0  0  0  0  0  0  0  0  0  0  0  0
    0.4890    2.6297    1.8815 C   0  0  2  0  0  0  0  0  0  0  0  0
    1.7740    3.0162    1.1956 C   0  0  0  0  0  0  0  0  0  0  0  0
    1.7456    3.5095    0.0937 O   0  0  0  0  0  0  0  0  0  0  0  0
    3.0945    2.7870    1.8847 C   0  0  0  0  0  0  0  0  0  0  0  0
    4.1568    3.2318    1.0387 O   0  0  0  0  0  0  0  0  0  0  0  0
    0.5883    2.8618    3.2880 O   0  0  0  0  0  0  0  0  0  0  0  0
    0.6957    0.7635    0.2316 C   0  0  0  0  0  0  0  0  0  0  0  0
    0.8572   -1.5248    0.9369 O   0  0  0  0  0  0  0  0  0  0  0  0
    0.0622   -2.9678    0.1116 H   0  0  0  0  0  0  0  0  0  0  0  0
   -1.4689   -3.4817   -0.6365 H   0  0  0  0  0  0  0  0  0  0  0  0
   -1.0750   -1.7502   -0.5149 H   0  0  0  0  0  0  0  0  0  0  0  0
   -0.2251   -3.4633    2.6798 H   0  0  0  0  0  0  0  0  0  0  0  0
   -0.8094   -4.6019    1.4523 H   0  0  0  0  0  0  0  0  0  0  0  0
   -2.3178   -3.6749    3.8303 H   0  0  0  0  0  0  0  0  0  0  0  0
   -1.7064   -5.2550    3.6191 H   0  0  0  0  0  0  0  0  0  0  0  0
   -4.9871   -3.6760    1.2669 H   0  0  0  0  0  0  0  0  0  0  0  0
   -4.8181   -1.6865    0.2074 H   0  0  0  0  0  0  0  0  0  0  0  0
   -3.3419   -1.6533   -0.7944 H   0  0  0  0  0  0  0  0  0  0  0  0
   -3.7849   -0.1848    1.8489 H   0  0  0  0  0  0  0  0  0  0  0  0
   -3.6708    0.5565    0.2368 H   0  0  0  0  0  0  0  0  0  0  0  0
    1.7150    0.2019    2.7427 H   0  0  0  0  0  0  0  0  0  0  0  0
    0.1660    0.3856    3.6112 H   0  0  0  0  0  0  0  0  0  0  0  0
   -1.5628    2.1774   -0.2932 H   0  0  0  0  0  0  0  0  0  0  0  0
   -2.7435    2.7003    0.9504 H   0  0  0  0  0  0  0  0  0  0  0  0
   -0.3594    4.0537    0.4635 H   0  0  0  0  0  0  0  0  0  0  0  0
   -1.1636    4.0435    2.0586 H   0  0  0  0  0  0  0  0  0  0  0  0
    3.1156    3.2989    2.7435 H   0  0  0  0  0  0  0  0  0  0  0  0
    3.2163    1.7239    2.0923 H   0  0  0  0  0  0  0  0  0  0  0  0
    5.0380    3.1145    1.4192 H   0  0  0  0  0  0  0  0  0  0  0  0
    0.7932    3.7774    3.5221 H   0  0  0  0  0  0  0  0  0  0  0  0
    0.1888   -0.1413   -0.1038 H   0  0  0  0  0  0  0  0  0  0  0  0
    1.7677    0.5769    0.2955 H   0  0  0  0  0  0  0  0  0  0  0  0
    0.5088    1.5691   -0.4784 H   0  0  0  0  0  0  0  0  0  0  0  0
    1.8220   -1.5298    1.0013 H   0  0  0  0  0  0  0  0  0  0  0  0
  1  2  1  0  0  0  0
  1 31  1  0  0  0  0
  1 32  1  0  0  0  0
  1 33  1  0  0  0  0
  2  8  1  0  0  0  0
  2 13  1  0  0  0  0
  2  3  1  0  0  0  0
  3  4  1  0  0  0  0
  3 34  1  0  0  0  0
  3 35  1  0  0  0  0
  4  5  1  0  0  0  0
  4 36  1  0  0  0  0
  4 37  1  0  0  0  0
  5  6  2  0  0  0  0
  5  7  1  0  0  0  0
  7  8  2  0  0  0  0
  7 38  1  0  0  0  0
  8  9  1  0  0  0  0
  9 10  1  0  0  0  0
  9 39  1  0  0  0  0
  9 40  1  0  0  0  0
 10 11  1  0  0  0  0
 10 41  1  0  0  0  0
 10 42  1  0  0  0  0
 11 12  1  0  0  0  0
 11 19  1  0  0  0  0
 11 13  1  0  0  0  0
 13 14  1  0  0  0  0
 13 15  1  0  0  0  0
 15 16  1  0  0  0  0
 15 17  1  0  0  0  0
 15 30  1  0  0  0  0
 17 18  1  0  0  0  0
 17 43  1  0  0  0  0
 17 44  1  0  0  0  0
 18 23  1  0  0  0  0
 18 19  1  0  0  0  0
 18 29  1  0  0  0  0
 19 20  1  0  0  0  0
 19 21  1  0  0  0  0
 21 22  1  0  0  0  0
 21 45  1  0  0  0  0
 21 46  1  0  0  0  0
 22 23  1  0  0  0  0
 22 47  1  0  0  0  0
 22 48  1  0  0  0  0
 23 24  1  0  0  0  0
 23 28  1  0  0  0  0
 24 25  2  0  0  0  0
 24 26  1  0  0  0  0
 26 27  1  0  0  0  0
 26 49  1  0  0  0  0
 26 50  1  0  0  0  0
 27 51  1  0  0  0  0
 28 52  1  0  0  0  0
 29 53  1  0  0  0  0
 29 54  1  0  0  0  0
 29 55  1  0  0  0  0
 30 56  1  0  0  0  0
M  END
$$$$
ZINC03833823
  -OEChem-08230709403D

 54 57  0     1  0  0  0  0  0999 V2000
    6.3886    3.7827    0.2158 C   0  0  0  0  0  0  0  0  0  0  0  0
    5.9162    3.7099    1.6693 C   0  0  2  0  0  0  0  0  0  0  0  0
    5.7709    2.2612    2.0941 C   0  0  0  0  0  0  0  0  0  0  0  0
    4.8491    1.5906    1.0650 C   0  0  0  0  0  0  0  0  0  0  0  0
    3.4905    2.2806    0.9873 C   0  0  1  0  0  0  0  0  0  0  0  0
    2.9696    2.1464    1.9353 H   0  0  0  0  0  0  0  0  0  0  0  0
    3.6411    3.7830    0.7077 C   0  0  2  0  0  0  0  0  0  0  0  0
    4.0988    3.9359   -0.2696 H   0  0  0  0  0  0  0  0  0  0  0  0
    4.5164    4.3677    1.8013 C   0  0  2  0  0  0  0  0  0  0  0  0
    4.0803    4.1718    2.7809 H   0  0  0  0  0  0  0  0  0  0  0  0
    4.8575    5.8552    1.6569 C   0  0  0  0  0  0  0  0  0  0  0  0
    6.1558    5.9974    2.4972 C   0  0  0  0  0  0  0  0  0  0  0  0
    6.8017    4.5902    2.5452 C   0  0  2  0  0  0  0  0  0  0  0  0
    6.8237    4.2211    3.4743 H   0  0  0  0  0  0  0  0  0  0  0  0
    8.2026    4.6396    1.9920 C   0  0  0  0  0  0  0  0  0  0  0  0
    8.5072    5.4938    1.1946 O   0  0  0  0  0  0  0  0  0  0  0  0
    9.2235    3.6229    2.4340 C   0  0  0  0  0  0  0  0  0  0  0  0
   10.4654    3.8773    1.7745 O   0  0  0  0  0  0  0  0  0  0  0  0
    2.2581    4.4397    0.7459 C   0  0  0  0  0  0  0  0  0  0  0  0
    1.4077    3.8901   -0.4015 C   0  0  0  0  0  0  0  0  0  0  0  0
    1.3650    2.3677   -0.2904 C   0  0  0  0  0  0  0  0  0  0  0  0
    0.1824    1.7594   -0.3747 C   0  0  0  0  0  0  0  0  0  0  0  0
    0.1050    0.2951   -0.3282 C   0  0  0  0  0  0  0  0  0  0  0  0
   -0.9204   -0.2808   -0.0301 O   0  0  0  0  0  0  0  0  0  0  0  0
    1.3737   -0.4607   -0.6715 C   0  0  0  0  0  0  0  0  0  0  0  0
    2.5078    0.1530    0.1488 C   0  0  0  0  0  0  0  0  0  0  0  0
    2.6629    1.6369   -0.1322 C   0  0  2  0  0  0  0  0  0  0  0  0
    3.4392    1.7924   -1.4415 C   0  0  0  0  0  0  0  0  0  0  0  0
    6.4572    4.8261   -0.0921 H   0  0  0  0  0  0  0  0  0  0  0  0
    7.3681    3.3128    0.1281 H   0  0  0  0  0  0  0  0  0  0  0  0
    5.6768    3.2611   -0.4241 H   0  0  0  0  0  0  0  0  0  0  0  0
    6.7460    1.7740    2.0923 H   0  0  0  0  0  0  0  0  0  0  0  0
    5.3316    2.2086    3.0903 H   0  0  0  0  0  0  0  0  0  0  0  0
    4.7033    0.5505    1.3567 H   0  0  0  0  0  0  0  0  0  0  0  0
    5.3194    1.6201    0.0822 H   0  0  0  0  0  0  0  0  0  0  0  0
    5.0439    6.1085    0.6132 H   0  0  0  0  0  0  0  0  0  0  0  0
    4.0614    6.4752    2.0691 H   0  0  0  0  0  0  0  0  0  0  0  0
    6.8346    6.7045    2.0203 H   0  0  0  0  0  0  0  0  0  0  0  0
    5.9139    6.3335    3.5055 H   0  0  0  0  0  0  0  0  0  0  0  0
    9.3520    3.6881    3.4236 H   0  0  0  0  0  0  0  0  0  0  0  0
    8.8744    2.6226    2.1781 H   0  0  0  0  0  0  0  0  0  0  0  0
   11.1705    3.2596    2.0119 H   0  0  0  0  0  0  0  0  0  0  0  0
    1.7749    4.2157    1.6970 H   0  0  0  0  0  0  0  0  0  0  0  0
    2.3643    5.5189    0.6359 H   0  0  0  0  0  0  0  0  0  0  0  0
    0.3948    4.2860   -0.3278 H   0  0  0  0  0  0  0  0  0  0  0  0
    1.8465    4.1840   -1.3549 H   0  0  0  0  0  0  0  0  0  0  0  0
   -0.7191    2.3444   -0.4818 H   0  0  0  0  0  0  0  0  0  0  0  0
    1.2570   -1.4278   -0.4455 H   0  0  0  0  0  0  0  0  0  0  0  0
    1.5890   -0.3593   -1.7352 H   0  0  0  0  0  0  0  0  0  0  0  0
    2.2967    0.0119    1.2088 H   0  0  0  0  0  0  0  0  0  0  0  0
    3.4404   -0.3541   -0.0985 H   0  0  0  0  0  0  0  0  0  0  0  0
    2.8880    1.3121   -2.2499 H   0  0  0  0  0  0  0  0  0  0  0  0
    3.5643    2.8516   -1.6662 H   0  0  0  0  0  0  0  0  0  0  0  0
    4.4184    1.3242   -1.3411 H   0  0  0  0  0  0  0  0  0  0  0  0
  1  2  1  0  0  0  0
  1 29  1  0  0  0  0
  1 30  1  0  0  0  0
  1 31  1  0  0  0  0
  2  9  1  0  0  0  0
  2 13  1  0  0  0  0
  2  3  1  0  0  0  0
  3  4  1  0  0  0  0
  3 32  1  0  0  0  0
  3 33  1  0  0  0  0
  4  5  1  0  0  0  0
  4 34  1  0  0  0  0
  4 35  1  0  0  0  0
  5  6  1  0  0  0  0
  5 27  1  0  0  0  0
  5  7  1  0  0  0  0
  7  8  1  0  0  0  0
  7  9  1  0  0  0  0
  7 19  1  0  0  0  0
  9 10  1  0  0  0  0
  9 11  1  0  0  0  0
 11 12  1  0  0  0  0
 11 36  1  0  0  0  0
 11 37  1  0  0  0  0
 12 13  1  0  0  0  0
 12 38  1  0  0  0  0
 12 39  1  0  0  0  0
 13 14  1  0  0  0  0
 13 15  1  0  0  0  0
 15 16  2  0  0  0  0
 15 17  1  0  0  0  0
 17 18  1  0  0  0  0
 17 40  1  0  0  0  0
 17 41  1  0  0  0  0
 18 42  1  0  0  0  0
 19 20  1  0  0  0  0
 19 43  1  0  0  0  0
 19 44  1  0  0  0  0
 20 21  1  0  0  0  0
 20 45  1  0  0  0  0
 20 46  1  0  0  0  0
 21 27  1  0  0  0  0
 21 22  2  0  0  0  0
 22 23  1  0  0  0  0
 22 47  1  0  0  0  0
 23 24  2  0  0  0  0
 23 25  1  0  0  0  0
 25 26  1  0  0  0  0
 25 48  1  0  0  0  0
 25 49  1  0  0  0  0
 26 27  1  0  0  0  0
 26 50  1  0  0  0  0
 26 51  1  0  0  0  0
 27 28  1  0  0  0  0
 28 52  1  0  0  0  0
 28 53  1  0  0  0  0
 28 54  1  0  0  0  0
M  END
$$$$
ZINC03833824
  -OEChem-08230709403D

 54 57  0     1  0  0  0  0  0999 V2000
    0.2967    2.4906   -2.2146 C   0  0  0  0  0  0  0  0  0  0  0  0
    1.0442    2.0642   -0.9495 C   0  0  2  0  0  0  0  0  0  0  0  0
    0.5623    2.9515    0.1843 C   0  0  0  0  0  0  0  0  0  0  0  0
    1.2506    4.3157    0.1651 C   0  0  0  0  0  0  0  0  0  0  0  0
    2.7441    4.0718    0.2594 C   0  0  0  0  0  0  0  0  0  0  0  0
    3.4387    4.6649    1.0580 O   0  0  0  0  0  0  0  0  0  0  0  0
    3.3052    3.0814   -0.6660 C   0  0  0  0  0  0  0  0  0  0  0  0
    2.5135    2.1653   -1.2225 C   0  0  0  0  0  0  0  0  0  0  0  0
    3.1395    1.1899   -2.2026 C   0  0  0  0  0  0  0  0  0  0  0  0
    2.7054   -0.2290   -1.8281 C   0  0  0  0  0  0  0  0  0  0  0  0
    1.1761   -0.2933   -1.7827 C   0  0  2  0  0  0  0  0  0  0  0  0
    0.7528    0.0319   -2.7331 H   0  0  0  0  0  0  0  0  0  0  0  0
    0.6696    0.6080   -0.6472 C   0  0  2  0  0  0  0  0  0  0  0  0
    1.1545    0.3024    0.2800 H   0  0  0  0  0  0  0  0  0  0  0  0
   -0.8427    0.5059   -0.4737 C   0  0  2  0  0  0  0  0  0  0  0  0
   -1.1398    1.0830    0.4020 H   0  0  0  0  0  0  0  0  0  0  0  0
   -1.2974   -0.9509   -0.2916 C   0  0  0  0  0  0  0  0  0  0  0  0
   -0.8204   -1.7231   -1.5066 C   0  0  1  0  0  0  0  0  0  0  0  0
    0.7316   -1.7117   -1.4754 C   0  0  1  0  0  0  0  0  0  0  0  0
    1.0954   -2.0308   -0.4987 H   0  0  0  0  0  0  0  0  0  0  0  0
    1.0710   -2.7608   -2.5402 C   0  0  0  0  0  0  0  0  0  0  0  0
    0.0344   -3.8840   -2.2649 C   0  0  0  0  0  0  0  0  0  0  0  0
   -1.1635   -3.2085   -1.5470 C   0  0  2  0  0  0  0  0  0  0  0  0
   -1.2805   -3.5491   -0.6141 H   0  0  0  0  0  0  0  0  0  0  0  0
   -2.4350   -3.4298   -2.3250 C   0  0  0  0  0  0  0  0  0  0  0  0
   -2.3835   -3.7264   -3.4944 O   0  0  0  0  0  0  0  0  0  0  0  0
   -3.7709   -3.2808   -1.6436 C   0  0  0  0  0  0  0  0  0  0  0  0
   -4.8163   -3.5390   -2.5831 O   0  0  0  0  0  0  0  0  0  0  0  0
   -1.3110   -1.0513   -2.7633 C   0  0  0  0  0  0  0  0  0  0  0  0
   -0.6040   -1.0104   -3.7415 O   0  0  0  0  0  0  0  0  0  0  0  0
   -1.4822    1.0526   -1.6288 O   0  0  0  0  0  0  0  0  0  0  0  0
   -0.7329    2.7426   -1.9607 H   0  0  0  0  0  0  0  0  0  0  0  0
    0.7870    3.3611   -2.6503 H   0  0  0  0  0  0  0  0  0  0  0  0
    0.3035    1.6717   -2.9340 H   0  0  0  0  0  0  0  0  0  0  0  0
   -0.5142    3.0948    0.0908 H   0  0  0  0  0  0  0  0  0  0  0  0
    0.7732    2.4605    1.1343 H   0  0  0  0  0  0  0  0  0  0  0  0
    0.9317    4.8609    0.9404 H   0  0  0  0  0  0  0  0  0  0  0  0
    1.0181    4.8349   -0.7647 H   0  0  0  0  0  0  0  0  0  0  0  0
    4.3603    3.0945   -0.8960 H   0  0  0  0  0  0  0  0  0  0  0  0
    4.2256    1.2656   -2.1506 H   0  0  0  0  0  0  0  0  0  0  0  0
    2.8026    1.4204   -3.2133 H   0  0  0  0  0  0  0  0  0  0  0  0
    3.1098   -0.4870   -0.8493 H   0  0  0  0  0  0  0  0  0  0  0  0
    3.0774   -0.9327   -2.5727 H   0  0  0  0  0  0  0  0  0  0  0  0
   -0.8530   -1.3685    0.6119 H   0  0  0  0  0  0  0  0  0  0  0  0
   -2.3845   -0.9951   -0.2251 H   0  0  0  0  0  0  0  0  0  0  0  0
    0.9386   -2.3508   -3.5415 H   0  0  0  0  0  0  0  0  0  0  0  0
    2.0880   -3.1299   -2.4075 H   0  0  0  0  0  0  0  0  0  0  0  0
   -0.2966   -4.3261   -3.2046 H   0  0  0  0  0  0  0  0  0  0  0  0
    0.4736   -4.6499   -1.6256 H   0  0  0  0  0  0  0  0  0  0  0  0
   -3.8339   -3.9322   -0.8875 H   0  0  0  0  0  0  0  0  0  0  0  0
   -3.8711   -2.2661   -1.2583 H   0  0  0  0  0  0  0  0  0  0  0  0
   -5.7061   -3.4610   -2.2126 H   0  0  0  0  0  0  0  0  0  0  0  0
   -2.2948   -0.6065   -2.7890 H   0  0  0  0  0  0  0  0  0  0  0  0
   -2.4481    1.0239   -1.5942 H   0  0  0  0  0  0  0  0  0  0  0  0
  1  2  1  0  0  0  0
  1 32  1  0  0  0  0
  1 33  1  0  0  0  0
  1 34  1  0  0  0  0
  2  8  1  0  0  0  0
  2 13  1  0  0  0  0
  2  3  1  0  0  0  0
  3  4  1  0  0  0  0
  3 35  1  0  0  0  0
  3 36  1  0  0  0  0
  4  5  1  0  0  0  0
  4 37  1  0  0  0  0
  4 38  1  0  0  0  0
  5  6  2  0  0  0  0
  5  7  1  0  0  0  0
  7  8  2  0  0  0  0
  7 39  1  0  0  0  0
  8  9  1  0  0  0  0
  9 10  1  0  0  0  0
  9 40  1  0  0  0  0
  9 41  1  0  0  0  0
 10 11  1  0  0  0  0
 10 42  1  0  0  0  0
 10 43  1  0  0  0  0
 11 12  1  0  0  0  0
 11 19  1  0  0  0  0
 11 13  1  0  0  0  0
 13 14  1  0  0  0  0
 13 15  1  0  0  0  0
 15 16  1  0  0  0  0
 15 17  1  0  0  0  0
 15 31  1  0  0  0  0
 17 18  1  0  0  0  0
 17 44  1  0  0  0  0
 17 45  1  0  0  0  0
 18 23  1  0  0  0  0
 18 19  1  0  0  0  0
 18 29  1  0  0  0  0
 19 20  1  0  0  0  0
 19 21  1  0  0  0  0
 21 22  1  0  0  0  0
 21 46  1  0  0  0  0
 21 47  1  0  0  0  0
 22 23  1  0  0  0  0
 22 48  1  0  0  0  0
 22 49  1  0  0  0  0
 23 24  1  0  0  0  0
 23 25  1  0  0  0  0
 25 26  2  0  0  0  0
 25 27  1  0  0  0  0
 27 28  1  0  0  0  0
 27 50  1  0  0  0  0
 27 51  1  0  0  0  0
 28 52  1  0  0  0  0
 29 30  2  0  0  0  0
 29 53  1  0  0  0  0
 31 54  1  0  0  0  0
M  END
$$$$
ZINC03833825
  -OEChem-08230709403D

 61 65  0     1  0  0  0  0  0999 V2000
   -1.2926   -0.7753    0.0102 C   0  0  0  0  0  0  0  0  0  0  0  0
    0.0021   -0.0041    0.0020 C   0  0  0  0  0  0  0  0  0  0  0  0
    1.0609   -0.5963   -0.0113 O   0  0  0  0  0  0  0  0  0  0  0  0
   -0.0211    1.7077    0.0114 S   0  0  0  0  0  0  0  0  0  0  0  0
    1.7697    2.0487   -0.0038 C   0  0  2  0  0  0  0  0  0  0  0  0
    2.2166    1.4703   -0.8138 H   0  0  0  0  0  0  0  0  0  0  0  0
    2.2995    1.5052    1.3255 C   0  0  0  0  0  0  0  0  0  0  0  0
    3.6281    2.0974    1.7182 C   0  0  0  0  0  0  0  0  0  0  0  0
    4.5899    1.2749    2.1352 C   0  0  0  0  0  0  0  0  0  0  0  0
    5.8931    1.8317    2.5180 C   0  0  0  0  0  0  0  0  0  0  0  0
    6.9157    1.1871    2.4427 O   0  0  0  0  0  0  0  0  0  0  0  0
    5.8762    3.2653    3.0124 C   0  0  0  0  0  0  0  0  0  0  0  0
    5.1700    4.1078    1.9526 C   0  0  0  0  0  0  0  0  0  0  0  0
    3.7895    3.5842    1.6079 C   0  0  1  0  0  0  0  0  0  0  0  0
    3.4361    3.9541    0.1669 C   0  0  2  0  0  0  0  0  0  0  0  0
    3.5352    5.0310    0.0309 H   0  0  0  0  0  0  0  0  0  0  0  0
    2.0143    3.5287   -0.2067 C   0  0  1  0  0  0  0  0  0  0  0  0
    1.3184    4.0771    0.4614 H   0  0  0  0  0  0  0  0  0  0  0  0
    1.7288    4.0362   -1.6154 C   0  0  2  0  0  0  0  0  0  0  0  0
    1.6088    5.1455   -1.5794 H   0  0  0  0  0  0  0  0  0  0  0  0
    0.4617    3.3947   -2.2242 C   0  0  0  0  0  0  0  0  0  0  0  0
    0.9522    2.0997   -2.9052 C   0  0  0  0  0  0  0  0  0  0  0  0
    2.4576    2.2883   -3.1564 C   0  0  2  0  0  0  0  0  0  0  0  0
    2.8023    3.6868   -2.6592 C   0  0  2  0  0  0  0  0  0  0  0  0
    4.2246    3.8188   -2.1742 C   0  0  0  0  0  0  0  0  0  0  0  0
    4.4072    3.2320   -0.7774 C   0  0  0  0  0  0  0  0  0  0  0  0
    2.6271    4.6798   -3.8235 C   0  0  0  0  0  0  0  0  0  0  0  0
    2.7768    2.1012   -4.6485 C   0  0  0  0  0  0  0  0  0  0  0  0
    3.0564    0.5744   -4.6955 C   0  0  0  0  0  0  0  0  0  0  0  0
    3.5865    0.2770   -3.3047 C   0  0  0  0  0  0  0  0  0  0  0  0
    4.2351   -0.7007   -2.9937 O   0  0  0  0  0  0  0  0  0  0  0  0
    3.2264    1.2673   -2.4726 O   0  0  0  0  0  0  0  0  0  0  0  0
    2.7934    4.2521    2.5553 C   0  0  0  0  0  0  0  0  0  0  0  0
   -2.0614   -0.1359    0.0210 H   0  0  0  0  0  0  0  0  0  0  0  0
   -1.3504   -1.3978   -0.8826 H   0  0  0  0  0  0  0  0  0  0  0  0
   -1.3334   -1.4074    0.8973 H   0  0  0  0  0  0  0  0  0  0  0  0
    1.5586    1.7007    2.1087 H   0  0  0  0  0  0  0  0  0  0  0  0
    2.4019    0.4147    1.2376 H   0  0  0  0  0  0  0  0  0  0  0  0
    4.4148    0.2129    2.1919 H   0  0  0  0  0  0  0  0  0  0  0  0
    5.3884    3.3115    3.8841 H   0  0  0  0  0  0  0  0  0  0  0  0
    6.8991    3.6202    3.1455 H   0  0  0  0  0  0  0  0  0  0  0  0
    5.0676    5.1292    2.3356 H   0  0  0  0  0  0  0  0  0  0  0  0
    5.7883    4.1449    1.0584 H   0  0  0  0  0  0  0  0  0  0  0  0
   -0.3291    3.2367   -1.5107 H   0  0  0  0  0  0  0  0  0  0  0  0
    0.0492    4.0657   -3.0042 H   0  0  0  0  0  0  0  0  0  0  0  0
    0.7839    1.2341   -2.2691 H   0  0  0  0  0  0  0  0  0  0  0  0
    0.4343    1.9599   -3.8572 H   0  0  0  0  0  0  0  0  0  0  0  0
    4.8879    3.3008   -2.8696 H   0  0  0  0  0  0  0  0  0  0  0  0
    4.4976    4.8761   -2.1559 H   0  0  0  0  0  0  0  0  0  0  0  0
    5.4341    3.3852   -0.4503 H   0  0  0  0  0  0  0  0  0  0  0  0
    4.1867    2.1659   -0.7854 H   0  0  0  0  0  0  0  0  0  0  0  0
    2.7599    5.6974   -3.4563 H   0  0  0  0  0  0  0  0  0  0  0  0
    3.3699    4.4715   -4.5936 H   0  0  0  0  0  0  0  0  0  0  0  0
    1.6274    4.5732   -4.2447 H   0  0  0  0  0  0  0  0  0  0  0  0
    1.9265    2.3519   -5.2737 H   0  0  0  0  0  0  0  0  0  0  0  0
    3.6762    2.6385   -4.9427 H   0  0  0  0  0  0  0  0  0  0  0  0
    2.1370    0.0244   -4.8855 H   0  0  0  0  0  0  0  0  0  0  0  0
    3.8088    0.3508   -5.4504 H   0  0  0  0  0  0  0  0  0  0  0  0
    2.9931    3.9312    3.5777 H   0  0  0  0  0  0  0  0  0  0  0  0
    2.8975    5.3350    2.4875 H   0  0  0  0  0  0  0  0  0  0  0  0
    1.7791    3.9665    2.2764 H   0  0  0  0  0  0  0  0  0  0  0  0
  1  2  1  0  0  0  0
  1 34  1  0  0  0  0
  1 35  1  0  0  0  0
  1 36  1  0  0  0  0
  2  3  2  0  0  0  0
  2  4  1  0  0  0  0
  4  5  1  0  0  0  0
  5  6  1  0  0  0  0
  5 17  1  0  0  0  0
  5  7  1  0  0  0  0
  7  8  1  0  0  0  0
  7 37  1  0  0  0  0
  7 38  1  0  0  0  0
  8 14  1  0  0  0  0
  8  9  2  0  0  0  0
  9 10  1  0  0  0  0
  9 39  1  0  0  0  0
 10 11  2  0  0  0  0
 10 12  1  0  0  0  0
 12 13  1  0  0  0  0
 12 40  1  0  0  0  0
 12 41  1  0  0  0  0
 13 14  1  0  0  0  0
 13 42  1  0  0  0  0
 13 43  1  0  0  0  0
 14 15  1  0  0  0  0
 14 33  1  0  0  0  0
 15 16  1  0  0  0  0
 15 26  1  0  0  0  0
 15 17  1  0  0  0  0
 17 18  1  0  0  0  0
 17 19  1  0  0  0  0
 19 20  1  0  0  0  0
 19 24  1  0  0  0  0
 19 21  1  0  0  0  0
 21 22  1  0  0  0  0
 21 44  1  0  0  0  0
 21 45  1  0  0  0  0
 22 23  1  0  0  0  0
 22 46  1  0  0  0  0
 22 47  1  0  0  0  0
 23 32  1  0  0  0  0
 23 24  1  0  0  0  0
 23 28  1  0  0  0  0
 24 25  1  0  0  0  0
 24 27  1  0  0  0  0
 25 26  1  0  0  0  0
 25 48  1  0  0  0  0
 25 49  1  0  0  0  0
 26 50  1  0  0  0  0
 26 51  1  0  0  0  0
 27 52  1  0  0  0  0
 27 53  1  0  0  0  0
 27 54  1  0  0  0  0
 28 29  1  0  0  0  0
 28 55  1  0  0  0  0
 28 56  1  0  0  0  0
 29 30  1  0  0  0  0
 29 57  1  0  0  0  0
 29 58  1  0  0  0  0
 30 31  2  0  0  0  0
 30 32  1  0  0  0  0
 33 59  1  0  0  0  0
 33 60  1  0  0  0  0
 33 61  1  0  0  0  0
M  END
$$$$
ZINC03833826
  -OEChem-08230709403D

 46 47  0     1  0  0  0  0  0999 V2000
    7.8863   -0.3331    6.5409 C   0  0  0  0  0  0  0  0  0  0  0  0
    6.4865   -0.4949    5.9450 C   0  0  1  0  0  0  0  0  0  0  0  0
    5.9701   -1.3131    6.4468 H   0  0  0  0  0  0  0  0  0  0  0  0
    5.6955    0.8033    6.1377 C   0  0  0  0  0  0  0  0  0  0  0  0
    4.3676    0.6675    5.4262 C   0  0  0  0  0  0  0  0  0  0  0  0
    3.2435    0.9292    6.0460 C   0  0  0  0  0  0  0  0  0  0  0  0
    4.3708    0.2223    3.9805 C   0  0  1  0  0  0  0  0  0  0  0  0
    4.8045    1.0026    3.3552 H   0  0  0  0  0  0  0  0  0  0  0  0
    5.2098   -1.0548    3.8660 C   0  0  0  0  0  0  0  0  0  0  0  0
    6.6004   -0.8034    4.4512 C   0  0  0  0  0  0  0  0  0  0  0  0
    4.5273   -2.1848    4.6395 C   0  0  0  0  0  0  0  0  0  0  0  0
    5.3395   -1.4498    2.3935 C   0  0  0  0  0  0  0  0  0  0  0  0
    2.9374   -0.0621    3.5272 C   0  0  0  0  0  0  0  0  0  0  0  0
    2.9265   -0.3529    2.0486 C   0  0  0  0  0  0  0  0  0  0  0  0
    2.5011   -1.5849    1.5900 C   0  0  0  0  0  0  0  0  0  0  0  0
    2.4910   -1.8528    0.2298 C   0  0  0  0  0  0  0  0  0  0  0  0
    2.9141   -0.8854   -0.6711 C   0  0  0  0  0  0  0  0  0  0  0  0
    3.3345    0.3485   -0.2126 C   0  0  0  0  0  0  0  0  0  0  0  0
    3.3440    0.6160    1.1485 C   0  0  0  0  0  0  0  0  0  0  0  0
    3.7630    1.8282    1.6002 O   0  0  0  0  0  0  0  0  0  0  0  0
    2.9084   -1.2533   -2.5260 Br  0  0  0  0  0  0  0  0  0  0  0  0
    2.0717   -3.0653   -0.2214 O   0  0  0  0  0  0  0  0  0  0  0  0
    1.6558   -4.0151    0.7619 C   0  0  0  0  0  0  0  0  0  0  0  0
    8.4024    0.4855    6.0392 H   0  0  0  0  0  0  0  0  0  0  0  0
    7.8049   -0.1132    7.6053 H   0  0  0  0  0  0  0  0  0  0  0  0
    8.4490   -1.2564    6.4026 H   0  0  0  0  0  0  0  0  0  0  0  0
    5.5255    0.9740    7.2008 H   0  0  0  0  0  0  0  0  0  0  0  0
    6.2538    1.6384    5.7147 H   0  0  0  0  0  0  0  0  0  0  0  0
    2.3101    0.9084    5.5032 H   0  0  0  0  0  0  0  0  0  0  0  0
    3.2503    1.1658    7.0998 H   0  0  0  0  0  0  0  0  0  0  0  0
    7.2184   -1.6902    4.3105 H   0  0  0  0  0  0  0  0  0  0  0  0
    7.0609    0.0424    3.9406 H   0  0  0  0  0  0  0  0  0  0  0  0
    3.5358   -2.3629    4.2231 H   0  0  0  0  0  0  0  0  0  0  0  0
    5.1242   -3.0931    4.5579 H   0  0  0  0  0  0  0  0  0  0  0  0
    4.4356   -1.9033    5.6885 H   0  0  0  0  0  0  0  0  0  0  0  0
    5.5776   -0.5670    1.8002 H   0  0  0  0  0  0  0  0  0  0  0  0
    6.1350   -2.1867    2.2838 H   0  0  0  0  0  0  0  0  0  0  0  0
    4.3982   -1.8770    2.0477 H   0  0  0  0  0  0  0  0  0  0  0  0
    2.3126    0.8075    3.7311 H   0  0  0  0  0  0  0  0  0  0  0  0
    2.5490   -0.9239    4.0699 H   0  0  0  0  0  0  0  0  0  0  0  0
    2.1761   -2.3392    2.2913 H   0  0  0  0  0  0  0  0  0  0  0  0
    3.6599    1.1029   -0.9135 H   0  0  0  0  0  0  0  0  0  0  0  0
    4.7217    1.8990    1.7049 H   0  0  0  0  0  0  0  0  0  0  0  0
    0.8186   -3.6082    1.3289 H   0  0  0  0  0  0  0  0  0  0  0  0
    2.4848   -4.2248    1.4379 H   0  0  0  0  0  0  0  0  0  0  0  0
    1.3469   -4.9369    0.2689 H   0  0  0  0  0  0  0  0  0  0  0  0
  1  2  1  0  0  0  0
  1 24  1  0  0  0  0
  1 25  1  0  0  0  0
  1 26  1  0  0  0  0
  2  3  1  0  0  0  0
  2 10  1  0  0  0  0
  2  4  1  0  0  0  0
  4  5  1  0  0  0  0
  4 27  1  0  0  0  0
  4 28  1  0  0  0  0
  5  6  2  0  0  0  0
  5  7  1  0  0  0  0
  6 29  1  0  0  0  0
  6 30  1  0  0  0  0
  7  8  1  0  0  0  0
  7  9  1  0  0  0  0
  7 13  1  0  0  0  0
  9 10  1  0  0  0  0
  9 11  1  0  0  0  0
  9 12  1  0  0  0  0
 10 31  1  0  0  0  0
 10 32  1  0  0  0  0
 11 33  1  0  0  0  0
 11 34  1  0  0  0  0
 11 35  1  0  0  0  0
 12 36  1  0  0  0  0
 12 37  1  0  0  0  0
 12 38  1  0  0  0  0
 13 14  1  0  0  0  0
 13 39  1  0  0  0  0
 13 40  1  0  0  0  0
 14 19  2  0  0  0  0
 14 15  1  0  0  0  0
 15 16  2  0  0  0  0
 15 41  1  0  0  0  0
 16 17  1  0  0  0  0
 16 22  1  0  0  0  0
 17 18  2  0  0  0  0
 17 21  1  0  0  0  0
 18 19  1  0  0  0  0
 18 42  1  0  0  0  0
 19 20  1  0  0  0  0
 20 43  1  0  0  0  0
 22 23  1  0  0  0  0
 23 44  1  0  0  0  0
 23 45  1  0  0  0  0
 23 46  1  0  0  0  0
M  END
$$$$
ZINC03833827
  -OEChem-08230709403D

 44 45  0     1  0  0  0  0  0999 V2000
    2.9181   -0.7119   -2.3451 C   0  0  0  0  0  0  0  0  0  0  0  0
    1.9422    0.0214   -1.4613 C   0  0  0  0  0  0  0  0  0  0  0  0
    0.9781   -0.6712   -0.8808 C   0  0  0  0  0  0  0  0  0  0  0  0
    0.0021   -0.0041    0.0020 C   0  0  0  0  0  0  0  0  0  0  0  0
   -0.8300   -0.7072    0.7627 C   0  0  0  0  0  0  0  0  0  0  0  0
   -0.0185    1.5109    0.0103 C   0  0  1  0  0  0  0  0  0  0  0  0
   -0.5186    1.8703    0.9097 H   0  0  0  0  0  0  0  0  0  0  0  0
    1.4417    1.9859   -0.0010 C   0  0  0  0  0  0  0  0  0  0  0  0
    2.1139    1.5006   -1.2842 C   0  0  0  0  0  0  0  0  0  0  0  0
    1.4831    3.5144    0.0521 C   0  0  0  0  0  0  0  0  0  0  0  0
    2.1768    1.4097    1.2108 C   0  0  0  0  0  0  0  0  0  0  0  0
   -0.7443    2.0288   -1.2330 C   0  0  0  0  0  0  0  0  0  0  0  0
   -2.1924    1.6152   -1.1780 C   0  0  0  0  0  0  0  0  0  0  0  0
   -3.1528    2.5164   -0.7598 C   0  0  0  0  0  0  0  0  0  0  0  0
   -4.4858    2.1380   -0.7145 C   0  0  0  0  0  0  0  0  0  0  0  0
   -4.8543    0.8503   -1.0784 C   0  0  0  0  0  0  0  0  0  0  0  0
   -3.8930   -0.0525   -1.4911 C   0  0  0  0  0  0  0  0  0  0  0  0
   -2.5602    0.3285   -1.5416 C   0  0  0  0  0  0  0  0  0  0  0  0
   -1.6140   -0.5599   -1.9473 O   0  0  0  0  0  0  0  0  0  0  0  0
   -6.6715    0.3316   -1.0099 Br  0  0  0  0  0  0  0  0  0  0  0  0
   -5.4316    3.0268   -0.3082 O   0  0  0  0  0  0  0  0  0  0  0  0
   -4.9811    4.3344    0.0515 C   0  0  0  0  0  0  0  0  0  0  0  0
    2.6606   -1.7707   -2.3705 H   0  0  0  0  0  0  0  0  0  0  0  0
    2.8726   -0.3026   -3.3544 H   0  0  0  0  0  0  0  0  0  0  0  0
    3.9268   -0.5926   -1.9498 H   0  0  0  0  0  0  0  0  0  0  0  0
    0.9042   -1.7347   -1.0536 H   0  0  0  0  0  0  0  0  0  0  0  0
   -1.5373   -0.1994    1.4017 H   0  0  0  0  0  0  0  0  0  0  0  0
   -0.7991   -1.7866    0.7420 H   0  0  0  0  0  0  0  0  0  0  0  0
    3.1777    1.7340   -1.2406 H   0  0  0  0  0  0  0  0  0  0  0  0
    1.6698    2.0162   -2.1357 H   0  0  0  0  0  0  0  0  0  0  0  0
    0.9965    3.8595    0.9644 H   0  0  0  0  0  0  0  0  0  0  0  0
    2.5200    3.8502    0.0440 H   0  0  0  0  0  0  0  0  0  0  0  0
    0.9623    3.9223   -0.8142 H   0  0  0  0  0  0  0  0  0  0  0  0
    2.1492    0.3209    1.1685 H   0  0  0  0  0  0  0  0  0  0  0  0
    3.2131    1.7475    1.2016 H   0  0  0  0  0  0  0  0  0  0  0  0
    1.6918    1.7502    2.1256 H   0  0  0  0  0  0  0  0  0  0  0  0
   -0.6781    3.1163   -1.2658 H   0  0  0  0  0  0  0  0  0  0  0  0
   -0.2804    1.6094   -2.1257 H   0  0  0  0  0  0  0  0  0  0  0  0
   -2.8654    3.5169   -0.4721 H   0  0  0  0  0  0  0  0  0  0  0  0
   -4.1794   -1.0545   -1.7746 H   0  0  0  0  0  0  0  0  0  0  0  0
   -1.2327   -1.0837   -1.2294 H   0  0  0  0  0  0  0  0  0  0  0  0
   -5.8337    4.9416    0.3557 H   0  0  0  0  0  0  0  0  0  0  0  0
   -4.2742    4.2607    0.8779 H   0  0  0  0  0  0  0  0  0  0  0  0
   -4.4918    4.7985   -0.8049 H   0  0  0  0  0  0  0  0  0  0  0  0
  1  2  1  0  0  0  0
  1 23  1  0  0  0  0
  1 24  1  0  0  0  0
  1 25  1  0  0  0  0
  2  9  1  0  0  0  0
  2  3  2  0  0  0  0
  3  4  1  0  0  0  0
  3 26  1  0  0  0  0
  4  5  2  0  0  0  0
  4  6  1  0  0  0  0
  5 27  1  0  0  0  0
  5 28  1  0  0  0  0
  6  7  1  0  0  0  0
  6  8  1  0  0  0  0
  6 12  1  0  0  0  0
  8  9  1  0  0  0  0
  8 10  1  0  0  0  0
  8 11  1  0  0  0  0
  9 29  1  0  0  0  0
  9 30  1  0  0  0  0
 10 31  1  0  0  0  0
 10 32  1  0  0  0  0
 10 33  1  0  0  0  0
 11 34  1  0  0  0  0
 11 35  1  0  0  0  0
 11 36  1  0  0  0  0
 12 13  1  0  0  0  0
 12 37  1  0  0  0  0
 12 38  1  0  0  0  0
 13 18  2  0  0  0  0
 13 14  1  0  0  0  0
 14 15  2  0  0  0  0
 14 39  1  0  0  0  0
 15 16  1  0  0  0  0
 15 21  1  0  0  0  0
 16 17  2  0  0  0  0
 16 20  1  0  0  0  0
 17 18  1  0  0  0  0
 17 40  1  0  0  0  0
 18 19  1  0  0  0  0
 19 41  1  0  0  0  0
 21 22  1  0  0  0  0
 22 42  1  0  0  0  0
 22 43  1  0  0  0  0
 22 44  1  0  0  0  0
M  END
$$$$
ZINC03833828
  -OEChem-08230709403D

 43 44  0     1  0  0  0  0  0999 V2000
    3.2303    2.6317   -1.3856 C   0  0  0  0  0  0  0  0  0  0  0  0
    1.8736    1.9269   -1.3262 C   0  0  2  0  0  0  0  0  0  0  0  0
    1.2413    2.2864   -2.1380 H   0  0  0  0  0  0  0  0  0  0  0  0
    1.2013    2.2262    0.0148 C   0  0  0  0  0  0  0  0  0  0  0  0
   -0.1934    1.5990    0.0470 C   0  0  2  0  0  0  0  0  0  0  0  0
   -0.6918    1.8686    0.9782 H   0  0  0  0  0  0  0  0  0  0  0  0
   -0.0682    0.0745   -0.0428 C   0  0  2  0  0  0  0  0  0  0  0  0
    0.4336   -0.3047    0.8474 H   0  0  0  0  0  0  0  0  0  0  0  0
    0.7418   -0.2699   -1.2730 C   0  0  0  0  0  0  0  0  0  0  0  0
    0.2986   -1.1385   -2.1477 C   0  0  0  0  0  0  0  0  0  0  0  0
    2.0766    0.4148   -1.4676 C   0  0  0  0  0  0  0  0  0  0  0  0
   -1.4606   -0.5499   -0.1529 C   0  0  0  0  0  0  0  0  0  0  0  0
   -2.2334   -0.2809    1.1126 C   0  0  0  0  0  0  0  0  0  0  0  0
   -3.1727    0.7319    1.1462 C   0  0  0  0  0  0  0  0  0  0  0  0
   -3.8872    0.9766    2.3089 C   0  0  0  0  0  0  0  0  0  0  0  0
   -3.6514    0.2109    3.4424 C   0  0  0  0  0  0  0  0  0  0  0  0
   -2.7082   -0.7984    3.4100 C   0  0  0  0  0  0  0  0  0  0  0  0
   -1.9974   -1.0461    2.2448 C   0  0  0  0  0  0  0  0  0  0  0  0
   -1.0695   -2.0396    2.2127 O   0  0  0  0  0  0  0  0  0  0  0  0
   -4.6211    0.5486    5.0303 Br  0  0  0  0  0  0  0  0  0  0  0  0
   -4.8155    1.9700    2.3403 O   0  0  0  0  0  0  0  0  0  0  0  0
   -5.0063    2.7179    1.1377 C   0  0  0  0  0  0  0  0  0  0  0  0
   -1.0122    2.1144   -1.1382 C   0  0  0  0  0  0  0  0  0  0  0  0
    3.7095    2.4173   -2.3409 H   0  0  0  0  0  0  0  0  0  0  0  0
    3.0857    3.7074   -1.2850 H   0  0  0  0  0  0  0  0  0  0  0  0
    3.8623    2.2725   -0.5734 H   0  0  0  0  0  0  0  0  0  0  0  0
    1.1165    3.3051    0.1447 H   0  0  0  0  0  0  0  0  0  0  0  0
    1.8039    1.8113    0.8228 H   0  0  0  0  0  0  0  0  0  0  0  0
   -0.6143   -1.6822   -1.9540 H   0  0  0  0  0  0  0  0  0  0  0  0
    0.8460   -1.3110   -3.0626 H   0  0  0  0  0  0  0  0  0  0  0  0
    2.7800    0.0674   -0.7109 H   0  0  0  0  0  0  0  0  0  0  0  0
    2.4642    0.1858   -2.4603 H   0  0  0  0  0  0  0  0  0  0  0  0
   -1.9886   -0.1133   -1.0008 H   0  0  0  0  0  0  0  0  0  0  0  0
   -1.3658   -1.6259   -0.2990 H   0  0  0  0  0  0  0  0  0  0  0  0
   -3.3530    1.3305    0.2656 H   0  0  0  0  0  0  0  0  0  0  0  0
   -2.5242   -1.3941    4.2918 H   0  0  0  0  0  0  0  0  0  0  0  0
   -0.1975   -1.7739    2.5353 H   0  0  0  0  0  0  0  0  0  0  0  0
   -5.7721    3.4765    1.2992 H   0  0  0  0  0  0  0  0  0  0  0  0
   -4.0700    3.2006    0.8576 H   0  0  0  0  0  0  0  0  0  0  0  0
   -5.3223    2.0470    0.3389 H   0  0  0  0  0  0  0  0  0  0  0  0
   -2.0056    1.6664   -1.1157 H   0  0  0  0  0  0  0  0  0  0  0  0
   -1.1012    3.1989   -1.0741 H   0  0  0  0  0  0  0  0  0  0  0  0
   -0.5132    1.8451   -2.0691 H   0  0  0  0  0  0  0  0  0  0  0  0
  1  2  1  0  0  0  0
  1 24  1  0  0  0  0
  1 25  1  0  0  0  0
  1 26  1  0  0  0  0
  2  3  1  0  0  0  0
  2 11  1  0  0  0  0
  2  4  1  0  0  0  0
  4  5  1  0  0  0  0
  4 27  1  0  0  0  0
  4 28  1  0  0  0  0
  5  6  1  0  0  0  0
  5  7  1  0  0  0  0
  5 23  1  0  0  0  0
  7  8  1  0  0  0  0
  7  9  1  0  0  0  0
  7 12  1  0  0  0  0
  9 10  2  0  0  0  0
  9 11  1  0  0  0  0
 10 29  1  0  0  0  0
 10 30  1  0  0  0  0
 11 31  1  0  0  0  0
 11 32  1  0  0  0  0
 12 13  1  0  0  0  0
 12 33  1  0  0  0  0
 12 34  1  0  0  0  0
 13 18  2  0  0  0  0
 13 14  1  0  0  0  0
 14 15  2  0  0  0  0
 14 35  1  0  0  0  0
 15 16  1  0  0  0  0
 15 21  1  0  0  0  0
 16 17  2  0  0  0  0
 16 20  1  0  0  0  0
 17 18  1  0  0  0  0
 17 36  1  0  0  0  0
 18 19  1  0  0  0  0
 19 37  1  0  0  0  0
 21 22  1  0  0  0  0
 22 38  1  0  0  0  0
 22 39  1  0  0  0  0
 22 40  1  0  0  0  0
 23 41  1  0  0  0  0
 23 42  1  0  0  0  0
 23 43  1  0  0  0  0
M  END
$$$$
ZINC03833829
  -OEChem-08230709403D

 43 44  0     1  0  0  0  0  0999 V2000
   -4.0383   -0.3527    0.8322 C   0  0  0  0  0  0  0  0  0  0  0  0
   -3.0498   -1.3771    1.3929 C   0  0  0  0  0  0  0  0  0  0  0  0
   -3.5532   -1.8848    2.7451 C   0  0  0  0  0  0  0  0  0  0  0  0
   -2.6172   -2.9741    3.2712 C   0  0  0  0  0  0  0  0  0  0  0  0
   -1.2299   -2.3746    3.5241 C   0  0  0  0  0  0  0  0  0  0  0  0
   -0.7558   -1.7061    2.2527 C   0  0  0  0  0  0  0  0  0  0  0  0
    0.4237   -1.9766    1.7510 C   0  0  0  0  0  0  0  0  0  0  0  0
   -1.6788   -0.7175    1.5751 C   0  0  1  0  0  0  0  0  0  0  0  0
   -1.7810    0.1749    2.1926 H   0  0  0  0  0  0  0  0  0  0  0  0
   -1.1072   -0.3342    0.2086 C   0  0  0  0  0  0  0  0  0  0  0  0
    0.1166    0.5243    0.3989 C   0  0  0  0  0  0  0  0  0  0  0  0
    1.3432    0.0917   -0.0676 C   0  0  0  0  0  0  0  0  0  0  0  0
    2.4693    0.8814    0.1068 C   0  0  0  0  0  0  0  0  0  0  0  0
    2.3646    2.1066    0.7507 C   0  0  0  0  0  0  0  0  0  0  0  0
    1.1380    2.5386    1.2179 C   0  0  0  0  0  0  0  0  0  0  0  0
    0.0117    1.7481    1.0426 C   0  0  0  0  0  0  0  0  0  0  0  0
   -1.1965    2.1758    1.4971 O   0  0  0  0  0  0  0  0  0  0  0  0
    3.9001    3.1844    0.9883 Br  0  0  0  0  0  0  0  0  0  0  0  0
    3.6764    0.4555   -0.3524 O   0  0  0  0  0  0  0  0  0  0  0  0
    3.7107   -0.8154   -1.0048 C   0  0  0  0  0  0  0  0  0  0  0  0
   -2.9257   -2.5520    0.4208 C   0  0  0  0  0  0  0  0  0  0  0  0
   -3.6788    0.0098   -0.1308 H   0  0  0  0  0  0  0  0  0  0  0  0
   -5.0135   -0.8221    0.7026 H   0  0  0  0  0  0  0  0  0  0  0  0
   -4.1269    0.4838    1.5253 H   0  0  0  0  0  0  0  0  0  0  0  0
   -3.5819   -1.0579    3.4547 H   0  0  0  0  0  0  0  0  0  0  0  0
   -4.5558   -2.2959    2.6273 H   0  0  0  0  0  0  0  0  0  0  0  0
   -3.0148   -3.3762    4.2031 H   0  0  0  0  0  0  0  0  0  0  0  0
   -2.5390   -3.7733    2.5342 H   0  0  0  0  0  0  0  0  0  0  0  0
   -1.2900   -1.6375    4.3249 H   0  0  0  0  0  0  0  0  0  0  0  0
   -0.5343   -3.1662    3.8029 H   0  0  0  0  0  0  0  0  0  0  0  0
    0.7040   -1.5804    0.7862 H   0  0  0  0  0  0  0  0  0  0  0  0
    1.1159   -2.5959    2.3022 H   0  0  0  0  0  0  0  0  0  0  0  0
   -1.8564    0.2211   -0.3557 H   0  0  0  0  0  0  0  0  0  0  0  0
   -0.8361   -1.2373   -0.3381 H   0  0  0  0  0  0  0  0  0  0  0  0
    1.4246   -0.8616   -0.5686 H   0  0  0  0  0  0  0  0  0  0  0  0
    1.0562    3.4919    1.7190 H   0  0  0  0  0  0  0  0  0  0  0  0
   -1.3941    1.9046    2.4040 H   0  0  0  0  0  0  0  0  0  0  0  0
    3.3710   -1.5875   -0.3144 H   0  0  0  0  0  0  0  0  0  0  0  0
    3.0566   -0.7941   -1.8765 H   0  0  0  0  0  0  0  0  0  0  0  0
    4.7306   -1.0341   -1.3211 H   0  0  0  0  0  0  0  0  0  0  0  0
   -2.2218   -3.2818    0.8209 H   0  0  0  0  0  0  0  0  0  0  0  0
   -3.9010   -3.0211    0.2913 H   0  0  0  0  0  0  0  0  0  0  0  0
   -2.5657   -2.1902   -0.5424 H   0  0  0  0  0  0  0  0  0  0  0  0
  1  2  1  0  0  0  0
  1 22  1  0  0  0  0
  1 23  1  0  0  0  0
  1 24  1  0  0  0  0
  2  8  1  0  0  0  0
  2  3  1  0  0  0  0
  2 21  1  0  0  0  0
  3  4  1  0  0  0  0
  3 25  1  0  0  0  0
  3 26  1  0  0  0  0
  4  5  1  0  0  0  0
  4 27  1  0  0  0  0
  4 28  1  0  0  0  0
  5  6  1  0  0  0  0
  5 29  1  0  0  0  0
  5 30  1  0  0  0  0
  6  7  2  0  0  0  0
  6  8  1  0  0  0  0
  7 31  1  0  0  0  0
  7 32  1  0  0  0  0
  8  9  1  0  0  0  0
  8 10  1  0  0  0  0
 10 11  1  0  0  0  0
 10 33  1  0  0  0  0
 10 34  1  0  0  0  0
 11 16  2  0  0  0  0
 11 12  1  0  0  0  0
 12 13  2  0  0  0  0
 12 35  1  0  0  0  0
 13 14  1  0  0  0  0
 13 19  1  0  0  0  0
 14 15  2  0  0  0  0
 14 18  1  0  0  0  0
 15 16  1  0  0  0  0
 15 36  1  0  0  0  0
 16 17  1  0  0  0  0
 17 37  1  0  0  0  0
 19 20  1  0  0  0  0
 20 38  1  0  0  0  0
 20 39  1  0  0  0  0
 20 40  1  0  0  0  0
 21 41  1  0  0  0  0
 21 42  1  0  0  0  0
 21 43  1  0  0  0  0
M  END
$$$$
ZINC03833830
  -OEChem-08230709403D

 49 50  0     1  0  0  0  0  0999 V2000
    0.9622   10.2711   -0.5601 C   0  0  0  0  0  0  0  0  0  0  0  0
    1.2499    8.8121   -0.3157 C   0  0  0  0  0  0  0  0  0  0  0  0
    1.2795    8.3786    0.9322 C   0  0  0  0  0  0  0  0  0  0  0  0
    1.5662    6.9617    1.2277 C   0  0  0  0  0  0  0  0  0  0  0  0
    1.8183    6.5552    2.4673 C   0  0  0  0  0  0  0  0  0  0  0  0
    1.5635    5.9867    0.0680 C   0  0  2  0  0  0  0  0  0  0  0  0
    2.0982    5.0783    0.3457 H   0  0  0  0  0  0  0  0  0  0  0  0
    2.2737    6.6748   -1.1067 C   0  0  0  0  0  0  0  0  0  0  0  0
    1.4889    7.9248   -1.5008 C   0  0  0  0  0  0  0  0  0  0  0  0
    3.6904    7.0717   -0.6867 C   0  0  0  0  0  0  0  0  0  0  0  0
    2.3406    5.7159   -2.2970 C   0  0  0  0  0  0  0  0  0  0  0  0
    0.1240    5.6449   -0.3218 C   0  0  0  0  0  0  0  0  0  0  0  0
   -0.5423    4.9095    0.8123 C   0  0  0  0  0  0  0  0  0  0  0  0
   -0.5608    3.5281    0.8234 C   0  0  0  0  0  0  0  0  0  0  0  0
   -1.1788    2.8511    1.8638 C   0  0  0  0  0  0  0  0  0  0  0  0
   -1.7690    3.5614    2.9002 C   0  0  0  0  0  0  0  0  0  0  0  0
   -1.7455    4.9427    2.8917 C   0  0  0  0  0  0  0  0  0  0  0  0
   -1.1320    5.6195    1.8475 C   0  0  0  0  0  0  0  0  0  0  0  0
   -1.1083    6.9791    1.8393 O   0  0  0  0  0  0  0  0  0  0  0  0
   -2.0804    7.6014    1.1538 C   0  0  0  0  0  0  0  0  0  0  0  0
   -2.8693    6.9568    0.5042 O   0  0  0  0  0  0  0  0  0  0  0  0
   -2.1877    9.1040    1.1945 C   0  0  0  0  0  0  0  0  0  0  0  0
   -2.6057    2.6385    4.3229 Br  0  0  0  0  0  0  0  0  0  0  0  0
   -1.2018    1.4915    1.8717 O   0  0  0  0  0  0  0  0  0  0  0  0
   -0.5751    0.8257    0.7735 C   0  0  0  0  0  0  0  0  0  0  0  0
    0.8130   10.7768    0.3939 H   0  0  0  0  0  0  0  0  0  0  0  0
    1.8036   10.7245   -1.0841 H   0  0  0  0  0  0  0  0  0  0  0  0
    0.0619   10.3672   -1.1670 H   0  0  0  0  0  0  0  0  0  0  0  0
    1.0925    9.0673    1.7428 H   0  0  0  0  0  0  0  0  0  0  0  0
    2.0262    5.5134    2.6621 H   0  0  0  0  0  0  0  0  0  0  0  0
    1.8154    7.2664    3.2800 H   0  0  0  0  0  0  0  0  0  0  0  0
    0.5293    7.6256   -1.9222 H   0  0  0  0  0  0  0  0  0  0  0  0
    2.0524    8.4772   -2.2527 H   0  0  0  0  0  0  0  0  0  0  0  0
    4.2471    6.1801   -0.3983 H   0  0  0  0  0  0  0  0  0  0  0  0
    4.1935    7.5600   -1.5213 H   0  0  0  0  0  0  0  0  0  0  0  0
    3.6399    7.7578    0.1588 H   0  0  0  0  0  0  0  0  0  0  0  0
    1.3302    5.4378   -2.5968 H   0  0  0  0  0  0  0  0  0  0  0  0
    2.8450    6.2054   -3.1301 H   0  0  0  0  0  0  0  0  0  0  0  0
    2.8943    4.8212   -2.0122 H   0  0  0  0  0  0  0  0  0  0  0  0
    0.1283    5.0144   -1.2109 H   0  0  0  0  0  0  0  0  0  0  0  0
   -0.4238    6.5638   -0.5306 H   0  0  0  0  0  0  0  0  0  0  0  0
   -0.0973    2.9754    0.0195 H   0  0  0  0  0  0  0  0  0  0  0  0
   -2.2043    5.4957    3.6980 H   0  0  0  0  0  0  0  0  0  0  0  0
   -1.2689    9.5445    0.8072 H   0  0  0  0  0  0  0  0  0  0  0  0
   -3.0306    9.4248    0.5824 H   0  0  0  0  0  0  0  0  0  0  0  0
   -2.3411    9.4296    2.2234 H   0  0  0  0  0  0  0  0  0  0  0  0
   -0.6649   -0.2528    0.9033 H   0  0  0  0  0  0  0  0  0  0  0  0
    0.4790    1.1006    0.7355 H   0  0  0  0  0  0  0  0  0  0  0  0
   -1.0614    1.1214   -0.1561 H   0  0  0  0  0  0  0  0  0  0  0  0
  1  2  1  0  0  0  0
  1 26  1  0  0  0  0
  1 27  1  0  0  0  0
  1 28  1  0  0  0  0
  2  9  1  0  0  0  0
  2  3  2  0  0  0  0
  3  4  1  0  0  0  0
  3 29  1  0  0  0  0
  4  5  2  0  0  0  0
  4  6  1  0  0  0  0
  5 30  1  0  0  0  0
  5 31  1  0  0  0  0
  6  7  1  0  0  0  0
  6  8  1  0  0  0  0
  6 12  1  0  0  0  0
  8  9  1  0  0  0  0
  8 10  1  0  0  0  0
  8 11  1  0  0  0  0
  9 32  1  0  0  0  0
  9 33  1  0  0  0  0
 10 34  1  0  0  0  0
 10 35  1  0  0  0  0
 10 36  1  0  0  0  0
 11 37  1  0  0  0  0
 11 38  1  0  0  0  0
 11 39  1  0  0  0  0
 12 13  1  0  0  0  0
 12 40  1  0  0  0  0
 12 41  1  0  0  0  0
 13 18  2  0  0  0  0
 13 14  1  0  0  0  0
 14 15  2  0  0  0  0
 14 42  1  0  0  0  0
 15 16  1  0  0  0  0
 15 24  1  0  0  0  0
 16 17  2  0  0  0  0
 16 23  1  0  0  0  0
 17 18  1  0  0  0  0
 17 43  1  0  0  0  0
 18 19  1  0  0  0  0
 19 20  1  0  0  0  0
 20 21  2  0  0  0  0
 20 22  1  0  0  0  0
 22 44  1  0  0  0  0
 22 45  1  0  0  0  0
 22 46  1  0  0  0  0
 24 25  1  0  0  0  0
 25 47  1  0  0  0  0
 25 48  1  0  0  0  0
 25 49  1  0  0  0  0
M  END
$$$$
ZINC03833831
  -OEChem-08230709403D

 40 41  0     1  0  0  0  0  0999 V2000
    0.3806    1.8795    0.6881 C   0  0  0  0  0  0  0  0  0  0  0  0
    0.2120    0.4051    0.3158 C   0  0  2  0  0  0  0  0  0  0  0  0
    0.7841    0.1903   -0.5868 H   0  0  0  0  0  0  0  0  0  0  0  0
   -1.2674    0.1082    0.0651 C   0  0  0  0  0  0  0  0  0  0  0  0
   -1.4349   -1.3412   -0.3940 C   0  0  0  0  0  0  0  0  0  0  0  0
   -0.9888   -2.2853    0.7274 C   0  0  0  0  0  0  0  0  0  0  0  0
    0.4219   -1.9187    1.1320 C   0  0  0  0  0  0  0  0  0  0  0  0
    1.3615   -2.8295    1.1929 C   0  0  0  0  0  0  0  0  0  0  0  0
    0.7200   -0.4733    1.4640 C   0  0  1  0  0  0  0  0  0  0  0  0
    0.2121   -0.1976    2.3882 H   0  0  0  0  0  0  0  0  0  0  0  0
    2.2288   -0.2805    1.6296 C   0  0  0  0  0  0  0  0  0  0  0  0
    2.6520   -0.7742    2.9891 C   0  0  0  0  0  0  0  0  0  0  0  0
    3.4036   -1.9282    3.1018 C   0  0  0  0  0  0  0  0  0  0  0  0
    3.7972   -2.3800    4.3520 C   0  0  0  0  0  0  0  0  0  0  0  0
    3.4273   -1.6789    5.4913 C   0  0  0  0  0  0  0  0  0  0  0  0
    2.6712   -0.5277    5.3787 C   0  0  0  0  0  0  0  0  0  0  0  0
    2.2822   -0.0734    4.1272 C   0  0  0  0  0  0  0  0  0  0  0  0
    1.5386    1.0597    4.0162 O   0  0  0  0  0  0  0  0  0  0  0  0
    3.9584   -2.2984    7.1972 Br  0  0  0  0  0  0  0  0  0  0  0  0
    4.5413   -3.5130    4.4624 O   0  0  0  0  0  0  0  0  0  0  0  0
    4.8859   -4.1838    3.2485 C   0  0  0  0  0  0  0  0  0  0  0  0
    1.4347    2.0906    0.8679 H   0  0  0  0  0  0  0  0  0  0  0  0
    0.0191    2.5041   -0.1287 H   0  0  0  0  0  0  0  0  0  0  0  0
   -0.1920    2.0941    1.5905 H   0  0  0  0  0  0  0  0  0  0  0  0
   -1.8293    0.2636    0.9861 H   0  0  0  0  0  0  0  0  0  0  0  0
   -1.6458    0.7787   -0.7064 H   0  0  0  0  0  0  0  0  0  0  0  0
   -0.8240   -1.5148   -1.2799 H   0  0  0  0  0  0  0  0  0  0  0  0
   -2.4820   -1.5286   -0.6319 H   0  0  0  0  0  0  0  0  0  0  0  0
   -1.0113   -3.3148    0.3700 H   0  0  0  0  0  0  0  0  0  0  0  0
   -1.6549   -2.1774    1.5835 H   0  0  0  0  0  0  0  0  0  0  0  0
    2.3858   -2.5376    1.3721 H   0  0  0  0  0  0  0  0  0  0  0  0
    1.1119   -3.8723    1.0639 H   0  0  0  0  0  0  0  0  0  0  0  0
    2.7539   -0.8444    0.8587 H   0  0  0  0  0  0  0  0  0  0  0  0
    2.4724    0.7777    1.5353 H   0  0  0  0  0  0  0  0  0  0  0  0
    3.6876   -2.4762    2.2155 H   0  0  0  0  0  0  0  0  0  0  0  0
    2.3829    0.0179    6.2650 H   0  0  0  0  0  0  0  0  0  0  0  0
    0.5839    0.9074    4.0393 H   0  0  0  0  0  0  0  0  0  0  0  0
    5.4783   -5.0694    3.4783 H   0  0  0  0  0  0  0  0  0  0  0  0
    3.9761   -4.4805    2.7266 H   0  0  0  0  0  0  0  0  0  0  0  0
    5.4660   -3.5130    2.6148 H   0  0  0  0  0  0  0  0  0  0  0  0
  1  2  1  0  0  0  0
  1 22  1  0  0  0  0
  1 23  1  0  0  0  0
  1 24  1  0  0  0  0
  2  3  1  0  0  0  0
  2  9  1  0  0  0  0
  2  4  1  0  0  0  0
  4  5  1  0  0  0  0
  4 25  1  0  0  0  0
  4 26  1  0  0  0  0
  5  6  1  0  0  0  0
  5 27  1  0  0  0  0
  5 28  1  0  0  0  0
  6  7  1  0  0  0  0
  6 29  1  0  0  0  0
  6 30  1  0  0  0  0
  7  8  2  0  0  0  0
  7  9  1  0  0  0  0
  8 31  1  0  0  0  0
  8 32  1  0  0  0  0
  9 10  1  0  0  0  0
  9 11  1  0  0  0  0
 11 12  1  0  0  0  0
 11 33  1  0  0  0  0
 11 34  1  0  0  0  0
 12 17  2  0  0  0  0
 12 13  1  0  0  0  0
 13 14  2  0  0  0  0
 13 35  1  0  0  0  0
 14 15  1  0  0  0  0
 14 20  1  0  0  0  0
 15 16  2  0  0  0  0
 15 19  1  0  0  0  0
 16 17  1  0  0  0  0
 16 36  1  0  0  0  0
 17 18  1  0  0  0  0
 18 37  1  0  0  0  0
 20 21  1  0  0  0  0
 21 38  1  0  0  0  0
 21 39  1  0  0  0  0
 21 40  1  0  0  0  0
M  END
$$$$
ZINC03833832
  -OEChem-08230709403D

 46 47  0     1  0  0  0  0  0999 V2000
   -3.2389    6.4214    1.0829 C   0  0  0  0  0  0  0  0  0  0  0  0
   -3.7019    5.0594    1.6040 C   0  0  1  0  0  0  0  0  0  0  0  0
   -4.0311    5.1560    2.6386 H   0  0  0  0  0  0  0  0  0  0  0  0
   -4.8580    4.5495    0.7447 C   0  0  0  0  0  0  0  0  0  0  0  0
   -5.2277    3.1433    1.1116 C   0  0  0  0  0  0  0  0  0  0  0  0
   -4.4018    2.3127    1.7233 C   0  0  0  0  0  0  0  0  0  0  0  0
   -3.0408    2.7452    2.0940 C   0  0  0  0  0  0  0  0  0  0  0  0
   -2.2803    2.0093    2.8973 C   0  0  0  0  0  0  0  0  0  0  0  0
   -2.5406    4.0578    1.5260 C   0  0  1  0  0  0  0  0  0  0  0  0
   -1.6972    4.4192    2.1143 H   0  0  0  0  0  0  0  0  0  0  0  0
   -2.1150    3.8663    0.0689 C   0  0  0  0  0  0  0  0  0  0  0  0
   -0.9315    2.9352    0.0095 C   0  0  0  0  0  0  0  0  0  0  0  0
    0.3503    3.4492   -0.0286 C   0  0  0  0  0  0  0  0  0  0  0  0
    1.4395    2.5929   -0.0832 C   0  0  0  0  0  0  0  0  0  0  0  0
    1.2419    1.2189   -0.0997 C   0  0  0  0  0  0  0  0  0  0  0  0
   -0.0401    0.7052   -0.0616 C   0  0  0  0  0  0  0  0  0  0  0  0
   -1.1295    1.5627   -0.0127 C   0  0  0  0  0  0  0  0  0  0  0  0
   -2.3916    1.0573    0.0191 O   0  0  0  0  0  0  0  0  0  0  0  0
   -3.0270    0.9304   -1.1566 C   0  0  0  0  0  0  0  0  0  0  0  0
   -2.5134    1.3446   -2.1688 O   0  0  0  0  0  0  0  0  0  0  0  0
   -4.3810    0.2712   -1.2139 C   0  0  0  0  0  0  0  0  0  0  0  0
    2.7270    0.0507   -0.1748 Br  0  0  0  0  0  0  0  0  0  0  0  0
    2.7011    3.0989   -0.1211 O   0  0  0  0  0  0  0  0  0  0  0  0
    2.8302    4.5219   -0.1013 C   0  0  0  0  0  0  0  0  0  0  0  0
   -6.6099    2.6528    0.7650 C   0  0  0  0  0  0  0  0  0  0  0  0
   -2.9139    6.3228    0.0472 H   0  0  0  0  0  0  0  0  0  0  0  0
   -4.0640    7.1314    1.1388 H   0  0  0  0  0  0  0  0  0  0  0  0
   -2.4089    6.7802    1.6916 H   0  0  0  0  0  0  0  0  0  0  0  0
   -4.5639    4.5794   -0.3044 H   0  0  0  0  0  0  0  0  0  0  0  0
   -5.7231    5.1962    0.8916 H   0  0  0  0  0  0  0  0  0  0  0  0
   -4.7258    1.3084    1.9536 H   0  0  0  0  0  0  0  0  0  0  0  0
   -1.2865    2.3438    3.1561 H   0  0  0  0  0  0  0  0  0  0  0  0
   -2.6558    1.0766    3.2916 H   0  0  0  0  0  0  0  0  0  0  0  0
   -1.8406    4.8304   -0.3592 H   0  0  0  0  0  0  0  0  0  0  0  0
   -2.9421    3.4391   -0.4981 H   0  0  0  0  0  0  0  0  0  0  0  0
    0.5040    4.5181   -0.0154 H   0  0  0  0  0  0  0  0  0  0  0  0
   -0.1942   -0.3636   -0.0743 H   0  0  0  0  0  0  0  0  0  0  0  0
   -5.1578    1.0247   -1.0829 H   0  0  0  0  0  0  0  0  0  0  0  0
   -4.5071   -0.2163   -2.1806 H   0  0  0  0  0  0  0  0  0  0  0  0
   -4.4576   -0.4714   -0.4197 H   0  0  0  0  0  0  0  0  0  0  0  0
    2.3187    4.9452   -0.9658 H   0  0  0  0  0  0  0  0  0  0  0  0
    2.3845    4.9145    0.8127 H   0  0  0  0  0  0  0  0  0  0  0  0
    3.8857    4.7915   -0.1357 H   0  0  0  0  0  0  0  0  0  0  0  0
   -6.7221    1.6198    1.0944 H   0  0  0  0  0  0  0  0  0  0  0  0
   -7.3522    3.2758    1.2637 H   0  0  0  0  0  0  0  0  0  0  0  0
   -6.7550    2.7078   -0.3139 H   0  0  0  0  0  0  0  0  0  0  0  0
  1  2  1  0  0  0  0
  1 26  1  0  0  0  0
  1 27  1  0  0  0  0
  1 28  1  0  0  0  0
  2  3  1  0  0  0  0
  2  9  1  0  0  0  0
  2  4  1  0  0  0  0
  4  5  1  0  0  0  0
  4 29  1  0  0  0  0
  4 30  1  0  0  0  0
  5  6  2  0  0  0  0
  5 25  1  0  0  0  0
  6  7  1  0  0  0  0
  6 31  1  0  0  0  0
  7  8  2  0  0  0  0
  7  9  1  0  0  0  0
  8 32  1  0  0  0  0
  8 33  1  0  0  0  0
  9 10  1  0  0  0  0
  9 11  1  0  0  0  0
 11 12  1  0  0  0  0
 11 34  1  0  0  0  0
 11 35  1  0  0  0  0
 12 17  2  0  0  0  0
 12 13  1  0  0  0  0
 13 14  2  0  0  0  0
 13 36  1  0  0  0  0
 14 15  1  0  0  0  0
 14 23  1  0  0  0  0
 15 16  2  0  0  0  0
 15 22  1  0  0  0  0
 16 17  1  0  0  0  0
 16 37  1  0  0  0  0
 17 18  1  0  0  0  0
 18 19  1  0  0  0  0
 19 20  2  0  0  0  0
 19 21  1  0  0  0  0
 21 38  1  0  0  0  0
 21 39  1  0  0  0  0
 21 40  1  0  0  0  0
 23 24  1  0  0  0  0
 24 41  1  0  0  0  0
 24 42  1  0  0  0  0
 24 43  1  0  0  0  0
 25 44  1  0  0  0  0
 25 45  1  0  0  0  0
 25 46  1  0  0  0  0
M  END
$$$$
ZINC03833833
  -OEChem-08230709403D

 43 44  0     1  0  0  0  0  0999 V2000
   -1.1286   -0.0153   -2.1746 C   0  0  0  0  0  0  0  0  0  0  0  0
    0.0192   -0.4520   -1.2622 C   0  0  0  0  0  0  0  0  0  0  0  0
    0.2227   -1.9629   -1.3860 C   0  0  2  0  0  0  0  0  0  0  0  0
   -0.6702   -2.4789   -1.0329 H   0  0  0  0  0  0  0  0  0  0  0  0
    1.4254   -2.3948   -0.5453 C   0  0  0  0  0  0  0  0  0  0  0  0
    1.1384   -2.1174    0.9341 C   0  0  0  0  0  0  0  0  0  0  0  0
    0.7628   -0.6600    1.0860 C   0  0  0  0  0  0  0  0  0  0  0  0
    1.3609    0.0992    1.9703 C   0  0  0  0  0  0  0  0  0  0  0  0
   -0.3207   -0.1014    0.1902 C   0  0  1  0  0  0  0  0  0  0  0  0
   -1.2824   -0.5397    0.4572 H   0  0  0  0  0  0  0  0  0  0  0  0
   -0.3866    1.4188    0.3500 C   0  0  0  0  0  0  0  0  0  0  0  0
   -1.1326    1.7591    1.6144 C   0  0  0  0  0  0  0  0  0  0  0  0
   -0.4544    2.2899    2.6949 C   0  0  0  0  0  0  0  0  0  0  0  0
   -1.1404    2.6035    3.8582 C   0  0  0  0  0  0  0  0  0  0  0  0
   -2.5087    2.3842    3.9374 C   0  0  0  0  0  0  0  0  0  0  0  0
   -3.1867    1.8534    2.8567 C   0  0  0  0  0  0  0  0  0  0  0  0
   -2.5005    1.5448    1.6913 C   0  0  0  0  0  0  0  0  0  0  0  0
   -3.1686    1.0276    0.6257 O   0  0  0  0  0  0  0  0  0  0  0  0
   -3.4447    2.8113    5.5241 Br  0  0  0  0  0  0  0  0  0  0  0  0
   -0.4728    3.1263    4.9215 O   0  0  0  0  0  0  0  0  0  0  0  0
    0.9341    3.3258    4.7698 C   0  0  0  0  0  0  0  0  0  0  0  0
    0.5416   -2.4272   -3.2696 Br  0  0  0  0  0  0  0  0  0  0  0  0
    1.3027    0.2715   -1.6748 C   0  0  0  0  0  0  0  0  0  0  0  0
   -1.2743    1.0613   -2.0853 H   0  0  0  0  0  0  0  0  0  0  0  0
   -0.8866   -0.2647   -3.2077 H   0  0  0  0  0  0  0  0  0  0  0  0
   -2.0428   -0.5312   -1.8808 H   0  0  0  0  0  0  0  0  0  0  0  0
    1.6042   -3.4607   -0.6872 H   0  0  0  0  0  0  0  0  0  0  0  0
    2.3066   -1.8338   -0.8563 H   0  0  0  0  0  0  0  0  0  0  0  0
    0.3134   -2.7451    1.2709 H   0  0  0  0  0  0  0  0  0  0  0  0
    2.0288   -2.3296    1.5258 H   0  0  0  0  0  0  0  0  0  0  0  0
    1.1654    1.1612    1.9908 H   0  0  0  0  0  0  0  0  0  0  0  0
    2.0494   -0.3369    2.6790 H   0  0  0  0  0  0  0  0  0  0  0  0
    0.6243    1.8225    0.4048 H   0  0  0  0  0  0  0  0  0  0  0  0
   -0.9051    1.8519   -0.5054 H   0  0  0  0  0  0  0  0  0  0  0  0
    0.6103    2.4601    2.6334 H   0  0  0  0  0  0  0  0  0  0  0  0
   -4.2513    1.6826    2.9179 H   0  0  0  0  0  0  0  0  0  0  0  0
   -3.2168    0.0618    0.6227 H   0  0  0  0  0  0  0  0  0  0  0  0
    1.4162    2.3705    4.5623 H   0  0  0  0  0  0  0  0  0  0  0  0
    1.1167    4.0122    3.9430 H   0  0  0  0  0  0  0  0  0  0  0  0
    1.3424    3.7468    5.6886 H   0  0  0  0  0  0  0  0  0  0  0  0
    2.1204   -0.0401   -1.0250 H   0  0  0  0  0  0  0  0  0  0  0  0
    1.5443    0.0220   -2.7080 H   0  0  0  0  0  0  0  0  0  0  0  0
    1.1576    1.3481   -1.5854 H   0  0  0  0  0  0  0  0  0  0  0  0
  1  2  1  0  0  0  0
  1 24  1  0  0  0  0
  1 25  1  0  0  0  0
  1 26  1  0  0  0  0
  2  9  1  0  0  0  0
  2  3  1  0  0  0  0
  2 23  1  0  0  0  0
  3  4  1  0  0  0  0
  3  5  1  0  0  0  0
  3 22  1  0  0  0  0
  5  6  1  0  0  0  0
  5 27  1  0  0  0  0
  5 28  1  0  0  0  0
  6  7  1  0  0  0  0
  6 29  1  0  0  0  0
  6 30  1  0  0  0  0
  7  8  2  0  0  0  0
  7  9  1  0  0  0  0
  8 31  1  0  0  0  0
  8 32  1  0  0  0  0
  9 10  1  0  0  0  0
  9 11  1  0  0  0  0
 11 12  1  0  0  0  0
 11 33  1  0  0  0  0
 11 34  1  0  0  0  0
 12 17  2  0  0  0  0
 12 13  1  0  0  0  0
 13 14  2  0  0  0  0
 13 35  1  0  0  0  0
 14 15  1  0  0  0  0
 14 20  1  0  0  0  0
 15 16  2  0  0  0  0
 15 19  1  0  0  0  0
 16 17  1  0  0  0  0
 16 36  1  0  0  0  0
 17 18  1  0  0  0  0
 18 37  1  0  0  0  0
 20 21  1  0  0  0  0
 21 38  1  0  0  0  0
 21 39  1  0  0  0  0
 21 40  1  0  0  0  0
 23 41  1  0  0  0  0
 23 42  1  0  0  0  0
 23 43  1  0  0  0  0
M  END
$$$$
ZINC03833834
  -OEChem-08230709403D

 52 54  0     1  0  0  0  0  0999 V2000
    0.0750    2.2841   -0.0755 C   0  0  0  0  0  0  0  0  0  0  0  0
   -0.6429    2.4825    1.2346 C   0  0  0  0  0  0  0  0  0  0  0  0
   -1.9257    2.6905    1.2039 C   0  0  0  0  0  0  0  0  0  0  0  0
   -2.7233    2.9041    2.4627 C   0  0  0  0  0  0  0  0  0  0  0  0
   -3.7090    4.0713    2.4925 C   0  0  0  0  0  0  0  0  0  0  0  0
   -4.2262    2.6329    2.4162 C   0  0  0  0  0  0  0  0  0  0  0  0
   -1.9789    2.5683    3.7604 C   0  0  2  0  0  0  0  0  0  0  0  0
   -2.4910    3.0225    4.6087 H   0  0  0  0  0  0  0  0  0  0  0  0
   -0.5589    3.1404    3.6420 C   0  0  0  0  0  0  0  0  0  0  0  0
    0.1650    2.4344    2.4963 C   0  0  0  0  0  0  0  0  0  0  0  0
    0.1993    2.9046    4.9498 C   0  0  0  0  0  0  0  0  0  0  0  0
   -0.6335    4.6411    3.3535 C   0  0  0  0  0  0  0  0  0  0  0  0
   -1.9136    1.0509    3.9454 C   0  0  0  0  0  0  0  0  0  0  0  0
   -3.2995    0.5155    4.1978 C   0  0  0  0  0  0  0  0  0  0  0  0
   -3.8528    0.5994    5.4609 C   0  0  0  0  0  0  0  0  0  0  0  0
   -5.1277    0.1065    5.6936 C   0  0  0  0  0  0  0  0  0  0  0  0
   -5.8484   -0.4710    4.6571 C   0  0  0  0  0  0  0  0  0  0  0  0
   -5.2950   -0.5543    3.3940 C   0  0  0  0  0  0  0  0  0  0  0  0
   -4.0213   -0.0562    3.1607 C   0  0  0  0  0  0  0  0  0  0  0  0
   -3.4785   -0.1335    1.9163 O   0  0  0  0  0  0  0  0  0  0  0  0
   -2.6613   -1.1699    1.6712 C   0  0  0  0  0  0  0  0  0  0  0  0
   -2.5050   -2.0272    2.5082 O   0  0  0  0  0  0  0  0  0  0  0  0
   -1.9388   -1.2643    0.3520 C   0  0  0  0  0  0  0  0  0  0  0  0
   -7.5869   -1.1439    4.9742 Br  0  0  0  0  0  0  0  0  0  0  0  0
   -5.6722    0.1891    6.9369 O   0  0  0  0  0  0  0  0  0  0  0  0
   -4.8745    0.7958    7.9555 C   0  0  0  0  0  0  0  0  0  0  0  0
    0.0866    1.2235   -0.3265 H   0  0  0  0  0  0  0  0  0  0  0  0
    1.0988    2.6478    0.0125 H   0  0  0  0  0  0  0  0  0  0  0  0
   -0.4410    2.8376   -0.8600 H   0  0  0  0  0  0  0  0  0  0  0  0
   -2.4333    2.7065    0.2508 H   0  0  0  0  0  0  0  0  0  0  0  0
   -3.8331    4.6014    3.4368 H   0  0  0  0  0  0  0  0  0  0  0  0
   -3.7910    4.6840    1.5948 H   0  0  0  0  0  0  0  0  0  0  0  0
   -4.6484    2.2994    1.4682 H   0  0  0  0  0  0  0  0  0  0  0  0
   -4.6905    2.2168    3.3103 H   0  0  0  0  0  0  0  0  0  0  0  0
    0.3382    1.3937    2.7704 H   0  0  0  0  0  0  0  0  0  0  0  0
    1.1242    2.9232    2.3255 H   0  0  0  0  0  0  0  0  0  0  0  0
    1.2328    3.2313    4.8346 H   0  0  0  0  0  0  0  0  0  0  0  0
   -0.2738    3.4719    5.7514 H   0  0  0  0  0  0  0  0  0  0  0  0
    0.1790    1.8428    5.1952 H   0  0  0  0  0  0  0  0  0  0  0  0
   -1.1786    4.8058    2.4240 H   0  0  0  0  0  0  0  0  0  0  0  0
   -1.1501    5.1431    4.1715 H   0  0  0  0  0  0  0  0  0  0  0  0
    0.3751    5.0435    3.2593 H   0  0  0  0  0  0  0  0  0  0  0  0
   -1.5054    0.5924    3.0447 H   0  0  0  0  0  0  0  0  0  0  0  0
   -1.2729    0.8158    4.7952 H   0  0  0  0  0  0  0  0  0  0  0  0
   -3.2921    1.0486    6.2672 H   0  0  0  0  0  0  0  0  0  0  0  0
   -5.8553   -1.0034    2.5874 H   0  0  0  0  0  0  0  0  0  0  0  0
   -0.9762   -0.7586    0.4280 H   0  0  0  0  0  0  0  0  0  0  0  0
   -1.7795   -2.3125    0.0991 H   0  0  0  0  0  0  0  0  0  0  0  0
   -2.5380   -0.7900   -0.4252 H   0  0  0  0  0  0  0  0  0  0  0  0
   -5.4258    0.7978    8.8958 H   0  0  0  0  0  0  0  0  0  0  0  0
   -3.9501    0.2313    8.0775 H   0  0  0  0  0  0  0  0  0  0  0  0
   -4.6391    1.8211    7.6701 H   0  0  0  0  0  0  0  0  0  0  0  0
  1  2  1  0  0  0  0
  1 27  1  0  0  0  0
  1 28  1  0  0  0  0
  1 29  1  0  0  0  0
  2 10  1  0  0  0  0
  2  3  2  0  0  0  0
  3  4  1  0  0  0  0
  3 30  1  0  0  0  0
  4  6  1  0  0  0  0
  4  5  1  0  0  0  0
  4  7  1  0  0  0  0
  5  6  1  0  0  0  0
  5 31  1  0  0  0  0
  5 32  1  0  0  0  0
  6 33  1  0  0  0  0
  6 34  1  0  0  0  0
  7  8  1  0  0  0  0
  7  9  1  0  0  0  0
  7 13  1  0  0  0  0
  9 10  1  0  0  0  0
  9 11  1  0  0  0  0
  9 12  1  0  0  0  0
 10 35  1  0  0  0  0
 10 36  1  0  0  0  0
 11 37  1  0  0  0  0
 11 38  1  0  0  0  0
 11 39  1  0  0  0  0
 12 40  1  0  0  0  0
 12 41  1  0  0  0  0
 12 42  1  0  0  0  0
 13 14  1  0  0  0  0
 13 43  1  0  0  0  0
 13 44  1  0  0  0  0
 14 19  2  0  0  0  0
 14 15  1  0  0  0  0
 15 16  2  0  0  0  0
 15 45  1  0  0  0  0
 16 17  1  0  0  0  0
 16 25  1  0  0  0  0
 17 18  2  0  0  0  0
 17 24  1  0  0  0  0
 18 19  1  0  0  0  0
 18 46  1  0  0  0  0
 19 20  1  0  0  0  0
 20 21  1  0  0  0  0
 21 22  2  0  0  0  0
 21 23  1  0  0  0  0
 23 47  1  0  0  0  0
 23 48  1  0  0  0  0
 23 49  1  0  0  0  0
 25 26  1  0  0  0  0
 26 50  1  0  0  0  0
 26 51  1  0  0  0  0
 26 52  1  0  0  0  0
M  END
$$$$
ZINC03833835
  -OEChem-08230709403D

 44 45  0     1  0  0  0  0  0999 V2000
   -1.6631    0.3777    1.2154 C   0  0  0  0  0  0  0  0  0  0  0  0
   -0.3381    0.9298    0.7564 C   0  0  0  0  0  0  0  0  0  0  0  0
    0.7485    0.2065    0.9620 C   0  0  0  0  0  0  0  0  0  0  0  0
    2.0721    0.7045    0.5411 C   0  0  0  0  0  0  0  0  0  0  0  0
    3.1898    0.1020    0.9326 C   0  0  0  0  0  0  0  0  0  0  0  0
    2.1121    1.9266   -0.3535 C   0  0  0  0  0  0  0  0  0  0  0  0
    1.0648    2.9149    0.1791 C   0  0  0  0  0  0  0  0  0  0  0  0
   -0.3185    2.2725    0.0888 C   0  0  1  0  0  0  0  0  0  0  0  0
   -1.0467    2.9230    0.5733 H   0  0  0  0  0  0  0  0  0  0  0  0
   -0.6987    2.1058   -1.3838 C   0  0  0  0  0  0  0  0  0  0  0  0
   -2.1098    1.5859   -1.4825 C   0  0  0  0  0  0  0  0  0  0  0  0
   -3.1746    2.4208   -1.2026 C   0  0  0  0  0  0  0  0  0  0  0  0
   -4.4731    1.9444   -1.2988 C   0  0  0  0  0  0  0  0  0  0  0  0
   -4.7029    0.6255   -1.6653 C   0  0  0  0  0  0  0  0  0  0  0  0
   -3.6376   -0.2107   -1.9396 C   0  0  0  0  0  0  0  0  0  0  0  0
   -2.3389    0.2682   -1.8486 C   0  0  0  0  0  0  0  0  0  0  0  0
   -1.2905   -0.5548   -2.1181 O   0  0  0  0  0  0  0  0  0  0  0  0
   -6.4736   -0.0267   -1.7897 Br  0  0  0  0  0  0  0  0  0  0  0  0
   -5.5213    2.7677   -1.0287 O   0  0  0  0  0  0  0  0  0  0  0  0
   -5.2112    4.1124   -0.6578 C   0  0  0  0  0  0  0  0  0  0  0  0
    1.0918    4.1923   -0.6625 C   0  0  0  0  0  0  0  0  0  0  0  0
    1.3773    3.2543    1.6379 C   0  0  0  0  0  0  0  0  0  0  0  0
   -2.0678   -0.2813    0.4472 H   0  0  0  0  0  0  0  0  0  0  0  0
   -1.5224   -0.1841    2.1388 H   0  0  0  0  0  0  0  0  0  0  0  0
   -2.3574    1.1992    1.3920 H   0  0  0  0  0  0  0  0  0  0  0  0
    0.6671   -0.7573    1.4425 H   0  0  0  0  0  0  0  0  0  0  0  0
    3.1393   -0.7682    1.5702 H   0  0  0  0  0  0  0  0  0  0  0  0
    4.1487    0.4826    0.6133 H   0  0  0  0  0  0  0  0  0  0  0  0
    3.1024    2.3804   -0.3177 H   0  0  0  0  0  0  0  0  0  0  0  0
    1.8703    1.6443   -1.3782 H   0  0  0  0  0  0  0  0  0  0  0  0
   -0.6306    3.0698   -1.8880 H   0  0  0  0  0  0  0  0  0  0  0  0
   -0.0172    1.3992   -1.8573 H   0  0  0  0  0  0  0  0  0  0  0  0
   -2.9956    3.4456   -0.9129 H   0  0  0  0  0  0  0  0  0  0  0  0
   -3.8161   -1.2369   -2.2251 H   0  0  0  0  0  0  0  0  0  0  0  0
   -0.9076   -0.9733   -1.3349 H   0  0  0  0  0  0  0  0  0  0  0  0
   -4.6607    4.5945   -1.4657 H   0  0  0  0  0  0  0  0  0  0  0  0
   -6.1350    4.6598   -0.4703 H   0  0  0  0  0  0  0  0  0  0  0  0
   -4.6014    4.1086    0.2457 H   0  0  0  0  0  0  0  0  0  0  0  0
    0.3427    4.8900   -0.2881 H   0  0  0  0  0  0  0  0  0  0  0  0
    2.0791    4.6496   -0.5973 H   0  0  0  0  0  0  0  0  0  0  0  0
    0.8728    3.9474   -1.7018 H   0  0  0  0  0  0  0  0  0  0  0  0
    1.3613    2.3422    2.2346 H   0  0  0  0  0  0  0  0  0  0  0  0
    2.3643    3.7125    1.7009 H   0  0  0  0  0  0  0  0  0  0  0  0
    0.6289    3.9499    2.0175 H   0  0  0  0  0  0  0  0  0  0  0  0
  1  2  1  0  0  0  0
  1 23  1  0  0  0  0
  1 24  1  0  0  0  0
  1 25  1  0  0  0  0
  2  8  1  0  0  0  0
  2  3  2  0  0  0  0
  3  4  1  0  0  0  0
  3 26  1  0  0  0  0
  4  5  2  0  0  0  0
  4  6  1  0  0  0  0
  5 27  1  0  0  0  0
  5 28  1  0  0  0  0
  6  7  1  0  0  0  0
  6 29  1  0  0  0  0
  6 30  1  0  0  0  0
  7  8  1  0  0  0  0
  7 21  1  0  0  0  0
  7 22  1  0  0  0  0
  8  9  1  0  0  0  0
  8 10  1  0  0  0  0
 10 11  1  0  0  0  0
 10 31  1  0  0  0  0
 10 32  1  0  0  0  0
 11 16  2  0  0  0  0
 11 12  1  0  0  0  0
 12 13  2  0  0  0  0
 12 33  1  0  0  0  0
 13 14  1  0  0  0  0
 13 19  1  0  0  0  0
 14 15  2  0  0  0  0
 14 18  1  0  0  0  0
 15 16  1  0  0  0  0
 15 34  1  0  0  0  0
 16 17  1  0  0  0  0
 17 35  1  0  0  0  0
 19 20  1  0  0  0  0
 20 36  1  0  0  0  0
 20 37  1  0  0  0  0
 20 38  1  0  0  0  0
 21 39  1  0  0  0  0
 21 40  1  0  0  0  0
 21 41  1  0  0  0  0
 22 42  1  0  0  0  0
 22 43  1  0  0  0  0
 22 44  1  0  0  0  0
M  END
$$$$
ZINC03833836
  -OEChem-08230709403D

 41 42  0     1  0  0  0  0  0999 V2000
   -1.4643    8.0394   -3.3251 C   0  0  0  0  0  0  0  0  0  0  0  0
   -0.3542    7.5936   -2.3711 C   0  0  0  0  0  0  0  0  0  0  0  0
    0.7881    6.9705   -3.1717 C   0  0  0  0  0  0  0  0  0  0  0  0
    0.3623    5.6840   -3.8141 C   0  0  0  0  0  0  0  0  0  0  0  0
   -0.6547    4.9596   -3.3815 C   0  0  0  0  0  0  0  0  0  0  0  0
   -1.4489    5.4003   -2.2186 C   0  0  0  0  0  0  0  0  0  0  0  0
   -2.5981    4.8105   -1.9074 C   0  0  0  0  0  0  0  0  0  0  0  0
   -0.9077    6.5486   -1.3916 C   0  0  1  0  0  0  0  0  0  0  0  0
   -1.7075    6.9866   -0.7945 H   0  0  0  0  0  0  0  0  0  0  0  0
    0.2115    6.0488   -0.4759 C   0  0  0  0  0  0  0  0  0  0  0  0
   -0.3646    5.1175    0.5594 C   0  0  0  0  0  0  0  0  0  0  0  0
   -0.2533    3.7499    0.3965 C   0  0  0  0  0  0  0  0  0  0  0  0
   -0.7875    2.8927    1.3463 C   0  0  0  0  0  0  0  0  0  0  0  0
   -1.4253    3.4086    2.4660 C   0  0  0  0  0  0  0  0  0  0  0  0
   -1.5322    4.7763    2.6310 C   0  0  0  0  0  0  0  0  0  0  0  0
   -1.0022    5.6333    1.6776 C   0  0  0  0  0  0  0  0  0  0  0  0
   -1.1073    6.9793    1.8399 O   0  0  0  0  0  0  0  0  0  0  0  0
   -2.1482    2.2399    3.7650 Br  0  0  0  0  0  0  0  0  0  0  0  0
   -0.6816    1.5467    1.1837 O   0  0  0  0  0  0  0  0  0  0  0  0
   -0.0127    1.0858    0.0080 C   0  0  0  0  0  0  0  0  0  0  0  0
    0.1654    8.8024   -1.5902 C   0  0  0  0  0  0  0  0  0  0  0  0
   -2.2820    8.4766   -2.7521 H   0  0  0  0  0  0  0  0  0  0  0  0
   -1.0701    8.7811   -4.0198 H   0  0  0  0  0  0  0  0  0  0  0  0
   -1.8314    7.1780   -3.8830 H   0  0  0  0  0  0  0  0  0  0  0  0
    1.1039    7.6692   -3.9464 H   0  0  0  0  0  0  0  0  0  0  0  0
    1.6271    6.7747   -2.5039 H   0  0  0  0  0  0  0  0  0  0  0  0
    0.9145    5.3319   -4.6728 H   0  0  0  0  0  0  0  0  0  0  0  0
   -0.9070    4.0373   -3.8835 H   0  0  0  0  0  0  0  0  0  0  0  0
   -3.1640    5.1482   -1.0518 H   0  0  0  0  0  0  0  0  0  0  0  0
   -2.9663    3.9934   -2.5101 H   0  0  0  0  0  0  0  0  0  0  0  0
    0.6812    6.8980    0.0205 H   0  0  0  0  0  0  0  0  0  0  0  0
    0.9559    5.5173   -1.0687 H   0  0  0  0  0  0  0  0  0  0  0  0
    0.2469    3.3486   -0.4725 H   0  0  0  0  0  0  0  0  0  0  0  0
   -2.0281    5.1781    3.5022 H   0  0  0  0  0  0  0  0  0  0  0  0
   -0.3687    7.3763    2.3214 H   0  0  0  0  0  0  0  0  0  0  0  0
    0.0021   -0.0041    0.0020 H   0  0  0  0  0  0  0  0  0  0  0  0
    1.0099    1.4631    0.0003 H   0  0  0  0  0  0  0  0  0  0  0  0
   -0.5399    1.4469   -0.8751 H   0  0  0  0  0  0  0  0  0  0  0  0
    0.9582    8.4841   -0.9132 H   0  0  0  0  0  0  0  0  0  0  0  0
    0.5580    9.5434   -2.2865 H   0  0  0  0  0  0  0  0  0  0  0  0
   -0.6497    9.2408   -1.0144 H   0  0  0  0  0  0  0  0  0  0  0  0
  1  2  1  0  0  0  0
  1 22  1  0  0  0  0
  1 23  1  0  0  0  0
  1 24  1  0  0  0  0
  2  8  1  0  0  0  0
  2  3  1  0  0  0  0
  2 21  1  0  0  0  0
  3  4  1  0  0  0  0
  3 25  1  0  0  0  0
  3 26  1  0  0  0  0
  4  5  2  0  0  0  0
  4 27  1  0  0  0  0
  5  6  1  0  0  0  0
  5 28  1  0  0  0  0
  6  7  2  0  0  0  0
  6  8  1  0  0  0  0
  7 29  1  0  0  0  0
  7 30  1  0  0  0  0
  8  9  1  0  0  0  0
  8 10  1  0  0  0  0
 10 11  1  0  0  0  0
 10 31  1  0  0  0  0
 10 32  1  0  0  0  0
 11 16  2  0  0  0  0
 11 12  1  0  0  0  0
 12 13  2  0  0  0  0
 12 33  1  0  0  0  0
 13 14  1  0  0  0  0
 13 19  1  0  0  0  0
 14 15  2  0  0  0  0
 14 18  1  0  0  0  0
 15 16  1  0  0  0  0
 15 34  1  0  0  0  0
 16 17  1  0  0  0  0
 17 35  1  0  0  0  0
 19 20  1  0  0  0  0
 20 36  1  0  0  0  0
 20 37  1  0  0  0  0
 20 38  1  0  0  0  0
 21 39  1  0  0  0  0
 21 40  1  0  0  0  0
 21 41  1  0  0  0  0
M  END
$$$$
ZINC03833837
  -OEChem-08230709403D

 43 44  0     1  0  0  0  0  0999 V2000
   -2.8133    1.4083    2.6334 C   0  0  0  0  0  0  0  0  0  0  0  0
   -2.1361    0.9817    1.3294 C   0  0  0  0  0  0  0  0  0  0  0  0
   -0.7292    1.5794    1.2661 C   0  0  2  0  0  0  0  0  0  0  0  0
   -0.7985    2.6669    1.2405 H   0  0  0  0  0  0  0  0  0  0  0  0
   -0.0127    1.0858    0.0080 C   0  0  0  0  0  0  0  0  0  0  0  0
   -0.7544    1.5937   -1.2329 C   0  0  0  0  0  0  0  0  0  0  0  0
   -2.2031    1.1700   -1.1343 C   0  0  0  0  0  0  0  0  0  0  0  0
   -2.7895    0.5459   -2.1257 C   0  0  0  0  0  0  0  0  0  0  0  0
   -2.9576    1.4857    0.1382 C   0  0  2  0  0  0  0  0  0  0  0  0
   -3.9259    0.9854    0.1234 H   0  0  0  0  0  0  0  0  0  0  0  0
   -3.1621    2.9976    0.2527 C   0  0  0  0  0  0  0  0  0  0  0  0
   -4.0550    3.4699   -0.8656 C   0  0  0  0  0  0  0  0  0  0  0  0
   -5.3974    3.6962   -0.6290 C   0  0  0  0  0  0  0  0  0  0  0  0
   -6.2182    4.1353   -1.6564 C   0  0  0  0  0  0  0  0  0  0  0  0
   -5.6936    4.3375   -2.9255 C   0  0  0  0  0  0  0  0  0  0  0  0
   -4.3522    4.1060   -3.1631 C   0  0  0  0  0  0  0  0  0  0  0  0
   -3.5304    3.6717   -2.1333 C   0  0  0  0  0  0  0  0  0  0  0  0
   -2.2103    3.4443   -2.3669 O   0  0  0  0  0  0  0  0  0  0  0  0
   -6.8141    4.9301   -4.3287 Br  0  0  0  0  0  0  0  0  0  0  0  0
   -7.5384    4.3631   -1.4222 O   0  0  0  0  0  0  0  0  0  0  0  0
   -8.0102    4.1345   -0.0928 C   0  0  0  0  0  0  0  0  0  0  0  0
    0.2877    1.0285    2.8559 Br  0  0  0  0  0  0  0  0  0  0  0  0
   -2.0451   -0.5447    1.2773 C   0  0  0  0  0  0  0  0  0  0  0  0
   -3.8161    0.9833    2.6779 H   0  0  0  0  0  0  0  0  0  0  0  0
   -2.2288    1.0497    3.4806 H   0  0  0  0  0  0  0  0  0  0  0  0
   -2.8776    2.4958    2.6705 H   0  0  0  0  0  0  0  0  0  0  0  0
    0.0021   -0.0041    0.0020 H   0  0  0  0  0  0  0  0  0  0  0  0
    1.0098    1.4633    0.0003 H   0  0  0  0  0  0  0  0  0  0  0  0
   -0.6931    2.6811   -1.2766 H   0  0  0  0  0  0  0  0  0  0  0  0
   -0.3071    1.1628   -2.1287 H   0  0  0  0  0  0  0  0  0  0  0  0
   -2.2379    0.3278   -3.0282 H   0  0  0  0  0  0  0  0  0  0  0  0
   -3.8246    0.2497   -2.0405 H   0  0  0  0  0  0  0  0  0  0  0  0
   -3.6264    3.2299    1.2111 H   0  0  0  0  0  0  0  0  0  0  0  0
   -2.1976    3.5009    0.1848 H   0  0  0  0  0  0  0  0  0  0  0  0
   -5.8065    3.5347    0.3574 H   0  0  0  0  0  0  0  0  0  0  0  0
   -3.9437    4.2628   -4.1505 H   0  0  0  0  0  0  0  0  0  0  0  0
   -2.0099    2.5395   -2.6431 H   0  0  0  0  0  0  0  0  0  0  0  0
   -9.0769    4.3532   -0.0432 H   0  0  0  0  0  0  0  0  0  0  0  0
   -7.8399    3.0927    0.1791 H   0  0  0  0  0  0  0  0  0  0  0  0
   -7.4737    4.7831    0.5997 H   0  0  0  0  0  0  0  0  0  0  0  0
   -1.5621   -0.8484    0.3485 H   0  0  0  0  0  0  0  0  0  0  0  0
   -1.4606   -0.9030    2.1248 H   0  0  0  0  0  0  0  0  0  0  0  0
   -3.0476   -0.9701    1.3215 H   0  0  0  0  0  0  0  0  0  0  0  0
  1  2  1  0  0  0  0
  1 24  1  0  0  0  0
  1 25  1  0  0  0  0
  1 26  1  0  0  0  0
  2  9  1  0  0  0  0
  2  3  1  0  0  0  0
  2 23  1  0  0  0  0
  3  4  1  0  0  0  0
  3  5  1  0  0  0  0
  3 22  1  0  0  0  0
  5  6  1  0  0  0  0
  5 27  1  0  0  0  0
  5 28  1  0  0  0  0
  6  7  1  0  0  0  0
  6 29  1  0  0  0  0
  6 30  1  0  0  0  0
  7  8  2  0  0  0  0
  7  9  1  0  0  0  0
  8 31  1  0  0  0  0
  8 32  1  0  0  0  0
  9 10  1  0  0  0  0
  9 11  1  0  0  0  0
 11 12  1  0  0  0  0
 11 33  1  0  0  0  0
 11 34  1  0  0  0  0
 12 17  2  0  0  0  0
 12 13  1  0  0  0  0
 13 14  2  0  0  0  0
 13 35  1  0  0  0  0
 14 15  1  0  0  0  0
 14 20  1  0  0  0  0
 15 16  2  0  0  0  0
 15 19  1  0  0  0  0
 16 17  1  0  0  0  0
 16 36  1  0  0  0  0
 17 18  1  0  0  0  0
 18 37  1  0  0  0  0
 20 21  1  0  0  0  0
 21 38  1  0  0  0  0
 21 39  1  0  0  0  0
 21 40  1  0  0  0  0
 23 41  1  0  0  0  0
 23 42  1  0  0  0  0
 23 43  1  0  0  0  0
M  END
$$$$
ZINC03833838
  -OEChem-08230709403D

 49 50  0     1  0  0  0  0  0999 V2000
    1.7252    5.9808    7.5295 C   0  0  0  0  0  0  0  0  0  0  0  0
    2.2356    5.0038    6.5020 C   0  0  0  0  0  0  0  0  0  0  0  0
    3.2906    4.2566    6.7758 C   0  0  0  0  0  0  0  0  0  0  0  0
    3.8589    3.2528    5.8175 C   0  0  0  0  0  0  0  0  0  0  0  0
    3.4576    3.5731    4.3785 C   0  0  0  0  0  0  0  0  0  0  0  0
    1.9314    3.7253    4.3062 C   0  0  2  0  0  0  0  0  0  0  0  0
    1.6271    3.9291    3.2795 H   0  0  0  0  0  0  0  0  0  0  0  0
    1.5535    4.8900    5.1986 C   0  0  0  0  0  0  0  0  0  0  0  0
    0.6393    5.7772    4.8211 C   0  0  0  0  0  0  0  0  0  0  0  0
    1.2562    2.4463    4.8052 C   0  0  0  0  0  0  0  0  0  0  0  0
   -0.2346    2.5585    4.6158 C   0  0  0  0  0  0  0  0  0  0  0  0
   -1.0323    2.9924    5.6570 C   0  0  0  0  0  0  0  0  0  0  0  0
   -2.4041    3.0958    5.4831 C   0  0  0  0  0  0  0  0  0  0  0  0
   -2.9759    2.7633    4.2626 C   0  0  0  0  0  0  0  0  0  0  0  0
   -2.1774    2.3341    3.2201 C   0  0  0  0  0  0  0  0  0  0  0  0
   -0.8056    2.2258    3.3964 C   0  0  0  0  0  0  0  0  0  0  0  0
   -0.0200    1.7989    2.3718 O   0  0  0  0  0  0  0  0  0  0  0  0
    0.2590    0.4866    2.3237 C   0  0  0  0  0  0  0  0  0  0  0  0
   -0.1063   -0.2418    3.2159 O   0  0  0  0  0  0  0  0  0  0  0  0
    1.0278   -0.0780    1.1571 C   0  0  0  0  0  0  0  0  0  0  0  0
   -4.8466    2.9042    4.0250 Br  0  0  0  0  0  0  0  0  0  0  0  0
   -3.1892    3.5224    6.5081 O   0  0  0  0  0  0  0  0  0  0  0  0
   -2.5337    3.8469    7.7357 C   0  0  0  0  0  0  0  0  0  0  0  0
    3.9027    2.4352    3.4577 C   0  0  0  0  0  0  0  0  0  0  0  0
    4.1236    4.8790    3.9401 C   0  0  0  0  0  0  0  0  0  0  0  0
    2.3481    5.9276    8.4224 H   0  0  0  0  0  0  0  0  0  0  0  0
    1.7619    6.9905    7.1205 H   0  0  0  0  0  0  0  0  0  0  0  0
    0.6963    5.7311    7.7888 H   0  0  0  0  0  0  0  0  0  0  0  0
    3.7670    4.3744    7.7379 H   0  0  0  0  0  0  0  0  0  0  0  0
    3.4901    2.2609    6.0788 H   0  0  0  0  0  0  0  0  0  0  0  0
    4.9461    3.2605    5.8953 H   0  0  0  0  0  0  0  0  0  0  0  0
    0.1512    5.6753    3.8631 H   0  0  0  0  0  0  0  0  0  0  0  0
    0.3844    6.6003    5.4722 H   0  0  0  0  0  0  0  0  0  0  0  0
    1.4786    2.3070    5.8631 H   0  0  0  0  0  0  0  0  0  0  0  0
    1.6311    1.5932    4.2397 H   0  0  0  0  0  0  0  0  0  0  0  0
   -0.5874    3.2514    6.6064 H   0  0  0  0  0  0  0  0  0  0  0  0
   -2.6214    2.0793    2.2691 H   0  0  0  0  0  0  0  0  0  0  0  0
    2.0953   -0.0448    1.3752 H   0  0  0  0  0  0  0  0  0  0  0  0
    0.8207    0.5133    0.2651 H   0  0  0  0  0  0  0  0  0  0  0  0
    0.7236   -1.1107    0.9871 H   0  0  0  0  0  0  0  0  0  0  0  0
   -3.2731    4.1723    8.4675 H   0  0  0  0  0  0  0  0  0  0  0  0
   -2.0122    2.9671    8.1128 H   0  0  0  0  0  0  0  0  0  0  0  0
   -1.8158    4.6488    7.5634 H   0  0  0  0  0  0  0  0  0  0  0  0
    3.6089    2.6612    2.4326 H   0  0  0  0  0  0  0  0  0  0  0  0
    4.9862    2.3282    3.5099 H   0  0  0  0  0  0  0  0  0  0  0  0
    3.4301    1.5055    3.7745 H   0  0  0  0  0  0  0  0  0  0  0  0
    3.8080    5.6871    4.5999 H   0  0  0  0  0  0  0  0  0  0  0  0
    5.2068    4.7696    3.9918 H   0  0  0  0  0  0  0  0  0  0  0  0
    3.8303    5.1104    2.9161 H   0  0  0  0  0  0  0  0  0  0  0  0
  1  2  1  0  0  0  0
  1 26  1  0  0  0  0
  1 27  1  0  0  0  0
  1 28  1  0  0  0  0
  2  8  1  0  0  0  0
  2  3  2  0  0  0  0
  3  4  1  0  0  0  0
  3 29  1  0  0  0  0
  4  5  1  0  0  0  0
  4 30  1  0  0  0  0
  4 31  1  0  0  0  0
  5  6  1  0  0  0  0
  5 24  1  0  0  0  0
  5 25  1  0  0  0  0
  6  7  1  0  0  0  0
  6  8  1  0  0  0  0
  6 10  1  0  0  0  0
  8  9  2  0  0  0  0
  9 32  1  0  0  0  0
  9 33  1  0  0  0  0
 10 11  1  0  0  0  0
 10 34  1  0  0  0  0
 10 35  1  0  0  0  0
 11 16  2  0  0  0  0
 11 12  1  0  0  0  0
 12 13  2  0  0  0  0
 12 36  1  0  0  0  0
 13 14  1  0  0  0  0
 13 22  1  0  0  0  0
 14 15  2  0  0  0  0
 14 21  1  0  0  0  0
 15 16  1  0  0  0  0
 15 37  1  0  0  0  0
 16 17  1  0  0  0  0
 17 18  1  0  0  0  0
 18 19  2  0  0  0  0
 18 20  1  0  0  0  0
 20 38  1  0  0  0  0
 20 39  1  0  0  0  0
 20 40  1  0  0  0  0
 22 23  1  0  0  0  0
 23 41  1  0  0  0  0
 23 42  1  0  0  0  0
 23 43  1  0  0  0  0
 24 44  1  0  0  0  0
 24 45  1  0  0  0  0
 24 46  1  0  0  0  0
 25 47  1  0  0  0  0
 25 48  1  0  0  0  0
 25 49  1  0  0  0  0
M  END
$$$$
ZINC03833839
  -OEChem-08230709403D

 48 49  0     1  0  0  0  0  0999 V2000
    2.2787    1.8088   -3.6982 C   0  0  0  0  0  0  0  0  0  0  0  0
    1.4894    1.7980   -2.4145 C   0  0  0  0  0  0  0  0  0  0  0  0
    2.1258    2.0493   -1.2841 C   0  0  0  0  0  0  0  0  0  0  0  0
    1.3988    2.0609   -0.0002 C   0  0  0  0  0  0  0  0  0  0  0  0
    1.9670    2.5247    1.1076 C   0  0  0  0  0  0  0  0  0  0  0  0
   -0.0187    1.5258    0.0104 C   0  0  1  0  0  0  0  0  0  0  0  0
   -0.5441    1.8847    0.8954 H   0  0  0  0  0  0  0  0  0  0  0  0
   -0.7111    2.0461   -1.2575 C   0  0  0  0  0  0  0  0  0  0  0  0
    0.0208    1.5022   -2.4836 C   0  0  0  0  0  0  0  0  0  0  0  0
   -2.1656    1.5719   -1.2776 C   0  0  0  0  0  0  0  0  0  0  0  0
   -0.6692    3.5755   -1.2725 C   0  0  0  0  0  0  0  0  0  0  0  0
    0.0021   -0.0041    0.0020 C   0  0  0  0  0  0  0  0  0  0  0  0
    0.6216   -0.5051    1.2812 C   0  0  0  0  0  0  0  0  0  0  0  0
   -0.0409   -1.3605    2.0482 C   0  0  0  0  0  0  0  0  0  0  0  0
    0.5664   -1.8516    3.3021 C   0  0  0  0  0  0  0  0  0  0  0  0
    1.8391   -1.4219    3.6793 C   0  0  0  0  0  0  0  0  0  0  0  0
    2.4005   -1.8817    4.8572 C   0  0  0  0  0  0  0  0  0  0  0  0
    1.7041   -2.7778    5.6587 C   0  0  0  0  0  0  0  0  0  0  0  0
    0.4449   -3.2116    5.2879 C   0  0  0  0  0  0  0  0  0  0  0  0
   -0.1302   -2.7544    4.1136 C   0  0  0  0  0  0  0  0  0  0  0  0
   -1.3683   -3.1813    3.7505 O   0  0  0  0  0  0  0  0  0  0  0  0
    2.4817   -3.4064    7.2637 Br  0  0  0  0  0  0  0  0  0  0  0  0
    3.6386   -1.4594    5.2290 O   0  0  0  0  0  0  0  0  0  0  0  0
    4.2983   -0.5379    4.3585 C   0  0  0  0  0  0  0  0  0  0  0  0
    3.3221    2.0374   -3.4813 H   0  0  0  0  0  0  0  0  0  0  0  0
    2.2124    0.8302   -4.1737 H   0  0  0  0  0  0  0  0  0  0  0  0
    1.8724    2.5665   -4.3682 H   0  0  0  0  0  0  0  0  0  0  0  0
    3.1873    2.2475   -1.3000 H   0  0  0  0  0  0  0  0  0  0  0  0
    1.4173    2.5247    2.0373 H   0  0  0  0  0  0  0  0  0  0  0  0
    2.9786    2.9018    1.0785 H   0  0  0  0  0  0  0  0  0  0  0  0
   -0.3944    1.9621   -3.3804 H   0  0  0  0  0  0  0  0  0  0  0  0
   -0.1241    0.4232   -2.5359 H   0  0  0  0  0  0  0  0  0  0  0  0
   -2.6844    1.9537   -0.3984 H   0  0  0  0  0  0  0  0  0  0  0  0
   -2.6559    1.9419   -2.1781 H   0  0  0  0  0  0  0  0  0  0  0  0
   -2.1926    0.4823   -1.2708 H   0  0  0  0  0  0  0  0  0  0  0  0
    0.3679    3.9107   -1.2621 H   0  0  0  0  0  0  0  0  0  0  0  0
   -1.1610    3.9436   -2.1730 H   0  0  0  0  0  0  0  0  0  0  0  0
   -1.1847    3.9617   -0.3933 H   0  0  0  0  0  0  0  0  0  0  0  0
   -1.0175   -0.3808   -0.0798 H   0  0  0  0  0  0  0  0  0  0  0  0
    0.5883   -0.3548   -0.8473 H   0  0  0  0  0  0  0  0  0  0  0  0
    1.6050   -0.1675    1.5733 H   0  0  0  0  0  0  0  0  0  0  0  0
   -1.0243   -1.6981    1.7560 H   0  0  0  0  0  0  0  0  0  0  0  0
    2.3833   -0.7288    3.0549 H   0  0  0  0  0  0  0  0  0  0  0  0
   -0.0914   -3.9085    5.9149 H   0  0  0  0  0  0  0  0  0  0  0  0
   -1.3648   -3.9798    3.2052 H   0  0  0  0  0  0  0  0  0  0  0  0
    4.4269   -0.9940    3.3768 H   0  0  0  0  0  0  0  0  0  0  0  0
    3.6968    0.3661    4.2631 H   0  0  0  0  0  0  0  0  0  0  0  0
    5.2743   -0.2831    4.7714 H   0  0  0  0  0  0  0  0  0  0  0  0
  1  2  1  0  0  0  0
  1 25  1  0  0  0  0
  1 26  1  0  0  0  0
  1 27  1  0  0  0  0
  2  9  1  0  0  0  0
  2  3  2  0  0  0  0
  3  4  1  0  0  0  0
  3 28  1  0  0  0  0
  4  5  2  0  0  0  0
  4  6  1  0  0  0  0
  5 29  1  0  0  0  0
  5 30  1  0  0  0  0
  6  7  1  0  0  0  0
  6  8  1  0  0  0  0
  6 12  1  0  0  0  0
  8  9  1  0  0  0  0
  8 10  1  0  0  0  0
  8 11  1  0  0  0  0
  9 31  1  0  0  0  0
  9 32  1  0  0  0  0
 10 33  1  0  0  0  0
 10 34  1  0  0  0  0
 10 35  1  0  0  0  0
 11 36  1  0  0  0  0
 11 37  1  0  0  0  0
 11 38  1  0  0  0  0
 12 13  1  0  0  0  0
 12 39  1  0  0  0  0
 12 40  1  0  0  0  0
 13 14  2  0  0  0  0
 13 41  1  0  0  0  0
 14 15  1  0  0  0  0
 14 42  1  0  0  0  0
 15 20  2  0  0  0  0
 15 16  1  0  0  0  0
 16 17  2  0  0  0  0
 16 43  1  0  0  0  0
 17 18  1  0  0  0  0
 17 23  1  0  0  0  0
 18 19  2  0  0  0  0
 18 22  1  0  0  0  0
 19 20  1  0  0  0  0
 19 44  1  0  0  0  0
 20 21  1  0  0  0  0
 21 45  1  0  0  0  0
 23 24  1  0  0  0  0
 24 46  1  0  0  0  0
 24 47  1  0  0  0  0
 24 48  1  0  0  0  0
M  END
$$$$
ZINC03833840
  -OEChem-08230709403D

 40 41  0     1  0  0  0  0  0999 V2000
   -2.0605    2.7051    4.0177 C   0  0  0  0  0  0  0  0  0  0  0  0
   -0.6100    2.2276    4.1114 C   0  0  0  0  0  0  0  0  0  0  0  0
    0.1444    2.9916    5.2305 C   0  0  0  0  0  0  0  0  0  0  0  0
    0.5270    4.3170    4.5264 C   0  0  0  0  0  0  0  0  0  0  0  0
    0.8770    3.9045    3.1076 C   0  0  0  0  0  0  0  0  0  0  0  0
    1.6510    4.5587    2.2775 C   0  0  0  0  0  0  0  0  0  0  0  0
    0.1661    2.5964    2.8301 C   0  0  1  0  0  0  0  0  0  0  0  0
   -0.5265    2.7183    1.9972 H   0  0  0  0  0  0  0  0  0  0  0  0
    1.1876    1.5048    2.5049 C   0  0  0  0  0  0  0  0  0  0  0  0
    1.8621    1.8221    1.1951 C   0  0  0  0  0  0  0  0  0  0  0  0
    3.1190    2.3960    1.1867 C   0  0  0  0  0  0  0  0  0  0  0  0
    3.7374    2.6933   -0.0181 C   0  0  0  0  0  0  0  0  0  0  0  0
    3.0963    2.4090   -1.2159 C   0  0  0  0  0  0  0  0  0  0  0  0
    1.8417    1.8299   -1.2071 C   0  0  0  0  0  0  0  0  0  0  0  0
    1.2235    1.5328   -0.0014 C   0  0  0  0  0  0  0  0  0  0  0  0
   -0.0110    0.9628    0.0073 O   0  0  0  0  0  0  0  0  0  0  0  0
    3.9392    2.8149   -2.8592 Br  0  0  0  0  0  0  0  0  0  0  0  0
    4.9720    3.2637   -0.0262 O   0  0  0  0  0  0  0  0  0  0  0  0
    5.5726    3.5285    1.2431 C   0  0  0  0  0  0  0  0  0  0  0  0
   -0.5542    0.7186    4.3580 C   0  0  0  0  0  0  0  0  0  0  0  0
   -2.5442    2.2321    3.1631 H   0  0  0  0  0  0  0  0  0  0  0  0
   -2.5914    2.4357    4.9307 H   0  0  0  0  0  0  0  0  0  0  0  0
   -2.0792    3.7877    3.8925 H   0  0  0  0  0  0  0  0  0  0  0  0
    1.0357    2.4456    5.5398 H   0  0  0  0  0  0  0  0  0  0  0  0
   -0.5082    3.1798    6.0831 H   0  0  0  0  0  0  0  0  0  0  0  0
    1.3890    4.7722    5.0142 H   0  0  0  0  0  0  0  0  0  0  0  0
   -0.3168    5.0070    4.5251 H   0  0  0  0  0  0  0  0  0  0  0  0
    1.8315    4.1691    1.2866 H   0  0  0  0  0  0  0  0  0  0  0  0
    2.1087    5.4877    2.5842 H   0  0  0  0  0  0  0  0  0  0  0  0
    0.6799    0.5433    2.4286 H   0  0  0  0  0  0  0  0  0  0  0  0
    1.9351    1.4592    3.2968 H   0  0  0  0  0  0  0  0  0  0  0  0
    3.6180    2.6168    2.1187 H   0  0  0  0  0  0  0  0  0  0  0  0
    1.3424    1.6089   -2.1389 H   0  0  0  0  0  0  0  0  0  0  0  0
    0.0021   -0.0041    0.0020 H   0  0  0  0  0  0  0  0  0  0  0  0
    4.9387    4.2104    1.8099 H   0  0  0  0  0  0  0  0  0  0  0  0
    5.6851    2.5946    1.7938 H   0  0  0  0  0  0  0  0  0  0  0  0
    6.5523    3.9826    1.0938 H   0  0  0  0  0  0  0  0  0  0  0  0
    0.4841    0.4071    4.4717 H   0  0  0  0  0  0  0  0  0  0  0  0
   -1.1071    0.4781    5.2661 H   0  0  0  0  0  0  0  0  0  0  0  0
   -0.9999    0.1955    3.5120 H   0  0  0  0  0  0  0  0  0  0  0  0
  1  2  1  0  0  0  0
  1 21  1  0  0  0  0
  1 22  1  0  0  0  0
  1 23  1  0  0  0  0
  2  7  1  0  0  0  0
  2  3  1  0  0  0  0
  2 20  1  0  0  0  0
  3  4  1  0  0  0  0
  3 24  1  0  0  0  0
  3 25  1  0  0  0  0
  4  5  1  0  0  0  0
  4 26  1  0  0  0  0
  4 27  1  0  0  0  0
  5  6  2  0  0  0  0
  5  7  1  0  0  0  0
  6 28  1  0  0  0  0
  6 29  1  0  0  0  0
  7  8  1  0  0  0  0
  7  9  1  0  0  0  0
  9 10  1  0  0  0  0
  9 30  1  0  0  0  0
  9 31  1  0  0  0  0
 10 15  2  0  0  0  0
 10 11  1  0  0  0  0
 11 12  2  0  0  0  0
 11 32  1  0  0  0  0
 12 13  1  0  0  0  0
 12 18  1  0  0  0  0
 13 14  2  0  0  0  0
 13 17  1  0  0  0  0
 14 15  1  0  0  0  0
 14 33  1  0  0  0  0
 15 16  1  0  0  0  0
 16 34  1  0  0  0  0
 18 19  1  0  0  0  0
 19 35  1  0  0  0  0
 19 36  1  0  0  0  0
 19 37  1  0  0  0  0
 20 38  1  0  0  0  0
 20 39  1  0  0  0  0
 20 40  1  0  0  0  0
M  END
$$$$
ZINC03833841
  -OEChem-08230709403D

 41 42  0     1  0  0  0  0  0999 V2000
    2.7886    3.6177   -2.8033 C   0  0  0  0  0  0  0  0  0  0  0  0
    1.5227    2.9522   -2.3283 C   0  0  0  0  0  0  0  0  0  0  0  0
    0.5894    3.7036   -1.7710 C   0  0  0  0  0  0  0  0  0  0  0  0
   -0.6730    3.1042   -1.2977 C   0  0  0  0  0  0  0  0  0  0  0  0
   -1.7039    3.8634   -0.9423 C   0  0  0  0  0  0  0  0  0  0  0  0
   -0.7527    1.5927   -1.2315 C   0  0  1  0  0  0  0  0  0  0  0  0
   -1.7955    1.2773   -1.1957 H   0  0  0  0  0  0  0  0  0  0  0  0
   -0.0828    1.0457   -2.5003 C   0  0  0  0  0  0  0  0  0  0  0  0
    1.3850    1.4701   -2.5112 C   0  0  0  0  0  0  0  0  0  0  0  0
   -0.1739   -0.4816   -2.5093 C   0  0  0  0  0  0  0  0  0  0  0  0
   -0.7883    1.6096   -3.7353 C   0  0  0  0  0  0  0  0  0  0  0  0
   -0.0127    1.0858    0.0080 C   0  0  0  0  0  0  0  0  0  0  0  0
   -0.7181    1.5718    1.2479 C   0  0  0  0  0  0  0  0  0  0  0  0
   -0.3599    2.7788    1.8186 C   0  0  0  0  0  0  0  0  0  0  0  0
   -1.0099    3.2267    2.9534 C   0  0  0  0  0  0  0  0  0  0  0  0
   -2.0119    2.4633    3.5227 C   0  0  0  0  0  0  0  0  0  0  0  0
   -2.3665    1.2538    2.9550 C   0  0  0  0  0  0  0  0  0  0  0  0
   -1.7194    0.8079    1.8177 C   0  0  0  0  0  0  0  0  0  0  0  0
   -2.7054    2.9411    4.7400 N   0  3  0  0  0  0  0  0  0  0  0  0
   -3.5885    2.2686    5.2414 O   0  0  0  0  0  0  0  0  0  0  0  0
   -2.3930    4.0068    5.2402 O   0  5  0  0  0  0  0  0  0  0  0  0
    2.7351    4.6872   -2.6002 H   0  0  0  0  0  0  0  0  0  0  0  0
    3.6428    3.1904   -2.2781 H   0  0  0  0  0  0  0  0  0  0  0  0
    2.9036    3.4567   -3.8752 H   0  0  0  0  0  0  0  0  0  0  0  0
    0.7522    4.7656   -1.6608 H   0  0  0  0  0  0  0  0  0  0  0  0
   -2.6193    3.4046   -0.5988 H   0  0  0  0  0  0  0  0  0  0  0  0
   -1.6264    4.9392   -0.9969 H   0  0  0  0  0  0  0  0  0  0  0  0
    1.8322    1.1847   -3.4633 H   0  0  0  0  0  0  0  0  0  0  0  0
    1.9097    0.9603   -1.7032 H   0  0  0  0  0  0  0  0  0  0  0  0
   -1.2212   -0.7832   -2.4933 H   0  0  0  0  0  0  0  0  0  0  0  0
    0.3019   -0.8686   -3.4104 H   0  0  0  0  0  0  0  0  0  0  0  0
    0.3327   -0.8810   -1.6308 H   0  0  0  0  0  0  0  0  0  0  0  0
   -0.7186    2.6973   -3.7285 H   0  0  0  0  0  0  0  0  0  0  0  0
   -0.3119    1.2206   -4.6352 H   0  0  0  0  0  0  0  0  0  0  0  0
   -1.8370    1.3126   -3.7220 H   0  0  0  0  0  0  0  0  0  0  0  0
    0.0021   -0.0041    0.0020 H   0  0  0  0  0  0  0  0  0  0  0  0
    1.0099    1.4631    0.0003 H   0  0  0  0  0  0  0  0  0  0  0  0
    0.4254    3.3735    1.3759 H   0  0  0  0  0  0  0  0  0  0  0  0
   -0.7332    4.1718    3.3968 H   0  0  0  0  0  0  0  0  0  0  0  0
   -3.1493    0.6573    3.3998 H   0  0  0  0  0  0  0  0  0  0  0  0
   -1.9965   -0.1370    1.3742 H   0  0  0  0  0  0  0  0  0  0  0  0
  1  2  1  0  0  0  0
  1 22  1  0  0  0  0
  1 23  1  0  0  0  0
  1 24  1  0  0  0  0
  2  9  1  0  0  0  0
  2  3  2  0  0  0  0
  3  4  1  0  0  0  0
  3 25  1  0  0  0  0
  4  5  2  0  0  0  0
  4  6  1  0  0  0  0
  5 26  1  0  0  0  0
  5 27  1  0  0  0  0
  6  7  1  0  0  0  0
  6  8  1  0  0  0  0
  6 12  1  0  0  0  0
  8  9  1  0  0  0  0
  8 10  1  0  0  0  0
  8 11  1  0  0  0  0
  9 28  1  0  0  0  0
  9 29  1  0  0  0  0
 10 30  1  0  0  0  0
 10 31  1  0  0  0  0
 10 32  1  0  0  0  0
 11 33  1  0  0  0  0
 11 34  1  0  0  0  0
 11 35  1  0  0  0  0
 12 13  1  0  0  0  0
 12 36  1  0  0  0  0
 12 37  1  0  0  0  0
 13 18  2  0  0  0  0
 13 14  1  0  0  0  0
 14 15  2  0  0  0  0
 14 38  1  0  0  0  0
 15 16  1  0  0  0  0
 15 39  1  0  0  0  0
 16 17  2  0  0  0  0
 16 19  1  0  0  0  0
 17 18  1  0  0  0  0
 17 40  1  0  0  0  0
 18 41  1  0  0  0  0
 19 20  2  0  0  0  0
 19 21  1  0  0  0  0
M  CHG  2  19   1  21  -1
M  END
$$$$
ZINC04628807
  -OEChem-08230709403D

 51 55  0     0  0  0  0  0  0999 V2000
   -2.9677   -0.9800   -2.6991 C   0  0  0  0  0  0  0  0  0  0  0  0
   -3.8692   -1.9630   -1.9935 C   0  0  0  0  0  0  0  0  0  0  0  0
   -4.3406   -2.9889   -2.6887 C   0  0  0  0  0  0  0  0  0  0  0  0
   -5.3050   -3.9947   -2.1461 C   0  0  0  0  0  0  0  0  0  0  0  0
   -5.7379   -3.6849   -0.7891 N   0  0  0  0  0  0  0  0  0  0  0  0
   -5.3188   -2.5566   -0.0970 C   0  0  0  0  0  0  0  0  0  0  0  0
   -4.2610   -1.7649   -0.5915 C   0  0  0  0  0  0  0  0  0  0  0  0
   -3.7302   -0.7982    0.2510 C   0  0  0  0  0  0  0  0  0  0  0  0
   -4.4988   -0.3517    1.3644 C   0  0  0  0  0  0  0  0  0  0  0  0
   -5.5750   -1.0993    1.8002 C   0  0  0  0  0  0  0  0  0  0  0  0
   -5.9360   -2.2369    1.1064 C   0  0  0  0  0  0  0  0  0  0  0  0
   -4.1007    0.9382    1.9658 C   0  0  0  0  0  0  0  0  0  0  0  0
   -4.6839    1.3878    3.1484 C   0  0  0  0  0  0  0  0  0  0  0  0
   -4.3032    2.6042    3.6848 C   0  0  0  0  0  0  0  0  0  0  0  0
   -3.3645    3.3878    3.0343 C   0  0  0  0  0  0  0  0  0  0  0  0
   -2.7683    2.9496    1.8664 C   0  0  0  0  0  0  0  0  0  0  0  0
   -3.1221    1.7205    1.3320 C   0  0  0  0  0  0  0  0  0  0  0  0
   -2.5031    1.2601    0.2054 O   0  0  0  0  0  0  0  0  0  0  0  0
   -2.4341   -0.1108    0.1273 C   0  0  0  0  0  0  0  0  0  0  0  0
   -1.2595   -0.7607    0.0105 C   0  0  0  0  0  0  0  0  0  0  0  0
   -0.0257   -0.0070   -0.2613 C   0  0  0  0  0  0  0  0  0  0  0  0
   -0.0946    1.3010   -0.7512 C   0  0  0  0  0  0  0  0  0  0  0  0
    1.0681    2.0020   -1.0033 C   0  0  0  0  0  0  0  0  0  0  0  0
    2.3012    1.4123   -0.7721 C   0  0  0  0  0  0  0  0  0  0  0  0
    2.3776    0.1186   -0.2874 C   0  0  0  0  0  0  0  0  0  0  0  0
    1.2238   -0.5955   -0.0303 C   0  0  0  0  0  0  0  0  0  0  0  0
    1.3005   -1.8585    0.4433 F   0  0  0  0  0  0  0  0  0  0  0  0
    1.0038    3.2656   -1.4771 F   0  0  0  0  0  0  0  0  0  0  0  0
   -4.6491   -5.3826   -2.1719 C   0  0  0  0  0  0  0  0  0  0  0  0
   -6.5358   -4.0328   -3.0657 C   0  0  0  0  0  0  0  0  0  0  0  0
   -1.9281   -1.2782   -2.5635 H   0  0  0  0  0  0  0  0  0  0  0  0
   -3.2062   -0.9669   -3.7626 H   0  0  0  0  0  0  0  0  0  0  0  0
   -3.1176    0.0154   -2.2809 H   0  0  0  0  0  0  0  0  0  0  0  0
   -3.9871   -3.0997   -3.7167 H   0  0  0  0  0  0  0  0  0  0  0  0
   -6.3664   -4.3047   -0.3463 H   0  0  0  0  0  0  0  0  0  0  0  0
   -6.1054   -0.8191    2.6957 H   0  0  0  0  0  0  0  0  0  0  0  0
   -6.7185   -2.8755    1.4903 H   0  0  0  0  0  0  0  0  0  0  0  0
   -5.4362    0.7940    3.6373 H   0  0  0  0  0  0  0  0  0  0  0  0
   -4.7455    2.9453    4.6068 H   0  0  0  0  0  0  0  0  0  0  0  0
   -3.0966    4.3477    3.4446 H   0  0  0  0  0  0  0  0  0  0  0  0
   -2.0282    3.5627    1.3799 H   0  0  0  0  0  0  0  0  0  0  0  0
   -1.2239   -1.8349    0.1163 H   0  0  0  0  0  0  0  0  0  0  0  0
   -1.0546    1.7600   -0.9360 H   0  0  0  0  0  0  0  0  0  0  0  0
    3.2071    1.9655   -0.9715 H   0  0  0  0  0  0  0  0  0  0  0  0
    3.3419   -0.3340   -0.1101 H   0  0  0  0  0  0  0  0  0  0  0  0
   -5.3693   -6.1310   -1.8412 H   0  0  0  0  0  0  0  0  0  0  0  0
   -4.3259   -5.6129   -3.1871 H   0  0  0  0  0  0  0  0  0  0  0  0
   -3.7865   -5.3892   -1.5056 H   0  0  0  0  0  0  0  0  0  0  0  0
   -7.0313   -3.0620   -3.0500 H   0  0  0  0  0  0  0  0  0  0  0  0
   -6.2218   -4.2640   -4.0836 H   0  0  0  0  0  0  0  0  0  0  0  0
   -7.2272   -4.7993   -2.7158 H   0  0  0  0  0  0  0  0  0  0  0  0
  1  2  1  0  0  0  0
  1 31  1  0  0  0  0
  1 32  1  0  0  0  0
  1 33  1  0  0  0  0
  2  7  1  0  0  0  0
  2  3  2  0  0  0  0
  3  4  1  0  0  0  0
  3 34  1  0  0  0  0
  4  5  1  0  0  0  0
  4 29  1  0  0  0  0
  4 30  1  0  0  0  0
  5  6  1  0  0  0  0
  5 35  1  0  0  0  0
  6 11  2  0  0  0  0
  6  7  1  0  0  0  0
  7  8  2  0  0  0  0
  8 19  1  0  0  0  0
  8  9  1  0  0  0  0
  9 10  2  0  0  0  0
  9 12  1  0  0  0  0
 10 11  1  0  0  0  0
 10 36  1  0  0  0  0
 11 37  1  0  0  0  0
 12 17  2  0  0  0  0
 12 13  1  0  0  0  0
 13 14  2  0  0  0  0
 13 38  1  0  0  0  0
 14 15  1  0  0  0  0
 14 39  1  0  0  0  0
 15 16  2  0  0  0  0
 15 40  1  0  0  0  0
 16 17  1  0  0  0  0
 16 41  1  0  0  0  0
 17 18  1  0  0  0  0
 18 19  1  0  0  0  0
 19 20  2  0  0  0  0
 20 21  1  0  0  0  0
 20 42  1  0  0  0  0
 21 26  2  0  0  0  0
 21 22  1  0  0  0  0
 22 23  2  0  0  0  0
 22 43  1  0  0  0  0
 23 24  1  0  0  0  0
 23 28  1  0  0  0  0
 24 25  2  0  0  0  0
 24 44  1  0  0  0  0
 25 26  1  0  0  0  0
 25 45  1  0  0  0  0
 26 27  1  0  0  0  0
 29 46  1  0  0  0  0
 29 47  1  0  0  0  0
 29 48  1  0  0  0  0
 30 49  1  0  0  0  0
 30 50  1  0  0  0  0
 30 51  1  0  0  0  0
M  END
$$$$
ZINC04628808
  -OEChem-08230709403D

 51 55  0     0  0  0  0  0  0999 V2000
    3.0959    5.3264    0.7042 C   0  0  0  0  0  0  0  0  0  0  0  0
    2.9236    3.8568    0.4109 C   0  0  0  0  0  0  0  0  0  0  0  0
    4.0330    3.1296    0.2824 C   0  0  0  0  0  0  0  0  0  0  0  0
    4.0094    1.6623   -0.0328 C   0  0  0  0  0  0  0  0  0  0  0  0
    2.7042    1.0910    0.3088 N   0  0  0  0  0  0  0  0  0  0  0  0
    1.5511    1.8383    0.0731 C   0  0  0  0  0  0  0  0  0  0  0  0
    1.6006    3.2395    0.2472 C   0  0  0  0  0  0  0  0  0  0  0  0
    0.3927    3.9209    0.2439 C   0  0  0  0  0  0  0  0  0  0  0  0
   -0.7328    3.3247   -0.3981 C   0  0  0  0  0  0  0  0  0  0  0  0
   -0.7428    1.9599   -0.6237 C   0  0  0  0  0  0  0  0  0  0  0  0
    0.3675    1.2086   -0.2769 C   0  0  0  0  0  0  0  0  0  0  0  0
   -1.8465    4.2230   -0.7645 C   0  0  0  0  0  0  0  0  0  0  0  0
   -3.0096    3.7234   -1.3439 C   0  0  0  0  0  0  0  0  0  0  0  0
   -4.0336    4.5840   -1.6847 C   0  0  0  0  0  0  0  0  0  0  0  0
   -3.9066    5.9438   -1.4580 C   0  0  0  0  0  0  0  0  0  0  0  0
   -2.7580    6.4527   -0.8825 C   0  0  0  0  0  0  0  0  0  0  0  0
   -1.7246    5.6013   -0.5283 C   0  0  0  0  0  0  0  0  0  0  0  0
   -0.5948    6.1029    0.0502 O   0  0  0  0  0  0  0  0  0  0  0  0
    0.0752    5.2182    0.8601 C   0  0  0  0  0  0  0  0  0  0  0  0
    0.3427    5.5117    2.1495 C   0  0  0  0  0  0  0  0  0  0  0  0
    0.1572    6.8842    2.6451 C   0  0  0  0  0  0  0  0  0  0  0  0
    0.2709    7.1594    4.0121 C   0  0  0  0  0  0  0  0  0  0  0  0
    0.1006    8.4487    4.4695 C   0  0  0  0  0  0  0  0  0  0  0  0
   -0.1922    9.4694    3.5819 C   0  0  0  0  0  0  0  0  0  0  0  0
   -0.3123    9.2052    2.2265 C   0  0  0  0  0  0  0  0  0  0  0  0
   -0.1392    7.9193    1.7529 C   0  0  0  0  0  0  0  0  0  0  0  0
   -0.5988   10.2074    1.3671 F   0  0  0  0  0  0  0  0  0  0  0  0
    5.0998    0.9517    0.7751 C   0  0  0  0  0  0  0  0  0  0  0  0
    4.2796    1.4572   -1.5263 C   0  0  0  0  0  0  0  0  0  0  0  0
    4.1583    5.5625    0.7656 H   0  0  0  0  0  0  0  0  0  0  0  0
    2.6391    5.9121   -0.0935 H   0  0  0  0  0  0  0  0  0  0  0  0
    2.6149    5.5665    1.6524 H   0  0  0  0  0  0  0  0  0  0  0  0
    4.9887    3.6251    0.4129 H   0  0  0  0  0  0  0  0  0  0  0  0
    2.6416    0.2004    0.6955 H   0  0  0  0  0  0  0  0  0  0  0  0
   -1.6028    1.4816   -1.0652 H   0  0  0  0  0  0  0  0  0  0  0  0
    0.3338    0.1330   -0.3447 H   0  0  0  0  0  0  0  0  0  0  0  0
   -3.1124    2.6639   -1.5258 H   0  0  0  0  0  0  0  0  0  0  0  0
   -4.9372    4.1948   -2.1310 H   0  0  0  0  0  0  0  0  0  0  0  0
   -4.7103    6.6106   -1.7324 H   0  0  0  0  0  0  0  0  0  0  0  0
   -2.6672    7.5145   -0.7065 H   0  0  0  0  0  0  0  0  0  0  0  0
    0.6931    4.7390    2.8177 H   0  0  0  0  0  0  0  0  0  0  0  0
    0.4952    6.3639    4.7073 H   0  0  0  0  0  0  0  0  0  0  0  0
    0.1919    8.6623    5.5243 H   0  0  0  0  0  0  0  0  0  0  0  0
   -0.3282   10.4766    3.9472 H   0  0  0  0  0  0  0  0  0  0  0  0
   -0.2322    7.7140    0.6966 H   0  0  0  0  0  0  0  0  0  0  0  0
    5.0934   -0.1120    0.5371 H   0  0  0  0  0  0  0  0  0  0  0  0
    6.0724    1.3745    0.5232 H   0  0  0  0  0  0  0  0  0  0  0  0
    4.9096    1.0870    1.8398 H   0  0  0  0  0  0  0  0  0  0  0  0
    3.5020    1.9528   -2.1076 H   0  0  0  0  0  0  0  0  0  0  0  0
    5.2504    1.8819   -1.7816 H   0  0  0  0  0  0  0  0  0  0  0  0
    4.2785    0.3910   -1.7526 H   0  0  0  0  0  0  0  0  0  0  0  0
  1  2  1  0  0  0  0
  1 30  1  0  0  0  0
  1 31  1  0  0  0  0
  1 32  1  0  0  0  0
  2  7  1  0  0  0  0
  2  3  2  0  0  0  0
  3  4  1  0  0  0  0
  3 33  1  0  0  0  0
  4  5  1  0  0  0  0
  4 28  1  0  0  0  0
  4 29  1  0  0  0  0
  5  6  1  0  0  0  0
  5 34  1  0  0  0  0
  6 11  2  0  0  0  0
  6  7  1  0  0  0  0
  7  8  2  0  0  0  0
  8 19  1  0  0  0  0
  8  9  1  0  0  0  0
  9 10  2  0  0  0  0
  9 12  1  0  0  0  0
 10 11  1  0  0  0  0
 10 35  1  0  0  0  0
 11 36  1  0  0  0  0
 12 17  2  0  0  0  0
 12 13  1  0  0  0  0
 13 14  2  0  0  0  0
 13 37  1  0  0  0  0
 14 15  1  0  0  0  0
 14 38  1  0  0  0  0
 15 16  2  0  0  0  0
 15 39  1  0  0  0  0
 16 17  1  0  0  0  0
 16 40  1  0  0  0  0
 17 18  1  0  0  0  0
 18 19  1  0  0  0  0
 19 20  2  0  0  0  0
 20 21  1  0  0  0  0
 20 41  1  0  0  0  0
 21 26  2  0  0  0  0
 21 22  1  0  0  0  0
 22 23  2  0  0  0  0
 22 42  1  0  0  0  0
 23 24  1  0  0  0  0
 23 43  1  0  0  0  0
 24 25  2  0  0  0  0
 24 44  1  0  0  0  0
 25 26  1  0  0  0  0
 25 27  1  0  0  0  0
 26 45  1  0  0  0  0
 28 46  1  0  0  0  0
 28 47  1  0  0  0  0
 28 48  1  0  0  0  0
 29 49  1  0  0  0  0
 29 50  1  0  0  0  0
 29 51  1  0  0  0  0
M  END
$$$$
ZINC04628810
  -OEChem-08230709403D

 51 55  0     0  0  0  0  0  0999 V2000
   -2.2107   -1.9817    2.7135 C   0  0  0  0  0  0  0  0  0  0  0  0
   -3.5929   -2.3243    2.0964 C   0  0  0  0  0  0  0  0  0  0  0  0
   -4.6205   -2.2506    2.7443 C   0  0  0  0  0  0  0  0  0  0  0  0
   -6.0254   -2.6275    2.3234 C   0  0  0  0  0  0  0  0  0  0  0  0
   -5.9601   -3.1948    0.9216 N   0  0  0  0  0  0  0  0  0  0  0  0
   -4.8325   -3.3301    0.1892 C   0  0  0  0  0  0  0  0  0  0  0  0
   -3.6135   -2.8073    0.6377 C   0  0  0  0  0  0  0  0  0  0  0  0
   -2.5484   -2.8456   -0.2040 C   0  0  0  0  0  0  0  0  0  0  0  0
   -2.4814   -3.7726   -1.2732 C   0  0  0  0  0  0  0  0  0  0  0  0
   -3.6899   -4.3349   -1.7153 C   0  0  0  0  0  0  0  0  0  0  0  0
   -4.8603   -4.1160   -0.9604 C   0  0  0  0  0  0  0  0  0  0  0  0
   -1.2266   -4.0634   -1.8835 C   0  0  0  0  0  0  0  0  0  0  0  0
   -1.1275   -4.8420   -3.0942 C   0  0  0  0  0  0  0  0  0  0  0  0
    0.0544   -5.1177   -3.6293 C   0  0  0  0  0  0  0  0  0  0  0  0
    1.2299   -4.5913   -2.9907 C   0  0  0  0  0  0  0  0  0  0  0  0
    1.2294   -3.8525   -1.9120 C   0  0  0  0  0  0  0  0  0  0  0  0
   -0.0639   -3.5231   -1.2946 C   0  0  0  0  0  0  0  0  0  0  0  0
   -0.1551   -2.7226   -0.2272 O   0  0  0  0  0  0  0  0  0  0  0  0
   -1.2417   -2.1057   -0.0998 C   0  0  0  0  0  0  0  0  0  0  0  0
   -1.2601   -0.7600    0.0095 C   0  0  0  0  0  0  0  0  0  0  0  0
   -0.0143   -0.0272    0.2844 C   0  0  0  0  0  0  0  0  0  0  0  0
    1.1605   -0.7259    0.5819 C   0  0  0  0  0  0  0  0  0  0  0  0
    2.3252   -0.0340    0.8382 C   0  0  0  0  0  0  0  0  0  0  0  0
    2.3348    1.3511    0.8023 C   0  0  0  0  0  0  0  0  0  0  0  0
    1.1735    2.0517    0.5073 C   0  0  0  0  0  0  0  0  0  0  0  0
    0.0005    1.3706    0.2488 C   0  0  0  0  0  0  0  0  0  0  0  0
    1.1907    3.4022    0.4736 F   0  0  0  0  0  0  0  0  0  0  0  0
    3.4797    2.0226    1.0544 F   0  0  0  0  0  0  0  0  0  0  0  0
   -6.9375   -1.4682    2.3607 C   0  0  0  0  0  0  0  0  0  0  0  0
   -6.5914   -3.6903    3.2120 C   0  0  0  0  0  0  0  0  0  0  0  0
   -1.9849   -0.9299    2.5377 H   0  0  0  0  0  0  0  0  0  0  0  0
   -2.2340   -2.1739    3.7862 H   0  0  0  0  0  0  0  0  0  0  0  0
   -1.4424   -2.6006    2.2501 H   0  0  0  0  0  0  0  0  0  0  0  0
   -4.5381   -1.8799    3.8207 H   0  0  0  0  0  0  0  0  0  0  0  0
   -6.8303   -3.3635    0.5236 H   0  0  0  0  0  0  0  0  0  0  0  0
   -3.7131   -4.9784   -2.5753 H   0  0  0  0  0  0  0  0  0  0  0  0
   -5.7922   -4.4655   -1.3771 H   0  0  0  0  0  0  0  0  0  0  0  0
   -2.0528   -5.1632   -3.5572 H   0  0  0  0  0  0  0  0  0  0  0  0
    0.2107   -5.6986   -4.5231 H   0  0  0  0  0  0  0  0  0  0  0  0
    2.2041   -4.8782   -3.4661 H   0  0  0  0  0  0  0  0  0  0  0  0
    2.1346   -3.5023   -1.4130 H   0  0  0  0  0  0  0  0  0  0  0  0
   -2.1893   -0.2216   -0.1048 H   0  0  0  0  0  0  0  0  0  0  0  0
    1.1550   -1.8055    0.6112 H   0  0  0  0  0  0  0  0  0  0  0  0
    3.2324   -0.5731    1.0680 H   0  0  0  0  0  0  0  0  0  0  0  0
   -0.9020    1.9159    0.0153 H   0  0  0  0  0  0  0  0  0  0  0  0
   -7.9358   -1.7814    2.0552 H   0  0  0  0  0  0  0  0  0  0  0  0
   -6.9762   -1.0688    3.3741 H   0  0  0  0  0  0  0  0  0  0  0  0
   -6.5742   -0.6981    1.6803 H   0  0  0  0  0  0  0  0  0  0  0  0
   -5.9454   -4.5678    3.1857 H   0  0  0  0  0  0  0  0  0  0  0  0
   -6.6531   -3.3150    4.2335 H   0  0  0  0  0  0  0  0  0  0  0  0
   -7.5879   -3.9621    2.8640 H   0  0  0  0  0  0  0  0  0  0  0  0
  1  2  1  0  0  0  0
  1 31  1  0  0  0  0
  1 32  1  0  0  0  0
  1 33  1  0  0  0  0
  2  7  1  0  0  0  0
  2  3  2  0  0  0  0
  3  4  1  0  0  0  0
  3 34  1  0  0  0  0
  4  5  1  0  0  0  0
  4 29  1  0  0  0  0
  4 30  1  0  0  0  0
  5  6  1  0  0  0  0
  5 35  1  0  0  0  0
  6 11  2  0  0  0  0
  6  7  1  0  0  0  0
  7  8  2  0  0  0  0
  8 19  1  0  0  0  0
  8  9  1  0  0  0  0
  9 10  2  0  0  0  0
  9 12  1  0  0  0  0
 10 11  1  0  0  0  0
 10 36  1  0  0  0  0
 11 37  1  0  0  0  0
 12 17  2  0  0  0  0
 12 13  1  0  0  0  0
 13 14  2  0  0  0  0
 13 38  1  0  0  0  0
 14 15  1  0  0  0  0
 14 39  1  0  0  0  0
 15 16  2  0  0  0  0
 15 40  1  0  0  0  0
 16 17  1  0  0  0  0
 16 41  1  0  0  0  0
 17 18  1  0  0  0  0
 18 19  1  0  0  0  0
 19 20  2  0  0  0  0
 20 21  1  0  0  0  0
 20 42  1  0  0  0  0
 21 26  2  0  0  0  0
 21 22  1  0  0  0  0
 22 23  2  0  0  0  0
 22 43  1  0  0  0  0
 23 24  1  0  0  0  0
 23 44  1  0  0  0  0
 24 25  2  0  0  0  0
 24 28  1  0  0  0  0
 25 26  1  0  0  0  0
 25 27  1  0  0  0  0
 26 45  1  0  0  0  0
 29 46  1  0  0  0  0
 29 47  1  0  0  0  0
 29 48  1  0  0  0  0
 30 49  1  0  0  0  0
 30 50  1  0  0  0  0
 30 51  1  0  0  0  0
M  END
$$$$
ZINC04628812
  -OEChem-08230709403D

 51 55  0     0  0  0  0  0  0999 V2000
    4.0566    0.5760    2.6392 C   0  0  0  0  0  0  0  0  0  0  0  0
    4.8819   -0.3528    1.7811 C   0  0  0  0  0  0  0  0  0  0  0  0
    5.1610   -1.5573    2.2650 C   0  0  0  0  0  0  0  0  0  0  0  0
    6.0513   -2.5376    1.5637 C   0  0  0  0  0  0  0  0  0  0  0  0
    6.8280   -1.9149    0.4934 N   0  0  0  0  0  0  0  0  0  0  0  0
    6.4897   -0.6829   -0.0564 C   0  0  0  0  0  0  0  0  0  0  0  0
    5.4219    0.0626    0.4846 C   0  0  0  0  0  0  0  0  0  0  0  0
    4.9488    1.1507   -0.2512 C   0  0  0  0  0  0  0  0  0  0  0  0
    5.8291    1.7687   -1.1781 C   0  0  0  0  0  0  0  0  0  0  0  0
    6.9025    1.0453   -1.6788 C   0  0  0  0  0  0  0  0  0  0  0  0
    7.1886   -0.2018   -1.1561 C   0  0  0  0  0  0  0  0  0  0  0  0
    5.4988    3.1398   -1.6086 C   0  0  0  0  0  0  0  0  0  0  0  0
    6.2712    3.8070   -2.5546 C   0  0  0  0  0  0  0  0  0  0  0  0
    5.9676    5.1075   -2.8997 C   0  0  0  0  0  0  0  0  0  0  0  0
    4.8608    5.7327   -2.3515 C   0  0  0  0  0  0  0  0  0  0  0  0
    4.0621    5.0669   -1.4405 C   0  0  0  0  0  0  0  0  0  0  0  0
    4.3824    3.7765   -1.0430 C   0  0  0  0  0  0  0  0  0  0  0  0
    3.6134    3.1449   -0.1180 O   0  0  0  0  0  0  0  0  0  0  0  0
    3.6266    1.7729   -0.1238 C   0  0  0  0  0  0  0  0  0  0  0  0
    2.4751    1.0814   -0.0148 C   0  0  0  0  0  0  0  0  0  0  0  0
    1.2210    1.7851    0.2950 C   0  0  0  0  0  0  0  0  0  0  0  0
    0.0003    1.1044    0.2380 C   0  0  0  0  0  0  0  0  0  0  0  0
   -1.1712    1.7724    0.5251 C   0  0  0  0  0  0  0  0  0  0  0  0
   -1.1405    3.1101    0.8791 C   0  0  0  0  0  0  0  0  0  0  0  0
    0.0633    3.7907    0.9378 C   0  0  0  0  0  0  0  0  0  0  0  0
    1.2430    3.1383    0.6485 C   0  0  0  0  0  0  0  0  0  0  0  0
    7.0286   -3.1281    2.5943 C   0  0  0  0  0  0  0  0  0  0  0  0
    5.2007   -3.6758    0.9867 C   0  0  0  0  0  0  0  0  0  0  0  0
    3.0028    0.4671    2.3829 H   0  0  0  0  0  0  0  0  0  0  0  0
    4.2028    0.3258    3.6899 H   0  0  0  0  0  0  0  0  0  0  0  0
    4.3686    1.6056    2.4640 H   0  0  0  0  0  0  0  0  0  0  0  0
    4.7206   -1.8391    3.2192 H   0  0  0  0  0  0  0  0  0  0  0  0
    7.6246   -2.3842    0.1531 H   0  0  0  0  0  0  0  0  0  0  0  0
    7.5318    1.4686   -2.4475 H   0  0  0  0  0  0  0  0  0  0  0  0
    7.9810   -0.7958   -1.5874 H   0  0  0  0  0  0  0  0  0  0  0  0
    7.0898    3.2949   -3.0422 H   0  0  0  0  0  0  0  0  0  0  0  0
    6.6058    5.6488   -3.5830 H   0  0  0  0  0  0  0  0  0  0  0  0
    4.6193    6.7456   -2.6362 H   0  0  0  0  0  0  0  0  0  0  0  0
    3.1752    5.5443   -1.0484 H   0  0  0  0  0  0  0  0  0  0  0  0
    2.4730    0.0105   -0.1548 H   0  0  0  0  0  0  0  0  0  0  0  0
   -0.0249    0.0597   -0.0345 H   0  0  0  0  0  0  0  0  0  0  0  0
   -2.1150    1.2495    0.4772 H   0  0  0  0  0  0  0  0  0  0  0  0
   -2.0612    3.6267    1.1069 H   0  0  0  0  0  0  0  0  0  0  0  0
    0.0785    4.8356    1.2105 H   0  0  0  0  0  0  0  0  0  0  0  0
    2.1815    3.6708    0.6943 H   0  0  0  0  0  0  0  0  0  0  0  0
    6.4667   -3.6310    3.3813 H   0  0  0  0  0  0  0  0  0  0  0  0
    7.6861   -3.8450    2.1024 H   0  0  0  0  0  0  0  0  0  0  0  0
    7.6257   -2.3267    3.0295 H   0  0  0  0  0  0  0  0  0  0  0  0
    4.4796   -3.2675    0.2786 H   0  0  0  0  0  0  0  0  0  0  0  0
    5.8471   -4.3896    0.4762 H   0  0  0  0  0  0  0  0  0  0  0  0
    4.6707   -4.1791    1.7953 H   0  0  0  0  0  0  0  0  0  0  0  0
  1  2  1  0  0  0  0
  1 29  1  0  0  0  0
  1 30  1  0  0  0  0
  1 31  1  0  0  0  0
  2  7  1  0  0  0  0
  2  3  2  0  0  0  0
  3  4  1  0  0  0  0
  3 32  1  0  0  0  0
  4  5  1  0  0  0  0
  4 27  1  0  0  0  0
  4 28  1  0  0  0  0
  5  6  1  0  0  0  0
  5 33  1  0  0  0  0
  6 11  2  0  0  0  0
  6  7  1  0  0  0  0
  7  8  2  0  0  0  0
  8 19  1  0  0  0  0
  8  9  1  0  0  0  0
  9 10  2  0  0  0  0
  9 12  1  0  0  0  0
 10 11  1  0  0  0  0
 10 34  1  0  0  0  0
 11 35  1  0  0  0  0
 12 17  2  0  0  0  0
 12 13  1  0  0  0  0
 13 14  2  0  0  0  0
 13 36  1  0  0  0  0
 14 15  1  0  0  0  0
 14 37  1  0  0  0  0
 15 16  2  0  0  0  0
 15 38  1  0  0  0  0
 16 17  1  0  0  0  0
 16 39  1  0  0  0  0
 17 18  1  0  0  0  0
 18 19  1  0  0  0  0
 19 20  2  0  0  0  0
 20 21  1  0  0  0  0
 20 40  1  0  0  0  0
 21 26  2  0  0  0  0
 21 22  1  0  0  0  0
 22 23  2  0  0  0  0
 22 41  1  0  0  0  0
 23 24  1  0  0  0  0
 23 42  1  0  0  0  0
 24 25  2  0  0  0  0
 24 43  1  0  0  0  0
 25 26  1  0  0  0  0
 25 44  1  0  0  0  0
 26 45  1  0  0  0  0
 27 46  1  0  0  0  0
 27 47  1  0  0  0  0
 27 48  1  0  0  0  0
 28 49  1  0  0  0  0
 28 50  1  0  0  0  0
 28 51  1  0  0  0  0
M  END
$$$$
ZINC04628814
  -OEChem-08230709403D

 55 58  0     1  0  0  0  0  0999 V2000
   -1.7226   -2.2236   -0.6203 C   0  0  0  0  0  0  0  0  0  0  0  0
   -1.6004   -0.7720   -1.0064 C   0  0  0  0  0  0  0  0  0  0  0  0
   -2.5971   -0.1623   -1.6357 C   0  0  0  0  0  0  0  0  0  0  0  0
   -2.4898    1.2831   -2.0432 C   0  0  0  0  0  0  0  0  0  0  0  0
   -1.5983    1.9990   -1.1217 N   0  0  0  0  0  0  0  0  0  0  0  0
   -0.4031    1.3839   -0.7441 C   0  0  0  0  0  0  0  0  0  0  0  0
   -0.3709   -0.0189   -0.6862 C   0  0  0  0  0  0  0  0  0  0  0  0
    0.8030   -0.6792   -0.3282 C   0  0  0  0  0  0  0  0  0  0  0  0
    1.9275    0.0854   -0.0265 C   0  0  0  0  0  0  0  0  0  0  0  0
    1.8911    1.4747   -0.0807 C   0  0  0  0  0  0  0  0  0  0  0  0
    0.7253    2.1251   -0.4395 C   0  0  0  0  0  0  0  0  0  0  0  0
    3.1824   -0.6227    0.3618 C   0  0  0  0  0  0  0  0  0  0  0  0
    4.2162   -0.0011    0.9459 C   0  0  0  0  0  0  0  0  0  0  0  0
    3.1897   -2.0859    0.0437 C   0  0  0  0  0  0  0  0  0  0  0  0
    4.2723   -2.7121   -0.4147 C   0  0  0  0  0  0  0  0  0  0  0  0
    5.5044   -1.9221   -0.7736 C   0  0  0  0  0  0  0  0  0  0  0  0
    5.9002   -2.2377   -2.1100 O   0  0  0  0  0  0  0  0  0  0  0  0
    7.0654   -1.5382   -2.5516 C   0  0  0  0  0  0  0  0  0  0  0  0
    2.0061   -2.7314    0.2581 O   0  0  0  0  0  0  0  0  0  0  0  0
    0.8186   -2.1778   -0.2811 C   0  0  2  0  0  0  0  0  0  0  0  0
   -0.0250   -2.5140    0.3217 H   0  0  0  0  0  0  0  0  0  0  0  0
    0.6428   -2.7027   -1.6828 C   0  0  0  0  0  0  0  0  0  0  0  0
    0.6451   -4.0652   -1.9159 C   0  0  0  0  0  0  0  0  0  0  0  0
    0.4799   -4.5468   -3.2011 C   0  0  0  0  0  0  0  0  0  0  0  0
    0.3211   -3.6656   -4.2543 C   0  0  0  0  0  0  0  0  0  0  0  0
    0.3237   -2.3030   -4.0218 C   0  0  0  0  0  0  0  0  0  0  0  0
    0.4850   -1.8215   -2.7361 C   0  0  0  0  0  0  0  0  0  0  0  0
   -1.9279    1.3700   -3.4636 C   0  0  0  0  0  0  0  0  0  0  0  0
   -3.8777    1.9257   -2.0058 C   0  0  0  0  0  0  0  0  0  0  0  0
   -1.5155   -2.3351    0.4440 H   0  0  0  0  0  0  0  0  0  0  0  0
   -2.7334   -2.5721   -0.8322 H   0  0  0  0  0  0  0  0  0  0  0  0
   -1.0073   -2.8134   -1.1935 H   0  0  0  0  0  0  0  0  0  0  0  0
   -3.4995   -0.7119   -1.8595 H   0  0  0  0  0  0  0  0  0  0  0  0
   -1.8340    2.8771   -0.7835 H   0  0  0  0  0  0  0  0  0  0  0  0
    2.7756    2.0466    0.1581 H   0  0  0  0  0  0  0  0  0  0  0  0
    0.6953    3.2039   -0.4821 H   0  0  0  0  0  0  0  0  0  0  0  0
    5.1115   -0.5542    1.1888 H   0  0  0  0  0  0  0  0  0  0  0  0
    4.1540    1.0527    1.1737 H   0  0  0  0  0  0  0  0  0  0  0  0
    4.2671   -3.7860   -0.5292 H   0  0  0  0  0  0  0  0  0  0  0  0
    5.2867   -0.8565   -0.7012 H   0  0  0  0  0  0  0  0  0  0  0  0
    6.3115   -2.1755   -0.0863 H   0  0  0  0  0  0  0  0  0  0  0  0
    7.9049   -1.7836   -1.9012 H   0  0  0  0  0  0  0  0  0  0  0  0
    7.3001   -1.8327   -3.5745 H   0  0  0  0  0  0  0  0  0  0  0  0
    6.8800   -0.4647   -2.5161 H   0  0  0  0  0  0  0  0  0  0  0  0
    0.7728   -4.7536   -1.0936 H   0  0  0  0  0  0  0  0  0  0  0  0
    0.4783   -5.6114   -3.3828 H   0  0  0  0  0  0  0  0  0  0  0  0
    0.1955   -4.0418   -5.2588 H   0  0  0  0  0  0  0  0  0  0  0  0
    0.2000   -1.6145   -4.8447 H   0  0  0  0  0  0  0  0  0  0  0  0
    0.4874   -0.7569   -2.5545 H   0  0  0  0  0  0  0  0  0  0  0  0
   -2.5933    0.8466   -4.1502 H   0  0  0  0  0  0  0  0  0  0  0  0
   -1.8496    2.4160   -3.7600 H   0  0  0  0  0  0  0  0  0  0  0  0
   -0.9405    0.9092   -3.4926 H   0  0  0  0  0  0  0  0  0  0  0  0
   -4.2809    1.8614   -0.9952 H   0  0  0  0  0  0  0  0  0  0  0  0
   -3.8016    2.9724   -2.3006 H   0  0  0  0  0  0  0  0  0  0  0  0
   -4.5396    1.4014   -2.6951 H   0  0  0  0  0  0  0  0  0  0  0  0
  1  2  1  0  0  0  0
  1 30  1  0  0  0  0
  1 31  1  0  0  0  0
  1 32  1  0  0  0  0
  2  7  1  0  0  0  0
  2  3  2  0  0  0  0
  3  4  1  0  0  0  0
  3 33  1  0  0  0  0
  4  5  1  0  0  0  0
  4 28  1  0  0  0  0
  4 29  1  0  0  0  0
  5  6  1  0  0  0  0
  5 34  1  0  0  0  0
  6 11  2  0  0  0  0
  6  7  1  0  0  0  0
  7  8  2  0  0  0  0
  8 20  1  0  0  0  0
  8  9  1  0  0  0  0
  9 10  2  0  0  0  0
  9 12  1  0  0  0  0
 10 11  1  0  0  0  0
 10 35  1  0  0  0  0
 11 36  1  0  0  0  0
 12 13  2  0  0  0  0
 12 14  1  0  0  0  0
 13 37  1  0  0  0  0
 13 38  1  0  0  0  0
 14 15  2  0  0  0  0
 14 19  1  0  0  0  0
 15 16  1  0  0  0  0
 15 39  1  0  0  0  0
 16 17  1  0  0  0  0
 16 40  1  0  0  0  0
 16 41  1  0  0  0  0
 17 18  1  0  0  0  0
 18 42  1  0  0  0  0
 18 43  1  0  0  0  0
 18 44  1  0  0  0  0
 19 20  1  0  0  0  0
 20 21  1  0  0  0  0
 20 22  1  0  0  0  0
 22 27  2  0  0  0  0
 22 23  1  0  0  0  0
 23 24  2  0  0  0  0
 23 45  1  0  0  0  0
 24 25  1  0  0  0  0
 24 46  1  0  0  0  0
 25 26  2  0  0  0  0
 25 47  1  0  0  0  0
 26 27  1  0  0  0  0
 26 48  1  0  0  0  0
 27 49  1  0  0  0  0
 28 50  1  0  0  0  0
 28 51  1  0  0  0  0
 28 52  1  0  0  0  0
 29 53  1  0  0  0  0
 29 54  1  0  0  0  0
 29 55  1  0  0  0  0
M  END
$$$$
