ZINC00004778
  -OEChem-08230709403D

 34 37  0     0  0  0  0  0  0999 V2000
    1.2009    3.5776    0.0093 C   0  0  0  0  0  0  0  0  0  0  0  0
    1.1846    2.0707    0.0019 C   0  0  0  0  0  0  0  0  0  0  0  0
   -0.0166    1.3754    0.0096 C   0  0  0  0  0  0  0  0  0  0  0  0
    0.0021   -0.0041    0.0020 C   0  0  0  0  0  0  0  0  0  0  0  0
    1.1438   -0.6656    0.0011 N   0  0  0  0  0  0  0  0  0  0  0  0
    2.3142   -0.0435    0.0086 C   0  0  0  0  0  0  0  0  0  0  0  0
    2.3733    1.3479   -0.0124 C   0  0  0  0  0  0  0  0  0  0  0  0
    3.5842    2.0329   -0.0667 N   0  0  0  0  0  0  0  0  0  0  0  0
    4.6968    1.7301    0.5850 C   0  0  0  0  0  0  0  0  0  0  0  0
    5.6525    2.4641    0.4238 O   0  0  0  0  0  0  0  0  0  0  0  0
    4.8747    0.5864    1.4842 C   0  0  0  0  0  0  0  0  0  0  0  0
    5.6243    0.7273    2.6581 C   0  0  0  0  0  0  0  0  0  0  0  0
    5.8044   -0.3850    3.4615 C   0  0  0  0  0  0  0  0  0  0  0  0
    5.2491   -1.5942    3.0834 C   0  0  0  0  0  0  0  0  0  0  0  0
    4.5338   -1.7020    1.9810 N   0  0  0  0  0  0  0  0  0  0  0  0
    4.3102   -0.6636    1.1889 C   0  0  0  0  0  0  0  0  0  0  0  0
    3.4817   -0.8033    0.0877 N   0  0  0  0  0  0  0  0  0  0  0  0
    3.8275   -1.7407   -0.9837 C   0  0  0  0  0  0  0  0  0  0  0  0
    5.0054   -2.6867   -0.7418 C   0  0  0  0  0  0  0  0  0  0  0  0
    5.1508   -1.5170   -1.7183 C   0  0  0  0  0  0  0  0  0  0  0  0
    1.2144    3.9357    1.0386 H   0  0  0  0  0  0  0  0  0  0  0  0
    2.0899    3.9339   -0.5111 H   0  0  0  0  0  0  0  0  0  0  0  0
    0.3101    3.9531   -0.4944 H   0  0  0  0  0  0  0  0  0  0  0  0
   -0.9559    1.9085    0.0170 H   0  0  0  0  0  0  0  0  0  0  0  0
   -0.9300   -0.5497   -0.0029 H   0  0  0  0  0  0  0  0  0  0  0  0
    3.6165    2.8132   -0.6421 H   0  0  0  0  0  0  0  0  0  0  0  0
    6.0515    1.6812    2.9303 H   0  0  0  0  0  0  0  0  0  0  0  0
    6.3735   -0.3095    4.3763 H   0  0  0  0  0  0  0  0  0  0  0  0
    5.4038   -2.4655    3.7025 H   0  0  0  0  0  0  0  0  0  0  0  0
    2.9875   -2.1213   -1.5647 H   0  0  0  0  0  0  0  0  0  0  0  0
    5.5230   -2.6116    0.2146 H   0  0  0  0  0  0  0  0  0  0  0  0
    4.9405   -3.6896   -1.1639 H   0  0  0  0  0  0  0  0  0  0  0  0
    5.1815   -1.7507   -2.7825 H   0  0  0  0  0  0  0  0  0  0  0  0
    5.7640   -0.6721   -1.4047 H   0  0  0  0  0  0  0  0  0  0  0  0
  1  2  1  0  0  0  0
  1 21  1  0  0  0  0
  1 22  1  0  0  0  0
  1 23  1  0  0  0  0
  2  7  2  0  0  0  0
  2  3  1  0  0  0  0
  3  4  2  0  0  0  0
  3 24  1  0  0  0  0
  4  5  1  0  0  0  0
  4 25  1  0  0  0  0
  5  6  2  0  0  0  0
  6 17  1  0  0  0  0
  6  7  1  0  0  0  0
  7  8  1  0  0  0  0
  8  9  1  0  0  0  0
  8 26  1  0  0  0  0
  9 10  2  0  0  0  0
  9 11  1  0  0  0  0
 11 16  2  0  0  0  0
 11 12  1  0  0  0  0
 12 13  2  0  0  0  0
 12 27  1  0  0  0  0
 13 14  1  0  0  0  0
 13 28  1  0  0  0  0
 14 15  2  0  0  0  0
 14 29  1  0  0  0  0
 15 16  1  0  0  0  0
 16 17  1  0  0  0  0
 17 18  1  0  0  0  0
 18 20  1  0  0  0  0
 18 19  1  0  0  0  0
 18 30  1  0  0  0  0
 19 20  1  0  0  0  0
 19 31  1  0  0  0  0
 19 32  1  0  0  0  0
 20 33  1  0  0  0  0
 20 34  1  0  0  0  0
M  END
$$$$
ZINC00005563
  -OEChem-08230709403D

 40 43  0     0  0  0  0  0  0999 V2000
   -0.0127    1.0858    0.0080 C   0  0  0  0  0  0  0  0  0  0  0  0
   -0.7288    1.5792    1.2668 C   0  0  0  0  0  0  0  0  0  0  0  0
   -2.1032    1.0722    1.2772 N   0  0  0  0  0  0  0  0  0  0  0  0
   -3.1138    1.8211    0.6927 C   0  0  0  0  0  0  0  0  0  0  0  0
   -3.8290    1.3014   -0.4000 C   0  0  0  0  0  0  0  0  0  0  0  0
   -4.8643    2.0519   -0.9563 C   0  0  0  0  0  0  0  0  0  0  0  0
   -5.1341    3.2999   -0.4139 C   0  0  0  0  0  0  0  0  0  0  0  0
   -4.3749    3.7545    0.6468 C   0  0  0  0  0  0  0  0  0  0  0  0
   -3.4050    3.0217    1.1605 N   0  0  0  0  0  0  0  0  0  0  0  0
   -3.4882   -0.0244   -0.9561 C   0  0  0  0  0  0  0  0  0  0  0  0
   -3.5405   -0.3511   -2.2316 N   0  0  0  0  0  0  0  0  0  0  0  0
   -3.1548   -1.6236   -2.3794 C   0  0  0  0  0  0  0  0  0  0  0  0
   -2.8509   -2.1201   -1.1638 C   0  0  0  0  0  0  0  0  0  0  0  0
   -3.0635   -1.1136   -0.2545 N   0  0  0  0  0  0  0  0  0  0  0  0
   -2.8733   -1.2189    1.1331 C   0  0  0  0  0  0  0  0  0  0  0  0
   -2.3793   -0.1526    1.8786 C   0  0  0  0  0  0  0  0  0  0  0  0
   -2.1673   -0.2915    3.1819 N   0  0  0  0  0  0  0  0  0  0  0  0
   -2.4255   -1.4237    3.8149 C   0  0  0  0  0  0  0  0  0  0  0  0
   -2.9338   -2.5193    3.1341 C   0  0  0  0  0  0  0  0  0  0  0  0
   -3.1629   -2.4197    1.7701 C   0  0  0  0  0  0  0  0  0  0  0  0
   -2.1904   -1.5140    5.1486 O   0  0  0  0  0  0  0  0  0  0  0  0
   -1.6670   -0.3521    5.7952 C   0  0  0  0  0  0  0  0  0  0  0  0
   -2.3688   -3.5152   -0.8602 C   0  0  0  0  0  0  0  0  0  0  0  0
    0.0021   -0.0041    0.0020 H   0  0  0  0  0  0  0  0  0  0  0  0
    1.0099    1.4631    0.0003 H   0  0  0  0  0  0  0  0  0  0  0  0
   -0.5399    1.4469   -0.8751 H   0  0  0  0  0  0  0  0  0  0  0  0
   -0.2017    1.2182    2.1499 H   0  0  0  0  0  0  0  0  0  0  0  0
   -0.7436    2.6691    1.2728 H   0  0  0  0  0  0  0  0  0  0  0  0
   -5.4402    1.6720   -1.7871 H   0  0  0  0  0  0  0  0  0  0  0  0
   -5.9292    3.9097   -0.8168 H   0  0  0  0  0  0  0  0  0  0  0  0
   -4.5788    4.7297    1.0638 H   0  0  0  0  0  0  0  0  0  0  0  0
   -3.0962   -2.1614   -3.3141 H   0  0  0  0  0  0  0  0  0  0  0  0
   -3.1480   -3.4385    3.6591 H   0  0  0  0  0  0  0  0  0  0  0  0
   -3.5580   -3.2574    1.2146 H   0  0  0  0  0  0  0  0  0  0  0  0
   -0.7099   -0.0866    5.3464 H   0  0  0  0  0  0  0  0  0  0  0  0
   -2.3661    0.4758    5.6765 H   0  0  0  0  0  0  0  0  0  0  0  0
   -1.5259   -0.5591    6.8561 H   0  0  0  0  0  0  0  0  0  0  0  0
   -3.2252   -4.1623   -0.6705 H   0  0  0  0  0  0  0  0  0  0  0  0
   -1.8056   -3.8982   -1.7112 H   0  0  0  0  0  0  0  0  0  0  0  0
   -1.7270   -3.4943    0.0206 H   0  0  0  0  0  0  0  0  0  0  0  0
  1  2  1  0  0  0  0
  1 24  1  0  0  0  0
  1 25  1  0  0  0  0
  1 26  1  0  0  0  0
  2  3  1  0  0  0  0
  2 27  1  0  0  0  0
  2 28  1  0  0  0  0
  3 16  1  0  0  0  0
  3  4  1  0  0  0  0
  4  9  2  0  0  0  0
  4  5  1  0  0  0  0
  5  6  2  0  0  0  0
  5 10  1  0  0  0  0
  6  7  1  0  0  0  0
  6 29  1  0  0  0  0
  7  8  2  0  0  0  0
  7 30  1  0  0  0  0
  8  9  1  0  0  0  0
  8 31  1  0  0  0  0
 10 14  1  0  0  0  0
 10 11  2  0  0  0  0
 11 12  1  0  0  0  0
 12 13  2  0  0  0  0
 12 32  1  0  0  0  0
 13 14  1  0  0  0  0
 13 23  1  0  0  0  0
 14 15  1  0  0  0  0
 15 20  2  0  0  0  0
 15 16  1  0  0  0  0
 16 17  2  0  0  0  0
 17 18  1  0  0  0  0
 18 19  2  0  0  0  0
 18 21  1  0  0  0  0
 19 20  1  0  0  0  0
 19 33  1  0  0  0  0
 20 34  1  0  0  0  0
 21 22  1  0  0  0  0
 22 35  1  0  0  0  0
 22 36  1  0  0  0  0
 22 37  1  0  0  0  0
 23 38  1  0  0  0  0
 23 39  1  0  0  0  0
 23 40  1  0  0  0  0
M  END
$$$$
ZINC00005722
  -OEChem-08230709403D

 32 33  0     0  0  0  0  0  0999 V2000
    1.1971    1.7993   -0.0168 C   0  0  0  0  0  0  0  0  0  0  0  0
    0.0128    1.0780   -0.0076 C   0  0  0  0  0  0  0  0  0  0  0  0
   -1.1899    1.7583    0.0055 C   0  0  0  0  0  0  0  0  0  0  0  0
   -1.2190    3.0767    0.0205 N   0  0  0  0  0  0  0  0  0  0  0  0
   -0.1132    3.7948    0.0122 C   0  0  0  0  0  0  0  0  0  0  0  0
    1.1265    3.1837   -0.0067 C   0  0  0  0  0  0  0  0  0  0  0  0
   -0.2019    5.2992    0.0229 C   0  0  0  0  0  0  0  0  0  0  0  0
   -1.0721    5.7670   -1.1454 C   0  0  0  0  0  0  0  0  0  0  0  0
   -1.1584    7.2294   -1.1350 N   0  0  0  0  0  0  0  0  0  0  0  0
   -1.8779    7.8688   -2.0784 C   0  0  0  0  0  0  0  0  0  0  0  0
   -2.6910    6.9719   -3.2889 S   0  0  0  0  0  0  0  0  0  0  0  0
   -1.9572    9.2142   -2.0689 N   0  0  0  0  0  0  0  0  0  0  0  0
   -2.6092    9.8811   -3.1045 C   0  0  0  0  0  0  0  0  0  0  0  0
   -2.5942   11.2710   -3.1457 C   0  0  0  0  0  0  0  0  0  0  0  0
   -3.2407   11.9206   -4.1819 C   0  0  0  0  0  0  0  0  0  0  0  0
   -3.8926   11.1545   -5.1401 C   0  0  0  0  0  0  0  0  0  0  0  0
   -3.8714    9.7774   -5.0335 C   0  0  0  0  0  0  0  0  0  0  0  0
   -3.2414    9.1858   -4.0365 N   0  0  0  0  0  0  0  0  0  0  0  0
   -4.7986   11.9880   -6.5755 Br  0  0  0  0  0  0  0  0  0  0  0  0
    2.1518    1.2945   -0.0312 H   0  0  0  0  0  0  0  0  0  0  0  0
    0.0302   -0.0019   -0.0150 H   0  0  0  0  0  0  0  0  0  0  0  0
   -2.1167    1.2039    0.0079 H   0  0  0  0  0  0  0  0  0  0  0  0
    2.0287    3.7774   -0.0131 H   0  0  0  0  0  0  0  0  0  0  0  0
   -0.6456    5.6303    0.9618 H   0  0  0  0  0  0  0  0  0  0  0  0
    0.7975    5.7228   -0.0761 H   0  0  0  0  0  0  0  0  0  0  0  0
   -0.6284    5.4359   -2.0843 H   0  0  0  0  0  0  0  0  0  0  0  0
   -2.0715    5.3434   -1.0464 H   0  0  0  0  0  0  0  0  0  0  0  0
   -0.6977    7.7376   -0.4491 H   0  0  0  0  0  0  0  0  0  0  0  0
   -1.5606    9.7182   -1.3412 H   0  0  0  0  0  0  0  0  0  0  0  0
   -2.0808   11.8356   -2.3814 H   0  0  0  0  0  0  0  0  0  0  0  0
   -3.2423   12.9989   -4.2422 H   0  0  0  0  0  0  0  0  0  0  0  0
   -4.3766    9.1773   -5.7759 H   0  0  0  0  0  0  0  0  0  0  0  0
  1  6  2  0  0  0  0
  1  2  1  0  0  0  0
  1 20  1  0  0  0  0
  2  3  2  0  0  0  0
  2 21  1  0  0  0  0
  3  4  1  0  0  0  0
  3 22  1  0  0  0  0
  4  5  2  0  0  0  0
  5  6  1  0  0  0  0
  5  7  1  0  0  0  0
  6 23  1  0  0  0  0
  7  8  1  0  0  0  0
  7 24  1  0  0  0  0
  7 25  1  0  0  0  0
  8  9  1  0  0  0  0
  8 26  1  0  0  0  0
  8 27  1  0  0  0  0
  9 10  1  0  0  0  0
  9 28  1  0  0  0  0
 10 11  2  0  0  0  0
 10 12  1  0  0  0  0
 12 13  1  0  0  0  0
 12 29  1  0  0  0  0
 13 18  2  0  0  0  0
 13 14  1  0  0  0  0
 14 15  2  0  0  0  0
 14 30  1  0  0  0  0
 15 16  1  0  0  0  0
 15 31  1  0  0  0  0
 16 17  2  0  0  0  0
 16 19  1  0  0  0  0
 17 18  1  0  0  0  0
 17 32  1  0  0  0  0
M  END
$$$$
ZINC00005723
  -OEChem-08230709403D

 30 31  0     0  0  0  0  0  0999 V2000
    8.4280    2.9547   -0.0625 C   0  0  0  0  0  0  0  0  0  0  0  0
    7.8456    2.5945    1.1383 C   0  0  0  0  0  0  0  0  0  0  0  0
    6.6578    1.8875    1.1458 C   0  0  0  0  0  0  0  0  0  0  0  0
    6.0526    1.5402   -0.0475 C   0  0  0  0  0  0  0  0  0  0  0  0
    6.6379    1.8954   -1.2484 C   0  0  0  0  0  0  0  0  0  0  0  0
    7.8230    2.6070   -1.2559 C   0  0  0  0  0  0  0  0  0  0  0  0
    4.7579    0.7690   -0.0392 C   0  0  0  0  0  0  0  0  0  0  0  0
    3.5816    1.7473   -0.0228 C   0  0  0  0  0  0  0  0  0  0  0  0
    2.3230    0.9976   -0.0148 N   0  0  0  0  0  0  0  0  0  0  0  0
    1.1468    1.6555   -0.0000 C   0  0  0  0  0  0  0  0  0  0  0  0
    1.1236    3.3673    0.0094 S   0  0  0  0  0  0  0  0  0  0  0  0
   -0.0111    0.9658    0.0074 N   0  0  0  0  0  0  0  0  0  0  0  0
   -1.2236    1.6441    0.0168 C   0  0  0  0  0  0  0  0  0  0  0  0
   -1.4459    2.9441    0.0308 N   0  0  0  0  0  0  0  0  0  0  0  0
   -2.6731    3.4273    0.0347 C   0  0  0  0  0  0  0  0  0  0  0  0
   -3.7106    2.5554    0.0347 C   0  0  0  0  0  0  0  0  0  0  0  0
   -2.8353    0.9977    0.0209 S   0  0  0  0  0  0  0  0  0  0  0  0
    9.3558    3.5074   -0.0684 H   0  0  0  0  0  0  0  0  0  0  0  0
    8.3185    2.8658    2.0706 H   0  0  0  0  0  0  0  0  0  0  0  0
    6.2028    1.6061    2.0840 H   0  0  0  0  0  0  0  0  0  0  0  0
    6.1673    1.6203   -2.1807 H   0  0  0  0  0  0  0  0  0  0  0  0
    8.2781    2.8881   -2.1941 H   0  0  0  0  0  0  0  0  0  0  0  0
    4.7171    0.1368    0.8478 H   0  0  0  0  0  0  0  0  0  0  0  0
    4.7001    0.1464   -0.9321 H   0  0  0  0  0  0  0  0  0  0  0  0
    3.6224    2.3795   -0.9098 H   0  0  0  0  0  0  0  0  0  0  0  0
    3.6393    2.3699    0.8701 H   0  0  0  0  0  0  0  0  0  0  0  0
    2.3361    0.0277   -0.0201 H   0  0  0  0  0  0  0  0  0  0  0  0
    0.0021   -0.0041    0.0020 H   0  0  0  0  0  0  0  0  0  0  0  0
   -2.8472    4.4931    0.0424 H   0  0  0  0  0  0  0  0  0  0  0  0
   -4.7732    2.7488    0.0411 H   0  0  0  0  0  0  0  0  0  0  0  0
  1  6  2  0  0  0  0
  1  2  1  0  0  0  0
  1 18  1  0  0  0  0
  2  3  2  0  0  0  0
  2 19  1  0  0  0  0
  3  4  1  0  0  0  0
  3 20  1  0  0  0  0
  4  5  2  0  0  0  0
  4  7  1  0  0  0  0
  5  6  1  0  0  0  0
  5 21  1  0  0  0  0
  6 22  1  0  0  0  0
  7  8  1  0  0  0  0
  7 23  1  0  0  0  0
  7 24  1  0  0  0  0
  8  9  1  0  0  0  0
  8 25  1  0  0  0  0
  8 26  1  0  0  0  0
  9 10  1  0  0  0  0
  9 27  1  0  0  0  0
 10 11  2  0  0  0  0
 10 12  1  0  0  0  0
 12 13  1  0  0  0  0
 12 28  1  0  0  0  0
 13 17  1  0  0  0  0
 13 14  2  0  0  0  0
 14 15  1  0  0  0  0
 15 16  2  0  0  0  0
 15 29  1  0  0  0  0
 16 17  1  0  0  0  0
 16 30  1  0  0  0  0
M  END
$$$$
ZINC00006488
  -OEChem-08230709403D

 42 43  0     1  0  0  0  0  0999 V2000
   -4.9080    2.4540    3.8589 C   0  0  0  0  0  0  0  0  0  0  0  0
   -4.3150    1.9557    5.1783 C   0  0  0  0  0  0  0  0  0  0  0  0
   -5.0241    0.6678    5.6020 C   0  0  0  0  0  0  0  0  0  0  0  0
   -2.8978    1.6927    5.0032 O   0  0  0  0  0  0  0  0  0  0  0  0
   -2.1081    1.8548    6.0817 C   0  0  0  0  0  0  0  0  0  0  0  0
   -2.5901    2.2064    7.1403 O   0  0  0  0  0  0  0  0  0  0  0  0
   -0.7831    1.6271    5.9872 N   0  0  0  0  0  0  0  0  0  0  0  0
   -0.2027    1.2201    4.7751 C   0  0  0  0  0  0  0  0  0  0  0  0
   -0.7486    1.5955    3.5613 C   0  0  0  0  0  0  0  0  0  0  0  0
   -0.1485    1.1819    2.3802 C   0  0  0  0  0  0  0  0  0  0  0  0
    0.9915    0.3920    2.4191 C   0  0  0  0  0  0  0  0  0  0  0  0
    1.5415    0.0202    3.6316 C   0  0  0  0  0  0  0  0  0  0  0  0
    0.9459    0.4277    4.8147 C   0  0  0  0  0  0  0  0  0  0  0  0
    1.4823    0.0504    6.0523 N   0  0  0  0  0  0  0  0  0  0  0  0
    1.0881    0.6582    7.1871 C   0  0  0  0  0  0  0  0  0  0  0  0
    1.7163    0.1321    8.6903 S   0  0  0  0  0  0  0  0  0  0  0  0
    0.1007    1.7965    7.1502 C   0  0  1  0  0  0  0  0  0  0  0  0
   -0.4940    1.7931    8.0637 H   0  0  0  0  0  0  0  0  0  0  0  0
    0.8534    3.1233    7.0322 C   0  0  0  0  0  0  0  0  0  0  0  0
   -0.3266    4.4980    7.1233 S   0  0  0  0  0  0  0  0  0  0  0  0
    0.7111    5.9780    6.9701 C   0  0  0  0  0  0  0  0  0  0  0  0
   -0.6816    1.5467    1.1837 O   0  0  0  0  0  0  0  0  0  0  0  0
   -0.0127    1.0858    0.0080 C   0  0  0  0  0  0  0  0  0  0  0  0
   -4.7719    1.6942    3.0893 H   0  0  0  0  0  0  0  0  0  0  0  0
   -5.9719    2.6514    3.9903 H   0  0  0  0  0  0  0  0  0  0  0  0
   -4.4029    3.3715    3.5570 H   0  0  0  0  0  0  0  0  0  0  0  0
   -4.4512    2.7155    5.9478 H   0  0  0  0  0  0  0  0  0  0  0  0
   -4.6016    0.3128    6.5419 H   0  0  0  0  0  0  0  0  0  0  0  0
   -6.0880    0.8652    5.7334 H   0  0  0  0  0  0  0  0  0  0  0  0
   -4.8879   -0.0920    4.8324 H   0  0  0  0  0  0  0  0  0  0  0  0
   -1.6376    2.2080    3.5326 H   0  0  0  0  0  0  0  0  0  0  0  0
    1.4538    0.0697    1.4978 H   0  0  0  0  0  0  0  0  0  0  0  0
    2.4318   -0.5907    3.6568 H   0  0  0  0  0  0  0  0  0  0  0  0
    2.1449   -0.6569    6.0922 H   0  0  0  0  0  0  0  0  0  0  0  0
    1.5723    3.2069    7.8473 H   0  0  0  0  0  0  0  0  0  0  0  0
    1.3798    3.1588    6.0784 H   0  0  0  0  0  0  0  0  0  0  0  0
    1.4330    6.0016    7.7864 H   0  0  0  0  0  0  0  0  0  0  0  0
    1.2405    5.9535    6.0176 H   0  0  0  0  0  0  0  0  0  0  0  0
    0.0835    6.8680    7.0142 H   0  0  0  0  0  0  0  0  0  0  0  0
    0.0021   -0.0041    0.0020 H   0  0  0  0  0  0  0  0  0  0  0  0
    1.0099    1.4631    0.0003 H   0  0  0  0  0  0  0  0  0  0  0  0
   -0.5399    1.4469   -0.8751 H   0  0  0  0  0  0  0  0  0  0  0  0
  1  2  1  0  0  0  0
  1 24  1  0  0  0  0
  1 25  1  0  0  0  0
  1 26  1  0  0  0  0
  2  3  1  0  0  0  0
  2  4  1  0  0  0  0
  2 27  1  0  0  0  0
  3 28  1  0  0  0  0
  3 29  1  0  0  0  0
  3 30  1  0  0  0  0
  4  5  1  0  0  0  0
  5  6  2  0  0  0  0
  5  7  1  0  0  0  0
  7 17  1  0  0  0  0
  7  8  1  0  0  0  0
  8 13  2  0  0  0  0
  8  9  1  0  0  0  0
  9 10  2  0  0  0  0
  9 31  1  0  0  0  0
 10 11  1  0  0  0  0
 10 22  1  0  0  0  0
 11 12  2  0  0  0  0
 11 32  1  0  0  0  0
 12 13  1  0  0  0  0
 12 33  1  0  0  0  0
 13 14  1  0  0  0  0
 14 15  1  0  0  0  0
 14 34  1  0  0  0  0
 15 16  2  0  0  0  0
 15 17  1  0  0  0  0
 17 18  1  0  0  0  0
 17 19  1  0  0  0  0
 19 20  1  0  0  0  0
 19 35  1  0  0  0  0
 19 36  1  0  0  0  0
 20 21  1  0  0  0  0
 21 37  1  0  0  0  0
 21 38  1  0  0  0  0
 21 39  1  0  0  0  0
 22 23  1  0  0  0  0
 23 40  1  0  0  0  0
 23 41  1  0  0  0  0
 23 42  1  0  0  0  0
M  END
$$$$
ZINC00006595
  -OEChem-08230709403D

 38 38  0     0  0  0  0  0  0999 V2000
   -8.0791    4.1069    1.0857 C   0  0  0  0  0  0  0  0  0  0  0  0
   -7.5318    3.9007   -0.3282 C   0  0  0  0  0  0  0  0  0  0  0  0
   -7.4923    5.2434   -1.0606 C   0  0  0  0  0  0  0  0  0  0  0  0
   -6.1899    3.3512   -0.2523 O   0  0  0  0  0  0  0  0  0  0  0  0
   -6.0790    2.0087   -0.2343 C   0  0  0  0  0  0  0  0  0  0  0  0
   -7.0759    1.3161   -0.2806 O   0  0  0  0  0  0  0  0  0  0  0  0
   -4.7455    1.3790   -0.1582 C   0  0  0  0  0  0  0  0  0  0  0  0
   -3.5981    2.1723   -0.1048 C   0  0  0  0  0  0  0  0  0  0  0  0
   -2.3506    1.5741   -0.0331 C   0  0  0  0  0  0  0  0  0  0  0  0
   -2.2430    0.1880   -0.0201 C   0  0  0  0  0  0  0  0  0  0  0  0
   -3.3778   -0.5988   -0.0670 C   0  0  0  0  0  0  0  0  0  0  0  0
   -4.6273   -0.0134   -0.1388 C   0  0  0  0  0  0  0  0  0  0  0  0
   -6.0495   -1.0068   -0.2042 Cl  0  0  0  0  0  0  0  0  0  0  0  0
   -1.1974    2.3657    0.0206 N   0  0  0  0  0  0  0  0  0  0  0  0
   -0.1920    2.0361    0.8555 C   0  0  0  0  0  0  0  0  0  0  0  0
   -0.3812    0.7344    1.9512 S   0  0  0  0  0  0  0  0  0  0  0  0
    0.9642    2.7277    0.8240 O   0  0  0  0  0  0  0  0  0  0  0  0
    2.0055    2.3134    1.7473 C   0  0  0  0  0  0  0  0  0  0  0  0
    2.8888    1.2576    1.0794 C   0  0  0  0  0  0  0  0  0  0  0  0
    2.8590    3.5242    2.1301 C   0  0  0  0  0  0  0  0  0  0  0  0
   -8.1072    3.1503    1.6074 H   0  0  0  0  0  0  0  0  0  0  0  0
   -7.4336    4.7978    1.6280 H   0  0  0  0  0  0  0  0  0  0  0  0
   -9.0864    4.5194    1.0287 H   0  0  0  0  0  0  0  0  0  0  0  0
   -8.1772    3.2098   -0.8705 H   0  0  0  0  0  0  0  0  0  0  0  0
   -7.1024    5.0966   -2.0678 H   0  0  0  0  0  0  0  0  0  0  0  0
   -8.4996    5.6560   -1.1175 H   0  0  0  0  0  0  0  0  0  0  0  0
   -6.8468    5.9343   -0.5182 H   0  0  0  0  0  0  0  0  0  0  0  0
   -3.6826    3.2489   -0.1198 H   0  0  0  0  0  0  0  0  0  0  0  0
   -1.2689   -0.2754    0.0315 H   0  0  0  0  0  0  0  0  0  0  0  0
   -3.2876   -1.6749   -0.0525 H   0  0  0  0  0  0  0  0  0  0  0  0
   -1.1218    3.1514   -0.5431 H   0  0  0  0  0  0  0  0  0  0  0  0
    1.5500    1.8921    2.6434 H   0  0  0  0  0  0  0  0  0  0  0  0
    2.2808    0.3950    0.8067 H   0  0  0  0  0  0  0  0  0  0  0  0
    3.3443    1.6790    0.1833 H   0  0  0  0  0  0  0  0  0  0  0  0
    3.6704    0.9466    1.7725 H   0  0  0  0  0  0  0  0  0  0  0  0
    2.2297    4.2764    2.6059 H   0  0  0  0  0  0  0  0  0  0  0  0
    3.6407    3.2132    2.8232 H   0  0  0  0  0  0  0  0  0  0  0  0
    3.3145    3.9456    1.2340 H   0  0  0  0  0  0  0  0  0  0  0  0
  1  2  1  0  0  0  0
  1 21  1  0  0  0  0
  1 22  1  0  0  0  0
  1 23  1  0  0  0  0
  2  3  1  0  0  0  0
  2  4  1  0  0  0  0
  2 24  1  0  0  0  0
  3 25  1  0  0  0  0
  3 26  1  0  0  0  0
  3 27  1  0  0  0  0
  4  5  1  0  0  0  0
  5  6  2  0  0  0  0
  5  7  1  0  0  0  0
  7 12  2  0  0  0  0
  7  8  1  0  0  0  0
  8  9  2  0  0  0  0
  8 28  1  0  0  0  0
  9 10  1  0  0  0  0
  9 14  1  0  0  0  0
 10 11  2  0  0  0  0
 10 29  1  0  0  0  0
 11 12  1  0  0  0  0
 11 30  1  0  0  0  0
 12 13  1  0  0  0  0
 14 15  1  0  0  0  0
 14 31  1  0  0  0  0
 15 16  2  0  0  0  0
 15 17  1  0  0  0  0
 17 18  1  0  0  0  0
 18 19  1  0  0  0  0
 18 20  1  0  0  0  0
 18 32  1  0  0  0  0
 19 33  1  0  0  0  0
 19 34  1  0  0  0  0
 19 35  1  0  0  0  0
 20 36  1  0  0  0  0
 20 37  1  0  0  0  0
 20 38  1  0  0  0  0
M  END
$$$$
ZINC00006732
  -OEChem-08230709403D

 40 41  0     0  0  0  0  0  0999 V2000
    5.2911    1.4713    7.1965 C   0  0  0  0  0  0  0  0  0  0  0  0
    5.1422    0.0101    6.8589 C   0  0  0  0  0  0  0  0  0  0  0  0
    4.1342   -0.5403    6.1220 C   0  0  0  0  0  0  0  0  0  0  0  0
    4.4203   -1.9818    6.0747 C   0  0  0  0  0  0  0  0  0  0  0  0
    5.5569   -2.1554    6.7665 C   0  0  0  0  0  0  0  0  0  0  0  0
    5.9751   -0.9677    7.2309 O   0  0  0  0  0  0  0  0  0  0  0  0
    2.9948    0.1615    5.5080 C   0  0  0  0  0  0  0  0  0  0  0  0
    2.8366    1.8568    5.6870 S   0  0  0  0  0  0  0  0  0  0  0  0
    2.0765   -0.5306    4.8052 N   0  0  0  0  0  0  0  0  0  0  0  0
    1.0415    0.1453    4.1511 C   0  0  0  0  0  0  0  0  0  0  0  0
    0.3446    1.1523    4.8074 C   0  0  0  0  0  0  0  0  0  0  0  0
   -0.6773    1.8203    4.1613 C   0  0  0  0  0  0  0  0  0  0  0  0
   -1.0060    1.4925    2.8586 C   0  0  0  0  0  0  0  0  0  0  0  0
   -0.3161    0.4833    2.2000 C   0  0  0  0  0  0  0  0  0  0  0  0
    0.7097   -0.1888    2.8454 C   0  0  0  0  0  0  0  0  0  0  0  0
   -0.6430    0.1587    0.9212 O   0  0  0  0  0  0  0  0  0  0  0  0
    0.1125   -0.8851    0.3035 C   0  0  0  0  0  0  0  0  0  0  0  0
   -0.3882   -1.1041   -1.1010 C   0  0  0  0  0  0  0  0  0  0  0  0
    0.4641   -1.2771   -2.0807 C   0  0  0  0  0  0  0  0  0  0  0  0
    1.9280   -1.4712   -1.7804 C   0  0  0  0  0  0  0  0  0  0  0  0
   -0.0195   -1.2820   -3.5080 C   0  0  0  0  0  0  0  0  0  0  0  0
   -2.2863    2.3395    2.0480 Cl  0  0  0  0  0  0  0  0  0  0  0  0
    4.7780    1.6815    8.1349 H   0  0  0  0  0  0  0  0  0  0  0  0
    6.3486    1.7148    7.2981 H   0  0  0  0  0  0  0  0  0  0  0  0
    4.8542    2.0744    6.4005 H   0  0  0  0  0  0  0  0  0  0  0  0
    3.8362   -2.7448    5.5817 H   0  0  0  0  0  0  0  0  0  0  0  0
    6.0533   -3.1009    6.9282 H   0  0  0  0  0  0  0  0  0  0  0  0
    2.1333   -1.4975    4.7530 H   0  0  0  0  0  0  0  0  0  0  0  0
    0.6019    1.4127    5.8235 H   0  0  0  0  0  0  0  0  0  0  0  0
   -1.2177    2.6031    4.6729 H   0  0  0  0  0  0  0  0  0  0  0  0
    1.2498   -0.9714    2.3334 H   0  0  0  0  0  0  0  0  0  0  0  0
   -0.0016   -1.8047    0.8774 H   0  0  0  0  0  0  0  0  0  0  0  0
    1.1650   -0.6034    0.2742 H   0  0  0  0  0  0  0  0  0  0  0  0
   -1.4496   -1.1184   -1.2998 H   0  0  0  0  0  0  0  0  0  0  0  0
    2.0712   -1.5445   -0.7023 H   0  0  0  0  0  0  0  0  0  0  0  0
    2.2783   -2.3870   -2.2566 H   0  0  0  0  0  0  0  0  0  0  0  0
    2.4935   -0.6225   -2.1651 H   0  0  0  0  0  0  0  0  0  0  0  0
    0.0095   -0.2673   -3.9049 H   0  0  0  0  0  0  0  0  0  0  0  0
    0.6246   -1.9252   -4.1076 H   0  0  0  0  0  0  0  0  0  0  0  0
   -1.0423   -1.6571   -3.5438 H   0  0  0  0  0  0  0  0  0  0  0  0
  1  2  1  0  0  0  0
  1 23  1  0  0  0  0
  1 24  1  0  0  0  0
  1 25  1  0  0  0  0
  2  6  1  0  0  0  0
  2  3  2  0  0  0  0
  3  4  1  0  0  0  0
  3  7  1  0  0  0  0
  4  5  2  0  0  0  0
  4 26  1  0  0  0  0
  5  6  1  0  0  0  0
  5 27  1  0  0  0  0
  7  8  2  0  0  0  0
  7  9  1  0  0  0  0
  9 10  1  0  0  0  0
  9 28  1  0  0  0  0
 10 15  2  0  0  0  0
 10 11  1  0  0  0  0
 11 12  2  0  0  0  0
 11 29  1  0  0  0  0
 12 13  1  0  0  0  0
 12 30  1  0  0  0  0
 13 14  2  0  0  0  0
 13 22  1  0  0  0  0
 14 15  1  0  0  0  0
 14 16  1  0  0  0  0
 15 31  1  0  0  0  0
 16 17  1  0  0  0  0
 17 18  1  0  0  0  0
 17 32  1  0  0  0  0
 17 33  1  0  0  0  0
 18 19  2  0  0  0  0
 18 34  1  0  0  0  0
 19 20  1  0  0  0  0
 19 21  1  0  0  0  0
 20 35  1  0  0  0  0
 20 36  1  0  0  0  0
 20 37  1  0  0  0  0
 21 38  1  0  0  0  0
 21 39  1  0  0  0  0
 21 40  1  0  0  0  0
M  END
$$$$
ZINC00014547
  -OEChem-08230709403D

 44 46  0     0  0  0  0  0  0999 V2000
    2.9712   -2.9848   -1.4817 C   0  0  0  0  0  0  0  0  0  0  0  0
    2.4819   -2.8442   -0.0389 C   0  0  0  0  0  0  0  0  0  0  0  0
    1.1816   -2.0826   -0.0214 C   0  0  0  0  0  0  0  0  0  0  0  0
    1.1909   -0.6800   -0.0187 C   0  0  0  0  0  0  0  0  0  0  0  0
    0.0021   -0.0041    0.0020 C   0  0  0  0  0  0  0  0  0  0  0  0
   -1.2062   -0.7352    0.0096 C   0  0  0  0  0  0  0  0  0  0  0  0
   -2.2760   -0.1474    0.0230 O   0  0  0  0  0  0  0  0  0  0  0  0
   -1.1769   -2.0816    0.0016 N   0  0  0  0  0  0  0  0  0  0  0  0
   -2.0353   -2.5946    0.0070 H   0  0  0  0  0  0  0  0  0  0  0  0
    0.0067   -2.7518   -0.0137 C   0  0  0  0  0  0  0  0  0  0  0  0
    0.0085   -4.2587   -0.0218 C   0  0  0  0  0  0  0  0  0  0  0  0
   -0.0169    1.3962    0.0097 N   0  0  0  0  0  0  0  0  0  0  0  0
   -1.2954    2.1114    0.0197 C   0  0  0  0  0  0  0  0  0  0  0  0
   -1.0402    3.5966    0.0265 C   0  0  0  0  0  0  0  0  0  0  0  0
   -0.9195    4.3341   -1.0361 N   0  0  0  0  0  0  0  0  0  0  0  0
   -0.6963    5.6207   -0.6538 C   0  0  0  0  0  0  0  0  0  0  0  0
   -0.4947    6.8141   -1.3491 C   0  0  0  0  0  0  0  0  0  0  0  0
   -0.2901    7.9840   -0.6526 C   0  0  0  0  0  0  0  0  0  0  0  0
   -0.2824    7.9834    0.7346 C   0  0  0  0  0  0  0  0  0  0  0  0
   -0.4797    6.8117    1.4346 C   0  0  0  0  0  0  0  0  0  0  0  0
   -0.6877    5.6242    0.7492 C   0  0  0  0  0  0  0  0  0  0  0  0
   -0.9108    4.3476    1.1315 O   0  0  0  0  0  0  0  0  0  0  0  0
   -0.4690    6.8216    2.9416 C   0  0  0  0  0  0  0  0  0  0  0  0
   -0.5021    6.8223   -2.8561 C   0  0  0  0  0  0  0  0  0  0  0  0
    3.9117   -3.5357   -1.4944 H   0  0  0  0  0  0  0  0  0  0  0  0
    2.2264   -3.5240   -2.0671 H   0  0  0  0  0  0  0  0  0  0  0  0
    3.1241   -1.9949   -1.9116 H   0  0  0  0  0  0  0  0  0  0  0  0
    3.2267   -2.3050    0.5464 H   0  0  0  0  0  0  0  0  0  0  0  0
    2.3290   -3.8341    0.3910 H   0  0  0  0  0  0  0  0  0  0  0  0
    2.1261   -0.1400   -0.0289 H   0  0  0  0  0  0  0  0  0  0  0  0
   -1.0186   -4.6234   -0.0136 H   0  0  0  0  0  0  0  0  0  0  0  0
    0.5139   -4.6166   -0.9188 H   0  0  0  0  0  0  0  0  0  0  0  0
    0.5316   -4.6262    0.8610 H   0  0  0  0  0  0  0  0  0  0  0  0
    0.8164    1.8926    0.0044 H   0  0  0  0  0  0  0  0  0  0  0  0
   -1.8676    1.8452   -0.8691 H   0  0  0  0  0  0  0  0  0  0  0  0
   -1.8592    1.8355    0.9108 H   0  0  0  0  0  0  0  0  0  0  0  0
   -0.1344    8.9080   -1.1896 H   0  0  0  0  0  0  0  0  0  0  0  0
   -0.1202    8.9071    1.2703 H   0  0  0  0  0  0  0  0  0  0  0  0
    0.5465    6.6501    3.2988 H   0  0  0  0  0  0  0  0  0  0  0  0
   -0.8223    7.7880    3.3011 H   0  0  0  0  0  0  0  0  0  0  0  0
   -1.1233    6.0338    3.3148 H   0  0  0  0  0  0  0  0  0  0  0  0
   -1.5166    6.9987   -3.2135 H   0  0  0  0  0  0  0  0  0  0  0  0
    0.1536    7.6141   -3.2184 H   0  0  0  0  0  0  0  0  0  0  0  0
   -0.1486    5.8600   -3.2264 H   0  0  0  0  0  0  0  0  0  0  0  0
  1  2  1  0  0  0  0
  1 25  1  0  0  0  0
  1 26  1  0  0  0  0
  1 27  1  0  0  0  0
  2  3  1  0  0  0  0
  2 28  1  0  0  0  0
  2 29  1  0  0  0  0
  3 10  2  0  0  0  0
  3  4  1  0  0  0  0
  4  5  2  0  0  0  0
  4 30  1  0  0  0  0
  5  6  1  0  0  0  0
  5 12  1  0  0  0  0
  6  7  2  0  0  0  0
  6  8  1  0  0  0  0
  8  9  1  0  0  0  0
  8 10  1  0  0  0  0
 10 11  1  0  0  0  0
 11 31  1  0  0  0  0
 11 32  1  0  0  0  0
 11 33  1  0  0  0  0
 12 13  1  0  0  0  0
 12 34  1  0  0  0  0
 13 14  1  0  0  0  0
 13 35  1  0  0  0  0
 13 36  1  0  0  0  0
 14 22  1  0  0  0  0
 14 15  2  0  0  0  0
 15 16  1  0  0  0  0
 16 21  2  0  0  0  0
 16 17  1  0  0  0  0
 17 18  2  0  0  0  0
 17 24  1  0  0  0  0
 18 19  1  0  0  0  0
 18 37  1  0  0  0  0
 19 20  2  0  0  0  0
 19 38  1  0  0  0  0
 20 21  1  0  0  0  0
 20 23  1  0  0  0  0
 21 22  1  0  0  0  0
 23 39  1  0  0  0  0
 23 40  1  0  0  0  0
 23 41  1  0  0  0  0
 24 42  1  0  0  0  0
 24 43  1  0  0  0  0
 24 44  1  0  0  0  0
M  END
$$$$
ZINC00014547
  -OEChem-08230709403D

 44 46  0     0  0  0  0  0  0999 V2000
    2.9712   -2.9848   -1.4817 C   0  0  0  0  0  0  0  0  0  0  0  0
    2.4819   -2.8442   -0.0389 C   0  0  0  0  0  0  0  0  0  0  0  0
    1.1816   -2.0826   -0.0214 C   0  0  0  0  0  0  0  0  0  0  0  0
    1.1909   -0.6800   -0.0187 C   0  0  0  0  0  0  0  0  0  0  0  0
    0.0021   -0.0041    0.0020 C   0  0  0  0  0  0  0  0  0  0  0  0
   -1.2062   -0.7352    0.0096 C   0  0  0  0  0  0  0  0  0  0  0  0
   -2.2760   -0.1474    0.0230 O   0  0  0  0  0  0  0  0  0  0  0  0
   -1.1769   -2.0816    0.0016 N   0  0  0  0  0  0  0  0  0  0  0  0
   -2.0353   -2.5946    0.0070 H   0  0  0  0  0  0  0  0  0  0  0  0
    0.0067   -2.7518   -0.0137 C   0  0  0  0  0  0  0  0  0  0  0  0
    0.0085   -4.2587   -0.0218 C   0  0  0  0  0  0  0  0  0  0  0  0
   -0.0169    1.3962    0.0097 N   0  0  0  0  0  0  0  0  0  0  0  0
   -1.2954    2.1114    0.0197 C   0  0  0  0  0  0  0  0  0  0  0  0
   -1.0402    3.5966    0.0265 C   0  0  0  0  0  0  0  0  0  0  0  0
   -0.9195    4.3341   -1.0361 N   0  0  0  0  0  0  0  0  0  0  0  0
   -0.6963    5.6207   -0.6538 C   0  0  0  0  0  0  0  0  0  0  0  0
   -0.4947    6.8141   -1.3491 C   0  0  0  0  0  0  0  0  0  0  0  0
   -0.2901    7.9840   -0.6526 C   0  0  0  0  0  0  0  0  0  0  0  0
   -0.2824    7.9834    0.7346 C   0  0  0  0  0  0  0  0  0  0  0  0
   -0.4797    6.8117    1.4346 C   0  0  0  0  0  0  0  0  0  0  0  0
   -0.6877    5.6242    0.7492 C   0  0  0  0  0  0  0  0  0  0  0  0
   -0.9108    4.3476    1.1315 O   0  0  0  0  0  0  0  0  0  0  0  0
   -0.4690    6.8216    2.9416 C   0  0  0  0  0  0  0  0  0  0  0  0
   -0.5021    6.8223   -2.8561 C   0  0  0  0  0  0  0  0  0  0  0  0
    3.9117   -3.5357   -1.4944 H   0  0  0  0  0  0  0  0  0  0  0  0
    2.2264   -3.5240   -2.0671 H   0  0  0  0  0  0  0  0  0  0  0  0
    3.1241   -1.9949   -1.9116 H   0  0  0  0  0  0  0  0  0  0  0  0
    3.2267   -2.3050    0.5464 H   0  0  0  0  0  0  0  0  0  0  0  0
    2.3290   -3.8341    0.3910 H   0  0  0  0  0  0  0  0  0  0  0  0
    2.1261   -0.1400   -0.0289 H   0  0  0  0  0  0  0  0  0  0  0  0
   -1.0186   -4.6234   -0.0136 H   0  0  0  0  0  0  0  0  0  0  0  0
    0.5139   -4.6166   -0.9188 H   0  0  0  0  0  0  0  0  0  0  0  0
    0.5316   -4.6262    0.8610 H   0  0  0  0  0  0  0  0  0  0  0  0
    0.8164    1.8926    0.0044 H   0  0  0  0  0  0  0  0  0  0  0  0
   -1.8676    1.8452   -0.8691 H   0  0  0  0  0  0  0  0  0  0  0  0
   -1.8592    1.8355    0.9108 H   0  0  0  0  0  0  0  0  0  0  0  0
   -0.1344    8.9080   -1.1896 H   0  0  0  0  0  0  0  0  0  0  0  0
   -0.1202    8.9071    1.2703 H   0  0  0  0  0  0  0  0  0  0  0  0
    0.5465    6.6501    3.2988 H   0  0  0  0  0  0  0  0  0  0  0  0
   -0.8223    7.7880    3.3011 H   0  0  0  0  0  0  0  0  0  0  0  0
   -1.1233    6.0338    3.3148 H   0  0  0  0  0  0  0  0  0  0  0  0
   -1.5166    6.9987   -3.2135 H   0  0  0  0  0  0  0  0  0  0  0  0
    0.1536    7.6141   -3.2184 H   0  0  0  0  0  0  0  0  0  0  0  0
   -0.1486    5.8600   -3.2264 H   0  0  0  0  0  0  0  0  0  0  0  0
  1  2  1  0  0  0  0
  1 25  1  0  0  0  0
  1 26  1  0  0  0  0
  1 27  1  0  0  0  0
  2  3  1  0  0  0  0
  2 28  1  0  0  0  0
  2 29  1  0  0  0  0
  3 10  2  0  0  0  0
  3  4  1  0  0  0  0
  4  5  2  0  0  0  0
  4 30  1  0  0  0  0
  5  6  1  0  0  0  0
  5 12  1  0  0  0  0
  6  7  2  0  0  0  0
  6  8  1  0  0  0  0
  8  9  1  0  0  0  0
  8 10  1  0  0  0  0
 10 11  1  0  0  0  0
 11 31  1  0  0  0  0
 11 32  1  0  0  0  0
 11 33  1  0  0  0  0
 12 13  1  0  0  0  0
 12 34  1  0  0  0  0
 13 14  1  0  0  0  0
 13 35  1  0  0  0  0
 13 36  1  0  0  0  0
 14 22  1  0  0  0  0
 14 15  2  0  0  0  0
 15 16  1  0  0  0  0
 16 21  2  0  0  0  0
 16 17  1  0  0  0  0
 17 18  2  0  0  0  0
 17 24  1  0  0  0  0
 18 19  1  0  0  0  0
 18 37  1  0  0  0  0
 19 20  2  0  0  0  0
 19 38  1  0  0  0  0
 20 21  1  0  0  0  0
 20 23  1  0  0  0  0
 21 22  1  0  0  0  0
 23 39  1  0  0  0  0
 23 40  1  0  0  0  0
 23 41  1  0  0  0  0
 24 42  1  0  0  0  0
 24 43  1  0  0  0  0
 24 44  1  0  0  0  0
M  END
$$$$
ZINC00018097
  -OEChem-08230709403D

 30 32  0     1  0  0  0  0  0999 V2000
   -3.9492   -4.1904    0.0046 C   0  0  0  0  0  0  0  0  0  0  0  0
   -2.9380   -4.8823    0.6443 C   0  0  0  0  0  0  0  0  0  0  0  0
   -1.6510   -4.3681    0.6552 C   0  0  0  0  0  0  0  0  0  0  0  0
   -1.3761   -3.1739   -0.0018 C   0  0  0  0  0  0  0  0  0  0  0  0
   -2.3879   -2.4840   -0.6346 C   0  0  0  0  0  0  0  0  0  0  0  0
   -3.6766   -2.9915   -0.6301 C   0  0  0  0  0  0  0  0  0  0  0  0
   -4.9528   -2.1211   -1.4222 Cl  0  0  0  0  0  0  0  0  0  0  0  0
    0.0380   -2.6498   -0.0125 C   0  0  2  0  0  0  0  0  0  0  0  0
    0.7296   -3.1336    1.1709 O   0  0  0  0  0  0  0  0  0  0  0  0
    0.5741   -4.4329    1.4874 C   0  0  0  0  0  0  0  0  0  0  0  0
    1.5115   -5.0587    1.9416 O   0  0  0  0  0  0  0  0  0  0  0  0
   -0.6121   -5.0453    1.3041 N   0  0  0  0  0  0  0  0  0  0  0  0
    0.0180   -1.1779   -0.0044 C   0  0  0  0  0  0  0  0  0  0  0  0
    0.0021   -0.0041    0.0020 C   0  0  0  0  0  0  0  0  0  0  0  0
   -0.0179    1.4678    0.0101 C   0  0  0  0  0  0  0  0  0  0  0  0
   -1.1407    2.1548    0.7899 C   0  0  0  0  0  0  0  0  0  0  0  0
   -1.1554    2.1630   -0.7407 C   0  0  0  0  0  0  0  0  0  0  0  0
    0.7608   -3.1453   -1.2667 C   0  0  0  0  0  0  0  0  0  0  0  0
    2.0737   -2.6621   -1.2698 F   0  0  0  0  0  0  0  0  0  0  0  0
    0.7787   -4.5442   -1.2725 F   0  0  0  0  0  0  0  0  0  0  0  0
    0.0909   -2.6828   -2.4044 F   0  0  0  0  0  0  0  0  0  0  0  0
   -4.9539   -4.5865   -0.0002 H   0  0  0  0  0  0  0  0  0  0  0  0
   -3.1502   -5.8212    1.1341 H   0  0  0  0  0  0  0  0  0  0  0  0
   -2.1762   -1.5496   -1.1330 H   0  0  0  0  0  0  0  0  0  0  0  0
   -0.7457   -5.9523    1.6211 H   0  0  0  0  0  0  0  0  0  0  0  0
    0.9590    1.9512    0.0034 H   0  0  0  0  0  0  0  0  0  0  0  0
   -1.8647    1.5169    1.2970 H   0  0  0  0  0  0  0  0  0  0  0  0
   -0.9027    3.0904    1.2959 H   0  0  0  0  0  0  0  0  0  0  0  0
   -0.9269    3.1040   -1.2411 H   0  0  0  0  0  0  0  0  0  0  0  0
   -1.8887    1.5305   -1.2410 H   0  0  0  0  0  0  0  0  0  0  0  0
  1  6  2  0  0  0  0
  1  2  1  0  0  0  0
  1 22  1  0  0  0  0
  2  3  2  0  0  0  0
  2 23  1  0  0  0  0
  3 12  1  0  0  0  0
  3  4  1  0  0  0  0
  4  5  2  0  0  0  0
  4  8  1  0  0  0  0
  5  6  1  0  0  0  0
  5 24  1  0  0  0  0
  6  7  1  0  0  0  0
  8  9  1  0  0  0  0
  8 13  1  0  0  0  0
  8 18  1  0  0  0  0
  9 10  1  0  0  0  0
 10 11  2  0  0  0  0
 10 12  1  0  0  0  0
 12 25  1  0  0  0  0
 13 14  3  0  0  0  0
 14 15  1  0  0  0  0
 15 17  1  0  0  0  0
 15 16  1  0  0  0  0
 15 26  1  0  0  0  0
 16 17  1  0  0  0  0
 16 27  1  0  0  0  0
 16 28  1  0  0  0  0
 17 29  1  0  0  0  0
 17 30  1  0  0  0  0
 18 19  1  0  0  0  0
 18 20  1  0  0  0  0
 18 21  1  0  0  0  0
M  END
$$$$
ZINC00538635
  -OEChem-08230709403D

 49 51  0     0  0  0  0  0  0999 V2000
   -0.6846   -0.6788    0.8351 C   0  0  0  0  0  0  0  0  0  0  0  0
   -0.0102   -0.0098   -0.3642 C   0  0  0  0  0  0  0  0  0  0  0  0
   -0.7773   -0.3592   -1.6411 C   0  0  0  0  0  0  0  0  0  0  0  0
   -0.0101    1.4848   -0.1713 C   0  0  0  0  0  0  0  0  0  0  0  0
    1.0859    2.2683   -0.0281 C   0  0  0  0  0  0  0  0  0  0  0  0
    0.6345    3.5545    0.1201 N   0  0  0  0  0  0  0  0  0  0  0  0
   -0.7251    3.5097    0.0618 C   0  0  0  0  0  0  0  0  0  0  0  0
   -1.0953    2.2721   -0.1173 N   0  0  0  0  0  0  0  0  0  0  0  0
   -1.6487    4.6947    0.1782 C   0  0  0  0  0  0  0  0  0  0  0  0
   -1.8929    5.2495   -1.1412 O   0  0  0  0  0  0  0  0  0  0  0  0
   -2.7043    6.3216   -1.2129 C   0  0  0  0  0  0  0  0  0  0  0  0
   -3.1949    6.7810   -0.2006 O   0  0  0  0  0  0  0  0  0  0  0  0
   -2.9723    6.8851   -2.4075 N   0  0  0  0  0  0  0  0  0  0  0  0
    1.4593    4.7510    0.3053 C   0  0  0  0  0  0  0  0  0  0  0  0
    1.7957    5.3424   -1.0394 C   0  0  0  0  0  0  0  0  0  0  0  0
    2.9405    4.9548   -1.7188 C   0  0  0  0  0  0  0  0  0  0  0  0
    3.2142    5.5157   -2.9519 C   0  0  0  0  0  0  0  0  0  0  0  0
    2.4065    6.4158   -3.4777 N   0  0  0  0  0  0  0  0  0  0  0  0
    1.3118    6.8114   -2.8581 C   0  0  0  0  0  0  0  0  0  0  0  0
    0.9707    6.2911   -1.6240 C   0  0  0  0  0  0  0  0  0  0  0  0
    2.7660    1.7372   -0.0315 S   0  0  0  0  0  0  0  0  0  0  0  0
    3.1346    1.4778    1.6719 C   0  0  0  0  0  0  0  0  0  0  0  0
    2.2025    1.8168    2.6454 C   0  0  0  0  0  0  0  0  0  0  0  0
    2.4921    1.6064    3.9802 C   0  0  0  0  0  0  0  0  0  0  0  0
    3.7137    1.0701    4.3486 C   0  0  0  0  0  0  0  0  0  0  0  0
    4.6462    0.7368    3.3817 C   0  0  0  0  0  0  0  0  0  0  0  0
    4.3601    0.9391    2.0449 C   0  0  0  0  0  0  0  0  0  0  0  0
    6.1767    0.0635    3.8486 Cl  0  0  0  0  0  0  0  0  0  0  0  0
    1.3252    2.0218    5.1966 Cl  0  0  0  0  0  0  0  0  0  0  0  0
   -1.7116   -0.3233    0.9194 H   0  0  0  0  0  0  0  0  0  0  0  0
   -0.6847   -1.7598    0.6956 H   0  0  0  0  0  0  0  0  0  0  0  0
   -0.1381   -0.4299    1.7448 H   0  0  0  0  0  0  0  0  0  0  0  0
    1.0168   -0.3653   -0.4485 H   0  0  0  0  0  0  0  0  0  0  0  0
   -0.2514    0.0492   -2.5041 H   0  0  0  0  0  0  0  0  0  0  0  0
   -0.8477   -1.4426   -1.7377 H   0  0  0  0  0  0  0  0  0  0  0  0
   -1.7793    0.0670   -1.5911 H   0  0  0  0  0  0  0  0  0  0  0  0
   -2.5935    4.3770    0.6193 H   0  0  0  0  0  0  0  0  0  0  0  0
   -1.1887    5.4530    0.8118 H   0  0  0  0  0  0  0  0  0  0  0  0
   -2.5806    6.5184   -3.2156 H   0  0  0  0  0  0  0  0  0  0  0  0
   -3.5568    7.6575   -2.4592 H   0  0  0  0  0  0  0  0  0  0  0  0
    0.9097    5.4832    0.8969 H   0  0  0  0  0  0  0  0  0  0  0  0
    2.3792    4.4815    0.8241 H   0  0  0  0  0  0  0  0  0  0  0  0
    3.6082    4.2214   -1.2913 H   0  0  0  0  0  0  0  0  0  0  0  0
    4.1021    5.2167   -3.4891 H   0  0  0  0  0  0  0  0  0  0  0  0
    0.6745    7.5509   -3.3201 H   0  0  0  0  0  0  0  0  0  0  0  0
    0.0732    6.6196   -1.1211 H   0  0  0  0  0  0  0  0  0  0  0  0
    1.2511    2.2400    2.3588 H   0  0  0  0  0  0  0  0  0  0  0  0
    3.9396    0.9111    5.3927 H   0  0  0  0  0  0  0  0  0  0  0  0
    5.0880    0.6785    1.2908 H   0  0  0  0  0  0  0  0  0  0  0  0
  1  2  1  0  0  0  0
  1 30  1  0  0  0  0
  1 31  1  0  0  0  0
  1 32  1  0  0  0  0
  2  3  1  0  0  0  0
  2  4  1  0  0  0  0
  2 33  1  0  0  0  0
  3 34  1  0  0  0  0
  3 35  1  0  0  0  0
  3 36  1  0  0  0  0
  4  8  1  0  0  0  0
  4  5  2  0  0  0  0
  5  6  1  0  0  0  0
  5 21  1  0  0  0  0
  6  7  1  0  0  0  0
  6 14  1  0  0  0  0
  7  8  2  0  0  0  0
  7  9  1  0  0  0  0
  9 10  1  0  0  0  0
  9 37  1  0  0  0  0
  9 38  1  0  0  0  0
 10 11  1  0  0  0  0
 11 12  2  0  0  0  0
 11 13  1  0  0  0  0
 13 39  1  0  0  0  0
 13 40  1  0  0  0  0
 14 15  1  0  0  0  0
 14 41  1  0  0  0  0
 14 42  1  0  0  0  0
 15 20  2  0  0  0  0
 15 16  1  0  0  0  0
 16 17  2  0  0  0  0
 16 43  1  0  0  0  0
 17 18  1  0  0  0  0
 17 44  1  0  0  0  0
 18 19  2  0  0  0  0
 19 20  1  0  0  0  0
 19 45  1  0  0  0  0
 20 46  1  0  0  0  0
 21 22  1  0  0  0  0
 22 27  2  0  0  0  0
 22 23  1  0  0  0  0
 23 24  2  0  0  0  0
 23 47  1  0  0  0  0
 24 25  1  0  0  0  0
 24 29  1  0  0  0  0
 25 26  2  0  0  0  0
 25 48  1  0  0  0  0
 26 27  1  0  0  0  0
 26 28  1  0  0  0  0
 27 49  1  0  0  0  0
M  END
$$$$
ZINC00538635
  -OEChem-08230709403D

 50 52  0     0  0  0  0  0  0999 V2000
   -0.6846   -0.6788    0.8351 C   0  0  0  0  0  0  0  0  0  0  0  0
   -0.0102   -0.0098   -0.3642 C   0  0  0  0  0  0  0  0  0  0  0  0
   -0.7773   -0.3592   -1.6411 C   0  0  0  0  0  0  0  0  0  0  0  0
   -0.0101    1.4848   -0.1713 C   0  0  0  0  0  0  0  0  0  0  0  0
    1.0859    2.2683   -0.0281 C   0  0  0  0  0  0  0  0  0  0  0  0
    0.6345    3.5545    0.1201 N   0  0  0  0  0  0  0  0  0  0  0  0
   -0.7251    3.5097    0.0618 C   0  0  0  0  0  0  0  0  0  0  0  0
   -1.6487    4.6947    0.1782 C   0  0  0  0  0  0  0  0  0  0  0  0
   -1.8929    5.2495   -1.1412 O   0  0  0  0  0  0  0  0  0  0  0  0
   -2.7043    6.3216   -1.2129 C   0  0  0  0  0  0  0  0  0  0  0  0
   -3.1949    6.7810   -0.2006 O   0  0  0  0  0  0  0  0  0  0  0  0
   -2.9723    6.8851   -2.4075 N   0  0  0  0  0  0  0  0  0  0  0  0
    1.4593    4.7510    0.3053 C   0  0  0  0  0  0  0  0  0  0  0  0
    1.7957    5.3424   -1.0394 C   0  0  0  0  0  0  0  0  0  0  0  0
    2.9405    4.9548   -1.7188 C   0  0  0  0  0  0  0  0  0  0  0  0
    3.2142    5.5157   -2.9519 C   0  0  0  0  0  0  0  0  0  0  0  0
    2.4065    6.4158   -3.4777 N   0  0  0  0  0  0  0  0  0  0  0  0
    1.3118    6.8114   -2.8581 C   0  0  0  0  0  0  0  0  0  0  0  0
    0.9707    6.2911   -1.6240 C   0  0  0  0  0  0  0  0  0  0  0  0
    2.7660    1.7372   -0.0315 S   0  0  0  0  0  0  0  0  0  0  0  0
    3.1346    1.4778    1.6719 C   0  0  0  0  0  0  0  0  0  0  0  0
    2.2025    1.8168    2.6454 C   0  0  0  0  0  0  0  0  0  0  0  0
    2.4921    1.6064    3.9802 C   0  0  0  0  0  0  0  0  0  0  0  0
    3.7137    1.0701    4.3486 C   0  0  0  0  0  0  0  0  0  0  0  0
    4.6462    0.7368    3.3817 C   0  0  0  0  0  0  0  0  0  0  0  0
    4.3601    0.9391    2.0449 C   0  0  0  0  0  0  0  0  0  0  0  0
    6.1767    0.0635    3.8486 Cl  0  0  0  0  0  0  0  0  0  0  0  0
    1.3252    2.0218    5.1966 Cl  0  0  0  0  0  0  0  0  0  0  0  0
   -1.7116   -0.3233    0.9194 H   0  0  0  0  0  0  0  0  0  0  0  0
   -0.6847   -1.7598    0.6956 H   0  0  0  0  0  0  0  0  0  0  0  0
   -0.1381   -0.4299    1.7448 H   0  0  0  0  0  0  0  0  0  0  0  0
    1.0168   -0.3653   -0.4485 H   0  0  0  0  0  0  0  0  0  0  0  0
   -0.2514    0.0492   -2.5041 H   0  0  0  0  0  0  0  0  0  0  0  0
   -0.8477   -1.4426   -1.7377 H   0  0  0  0  0  0  0  0  0  0  0  0
   -1.7793    0.0670   -1.5911 H   0  0  0  0  0  0  0  0  0  0  0  0
   -2.5935    4.3770    0.6193 H   0  0  0  0  0  0  0  0  0  0  0  0
   -1.1887    5.4530    0.8118 H   0  0  0  0  0  0  0  0  0  0  0  0
   -2.5806    6.5184   -3.2156 H   0  0  0  0  0  0  0  0  0  0  0  0
   -3.5568    7.6575   -2.4592 H   0  0  0  0  0  0  0  0  0  0  0  0
    0.9097    5.4832    0.8969 H   0  0  0  0  0  0  0  0  0  0  0  0
    2.3792    4.4815    0.8241 H   0  0  0  0  0  0  0  0  0  0  0  0
    3.6082    4.2214   -1.2913 H   0  0  0  0  0  0  0  0  0  0  0  0
    4.1021    5.2167   -3.4891 H   0  0  0  0  0  0  0  0  0  0  0  0
    0.6745    7.5509   -3.3201 H   0  0  0  0  0  0  0  0  0  0  0  0
    0.0732    6.6196   -1.1211 H   0  0  0  0  0  0  0  0  0  0  0  0
    1.2511    2.2400    2.3588 H   0  0  0  0  0  0  0  0  0  0  0  0
    3.9396    0.9111    5.3927 H   0  0  0  0  0  0  0  0  0  0  0  0
    5.0880    0.6785    1.2908 H   0  0  0  0  0  0  0  0  0  0  0  0
   -1.0951    2.2722   -0.1173 N   0  3  0  0  0  0  0  0  0  0  0  0
   -2.0662    1.9502   -0.2036 H   0  0  0  0  0  0  0  0  0  0  0  0
  1  2  1  0  0  0  0
  1 29  1  0  0  0  0
  1 30  1  0  0  0  0
  1 31  1  0  0  0  0
  2  3  1  0  0  0  0
  2  4  1  0  0  0  0
  2 32  1  0  0  0  0
  3 33  1  0  0  0  0
  3 34  1  0  0  0  0
  3 35  1  0  0  0  0
  4  5  2  0  0  0  0
  4 49  1  0  0  0  0
  5  6  1  0  0  0  0
  5 20  1  0  0  0  0
  6  7  1  0  0  0  0
  6 13  1  0  0  0  0
  7  8  1  0  0  0  0
  7 49  2  0  0  0  0
  8  9  1  0  0  0  0
  8 36  1  0  0  0  0
  8 37  1  0  0  0  0
  9 10  1  0  0  0  0
 10 11  2  0  0  0  0
 10 12  1  0  0  0  0
 12 38  1  0  0  0  0
 12 39  1  0  0  0  0
 13 14  1  0  0  0  0
 13 40  1  0  0  0  0
 13 41  1  0  0  0  0
 14 19  2  0  0  0  0
 14 15  1  0  0  0  0
 15 16  2  0  0  0  0
 15 42  1  0  0  0  0
 16 17  1  0  0  0  0
 16 43  1  0  0  0  0
 17 18  2  0  0  0  0
 18 19  1  0  0  0  0
 18 44  1  0  0  0  0
 19 45  1  0  0  0  0
 20 21  1  0  0  0  0
 21 26  2  0  0  0  0
 21 22  1  0  0  0  0
 22 23  2  0  0  0  0
 22 46  1  0  0  0  0
 23 24  1  0  0  0  0
 23 28  1  0  0  0  0
 24 25  2  0  0  0  0
 24 47  1  0  0  0  0
 25 26  1  0  0  0  0
 25 27  1  0  0  0  0
 26 48  1  0  0  0  0
 49 50  1  0  0  0  0
M  CHG  1  49   1
M  END
$$$$
ZINC00598073
  -OEChem-08230709403D

 39 40  0     1  0  0  0  0  0999 V2000
    1.7853    4.7320   -0.9221 C   0  0  0  0  0  0  0  0  0  0  0  0
    0.7025    3.7107   -0.6867 C   0  0  0  0  0  0  0  0  0  0  0  0
    0.9994    2.3590   -0.7787 C   0  0  0  0  0  0  0  0  0  0  0  0
    0.0206    1.4150   -0.5667 C   0  0  0  0  0  0  0  0  0  0  0  0
   -1.2849    1.8196   -0.2609 C   0  0  0  0  0  0  0  0  0  0  0  0
   -1.5806    3.1914   -0.1638 C   0  0  0  0  0  0  0  0  0  0  0  0
   -0.5767    4.1271   -0.3818 C   0  0  0  0  0  0  0  0  0  0  0  0
   -2.8677    3.6076    0.1424 N   0  0  0  0  0  0  0  0  0  0  0  0
   -3.1443    5.0288    0.3659 C   0  0  2  0  0  0  0  0  0  0  0  0
   -2.3356    5.4689    0.9495 H   0  0  0  0  0  0  0  0  0  0  0  0
   -4.4429    5.1759    1.1162 C   0  0  0  0  0  0  0  0  0  0  0  0
   -5.5706    4.4995    0.6868 C   0  0  0  0  0  0  0  0  0  0  0  0
   -6.7613    4.6308    1.3791 C   0  0  0  0  0  0  0  0  0  0  0  0
   -6.8268    5.4459    2.4934 C   0  0  0  0  0  0  0  0  0  0  0  0
   -5.7019    6.1266    2.9196 C   0  0  0  0  0  0  0  0  0  0  0  0
   -4.5093    5.9919    2.2312 C   0  0  0  0  0  0  0  0  0  0  0  0
   -3.0963    6.8464    2.7670 Cl  0  0  0  0  0  0  0  0  0  0  0  0
   -5.4900    3.4808   -0.7166 Cl  0  0  0  0  0  0  0  0  0  0  0  0
   -3.2480    5.7351   -0.9612 C   0  0  0  0  0  0  0  0  0  0  0  0
   -3.1050    5.1127   -1.9922 O   0  0  0  0  0  0  0  0  0  0  0  0
   -3.4997    7.0586   -1.0024 N   0  0  0  0  0  0  0  0  0  0  0  0
   -2.3351    0.8202   -0.0394 C   0  0  0  0  0  0  0  0  0  0  0  0
   -3.4837    1.1738    0.1264 O   0  0  0  0  0  0  0  0  0  0  0  0
   -1.9875   -0.6460   -0.0178 C   0  0  0  0  0  0  0  0  0  0  0  0
    1.8130    4.9951   -1.9795 H   0  0  0  0  0  0  0  0  0  0  0  0
    1.5780    5.6241   -0.3311 H   0  0  0  0  0  0  0  0  0  0  0  0
    2.7481    4.3156   -0.6260 H   0  0  0  0  0  0  0  0  0  0  0  0
    2.0047    2.0453   -1.0184 H   0  0  0  0  0  0  0  0  0  0  0  0
    0.2578    0.3640   -0.6404 H   0  0  0  0  0  0  0  0  0  0  0  0
   -0.7984    5.1819   -0.3127 H   0  0  0  0  0  0  0  0  0  0  0  0
   -3.5848    2.9577    0.2087 H   0  0  0  0  0  0  0  0  0  0  0  0
   -7.6406    4.0992    1.0465 H   0  0  0  0  0  0  0  0  0  0  0  0
   -7.7575    5.5514    3.0311 H   0  0  0  0  0  0  0  0  0  0  0  0
   -5.7537    6.7634    3.7904 H   0  0  0  0  0  0  0  0  0  0  0  0
   -3.6140    7.5564   -0.1778 H   0  0  0  0  0  0  0  0  0  0  0  0
   -3.5665    7.5132   -1.8566 H   0  0  0  0  0  0  0  0  0  0  0  0
   -1.7613   -0.9212    0.9166 H   0  0  0  0  0  0  0  0  0  0  0  0
   -2.8395   -1.2266   -0.3714 H   0  0  0  0  0  0  0  0  0  0  0  0
   -1.1306   -0.8259   -0.6670 H   0  0  0  0  0  0  0  0  0  0  0  0
  1  2  1  0  0  0  0
  1 25  1  0  0  0  0
  1 26  1  0  0  0  0
  1 27  1  0  0  0  0
  2  7  2  0  0  0  0
  2  3  1  0  0  0  0
  3  4  2  0  0  0  0
  3 28  1  0  0  0  0
  4  5  1  0  0  0  0
  4 29  1  0  0  0  0
  5  6  2  0  0  0  0
  5 22  1  0  0  0  0
  6  7  1  0  0  0  0
  6  8  1  0  0  0  0
  7 30  1  0  0  0  0
  8  9  1  0  0  0  0
  8 31  1  0  0  0  0
  9 10  1  0  0  0  0
  9 11  1  0  0  0  0
  9 19  1  0  0  0  0
 11 16  2  0  0  0  0
 11 12  1  0  0  0  0
 12 13  2  0  0  0  0
 12 18  1  0  0  0  0
 13 14  1  0  0  0  0
 13 32  1  0  0  0  0
 14 15  2  0  0  0  0
 14 33  1  0  0  0  0
 15 16  1  0  0  0  0
 15 34  1  0  0  0  0
 16 17  1  0  0  0  0
 19 20  2  0  0  0  0
 19 21  1  0  0  0  0
 21 35  1  0  0  0  0
 21 36  1  0  0  0  0
 22 23  2  0  0  0  0
 22 24  1  0  0  0  0
 24 37  1  0  0  0  0
 24 38  1  0  0  0  0
 24 39  1  0  0  0  0
M  END
$$$$
ZINC00598801
  -OEChem-08230709403D

 54 58  0     1  0  0  0  0  0999 V2000
   -5.6207   -5.9939   -3.1383 C   0  0  0  0  0  0  0  0  0  0  0  0
   -4.2332   -5.4406   -2.8071 C   0  0  1  0  0  0  0  0  0  0  0  0
   -3.6756   -6.1940   -2.2508 H   0  0  0  0  0  0  0  0  0  0  0  0
   -3.5002   -5.1407   -4.1017 C   0  0  1  0  0  0  0  0  0  0  0  0
   -4.1389   -4.5254   -4.7353 H   0  0  0  0  0  0  0  0  0  0  0  0
   -2.2813   -4.4601   -3.8806 O   0  0  0  0  0  0  0  0  0  0  0  0
   -2.1953   -3.4900   -2.9436 C   0  0  0  0  0  0  0  0  0  0  0  0
   -1.0786   -2.6379   -2.9597 C   0  0  0  0  0  0  0  0  0  0  0  0
   -0.9397   -1.6314   -2.0030 C   0  0  0  0  0  0  0  0  0  0  0  0
   -1.9237   -1.4789   -1.0228 C   0  0  0  0  0  0  0  0  0  0  0  0
   -1.8139   -0.4365    0.0087 C   0  0  0  0  0  0  0  0  0  0  0  0
   -2.8316   -0.3397    0.9409 C   0  0  0  0  0  0  0  0  0  0  0  0
   -3.9151   -1.2299    0.8754 C   0  0  0  0  0  0  0  0  0  0  0  0
   -4.8080   -1.1373    1.6995 O   0  0  0  0  0  0  0  0  0  0  0  0
   -3.9957   -2.1798   -0.0693 O   0  0  0  0  0  0  0  0  0  0  0  0
   -3.0391   -2.3344   -1.0114 C   0  0  0  0  0  0  0  0  0  0  0  0
   -3.1660   -3.3355   -1.9719 C   0  0  0  0  0  0  0  0  0  0  0  0
   -4.3911   -4.2054   -1.9415 C   0  0  2  0  0  0  0  0  0  0  0  0
   -5.2482   -3.6324   -2.2952 H   0  0  0  0  0  0  0  0  0  0  0  0
   -4.6298   -4.6116   -0.5924 O   0  0  0  0  0  0  0  0  0  0  0  0
   -0.6553    0.4832    0.0446 C   0  0  0  0  0  0  0  0  0  0  0  0
   -0.3613    1.2834   -1.0603 C   0  0  0  0  0  0  0  0  0  0  0  0
    0.7201    2.1392   -1.0202 C   0  0  0  0  0  0  0  0  0  0  0  0
    1.5120    2.2054    0.1124 C   0  0  0  0  0  0  0  0  0  0  0  0
    1.2261    1.4145    1.2111 C   0  0  0  0  0  0  0  0  0  0  0  0
    0.1477    0.5546    1.1838 C   0  0  0  0  0  0  0  0  0  0  0  0
    0.1492   -0.8256   -2.0489 O   0  0  0  0  0  0  0  0  0  0  0  0
    1.3720   -1.4092   -2.5012 C   0  0  0  0  0  0  0  0  0  0  0  0
    1.1471   -2.1889   -3.7699 C   0  0  0  0  0  0  0  0  0  0  0  0
   -0.0252   -2.7829   -3.9869 C   0  0  0  0  0  0  0  0  0  0  0  0
    2.3935   -0.3009   -2.7640 C   0  0  0  0  0  0  0  0  0  0  0  0
    1.9133   -2.3479   -1.4210 C   0  0  0  0  0  0  0  0  0  0  0  0
   -3.2092   -6.4588   -4.8220 C   0  0  0  0  0  0  0  0  0  0  0  0
   -5.5174   -6.9080   -3.7229 H   0  0  0  0  0  0  0  0  0  0  0  0
   -6.1550   -6.2124   -2.2137 H   0  0  0  0  0  0  0  0  0  0  0  0
   -6.1784   -5.2554   -3.7143 H   0  0  0  0  0  0  0  0  0  0  0  0
   -2.7926    0.4144    1.7130 H   0  0  0  0  0  0  0  0  0  0  0  0
   -3.9350   -5.1728   -0.2218 H   0  0  0  0  0  0  0  0  0  0  0  0
   -0.9762    1.2296   -1.9465 H   0  0  0  0  0  0  0  0  0  0  0  0
    0.9490    2.7587   -1.8747 H   0  0  0  0  0  0  0  0  0  0  0  0
    2.3573    2.8773    0.1389 H   0  0  0  0  0  0  0  0  0  0  0  0
    1.8484    1.4706    2.0920 H   0  0  0  0  0  0  0  0  0  0  0  0
   -0.0744   -0.0623    2.0420 H   0  0  0  0  0  0  0  0  0  0  0  0
    1.9360   -2.2666   -4.5033 H   0  0  0  0  0  0  0  0  0  0  0  0
   -0.2011   -3.3534   -4.8868 H   0  0  0  0  0  0  0  0  0  0  0  0
    2.5724    0.2541   -1.8431 H   0  0  0  0  0  0  0  0  0  0  0  0
    3.3282   -0.7427   -3.1093 H   0  0  0  0  0  0  0  0  0  0  0  0
    2.0076    0.3754   -3.5267 H   0  0  0  0  0  0  0  0  0  0  0  0
    1.2168   -3.1735   -1.2747 H   0  0  0  0  0  0  0  0  0  0  0  0
    2.8814   -2.7401   -1.7323 H   0  0  0  0  0  0  0  0  0  0  0  0
    2.0272   -1.7988   -0.4863 H   0  0  0  0  0  0  0  0  0  0  0  0
   -2.5516   -7.0721   -4.2059 H   0  0  0  0  0  0  0  0  0  0  0  0
   -4.1441   -6.9913   -4.9971 H   0  0  0  0  0  0  0  0  0  0  0  0
   -2.7247   -6.2520   -5.7763 H   0  0  0  0  0  0  0  0  0  0  0  0
  1  2  1  0  0  0  0
  1 34  1  0  0  0  0
  1 35  1  0  0  0  0
  1 36  1  0  0  0  0
  2  3  1  0  0  0  0
  2 18  1  0  0  0  0
  2  4  1  0  0  0  0
  4  5  1  0  0  0  0
  4  6  1  0  0  0  0
  4 33  1  0  0  0  0
  6  7  1  0  0  0  0
  7 17  2  0  0  0  0
  7  8  1  0  0  0  0
  8 30  1  0  0  0  0
  8  9  2  0  0  0  0
  9 10  1  0  0  0  0
  9 27  1  0  0  0  0
 10 16  2  0  0  0  0
 10 11  1  0  0  0  0
 11 12  2  0  0  0  0
 11 21  1  0  0  0  0
 12 13  1  0  0  0  0
 12 37  1  0  0  0  0
 13 14  2  0  0  0  0
 13 15  1  0  0  0  0
 15 16  1  0  0  0  0
 16 17  1  0  0  0  0
 17 18  1  0  0  0  0
 18 19  1  0  0  0  0
 18 20  1  0  0  0  0
 20 38  1  0  0  0  0
 21 26  2  0  0  0  0
 21 22  1  0  0  0  0
 22 23  2  0  0  0  0
 22 39  1  0  0  0  0
 23 24  1  0  0  0  0
 23 40  1  0  0  0  0
 24 25  2  0  0  0  0
 24 41  1  0  0  0  0
 25 26  1  0  0  0  0
 25 42  1  0  0  0  0
 26 43  1  0  0  0  0
 27 28  1  0  0  0  0
 28 29  1  0  0  0  0
 28 31  1  0  0  0  0
 28 32  1  0  0  0  0
 29 30  2  0  0  0  0
 29 44  1  0  0  0  0
 30 45  1  0  0  0  0
 31 46  1  0  0  0  0
 31 47  1  0  0  0  0
 31 48  1  0  0  0  0
 32 49  1  0  0  0  0
 32 50  1  0  0  0  0
 32 51  1  0  0  0  0
 33 52  1  0  0  0  0
 33 53  1  0  0  0  0
 33 54  1  0  0  0  0
M  END
$$$$
ZINC01492540
  -OEChem-08230709403D

 41 42  0     0  0  0  0  0  0999 V2000
    1.6384    0.8257   -3.8514 C   0  0  0  0  0  0  0  0  0  0  0  0
    1.2341    1.0800   -2.4221 C   0  0  0  0  0  0  0  0  0  0  0  0
    2.1665    1.5859   -1.6069 C   0  0  0  0  0  0  0  0  0  0  0  0
    1.7984    1.8808    0.0957 S   0  0  0  0  0  0  0  0  0  0  0  0
   -0.0177    1.7411    0.1295 C   0  0  0  0  0  0  0  0  0  0  0  0
   -0.3926    0.5246   -0.7339 C   0  0  0  0  0  0  0  0  0  0  0  0
   -0.0222    0.7795   -2.0836 O   0  0  0  0  0  0  0  0  0  0  0  0
    3.4992    1.8972   -2.1288 C   0  0  0  0  0  0  0  0  0  0  0  0
    3.7561    1.6956   -3.3015 O   0  0  0  0  0  0  0  0  0  0  0  0
    4.4411    2.4070   -1.3106 N   0  0  0  0  0  0  0  0  0  0  0  0
    5.7449    2.6011   -1.7800 C   0  0  0  0  0  0  0  0  0  0  0  0
    6.2847    1.7243   -2.7144 C   0  0  0  0  0  0  0  0  0  0  0  0
    7.5694    1.9139   -3.1860 C   0  0  0  0  0  0  0  0  0  0  0  0
    8.3310    2.9701   -2.7238 C   0  0  0  0  0  0  0  0  0  0  0  0
    7.7994    3.8536   -1.7804 C   0  0  0  0  0  0  0  0  0  0  0  0
    6.4992    3.6637   -1.3092 C   0  0  0  0  0  0  0  0  0  0  0  0
    8.6098    4.9838   -1.2842 C   0  0  0  0  0  0  0  0  0  0  0  0
    9.7411    5.1468   -1.6957 O   0  0  0  0  0  0  0  0  0  0  0  0
    8.0947    5.8341   -0.3751 O   0  0  0  0  0  0  0  0  0  0  0  0
    8.9481    6.9221    0.0677 C   0  0  0  0  0  0  0  0  0  0  0  0
    8.0841    8.1278    0.4430 C   0  0  0  0  0  0  0  0  0  0  0  0
    9.7549    6.4734    1.2878 C   0  0  0  0  0  0  0  0  0  0  0  0
    9.9470    3.1998   -3.3150 Cl  0  0  0  0  0  0  0  0  0  0  0  0
    0.7910    0.4163   -4.4013 H   0  0  0  0  0  0  0  0  0  0  0  0
    1.9523    1.7623   -4.3123 H   0  0  0  0  0  0  0  0  0  0  0  0
    2.4642    0.1147   -3.8745 H   0  0  0  0  0  0  0  0  0  0  0  0
   -0.4677    2.6435   -0.2844 H   0  0  0  0  0  0  0  0  0  0  0  0
   -0.3598    1.5900    1.1533 H   0  0  0  0  0  0  0  0  0  0  0  0
    0.1364   -0.3567   -0.3711 H   0  0  0  0  0  0  0  0  0  0  0  0
   -1.4678    0.3547   -0.6768 H   0  0  0  0  0  0  0  0  0  0  0  0
    4.2152    2.6392   -0.3963 H   0  0  0  0  0  0  0  0  0  0  0  0
    5.6959    0.8944   -3.0762 H   0  0  0  0  0  0  0  0  0  0  0  0
    7.9813    1.2319   -3.9151 H   0  0  0  0  0  0  0  0  0  0  0  0
    6.0826    4.3426   -0.5799 H   0  0  0  0  0  0  0  0  0  0  0  0
    9.6296    7.1997   -0.7364 H   0  0  0  0  0  0  0  0  0  0  0  0
    7.4027    7.8502    1.2471 H   0  0  0  0  0  0  0  0  0  0  0  0
    8.7248    8.9445    0.7754 H   0  0  0  0  0  0  0  0  0  0  0  0
    7.5093    8.4475   -0.4262 H   0  0  0  0  0  0  0  0  0  0  0  0
    9.0735    6.1958    2.0919 H   0  0  0  0  0  0  0  0  0  0  0  0
   10.3705    5.6145    1.0204 H   0  0  0  0  0  0  0  0  0  0  0  0
   10.3956    7.2902    1.6202 H   0  0  0  0  0  0  0  0  0  0  0  0
  1  2  1  0  0  0  0
  1 24  1  0  0  0  0
  1 25  1  0  0  0  0
  1 26  1  0  0  0  0
  2  7  1  0  0  0  0
  2  3  2  0  0  0  0
  3  4  1  0  0  0  0
  3  8  1  0  0  0  0
  4  5  1  0  0  0  0
  5  6  1  0  0  0  0
  5 27  1  0  0  0  0
  5 28  1  0  0  0  0
  6  7  1  0  0  0  0
  6 29  1  0  0  0  0
  6 30  1  0  0  0  0
  8  9  2  0  0  0  0
  8 10  1  0  0  0  0
 10 11  1  0  0  0  0
 10 31  1  0  0  0  0
 11 16  2  0  0  0  0
 11 12  1  0  0  0  0
 12 13  2  0  0  0  0
 12 32  1  0  0  0  0
 13 14  1  0  0  0  0
 13 33  1  0  0  0  0
 14 15  2  0  0  0  0
 14 23  1  0  0  0  0
 15 16  1  0  0  0  0
 15 17  1  0  0  0  0
 16 34  1  0  0  0  0
 17 18  2  0  0  0  0
 17 19  1  0  0  0  0
 19 20  1  0  0  0  0
 20 21  1  0  0  0  0
 20 22  1  0  0  0  0
 20 35  1  0  0  0  0
 21 36  1  0  0  0  0
 21 37  1  0  0  0  0
 21 38  1  0  0  0  0
 22 39  1  0  0  0  0
 22 40  1  0  0  0  0
 22 41  1  0  0  0  0
M  END
$$$$
ZINC01536588
  -OEChem-08230709403D

 44 45  0     0  0  0  0  0  0999 V2000
   -5.2237    2.5065    5.5781 C   0  0  0  0  0  0  0  0  0  0  0  0
   -4.8998    2.7249    4.0988 C   0  0  0  0  0  0  0  0  0  0  0  0
   -5.7051    1.8546    3.3013 O   0  0  0  0  0  0  0  0  0  0  0  0
   -5.4794    1.9794    1.8958 C   0  0  0  0  0  0  0  0  0  0  0  0
   -4.2730    1.2346    1.5269 N   0  0  0  0  0  0  0  0  0  0  0  0
   -3.1180    1.9120    1.2447 C   0  0  0  0  0  0  0  0  0  0  0  0
   -2.0077    1.2258    0.8993 C   0  0  0  0  0  0  0  0  0  0  0  0
   -2.0599   -0.1880    0.8477 C   0  0  0  0  0  0  0  0  0  0  0  0
   -1.0701   -0.8289    0.5432 O   0  0  0  0  0  0  0  0  0  0  0  0
   -3.2159   -0.8184    1.1382 N   0  0  0  0  0  0  0  0  0  0  0  0
   -3.2609   -1.8168    1.1039 H   0  0  0  0  0  0  0  0  0  0  0  0
   -4.3095   -0.1093    1.4741 C   0  0  0  0  0  0  0  0  0  0  0  0
   -5.3451   -0.6913    1.7332 O   0  0  0  0  0  0  0  0  0  0  0  0
   -0.7282    1.9548    0.5792 C   0  0  0  0  0  0  0  0  0  0  0  0
   -0.2720    1.5876   -0.8343 C   0  0  0  0  0  0  0  0  0  0  0  0
    0.3529    1.5532    1.5845 C   0  0  0  0  0  0  0  0  0  0  0  0
   -3.0872    3.4172    1.3131 C   0  0  0  0  0  0  0  0  0  0  0  0
   -3.4351    3.9887   -0.0372 C   0  0  0  0  0  0  0  0  0  0  0  0
   -2.4377    4.2296   -0.9635 C   0  0  0  0  0  0  0  0  0  0  0  0
   -2.7574    4.7493   -2.2039 C   0  0  0  0  0  0  0  0  0  0  0  0
   -4.0732    5.0374   -2.5144 C   0  0  0  0  0  0  0  0  0  0  0  0
   -5.0699    4.8018   -1.5860 C   0  0  0  0  0  0  0  0  0  0  0  0
   -4.7509    4.2772   -0.3475 C   0  0  0  0  0  0  0  0  0  0  0  0
   -6.2773    2.7227    5.7551 H   0  0  0  0  0  0  0  0  0  0  0  0
   -5.0152    1.4709    5.8466 H   0  0  0  0  0  0  0  0  0  0  0  0
   -4.6094    3.1704    6.1864 H   0  0  0  0  0  0  0  0  0  0  0  0
   -3.8462    2.5087    3.9218 H   0  0  0  0  0  0  0  0  0  0  0  0
   -5.1083    3.7605    3.8302 H   0  0  0  0  0  0  0  0  0  0  0  0
   -5.3494    3.0311    1.6406 H   0  0  0  0  0  0  0  0  0  0  0  0
   -6.3349    1.5769    1.3533 H   0  0  0  0  0  0  0  0  0  0  0  0
   -0.8980    3.0299    0.6383 H   0  0  0  0  0  0  0  0  0  0  0  0
   -0.1022    0.5125   -0.8935 H   0  0  0  0  0  0  0  0  0  0  0  0
    0.6534    2.1149   -1.0659 H   0  0  0  0  0  0  0  0  0  0  0  0
   -1.0422    1.8737   -1.5506 H   0  0  0  0  0  0  0  0  0  0  0  0
    1.2784    2.0804    1.3529 H   0  0  0  0  0  0  0  0  0  0  0  0
    0.0279    1.8148    2.5915 H   0  0  0  0  0  0  0  0  0  0  0  0
    0.5227    0.4781    1.5253 H   0  0  0  0  0  0  0  0  0  0  0  0
   -3.8112    3.7623    2.0512 H   0  0  0  0  0  0  0  0  0  0  0  0
   -2.0891    3.7474    1.6013 H   0  0  0  0  0  0  0  0  0  0  0  0
   -1.4091    4.0084   -0.7195 H   0  0  0  0  0  0  0  0  0  0  0  0
   -1.9786    4.9338   -2.9291 H   0  0  0  0  0  0  0  0  0  0  0  0
   -4.3226    5.4470   -3.4821 H   0  0  0  0  0  0  0  0  0  0  0  0
   -6.0980    5.0272   -1.8284 H   0  0  0  0  0  0  0  0  0  0  0  0
   -5.5296    4.0931    0.3779 H   0  0  0  0  0  0  0  0  0  0  0  0
  1  2  1  0  0  0  0
  1 24  1  0  0  0  0
  1 25  1  0  0  0  0
  1 26  1  0  0  0  0
  2  3  1  0  0  0  0
  2 27  1  0  0  0  0
  2 28  1  0  0  0  0
  3  4  1  0  0  0  0
  4  5  1  0  0  0  0
  4 29  1  0  0  0  0
  4 30  1  0  0  0  0
  5 12  1  0  0  0  0
  5  6  1  0  0  0  0
  6  7  2  0  0  0  0
  6 17  1  0  0  0  0
  7  8  1  0  0  0  0
  7 14  1  0  0  0  0
  8  9  2  0  0  0  0
  8 10  1  0  0  0  0
 10 11  1  0  0  0  0
 10 12  1  0  0  0  0
 12 13  2  0  0  0  0
 14 15  1  0  0  0  0
 14 16  1  0  0  0  0
 14 31  1  0  0  0  0
 15 32  1  0  0  0  0
 15 33  1  0  0  0  0
 15 34  1  0  0  0  0
 16 35  1  0  0  0  0
 16 36  1  0  0  0  0
 16 37  1  0  0  0  0
 17 18  1  0  0  0  0
 17 38  1  0  0  0  0
 17 39  1  0  0  0  0
 18 23  2  0  0  0  0
 18 19  1  0  0  0  0
 19 20  2  0  0  0  0
 19 40  1  0  0  0  0
 20 21  1  0  0  0  0
 20 41  1  0  0  0  0
 21 22  2  0  0  0  0
 21 42  1  0  0  0  0
 22 23  1  0  0  0  0
 22 43  1  0  0  0  0
 23 44  1  0  0  0  0
M  END
$$$$
ZINC01624808
  -OEChem-08230709403D

 42 44  0     1  0  0  0  0  0999 V2000
   -2.3625    0.9413    2.5180 C   0  0  0  0  0  0  0  0  0  0  0  0
   -1.1712    0.1716    1.9442 C   0  0  1  0  0  0  0  0  0  0  0  0
   -0.6947   -0.3781    2.7560 H   0  0  0  0  0  0  0  0  0  0  0  0
   -1.6900   -0.8270    0.9296 C   0  0  0  0  0  0  0  0  0  0  0  0
   -2.2207   -0.1234   -0.2416 N   0  0  0  0  0  0  0  0  0  0  0  0
   -1.3766    0.5854   -1.1037 C   0  0  0  0  0  0  0  0  0  0  0  0
   -2.1058    0.8702   -2.2500 C   0  0  0  0  0  0  0  0  0  0  0  0
   -1.4240    1.3784   -3.3455 C   0  0  0  0  0  0  0  0  0  0  0  0
   -0.0575    1.5810   -3.2618 C   0  0  0  0  0  0  0  0  0  0  0  0
    0.6432    1.3250   -2.0916 C   0  0  0  0  0  0  0  0  0  0  0  0
   -0.0356    0.8482   -0.9832 C   0  0  0  0  0  0  0  0  0  0  0  0
    0.6698    0.6444    0.3404 C   0  0  0  0  0  0  0  0  0  0  0  0
    0.5812    1.7509    2.4955 C   0  0  0  0  0  0  0  0  0  0  0  0
    1.2654    2.9923    1.9837 C   0  0  0  0  0  0  0  0  0  0  0  0
    1.0969    4.1350    2.6016 C   0  0  0  0  0  0  0  0  0  0  0  0
    0.3242    4.1858    3.8944 C   0  0  0  0  0  0  0  0  0  0  0  0
    1.6759    5.3988    2.0197 C   0  0  0  0  0  0  0  0  0  0  0  0
    2.3556    1.6008   -2.0182 Cl  0  0  0  0  0  0  0  0  0  0  0  0
   -3.4257    0.5433   -1.9543 N   0  0  0  0  0  0  0  0  0  0  0  0
   -4.1925    0.7109   -2.5242 H   0  0  0  0  0  0  0  0  0  0  0  0
   -3.4590   -0.0477   -0.7358 C   0  0  0  0  0  0  0  0  0  0  0  0
   -4.8718   -0.6115    0.0498 S   0  0  0  0  0  0  0  0  0  0  0  0
   -3.0483    0.2437    2.9987 H   0  0  0  0  0  0  0  0  0  0  0  0
   -2.0079    1.6657    3.2512 H   0  0  0  0  0  0  0  0  0  0  0  0
   -2.8800    1.4628    1.7128 H   0  0  0  0  0  0  0  0  0  0  0  0
   -2.4817   -1.4241    1.3822 H   0  0  0  0  0  0  0  0  0  0  0  0
   -0.8768   -1.4832    0.6195 H   0  0  0  0  0  0  0  0  0  0  0  0
   -1.9547    1.6137   -4.2562 H   0  0  0  0  0  0  0  0  0  0  0  0
    0.4757    1.9464   -4.1270 H   0  0  0  0  0  0  0  0  0  0  0  0
    0.8675   -0.4168    0.4918 H   0  0  0  0  0  0  0  0  0  0  0  0
    1.6091    1.1974    0.3452 H   0  0  0  0  0  0  0  0  0  0  0  0
   -0.0793    2.0144    3.3216 H   0  0  0  0  0  0  0  0  0  0  0  0
    1.3309    1.0397    2.8424 H   0  0  0  0  0  0  0  0  0  0  0  0
    1.8946    2.9398    1.1075 H   0  0  0  0  0  0  0  0  0  0  0  0
    0.7610    3.4858    4.6066 H   0  0  0  0  0  0  0  0  0  0  0  0
    0.3671    5.1951    4.3040 H   0  0  0  0  0  0  0  0  0  0  0  0
   -0.7146    3.9134    3.7077 H   0  0  0  0  0  0  0  0  0  0  0  0
    2.1960    5.1660    1.0905 H   0  0  0  0  0  0  0  0  0  0  0  0
    0.8725    6.1075    1.8186 H   0  0  0  0  0  0  0  0  0  0  0  0
    2.3779    5.8371    2.7290 H   0  0  0  0  0  0  0  0  0  0  0  0
   -0.2308    1.1991    1.4009 N   0  3  2  0  0  0  0  0  0  0  0  0
   -0.7867    1.9566    0.9868 H   0  0  0  0  0  0  0  0  0  0  0  0
  1  2  1  0  0  0  0
  1 23  1  0  0  0  0
  1 24  1  0  0  0  0
  1 25  1  0  0  0  0
  2  3  1  0  0  0  0
  2  4  1  0  0  0  0
  2 41  1  0  0  0  0
  4  5  1  0  0  0  0
  4 26  1  0  0  0  0
  4 27  1  0  0  0  0
  5 21  1  0  0  0  0
  5  6  1  0  0  0  0
  6 11  2  0  0  0  0
  6  7  1  0  0  0  0
  7  8  2  0  0  0  0
  7 19  1  0  0  0  0
  8  9  1  0  0  0  0
  8 28  1  0  0  0  0
  9 10  2  0  0  0  0
  9 29  1  0  0  0  0
 10 11  1  0  0  0  0
 10 18  1  0  0  0  0
 11 12  1  0  0  0  0
 12 30  1  0  0  0  0
 12 31  1  0  0  0  0
 12 41  1  0  0  0  0
 13 14  1  0  0  0  0
 13 32  1  0  0  0  0
 13 33  1  0  0  0  0
 13 41  1  0  0  0  0
 14 15  2  0  0  0  0
 14 34  1  0  0  0  0
 15 16  1  0  0  0  0
 15 17  1  0  0  0  0
 16 35  1  0  0  0  0
 16 36  1  0  0  0  0
 16 37  1  0  0  0  0
 17 38  1  0  0  0  0
 17 39  1  0  0  0  0
 17 40  1  0  0  0  0
 19 20  1  0  0  0  0
 19 21  1  0  0  0  0
 21 22  2  0  0  0  0
 41 42  1  0  0  0  0
M  CHG  1  41   1
M  END
$$$$
ZINC01625281
  -OEChem-08230709403D

 42 44  0     1  0  0  0  0  0999 V2000
    0.7667    0.7116    0.3644 C   0  0  0  0  0  0  0  0  0  0  0  0
    0.3352    0.8429   -1.0976 C   0  0  1  0  0  0  0  0  0  0  0  0
   -0.7260    0.6036   -1.1652 H   0  0  0  0  0  0  0  0  0  0  0  0
    0.5300    2.2822   -1.5271 C   0  0  0  0  0  0  0  0  0  0  0  0
    1.9575    2.6090   -1.5818 N   0  0  0  0  0  0  0  0  0  0  0  0
    2.7919    2.0315   -2.5448 C   0  0  0  0  0  0  0  0  0  0  0  0
    2.5226    1.0308   -3.4399 C   0  0  0  0  0  0  0  0  0  0  0  0
    3.4375    0.7938   -4.4521 C   0  0  0  0  0  0  0  0  0  0  0  0
    4.6253    1.5108   -4.4795 C   0  0  0  0  0  0  0  0  0  0  0  0
    4.9274    2.4474   -3.5057 C   0  0  0  0  0  0  0  0  0  0  0  0
    4.0009    2.7136   -2.5077 C   0  0  0  0  0  0  0  0  0  0  0  0
    3.9277    3.5664   -1.4119 N   0  0  0  0  0  0  0  0  0  0  0  0
    4.6376    4.1486   -1.0990 H   0  0  0  0  0  0  0  0  0  0  0  0
    2.6990    3.4474   -0.8540 C   0  0  0  0  0  0  0  0  0  0  0  0
    2.1770    4.2494    0.5656 S   0  0  0  0  0  0  0  0  0  0  0  0
    5.7581    1.2269   -5.7640 Cl  0  0  0  0  0  0  0  0  0  0  0  0
    1.2723    0.1885   -3.3132 C   0  0  0  0  0  0  0  0  0  0  0  0
    0.5170   -1.4878   -1.7338 C   0  0  0  0  0  0  0  0  0  0  0  0
    1.4446   -2.5008   -2.3539 C   0  0  0  0  0  0  0  0  0  0  0  0
    0.9997   -3.3186   -3.2755 C   0  0  0  0  0  0  0  0  0  0  0  0
   -0.4681   -3.3428   -3.6164 C   0  0  0  0  0  0  0  0  0  0  0  0
    1.9555   -4.2350   -3.9949 C   0  0  0  0  0  0  0  0  0  0  0  0
    0.1580    1.3708    0.9834 H   0  0  0  0  0  0  0  0  0  0  0  0
    0.6333   -0.3195    0.6914 H   0  0  0  0  0  0  0  0  0  0  0  0
    1.8162    0.9902    0.4599 H   0  0  0  0  0  0  0  0  0  0  0  0
    0.0887    2.4272   -2.5132 H   0  0  0  0  0  0  0  0  0  0  0  0
    0.0361    2.9416   -0.8134 H   0  0  0  0  0  0  0  0  0  0  0  0
    3.2285    0.0569   -5.2135 H   0  0  0  0  0  0  0  0  0  0  0  0
    5.8749    2.9654   -3.5224 H   0  0  0  0  0  0  0  0  0  0  0  0
    1.3856   -0.7278   -3.8926 H   0  0  0  0  0  0  0  0  0  0  0  0
    0.4117    0.7503   -3.6764 H   0  0  0  0  0  0  0  0  0  0  0  0
    0.3943   -1.7088   -0.6735 H   0  0  0  0  0  0  0  0  0  0  0  0
   -0.4530   -1.5325   -2.2289 H   0  0  0  0  0  0  0  0  0  0  0  0
    2.4762   -2.5526   -2.0384 H   0  0  0  0  0  0  0  0  0  0  0  0
   -0.6837   -2.5657   -4.3497 H   0  0  0  0  0  0  0  0  0  0  0  0
   -0.7286   -4.3164   -4.0314 H   0  0  0  0  0  0  0  0  0  0  0  0
   -1.0535   -3.1638   -2.7145 H   0  0  0  0  0  0  0  0  0  0  0  0
    2.4422   -4.8912   -3.2734 H   0  0  0  0  0  0  0  0  0  0  0  0
    1.4066   -4.8358   -4.7200 H   0  0  0  0  0  0  0  0  0  0  0  0
    2.7091   -3.6408   -4.5117 H   0  0  0  0  0  0  0  0  0  0  0  0
    1.1394   -0.1630   -1.8622 N   0  3  2  0  0  0  0  0  0  0  0  0
    2.0806   -0.1985   -1.4534 H   0  0  0  0  0  0  0  0  0  0  0  0
  1  2  1  0  0  0  0
  1 23  1  0  0  0  0
  1 24  1  0  0  0  0
  1 25  1  0  0  0  0
  2  3  1  0  0  0  0
  2  4  1  0  0  0  0
  2 41  1  0  0  0  0
  4  5  1  0  0  0  0
  4 26  1  0  0  0  0
  4 27  1  0  0  0  0
  5 14  1  0  0  0  0
  5  6  1  0  0  0  0
  6 11  2  0  0  0  0
  6  7  1  0  0  0  0
  7  8  2  0  0  0  0
  7 17  1  0  0  0  0
  8  9  1  0  0  0  0
  8 28  1  0  0  0  0
  9 10  2  0  0  0  0
  9 16  1  0  0  0  0
 10 11  1  0  0  0  0
 10 29  1  0  0  0  0
 11 12  1  0  0  0  0
 12 13  1  0  0  0  0
 12 14  1  0  0  0  0
 14 15  2  0  0  0  0
 17 30  1  0  0  0  0
 17 31  1  0  0  0  0
 17 41  1  0  0  0  0
 18 19  1  0  0  0  0
 18 32  1  0  0  0  0
 18 33  1  0  0  0  0
 18 41  1  0  0  0  0
 19 20  2  0  0  0  0
 19 34  1  0  0  0  0
 20 21  1  0  0  0  0
 20 22  1  0  0  0  0
 21 35  1  0  0  0  0
 21 36  1  0  0  0  0
 21 37  1  0  0  0  0
 22 38  1  0  0  0  0
 22 39  1  0  0  0  0
 22 40  1  0  0  0  0
 41 42  1  0  0  0  0
M  CHG  1  41   1
M  END
$$$$
ZINC01626186
  -OEChem-08230709403D

 61 62  0     0  0  0  0  0  0999 V2000
    5.6566    2.5005    2.3249 C   0  0  0  0  0  0  0  0  0  0  0  0
    4.3422    1.7176    2.3332 C   0  0  0  0  0  0  0  0  0  0  0  0
    3.4694    2.1738    1.1623 C   0  0  0  0  0  0  0  0  0  0  0  0
    2.1549    1.3908    1.1706 C   0  0  0  0  0  0  0  0  0  0  0  0
    1.2821    1.8470   -0.0003 C   0  0  0  0  0  0  0  0  0  0  0  0
   -0.0126    1.0758    0.0080 C   0  0  0  0  0  0  0  0  0  0  0  0
   -1.1806    1.7292    0.0170 C   0  0  0  0  0  0  0  0  0  0  0  0
   -1.2008    3.2119    0.0252 C   0  0  0  0  0  0  0  0  0  0  0  0
   -0.7014    3.9071    1.1204 C   0  0  0  0  0  0  0  0  0  0  0  0
   -0.7178    5.3023    1.1220 C   0  0  0  0  0  0  0  0  0  0  0  0
   -1.2481    5.9931    0.0223 C   0  0  0  0  0  0  0  0  0  0  0  0
   -1.7488    5.2874   -1.0636 C   0  0  0  0  0  0  0  0  0  0  0  0
   -1.7266    3.9085   -1.0649 C   0  0  0  0  0  0  0  0  0  0  0  0
   -2.4628    6.2200   -2.5456 Br  0  0  0  0  0  0  0  0  0  0  0  0
   -1.2713    7.3492    0.0196 O   0  0  0  0  0  0  0  0  0  0  0  0
   -2.4339    7.9793    0.5613 C   0  0  0  0  0  0  0  0  0  0  0  0
   -0.1846    6.0473    2.2770 C   0  0  0  0  0  0  0  0  0  0  0  0
   -0.2039    7.2622    2.2777 O   0  0  0  0  0  0  0  0  0  0  0  0
    0.3241    5.3810    3.3320 O   0  0  0  0  0  0  0  0  0  0  0  0
    0.8313    6.1794    4.4336 C   0  0  0  0  0  0  0  0  0  0  0  0
   -2.4546    0.9704    0.0190 C   0  0  0  0  0  0  0  0  0  0  0  0
   -2.7987    0.1883   -1.0774 C   0  0  0  0  0  0  0  0  0  0  0  0
   -3.9961   -0.5279   -1.0696 C   0  0  0  0  0  0  0  0  0  0  0  0
   -4.8492   -0.4449    0.0409 C   0  0  0  0  0  0  0  0  0  0  0  0
   -4.4970    0.3439    1.1279 C   0  0  0  0  0  0  0  0  0  0  0  0
   -3.3104    1.0467    1.1199 C   0  0  0  0  0  0  0  0  0  0  0  0
   -5.6476    0.4544    2.6245 Br  0  0  0  0  0  0  0  0  0  0  0  0
   -6.0168   -1.1349    0.0528 O   0  0  0  0  0  0  0  0  0  0  0  0
   -7.1684   -0.4704   -0.4709 C   0  0  0  0  0  0  0  0  0  0  0  0
   -4.3656   -1.3645   -2.2259 C   0  0  0  0  0  0  0  0  0  0  0  0
   -5.4109   -1.9839   -2.2183 O   0  0  0  0  0  0  0  0  0  0  0  0
   -3.5442   -1.4422   -3.2912 O   0  0  0  0  0  0  0  0  0  0  0  0
   -3.9721   -2.2849   -4.3935 C   0  0  0  0  0  0  0  0  0  0  0  0
    6.1821    2.3183    1.3874 H   0  0  0  0  0  0  0  0  0  0  0  0
    5.4458    3.5655    2.4222 H   0  0  0  0  0  0  0  0  0  0  0  0
    6.2784    2.1755    3.1590 H   0  0  0  0  0  0  0  0  0  0  0  0
    3.8167    1.8998    3.2706 H   0  0  0  0  0  0  0  0  0  0  0  0
    4.5530    0.6526    2.2359 H   0  0  0  0  0  0  0  0  0  0  0  0
    3.9949    1.9916    0.2249 H   0  0  0  0  0  0  0  0  0  0  0  0
    3.2586    3.2388    1.2596 H   0  0  0  0  0  0  0  0  0  0  0  0
    1.6294    1.5730    2.1081 H   0  0  0  0  0  0  0  0  0  0  0  0
    2.3657    0.3258    1.0733 H   0  0  0  0  0  0  0  0  0  0  0  0
    1.8076    1.6648   -0.9377 H   0  0  0  0  0  0  0  0  0  0  0  0
    1.0713    2.9120    0.0970 H   0  0  0  0  0  0  0  0  0  0  0  0
    0.0021   -0.0041    0.0020 H   0  0  0  0  0  0  0  0  0  0  0  0
   -0.2984    3.3691    1.9656 H   0  0  0  0  0  0  0  0  0  0  0  0
   -2.1172    3.3651   -1.9127 H   0  0  0  0  0  0  0  0  0  0  0  0
   -2.5531    7.6864    1.6044 H   0  0  0  0  0  0  0  0  0  0  0  0
   -2.3232    9.0618    0.4982 H   0  0  0  0  0  0  0  0  0  0  0  0
   -3.3121    7.6702   -0.0055 H   0  0  0  0  0  0  0  0  0  0  0  0
    1.6366    6.8213    4.0766 H   0  0  0  0  0  0  0  0  0  0  0  0
    0.0272    6.7953    4.8364 H   0  0  0  0  0  0  0  0  0  0  0  0
    1.2108    5.5209    5.2150 H   0  0  0  0  0  0  0  0  0  0  0  0
   -2.1394    0.1321   -1.9310 H   0  0  0  0  0  0  0  0  0  0  0  0
   -3.0418    1.6582    1.9685 H   0  0  0  0  0  0  0  0  0  0  0  0
   -7.3579    0.4359    0.1043 H   0  0  0  0  0  0  0  0  0  0  0  0
   -6.9937   -0.2086   -1.5144 H   0  0  0  0  0  0  0  0  0  0  0  0
   -8.0322   -1.1317   -0.4019 H   0  0  0  0  0  0  0  0  0  0  0  0
   -4.9224   -1.9194   -4.7825 H   0  0  0  0  0  0  0  0  0  0  0  0
   -3.2217   -2.2584   -5.1836 H   0  0  0  0  0  0  0  0  0  0  0  0
   -4.0934   -3.3094   -4.0418 H   0  0  0  0  0  0  0  0  0  0  0  0
  1  2  1  0  0  0  0
  1 34  1  0  0  0  0
  1 35  1  0  0  0  0
  1 36  1  0  0  0  0
  2  3  1  0  0  0  0
  2 37  1  0  0  0  0
  2 38  1  0  0  0  0
  3  4  1  0  0  0  0
  3 39  1  0  0  0  0
  3 40  1  0  0  0  0
  4  5  1  0  0  0  0
  4 41  1  0  0  0  0
  4 42  1  0  0  0  0
  5  6  1  0  0  0  0
  5 43  1  0  0  0  0
  5 44  1  0  0  0  0
  6  7  2  0  0  0  0
  6 45  1  0  0  0  0
  7  8  1  0  0  0  0
  7 21  1  0  0  0  0
  8 13  2  0  0  0  0
  8  9  1  0  0  0  0
  9 10  2  0  0  0  0
  9 46  1  0  0  0  0
 10 11  1  0  0  0  0
 10 17  1  0  0  0  0
 11 12  2  0  0  0  0
 11 15  1  0  0  0  0
 12 13  1  0  0  0  0
 12 14  1  0  0  0  0
 13 47  1  0  0  0  0
 15 16  1  0  0  0  0
 16 48  1  0  0  0  0
 16 49  1  0  0  0  0
 16 50  1  0  0  0  0
 17 18  2  0  0  0  0
 17 19  1  0  0  0  0
 19 20  1  0  0  0  0
 20 51  1  0  0  0  0
 20 52  1  0  0  0  0
 20 53  1  0  0  0  0
 21 26  2  0  0  0  0
 21 22  1  0  0  0  0
 22 23  2  0  0  0  0
 22 54  1  0  0  0  0
 23 24  1  0  0  0  0
 23 30  1  0  0  0  0
 24 25  2  0  0  0  0
 24 28  1  0  0  0  0
 25 26  1  0  0  0  0
 25 27  1  0  0  0  0
 26 55  1  0  0  0  0
 28 29  1  0  0  0  0
 29 56  1  0  0  0  0
 29 57  1  0  0  0  0
 29 58  1  0  0  0  0
 30 31  2  0  0  0  0
 30 32  1  0  0  0  0
 32 33  1  0  0  0  0
 33 59  1  0  0  0  0
 33 60  1  0  0  0  0
 33 61  1  0  0  0  0
M  END
$$$$
ZINC01905250
  -OEChem-08230709403D

 37 38  0     0  0  0  0  0  0999 V2000
   -0.8567   -2.7432    0.2916 C   0  0  0  0  0  0  0  0  0  0  0  0
   -1.9409   -1.6965    0.2995 C   0  0  0  0  0  0  0  0  0  0  0  0
   -3.2820   -2.0623    0.4924 C   0  0  0  0  0  0  0  0  0  0  0  0
   -3.5809   -3.2331    0.6555 O   0  0  0  0  0  0  0  0  0  0  0  0
   -4.2374   -1.1121    0.4959 N   0  0  0  0  0  0  0  0  0  0  0  0
   -5.1934   -1.3712    0.6332 H   0  0  0  0  0  0  0  0  0  0  0  0
   -3.9167    0.1821    0.3163 C   0  0  0  0  0  0  0  0  0  0  0  0
   -5.1532    1.3662    0.3259 S   0  0  0  0  0  0  0  0  0  0  0  0
   -2.6381    0.5606    0.1349 N   0  0  0  0  0  0  0  0  0  0  0  0
   -1.6319   -0.3760    0.1183 C   0  0  0  0  0  0  0  0  0  0  0  0
    0.0409    0.1203   -0.1268 S   0  0  0  0  0  0  0  0  0  0  0  0
    0.3591    0.8990    1.4215 C   0  0  0  0  0  0  0  0  0  0  0  0
   -0.5866    0.8404    2.4376 C   0  0  0  0  0  0  0  0  0  0  0  0
   -0.3318    1.4473    3.6516 C   0  0  0  0  0  0  0  0  0  0  0  0
    0.8584    2.1222    3.8527 C   0  0  0  0  0  0  0  0  0  0  0  0
    1.7996    2.1873    2.8415 C   0  0  0  0  0  0  0  0  0  0  0  0
    1.5537    1.5778    1.6270 C   0  0  0  0  0  0  0  0  0  0  0  0
   -2.3175    1.9778   -0.0521 C   0  0  0  0  0  0  0  0  0  0  0  0
   -2.0036    2.2180   -1.4254 O   0  0  0  0  0  0  0  0  0  0  0  0
   -3.1488    2.3217   -2.2738 C   0  0  0  0  0  0  0  0  0  0  0  0
   -2.6949    2.5327   -3.7196 C   0  0  0  0  0  0  0  0  0  0  0  0
   -1.9928    1.3733   -4.1724 O   0  0  0  0  0  0  0  0  0  0  0  0
   -0.4796   -2.8834    1.3046 H   0  0  0  0  0  0  0  0  0  0  0  0
   -1.2632   -3.6845   -0.0783 H   0  0  0  0  0  0  0  0  0  0  0  0
   -0.0432   -2.4188   -0.3573 H   0  0  0  0  0  0  0  0  0  0  0  0
   -1.5180    0.3169    2.2797 H   0  0  0  0  0  0  0  0  0  0  0  0
   -1.0646    1.3983    4.4434 H   0  0  0  0  0  0  0  0  0  0  0  0
    1.0533    2.5997    4.8016 H   0  0  0  0  0  0  0  0  0  0  0  0
    2.7280    2.7152    3.0019 H   0  0  0  0  0  0  0  0  0  0  0  0
    2.2890    1.6290    0.8377 H   0  0  0  0  0  0  0  0  0  0  0  0
   -3.1752    2.5856    0.2362 H   0  0  0  0  0  0  0  0  0  0  0  0
   -1.4606    2.2413    0.5679 H   0  0  0  0  0  0  0  0  0  0  0  0
   -3.7347    1.4050   -2.2070 H   0  0  0  0  0  0  0  0  0  0  0  0
   -3.7597    3.1673   -1.9577 H   0  0  0  0  0  0  0  0  0  0  0  0
   -3.5660    2.7003   -4.3531 H   0  0  0  0  0  0  0  0  0  0  0  0
   -2.0361    3.3995   -3.7708 H   0  0  0  0  0  0  0  0  0  0  0  0
   -1.6750    1.4368   -5.0835 H   0  0  0  0  0  0  0  0  0  0  0  0
  1  2  1  0  0  0  0
  1 23  1  0  0  0  0
  1 24  1  0  0  0  0
  1 25  1  0  0  0  0
  2 10  2  0  0  0  0
  2  3  1  0  0  0  0
  3  4  2  0  0  0  0
  3  5  1  0  0  0  0
  5  6  1  0  0  0  0
  5  7  1  0  0  0  0
  7  8  2  0  0  0  0
  7  9  1  0  0  0  0
  9 10  1  0  0  0  0
  9 18  1  0  0  0  0
 10 11  1  0  0  0  0
 11 12  1  0  0  0  0
 12 17  2  0  0  0  0
 12 13  1  0  0  0  0
 13 14  2  0  0  0  0
 13 26  1  0  0  0  0
 14 15  1  0  0  0  0
 14 27  1  0  0  0  0
 15 16  2  0  0  0  0
 15 28  1  0  0  0  0
 16 17  1  0  0  0  0
 16 29  1  0  0  0  0
 17 30  1  0  0  0  0
 18 19  1  0  0  0  0
 18 31  1  0  0  0  0
 18 32  1  0  0  0  0
 19 20  1  0  0  0  0
 20 21  1  0  0  0  0
 20 33  1  0  0  0  0
 20 34  1  0  0  0  0
 21 22  1  0  0  0  0
 21 35  1  0  0  0  0
 21 36  1  0  0  0  0
 22 37  1  0  0  0  0
M  END
$$$$
ZINC02004030
  -OEChem-08230709403D

 43 44  0     0  0  0  0  0  0999 V2000
   -3.1753    0.5502    3.5727 C   0  0  0  0  0  0  0  0  0  0  0  0
   -2.0967    1.2817    2.8160 C   0  0  0  0  0  0  0  0  0  0  0  0
   -1.8613    2.6443    3.0520 C   0  0  0  0  0  0  0  0  0  0  0  0
   -2.5301    3.2489    3.8729 O   0  0  0  0  0  0  0  0  0  0  0  0
   -0.8921    3.2814    2.3660 N   0  0  0  0  0  0  0  0  0  0  0  0
   -0.7260    4.2537    2.5304 H   0  0  0  0  0  0  0  0  0  0  0  0
   -0.1458    2.6212    1.4619 C   0  0  0  0  0  0  0  0  0  0  0  0
    0.7267    3.2146    0.8579 O   0  0  0  0  0  0  0  0  0  0  0  0
   -0.3543    1.3154    1.2121 N   0  0  0  0  0  0  0  0  0  0  0  0
   -1.3326    0.6261    1.8891 C   0  0  0  0  0  0  0  0  0  0  0  0
   -1.5995   -1.0855    1.5668 S   0  0  0  0  0  0  0  0  0  0  0  0
   -2.3028   -0.9859   -0.0980 C   0  0  0  0  0  0  0  0  0  0  0  0
   -3.6782   -0.3190   -0.0315 C   0  0  0  0  0  0  0  0  0  0  0  0
   -4.2728   -0.2348   -1.4387 C   0  0  0  0  0  0  0  0  0  0  0  0
   -4.4167   -1.6441   -2.0167 C   0  0  0  0  0  0  0  0  0  0  0  0
   -3.0413   -2.3110   -2.0832 C   0  0  0  0  0  0  0  0  0  0  0  0
   -2.4468   -2.3952   -0.6760 C   0  0  0  0  0  0  0  0  0  0  0  0
    0.4694    0.6233    0.2178 C   0  0  0  0  0  0  0  0  0  0  0  0
    1.7741    0.3963    0.7547 O   0  0  0  0  0  0  0  0  0  0  0  0
    1.8351   -0.6723    1.7015 C   0  0  0  0  0  0  0  0  0  0  0  0
    3.2453   -0.7528    2.2895 C   0  0  0  0  0  0  0  0  0  0  0  0
    3.5171    0.4328    3.0395 O   0  0  0  0  0  0  0  0  0  0  0  0
   -2.7565    0.1301    4.4872 H   0  0  0  0  0  0  0  0  0  0  0  0
   -3.9765    1.2446    3.8256 H   0  0  0  0  0  0  0  0  0  0  0  0
   -3.5730   -0.2532    2.9527 H   0  0  0  0  0  0  0  0  0  0  0  0
   -1.6440   -0.3970   -0.7361 H   0  0  0  0  0  0  0  0  0  0  0  0
   -4.3371   -0.9079    0.6067 H   0  0  0  0  0  0  0  0  0  0  0  0
   -3.5757    0.6850    0.3803 H   0  0  0  0  0  0  0  0  0  0  0  0
   -3.6139    0.3541   -2.0769 H   0  0  0  0  0  0  0  0  0  0  0  0
   -5.2526    0.2403   -1.3914 H   0  0  0  0  0  0  0  0  0  0  0  0
   -4.8403   -1.5841   -3.0193 H   0  0  0  0  0  0  0  0  0  0  0  0
   -5.0756   -2.2329   -1.3786 H   0  0  0  0  0  0  0  0  0  0  0  0
   -2.3825   -1.7221   -2.7214 H   0  0  0  0  0  0  0  0  0  0  0  0
   -3.1439   -3.3150   -2.4950 H   0  0  0  0  0  0  0  0  0  0  0  0
   -1.4669   -2.8703   -0.7233 H   0  0  0  0  0  0  0  0  0  0  0  0
   -3.1057   -2.9841   -0.0378 H   0  0  0  0  0  0  0  0  0  0  0  0
    0.5476    1.2367   -0.6798 H   0  0  0  0  0  0  0  0  0  0  0  0
    0.0089   -0.3320   -0.0341 H   0  0  0  0  0  0  0  0  0  0  0  0
    1.1177   -0.4902    2.5017 H   0  0  0  0  0  0  0  0  0  0  0  0
    1.5944   -1.6121    1.2047 H   0  0  0  0  0  0  0  0  0  0  0  0
    3.3169   -1.6214    2.9442 H   0  0  0  0  0  0  0  0  0  0  0  0
    3.9710   -0.8460    1.4816 H   0  0  0  0  0  0  0  0  0  0  0  0
    4.3961    0.4506    3.4421 H   0  0  0  0  0  0  0  0  0  0  0  0
  1  2  1  0  0  0  0
  1 23  1  0  0  0  0
  1 24  1  0  0  0  0
  1 25  1  0  0  0  0
  2 10  2  0  0  0  0
  2  3  1  0  0  0  0
  3  4  2  0  0  0  0
  3  5  1  0  0  0  0
  5  6  1  0  0  0  0
  5  7  1  0  0  0  0
  7  8  2  0  0  0  0
  7  9  1  0  0  0  0
  9 10  1  0  0  0  0
  9 18  1  0  0  0  0
 10 11  1  0  0  0  0
 11 12  1  0  0  0  0
 12 17  1  0  0  0  0
 12 13  1  0  0  0  0
 12 26  1  0  0  0  0
 13 14  1  0  0  0  0
 13 27  1  0  0  0  0
 13 28  1  0  0  0  0
 14 15  1  0  0  0  0
 14 29  1  0  0  0  0
 14 30  1  0  0  0  0
 15 16  1  0  0  0  0
 15 31  1  0  0  0  0
 15 32  1  0  0  0  0
 16 17  1  0  0  0  0
 16 33  1  0  0  0  0
 16 34  1  0  0  0  0
 17 35  1  0  0  0  0
 17 36  1  0  0  0  0
 18 19  1  0  0  0  0
 18 37  1  0  0  0  0
 18 38  1  0  0  0  0
 19 20  1  0  0  0  0
 20 21  1  0  0  0  0
 20 39  1  0  0  0  0
 20 40  1  0  0  0  0
 21 22  1  0  0  0  0
 21 41  1  0  0  0  0
 21 42  1  0  0  0  0
 22 43  1  0  0  0  0
M  END
$$$$
ZINC02020188
  -OEChem-08230709403D

 32 35  0     1  0  0  0  0  0999 V2000
    3.6030    5.5027    3.7809 C   0  0  0  0  0  0  0  0  0  0  0  0
    3.0385    6.2507    2.7647 C   0  0  0  0  0  0  0  0  0  0  0  0
    2.7076    5.6485    1.5652 C   0  0  0  0  0  0  0  0  0  0  0  0
    2.9415    4.2985    1.3818 C   0  0  0  0  0  0  0  0  0  0  0  0
    3.5012    3.5495    2.3999 C   0  0  0  0  0  0  0  0  0  0  0  0
    3.8362    4.1525    3.5979 C   0  0  0  0  0  0  0  0  0  0  0  0
    2.5808    3.6421    0.0741 C   0  0  2  0  0  0  0  0  0  0  0  0
    1.1511    3.1890    0.0277 C   0  0  0  0  0  0  0  0  0  0  0  0
   -0.0558    3.8506    0.0321 C   0  0  0  0  0  0  0  0  0  0  0  0
   -1.2399    3.1336    0.0292 C   0  0  0  0  0  0  0  0  0  0  0  0
   -1.2158    1.7500    0.0173 C   0  0  0  0  0  0  0  0  0  0  0  0
   -0.0126    1.0758    0.0080 C   0  0  0  0  0  0  0  0  0  0  0  0
    1.1858    1.7908    0.0004 C   0  0  0  0  0  0  0  0  0  0  0  0
    2.5984    1.3641   -0.0382 C   0  0  0  0  0  0  0  0  0  0  0  0
    2.9828    0.2166    0.0755 O   0  0  0  0  0  0  0  0  0  0  0  0
    3.3975    2.4298   -0.2170 N   0  0  0  0  0  0  0  0  0  0  0  0
    4.7381    2.8428   -0.6644 C   0  0  0  0  0  0  0  0  0  0  0  0
    4.6049    3.8781   -1.8173 C   0  0  0  0  0  0  0  0  0  0  0  0
    2.9908    4.6667   -1.3972 S   0  0  0  0  0  0  0  0  0  0  0  0
    3.8622    5.9733    4.7178 H   0  0  0  0  0  0  0  0  0  0  0  0
    2.8563    7.3055    2.9077 H   0  0  0  0  0  0  0  0  0  0  0  0
    2.2665    6.2329    0.7712 H   0  0  0  0  0  0  0  0  0  0  0  0
    3.6800    2.4938    2.2582 H   0  0  0  0  0  0  0  0  0  0  0  0
    4.2775    3.5683    4.3917 H   0  0  0  0  0  0  0  0  0  0  0  0
   -0.0789    4.9304    0.0375 H   0  0  0  0  0  0  0  0  0  0  0  0
   -2.1854    3.6556    0.0324 H   0  0  0  0  0  0  0  0  0  0  0  0
   -2.1428    1.1959    0.0191 H   0  0  0  0  0  0  0  0  0  0  0  0
    0.0021   -0.0041    0.0020 H   0  0  0  0  0  0  0  0  0  0  0  0
    5.2762    3.2943    0.1690 H   0  0  0  0  0  0  0  0  0  0  0  0
    5.2868    1.9709   -1.0206 H   0  0  0  0  0  0  0  0  0  0  0  0
    5.4166    4.6051   -1.7879 H   0  0  0  0  0  0  0  0  0  0  0  0
    4.5599    3.3824   -2.7870 H   0  0  0  0  0  0  0  0  0  0  0  0
  1  6  2  0  0  0  0
  1  2  1  0  0  0  0
  1 20  1  0  0  0  0
  2  3  2  0  0  0  0
  2 21  1  0  0  0  0
  3  4  1  0  0  0  0
  3 22  1  0  0  0  0
  4  5  2  0  0  0  0
  4  7  1  0  0  0  0
  5  6  1  0  0  0  0
  5 23  1  0  0  0  0
  6 24  1  0  0  0  0
  7 16  1  0  0  0  0
  7 19  1  0  0  0  0
  7  8  1  0  0  0  0
  8 13  2  0  0  0  0
  8  9  1  0  0  0  0
  9 10  2  0  0  0  0
  9 25  1  0  0  0  0
 10 11  1  0  0  0  0
 10 26  1  0  0  0  0
 11 12  2  0  0  0  0
 11 27  1  0  0  0  0
 12 13  1  0  0  0  0
 12 28  1  0  0  0  0
 13 14  1  0  0  0  0
 14 15  2  0  0  0  0
 14 16  1  0  0  0  0
 16 17  1  0  0  0  0
 17 18  1  0  0  0  0
 17 29  1  0  0  0  0
 17 30  1  0  0  0  0
 18 19  1  0  0  0  0
 18 31  1  0  0  0  0
 18 32  1  0  0  0  0
M  END
$$$$
ZINC03580965
  -OEChem-08230709403D

 51 53  0     0  0  0  0  0  0999 V2000
    0.9985    1.1636    0.0545 C   0  0  0  0  0  0  0  0  0  0  0  0
    0.0437    1.4550    1.2139 C   0  0  0  0  0  0  0  0  0  0  0  0
   -1.1982    0.5704    1.0865 C   0  0  0  0  0  0  0  0  0  0  0  0
   -0.3661    2.9047    1.1750 C   0  0  0  0  0  0  0  0  0  0  0  0
   -0.1386    3.7086    2.2357 C   0  0  0  0  0  0  0  0  0  0  0  0
   -0.5120    5.0239    2.1815 N   0  0  0  0  0  0  0  0  0  0  0  0
   -1.1137    5.5208    1.0855 C   0  0  0  0  0  0  0  0  0  0  0  0
   -1.4413    6.6914    1.0603 O   0  0  0  0  0  0  0  0  0  0  0  0
   -1.3575    4.7405    0.0162 N   0  0  0  0  0  0  0  0  0  0  0  0
   -1.8056    5.1265   -0.7902 H   0  0  0  0  0  0  0  0  0  0  0  0
   -0.9999    3.4404    0.0280 C   0  0  0  0  0  0  0  0  0  0  0  0
   -1.2198    2.7337   -0.9391 O   0  0  0  0  0  0  0  0  0  0  0  0
   -0.2598    5.8977    3.3299 C   0  0  0  0  0  0  0  0  0  0  0  0
   -1.4864    6.1419    4.0212 O   0  0  0  0  0  0  0  0  0  0  0  0
   -1.8847    5.0804    4.8909 C   0  0  0  0  0  0  0  0  0  0  0  0
   -3.1835    5.4429    5.5639 C   0  0  0  0  0  0  0  0  0  0  0  0
   -3.1719    6.1121    6.7735 C   0  0  0  0  0  0  0  0  0  0  0  0
   -4.3632    6.4489    7.3884 C   0  0  0  0  0  0  0  0  0  0  0  0
   -5.5660    6.1077    6.7989 C   0  0  0  0  0  0  0  0  0  0  0  0
   -5.5776    5.4334    5.5921 C   0  0  0  0  0  0  0  0  0  0  0  0
   -4.3863    5.1013    4.9746 C   0  0  0  0  0  0  0  0  0  0  0  0
    0.5289    3.1614    3.4710 C   0  0  0  0  0  0  0  0  0  0  0  0
    2.0235    3.3016    3.3383 C   0  0  0  0  0  0  0  0  0  0  0  0
    2.7638    2.2891    2.7572 C   0  0  0  0  0  0  0  0  0  0  0  0
    4.1342    2.4199    2.6311 C   0  0  0  0  0  0  0  0  0  0  0  0
    4.7655    3.5587    3.0952 C   0  0  0  0  0  0  0  0  0  0  0  0
    4.0258    4.5687    3.6816 C   0  0  0  0  0  0  0  0  0  0  0  0
    2.6548    4.4402    3.8029 C   0  0  0  0  0  0  0  0  0  0  0  0
    1.2949    0.1150    0.0826 H   0  0  0  0  0  0  0  0  0  0  0  0
    1.8832    1.7938    0.1453 H   0  0  0  0  0  0  0  0  0  0  0  0
    0.4977    1.3743   -0.8904 H   0  0  0  0  0  0  0  0  0  0  0  0
    0.5445    1.2442    2.1588 H   0  0  0  0  0  0  0  0  0  0  0  0
   -0.9018   -0.4782    1.1147 H   0  0  0  0  0  0  0  0  0  0  0  0
   -1.8784    0.7780    1.9125 H   0  0  0  0  0  0  0  0  0  0  0  0
   -1.6990    0.7812    0.1416 H   0  0  0  0  0  0  0  0  0  0  0  0
    0.4478    5.4159    4.0047 H   0  0  0  0  0  0  0  0  0  0  0  0
    0.1560    6.8435    2.9825 H   0  0  0  0  0  0  0  0  0  0  0  0
   -2.0184    4.1668    4.3116 H   0  0  0  0  0  0  0  0  0  0  0  0
   -1.1156    4.9220    5.6468 H   0  0  0  0  0  0  0  0  0  0  0  0
   -2.2321    6.3751    7.2361 H   0  0  0  0  0  0  0  0  0  0  0  0
   -4.3542    6.9754    8.3314 H   0  0  0  0  0  0  0  0  0  0  0  0
   -6.4967    6.3675    7.2812 H   0  0  0  0  0  0  0  0  0  0  0  0
   -6.5173    5.1665    5.1317 H   0  0  0  0  0  0  0  0  0  0  0  0
   -4.3953    4.5745    4.0318 H   0  0  0  0  0  0  0  0  0  0  0  0
    0.1880    3.7170    4.3446 H   0  0  0  0  0  0  0  0  0  0  0  0
    0.2716    2.1086    3.5869 H   0  0  0  0  0  0  0  0  0  0  0  0
    2.2711    1.3976    2.3983 H   0  0  0  0  0  0  0  0  0  0  0  0
    4.7121    1.6306    2.1734 H   0  0  0  0  0  0  0  0  0  0  0  0
    5.8366    3.6592    3.0001 H   0  0  0  0  0  0  0  0  0  0  0  0
    4.5191    5.4583    4.0445 H   0  0  0  0  0  0  0  0  0  0  0  0
    2.0770    5.2293    4.2610 H   0  0  0  0  0  0  0  0  0  0  0  0
  1  2  1  0  0  0  0
  1 29  1  0  0  0  0
  1 30  1  0  0  0  0
  1 31  1  0  0  0  0
  2  3  1  0  0  0  0
  2  4  1  0  0  0  0
  2 32  1  0  0  0  0
  3 33  1  0  0  0  0
  3 34  1  0  0  0  0
  3 35  1  0  0  0  0
  4 11  1  0  0  0  0
  4  5  2  0  0  0  0
  5  6  1  0  0  0  0
  5 22  1  0  0  0  0
  6  7  1  0  0  0  0
  6 13  1  0  0  0  0
  7  8  2  0  0  0  0
  7  9  1  0  0  0  0
  9 10  1  0  0  0  0
  9 11  1  0  0  0  0
 11 12  2  0  0  0  0
 13 14  1  0  0  0  0
 13 36  1  0  0  0  0
 13 37  1  0  0  0  0
 14 15  1  0  0  0  0
 15 16  1  0  0  0  0
 15 38  1  0  0  0  0
 15 39  1  0  0  0  0
 16 21  2  0  0  0  0
 16 17  1  0  0  0  0
 17 18  2  0  0  0  0
 17 40  1  0  0  0  0
 18 19  1  0  0  0  0
 18 41  1  0  0  0  0
 19 20  2  0  0  0  0
 19 42  1  0  0  0  0
 20 21  1  0  0  0  0
 20 43  1  0  0  0  0
 21 44  1  0  0  0  0
 22 23  1  0  0  0  0
 22 45  1  0  0  0  0
 22 46  1  0  0  0  0
 23 28  2  0  0  0  0
 23 24  1  0  0  0  0
 24 25  2  0  0  0  0
 24 47  1  0  0  0  0
 25 26  1  0  0  0  0
 25 48  1  0  0  0  0
 26 27  2  0  0  0  0
 26 49  1  0  0  0  0
 27 28  1  0  0  0  0
 27 50  1  0  0  0  0
 28 51  1  0  0  0  0
M  END
$$$$
ZINC03797553
  -OEChem-08230709403D

 36 38  0     1  0  0  0  0  0999 V2000
   -2.3990    6.3501   -0.6232 C   0  0  0  0  0  0  0  0  0  0  0  0
   -1.2954    5.3730   -0.2132 C   0  0  1  0  0  0  0  0  0  0  0  0
   -1.3485    5.2211    0.8649 H   0  0  0  0  0  0  0  0  0  0  0  0
   -1.5369    4.0544   -0.9001 C   0  0  0  0  0  0  0  0  0  0  0  0
   -0.7532    2.9907   -0.2750 N   0  0  0  0  0  0  0  0  0  0  0  0
    0.6455    3.1154   -0.0776 C   0  0  0  0  0  0  0  0  0  0  0  0
    1.4966    4.1604    0.1682 C   0  0  0  0  0  0  0  0  0  0  0  0
    2.8630    3.8994    0.2672 C   0  0  0  0  0  0  0  0  0  0  0  0
    3.3444    2.6090    0.1733 C   0  0  0  0  0  0  0  0  0  0  0  0
    2.4697    1.5479    0.0473 C   0  0  0  0  0  0  0  0  0  0  0  0
    1.1057    1.7979    0.0012 C   0  0  0  0  0  0  0  0  0  0  0  0
   -0.0111    0.9658    0.0074 N   0  0  0  0  0  0  0  0  0  0  0  0
    0.0021   -0.0041    0.0020 H   0  0  0  0  0  0  0  0  0  0  0  0
   -1.1147    1.7424    0.0162 C   0  0  0  0  0  0  0  0  0  0  0  0
   -2.2479    1.3671    0.2523 O   0  0  0  0  0  0  0  0  0  0  0  0
    1.0880    5.6074    0.3252 C   0  0  0  0  0  0  0  0  0  0  0  0
   -0.1368    7.4080   -0.6940 C   0  0  0  0  0  0  0  0  0  0  0  0
    1.1476    7.9497   -1.2665 C   0  0  0  0  0  0  0  0  0  0  0  0
    1.1251    8.6669   -2.3625 C   0  0  0  0  0  0  0  0  0  0  0  0
   -3.3680    5.9498   -0.3250 H   0  0  0  0  0  0  0  0  0  0  0  0
   -2.2357    7.3095   -0.1323 H   0  0  0  0  0  0  0  0  0  0  0  0
   -2.3797    6.4873   -1.7044 H   0  0  0  0  0  0  0  0  0  0  0  0
   -1.2533    4.1395   -1.9491 H   0  0  0  0  0  0  0  0  0  0  0  0
   -2.5960    3.8050   -0.8349 H   0  0  0  0  0  0  0  0  0  0  0  0
    3.5528    4.7165    0.4188 H   0  0  0  0  0  0  0  0  0  0  0  0
    4.4089    2.4287    0.1991 H   0  0  0  0  0  0  0  0  0  0  0  0
    2.8426    0.5362   -0.0148 H   0  0  0  0  0  0  0  0  0  0  0  0
    1.9371    6.2445    0.0776 H   0  0  0  0  0  0  0  0  0  0  0  0
    0.8040    5.7851    1.3624 H   0  0  0  0  0  0  0  0  0  0  0  0
   -0.9610    7.6377   -1.3693 H   0  0  0  0  0  0  0  0  0  0  0  0
   -0.3240    7.8670    0.2769 H   0  0  0  0  0  0  0  0  0  0  0  0
    2.0867    7.7467   -0.7732 H   0  0  0  0  0  0  0  0  0  0  0  0
    2.0457    9.0551   -2.7728 H   0  0  0  0  0  0  0  0  0  0  0  0
    0.1861    8.8700   -2.8558 H   0  0  0  0  0  0  0  0  0  0  0  0
   -0.0111    5.9630   -0.6105 N   0  3  2  0  0  0  0  0  0  0  0  0
    0.2315    5.6014   -1.5403 H   0  0  0  0  0  0  0  0  0  0  0  0
  1  2  1  0  0  0  0
  1 20  1  0  0  0  0
  1 21  1  0  0  0  0
  1 22  1  0  0  0  0
  2  3  1  0  0  0  0
  2  4  1  0  0  0  0
  2 35  1  0  0  0  0
  4  5  1  0  0  0  0
  4 23  1  0  0  0  0
  4 24  1  0  0  0  0
  5 14  1  0  0  0  0
  5  6  1  0  0  0  0
  6 11  2  0  0  0  0
  6  7  1  0  0  0  0
  7  8  2  0  0  0  0
  7 16  1  0  0  0  0
  8  9  1  0  0  0  0
  8 25  1  0  0  0  0
  9 10  2  0  0  0  0
  9 26  1  0  0  0  0
 10 11  1  0  0  0  0
 10 27  1  0  0  0  0
 11 12  1  0  0  0  0
 12 13  1  0  0  0  0
 12 14  1  0  0  0  0
 14 15  2  0  0  0  0
 16 28  1  0  0  0  0
 16 29  1  0  0  0  0
 16 35  1  0  0  0  0
 17 18  1  0  0  0  0
 17 30  1  0  0  0  0
 17 31  1  0  0  0  0
 17 35  1  0  0  0  0
 18 19  2  0  0  0  0
 18 32  1  0  0  0  0
 19 33  1  0  0  0  0
 19 34  1  0  0  0  0
 35 36  1  0  0  0  0
M  CHG  1  35   1
M  END
$$$$
ZINC03832001
  -OEChem-08230709403D

 39 40  0     1  0  0  0  0  0999 V2000
    1.5213    4.9702   -0.9989 C   0  0  0  0  0  0  0  0  0  0  0  0
    0.5420    3.8540   -0.7419 C   0  0  0  0  0  0  0  0  0  0  0  0
    0.9598    2.5352   -0.8416 C   0  0  0  0  0  0  0  0  0  0  0  0
    0.0764    1.5056   -0.6101 C   0  0  0  0  0  0  0  0  0  0  0  0
   -1.2540    1.7889   -0.2763 C   0  0  0  0  0  0  0  0  0  0  0  0
   -1.6722    3.1278   -0.1715 C   0  0  0  0  0  0  0  0  0  0  0  0
   -0.7632    4.1515   -0.4095 C   0  0  0  0  0  0  0  0  0  0  0  0
   -2.9853    3.4244    0.1624 N   0  0  0  0  0  0  0  0  0  0  0  0
   -3.3863    4.8144    0.3932 C   0  0  2  0  0  0  0  0  0  0  0  0
   -2.6261    5.3175    0.9907 H   0  0  0  0  0  0  0  0  0  0  0  0
   -4.7021    4.8423    1.1274 C   0  0  0  0  0  0  0  0  0  0  0  0
   -5.7669    4.0889    0.6677 C   0  0  0  0  0  0  0  0  0  0  0  0
   -6.9729    4.1107    1.3450 C   0  0  0  0  0  0  0  0  0  0  0  0
   -7.1170    4.8934    2.4751 C   0  0  0  0  0  0  0  0  0  0  0  0
   -6.0547    5.6509    2.9317 C   0  0  0  0  0  0  0  0  0  0  0  0
   -4.8468    5.6256    2.2581 C   0  0  0  0  0  0  0  0  0  0  0  0
   -3.3935    6.6615    2.8832 Br  0  0  0  0  0  0  0  0  0  0  0  0
   -5.5723    3.0240   -0.8829 Br  0  0  0  0  0  0  0  0  0  0  0  0
   -3.5343    5.5208   -0.9297 C   0  0  0  0  0  0  0  0  0  0  0  0
   -3.3253    4.9221   -1.9636 O   0  0  0  0  0  0  0  0  0  0  0  0
   -3.8988    6.8178   -0.9640 N   0  0  0  0  0  0  0  0  0  0  0  0
   -2.2031    0.6975   -0.0339 C   0  0  0  0  0  0  0  0  0  0  0  0
   -3.3754    0.9443    0.1569 O   0  0  0  0  0  0  0  0  0  0  0  0
   -1.7221   -0.7306   -0.0217 C   0  0  0  0  0  0  0  0  0  0  0  0
    1.5024    5.2339   -2.0564 H   0  0  0  0  0  0  0  0  0  0  0  0
    1.2456    5.8400   -0.4026 H   0  0  0  0  0  0  0  0  0  0  0  0
    2.5244    4.6442   -0.7237 H   0  0  0  0  0  0  0  0  0  0  0  0
    1.9843    2.3150   -1.1029 H   0  0  0  0  0  0  0  0  0  0  0  0
    0.4075    0.4807   -0.6901 H   0  0  0  0  0  0  0  0  0  0  0  0
   -1.0792    5.1815   -0.3346 H   0  0  0  0  0  0  0  0  0  0  0  0
   -3.6381    2.7114    0.2431 H   0  0  0  0  0  0  0  0  0  0  0  0
   -7.8031    3.5190    0.9886 H   0  0  0  0  0  0  0  0  0  0  0  0
   -8.0599    4.9134    3.0014 H   0  0  0  0  0  0  0  0  0  0  0  0
   -6.1678    6.2623    3.8148 H   0  0  0  0  0  0  0  0  0  0  0  0
   -4.0660    7.2967   -0.1372 H   0  0  0  0  0  0  0  0  0  0  0  0
   -3.9940    7.2725   -1.8156 H   0  0  0  0  0  0  0  0  0  0  0  0
   -1.4517   -0.9833    0.9073 H   0  0  0  0  0  0  0  0  0  0  0  0
   -2.5246   -1.3872   -0.3579 H   0  0  0  0  0  0  0  0  0  0  0  0
   -0.8664   -0.8315   -0.6894 H   0  0  0  0  0  0  0  0  0  0  0  0
  1  2  1  0  0  0  0
  1 25  1  0  0  0  0
  1 26  1  0  0  0  0
  1 27  1  0  0  0  0
  2  7  2  0  0  0  0
  2  3  1  0  0  0  0
  3  4  2  0  0  0  0
  3 28  1  0  0  0  0
  4  5  1  0  0  0  0
  4 29  1  0  0  0  0
  5  6  2  0  0  0  0
  5 22  1  0  0  0  0
  6  7  1  0  0  0  0
  6  8  1  0  0  0  0
  7 30  1  0  0  0  0
  8  9  1  0  0  0  0
  8 31  1  0  0  0  0
  9 10  1  0  0  0  0
  9 11  1  0  0  0  0
  9 19  1  0  0  0  0
 11 16  2  0  0  0  0
 11 12  1  0  0  0  0
 12 13  2  0  0  0  0
 12 18  1  0  0  0  0
 13 14  1  0  0  0  0
 13 32  1  0  0  0  0
 14 15  2  0  0  0  0
 14 33  1  0  0  0  0
 15 16  1  0  0  0  0
 15 34  1  0  0  0  0
 16 17  1  0  0  0  0
 19 20  2  0  0  0  0
 19 21  1  0  0  0  0
 21 35  1  0  0  0  0
 21 36  1  0  0  0  0
 22 23  2  0  0  0  0
 22 24  1  0  0  0  0
 24 37  1  0  0  0  0
 24 38  1  0  0  0  0
 24 39  1  0  0  0  0
M  END
$$$$
ZINC03832004
  -OEChem-08230709403D

 36 38  0     0  0  0  0  0  0999 V2000
   -2.1844    6.2346    0.5797 C   0  0  0  0  0  0  0  0  0  0  0  0
   -2.7305    4.8562    0.9574 C   0  0  0  0  0  0  0  0  0  0  0  0
   -2.3798    3.8893   -0.0860 N   0  0  0  0  0  0  0  0  0  0  0  0
   -3.2406    3.6709   -1.1686 C   0  0  0  0  0  0  0  0  0  0  0  0
   -3.5166    4.7240   -2.0316 C   0  0  0  0  0  0  0  0  0  0  0  0
   -4.3325    4.5265   -3.1293 C   0  0  0  0  0  0  0  0  0  0  0  0
   -4.8744    3.2784   -3.3727 C   0  0  0  0  0  0  0  0  0  0  0  0
   -4.6156    2.2299   -2.5110 C   0  0  0  0  0  0  0  0  0  0  0  0
   -3.8111    2.4243   -1.3937 C   0  0  0  0  0  0  0  0  0  0  0  0
   -3.6166    1.3645   -0.5078 N   0  0  0  0  0  0  0  0  0  0  0  0
   -2.4920    1.0475    0.1153 C   0  0  0  0  0  0  0  0  0  0  0  0
   -2.5137    0.0634    0.8289 O   0  0  0  0  0  0  0  0  0  0  0  0
   -1.2242    1.7758    0.0174 C   0  0  0  0  0  0  0  0  0  0  0  0
   -1.1933    3.1797   -0.0139 C   0  0  0  0  0  0  0  0  0  0  0  0
   -0.0363    3.8236   -0.0005 N   0  0  0  0  0  0  0  0  0  0  0  0
    1.1164    3.1826    0.0083 C   0  0  0  0  0  0  0  0  0  0  0  0
    1.1668    1.8007    0.0006 C   0  0  0  0  0  0  0  0  0  0  0  0
   -0.0126    1.0758    0.0080 C   0  0  0  0  0  0  0  0  0  0  0  0
   -4.7778    0.5127   -0.2391 C   0  0  0  0  0  0  0  0  0  0  0  0
   -4.6271    5.6522   -4.0443 N   0  3  0  0  0  0  0  0  0  0  0  0
   -5.3469    5.4786   -5.0114 O   0  0  0  0  0  0  0  0  0  0  0  0
   -4.1498    6.7521   -3.8300 O   0  5  0  0  0  0  0  0  0  0  0  0
   -2.4453    6.9539    1.3559 H   0  0  0  0  0  0  0  0  0  0  0  0
   -1.1000    6.1818    0.4829 H   0  0  0  0  0  0  0  0  0  0  0  0
   -2.6189    6.5501   -0.3689 H   0  0  0  0  0  0  0  0  0  0  0  0
   -3.8149    4.9090    1.0541 H   0  0  0  0  0  0  0  0  0  0  0  0
   -2.2960    4.5407    1.9059 H   0  0  0  0  0  0  0  0  0  0  0  0
   -3.0924    5.6994   -1.8441 H   0  0  0  0  0  0  0  0  0  0  0  0
   -5.5010    3.1224   -4.2384 H   0  0  0  0  0  0  0  0  0  0  0  0
   -5.0399    1.2560   -2.7058 H   0  0  0  0  0  0  0  0  0  0  0  0
    2.0371    3.7469    0.0222 H   0  0  0  0  0  0  0  0  0  0  0  0
    2.1189    1.2909   -0.0114 H   0  0  0  0  0  0  0  0  0  0  0  0
    0.0021   -0.0041    0.0020 H   0  0  0  0  0  0  0  0  0  0  0  0
   -4.8017   -0.3065   -0.9577 H   0  0  0  0  0  0  0  0  0  0  0  0
   -4.7059    0.1083    0.7706 H   0  0  0  0  0  0  0  0  0  0  0  0
   -5.6899    1.1025   -0.3301 H   0  0  0  0  0  0  0  0  0  0  0  0
  1  2  1  0  0  0  0
  1 23  1  0  0  0  0
  1 24  1  0  0  0  0
  1 25  1  0  0  0  0
  2  3  1  0  0  0  0
  2 26  1  0  0  0  0
  2 27  1  0  0  0  0
  3 14  1  0  0  0  0
  3  4  1  0  0  0  0
  4  9  2  0  0  0  0
  4  5  1  0  0  0  0
  5  6  2  0  0  0  0
  5 28  1  0  0  0  0
  6  7  1  0  0  0  0
  6 20  1  0  0  0  0
  7  8  2  0  0  0  0
  7 29  1  0  0  0  0
  8  9  1  0  0  0  0
  8 30  1  0  0  0  0
  9 10  1  0  0  0  0
 10 11  1  0  0  0  0
 10 19  1  0  0  0  0
 11 12  2  0  0  0  0
 11 13  1  0  0  0  0
 13 18  2  0  0  0  0
 13 14  1  0  0  0  0
 14 15  2  0  0  0  0
 15 16  1  0  0  0  0
 16 17  2  0  0  0  0
 16 31  1  0  0  0  0
 17 18  1  0  0  0  0
 17 32  1  0  0  0  0
 18 33  1  0  0  0  0
 19 34  1  0  0  0  0
 19 35  1  0  0  0  0
 19 36  1  0  0  0  0
 20 21  2  0  0  0  0
 20 22  1  0  0  0  0
M  CHG  2  20   1  22  -1
M  END
$$$$
ZINC03832005
  -OEChem-08230709403D

 33 34  0     0  0  0  0  0  0999 V2000
   -1.2575    3.3785    0.0334 C   0  0  0  0  0  0  0  0  0  0  0  0
   -0.0730    4.0905    0.0284 C   0  0  0  0  0  0  0  0  0  0  0  0
    1.1385    3.4199    0.0134 C   0  0  0  0  0  0  0  0  0  0  0  0
    1.1628    2.0359    0.0033 C   0  0  0  0  0  0  0  0  0  0  0  0
   -0.0242    1.3239    0.0083 C   0  0  0  0  0  0  0  0  0  0  0  0
   -1.2345    1.9966    0.0180 C   0  0  0  0  0  0  0  0  0  0  0  0
   -0.0020   -0.0269   -0.0020 F   0  0  0  0  0  0  0  0  0  0  0  0
    2.4805    1.3050   -0.0136 C   0  0  0  0  0  0  0  0  0  0  0  0
    2.9140    1.0684   -1.4617 C   0  0  0  0  0  0  0  0  0  0  0  0
    4.1950    0.3578   -1.4781 N   0  0  0  0  0  0  0  0  0  0  0  0
    4.7741    0.0396   -2.6528 C   0  0  0  0  0  0  0  0  0  0  0  0
    4.0128    0.4659   -4.1257 S   0  0  0  0  0  0  0  0  0  0  0  0
    5.9526   -0.6141   -2.6678 N   0  0  0  0  0  0  0  0  0  0  0  0
    6.4982   -1.0393   -3.8778 C   0  0  0  0  0  0  0  0  0  0  0  0
    7.6579   -1.8066   -3.8785 C   0  0  0  0  0  0  0  0  0  0  0  0
    8.1863   -2.2266   -5.0861 C   0  0  0  0  0  0  0  0  0  0  0  0
    7.5396   -1.8538   -6.2578 C   0  0  0  0  0  0  0  0  0  0  0  0
    6.3941   -1.0853   -6.1826 C   0  0  0  0  0  0  0  0  0  0  0  0
    5.9107   -0.7043   -5.0155 N   0  0  0  0  0  0  0  0  0  0  0  0
    8.2197   -2.3933   -7.9377 Br  0  0  0  0  0  0  0  0  0  0  0  0
    2.2962    4.1161    0.0081 F   0  0  0  0  0  0  0  0  0  0  0  0
   -2.2019    3.9023    0.0451 H   0  0  0  0  0  0  0  0  0  0  0  0
   -0.0922    5.1703    0.0359 H   0  0  0  0  0  0  0  0  0  0  0  0
   -2.1608    1.4413    0.0178 H   0  0  0  0  0  0  0  0  0  0  0  0
    3.2344    1.9032    0.4982 H   0  0  0  0  0  0  0  0  0  0  0  0
    2.3709    0.3467    0.4941 H   0  0  0  0  0  0  0  0  0  0  0  0
    2.1601    0.4702   -1.9735 H   0  0  0  0  0  0  0  0  0  0  0  0
    3.0235    2.0267   -1.9694 H   0  0  0  0  0  0  0  0  0  0  0  0
    4.6264    0.1163   -0.6435 H   0  0  0  0  0  0  0  0  0  0  0  0
    6.4211   -0.7887   -1.8366 H   0  0  0  0  0  0  0  0  0  0  0  0
    8.1372   -2.0749   -2.9486 H   0  0  0  0  0  0  0  0  0  0  0  0
    9.0834   -2.8271   -5.1174 H   0  0  0  0  0  0  0  0  0  0  0  0
    5.8877   -0.7929   -7.0905 H   0  0  0  0  0  0  0  0  0  0  0  0
  1  6  2  0  0  0  0
  1  2  1  0  0  0  0
  1 22  1  0  0  0  0
  2  3  2  0  0  0  0
  2 23  1  0  0  0  0
  3  4  1  0  0  0  0
  3 21  1  0  0  0  0
  4  5  2  0  0  0  0
  4  8  1  0  0  0  0
  5  6  1  0  0  0  0
  5  7  1  0  0  0  0
  6 24  1  0  0  0  0
  8  9  1  0  0  0  0
  8 25  1  0  0  0  0
  8 26  1  0  0  0  0
  9 10  1  0  0  0  0
  9 27  1  0  0  0  0
  9 28  1  0  0  0  0
 10 11  1  0  0  0  0
 10 29  1  0  0  0  0
 11 12  2  0  0  0  0
 11 13  1  0  0  0  0
 13 14  1  0  0  0  0
 13 30  1  0  0  0  0
 14 19  2  0  0  0  0
 14 15  1  0  0  0  0
 15 16  2  0  0  0  0
 15 31  1  0  0  0  0
 16 17  1  0  0  0  0
 16 32  1  0  0  0  0
 17 18  2  0  0  0  0
 17 20  1  0  0  0  0
 18 19  1  0  0  0  0
 18 33  1  0  0  0  0
M  END
$$$$
ZINC03832007
  -OEChem-08230709403D

 33 34  0     1  0  0  0  0  0999 V2000
   -0.0725    9.2903    1.5062 C   0  0  0  0  0  0  0  0  0  0  0  0
   -1.0459    9.7153    2.3921 C   0  0  0  0  0  0  0  0  0  0  0  0
   -2.0229    8.8375    2.8239 C   0  0  0  0  0  0  0  0  0  0  0  0
   -2.0332    7.5340    2.3670 C   0  0  0  0  0  0  0  0  0  0  0  0
   -1.0538    7.1023    1.4818 C   0  0  0  0  0  0  0  0  0  0  0  0
   -0.0735    7.9871    1.0500 C   0  0  0  0  0  0  0  0  0  0  0  0
   -1.0578    5.7834    1.0224 N   0  0  0  0  0  0  0  0  0  0  0  0
    0.0308    5.3019    0.1684 C   0  0  1  0  0  0  0  0  0  0  0  0
    0.9808    5.6868    0.5391 H   0  0  0  0  0  0  0  0  0  0  0  0
    0.0569    3.7952    0.1894 C   0  0  0  0  0  0  0  0  0  0  0  0
   -1.1099    3.0802   -0.0128 C   0  0  0  0  0  0  0  0  0  0  0  0
   -1.0853    1.6969    0.0061 C   0  0  0  0  0  0  0  0  0  0  0  0
    0.1049    1.0295    0.2264 C   0  0  0  0  0  0  0  0  0  0  0  0
    1.2700    1.7435    0.4342 C   0  0  0  0  0  0  0  0  0  0  0  0
    1.2476    3.1268    0.4103 C   0  0  0  0  0  0  0  0  0  0  0  0
    2.7124    4.0233    0.6642 Cl  0  0  0  0  0  0  0  0  0  0  0  0
   -2.6046    3.9182   -0.2907 Cl  0  0  0  0  0  0  0  0  0  0  0  0
   -0.1888    5.7809   -1.2434 C   0  0  0  0  0  0  0  0  0  0  0  0
   -1.1591    6.4579   -1.5101 O   0  0  0  0  0  0  0  0  0  0  0  0
    0.6931    5.4570   -2.2098 N   0  0  0  0  0  0  0  0  0  0  0  0
   -3.0830    6.5966    2.8250 N   0  3  0  0  0  0  0  0  0  0  0  0
   -3.5548    5.7845    2.0495 O   0  0  0  0  0  0  0  0  0  0  0  0
   -3.4753    6.6374    3.9774 O   0  5  0  0  0  0  0  0  0  0  0  0
    0.6891    9.9787    1.1706 H   0  0  0  0  0  0  0  0  0  0  0  0
   -1.0430   10.7353    2.7471 H   0  0  0  0  0  0  0  0  0  0  0  0
   -2.7814    9.1725    3.5160 H   0  0  0  0  0  0  0  0  0  0  0  0
    0.6870    7.6558    0.3585 H   0  0  0  0  0  0  0  0  0  0  0  0
   -1.7814    5.1862    1.2687 H   0  0  0  0  0  0  0  0  0  0  0  0
   -1.9962    1.1385   -0.1518 H   0  0  0  0  0  0  0  0  0  0  0  0
    0.1237   -0.0502    0.2407 H   0  0  0  0  0  0  0  0  0  0  0  0
    2.1989    1.2216    0.6107 H   0  0  0  0  0  0  0  0  0  0  0  0
    1.4692    4.9156   -1.9965 H   0  0  0  0  0  0  0  0  0  0  0  0
    0.5518    5.7654   -3.1185 H   0  0  0  0  0  0  0  0  0  0  0  0
  1  6  2  0  0  0  0
  1  2  1  0  0  0  0
  1 24  1  0  0  0  0
  2  3  2  0  0  0  0
  2 25  1  0  0  0  0
  3  4  1  0  0  0  0
  3 26  1  0  0  0  0
  4  5  2  0  0  0  0
  4 21  1  0  0  0  0
  5  6  1  0  0  0  0
  5  7  1  0  0  0  0
  6 27  1  0  0  0  0
  7  8  1  0  0  0  0
  7 28  1  0  0  0  0
  8  9  1  0  0  0  0
  8 10  1  0  0  0  0
  8 18  1  0  0  0  0
 10 15  2  0  0  0  0
 10 11  1  0  0  0  0
 11 12  2  0  0  0  0
 11 17  1  0  0  0  0
 12 13  1  0  0  0  0
 12 29  1  0  0  0  0
 13 14  2  0  0  0  0
 13 30  1  0  0  0  0
 14 15  1  0  0  0  0
 14 31  1  0  0  0  0
 15 16  1  0  0  0  0
 18 19  2  0  0  0  0
 18 20  1  0  0  0  0
 20 32  1  0  0  0  0
 20 33  1  0  0  0  0
 21 22  2  0  0  0  0
 21 23  1  0  0  0  0
M  CHG  2  21   1  23  -1
M  END
$$$$
ZINC03832008
  -OEChem-08230709403D

 33 34  0     1  0  0  0  0  0999 V2000
   -4.3929    2.2633   -3.4381 C   0  0  0  0  0  0  0  0  0  0  0  0
   -5.4347    3.1657   -3.3226 C   0  0  0  0  0  0  0  0  0  0  0  0
   -5.8370    3.6060   -2.0752 C   0  0  0  0  0  0  0  0  0  0  0  0
   -5.2029    3.1413   -0.9395 C   0  0  0  0  0  0  0  0  0  0  0  0
   -4.1527    2.2395   -1.0522 C   0  0  0  0  0  0  0  0  0  0  0  0
   -3.7510    1.7991   -2.3072 C   0  0  0  0  0  0  0  0  0  0  0  0
   -3.5055    1.7720    0.0939 N   0  0  0  0  0  0  0  0  0  0  0  0
   -2.4968    0.7151   -0.0141 C   0  0  2  0  0  0  0  0  0  0  0  0
   -2.8399   -0.0442   -0.7169 H   0  0  0  0  0  0  0  0  0  0  0  0
   -2.2807    0.0867    1.3385 C   0  0  0  0  0  0  0  0  0  0  0  0
   -2.0613    0.8863    2.4458 C   0  0  0  0  0  0  0  0  0  0  0  0
   -1.8673    0.3089    3.6881 C   0  0  0  0  0  0  0  0  0  0  0  0
   -1.8832   -1.0668    3.8212 C   0  0  0  0  0  0  0  0  0  0  0  0
   -2.0971   -1.8664    2.7143 C   0  0  0  0  0  0  0  0  0  0  0  0
   -2.2960   -1.2900    1.4723 C   0  0  0  0  0  0  0  0  0  0  0  0
   -2.5641   -2.2945    0.0820 Cl  0  0  0  0  0  0  0  0  0  0  0  0
   -2.0348    2.6139    2.2776 Cl  0  0  0  0  0  0  0  0  0  0  0  0
   -1.2008    1.3060   -0.5063 C   0  0  0  0  0  0  0  0  0  0  0  0
   -1.1270    2.4931   -0.7435 O   0  0  0  0  0  0  0  0  0  0  0  0
   -0.1237    0.5153   -0.6829 N   0  0  0  0  0  0  0  0  0  0  0  0
   -5.6383    3.6084    0.3957 N   0  3  0  0  0  0  0  0  0  0  0  0
   -6.4694    4.4938    0.4900 O   0  0  0  0  0  0  0  0  0  0  0  0
   -5.1653    3.1076    1.4002 O   0  5  0  0  0  0  0  0  0  0  0  0
   -4.0814    1.9211   -4.4140 H   0  0  0  0  0  0  0  0  0  0  0  0
   -5.9353    3.5269   -4.2088 H   0  0  0  0  0  0  0  0  0  0  0  0
   -6.6511    4.3104   -1.9886 H   0  0  0  0  0  0  0  0  0  0  0  0
   -2.9373    1.0948   -2.3980 H   0  0  0  0  0  0  0  0  0  0  0  0
   -3.7239    2.1471    0.9613 H   0  0  0  0  0  0  0  0  0  0  0  0
   -1.6994    0.9332    4.5533 H   0  0  0  0  0  0  0  0  0  0  0  0
   -1.7280   -1.5171    4.7905 H   0  0  0  0  0  0  0  0  0  0  0  0
   -2.1087   -2.9412    2.8188 H   0  0  0  0  0  0  0  0  0  0  0  0
   -0.1827   -0.4341   -0.4932 H   0  0  0  0  0  0  0  0  0  0  0  0
    0.7093    0.8950   -1.0035 H   0  0  0  0  0  0  0  0  0  0  0  0
  1  6  2  0  0  0  0
  1  2  1  0  0  0  0
  1 24  1  0  0  0  0
  2  3  2  0  0  0  0
  2 25  1  0  0  0  0
  3  4  1  0  0  0  0
  3 26  1  0  0  0  0
  4  5  2  0  0  0  0
  4 21  1  0  0  0  0
  5  6  1  0  0  0  0
  5  7  1  0  0  0  0
  6 27  1  0  0  0  0
  7  8  1  0  0  0  0
  7 28  1  0  0  0  0
  8  9  1  0  0  0  0
  8 10  1  0  0  0  0
  8 18  1  0  0  0  0
 10 15  2  0  0  0  0
 10 11  1  0  0  0  0
 11 12  2  0  0  0  0
 11 17  1  0  0  0  0
 12 13  1  0  0  0  0
 12 29  1  0  0  0  0
 13 14  2  0  0  0  0
 13 30  1  0  0  0  0
 14 15  1  0  0  0  0
 14 31  1  0  0  0  0
 15 16  1  0  0  0  0
 18 19  2  0  0  0  0
 18 20  1  0  0  0  0
 20 32  1  0  0  0  0
 20 33  1  0  0  0  0
 21 22  2  0  0  0  0
 21 23  1  0  0  0  0
M  CHG  2  21   1  23  -1
M  END
$$$$
ZINC03832009
  -OEChem-08230709403D

 36 37  0     1  0  0  0  0  0999 V2000
   -4.0362    7.0286    3.9277 C   0  0  0  0  0  0  0  0  0  0  0  0
   -3.0879    6.6102    2.8338 C   0  0  0  0  0  0  0  0  0  0  0  0
   -3.1879    5.5101    2.3323 O   0  0  0  0  0  0  0  0  0  0  0  0
   -2.0442    7.5329    2.3754 C   0  0  0  0  0  0  0  0  0  0  0  0
   -1.9977    8.8444    2.8647 C   0  0  0  0  0  0  0  0  0  0  0  0
   -1.0186    9.7061    2.4254 C   0  0  0  0  0  0  0  0  0  0  0  0
   -0.0727    9.2823    1.5038 C   0  0  0  0  0  0  0  0  0  0  0  0
   -0.1005    7.9928    1.0149 C   0  0  0  0  0  0  0  0  0  0  0  0
   -1.0798    7.1057    1.4449 C   0  0  0  0  0  0  0  0  0  0  0  0
   -1.1095    5.8084    0.9551 N   0  0  0  0  0  0  0  0  0  0  0  0
   -0.0368    5.3315    0.0788 C   0  0  1  0  0  0  0  0  0  0  0  0
    0.9230    5.6888    0.4520 H   0  0  0  0  0  0  0  0  0  0  0  0
   -0.0381    3.8247    0.0575 C   0  0  0  0  0  0  0  0  0  0  0  0
   -1.2193    3.1367   -0.1540 C   0  0  0  0  0  0  0  0  0  0  0  0
   -1.2198    1.7532   -0.1740 C   0  0  0  0  0  0  0  0  0  0  0  0
   -0.0402    1.0586    0.0170 C   0  0  0  0  0  0  0  0  0  0  0  0
    1.1395    1.7454    0.2341 C   0  0  0  0  0  0  0  0  0  0  0  0
    1.1421    3.1289    0.2490 C   0  0  0  0  0  0  0  0  0  0  0  0
    2.6251    3.9915    0.5146 Cl  0  0  0  0  0  0  0  0  0  0  0  0
   -2.7008    4.0089   -0.3951 Cl  0  0  0  0  0  0  0  0  0  0  0  0
   -0.2589    5.8538   -1.3172 C   0  0  0  0  0  0  0  0  0  0  0  0
   -1.2188    6.5554   -1.5566 O   0  0  0  0  0  0  0  0  0  0  0  0
    0.6091    5.5414   -2.2997 N   0  0  0  0  0  0  0  0  0  0  0  0
   -4.5422    7.8408    3.6375 H   0  0  0  0  0  0  0  0  0  0  0  0
   -4.7360    6.2182    4.1316 H   0  0  0  0  0  0  0  0  0  0  0  0
   -3.4707    7.2564    4.8313 H   0  0  0  0  0  0  0  0  0  0  0  0
   -2.7314    9.1803    3.5825 H   0  0  0  0  0  0  0  0  0  0  0  0
   -0.9869   10.7185    2.8004 H   0  0  0  0  0  0  0  0  0  0  0  0
    0.6910    9.9672    1.1661 H   0  0  0  0  0  0  0  0  0  0  0  0
    0.6401    7.6721    0.2972 H   0  0  0  0  0  0  0  0  0  0  0  0
   -1.8406    5.2169    1.1929 H   0  0  0  0  0  0  0  0  0  0  0  0
   -2.1421    1.2160   -0.3391 H   0  0  0  0  0  0  0  0  0  0  0  0
   -0.0410   -0.0213    0.0010 H   0  0  0  0  0  0  0  0  0  0  0  0
    2.0601    1.2021    0.3877 H   0  0  0  0  0  0  0  0  0  0  0  0
    1.3769    4.9803   -2.1082 H   0  0  0  0  0  0  0  0  0  0  0  0
    0.4662    5.8776   -3.1983 H   0  0  0  0  0  0  0  0  0  0  0  0
  1  2  1  0  0  0  0
  1 24  1  0  0  0  0
  1 25  1  0  0  0  0
  1 26  1  0  0  0  0
  2  3  2  0  0  0  0
  2  4  1  0  0  0  0
  4  9  2  0  0  0  0
  4  5  1  0  0  0  0
  5  6  2  0  0  0  0
  5 27  1  0  0  0  0
  6  7  1  0  0  0  0
  6 28  1  0  0  0  0
  7  8  2  0  0  0  0
  7 29  1  0  0  0  0
  8  9  1  0  0  0  0
  8 30  1  0  0  0  0
  9 10  1  0  0  0  0
 10 11  1  0  0  0  0
 10 31  1  0  0  0  0
 11 12  1  0  0  0  0
 11 13  1  0  0  0  0
 11 21  1  0  0  0  0
 13 18  2  0  0  0  0
 13 14  1  0  0  0  0
 14 15  2  0  0  0  0
 14 20  1  0  0  0  0
 15 16  1  0  0  0  0
 15 32  1  0  0  0  0
 16 17  2  0  0  0  0
 16 33  1  0  0  0  0
 17 18  1  0  0  0  0
 17 34  1  0  0  0  0
 18 19  1  0  0  0  0
 21 22  2  0  0  0  0
 21 23  1  0  0  0  0
 23 35  1  0  0  0  0
 23 36  1  0  0  0  0
M  END
$$$$
ZINC03832011
  -OEChem-08230709403D

 36 37  0     1  0  0  0  0  0999 V2000
   -6.8959    4.9279    0.3830 C   0  0  0  0  0  0  0  0  0  0  0  0
   -5.8724    3.8227    0.3382 C   0  0  0  0  0  0  0  0  0  0  0  0
   -5.4315    3.3620    1.3702 O   0  0  0  0  0  0  0  0  0  0  0  0
   -5.4092    3.3041   -0.9531 C   0  0  0  0  0  0  0  0  0  0  0  0
   -5.9959    3.7506   -2.1440 C   0  0  0  0  0  0  0  0  0  0  0  0
   -5.5597    3.2550   -3.3515 C   0  0  0  0  0  0  0  0  0  0  0  0
   -4.5376    2.3185   -3.3977 C   0  0  0  0  0  0  0  0  0  0  0  0
   -3.9452    1.8711   -2.2351 C   0  0  0  0  0  0  0  0  0  0  0  0
   -4.3694    2.3583   -1.0048 C   0  0  0  0  0  0  0  0  0  0  0  0
   -3.7750    1.9103    0.1655 N   0  0  0  0  0  0  0  0  0  0  0  0
   -2.6289    0.9999    0.1030 C   0  0  2  0  0  0  0  0  0  0  0  0
   -2.8075    0.2429   -0.6607 H   0  0  0  0  0  0  0  0  0  0  0  0
   -2.4456    0.3306    1.4407 C   0  0  0  0  0  0  0  0  0  0  0  0
   -2.2936   -1.0425    1.5123 C   0  0  0  0  0  0  0  0  0  0  0  0
   -2.1209   -1.6560    2.7404 C   0  0  0  0  0  0  0  0  0  0  0  0
   -2.1099   -0.8982    3.8963 C   0  0  0  0  0  0  0  0  0  0  0  0
   -2.2670    0.4732    3.8258 C   0  0  0  0  0  0  0  0  0  0  0  0
   -2.4349    1.0884    2.5979 C   0  0  0  0  0  0  0  0  0  0  0  0
   -2.6327    2.8108    2.5096 Cl  0  0  0  0  0  0  0  0  0  0  0  0
   -2.3140   -1.9951    0.0612 Cl  0  0  0  0  0  0  0  0  0  0  0  0
   -1.3865    1.7793   -0.2433 C   0  0  0  0  0  0  0  0  0  0  0  0
   -1.4519    2.9774   -0.4204 O   0  0  0  0  0  0  0  0  0  0  0  0
   -0.2026    1.1451   -0.3561 N   0  0  0  0  0  0  0  0  0  0  0  0
   -7.8138    4.5316    0.4022 H   0  0  0  0  0  0  0  0  0  0  0  0
   -6.7414    5.5301    1.2783 H   0  0  0  0  0  0  0  0  0  0  0  0
   -6.7903    5.5570   -0.5008 H   0  0  0  0  0  0  0  0  0  0  0  0
   -6.7921    4.4797   -2.1145 H   0  0  0  0  0  0  0  0  0  0  0  0
   -6.0161    3.5970   -4.2686 H   0  0  0  0  0  0  0  0  0  0  0  0
   -4.2034    1.9364   -4.3510 H   0  0  0  0  0  0  0  0  0  0  0  0
   -3.1503    1.1414   -2.2812 H   0  0  0  0  0  0  0  0  0  0  0  0
   -4.1180    2.1999    1.0253 H   0  0  0  0  0  0  0  0  0  0  0  0
   -1.9989   -2.7276    2.7962 H   0  0  0  0  0  0  0  0  0  0  0  0
   -1.9789   -1.3779    4.8550 H   0  0  0  0  0  0  0  0  0  0  0  0
   -2.2590    1.0647    4.7294 H   0  0  0  0  0  0  0  0  0  0  0  0
   -0.1504    0.1869   -0.2144 H   0  0  0  0  0  0  0  0  0  0  0  0
    0.5964    1.6461   -0.5829 H   0  0  0  0  0  0  0  0  0  0  0  0
  1  2  1  0  0  0  0
  1 24  1  0  0  0  0
  1 25  1  0  0  0  0
  1 26  1  0  0  0  0
  2  3  2  0  0  0  0
  2  4  1  0  0  0  0
  4  9  2  0  0  0  0
  4  5  1  0  0  0  0
  5  6  2  0  0  0  0
  5 27  1  0  0  0  0
  6  7  1  0  0  0  0
  6 28  1  0  0  0  0
  7  8  2  0  0  0  0
  7 29  1  0  0  0  0
  8  9  1  0  0  0  0
  8 30  1  0  0  0  0
  9 10  1  0  0  0  0
 10 11  1  0  0  0  0
 10 31  1  0  0  0  0
 11 12  1  0  0  0  0
 11 13  1  0  0  0  0
 11 21  1  0  0  0  0
 13 18  2  0  0  0  0
 13 14  1  0  0  0  0
 14 15  2  0  0  0  0
 14 20  1  0  0  0  0
 15 16  1  0  0  0  0
 15 32  1  0  0  0  0
 16 17  2  0  0  0  0
 16 33  1  0  0  0  0
 17 18  1  0  0  0  0
 17 34  1  0  0  0  0
 18 19  1  0  0  0  0
 21 22  2  0  0  0  0
 21 23  1  0  0  0  0
 23 35  1  0  0  0  0
 23 36  1  0  0  0  0
M  END
$$$$
ZINC03833862
  -OEChem-08230709403D

 44 45  0     0  0  0  0  0  0999 V2000
    2.6166    4.4102    2.4579 C   0  0  0  0  0  0  0  0  0  0  0  0
    2.3534    3.2620    1.5180 C   0  0  0  0  0  0  0  0  0  0  0  0
    1.2094    3.0630    0.8013 C   0  0  0  0  0  0  0  0  0  0  0  0
    1.4291    1.8236    0.0413 C   0  0  0  0  0  0  0  0  0  0  0  0
    2.6611    1.4040    0.3676 C   0  0  0  0  0  0  0  0  0  0  0  0
    3.2012    2.2645    1.2445 O   0  0  0  0  0  0  0  0  0  0  0  0
    0.0044    3.9091    0.7953 C   0  0  0  0  0  0  0  0  0  0  0  0
   -0.0565    5.3189    1.7647 S   0  0  0  0  0  0  0  0  0  0  0  0
   -1.0507    3.5736    0.0267 N   0  0  0  0  0  0  0  0  0  0  0  0
   -2.2276    4.3267    0.0875 C   0  0  0  0  0  0  0  0  0  0  0  0
   -3.4592    3.6883    0.1606 C   0  0  0  0  0  0  0  0  0  0  0  0
   -4.6192    4.4343    0.2268 C   0  0  0  0  0  0  0  0  0  0  0  0
   -4.5565    5.8168    0.2078 C   0  0  0  0  0  0  0  0  0  0  0  0
   -3.3314    6.4553    0.1292 C   0  0  0  0  0  0  0  0  0  0  0  0
   -2.1675    5.7140    0.0690 C   0  0  0  0  0  0  0  0  0  0  0  0
   -3.2670    7.9608    0.1097 C   0  0  0  0  0  0  0  0  0  0  0  0
   -3.6815    8.4516   -1.2113 N   0  0  0  0  0  0  0  0  0  0  0  0
   -3.6312    9.9127   -1.2673 O   0  0  0  0  0  0  0  0  0  0  0  0
   -4.0230   10.4599   -2.5279 C   0  0  0  0  0  0  0  0  0  0  0  0
   -5.4627   10.0455   -2.8384 C   0  0  0  0  0  0  0  0  0  0  0  0
   -3.9325   11.9862   -2.4716 C   0  0  0  0  0  0  0  0  0  0  0  0
   -3.0933    9.9339   -3.6233 C   0  0  0  0  0  0  0  0  0  0  0  0
   -6.0174    6.7516    0.2832 Cl  0  0  0  0  0  0  0  0  0  0  0  0
    2.2883    4.1405    3.4617 H   0  0  0  0  0  0  0  0  0  0  0  0
    3.6839    4.6311    2.4718 H   0  0  0  0  0  0  0  0  0  0  0  0
    2.0680    5.2894    2.1202 H   0  0  0  0  0  0  0  0  0  0  0  0
    0.7396    1.3483   -0.6407 H   0  0  0  0  0  0  0  0  0  0  0  0
    3.1413    0.5151   -0.0141 H   0  0  0  0  0  0  0  0  0  0  0  0
   -0.9937    2.8099   -0.5686 H   0  0  0  0  0  0  0  0  0  0  0  0
   -3.5090    2.6095    0.1706 H   0  0  0  0  0  0  0  0  0  0  0  0
   -5.5768    3.9385    0.2881 H   0  0  0  0  0  0  0  0  0  0  0  0
   -1.2116    6.2128    0.0074 H   0  0  0  0  0  0  0  0  0  0  0  0
   -3.9339    8.3629    0.8724 H   0  0  0  0  0  0  0  0  0  0  0  0
   -2.2459    8.2834    0.3133 H   0  0  0  0  0  0  0  0  0  0  0  0
   -3.1188    8.0422   -1.9420 H   0  0  0  0  0  0  0  0  0  0  0  0
   -6.1250   10.4202   -2.0580 H   0  0  0  0  0  0  0  0  0  0  0  0
   -5.7615   10.4629   -3.8000 H   0  0  0  0  0  0  0  0  0  0  0  0
   -5.5272    8.9581   -2.8785 H   0  0  0  0  0  0  0  0  0  0  0  0
   -2.9068   12.2814   -2.2503 H   0  0  0  0  0  0  0  0  0  0  0  0
   -4.2313   12.4036   -3.4331 H   0  0  0  0  0  0  0  0  0  0  0  0
   -4.5948   12.3609   -1.6912 H   0  0  0  0  0  0  0  0  0  0  0  0
   -3.1578    8.8466   -3.6634 H   0  0  0  0  0  0  0  0  0  0  0  0
   -3.3921   10.3513   -4.5848 H   0  0  0  0  0  0  0  0  0  0  0  0
   -2.0676   10.2292   -3.4020 H   0  0  0  0  0  0  0  0  0  0  0  0
  1  2  1  0  0  0  0
  1 24  1  0  0  0  0
  1 25  1  0  0  0  0
  1 26  1  0  0  0  0
  2  6  1  0  0  0  0
  2  3  2  0  0  0  0
  3  4  1  0  0  0  0
  3  7  1  0  0  0  0
  4  5  2  0  0  0  0
  4 27  1  0  0  0  0
  5  6  1  0  0  0  0
  5 28  1  0  0  0  0
  7  8  2  0  0  0  0
  7  9  1  0  0  0  0
  9 10  1  0  0  0  0
  9 29  1  0  0  0  0
 10 15  2  0  0  0  0
 10 11  1  0  0  0  0
 11 12  2  0  0  0  0
 11 30  1  0  0  0  0
 12 13  1  0  0  0  0
 12 31  1  0  0  0  0
 13 14  2  0  0  0  0
 13 23  1  0  0  0  0
 14 15  1  0  0  0  0
 14 16  1  0  0  0  0
 15 32  1  0  0  0  0
 16 17  1  0  0  0  0
 16 33  1  0  0  0  0
 16 34  1  0  0  0  0
 17 18  1  0  0  0  0
 17 35  1  0  0  0  0
 18 19  1  0  0  0  0
 19 20  1  0  0  0  0
 19 21  1  0  0  0  0
 19 22  1  0  0  0  0
 20 36  1  0  0  0  0
 20 37  1  0  0  0  0
 20 38  1  0  0  0  0
 21 39  1  0  0  0  0
 21 40  1  0  0  0  0
 21 41  1  0  0  0  0
 22 42  1  0  0  0  0
 22 43  1  0  0  0  0
 22 44  1  0  0  0  0
M  END
$$$$
ZINC03833863
  -OEChem-08230709403D

 42 44  0     0  0  0  0  0  0999 V2000
   -1.2059    1.7376    0.0172 C   0  0  0  0  0  0  0  0  0  0  0  0
   -0.0126    1.0758    0.0080 C   0  0  0  0  0  0  0  0  0  0  0  0
    1.1850    1.7832    0.0003 C   0  0  0  0  0  0  0  0  0  0  0  0
    1.1728    3.1891    0.0075 C   0  0  0  0  0  0  0  0  0  0  0  0
   -0.0426    3.8673    0.0228 C   0  0  0  0  0  0  0  0  0  0  0  0
   -1.2384    3.1415    0.0308 C   0  0  0  0  0  0  0  0  0  0  0  0
   -2.5258    3.8467    0.0469 C   0  0  0  0  0  0  0  0  0  0  0  0
   -2.9086    4.6469   -1.0569 C   0  0  0  0  0  0  0  0  0  0  0  0
   -2.0446    4.7655   -2.1646 C   0  0  0  0  0  0  0  0  0  0  0  0
   -2.3832    5.5190   -3.2383 C   0  0  0  0  0  0  0  0  0  0  0  0
   -3.6108    6.2118   -3.2614 C   0  0  0  0  0  0  0  0  0  0  0  0
   -3.9165    6.8959   -4.2271 O   0  0  0  0  0  0  0  0  0  0  0  0
   -4.5162    6.1022   -2.1146 C   0  0  0  0  0  0  0  0  0  0  0  0
   -4.1398    5.3168   -1.0332 C   0  0  0  0  0  0  0  0  0  0  0  0
   -5.8036    6.8125   -2.1093 C   0  0  0  0  0  0  0  0  0  0  0  0
   -6.5478    6.7146   -1.1531 O   0  0  0  0  0  0  0  0  0  0  0  0
   -3.4164    3.7222    1.2071 C   0  0  0  0  0  0  0  0  0  0  0  0
   -3.0159    4.2208    2.4574 C   0  0  0  0  0  0  0  0  0  0  0  0
   -3.8413    4.1136    3.5388 C   0  0  0  0  0  0  0  0  0  0  0  0
   -5.0834    3.4993    3.4185 C   0  0  0  0  0  0  0  0  0  0  0  0
   -5.4994    2.9888    2.1763 C   0  0  0  0  0  0  0  0  0  0  0  0
   -4.6625    3.1017    1.0700 C   0  0  0  0  0  0  0  0  0  0  0  0
   -6.8156    2.3366    2.0464 C   0  0  0  0  0  0  0  0  0  0  0  0
   -7.5438    2.2397    3.0142 O   0  0  0  0  0  0  0  0  0  0  0  0
   -5.8924    3.3924    4.4989 O   0  0  0  0  0  0  0  0  0  0  0  0
    2.4411    3.9414   -0.0015 C   0  0  0  0  0  0  0  0  0  0  0  0
    3.5003    3.3463   -0.0152 O   0  0  0  0  0  0  0  0  0  0  0  0
    2.3637    1.1173   -0.0145 O   0  0  0  0  0  0  0  0  0  0  0  0
   -2.1301    1.1788    0.0182 H   0  0  0  0  0  0  0  0  0  0  0  0
    0.0021   -0.0041    0.0020 H   0  0  0  0  0  0  0  0  0  0  0  0
   -0.0623    4.9471    0.0280 H   0  0  0  0  0  0  0  0  0  0  0  0
   -1.0992    4.2435   -2.1590 H   0  0  0  0  0  0  0  0  0  0  0  0
   -1.7080    5.5930   -4.0780 H   0  0  0  0  0  0  0  0  0  0  0  0
   -4.7922    5.2227   -0.1777 H   0  0  0  0  0  0  0  0  0  0  0  0
   -2.0516    4.6957    2.5626 H   0  0  0  0  0  0  0  0  0  0  0  0
   -3.5262    4.5042    4.4951 H   0  0  0  0  0  0  0  0  0  0  0  0
   -4.9731    2.7123    0.1117 H   0  0  0  0  0  0  0  0  0  0  0  0
   -5.7609    2.5822    5.0101 H   0  0  0  0  0  0  0  0  0  0  0  0
    2.6977    0.9286   -0.9022 H   0  0  0  0  0  0  0  0  0  0  0  0
   -6.1587    7.5722   -3.1648 O   0  5  0  0  0  0  0  0  0  0  0  0
   -7.2107    1.8481    0.8544 O   0  5  0  0  0  0  0  0  0  0  0  0
    2.4253    5.2887    0.0054 O   0  5  0  0  0  0  0  0  0  0  0  0
  1  6  2  0  0  0  0
  1  2  1  0  0  0  0
  1 29  1  0  0  0  0
  2  3  2  0  0  0  0
  2 30  1  0  0  0  0
  3  4  1  0  0  0  0
  3 28  1  0  0  0  0
  4  5  2  0  0  0  0
  4 26  1  0  0  0  0
  5  6  1  0  0  0  0
  5 31  1  0  0  0  0
  6  7  1  0  0  0  0
  7  8  2  0  0  0  0
  7 17  1  0  0  0  0
  8 14  1  0  0  0  0
  8  9  1  0  0  0  0
  9 10  2  0  0  0  0
  9 32  1  0  0  0  0
 10 11  1  0  0  0  0
 10 33  1  0  0  0  0
 11 12  2  0  0  0  0
 11 13  1  0  0  0  0
 13 14  2  0  0  0  0
 13 15  1  0  0  0  0
 14 34  1  0  0  0  0
 15 16  2  0  0  0  0
 15 40  1  0  0  0  0
 17 22  2  0  0  0  0
 17 18  1  0  0  0  0
 18 19  2  0  0  0  0
 18 35  1  0  0  0  0
 19 20  1  0  0  0  0
 19 36  1  0  0  0  0
 20 21  2  0  0  0  0
 20 25  1  0  0  0  0
 21 22  1  0  0  0  0
 21 23  1  0  0  0  0
 22 37  1  0  0  0  0
 23 24  2  0  0  0  0
 23 41  1  0  0  0  0
 25 38  1  0  0  0  0
 26 27  2  0  0  0  0
 26 42  1  0  0  0  0
 28 39  1  0  0  0  0
M  CHG  3  40  -1  41  -1  42  -1
M  END
$$$$
ZINC03833865
  -OEChem-08230709403D

 33 35  0     1  0  0  0  0  0999 V2000
    2.2319    4.2462    0.0027 C   0  0  0  0  0  0  0  0  0  0  0  0
    1.0716    3.4962    0.0097 C   0  0  0  0  0  0  0  0  0  0  0  0
    1.1447    2.1100    0.0025 C   0  0  0  0  0  0  0  0  0  0  0  0
    2.3903    1.4911   -0.0127 C   0  0  0  0  0  0  0  0  0  0  0  0
    3.5447    2.2388   -0.0201 C   0  0  0  0  0  0  0  0  0  0  0  0
    3.4669    3.6227   -0.0124 C   0  0  0  0  0  0  0  0  0  0  0  0
    4.9192    4.5737   -0.0223 Cl  0  0  0  0  0  0  0  0  0  0  0  0
    2.4332   -0.0195   -0.0212 C   0  0  1  0  0  0  0  0  0  0  0  0
    1.1392   -0.7228   -0.0127 N   0  0  0  0  0  0  0  0  0  0  0  0
    0.0021   -0.0041    0.0020 C   0  0  0  0  0  0  0  0  0  0  0  0
   -1.0588   -0.5980    0.0085 O   0  0  0  0  0  0  0  0  0  0  0  0
   -0.0161    1.3349    0.0094 N   0  0  0  0  0  0  0  0  0  0  0  0
    3.1914   -0.4561   -1.2482 C   0  0  0  0  0  0  0  0  0  0  0  0
    2.6581   -1.3219   -2.0741 C   0  0  0  0  0  0  0  0  0  0  0  0
    3.4163   -1.7585   -3.3012 C   0  0  0  0  0  0  0  0  0  0  0  0
    2.6669   -2.6079   -4.3296 C   0  0  0  0  0  0  0  0  0  0  0  0
    3.7364   -3.2481   -3.4410 C   0  0  0  0  0  0  0  0  0  0  0  0
    3.2265   -0.4760    1.2048 C   0  0  0  0  0  0  0  0  0  0  0  0
    3.4274   -1.8591    1.1418 F   0  0  0  0  0  0  0  0  0  0  0  0
    4.4648    0.1746    1.2278 F   0  0  0  0  0  0  0  0  0  0  0  0
    2.5126   -0.1610    2.3660 F   0  0  0  0  0  0  0  0  0  0  0  0
    2.1745    5.3247    0.0086 H   0  0  0  0  0  0  0  0  0  0  0  0
    0.1098    3.9873    0.0207 H   0  0  0  0  0  0  0  0  0  0  0  0
    4.5076    1.7498   -0.0315 H   0  0  0  0  0  0  0  0  0  0  0  0
    1.1072   -1.6923   -0.0179 H   0  0  0  0  0  0  0  0  0  0  0  0
   -0.8745    1.7865    0.0158 H   0  0  0  0  0  0  0  0  0  0  0  0
    4.1743   -0.0551   -1.4467 H   0  0  0  0  0  0  0  0  0  0  0  0
    1.6751   -1.7229   -1.8757 H   0  0  0  0  0  0  0  0  0  0  0  0
    4.1531   -1.0480   -3.6761 H   0  0  0  0  0  0  0  0  0  0  0  0
    1.6255   -2.8510   -4.1188 H   0  0  0  0  0  0  0  0  0  0  0  0
    2.9109   -2.4566   -5.3811 H   0  0  0  0  0  0  0  0  0  0  0  0
    4.6835   -3.5176   -3.9083 H   0  0  0  0  0  0  0  0  0  0  0  0
    3.3989   -3.9122   -2.6454 H   0  0  0  0  0  0  0  0  0  0  0  0
  1  6  2  0  0  0  0
  1  2  1  0  0  0  0
  1 22  1  0  0  0  0
  2  3  2  0  0  0  0
  2 23  1  0  0  0  0
  3 12  1  0  0  0  0
  3  4  1  0  0  0  0
  4  5  2  0  0  0  0
  4  8  1  0  0  0  0
  5  6  1  0  0  0  0
  5 24  1  0  0  0  0
  6  7  1  0  0  0  0
  8  9  1  0  0  0  0
  8 13  1  0  0  0  0
  8 18  1  0  0  0  0
  9 10  1  0  0  0  0
  9 25  1  0  0  0  0
 10 11  2  0  0  0  0
 10 12  1  0  0  0  0
 12 26  1  0  0  0  0
 13 14  2  0  0  0  0
 13 27  1  0  0  0  0
 14 15  1  0  0  0  0
 14 28  1  0  0  0  0
 15 17  1  0  0  0  0
 15 16  1  0  0  0  0
 15 29  1  0  0  0  0
 16 17  1  0  0  0  0
 16 30  1  0  0  0  0
 16 31  1  0  0  0  0
 17 32  1  0  0  0  0
 17 33  1  0  0  0  0
 18 19  1  0  0  0  0
 18 20  1  0  0  0  0
 18 21  1  0  0  0  0
M  END
$$$$
ZINC03833866
  -OEChem-08230709403D

 31 33  0     1  0  0  0  0  0999 V2000
   -1.2360    3.1390    0.0307 C   0  0  0  0  0  0  0  0  0  0  0  0
   -0.0515    3.8501    0.0227 C   0  0  0  0  0  0  0  0  0  0  0  0
    1.1606    3.1736    0.0076 C   0  0  0  0  0  0  0  0  0  0  0  0
    1.1673    1.7826    0.0005 C   0  0  0  0  0  0  0  0  0  0  0  0
   -0.0126    1.0758    0.0080 C   0  0  0  0  0  0  0  0  0  0  0  0
   -1.2205    1.7555    0.0173 C   0  0  0  0  0  0  0  0  0  0  0  0
   -2.7142    0.8708    0.0202 Cl  0  0  0  0  0  0  0  0  0  0  0  0
    2.5045    1.0787   -0.0161 C   0  0  1  0  0  0  0  0  0  0  0  0
    3.7060    1.9306   -0.0234 N   0  0  0  0  0  0  0  0  0  0  0  0
    3.5617    3.2681   -0.0153 C   0  0  0  0  0  0  0  0  0  0  0  0
    4.5623    3.9589   -0.0215 O   0  0  0  0  0  0  0  0  0  0  0  0
    2.3677    3.8743   -0.0011 N   0  0  0  0  0  0  0  0  0  0  0  0
    2.5734    0.2070    1.1681 C   0  0  0  0  0  0  0  0  0  0  0  0
    2.6283   -0.4883    2.1125 C   0  0  0  0  0  0  0  0  0  0  0  0
    2.6971   -1.3600    3.2966 C   0  0  0  0  0  0  0  0  0  0  0  0
    3.6892   -0.9793    4.3974 C   0  0  0  0  0  0  0  0  0  0  0  0
    3.9719   -2.1823    3.4953 C   0  0  0  0  0  0  0  0  0  0  0  0
    2.5521    0.1851   -1.2571 C   0  0  0  0  0  0  0  0  0  0  0  0
    2.4057    0.9722   -2.4044 F   0  0  0  0  0  0  0  0  0  0  0  0
    3.7801   -0.4834   -1.3036 F   0  0  0  0  0  0  0  0  0  0  0  0
    1.5137   -0.7506   -1.1980 F   0  0  0  0  0  0  0  0  0  0  0  0
   -2.1788    3.6657    0.0421 H   0  0  0  0  0  0  0  0  0  0  0  0
   -0.0685    4.9299    0.0287 H   0  0  0  0  0  0  0  0  0  0  0  0
    0.0021   -0.0041    0.0020 H   0  0  0  0  0  0  0  0  0  0  0  0
    4.5903    1.5322   -0.0337 H   0  0  0  0  0  0  0  0  0  0  0  0
    2.3405    4.8439    0.0034 H   0  0  0  0  0  0  0  0  0  0  0  0
    1.7538   -1.8119    3.6031 H   0  0  0  0  0  0  0  0  0  0  0  0
    4.2909   -0.0833    4.2447 H   0  0  0  0  0  0  0  0  0  0  0  0
    3.3986   -1.1806    5.4284 H   0  0  0  0  0  0  0  0  0  0  0  0
    3.8673   -3.1751    3.9329 H   0  0  0  0  0  0  0  0  0  0  0  0
    4.7597   -2.0778    2.7492 H   0  0  0  0  0  0  0  0  0  0  0  0
  1  6  2  0  0  0  0
  1  2  1  0  0  0  0
  1 22  1  0  0  0  0
  2  3  2  0  0  0  0
  2 23  1  0  0  0  0
  3 12  1  0  0  0  0
  3  4  1  0  0  0  0
  4  5  2  0  0  0  0
  4  8  1  0  0  0  0
  5  6  1  0  0  0  0
  5 24  1  0  0  0  0
  6  7  1  0  0  0  0
  8  9  1  0  0  0  0
  8 13  1  0  0  0  0
  8 18  1  0  0  0  0
  9 10  1  0  0  0  0
  9 25  1  0  0  0  0
 10 11  2  0  0  0  0
 10 12  1  0  0  0  0
 12 26  1  0  0  0  0
 13 14  3  0  0  0  0
 14 15  1  0  0  0  0
 15 17  1  0  0  0  0
 15 16  1  0  0  0  0
 15 27  1  0  0  0  0
 16 17  1  0  0  0  0
 16 28  1  0  0  0  0
 16 29  1  0  0  0  0
 17 30  1  0  0  0  0
 17 31  1  0  0  0  0
 18 19  1  0  0  0  0
 18 20  1  0  0  0  0
 18 21  1  0  0  0  0
M  END
$$$$
ZINC03833867
  -OEChem-08230709403D

 42 43  0     1  0  0  0  0  0999 V2000
   -0.6392   -4.9719    0.9283 C   0  0  0  0  0  0  0  0  0  0  0  0
   -1.8703   -4.3456    0.2702 C   0  0  0  0  0  0  0  0  0  0  0  0
   -1.8996   -2.8677    0.5633 C   0  0  0  0  0  0  0  0  0  0  0  0
   -1.3847   -2.0100   -0.3182 C   0  0  0  0  0  0  0  0  0  0  0  0
   -1.4333   -0.5336    0.0129 C   0  0  1  0  0  0  0  0  0  0  0  0
   -1.9765   -0.0308   -0.7872 H   0  0  0  0  0  0  0  0  0  0  0  0
   -2.0656   -0.1298    1.3263 C   0  0  0  0  0  0  0  0  0  0  0  0
   -2.1328    1.0381    1.6443 O   0  0  0  0  0  0  0  0  0  0  0  0
   -2.5531   -1.0890    2.1367 N   0  0  0  0  0  0  0  0  0  0  0  0
   -2.4943   -2.3883    1.8135 C   0  0  0  0  0  0  0  0  0  0  0  0
   -2.9531   -3.2032    2.5903 O   0  0  0  0  0  0  0  0  0  0  0  0
    0.0021   -0.0041    0.0020 C   0  0  0  0  0  0  0  0  0  0  0  0
   -0.0173    1.4248    0.0099 O   0  0  0  0  0  0  0  0  0  0  0  0
    1.2801    2.0237    0.0007 C   0  0  0  0  0  0  0  0  0  0  0  0
    1.1386    3.5471    0.0102 C   0  0  0  0  0  0  0  0  0  0  0  0
   -0.7724   -2.4961   -1.6065 C   0  0  0  0  0  0  0  0  0  0  0  0
   -1.8025   -2.4398   -2.7050 C   0  0  0  0  0  0  0  0  0  0  0  0
   -2.6102   -3.5341   -2.9518 C   0  0  0  0  0  0  0  0  0  0  0  0
   -3.5581   -3.4810   -3.9566 C   0  0  0  0  0  0  0  0  0  0  0  0
   -3.6921   -2.3367   -4.7205 C   0  0  0  0  0  0  0  0  0  0  0  0
   -2.8808   -1.2442   -4.4771 C   0  0  0  0  0  0  0  0  0  0  0  0
   -1.9359   -1.2959   -3.4695 C   0  0  0  0  0  0  0  0  0  0  0  0
   -0.6181   -6.0408    0.7162 H   0  0  0  0  0  0  0  0  0  0  0  0
    0.2621   -4.5048    0.5313 H   0  0  0  0  0  0  0  0  0  0  0  0
   -0.6846   -4.8161    2.0061 H   0  0  0  0  0  0  0  0  0  0  0  0
   -2.7717   -4.8127    0.6671 H   0  0  0  0  0  0  0  0  0  0  0  0
   -1.8250   -4.5014   -0.8077 H   0  0  0  0  0  0  0  0  0  0  0  0
   -2.9586   -0.8316    2.9795 H   0  0  0  0  0  0  0  0  0  0  0  0
    0.5123   -0.3556   -0.8948 H   0  0  0  0  0  0  0  0  0  0  0  0
    0.5293   -0.3651    0.8851 H   0  0  0  0  0  0  0  0  0  0  0  0
    1.8338    1.7047    0.8837 H   0  0  0  0  0  0  0  0  0  0  0  0
    1.8168    1.7143   -0.8961 H   0  0  0  0  0  0  0  0  0  0  0  0
    0.5849    3.8661   -0.8728 H   0  0  0  0  0  0  0  0  0  0  0  0
    0.6019    3.8566    0.9071 H   0  0  0  0  0  0  0  0  0  0  0  0
    2.1282    4.0040    0.0032 H   0  0  0  0  0  0  0  0  0  0  0  0
    0.0737   -1.8610   -1.8690 H   0  0  0  0  0  0  0  0  0  0  0  0
   -0.4305   -3.5235   -1.4813 H   0  0  0  0  0  0  0  0  0  0  0  0
   -2.5030   -4.4295   -2.3574 H   0  0  0  0  0  0  0  0  0  0  0  0
   -4.1922   -4.3344   -4.1465 H   0  0  0  0  0  0  0  0  0  0  0  0
   -4.4309   -2.2961   -5.5073 H   0  0  0  0  0  0  0  0  0  0  0  0
   -2.9855   -0.3502   -5.0740 H   0  0  0  0  0  0  0  0  0  0  0  0
   -1.3021   -0.4423   -3.2794 H   0  0  0  0  0  0  0  0  0  0  0  0
  1  2  1  0  0  0  0
  1 23  1  0  0  0  0
  1 24  1  0  0  0  0
  1 25  1  0  0  0  0
  2  3  1  0  0  0  0
  2 26  1  0  0  0  0
  2 27  1  0  0  0  0
  3 10  1  0  0  0  0
  3  4  2  0  0  0  0
  4  5  1  0  0  0  0
  4 16  1  0  0  0  0
  5  6  1  0  0  0  0
  5  7  1  0  0  0  0
  5 12  1  0  0  0  0
  7  8  2  0  0  0  0
  7  9  1  0  0  0  0
  9 10  1  0  0  0  0
  9 28  1  0  0  0  0
 10 11  2  0  0  0  0
 12 13  1  0  0  0  0
 12 29  1  0  0  0  0
 12 30  1  0  0  0  0
 13 14  1  0  0  0  0
 14 15  1  0  0  0  0
 14 31  1  0  0  0  0
 14 32  1  0  0  0  0
 15 33  1  0  0  0  0
 15 34  1  0  0  0  0
 15 35  1  0  0  0  0
 16 17  1  0  0  0  0
 16 36  1  0  0  0  0
 16 37  1  0  0  0  0
 17 22  2  0  0  0  0
 17 18  1  0  0  0  0
 18 19  2  0  0  0  0
 18 38  1  0  0  0  0
 19 20  1  0  0  0  0
 19 39  1  0  0  0  0
 20 21  2  0  0  0  0
 20 40  1  0  0  0  0
 21 22  1  0  0  0  0
 21 41  1  0  0  0  0
 22 42  1  0  0  0  0
M  END
$$$$
ZINC03833868
  -OEChem-08230709403D

 42 43  0     1  0  0  0  0  0999 V2000
   -3.0421    1.0058    1.2155 C   0  0  0  0  0  0  0  0  0  0  0  0
   -2.6470    1.4802   -0.1844 C   0  0  0  0  0  0  0  0  0  0  0  0
   -1.2245    1.9773   -0.1635 C   0  0  0  0  0  0  0  0  0  0  0  0
   -0.2374    1.1686   -0.5503 C   0  0  0  0  0  0  0  0  0  0  0  0
    1.1771    1.7070   -0.5204 C   0  0  2  0  0  0  0  0  0  0  0  0
    1.7682    1.0557    0.1235 H   0  0  0  0  0  0  0  0  0  0  0  0
    1.3763    3.1295   -0.0464 C   0  0  0  0  0  0  0  0  0  0  0  0
    2.4867    3.6139   -0.0010 O   0  0  0  0  0  0  0  0  0  0  0  0
    0.2999    3.8492    0.3248 N   0  0  0  0  0  0  0  0  0  0  0  0
   -0.9401    3.3421    0.2868 C   0  0  0  0  0  0  0  0  0  0  0  0
   -1.8681    4.0456    0.6358 O   0  0  0  0  0  0  0  0  0  0  0  0
    1.7482    1.6009   -1.9358 C   0  0  0  0  0  0  0  0  0  0  0  0
    3.1245    1.9852   -1.9242 O   0  0  0  0  0  0  0  0  0  0  0  0
    3.7567    1.9215   -3.2042 C   0  0  0  0  0  0  0  0  0  0  0  0
    5.2189    2.3521   -3.0728 C   0  0  0  0  0  0  0  0  0  0  0  0
   -0.5223   -0.2381   -1.0097 C   0  0  0  0  0  0  0  0  0  0  0  0
   -0.3253   -1.1917    0.1404 C   0  0  0  0  0  0  0  0  0  0  0  0
    0.9456   -1.6249    0.4691 C   0  0  0  0  0  0  0  0  0  0  0  0
    1.1269   -2.4959    1.5272 C   0  0  0  0  0  0  0  0  0  0  0  0
    0.0362   -2.9416    2.2501 C   0  0  0  0  0  0  0  0  0  0  0  0
   -1.2353   -2.5129    1.9178 C   0  0  0  0  0  0  0  0  0  0  0  0
   -1.4160   -1.6378    0.8631 C   0  0  0  0  0  0  0  0  0  0  0  0
   -3.0917    1.8617    1.8887 H   0  0  0  0  0  0  0  0  0  0  0  0
   -4.0170    0.5201    1.1729 H   0  0  0  0  0  0  0  0  0  0  0  0
   -2.2991    0.2976    1.5823 H   0  0  0  0  0  0  0  0  0  0  0  0
   -3.3097    2.2881   -0.4947 H   0  0  0  0  0  0  0  0  0  0  0  0
   -2.7318    0.6508   -0.8865 H   0  0  0  0  0  0  0  0  0  0  0  0
    0.4260    4.7616    0.6290 H   0  0  0  0  0  0  0  0  0  0  0  0
    1.6611    0.5726   -2.2867 H   0  0  0  0  0  0  0  0  0  0  0  0
    1.1924    2.2605   -2.6023 H   0  0  0  0  0  0  0  0  0  0  0  0
    3.7112    0.8998   -3.5813 H   0  0  0  0  0  0  0  0  0  0  0  0
    3.2425    2.5877   -3.8969 H   0  0  0  0  0  0  0  0  0  0  0  0
    5.7011    2.3034   -4.0491 H   0  0  0  0  0  0  0  0  0  0  0  0
    5.2644    3.3737   -2.6957 H   0  0  0  0  0  0  0  0  0  0  0  0
    5.7331    1.6858   -2.3801 H   0  0  0  0  0  0  0  0  0  0  0  0
   -1.5512   -0.3033   -1.3636 H   0  0  0  0  0  0  0  0  0  0  0  0
    0.1580   -0.5004   -1.8199 H   0  0  0  0  0  0  0  0  0  0  0  0
    1.7974   -1.2799   -0.0983 H   0  0  0  0  0  0  0  0  0  0  0  0
    2.1202   -2.8312    1.7866 H   0  0  0  0  0  0  0  0  0  0  0  0
    0.1774   -3.6250    3.0744 H   0  0  0  0  0  0  0  0  0  0  0  0
   -2.0875   -2.8613    2.4824 H   0  0  0  0  0  0  0  0  0  0  0  0
   -2.4094   -1.3028    0.6035 H   0  0  0  0  0  0  0  0  0  0  0  0
  1  2  1  0  0  0  0
  1 23  1  0  0  0  0
  1 24  1  0  0  0  0
  1 25  1  0  0  0  0
  2  3  1  0  0  0  0
  2 26  1  0  0  0  0
  2 27  1  0  0  0  0
  3 10  1  0  0  0  0
  3  4  2  0  0  0  0
  4  5  1  0  0  0  0
  4 16  1  0  0  0  0
  5  6  1  0  0  0  0
  5  7  1  0  0  0  0
  5 12  1  0  0  0  0
  7  8  2  0  0  0  0
  7  9  1  0  0  0  0
  9 10  1  0  0  0  0
  9 28  1  0  0  0  0
 10 11  2  0  0  0  0
 12 13  1  0  0  0  0
 12 29  1  0  0  0  0
 12 30  1  0  0  0  0
 13 14  1  0  0  0  0
 14 15  1  0  0  0  0
 14 31  1  0  0  0  0
 14 32  1  0  0  0  0
 15 33  1  0  0  0  0
 15 34  1  0  0  0  0
 15 35  1  0  0  0  0
 16 17  1  0  0  0  0
 16 36  1  0  0  0  0
 16 37  1  0  0  0  0
 17 22  2  0  0  0  0
 17 18  1  0  0  0  0
 18 19  2  0  0  0  0
 18 38  1  0  0  0  0
 19 20  1  0  0  0  0
 19 39  1  0  0  0  0
 20 21  2  0  0  0  0
 20 40  1  0  0  0  0
 21 22  1  0  0  0  0
 21 41  1  0  0  0  0
 22 42  1  0  0  0  0
M  END
$$$$
ZINC03833869
  -OEChem-08230709403D

 51 52  0     0  0  0  0  0  0999 V2000
   -2.4457   -3.6569   -0.2661 C   0  0  0  0  0  0  0  0  0  0  0  0
   -2.3204   -3.2844    1.1888 C   0  0  0  0  0  0  0  0  0  0  0  0
   -2.2723   -4.2731    2.1537 C   0  0  0  0  0  0  0  0  0  0  0  0
   -2.1578   -3.9315    3.4883 C   0  0  0  0  0  0  0  0  0  0  0  0
   -2.0906   -2.6012    3.8579 C   0  0  0  0  0  0  0  0  0  0  0  0
   -2.1374   -1.6125    2.8929 C   0  0  0  0  0  0  0  0  0  0  0  0
   -2.2571   -1.9540    1.5587 C   0  0  0  0  0  0  0  0  0  0  0  0
   -2.0641   -0.1622    3.2958 C   0  0  0  0  0  0  0  0  0  0  0  0
   -0.6252    0.2859    3.2998 C   0  0  0  0  0  0  0  0  0  0  0  0
   -0.0672    0.7851    2.1762 C   0  0  0  0  0  0  0  0  0  0  0  0
    1.2846    1.2049    2.2063 C   0  0  0  0  0  0  0  0  0  0  0  0
    1.8083    1.6627    1.2067 O   0  0  0  0  0  0  0  0  0  0  0  0
    1.9868    1.0927    3.3519 N   0  0  0  0  0  0  0  0  0  0  0  0
    2.9421    1.3870    3.3813 H   0  0  0  0  0  0  0  0  0  0  0  0
    1.4072    0.5862    4.4560 C   0  0  0  0  0  0  0  0  0  0  0  0
    2.0529    0.4907    5.4818 O   0  0  0  0  0  0  0  0  0  0  0  0
    0.1235    0.1837    4.4405 N   0  0  0  0  0  0  0  0  0  0  0  0
   -0.4802   -0.3635    5.6581 C   0  0  0  0  0  0  0  0  0  0  0  0
   -0.7445    0.6981    6.5773 O   0  0  0  0  0  0  0  0  0  0  0  0
   -1.9374    1.4311    6.2913 C   0  0  0  0  0  0  0  0  0  0  0  0
   -2.1191    2.5364    7.3335 C   0  0  0  0  0  0  0  0  0  0  0  0
   -1.0557    3.4834    7.2139 O   0  0  0  0  0  0  0  0  0  0  0  0
   -0.8742    0.8996    0.9086 C   0  0  0  0  0  0  0  0  0  0  0  0
   -0.1848    0.1128   -0.2078 C   0  0  0  0  0  0  0  0  0  0  0  0
   -0.9820    2.3712    0.5039 C   0  0  0  0  0  0  0  0  0  0  0  0
   -2.1059   -5.0094    4.5402 C   0  0  0  0  0  0  0  0  0  0  0  0
   -3.4999   -3.7177   -0.5361 H   0  0  0  0  0  0  0  0  0  0  0  0
   -1.9569   -2.8991   -0.8785 H   0  0  0  0  0  0  0  0  0  0  0  0
   -1.9708   -4.6231   -0.4360 H   0  0  0  0  0  0  0  0  0  0  0  0
   -2.3244   -5.3125    1.8649 H   0  0  0  0  0  0  0  0  0  0  0  0
   -2.0012   -2.3343    4.9005 H   0  0  0  0  0  0  0  0  0  0  0  0
   -2.2981   -1.1814    0.8052 H   0  0  0  0  0  0  0  0  0  0  0  0
   -2.4852   -0.0407    4.2938 H   0  0  0  0  0  0  0  0  0  0  0  0
   -2.6306    0.4410    2.5864 H   0  0  0  0  0  0  0  0  0  0  0  0
   -1.4136   -0.8669    5.4062 H   0  0  0  0  0  0  0  0  0  0  0  0
    0.2058   -1.0771    6.1146 H   0  0  0  0  0  0  0  0  0  0  0  0
   -1.8613    1.8761    5.2992 H   0  0  0  0  0  0  0  0  0  0  0  0
   -2.7940    0.7577    6.3227 H   0  0  0  0  0  0  0  0  0  0  0  0
   -3.0727    3.0380    7.1687 H   0  0  0  0  0  0  0  0  0  0  0  0
   -2.1062    2.0997    8.3322 H   0  0  0  0  0  0  0  0  0  0  0  0
   -1.1067    4.2139    7.8454 H   0  0  0  0  0  0  0  0  0  0  0  0
   -1.8723    0.4947    1.0756 H   0  0  0  0  0  0  0  0  0  0  0  0
   -0.1080   -0.9356    0.0806 H   0  0  0  0  0  0  0  0  0  0  0  0
    0.8134    0.5177   -0.3747 H   0  0  0  0  0  0  0  0  0  0  0  0
   -0.7685    0.1956   -1.1246 H   0  0  0  0  0  0  0  0  0  0  0  0
   -1.5657    2.4540   -0.4129 H   0  0  0  0  0  0  0  0  0  0  0  0
   -1.4731    2.9318    1.2992 H   0  0  0  0  0  0  0  0  0  0  0  0
    0.0162    2.7761    0.3369 H   0  0  0  0  0  0  0  0  0  0  0  0
   -3.1174   -5.2399    4.8745 H   0  0  0  0  0  0  0  0  0  0  0  0
   -1.6490   -5.9054    4.1201 H   0  0  0  0  0  0  0  0  0  0  0  0
   -1.5136   -4.6624    5.3869 H   0  0  0  0  0  0  0  0  0  0  0  0
  1  2  1  0  0  0  0
  1 27  1  0  0  0  0
  1 28  1  0  0  0  0
  1 29  1  0  0  0  0
  2  7  2  0  0  0  0
  2  3  1  0  0  0  0
  3  4  2  0  0  0  0
  3 30  1  0  0  0  0
  4  5  1  0  0  0  0
  4 26  1  0  0  0  0
  5  6  2  0  0  0  0
  5 31  1  0  0  0  0
  6  7  1  0  0  0  0
  6  8  1  0  0  0  0
  7 32  1  0  0  0  0
  8  9  1  0  0  0  0
  8 33  1  0  0  0  0
  8 34  1  0  0  0  0
  9 17  1  0  0  0  0
  9 10  2  0  0  0  0
 10 11  1  0  0  0  0
 10 23  1  0  0  0  0
 11 12  2  0  0  0  0
 11 13  1  0  0  0  0
 13 14  1  0  0  0  0
 13 15  1  0  0  0  0
 15 16  2  0  0  0  0
 15 17  1  0  0  0  0
 17 18  1  0  0  0  0
 18 19  1  0  0  0  0
 18 35  1  0  0  0  0
 18 36  1  0  0  0  0
 19 20  1  0  0  0  0
 20 21  1  0  0  0  0
 20 37  1  0  0  0  0
 20 38  1  0  0  0  0
 21 22  1  0  0  0  0
 21 39  1  0  0  0  0
 21 40  1  0  0  0  0
 22 41  1  0  0  0  0
 23 24  1  0  0  0  0
 23 25  1  0  0  0  0
 23 42  1  0  0  0  0
 24 43  1  0  0  0  0
 24 44  1  0  0  0  0
 24 45  1  0  0  0  0
 25 46  1  0  0  0  0
 25 47  1  0  0  0  0
 25 48  1  0  0  0  0
 26 49  1  0  0  0  0
 26 50  1  0  0  0  0
 26 51  1  0  0  0  0
M  END
$$$$
ZINC03833870
  -OEChem-08230709403D

 30 31  0     0  0  0  0  0  0999 V2000
    8.4298    2.9563   -0.0628 C   0  0  0  0  0  0  0  0  0  0  0  0
    7.8485    2.5967    1.1386 C   0  0  0  0  0  0  0  0  0  0  0  0
    6.6591    1.8882    1.1475 C   0  0  0  0  0  0  0  0  0  0  0  0
    6.0526    1.5402   -0.0475 C   0  0  0  0  0  0  0  0  0  0  0  0
    6.6384    1.8958   -1.2486 C   0  0  0  0  0  0  0  0  0  0  0  0
    7.8246    2.6085   -1.2556 C   0  0  0  0  0  0  0  0  0  0  0  0
    5.8825    1.4536   -2.7476 Cl  0  0  0  0  0  0  0  0  0  0  0  0
    4.7579    0.7690   -0.0392 C   0  0  0  0  0  0  0  0  0  0  0  0
    3.5816    1.7473   -0.0228 C   0  0  0  0  0  0  0  0  0  0  0  0
    2.3230    0.9976   -0.0148 N   0  0  0  0  0  0  0  0  0  0  0  0
    1.1468    1.6555   -0.0000 C   0  0  0  0  0  0  0  0  0  0  0  0
    1.1236    3.3673    0.0094 S   0  0  0  0  0  0  0  0  0  0  0  0
   -0.0111    0.9658    0.0074 N   0  0  0  0  0  0  0  0  0  0  0  0
   -1.2236    1.6441    0.0168 C   0  0  0  0  0  0  0  0  0  0  0  0
   -1.4459    2.9441    0.0308 N   0  0  0  0  0  0  0  0  0  0  0  0
   -2.6731    3.4273    0.0347 C   0  0  0  0  0  0  0  0  0  0  0  0
   -3.7106    2.5554    0.0347 C   0  0  0  0  0  0  0  0  0  0  0  0
   -2.8353    0.9977    0.0209 S   0  0  0  0  0  0  0  0  0  0  0  0
    6.0904    1.5370    2.3216 F   0  0  0  0  0  0  0  0  0  0  0  0
    9.3576    3.5090   -0.0694 H   0  0  0  0  0  0  0  0  0  0  0  0
    8.3220    2.8688    2.0704 H   0  0  0  0  0  0  0  0  0  0  0  0
    8.2798    2.8896   -2.1938 H   0  0  0  0  0  0  0  0  0  0  0  0
    4.7171    0.1368    0.8478 H   0  0  0  0  0  0  0  0  0  0  0  0
    4.7001    0.1464   -0.9321 H   0  0  0  0  0  0  0  0  0  0  0  0
    3.6224    2.3795   -0.9098 H   0  0  0  0  0  0  0  0  0  0  0  0
    3.6393    2.3699    0.8701 H   0  0  0  0  0  0  0  0  0  0  0  0
    2.3361    0.0277   -0.0201 H   0  0  0  0  0  0  0  0  0  0  0  0
    0.0021   -0.0041    0.0020 H   0  0  0  0  0  0  0  0  0  0  0  0
   -2.8472    4.4931    0.0424 H   0  0  0  0  0  0  0  0  0  0  0  0
   -4.7732    2.7488    0.0411 H   0  0  0  0  0  0  0  0  0  0  0  0
  1  6  2  0  0  0  0
  1  2  1  0  0  0  0
  1 20  1  0  0  0  0
  2  3  2  0  0  0  0
  2 21  1  0  0  0  0
  3  4  1  0  0  0  0
  3 19  1  0  0  0  0
  4  5  2  0  0  0  0
  4  8  1  0  0  0  0
  5  6  1  0  0  0  0
  5  7  1  0  0  0  0
  6 22  1  0  0  0  0
  8  9  1  0  0  0  0
  8 23  1  0  0  0  0
  8 24  1  0  0  0  0
  9 10  1  0  0  0  0
  9 25  1  0  0  0  0
  9 26  1  0  0  0  0
 10 11  1  0  0  0  0
 10 27  1  0  0  0  0
 11 12  2  0  0  0  0
 11 13  1  0  0  0  0
 13 14  1  0  0  0  0
 13 28  1  0  0  0  0
 14 18  1  0  0  0  0
 14 15  2  0  0  0  0
 15 16  1  0  0  0  0
 16 17  2  0  0  0  0
 16 29  1  0  0  0  0
 17 18  1  0  0  0  0
 17 30  1  0  0  0  0
M  END
$$$$
ZINC04617885
  -OEChem-08230709403D

 44 46  0     0  0  0  0  0  0999 V2000
   -4.4795    2.8010    1.0829 C   0  0  0  0  0  0  0  0  0  0  0  0
   -3.9452    1.6751    1.9302 C   0  0  0  0  0  0  0  0  0  0  0  0
   -3.1783    0.6930    1.3757 C   0  0  0  0  0  0  0  0  0  0  0  0
   -2.7068   -0.2946    2.1352 N   0  0  0  0  0  0  0  0  0  0  0  0
   -2.9681   -0.3530    3.4231 C   0  0  0  0  0  0  0  0  0  0  0  0
   -3.7307    0.5928    4.0301 N   0  0  0  0  0  0  0  0  0  0  0  0
   -3.9192    0.5320    5.0103 H   0  0  0  0  0  0  0  0  0  0  0  0
   -4.2336    1.6155    3.3060 C   0  0  0  0  0  0  0  0  0  0  0  0
   -4.9209    2.4734    3.8352 O   0  0  0  0  0  0  0  0  0  0  0  0
   -2.4699   -1.3711    4.1541 O   0  0  0  0  0  0  0  0  0  0  0  0
   -1.6622   -2.3528    3.4526 C   0  0  0  0  0  0  0  0  0  0  0  0
   -2.5622   -3.4747    2.9308 C   0  0  0  0  0  0  0  0  0  0  0  0
   -1.7111   -4.5092    2.1917 C   0  0  0  0  0  0  0  0  0  0  0  0
   -0.6718   -5.0935    3.1504 C   0  0  0  0  0  0  0  0  0  0  0  0
    0.2282   -3.9716    3.6722 C   0  0  0  0  0  0  0  0  0  0  0  0
   -0.6228   -2.9371    4.4114 C   0  0  0  0  0  0  0  0  0  0  0  0
   -2.8590    0.7284   -0.0967 C   0  0  0  0  0  0  0  0  0  0  0  0
   -3.7924   -0.1956   -0.8355 C   0  0  0  0  0  0  0  0  0  0  0  0
   -4.9410    0.3047   -1.4198 C   0  0  0  0  0  0  0  0  0  0  0  0
   -5.7944   -0.5419   -2.1024 C   0  0  0  0  0  0  0  0  0  0  0  0
   -5.5021   -1.8898   -2.1958 C   0  0  0  0  0  0  0  0  0  0  0  0
   -4.3560   -2.3909   -1.6073 C   0  0  0  0  0  0  0  0  0  0  0  0
   -3.5022   -1.5442   -0.9255 C   0  0  0  0  0  0  0  0  0  0  0  0
   -5.4093    2.4884    0.6077 H   0  0  0  0  0  0  0  0  0  0  0  0
   -4.6675    3.6713    1.7117 H   0  0  0  0  0  0  0  0  0  0  0  0
   -3.7482    3.0576    0.3165 H   0  0  0  0  0  0  0  0  0  0  0  0
   -1.1552   -1.8744    2.6147 H   0  0  0  0  0  0  0  0  0  0  0  0
   -3.0693   -3.9532    3.7687 H   0  0  0  0  0  0  0  0  0  0  0  0
   -3.3027   -3.0585    2.2478 H   0  0  0  0  0  0  0  0  0  0  0  0
   -1.2041   -4.0307    1.3538 H   0  0  0  0  0  0  0  0  0  0  0  0
   -2.3523   -5.3084    1.8199 H   0  0  0  0  0  0  0  0  0  0  0  0
   -0.0655   -5.8305    2.6238 H   0  0  0  0  0  0  0  0  0  0  0  0
   -1.1788   -5.5719    3.9883 H   0  0  0  0  0  0  0  0  0  0  0  0
    0.7353   -3.4931    2.8343 H   0  0  0  0  0  0  0  0  0  0  0  0
    0.9687   -4.3878    4.3553 H   0  0  0  0  0  0  0  0  0  0  0  0
    0.0184   -2.1379    4.7832 H   0  0  0  0  0  0  0  0  0  0  0  0
   -1.1299   -3.4156    5.2493 H   0  0  0  0  0  0  0  0  0  0  0  0
   -1.8295    0.4060   -0.2530 H   0  0  0  0  0  0  0  0  0  0  0  0
   -2.9822    1.7447   -0.4709 H   0  0  0  0  0  0  0  0  0  0  0  0
   -5.1693    1.3577   -1.3468 H   0  0  0  0  0  0  0  0  0  0  0  0
   -6.6896   -0.1504   -2.5624 H   0  0  0  0  0  0  0  0  0  0  0  0
   -6.1690   -2.5513   -2.7287 H   0  0  0  0  0  0  0  0  0  0  0  0
   -4.1275   -3.4439   -1.6806 H   0  0  0  0  0  0  0  0  0  0  0  0
   -2.6066   -1.9356   -0.4661 H   0  0  0  0  0  0  0  0  0  0  0  0
  1  2  1  0  0  0  0
  1 24  1  0  0  0  0
  1 25  1  0  0  0  0
  1 26  1  0  0  0  0
  2  8  1  0  0  0  0
  2  3  2  0  0  0  0
  3  4  1  0  0  0  0
  3 17  1  0  0  0  0
  4  5  2  0  0  0  0
  5  6  1  0  0  0  0
  5 10  1  0  0  0  0
  6  7  1  0  0  0  0
  6  8  1  0  0  0  0
  8  9  2  0  0  0  0
 10 11  1  0  0  0  0
 11 16  1  0  0  0  0
 11 12  1  0  0  0  0
 11 27  1  0  0  0  0
 12 13  1  0  0  0  0
 12 28  1  0  0  0  0
 12 29  1  0  0  0  0
 13 14  1  0  0  0  0
 13 30  1  0  0  0  0
 13 31  1  0  0  0  0
 14 15  1  0  0  0  0
 14 32  1  0  0  0  0
 14 33  1  0  0  0  0
 15 16  1  0  0  0  0
 15 34  1  0  0  0  0
 15 35  1  0  0  0  0
 16 36  1  0  0  0  0
 16 37  1  0  0  0  0
 17 18  1  0  0  0  0
 17 38  1  0  0  0  0
 17 39  1  0  0  0  0
 18 23  2  0  0  0  0
 18 19  1  0  0  0  0
 19 20  2  0  0  0  0
 19 40  1  0  0  0  0
 20 21  1  0  0  0  0
 20 41  1  0  0  0  0
 21 22  2  0  0  0  0
 21 42  1  0  0  0  0
 22 23  1  0  0  0  0
 22 43  1  0  0  0  0
 23 44  1  0  0  0  0
M  END
$$$$
ZINC04617885
  -OEChem-08230709403D

 44 46  0     0  0  0  0  0  0999 V2000
   -4.4783    2.8018    1.0832 C   0  0  0  0  0  0  0  0  0  0  0  0
   -3.9444    1.6756    1.9304 C   0  0  0  0  0  0  0  0  0  0  0  0
   -3.1775    0.6935    1.3759 C   0  0  0  0  0  0  0  0  0  0  0  0
   -2.7019   -0.2914    2.1363 N   0  0  0  0  0  0  0  0  0  0  0  0
   -2.9590   -0.3471    3.4252 C   0  0  0  0  0  0  0  0  0  0  0  0
   -3.7214    0.5989    4.0322 N   0  0  0  0  0  0  0  0  0  0  0  0
   -2.1375   -1.0034    1.7186 H   0  0  0  0  0  0  0  0  0  0  0  0
   -4.2288    1.6186    3.3071 C   0  0  0  0  0  0  0  0  0  0  0  0
   -4.9159    2.4766    3.8364 O   0  0  0  0  0  0  0  0  0  0  0  0
   -2.4563   -1.3622    4.1572 O   0  0  0  0  0  0  0  0  0  0  0  0
   -1.6491   -2.3443    3.4555 C   0  0  0  0  0  0  0  0  0  0  0  0
   -2.5487   -3.4693    2.9398 C   0  0  0  0  0  0  0  0  0  0  0  0
   -1.6982   -4.5041    2.2006 C   0  0  0  0  0  0  0  0  0  0  0  0
   -0.6545   -5.0838    3.1573 C   0  0  0  0  0  0  0  0  0  0  0  0
    0.2451   -3.9588    3.6730 C   0  0  0  0  0  0  0  0  0  0  0  0
   -0.6053   -2.9240    4.4123 C   0  0  0  0  0  0  0  0  0  0  0  0
   -2.8578    0.7292   -0.0964 C   0  0  0  0  0  0  0  0  0  0  0  0
   -3.7912   -0.1945   -0.8357 C   0  0  0  0  0  0  0  0  0  0  0  0
   -4.9395    0.3061   -1.4202 C   0  0  0  0  0  0  0  0  0  0  0  0
   -5.7929   -0.5401   -2.1032 C   0  0  0  0  0  0  0  0  0  0  0  0
   -5.5008   -1.8881   -2.1969 C   0  0  0  0  0  0  0  0  0  0  0  0
   -4.3550   -2.3895   -1.6081 C   0  0  0  0  0  0  0  0  0  0  0  0
   -3.5012   -1.5431   -0.9259 C   0  0  0  0  0  0  0  0  0  0  0  0
   -5.4080    2.4895    0.6077 H   0  0  0  0  0  0  0  0  0  0  0  0
   -4.6663    3.6720    1.7121 H   0  0  0  0  0  0  0  0  0  0  0  0
   -3.7467    3.0584    0.3170 H   0  0  0  0  0  0  0  0  0  0  0  0
   -1.1460   -1.8671    2.6146 H   0  0  0  0  0  0  0  0  0  0  0  0
   -3.0520   -3.9465    3.7808 H   0  0  0  0  0  0  0  0  0  0  0  0
   -3.2924   -3.0564    2.2583 H   0  0  0  0  0  0  0  0  0  0  0  0
   -1.1950   -4.0269    1.3597 H   0  0  0  0  0  0  0  0  0  0  0  0
   -2.3391   -5.3056    1.8332 H   0  0  0  0  0  0  0  0  0  0  0  0
   -0.0485   -5.8211    2.6306 H   0  0  0  0  0  0  0  0  0  0  0  0
   -1.1576   -5.5610    3.9982 H   0  0  0  0  0  0  0  0  0  0  0  0
    0.7484   -3.4816    2.8320 H   0  0  0  0  0  0  0  0  0  0  0  0
    0.9888   -4.3717    4.3546 H   0  0  0  0  0  0  0  0  0  0  0  0
    0.0356   -2.1225    4.7798 H   0  0  0  0  0  0  0  0  0  0  0  0
   -1.1086   -3.4012    5.2532 H   0  0  0  0  0  0  0  0  0  0  0  0
   -1.8283    0.4066   -0.2525 H   0  0  0  0  0  0  0  0  0  0  0  0
   -2.9807    1.7456   -0.4704 H   0  0  0  0  0  0  0  0  0  0  0  0
   -5.1677    1.3592   -1.3470 H   0  0  0  0  0  0  0  0  0  0  0  0
   -6.6879   -0.1484   -2.5634 H   0  0  0  0  0  0  0  0  0  0  0  0
   -6.1677   -2.5493   -2.7301 H   0  0  0  0  0  0  0  0  0  0  0  0
   -4.1266   -3.4425   -1.6816 H   0  0  0  0  0  0  0  0  0  0  0  0
   -2.6058   -1.9348   -0.4664 H   0  0  0  0  0  0  0  0  0  0  0  0
  1  2  1  0  0  0  0
  1 24  1  0  0  0  0
  1 25  1  0  0  0  0
  1 26  1  0  0  0  0
  2  8  1  0  0  0  0
  2  3  2  0  0  0  0
  3 17  1  0  0  0  0
  3  4  1  0  0  0  0
  4  7  1  0  0  0  0
  4  5  1  0  0  0  0
  5 10  1  0  0  0  0
  5  6  2  0  0  0  0
  6  8  1  0  0  0  0
  8  9  2  0  0  0  0
 10 11  1  0  0  0  0
 11 16  1  0  0  0  0
 11 12  1  0  0  0  0
 11 27  1  0  0  0  0
 12 13  1  0  0  0  0
 12 28  1  0  0  0  0
 12 29  1  0  0  0  0
 13 14  1  0  0  0  0
 13 30  1  0  0  0  0
 13 31  1  0  0  0  0
 14 15  1  0  0  0  0
 14 32  1  0  0  0  0
 14 33  1  0  0  0  0
 15 16  1  0  0  0  0
 15 34  1  0  0  0  0
 15 35  1  0  0  0  0
 16 36  1  0  0  0  0
 16 37  1  0  0  0  0
 17 18  1  0  0  0  0
 17 38  1  0  0  0  0
 17 39  1  0  0  0  0
 18 23  2  0  0  0  0
 18 19  1  0  0  0  0
 19 20  2  0  0  0  0
 19 40  1  0  0  0  0
 20 21  1  0  0  0  0
 20 41  1  0  0  0  0
 21 22  2  0  0  0  0
 21 42  1  0  0  0  0
 22 23  1  0  0  0  0
 22 43  1  0  0  0  0
 23 44  1  0  0  0  0
M  END
$$$$
ZINC04628816
  -OEChem-08230709403D

 42 44  0     1  0  0  0  0  0999 V2000
   -2.7600   -1.3595    1.6289 C   0  0  0  0  0  0  0  0  0  0  0  0
   -1.9741   -0.1661    1.0820 C   0  0  1  0  0  0  0  0  0  0  0  0
   -1.2372    0.1373    1.8257 H   0  0  0  0  0  0  0  0  0  0  0  0
   -1.2351   -0.6039   -0.1907 C   0  0  0  0  0  0  0  0  0  0  0  0
   -0.0617    0.2757   -0.3391 N   0  0  0  0  0  0  0  0  0  0  0  0
   -0.0806    1.6314   -0.0495 C   0  0  0  0  0  0  0  0  0  0  0  0
   -1.1594    2.4906    0.1401 C   0  0  0  0  0  0  0  0  0  0  0  0
   -0.9236    3.7926    0.5002 C   0  0  0  0  0  0  0  0  0  0  0  0
    0.3868    4.2494    0.5891 C   0  0  0  0  0  0  0  0  0  0  0  0
    1.4557    3.4187    0.2995 C   0  0  0  0  0  0  0  0  0  0  0  0
    1.2270    2.0956   -0.0467 C   0  0  0  0  0  0  0  0  0  0  0  0
    2.0117    1.0100   -0.4237 N   0  0  0  0  0  0  0  0  0  0  0  0
    2.9779    1.0122   -0.5084 H   0  0  0  0  0  0  0  0  0  0  0  0
    1.2006   -0.0506   -0.6522 C   0  0  0  0  0  0  0  0  0  0  0  0
    1.7090   -1.5730   -1.2478 S   0  0  0  0  0  0  0  0  0  0  0  0
    0.6876    5.8895    1.0721 Cl  0  0  0  0  0  0  0  0  0  0  0  0
   -2.5258    1.9225   -0.1495 C   0  0  0  0  0  0  0  0  0  0  0  0
   -4.2654    0.4508    0.6349 C   0  0  0  0  0  0  0  0  0  0  0  0
   -5.2407    1.5891    0.7907 C   0  0  0  0  0  0  0  0  0  0  0  0
   -6.0780    1.8712   -0.1764 C   0  0  0  0  0  0  0  0  0  0  0  0
   -6.0660    1.0574   -1.4448 C   0  0  0  0  0  0  0  0  0  0  0  0
   -7.0533    3.0094   -0.0207 C   0  0  0  0  0  0  0  0  0  0  0  0
   -3.4476   -1.7226    0.8651 H   0  0  0  0  0  0  0  0  0  0  0  0
   -2.0677   -2.1557    1.9027 H   0  0  0  0  0  0  0  0  0  0  0  0
   -3.3245   -1.0504    2.5087 H   0  0  0  0  0  0  0  0  0  0  0  0
   -1.8902   -0.4975   -1.0553 H   0  0  0  0  0  0  0  0  0  0  0  0
   -0.9120   -1.6404   -0.0941 H   0  0  0  0  0  0  0  0  0  0  0  0
   -1.7480    4.4570    0.7132 H   0  0  0  0  0  0  0  0  0  0  0  0
    2.4651    3.8002    0.3427 H   0  0  0  0  0  0  0  0  0  0  0  0
   -3.2572    2.7307   -0.1530 H   0  0  0  0  0  0  0  0  0  0  0  0
   -2.5154    1.4434   -1.1285 H   0  0  0  0  0  0  0  0  0  0  0  0
   -4.3434    0.0408   -0.3720 H   0  0  0  0  0  0  0  0  0  0  0  0
   -4.4957   -0.3271    1.3629 H   0  0  0  0  0  0  0  0  0  0  0  0
   -5.2493    2.1722    1.6997 H   0  0  0  0  0  0  0  0  0  0  0  0
   -6.2774    0.0144   -1.2093 H   0  0  0  0  0  0  0  0  0  0  0  0
   -6.8264    1.4372   -2.1273 H   0  0  0  0  0  0  0  0  0  0  0  0
   -5.0856    1.1322   -1.9152 H   0  0  0  0  0  0  0  0  0  0  0  0
   -6.6003    3.9292   -0.3906 H   0  0  0  0  0  0  0  0  0  0  0  0
   -7.9569    2.7944   -0.5912 H   0  0  0  0  0  0  0  0  0  0  0  0
   -7.3082    3.1280    1.0325 H   0  0  0  0  0  0  0  0  0  0  0  0
   -2.9292    0.9687    0.9237 N   0  3  1  0  0  0  0  0  0  0  0  0
   -2.9605    1.4832    1.8116 H   0  0  0  0  0  0  0  0  0  0  0  0
  1  2  1  0  0  0  0
  1 23  1  0  0  0  0
  1 24  1  0  0  0  0
  1 25  1  0  0  0  0
  2  3  1  0  0  0  0
  2  4  1  0  0  0  0
  2 41  1  0  0  0  0
  4  5  1  0  0  0  0
  4 26  1  0  0  0  0
  4 27  1  0  0  0  0
  5 14  1  0  0  0  0
  5  6  1  0  0  0  0
  6 11  2  0  0  0  0
  6  7  1  0  0  0  0
  7  8  2  0  0  0  0
  7 17  1  0  0  0  0
  8  9  1  0  0  0  0
  8 28  1  0  0  0  0
  9 10  2  0  0  0  0
  9 16  1  0  0  0  0
 10 11  1  0  0  0  0
 10 29  1  0  0  0  0
 11 12  1  0  0  0  0
 12 13  1  0  0  0  0
 12 14  1  0  0  0  0
 14 15  2  0  0  0  0
 17 30  1  0  0  0  0
 17 31  1  0  0  0  0
 17 41  1  0  0  0  0
 18 19  1  0  0  0  0
 18 32  1  0  0  0  0
 18 33  1  0  0  0  0
 18 41  1  0  0  0  0
 19 20  2  0  0  0  0
 19 34  1  0  0  0  0
 20 21  1  0  0  0  0
 20 22  1  0  0  0  0
 21 35  1  0  0  0  0
 21 36  1  0  0  0  0
 21 37  1  0  0  0  0
 22 38  1  0  0  0  0
 22 39  1  0  0  0  0
 22 40  1  0  0  0  0
 41 42  1  0  0  0  0
M  CHG  1  41   1
M  END
$$$$
ZINC04641371
  -OEChem-08230709403D

 61 64  0     0  0  0  0  0  0999 V2000
   -0.0528    1.1452    2.0117 C   0  0  0  0  0  0  0  0  0  0  0  0
   -1.2447    1.7537    1.2701 C   0  0  0  0  0  0  0  0  0  0  0  0
   -2.2433    2.3156    2.2839 C   0  0  0  0  0  0  0  0  0  0  0  0
   -0.7770    2.8323    0.3959 N   0  0  0  0  0  0  0  0  0  0  0  0
   -0.3011    2.5368   -0.8872 C   0  0  0  0  0  0  0  0  0  0  0  0
   -0.1584    1.2187   -1.3001 C   0  0  0  0  0  0  0  0  0  0  0  0
    0.3221    0.9750   -2.5797 C   0  0  0  0  0  0  0  0  0  0  0  0
    0.6307    2.0399   -3.4014 C   0  0  0  0  0  0  0  0  0  0  0  0
    0.0316    3.5637   -1.7743 C   0  0  0  0  0  0  0  0  0  0  0  0
   -0.1104    4.8916   -1.3788 N   0  0  0  0  0  0  0  0  0  0  0  0
   -1.1256    5.5768   -2.1898 C   0  0  0  0  0  0  0  0  0  0  0  0
   -1.3813    6.9721   -1.6102 C   0  0  0  0  0  0  0  0  0  0  0  0
   -0.0943    7.6755   -1.5005 N   0  0  0  0  0  0  0  0  0  0  0  0
    1.0160    6.9928   -0.8190 C   0  0  0  0  0  0  0  0  0  0  0  0
    1.1773    5.5967   -1.4298 C   0  0  0  0  0  0  0  0  0  0  0  0
    0.0633    8.9130   -2.0106 C   0  0  0  0  0  0  0  0  0  0  0  0
   -0.8693    9.4676   -2.5605 O   0  0  0  0  0  0  0  0  0  0  0  0
    1.3628    9.5929   -1.9023 C   0  0  0  0  0  0  0  0  0  0  0  0
    1.8190   10.5584   -2.7426 C   0  0  0  0  0  0  0  0  0  0  0  0
    3.1031   10.9505   -2.2930 C   0  0  0  0  0  0  0  0  0  0  0  0
    4.0367   11.8890   -2.7530 C   0  0  0  0  0  0  0  0  0  0  0  0
    5.2356   12.0424   -2.0868 C   0  0  0  0  0  0  0  0  0  0  0  0
    5.5198   11.2688   -0.9609 C   0  0  0  0  0  0  0  0  0  0  0  0
    4.6116   10.3442   -0.4994 C   0  0  0  0  0  0  0  0  0  0  0  0
    3.3961   10.1731   -1.1562 C   0  0  0  0  0  0  0  0  0  0  0  0
    2.3164    9.3476   -0.9339 N   0  0  0  0  0  0  0  0  0  0  0  0
    2.2384    8.7006   -0.2154 H   0  0  0  0  0  0  0  0  0  0  0  0
    6.1710   12.9781   -2.5431 N   0  0  0  0  0  0  0  0  0  0  0  0
    7.7708   12.5643   -2.6517 S   0  0  0  0  0  0  0  0  0  0  0  0
    8.4187   13.7401   -3.1175 O   0  0  0  0  0  0  0  0  0  0  0  0
    8.0907   12.0162   -1.3803 O   0  0  0  0  0  0  0  0  0  0  0  0
    7.8327   11.2716   -3.9228 C   0  0  0  0  0  0  0  0  0  0  0  0
    0.4329    1.9146    2.6120 H   0  0  0  0  0  0  0  0  0  0  0  0
   -0.4007    0.3427    2.6621 H   0  0  0  0  0  0  0  0  0  0  0  0
    0.6587    0.7449    1.2895 H   0  0  0  0  0  0  0  0  0  0  0  0
   -1.7304    0.9843    0.6699 H   0  0  0  0  0  0  0  0  0  0  0  0
   -3.0925    2.7491    1.7556 H   0  0  0  0  0  0  0  0  0  0  0  0
   -2.5913    1.5131    2.9343 H   0  0  0  0  0  0  0  0  0  0  0  0
   -1.7577    3.0850    2.8842 H   0  0  0  0  0  0  0  0  0  0  0  0
   -0.7971    3.7511    0.7061 H   0  0  0  0  0  0  0  0  0  0  0  0
   -0.4111    0.4023   -0.6398 H   0  0  0  0  0  0  0  0  0  0  0  0
    0.4490   -0.0386   -2.9303 H   0  0  0  0  0  0  0  0  0  0  0  0
    1.0000    1.8526   -4.3988 H   0  0  0  0  0  0  0  0  0  0  0  0
   -0.7700    5.6689   -3.2160 H   0  0  0  0  0  0  0  0  0  0  0  0
   -2.0515    5.0017   -2.1755 H   0  0  0  0  0  0  0  0  0  0  0  0
   -1.8342    6.8811   -0.6229 H   0  0  0  0  0  0  0  0  0  0  0  0
   -2.0479    7.5289   -2.2688 H   0  0  0  0  0  0  0  0  0  0  0  0
    0.7936    6.9038    0.2444 H   0  0  0  0  0  0  0  0  0  0  0  0
    1.9367    7.5603   -0.9542 H   0  0  0  0  0  0  0  0  0  0  0  0
    1.9216    5.0361   -0.8643 H   0  0  0  0  0  0  0  0  0  0  0  0
    1.5009    5.6885   -2.4666 H   0  0  0  0  0  0  0  0  0  0  0  0
    1.2952   10.9566   -3.5990 H   0  0  0  0  0  0  0  0  0  0  0  0
    3.8190   12.4892   -3.6240 H   0  0  0  0  0  0  0  0  0  0  0  0
    6.4609   11.3972   -0.4469 H   0  0  0  0  0  0  0  0  0  0  0  0
    4.8417    9.7510    0.3732 H   0  0  0  0  0  0  0  0  0  0  0  0
    5.8823   13.8690   -2.7957 H   0  0  0  0  0  0  0  0  0  0  0  0
    7.4543   11.6695   -4.8644 H   0  0  0  0  0  0  0  0  0  0  0  0
    8.8630   10.9417   -4.0557 H   0  0  0  0  0  0  0  0  0  0  0  0
    7.2179   10.4268   -3.6121 H   0  0  0  0  0  0  0  0  0  0  0  0
    0.4991    3.3443   -3.0358 N   0  3  0  0  0  0  0  0  0  0  0  0
    0.7373    4.1152   -3.6708 H   0  0  0  0  0  0  0  0  0  0  0  0
  1  2  1  0  0  0  0
  1 33  1  0  0  0  0
  1 34  1  0  0  0  0
  1 35  1  0  0  0  0
  2  3  1  0  0  0  0
  2  4  1  0  0  0  0
  2 36  1  0  0  0  0
  3 37  1  0  0  0  0
  3 38  1  0  0  0  0
  3 39  1  0  0  0  0
  4  5  1  0  0  0  0
  4 40  1  0  0  0  0
  5  9  2  0  0  0  0
  5  6  1  0  0  0  0
  6  7  2  0  0  0  0
  6 41  1  0  0  0  0
  7  8  1  0  0  0  0
  7 42  1  0  0  0  0
  8 43  1  0  0  0  0
  8 60  2  0  0  0  0
  9 10  1  0  0  0  0
  9 60  1  0  0  0  0
 10 15  1  0  0  0  0
 10 11  1  0  0  0  0
 11 12  1  0  0  0  0
 11 44  1  0  0  0  0
 11 45  1  0  0  0  0
 12 13  1  0  0  0  0
 12 46  1  0  0  0  0
 12 47  1  0  0  0  0
 13 14  1  0  0  0  0
 13 16  1  0  0  0  0
 14 15  1  0  0  0  0
 14 48  1  0  0  0  0
 14 49  1  0  0  0  0
 15 50  1  0  0  0  0
 15 51  1  0  0  0  0
 16 17  2  0  0  0  0
 16 18  1  0  0  0  0
 18 26  1  0  0  0  0
 18 19  2  0  0  0  0
 19 20  1  0  0  0  0
 19 52  1  0  0  0  0
 20 25  2  0  0  0  0
 20 21  1  0  0  0  0
 21 22  2  0  0  0  0
 21 53  1  0  0  0  0
 22 23  1  0  0  0  0
 22 28  1  0  0  0  0
 23 24  2  0  0  0  0
 23 54  1  0  0  0  0
 24 25  1  0  0  0  0
 24 55  1  0  0  0  0
 25 26  1  0  0  0  0
 26 27  1  0  0  0  0
 28 29  1  0  0  0  0
 28 56  1  0  0  0  0
 29 30  2  0  0  0  0
 29 31  2  0  0  0  0
 29 32  1  0  0  0  0
 32 57  1  0  0  0  0
 32 58  1  0  0  0  0
 32 59  1  0  0  0  0
 60 61  1  0  0  0  0
M  CHG  1  60   1
M  END
$$$$
