ZINC00041692
  -OEChem-08230709403D

 30 32  0     0  0  0  0  0  0999 V2000
    1.7949    4.2883    0.9346 C   0  0  0  0  0  0  0  0  0  0  0  0
    1.7324    5.6662    0.9357 C   0  0  0  0  0  0  0  0  0  0  0  0
    0.9197    6.3263    0.0244 C   0  0  0  0  0  0  0  0  0  0  0  0
    0.1712    5.6027   -0.8937 C   0  0  0  0  0  0  0  0  0  0  0  0
    0.2334    4.2248   -0.9033 C   0  0  0  0  0  0  0  0  0  0  0  0
    1.0489    3.5590    0.0102 C   0  0  0  0  0  0  0  0  0  0  0  0
    1.1181    2.0774    0.0025 C   0  0  0  0  0  0  0  0  0  0  0  0
   -0.0160    1.3317    0.0094 C   0  0  0  0  0  0  0  0  0  0  0  0
    0.0021   -0.0041    0.0020 O   0  0  0  0  0  0  0  0  0  0  0  0
    1.1389   -0.7285   -0.0128 C   0  0  0  0  0  0  0  0  0  0  0  0
    1.0904   -2.1152   -0.0203 C   0  0  0  0  0  0  0  0  0  0  0  0
    2.2639   -2.8518   -0.0363 C   0  0  0  0  0  0  0  0  0  0  0  0
    3.5013   -2.2164   -0.0451 C   0  0  0  0  0  0  0  0  0  0  0  0
    3.5719   -0.8360   -0.0374 C   0  0  0  0  0  0  0  0  0  0  0  0
    2.3891   -0.0848   -0.0212 C   0  0  0  0  0  0  0  0  0  0  0  0
    2.4195    1.3863   -0.0131 C   0  0  0  0  0  0  0  0  0  0  0  0
    3.4709    2.0037   -0.0199 O   0  0  0  0  0  0  0  0  0  0  0  0
    4.7775   -0.2131   -0.0451 O   0  0  0  0  0  0  0  0  0  0  0  0
    2.2054   -4.2079   -0.0436 O   0  0  0  0  0  0  0  0  0  0  0  0
    0.8563    7.6839    0.0314 O   0  0  0  0  0  0  0  0  0  0  0  0
    2.4243    3.7751    1.6466 H   0  0  0  0  0  0  0  0  0  0  0  0
    2.3131    6.2319    1.6493 H   0  0  0  0  0  0  0  0  0  0  0  0
   -0.4602    6.1191   -1.6015 H   0  0  0  0  0  0  0  0  0  0  0  0
   -0.3495    3.6624   -1.6177 H   0  0  0  0  0  0  0  0  0  0  0  0
   -0.9700    1.8379    0.0166 H   0  0  0  0  0  0  0  0  0  0  0  0
    0.1363   -2.6213   -0.0136 H   0  0  0  0  0  0  0  0  0  0  0  0
    4.4083   -2.8026   -0.0577 H   0  0  0  0  0  0  0  0  0  0  0  0
    5.1354   -0.0382    0.8361 H   0  0  0  0  0  0  0  0  0  0  0  0
    2.1973   -4.6060    0.8377 H   0  0  0  0  0  0  0  0  0  0  0  0
    0.1672    8.0425    0.6073 H   0  0  0  0  0  0  0  0  0  0  0  0
  1  6  2  0  0  0  0
  1  2  1  0  0  0  0
  1 21  1  0  0  0  0
  2  3  2  0  0  0  0
  2 22  1  0  0  0  0
  3  4  1  0  0  0  0
  3 20  1  0  0  0  0
  4  5  2  0  0  0  0
  4 23  1  0  0  0  0
  5  6  1  0  0  0  0
  5 24  1  0  0  0  0
  6  7  1  0  0  0  0
  7 16  1  0  0  0  0
  7  8  2  0  0  0  0
  8  9  1  0  0  0  0
  8 25  1  0  0  0  0
  9 10  1  0  0  0  0
 10 15  2  0  0  0  0
 10 11  1  0  0  0  0
 11 12  2  0  0  0  0
 11 26  1  0  0  0  0
 12 13  1  0  0  0  0
 12 19  1  0  0  0  0
 13 14  2  0  0  0  0
 13 27  1  0  0  0  0
 14 15  1  0  0  0  0
 14 18  1  0  0  0  0
 15 16  1  0  0  0  0
 16 17  2  0  0  0  0
 18 28  1  0  0  0  0
 19 29  1  0  0  0  0
 20 30  1  0  0  0  0
M  END
$$$$
ZINC01320014
  -OEChem-08230709403D

 62 64  0     1  0  0  0  0  0999 V2000
    4.1847   -6.2112   -2.3644 C   0  0  0  0  0  0  0  0  0  0  0  0
    3.3933   -4.9082   -2.4941 C   0  0  0  0  0  0  0  0  0  0  0  0
    2.1281   -4.9926   -1.6380 C   0  0  1  0  0  0  0  0  0  0  0  0
    1.5574   -5.8776   -1.9194 H   0  0  0  0  0  0  0  0  0  0  0  0
    2.5168   -5.0848   -0.1611 C   0  0  0  0  0  0  0  0  0  0  0  0
    1.2880   -3.7614   -1.8604 C   0  0  0  0  0  0  0  0  0  0  0  0
    1.6628   -2.9043   -2.6252 O   0  0  0  0  0  0  0  0  0  0  0  0
    0.1234   -3.6169   -1.2089 O   0  0  0  0  0  0  0  0  0  0  0  0
   -0.6333   -2.4058   -1.4720 C   0  0  1  0  0  0  0  0  0  0  0  0
    0.0618   -1.5971   -1.6975 H   0  0  0  0  0  0  0  0  0  0  0  0
   -1.4983   -2.6360   -2.6834 C   0  0  0  0  0  0  0  0  0  0  0  0
   -2.4870   -3.7652   -2.3620 C   0  0  0  0  0  0  0  0  0  0  0  0
   -3.3364   -3.3156   -1.2014 C   0  0  0  0  0  0  0  0  0  0  0  0
   -2.8473   -2.5198   -0.2685 C   0  0  0  0  0  0  0  0  0  0  0  0
   -1.4254   -2.0434   -0.2380 C   0  0  2  0  0  0  0  0  0  0  0  0
   -0.9393   -2.5145    0.6164 H   0  0  0  0  0  0  0  0  0  0  0  0
   -1.4333   -0.5336    0.0129 C   0  0  1  0  0  0  0  0  0  0  0  0
   -2.0122   -0.0367   -0.7656 H   0  0  0  0  0  0  0  0  0  0  0  0
   -2.0697   -0.2631    1.3772 C   0  0  1  0  0  0  0  0  0  0  0  0
   -2.2327    0.8091    1.4872 H   0  0  0  0  0  0  0  0  0  0  0  0
   -3.3782   -0.9785    1.5282 C   0  0  0  0  0  0  0  0  0  0  0  0
   -3.7482   -2.0121    0.7922 C   0  0  0  0  0  0  0  0  0  0  0  0
   -1.1156   -0.7364    2.4757 C   0  0  0  0  0  0  0  0  0  0  0  0
    0.0021   -0.0041    0.0020 C   0  0  0  0  0  0  0  0  0  0  0  0
   -0.0136    1.5156    0.1791 C   0  0  0  0  0  0  0  0  0  0  0  0
    1.4217    2.0452    0.1682 C   0  0  1  0  0  0  0  0  0  0  0  0
    1.9239    1.7176   -0.7421 H   0  0  0  0  0  0  0  0  0  0  0  0
    1.4029    3.5753    0.2198 C   0  0  0  0  0  0  0  0  0  0  0  0
    2.8416    4.0997    0.2623 C   0  0  2  0  0  0  0  0  0  0  0  0
    3.3761    3.7712   -0.6291 H   0  0  0  0  0  0  0  0  0  0  0  0
    3.5374    3.5455    1.5115 C   0  0  0  0  0  0  0  0  0  0  0  0
    3.3729    2.0416    1.5218 C   0  0  0  0  0  0  0  0  0  0  0  0
    4.3213    1.3139    1.6978 O   0  0  0  0  0  0  0  0  0  0  0  0
    2.1366    1.5364    1.3293 O   0  0  0  0  0  0  0  0  0  0  0  0
    2.8289    5.5277    0.3133 O   0  0  0  0  0  0  0  0  0  0  0  0
    4.4613   -6.3660   -1.3216 H   0  0  0  0  0  0  0  0  0  0  0  0
    3.5705   -7.0447   -2.7050 H   0  0  0  0  0  0  0  0  0  0  0  0
    5.0861   -6.1510   -2.9743 H   0  0  0  0  0  0  0  0  0  0  0  0
    3.1167   -4.7533   -3.5370 H   0  0  0  0  0  0  0  0  0  0  0  0
    4.0075   -4.0746   -2.1535 H   0  0  0  0  0  0  0  0  0  0  0  0
    3.1245   -5.9753   -0.0002 H   0  0  0  0  0  0  0  0  0  0  0  0
    3.0876   -4.1998    0.1203 H   0  0  0  0  0  0  0  0  0  0  0  0
    1.6155   -5.1449    0.4488 H   0  0  0  0  0  0  0  0  0  0  0  0
   -0.8801   -2.9205   -3.5348 H   0  0  0  0  0  0  0  0  0  0  0  0
   -2.0465   -1.7230   -2.9158 H   0  0  0  0  0  0  0  0  0  0  0  0
   -1.9406   -4.6687   -2.0915 H   0  0  0  0  0  0  0  0  0  0  0  0
   -3.1192   -3.9614   -3.2280 H   0  0  0  0  0  0  0  0  0  0  0  0
   -4.3612   -3.6492   -1.1319 H   0  0  0  0  0  0  0  0  0  0  0  0
   -4.0628   -0.6251    2.2851 H   0  0  0  0  0  0  0  0  0  0  0  0
   -4.7038   -2.4852    0.9638 H   0  0  0  0  0  0  0  0  0  0  0  0
   -0.1730   -0.1949    2.3963 H   0  0  0  0  0  0  0  0  0  0  0  0
   -1.5625   -0.5467    3.4516 H   0  0  0  0  0  0  0  0  0  0  0  0
   -0.9317   -1.8047    2.3617 H   0  0  0  0  0  0  0  0  0  0  0  0
    0.4745   -0.2543   -0.9479 H   0  0  0  0  0  0  0  0  0  0  0  0
    0.5634   -0.4591    0.8180 H   0  0  0  0  0  0  0  0  0  0  0  0
   -0.5750    1.9706   -0.6370 H   0  0  0  0  0  0  0  0  0  0  0  0
   -0.4861    1.7658    1.1289 H   0  0  0  0  0  0  0  0  0  0  0  0
    0.9006    3.9630   -0.6664 H   0  0  0  0  0  0  0  0  0  0  0  0
    0.8701    3.9026    1.1126 H   0  0  0  0  0  0  0  0  0  0  0  0
    4.5972    3.7987    1.4842 H   0  0  0  0  0  0  0  0  0  0  0  0
    3.0812    3.9713    2.4052 H   0  0  0  0  0  0  0  0  0  0  0  0
    3.7086    5.9281    0.3421 H   0  0  0  0  0  0  0  0  0  0  0  0
  1  2  1  0  0  0  0
  1 36  1  0  0  0  0
  1 37  1  0  0  0  0
  1 38  1  0  0  0  0
  2  3  1  0  0  0  0
  2 39  1  0  0  0  0
  2 40  1  0  0  0  0
  3  4  1  0  0  0  0
  3  5  1  0  0  0  0
  3  6  1  0  0  0  0
  5 41  1  0  0  0  0
  5 42  1  0  0  0  0
  5 43  1  0  0  0  0
  6  7  2  0  0  0  0
  6  8  1  0  0  0  0
  8  9  1  0  0  0  0
  9 10  1  0  0  0  0
  9 15  1  0  0  0  0
  9 11  1  0  0  0  0
 11 12  1  0  0  0  0
 11 44  1  0  0  0  0
 11 45  1  0  0  0  0
 12 13  1  0  0  0  0
 12 46  1  0  0  0  0
 12 47  1  0  0  0  0
 13 14  2  0  0  0  0
 13 48  1  0  0  0  0
 14 22  1  0  0  0  0
 14 15  1  0  0  0  0
 15 16  1  0  0  0  0
 15 17  1  0  0  0  0
 17 18  1  0  0  0  0
 17 19  1  0  0  0  0
 17 24  1  0  0  0  0
 19 20  1  0  0  0  0
 19 21  1  0  0  0  0
 19 23  1  0  0  0  0
 21 22  2  0  0  0  0
 21 49  1  0  0  0  0
 22 50  1  0  0  0  0
 23 51  1  0  0  0  0
 23 52  1  0  0  0  0
 23 53  1  0  0  0  0
 24 25  1  0  0  0  0
 24 54  1  0  0  0  0
 24 55  1  0  0  0  0
 25 26  1  0  0  0  0
 25 56  1  0  0  0  0
 25 57  1  0  0  0  0
 26 27  1  0  0  0  0
 26 34  1  0  0  0  0
 26 28  1  0  0  0  0
 28 29  1  0  0  0  0
 28 58  1  0  0  0  0
 28 59  1  0  0  0  0
 29 30  1  0  0  0  0
 29 31  1  0  0  0  0
 29 35  1  0  0  0  0
 31 32  1  0  0  0  0
 31 60  1  0  0  0  0
 31 61  1  0  0  0  0
 32 33  2  0  0  0  0
 32 34  1  0  0  0  0
 35 62  1  0  0  0  0
M  END
$$$$
ZINC01530640
  -OEChem-08230709403D

 55 57  0     1  0  0  0  0  0999 V2000
    2.1076   -0.6512    0.5936 C   0  0  0  0  0  0  0  0  0  0  0  0
    2.6818    0.3200   -0.4399 C   0  0  0  0  0  0  0  0  0  0  0  0
    2.0534    0.0404   -1.8066 C   0  0  0  0  0  0  0  0  0  0  0  0
    2.3816    1.6960   -0.0366 N   0  0  0  0  0  0  0  0  0  0  0  0
    1.1139    2.2081    0.1401 C   0  0  0  0  0  0  0  0  0  0  0  0
   -0.1572    1.6557    0.0102 C   0  0  0  0  0  0  0  0  0  0  0  0
   -1.2698    2.4312    0.2532 C   0  0  0  0  0  0  0  0  0  0  0  0
   -1.1374    3.7581    0.6384 C   0  0  0  0  0  0  0  0  0  0  0  0
    0.1008    4.3207    0.7719 C   0  0  0  0  0  0  0  0  0  0  0  0
    1.2413    3.5545    0.5250 C   0  0  0  0  0  0  0  0  0  0  0  0
    2.6826    3.8370    0.5731 C   0  0  0  0  0  0  0  0  0  0  0  0
    3.3238    2.6649    0.2208 C   0  0  0  0  0  0  0  0  0  0  0  0
    4.7787    2.4825    0.1347 C   0  0  0  0  0  0  0  0  0  0  0  0
    5.5034    3.2749   -0.6521 C   0  0  0  0  0  0  0  0  0  0  0  0
    7.0065    3.1661   -0.6520 C   0  0  1  0  0  0  0  0  0  0  0  0
    7.3146    2.3907    0.0494 H   0  0  0  0  0  0  0  0  0  0  0  0
    7.4918    2.8046   -2.0573 C   0  0  0  0  0  0  0  0  0  0  0  0
    9.0038    2.5719   -2.0305 C   0  0  1  0  0  0  0  0  0  0  0  0
    9.2421    1.8174   -1.2809 H   0  0  0  0  0  0  0  0  0  0  0  0
    9.4700    2.0898   -3.4057 C   0  0  0  0  0  0  0  0  0  0  0  0
   10.9354    1.7435   -3.3464 C   0  0  0  0  0  0  0  0  0  0  0  0
   11.5445    1.8695   -2.3105 O   0  0  0  0  0  0  0  0  0  0  0  0
    9.6681    3.7943   -1.7039 O   0  0  0  0  0  0  0  0  0  0  0  0
    7.5746    4.4170   -0.2590 O   0  0  0  0  0  0  0  0  0  0  0  0
    3.3214    5.1231    0.9296 C   0  0  0  0  0  0  0  0  0  0  0  0
    4.0807    5.2283    2.0959 C   0  0  0  0  0  0  0  0  0  0  0  0
    4.6788    6.4281    2.4205 C   0  0  0  0  0  0  0  0  0  0  0  0
    4.5173    7.5308    1.5970 C   0  0  0  0  0  0  0  0  0  0  0  0
    3.7596    7.4333    0.4409 C   0  0  0  0  0  0  0  0  0  0  0  0
    3.1619    6.2368    0.1038 C   0  0  0  0  0  0  0  0  0  0  0  0
    5.1010    8.7050    1.9223 F   0  0  0  0  0  0  0  0  0  0  0  0
    1.0276   -0.5183    0.6563 H   0  0  0  0  0  0  0  0  0  0  0  0
    2.3310   -1.6750    0.2936 H   0  0  0  0  0  0  0  0  0  0  0  0
    2.5553   -0.4520    1.5673 H   0  0  0  0  0  0  0  0  0  0  0  0
    3.7618    0.1872   -0.5026 H   0  0  0  0  0  0  0  0  0  0  0  0
    2.4624    0.7323   -2.5429 H   0  0  0  0  0  0  0  0  0  0  0  0
    2.2768   -0.9834   -2.1067 H   0  0  0  0  0  0  0  0  0  0  0  0
    0.9733    0.1733   -1.7439 H   0  0  0  0  0  0  0  0  0  0  0  0
   -0.2711    0.6230   -0.2846 H   0  0  0  0  0  0  0  0  0  0  0  0
   -2.2547    2.0011    0.1469 H   0  0  0  0  0  0  0  0  0  0  0  0
   -2.0193    4.3514    0.8296 H   0  0  0  0  0  0  0  0  0  0  0  0
    0.1968    5.3549    1.0680 H   0  0  0  0  0  0  0  0  0  0  0  0
    5.2605    1.7056    0.7097 H   0  0  0  0  0  0  0  0  0  0  0  0
    5.0143    3.9956   -1.2906 H   0  0  0  0  0  0  0  0  0  0  0  0
    6.9904    1.8967   -2.3925 H   0  0  0  0  0  0  0  0  0  0  0  0
    7.2618    3.6207   -2.7422 H   0  0  0  0  0  0  0  0  0  0  0  0
    8.8994    1.2068   -3.6938 H   0  0  0  0  0  0  0  0  0  0  0  0
    9.3127    2.8796   -4.1402 H   0  0  0  0  0  0  0  0  0  0  0  0
    9.5009    4.5122   -2.3298 H   0  0  0  0  0  0  0  0  0  0  0  0
    7.3419    5.1544   -0.8397 H   0  0  0  0  0  0  0  0  0  0  0  0
    4.2035    4.3706    2.7407 H   0  0  0  0  0  0  0  0  0  0  0  0
    5.2706    6.5093    3.3202 H   0  0  0  0  0  0  0  0  0  0  0  0
    3.6366    8.2959   -0.1973 H   0  0  0  0  0  0  0  0  0  0  0  0
    2.5713    6.1620   -0.7973 H   0  0  0  0  0  0  0  0  0  0  0  0
   11.5641    1.2952   -4.4443 O   0  5  0  0  0  0  0  0  0  0  0  0
  1  2  1  0  0  0  0
  1 32  1  0  0  0  0
  1 33  1  0  0  0  0
  1 34  1  0  0  0  0
  2  3  1  0  0  0  0
  2  4  1  0  0  0  0
  2 35  1  0  0  0  0
  3 36  1  0  0  0  0
  3 37  1  0  0  0  0
  3 38  1  0  0  0  0
  4 12  1  0  0  0  0
  4  5  1  0  0  0  0
  5 10  2  0  0  0  0
  5  6  1  0  0  0  0
  6  7  2  0  0  0  0
  6 39  1  0  0  0  0
  7  8  1  0  0  0  0
  7 40  1  0  0  0  0
  8  9  2  0  0  0  0
  8 41  1  0  0  0  0
  9 10  1  0  0  0  0
  9 42  1  0  0  0  0
 10 11  1  0  0  0  0
 11 12  2  0  0  0  0
 11 25  1  0  0  0  0
 12 13  1  0  0  0  0
 13 14  2  0  0  0  0
 13 43  1  0  0  0  0
 14 15  1  0  0  0  0
 14 44  1  0  0  0  0
 15 16  1  0  0  0  0
 15 17  1  0  0  0  0
 15 24  1  0  0  0  0
 17 18  1  0  0  0  0
 17 45  1  0  0  0  0
 17 46  1  0  0  0  0
 18 19  1  0  0  0  0
 18 20  1  0  0  0  0
 18 23  1  0  0  0  0
 20 21  1  0  0  0  0
 20 47  1  0  0  0  0
 20 48  1  0  0  0  0
 21 22  2  0  0  0  0
 21 55  1  0  0  0  0
 23 49  1  0  0  0  0
 24 50  1  0  0  0  0
 25 30  2  0  0  0  0
 25 26  1  0  0  0  0
 26 27  2  0  0  0  0
 26 51  1  0  0  0  0
 27 28  1  0  0  0  0
 27 52  1  0  0  0  0
 28 29  2  0  0  0  0
 28 31  1  0  0  0  0
 29 30  1  0  0  0  0
 29 53  1  0  0  0  0
 30 54  1  0  0  0  0
M  CHG  1  55  -1
M  END
$$$$
ZINC03779707
  -OEChem-08230709403D

 66 67  0     1  0  0  0  0  0999 V2000
    2.2192    2.9083    3.0181 C   0  0  0  0  0  0  0  0  0  0  0  0
    1.4341    1.7083    2.4847 C   0  0  0  0  0  0  0  0  0  0  0  0
    1.6494    0.5070    3.4074 C   0  0  0  0  0  0  0  0  0  0  0  0
   -0.0331    2.0488    2.4374 C   0  0  0  0  0  0  0  0  0  0  0  0
   -0.7286    1.8862    1.2563 C   0  0  0  0  0  0  0  0  0  0  0  0
   -2.0866    2.2082    1.2167 C   0  0  0  0  0  0  0  0  0  0  0  0
   -2.6913    2.6797    2.4003 C   0  0  0  0  0  0  0  0  0  0  0  0
   -1.9089    2.8106    3.5463 C   0  0  0  0  0  0  0  0  0  0  0  0
   -0.6297    2.4966    3.5262 N   0  0  0  0  0  0  0  0  0  0  0  0
   -2.5325    3.3169    4.8213 C   0  0  0  0  0  0  0  0  0  0  0  0
   -2.3901    2.2564    5.9149 C   0  0  0  0  0  0  0  0  0  0  0  0
   -1.8251    4.6005    5.2604 C   0  0  0  0  0  0  0  0  0  0  0  0
   -4.1248    3.0319    2.4240 C   0  0  0  0  0  0  0  0  0  0  0  0
   -4.9109    2.5492    3.3776 C   0  0  0  0  0  0  0  0  0  0  0  0
   -6.3742    2.9087    3.4018 C   0  0  2  0  0  0  0  0  0  0  0  0
   -6.5899    3.4935    4.2959 H   0  0  0  0  0  0  0  0  0  0  0  0
   -7.2135    1.6295    3.4141 C   0  0  0  0  0  0  0  0  0  0  0  0
   -8.6925    1.9914    3.5642 C   0  0  2  0  0  0  0  0  0  0  0  0
   -8.8272    2.6083    4.4527 H   0  0  0  0  0  0  0  0  0  0  0  0
   -9.5193    0.7114    3.7018 C   0  0  0  0  0  0  0  0  0  0  0  0
  -10.9579    1.0693    3.9723 C   0  0  0  0  0  0  0  0  0  0  0  0
  -11.2881    2.2292    4.0473 O   0  0  0  0  0  0  0  0  0  0  0  0
   -9.1249    2.7162    2.4111 O   0  0  0  0  0  0  0  0  0  0  0  0
   -6.6949    3.6777    2.2408 O   0  0  0  0  0  0  0  0  0  0  0  0
   -2.8704    2.0549   -0.0312 C   0  0  0  0  0  0  0  0  0  0  0  0
   -2.5762    2.8434   -1.1433 C   0  0  0  0  0  0  0  0  0  0  0  0
   -3.3056    2.6937   -2.3044 C   0  0  0  0  0  0  0  0  0  0  0  0
   -4.3362    1.7691   -2.3636 C   0  0  0  0  0  0  0  0  0  0  0  0
   -4.6356    0.9871   -1.2594 C   0  0  0  0  0  0  0  0  0  0  0  0
   -3.9084    1.1258   -0.0956 C   0  0  0  0  0  0  0  0  0  0  0  0
   -5.0509    1.6294   -3.5015 F   0  0  0  0  0  0  0  0  0  0  0  0
   -0.0296    1.3735    0.0236 C   0  0  0  0  0  0  0  0  0  0  0  0
    0.6184    2.4589   -0.6427 O   0  0  0  0  0  0  0  0  0  0  0  0
    1.3149    2.0788   -1.8311 C   0  0  0  0  0  0  0  0  0  0  0  0
    1.8707    3.1536    4.0213 H   0  0  0  0  0  0  0  0  0  0  0  0
    3.2805    2.6620    3.0523 H   0  0  0  0  0  0  0  0  0  0  0  0
    2.0658    3.7641    2.3607 H   0  0  0  0  0  0  0  0  0  0  0  0
    1.7827    1.4629    1.4815 H   0  0  0  0  0  0  0  0  0  0  0  0
    1.0901   -0.3479    3.0274 H   0  0  0  0  0  0  0  0  0  0  0  0
    2.7107    0.2607    3.4416 H   0  0  0  0  0  0  0  0  0  0  0  0
    1.3009    0.7524    4.4106 H   0  0  0  0  0  0  0  0  0  0  0  0
   -3.5891    3.5242    4.6516 H   0  0  0  0  0  0  0  0  0  0  0  0
   -2.8941    1.3420    5.6021 H   0  0  0  0  0  0  0  0  0  0  0  0
   -1.3336    2.0491    6.0846 H   0  0  0  0  0  0  0  0  0  0  0  0
   -2.8412    2.6226    6.8372 H   0  0  0  0  0  0  0  0  0  0  0  0
   -1.9265    5.3560    4.4813 H   0  0  0  0  0  0  0  0  0  0  0  0
   -2.2762    4.9667    6.1827 H   0  0  0  0  0  0  0  0  0  0  0  0
   -0.7685    4.3932    5.4301 H   0  0  0  0  0  0  0  0  0  0  0  0
   -4.5336    3.6825    1.6650 H   0  0  0  0  0  0  0  0  0  0  0  0
   -4.5021    1.8986    4.1366 H   0  0  0  0  0  0  0  0  0  0  0  0
   -7.0649    1.0884    2.4797 H   0  0  0  0  0  0  0  0  0  0  0  0
   -6.9064    1.0016    4.2504 H   0  0  0  0  0  0  0  0  0  0  0  0
   -9.4554    0.1365    2.7780 H   0  0  0  0  0  0  0  0  0  0  0  0
   -9.1316    0.1155    4.5281 H   0  0  0  0  0  0  0  0  0  0  0  0
   -9.0336    2.2270    1.5820 H   0  0  0  0  0  0  0  0  0  0  0  0
   -6.5276    3.2186    1.4063 H   0  0  0  0  0  0  0  0  0  0  0  0
   -1.7762    3.5673   -1.0966 H   0  0  0  0  0  0  0  0  0  0  0  0
   -3.0759    3.3010   -3.1675 H   0  0  0  0  0  0  0  0  0  0  0  0
   -5.4399    0.2681   -1.3101 H   0  0  0  0  0  0  0  0  0  0  0  0
   -4.1427    0.5161    0.7645 H   0  0  0  0  0  0  0  0  0  0  0  0
   -0.7603    0.9202   -0.6463 H   0  0  0  0  0  0  0  0  0  0  0  0
    0.7122    0.6281    0.3101 H   0  0  0  0  0  0  0  0  0  0  0  0
    2.0847    1.3480   -1.5831 H   0  0  0  0  0  0  0  0  0  0  0  0
    0.6122    1.6401   -2.5395 H   0  0  0  0  0  0  0  0  0  0  0  0
    1.7792    2.9583   -2.2772 H   0  0  0  0  0  0  0  0  0  0  0  0
  -11.8726    0.0996    4.1299 O   0  5  0  0  0  0  0  0  0  0  0  0
  1  2  1  0  0  0  0
  1 35  1  0  0  0  0
  1 36  1  0  0  0  0
  1 37  1  0  0  0  0
  2  3  1  0  0  0  0
  2  4  1  0  0  0  0
  2 38  1  0  0  0  0
  3 39  1  0  0  0  0
  3 40  1  0  0  0  0
  3 41  1  0  0  0  0
  4  9  2  0  0  0  0
  4  5  1  0  0  0  0
  5  6  2  0  0  0  0
  5 32  1  0  0  0  0
  6  7  1  0  0  0  0
  6 25  1  0  0  0  0
  7  8  2  0  0  0  0
  7 13  1  0  0  0  0
  8  9  1  0  0  0  0
  8 10  1  0  0  0  0
 10 11  1  0  0  0  0
 10 12  1  0  0  0  0
 10 42  1  0  0  0  0
 11 43  1  0  0  0  0
 11 44  1  0  0  0  0
 11 45  1  0  0  0  0
 12 46  1  0  0  0  0
 12 47  1  0  0  0  0
 12 48  1  0  0  0  0
 13 14  2  0  0  0  0
 13 49  1  0  0  0  0
 14 15  1  0  0  0  0
 14 50  1  0  0  0  0
 15 16  1  0  0  0  0
 15 17  1  0  0  0  0
 15 24  1  0  0  0  0
 17 18  1  0  0  0  0
 17 51  1  0  0  0  0
 17 52  1  0  0  0  0
 18 19  1  0  0  0  0
 18 20  1  0  0  0  0
 18 23  1  0  0  0  0
 20 21  1  0  0  0  0
 20 53  1  0  0  0  0
 20 54  1  0  0  0  0
 21 22  2  0  0  0  0
 21 66  1  0  0  0  0
 23 55  1  0  0  0  0
 24 56  1  0  0  0  0
 25 30  2  0  0  0  0
 25 26  1  0  0  0  0
 26 27  2  0  0  0  0
 26 57  1  0  0  0  0
 27 28  1  0  0  0  0
 27 58  1  0  0  0  0
 28 29  2  0  0  0  0
 28 31  1  0  0  0  0
 29 30  1  0  0  0  0
 29 59  1  0  0  0  0
 30 60  1  0  0  0  0
 32 33  1  0  0  0  0
 32 61  1  0  0  0  0
 32 62  1  0  0  0  0
 33 34  1  0  0  0  0
 34 63  1  0  0  0  0
 34 64  1  0  0  0  0
 34 65  1  0  0  0  0
M  CHG  1  66  -1
M  END
$$$$
ZINC03780893
  -OEChem-08230709403D

 68 70  0     1  0  0  0  0  0999 V2000
    0.8984    1.3221    3.2049 C   0  0  0  0  0  0  0  0  0  0  0  0
    1.4609    0.0335    2.6016 C   0  0  0  0  0  0  0  0  0  0  0  0
    1.4839    0.1522    1.0763 C   0  0  0  0  0  0  0  0  0  0  0  0
    2.3671    1.3335    0.6700 C   0  0  0  0  0  0  0  0  0  0  0  0
    0.0611    0.3780    0.5609 C   0  0  0  0  0  0  0  0  0  0  0  0
    2.0379   -1.1171    0.4821 C   0  0  0  0  0  0  0  0  0  0  0  0
    2.5000   -1.9699    1.2024 O   0  0  0  0  0  0  0  0  0  0  0  0
    2.0179   -1.3001   -0.8475 O   0  0  0  0  0  0  0  0  0  0  0  0
    2.4378   -2.5997   -1.3404 C   0  0  1  0  0  0  0  0  0  0  0  0
    3.2666   -2.9592   -0.7306 H   0  0  0  0  0  0  0  0  0  0  0  0
    1.2716   -3.5783   -1.2176 C   0  0  0  0  0  0  0  0  0  0  0  0
    1.6866   -4.9278   -1.7659 C   0  0  2  0  0  0  0  0  0  0  0  0
    2.5514   -5.2907   -1.2104 H   0  0  0  0  0  0  0  0  0  0  0  0
    2.0500   -4.7506   -3.2175 C   0  0  0  0  0  0  0  0  0  0  0  0
    2.5748   -3.6209   -3.6545 C   0  0  0  0  0  0  0  0  0  0  0  0
    2.9053   -2.4559   -2.7694 C   0  0  1  0  0  0  0  0  0  0  0  0
    3.9903   -2.3536   -2.7528 H   0  0  0  0  0  0  0  0  0  0  0  0
    2.3358   -1.2002   -3.4336 C   0  0  2  0  0  0  0  0  0  0  0  0
    1.2642   -1.3234   -3.5902 H   0  0  0  0  0  0  0  0  0  0  0  0
    3.0316   -0.9997   -4.7810 C   0  0  2  0  0  0  0  0  0  0  0  0
    2.5176   -0.2128   -5.3330 H   0  0  0  0  0  0  0  0  0  0  0  0
    3.0235   -2.2545   -5.5998 C   0  0  0  0  0  0  0  0  0  0  0  0
    2.8345   -3.4638   -5.1009 C   0  0  0  0  0  0  0  0  0  0  0  0
    4.4802   -0.5728   -4.5361 C   0  0  0  0  0  0  0  0  0  0  0  0
    2.5908    0.0143   -2.5387 C   0  0  0  0  0  0  0  0  0  0  0  0
    2.4956    1.2925   -3.3742 C   0  0  0  0  0  0  0  0  0  0  0  0
    2.8693    2.4970   -2.5080 C   0  0  2  0  0  0  0  0  0  0  0  0
    2.1952    2.5543   -1.6534 H   0  0  0  0  0  0  0  0  0  0  0  0
    2.7541    3.7790   -3.3373 C   0  0  0  0  0  0  0  0  0  0  0  0
    3.1798    4.9767   -2.4825 C   0  0  2  0  0  0  0  0  0  0  0  0
    3.1027    5.8908   -3.0712 H   0  0  0  0  0  0  0  0  0  0  0  0
    4.6323    4.7768   -2.0328 C   0  0  0  0  0  0  0  0  0  0  0  0
    4.7474    3.4159   -1.3820 C   0  0  0  0  0  0  0  0  0  0  0  0
    5.2788    3.2850   -0.3049 O   0  0  0  0  0  0  0  0  0  0  0  0
    4.2395    2.3524   -2.0392 O   0  0  0  0  0  0  0  0  0  0  0  0
    2.3311    5.0725   -1.3369 O   0  0  0  0  0  0  0  0  0  0  0  0
    0.5331   -5.9248   -1.6382 C   0  0  0  0  0  0  0  0  0  0  0  0
   -0.1152    1.4830    2.8377 H   0  0  0  0  0  0  0  0  0  0  0  0
    0.8820    1.2376    4.2915 H   0  0  0  0  0  0  0  0  0  0  0  0
    1.5276    2.1637    2.9154 H   0  0  0  0  0  0  0  0  0  0  0  0
    0.8316   -0.8081    2.8911 H   0  0  0  0  0  0  0  0  0  0  0  0
    2.4744   -0.1274    2.9688 H   0  0  0  0  0  0  0  0  0  0  0  0
    2.3500    1.4439   -0.4143 H   0  0  0  0  0  0  0  0  0  0  0  0
    1.9907    2.2452    1.1340 H   0  0  0  0  0  0  0  0  0  0  0  0
    3.3899    1.1531    1.0007 H   0  0  0  0  0  0  0  0  0  0  0  0
   -0.5681   -0.4636    0.8504 H   0  0  0  0  0  0  0  0  0  0  0  0
   -0.3396    1.2961    0.9907 H   0  0  0  0  0  0  0  0  0  0  0  0
    0.0775    0.4626   -0.5257 H   0  0  0  0  0  0  0  0  0  0  0  0
    0.9808   -3.6736   -0.1715 H   0  0  0  0  0  0  0  0  0  0  0  0
    0.4259   -3.2171   -1.8029 H   0  0  0  0  0  0  0  0  0  0  0  0
    1.8780   -5.5603   -3.9112 H   0  0  0  0  0  0  0  0  0  0  0  0
    3.1824   -2.1653   -6.6643 H   0  0  0  0  0  0  0  0  0  0  0  0
    2.8535   -4.3268   -5.7500 H   0  0  0  0  0  0  0  0  0  0  0  0
    4.9961   -1.3469   -3.9681 H   0  0  0  0  0  0  0  0  0  0  0  0
    4.9829   -0.4279   -5.4924 H   0  0  0  0  0  0  0  0  0  0  0  0
    4.4937    0.3607   -3.9734 H   0  0  0  0  0  0  0  0  0  0  0  0
    1.8450    0.0432   -1.7443 H   0  0  0  0  0  0  0  0  0  0  0  0
    3.5859   -0.0599   -2.1003 H   0  0  0  0  0  0  0  0  0  0  0  0
    3.1808    1.2260   -4.2193 H   0  0  0  0  0  0  0  0  0  0  0  0
    1.4762    1.4114   -3.7415 H   0  0  0  0  0  0  0  0  0  0  0  0
    3.4023    3.7067   -4.2106 H   0  0  0  0  0  0  0  0  0  0  0  0
    1.7215    3.9115   -3.6604 H   0  0  0  0  0  0  0  0  0  0  0  0
    5.2945    4.8276   -2.8970 H   0  0  0  0  0  0  0  0  0  0  0  0
    4.9045    5.5514   -1.3158 H   0  0  0  0  0  0  0  0  0  0  0  0
    2.5444    5.8108   -0.7500 H   0  0  0  0  0  0  0  0  0  0  0  0
    0.8359   -6.8859   -2.0537 H   0  0  0  0  0  0  0  0  0  0  0  0
    0.2748   -6.0488   -0.5865 H   0  0  0  0  0  0  0  0  0  0  0  0
   -0.3332   -5.5499   -2.1833 H   0  0  0  0  0  0  0  0  0  0  0  0
  1  2  1  0  0  0  0
  1 38  1  0  0  0  0
  1 39  1  0  0  0  0
  1 40  1  0  0  0  0
  2  3  1  0  0  0  0
  2 41  1  0  0  0  0
  2 42  1  0  0  0  0
  3  4  1  0  0  0  0
  3  5  1  0  0  0  0
  3  6  1  0  0  0  0
  4 43  1  0  0  0  0
  4 44  1  0  0  0  0
  4 45  1  0  0  0  0
  5 46  1  0  0  0  0
  5 47  1  0  0  0  0
  5 48  1  0  0  0  0
  6  7  2  0  0  0  0
  6  8  1  0  0  0  0
  8  9  1  0  0  0  0
  9 10  1  0  0  0  0
  9 16  1  0  0  0  0
  9 11  1  0  0  0  0
 11 12  1  0  0  0  0
 11 49  1  0  0  0  0
 11 50  1  0  0  0  0
 12 13  1  0  0  0  0
 12 14  1  0  0  0  0
 12 37  1  0  0  0  0
 14 15  2  0  0  0  0
 14 51  1  0  0  0  0
 15 23  1  0  0  0  0
 15 16  1  0  0  0  0
 16 17  1  0  0  0  0
 16 18  1  0  0  0  0
 18 19  1  0  0  0  0
 18 20  1  0  0  0  0
 18 25  1  0  0  0  0
 20 21  1  0  0  0  0
 20 22  1  0  0  0  0
 20 24  1  0  0  0  0
 22 23  2  0  0  0  0
 22 52  1  0  0  0  0
 23 53  1  0  0  0  0
 24 54  1  0  0  0  0
 24 55  1  0  0  0  0
 24 56  1  0  0  0  0
 25 26  1  0  0  0  0
 25 57  1  0  0  0  0
 25 58  1  0  0  0  0
 26 27  1  0  0  0  0
 26 59  1  0  0  0  0
 26 60  1  0  0  0  0
 27 28  1  0  0  0  0
 27 35  1  0  0  0  0
 27 29  1  0  0  0  0
 29 30  1  0  0  0  0
 29 61  1  0  0  0  0
 29 62  1  0  0  0  0
 30 31  1  0  0  0  0
 30 32  1  0  0  0  0
 30 36  1  0  0  0  0
 32 33  1  0  0  0  0
 32 63  1  0  0  0  0
 32 64  1  0  0  0  0
 33 34  2  0  0  0  0
 33 35  1  0  0  0  0
 36 65  1  0  0  0  0
 37 66  1  0  0  0  0
 37 67  1  0  0  0  0
 37 68  1  0  0  0  0
M  END
$$$$
ZINC03798763
  -OEChem-08230709403D

 65 66  0     1  0  0  0  0  0999 V2000
    7.8556   -0.2120   -2.2445 C   0  0  0  0  0  0  0  0  0  0  0  0
    7.1308   -0.1231   -0.9000 C   0  0  0  0  0  0  0  0  0  0  0  0
    5.8528    0.7022   -1.0631 C   0  0  2  0  0  0  0  0  0  0  0  0
    5.2427    0.2738   -1.8584 H   0  0  0  0  0  0  0  0  0  0  0  0
    6.2190    2.1438   -1.4216 C   0  0  0  0  0  0  0  0  0  0  0  0
    5.0769    0.6873    0.2287 C   0  0  0  0  0  0  0  0  0  0  0  0
    5.5025    0.0791    1.1820 O   0  0  0  0  0  0  0  0  0  0  0  0
    3.9131    1.3498    0.3202 O   0  0  0  0  0  0  0  0  0  0  0  0
    3.2201    1.2918    1.5948 C   0  0  1  0  0  0  0  0  0  0  0  0
    3.4336    0.3349    2.0712 H   0  0  0  0  0  0  0  0  0  0  0  0
    3.7332    2.4169    2.4912 C   0  0  0  0  0  0  0  0  0  0  0  0
    2.9828    2.3499    3.8286 C   0  0  1  0  0  0  0  0  0  0  0  0
    3.3446    3.1332    4.4947 H   0  0  0  0  0  0  0  0  0  0  0  0
    1.5179    2.5581    3.5439 C   0  0  0  0  0  0  0  0  0  0  0  0
    0.9793    2.1447    2.4117 C   0  0  0  0  0  0  0  0  0  0  0  0
    1.7332    1.3986    1.3512 C   0  0  1  0  0  0  0  0  0  0  0  0
    1.3286    0.3867    1.3317 H   0  0  0  0  0  0  0  0  0  0  0  0
    1.4202    2.0444   -0.0005 C   0  0  2  0  0  0  0  0  0  0  0  0
    1.6904    3.1000    0.0274 H   0  0  0  0  0  0  0  0  0  0  0  0
   -0.0780    1.9055   -0.2757 C   0  0  2  0  0  0  0  0  0  0  0  0
   -0.3367    2.5068   -1.1473 H   0  0  0  0  0  0  0  0  0  0  0  0
   -0.8992    2.3610    0.8918 C   0  0  0  0  0  0  0  0  0  0  0  0
   -0.4375    2.4691    2.1255 C   0  0  0  0  0  0  0  0  0  0  0  0
   -0.3977    0.4384   -0.5690 C   0  0  0  0  0  0  0  0  0  0  0  0
    2.2120    1.3378   -1.1026 C   0  0  0  0  0  0  0  0  0  0  0  0
    1.5604    1.6176   -2.4583 C   0  0  0  0  0  0  0  0  0  0  0  0
    2.3522    0.9109   -3.5603 C   0  0  2  0  0  0  0  0  0  0  0  0
    3.3974    1.2158   -3.5093 H   0  0  0  0  0  0  0  0  0  0  0  0
    1.7762    1.2908   -4.9259 C   0  0  0  0  0  0  0  0  0  0  0  0
    2.6431    0.6850   -6.0315 C   0  0  2  0  0  0  0  0  0  0  0  0
    3.6782    0.9979   -5.8941 H   0  0  0  0  0  0  0  0  0  0  0  0
    2.1414    1.1664   -7.3944 C   0  0  0  0  0  0  0  0  0  0  0  0
    3.0676    0.6701   -8.4746 C   0  0  0  0  0  0  0  0  0  0  0  0
    4.0302    0.0000   -8.1842 O   0  0  0  0  0  0  0  0  0  0  0  0
    2.5644   -0.7405   -5.9713 O   0  0  0  0  0  0  0  0  0  0  0  0
    2.2595   -0.5038   -3.3811 O   0  0  0  0  0  0  0  0  0  0  0  0
    3.1817    1.0698    4.4318 O   0  0  0  0  0  0  0  0  0  0  0  0
    7.2053   -0.6902   -2.9769 H   0  0  0  0  0  0  0  0  0  0  0  0
    8.1119    0.7909   -2.5861 H   0  0  0  0  0  0  0  0  0  0  0  0
    8.7661   -0.7999   -2.1282 H   0  0  0  0  0  0  0  0  0  0  0  0
    7.7811    0.3551   -0.1675 H   0  0  0  0  0  0  0  0  0  0  0  0
    6.8745   -1.1260   -0.5584 H   0  0  0  0  0  0  0  0  0  0  0  0
    6.8291    2.5722   -0.6264 H   0  0  0  0  0  0  0  0  0  0  0  0
    6.7801    2.1545   -2.3560 H   0  0  0  0  0  0  0  0  0  0  0  0
    5.3085    2.7317   -1.5379 H   0  0  0  0  0  0  0  0  0  0  0  0
    4.8022    2.2907    2.6633 H   0  0  0  0  0  0  0  0  0  0  0  0
    3.5492    3.3795    2.0141 H   0  0  0  0  0  0  0  0  0  0  0  0
    0.8989    3.0533    4.2774 H   0  0  0  0  0  0  0  0  0  0  0  0
   -1.9332    2.6173    0.7141 H   0  0  0  0  0  0  0  0  0  0  0  0
   -1.0908    2.7931    2.9221 H   0  0  0  0  0  0  0  0  0  0  0  0
   -0.1243   -0.1721    0.2917 H   0  0  0  0  0  0  0  0  0  0  0  0
   -1.4644    0.3314   -0.7662 H   0  0  0  0  0  0  0  0  0  0  0  0
    0.1677    0.1106   -1.4413 H   0  0  0  0  0  0  0  0  0  0  0  0
    3.2369    1.7088   -1.1085 H   0  0  0  0  0  0  0  0  0  0  0  0
    2.2155    0.2639   -0.9158 H   0  0  0  0  0  0  0  0  0  0  0  0
    0.5355    1.2465   -2.4523 H   0  0  0  0  0  0  0  0  0  0  0  0
    1.5569    2.6914   -2.6450 H   0  0  0  0  0  0  0  0  0  0  0  0
    0.7592    0.9077   -5.0106 H   0  0  0  0  0  0  0  0  0  0  0  0
    1.7652    2.3761   -5.0264 H   0  0  0  0  0  0  0  0  0  0  0  0
    1.1379    0.7788   -7.5698 H   0  0  0  0  0  0  0  0  0  0  0  0
    2.1176    2.2561   -7.4086 H   0  0  0  0  0  0  0  0  0  0  0  0
    1.6702   -1.0903   -6.0860 H   0  0  0  0  0  0  0  0  0  0  0  0
    1.3557   -0.8461   -3.4148 H   0  0  0  0  0  0  0  0  0  0  0  0
    2.7331    0.9615    5.2816 H   0  0  0  0  0  0  0  0  0  0  0  0
    2.8232    0.9723   -9.7593 O   0  5  0  0  0  0  0  0  0  0  0  0
  1  2  1  0  0  0  0
  1 38  1  0  0  0  0
  1 39  1  0  0  0  0
  1 40  1  0  0  0  0
  2  3  1  0  0  0  0
  2 41  1  0  0  0  0
  2 42  1  0  0  0  0
  3  4  1  0  0  0  0
  3  5  1  0  0  0  0
  3  6  1  0  0  0  0
  5 43  1  0  0  0  0
  5 44  1  0  0  0  0
  5 45  1  0  0  0  0
  6  7  2  0  0  0  0
  6  8  1  0  0  0  0
  8  9  1  0  0  0  0
  9 10  1  0  0  0  0
  9 16  1  0  0  0  0
  9 11  1  0  0  0  0
 11 12  1  0  0  0  0
 11 46  1  0  0  0  0
 11 47  1  0  0  0  0
 12 13  1  0  0  0  0
 12 14  1  0  0  0  0
 12 37  1  0  0  0  0
 14 15  2  0  0  0  0
 14 48  1  0  0  0  0
 15 23  1  0  0  0  0
 15 16  1  0  0  0  0
 16 17  1  0  0  0  0
 16 18  1  0  0  0  0
 18 19  1  0  0  0  0
 18 20  1  0  0  0  0
 18 25  1  0  0  0  0
 20 21  1  0  0  0  0
 20 22  1  0  0  0  0
 20 24  1  0  0  0  0
 22 23  2  0  0  0  0
 22 49  1  0  0  0  0
 23 50  1  0  0  0  0
 24 51  1  0  0  0  0
 24 52  1  0  0  0  0
 24 53  1  0  0  0  0
 25 26  1  0  0  0  0
 25 54  1  0  0  0  0
 25 55  1  0  0  0  0
 26 27  1  0  0  0  0
 26 56  1  0  0  0  0
 26 57  1  0  0  0  0
 27 28  1  0  0  0  0
 27 29  1  0  0  0  0
 27 36  1  0  0  0  0
 29 30  1  0  0  0  0
 29 58  1  0  0  0  0
 29 59  1  0  0  0  0
 30 31  1  0  0  0  0
 30 32  1  0  0  0  0
 30 35  1  0  0  0  0
 32 33  1  0  0  0  0
 32 60  1  0  0  0  0
 32 61  1  0  0  0  0
 33 34  2  0  0  0  0
 33 65  1  0  0  0  0
 35 62  1  0  0  0  0
 36 63  1  0  0  0  0
 37 64  1  0  0  0  0
M  CHG  1  65  -1
M  END
$$$$
ZINC03812841
  -OEChem-08230709403D

 65 67  0     1  0  0  0  0  0999 V2000
    2.5708    6.9177    3.3949 C   0  0  0  0  0  0  0  0  0  0  0  0
    2.6072    5.4065    3.1582 C   0  0  0  0  0  0  0  0  0  0  0  0
    2.2055    5.1069    1.7126 C   0  0  2  0  0  0  0  0  0  0  0  0
    2.8467    5.6687    1.0334 H   0  0  0  0  0  0  0  0  0  0  0  0
    0.7476    5.5159    1.4931 C   0  0  0  0  0  0  0  0  0  0  0  0
    2.3593    3.6320    1.4439 C   0  0  0  0  0  0  0  0  0  0  0  0
    2.7501    2.8961    2.3189 O   0  0  0  0  0  0  0  0  0  0  0  0
    2.0622    3.1359    0.2326 O   0  0  0  0  0  0  0  0  0  0  0  0
    2.2340    1.7063    0.0454 C   0  0  1  0  0  0  0  0  0  0  0  0
    3.0236    1.3555    0.7099 H   0  0  0  0  0  0  0  0  0  0  0  0
    0.9300    0.9976    0.4055 C   0  0  0  0  0  0  0  0  0  0  0  0
    1.1238   -0.5098    0.1904 C   0  0  2  0  0  0  0  0  0  0  0  0
    1.9521   -0.8667    0.8024 H   0  0  0  0  0  0  0  0  0  0  0  0
    1.4332   -0.7296   -1.2679 C   0  0  0  0  0  0  0  0  0  0  0  0
    2.0965    0.1732   -1.9663 C   0  0  0  0  0  0  0  0  0  0  0  0
    2.6424    1.4435   -1.3848 C   0  0  1  0  0  0  0  0  0  0  0  0
    3.7298    1.3681   -1.3940 H   0  0  0  0  0  0  0  0  0  0  0  0
    2.2543    2.5980   -2.3114 C   0  0  2  0  0  0  0  0  0  0  0  0
    1.1702    2.6307   -2.4204 H   0  0  0  0  0  0  0  0  0  0  0  0
    2.9007    2.3682   -3.6785 C   0  0  2  0  0  0  0  0  0  0  0  0
    2.4955    3.0887   -4.3891 H   0  0  0  0  0  0  0  0  0  0  0  0
    2.6411    0.9830   -4.1873 C   0  0  0  0  0  0  0  0  0  0  0  0
    2.2810   -0.0324   -3.4216 C   0  0  0  0  0  0  0  0  0  0  0  0
    4.4111    2.5811   -3.5586 C   0  0  0  0  0  0  0  0  0  0  0  0
    2.7508    3.9192   -1.7209 C   0  0  0  0  0  0  0  0  0  0  0  0
    2.8210    4.9767   -2.8244 C   0  0  0  0  0  0  0  0  0  0  0  0
    3.3175    6.2979   -2.2338 C   0  0  2  0  0  0  0  0  0  0  0  0
    2.6818    6.5840   -1.3959 H   0  0  0  0  0  0  0  0  0  0  0  0
    3.2699    7.3883   -3.3077 C   0  0  0  0  0  0  0  0  0  0  0  0
    3.8172    8.6962   -2.7280 C   0  0  2  0  0  0  0  0  0  0  0  0
    3.7884    9.4739   -3.4912 H   0  0  0  0  0  0  0  0  0  0  0  0
    5.2658    8.4735   -2.2765 C   0  0  0  0  0  0  0  0  0  0  0  0
    5.3007    7.2697   -1.3609 C   0  0  0  0  0  0  0  0  0  0  0  0
    5.8601    7.3185   -0.2911 O   0  0  0  0  0  0  0  0  0  0  0  0
    4.6890    6.1398   -1.7735 O   0  0  0  0  0  0  0  0  0  0  0  0
    3.0213    9.0938   -1.6097 O   0  0  0  0  0  0  0  0  0  0  0  0
   -0.1577   -1.2561    0.5666 C   0  0  0  0  0  0  0  0  0  0  0  0
    3.2671    7.4088    2.7150 H   0  0  0  0  0  0  0  0  0  0  0  0
    1.5624    7.2897    3.2134 H   0  0  0  0  0  0  0  0  0  0  0  0
    2.8570    7.1311    4.4247 H   0  0  0  0  0  0  0  0  0  0  0  0
    1.9109    4.9154    3.8380 H   0  0  0  0  0  0  0  0  0  0  0  0
    3.6156    5.0345    3.3397 H   0  0  0  0  0  0  0  0  0  0  0  0
    0.4615    5.3025    0.4633 H   0  0  0  0  0  0  0  0  0  0  0  0
    0.1064    4.9541    2.1723 H   0  0  0  0  0  0  0  0  0  0  0  0
    0.6364    6.5827    1.6875 H   0  0  0  0  0  0  0  0  0  0  0  0
    0.1261    1.3597   -0.2354 H   0  0  0  0  0  0  0  0  0  0  0  0
    0.6832    1.1908    1.4495 H   0  0  0  0  0  0  0  0  0  0  0  0
    1.1075   -1.6400   -1.7490 H   0  0  0  0  0  0  0  0  0  0  0  0
    2.7555    0.8030   -5.2460 H   0  0  0  0  0  0  0  0  0  0  0  0
    2.1214   -1.0084   -3.8556 H   0  0  0  0  0  0  0  0  0  0  0  0
    4.8211    1.8761   -2.8354 H   0  0  0  0  0  0  0  0  0  0  0  0
    4.8791    2.4190   -4.5296 H   0  0  0  0  0  0  0  0  0  0  0  0
    4.6091    3.5998   -3.2254 H   0  0  0  0  0  0  0  0  0  0  0  0
    2.0629    4.2508   -0.9431 H   0  0  0  0  0  0  0  0  0  0  0  0
    3.7424    3.7755   -1.2917 H   0  0  0  0  0  0  0  0  0  0  0  0
    3.5089    4.6451   -3.6021 H   0  0  0  0  0  0  0  0  0  0  0  0
    1.8294    5.1204   -3.2535 H   0  0  0  0  0  0  0  0  0  0  0  0
    3.8779    7.0858   -4.1603 H   0  0  0  0  0  0  0  0  0  0  0  0
    2.2392    7.5366   -3.6300 H   0  0  0  0  0  0  0  0  0  0  0  0
    5.8976    8.2919   -3.1460 H   0  0  0  0  0  0  0  0  0  0  0  0
    5.6228    9.3532   -1.7409 H   0  0  0  0  0  0  0  0  0  0  0  0
    3.3120    9.9164   -1.1926 H   0  0  0  0  0  0  0  0  0  0  0  0
   -0.9791   -0.9056   -0.0583 H   0  0  0  0  0  0  0  0  0  0  0  0
   -0.0142   -2.3255    0.4118 H   0  0  0  0  0  0  0  0  0  0  0  0
   -0.3929   -1.0690    1.6144 H   0  0  0  0  0  0  0  0  0  0  0  0
  1  2  1  0  0  0  0
  1 38  1  0  0  0  0
  1 39  1  0  0  0  0
  1 40  1  0  0  0  0
  2  3  1  0  0  0  0
  2 41  1  0  0  0  0
  2 42  1  0  0  0  0
  3  4  1  0  0  0  0
  3  5  1  0  0  0  0
  3  6  1  0  0  0  0
  5 43  1  0  0  0  0
  5 44  1  0  0  0  0
  5 45  1  0  0  0  0
  6  7  2  0  0  0  0
  6  8  1  0  0  0  0
  8  9  1  0  0  0  0
  9 10  1  0  0  0  0
  9 16  1  0  0  0  0
  9 11  1  0  0  0  0
 11 12  1  0  0  0  0
 11 46  1  0  0  0  0
 11 47  1  0  0  0  0
 12 13  1  0  0  0  0
 12 14  1  0  0  0  0
 12 37  1  0  0  0  0
 14 15  2  0  0  0  0
 14 48  1  0  0  0  0
 15 23  1  0  0  0  0
 15 16  1  0  0  0  0
 16 17  1  0  0  0  0
 16 18  1  0  0  0  0
 18 19  1  0  0  0  0
 18 20  1  0  0  0  0
 18 25  1  0  0  0  0
 20 21  1  0  0  0  0
 20 22  1  0  0  0  0
 20 24  1  0  0  0  0
 22 23  2  0  0  0  0
 22 49  1  0  0  0  0
 23 50  1  0  0  0  0
 24 51  1  0  0  0  0
 24 52  1  0  0  0  0
 24 53  1  0  0  0  0
 25 26  1  0  0  0  0
 25 54  1  0  0  0  0
 25 55  1  0  0  0  0
 26 27  1  0  0  0  0
 26 56  1  0  0  0  0
 26 57  1  0  0  0  0
 27 28  1  0  0  0  0
 27 35  1  0  0  0  0
 27 29  1  0  0  0  0
 29 30  1  0  0  0  0
 29 58  1  0  0  0  0
 29 59  1  0  0  0  0
 30 31  1  0  0  0  0
 30 32  1  0  0  0  0
 30 36  1  0  0  0  0
 32 33  1  0  0  0  0
 32 60  1  0  0  0  0
 32 61  1  0  0  0  0
 33 34  2  0  0  0  0
 33 35  1  0  0  0  0
 36 62  1  0  0  0  0
 37 63  1  0  0  0  0
 37 64  1  0  0  0  0
 37 65  1  0  0  0  0
M  END
$$$$
ZINC03833871
  -OEChem-08230709403D

 54 56  0     1  0  0  0  0  0999 V2000
    4.7797   -2.9903   -2.0115 C   0  0  0  0  0  0  0  0  0  0  0  0
    3.7220   -2.1272   -2.5429 N   0  0  0  0  0  0  0  0  0  0  0  0
    2.4110   -2.0943   -2.1668 C   0  0  0  0  0  0  0  0  0  0  0  0
    1.8255   -1.1677   -2.9015 N   0  0  0  0  0  0  0  0  0  0  0  0
    2.6712   -0.6301   -3.7042 N   0  0  0  0  0  0  0  0  0  0  0  0
    3.8379   -1.1556   -3.5525 N   0  0  0  0  0  0  0  0  0  0  0  0
    1.7730   -2.9285   -1.1343 C   0  0  0  0  0  0  0  0  0  0  0  0
    1.1706   -2.3345   -0.0403 C   0  0  0  0  0  0  0  0  0  0  0  0
    1.1670   -0.8641    0.0926 C   0  0  0  0  0  0  0  0  0  0  0  0
   -0.0384   -0.1588    0.0483 C   0  0  0  0  0  0  0  0  0  0  0  0
   -0.0355    1.2141    0.1734 C   0  0  0  0  0  0  0  0  0  0  0  0
    1.1602    1.8949    0.3429 C   0  0  0  0  0  0  0  0  0  0  0  0
    2.3593    1.2006    0.3875 C   0  0  0  0  0  0  0  0  0  0  0  0
    2.3690   -0.1724    0.2636 C   0  0  0  0  0  0  0  0  0  0  0  0
    1.1569    3.2404    0.4645 F   0  0  0  0  0  0  0  0  0  0  0  0
    0.5310   -3.1708    0.9948 C   0  0  0  0  0  0  0  0  0  0  0  0
   -0.5946   -3.9368    0.6808 C   0  0  0  0  0  0  0  0  0  0  0  0
   -1.1841   -4.7201    1.6500 C   0  0  0  0  0  0  0  0  0  0  0  0
   -0.6694   -4.7396    2.9371 C   0  0  0  0  0  0  0  0  0  0  0  0
    0.4438   -3.9773    3.2560 C   0  0  0  0  0  0  0  0  0  0  0  0
    1.0455   -3.1949    2.2937 C   0  0  0  0  0  0  0  0  0  0  0  0
   -1.2546   -5.5049    3.8842 F   0  0  0  0  0  0  0  0  0  0  0  0
    1.7766   -4.3961   -1.2669 C   0  0  0  0  0  0  0  0  0  0  0  0
    2.0787   -4.9602   -2.4399 C   0  0  0  0  0  0  0  0  0  0  0  0
    1.9479   -6.4513   -2.6148 C   0  0  2  0  0  0  0  0  0  0  0  0
    1.5031   -6.8846   -1.7190 H   0  0  0  0  0  0  0  0  0  0  0  0
    3.3323   -7.0614   -2.8431 C   0  0  0  0  0  0  0  0  0  0  0  0
    3.2153   -8.5860   -2.8963 C   0  0  0  0  0  0  0  0  0  0  0  0
    4.5997   -9.1961   -3.1246 C   0  0  0  0  0  0  0  0  0  0  0  0
    4.4844  -10.6978   -3.1770 C   0  0  0  0  0  0  0  0  0  0  0  0
    3.4056  -11.2258   -3.0454 O   0  0  0  0  0  0  0  0  0  0  0  0
    1.1140   -6.7273   -3.7420 O   0  0  0  0  0  0  0  0  0  0  0  0
    1.4727   -5.1758   -0.1963 O   0  0  0  0  0  0  0  0  0  0  0  0
    4.8817   -3.8718   -2.6446 H   0  0  0  0  0  0  0  0  0  0  0  0
    5.7221   -2.4428   -1.9964 H   0  0  0  0  0  0  0  0  0  0  0  0
    4.5223   -3.2986   -0.9982 H   0  0  0  0  0  0  0  0  0  0  0  0
   -0.9706   -0.6882   -0.0833 H   0  0  0  0  0  0  0  0  0  0  0  0
   -0.9662    1.7607    0.1348 H   0  0  0  0  0  0  0  0  0  0  0  0
    3.2877    1.7363    0.5197 H   0  0  0  0  0  0  0  0  0  0  0  0
    3.3037   -0.7123    0.2989 H   0  0  0  0  0  0  0  0  0  0  0  0
   -0.9994   -3.9186   -0.3203 H   0  0  0  0  0  0  0  0  0  0  0  0
   -2.0511   -5.3166    1.4072 H   0  0  0  0  0  0  0  0  0  0  0  0
    0.8406   -3.9968    4.2603 H   0  0  0  0  0  0  0  0  0  0  0  0
    1.9131   -2.6020    2.5431 H   0  0  0  0  0  0  0  0  0  0  0  0
    2.4167   -4.3476   -3.2626 H   0  0  0  0  0  0  0  0  0  0  0  0
    3.7399   -6.6952   -3.7853 H   0  0  0  0  0  0  0  0  0  0  0  0
    3.9944   -6.7762   -2.0255 H   0  0  0  0  0  0  0  0  0  0  0  0
    2.8077   -8.9522   -1.9541 H   0  0  0  0  0  0  0  0  0  0  0  0
    2.5532   -8.8712   -3.7139 H   0  0  0  0  0  0  0  0  0  0  0  0
    5.0073   -8.8299   -4.0668 H   0  0  0  0  0  0  0  0  0  0  0  0
    5.2617   -8.9109   -2.3070 H   0  0  0  0  0  0  0  0  0  0  0  0
    1.4851   -6.4367   -4.5863 H   0  0  0  0  0  0  0  0  0  0  0  0
    1.2154   -4.5189   -2.6847 H   0  0  0  0  0  0  0  0  0  0  0  0
    5.5801  -11.4487   -3.3700 O   0  5  0  0  0  0  0  0  0  0  0  0
  1  2  1  0  0  0  0
  1 34  1  0  0  0  0
  1 35  1  0  0  0  0
  1 36  1  0  0  0  0
  2  6  1  0  0  0  0
  2  3  1  0  0  0  0
  3  4  2  0  0  0  0
  3  7  1  0  0  0  0
  4  5  1  0  0  0  0
  5  6  2  0  0  0  0
  7  8  2  0  0  0  0
  7 23  1  0  0  0  0
  8  9  1  0  0  0  0
  8 16  1  0  0  0  0
  9 14  2  0  0  0  0
  9 10  1  0  0  0  0
 10 11  2  0  0  0  0
 10 37  1  0  0  0  0
 11 12  1  0  0  0  0
 11 38  1  0  0  0  0
 12 13  2  0  0  0  0
 12 15  1  0  0  0  0
 13 14  1  0  0  0  0
 13 39  1  0  0  0  0
 14 40  1  0  0  0  0
 16 21  2  0  0  0  0
 16 17  1  0  0  0  0
 17 18  2  0  0  0  0
 17 41  1  0  0  0  0
 18 19  1  0  0  0  0
 18 42  1  0  0  0  0
 19 20  2  0  0  0  0
 19 22  1  0  0  0  0
 20 21  1  0  0  0  0
 20 43  1  0  0  0  0
 21 44  1  0  0  0  0
 23 24  1  0  0  0  0
 23 33  2  0  0  0  0
 24 25  1  0  0  0  0
 24 45  1  0  0  0  0
 24 53  1  0  0  0  0
 25 26  1  0  0  0  0
 25 27  1  0  0  0  0
 25 32  1  0  0  0  0
 27 28  1  0  0  0  0
 27 46  1  0  0  0  0
 27 47  1  0  0  0  0
 28 29  1  0  0  0  0
 28 48  1  0  0  0  0
 28 49  1  0  0  0  0
 29 30  1  0  0  0  0
 29 50  1  0  0  0  0
 29 51  1  0  0  0  0
 30 31  2  0  0  0  0
 30 54  1  0  0  0  0
 32 52  1  0  0  0  0
M  CHG  1  54  -1
M  END
$$$$
ZINC03833872
  -OEChem-08230709403D

 31 33  0     1  0  0  0  0  0999 V2000
   -2.9127    2.7176   -2.4046 C   0  0  0  0  0  0  0  0  0  0  0  0
   -3.0487    2.9317   -3.7626 C   0  0  0  0  0  0  0  0  0  0  0  0
   -4.1961    2.5101   -4.4187 C   0  0  0  0  0  0  0  0  0  0  0  0
   -5.2020    1.8697   -3.7097 C   0  0  0  0  0  0  0  0  0  0  0  0
   -5.0590    1.6533   -2.3528 C   0  0  0  0  0  0  0  0  0  0  0  0
   -3.9143    2.0741   -1.7014 C   0  0  0  0  0  0  0  0  0  0  0  0
   -3.7607    1.8363   -0.2212 C   0  0  2  0  0  0  0  0  0  0  0  0
   -4.5640    1.3507    0.1235 H   0  0  0  0  0  0  0  0  0  0  0  0
   -3.5985    3.1771    0.5098 C   0  0  0  0  0  0  0  0  0  0  0  0
   -2.4295    3.8398    0.0283 O   0  0  0  0  0  0  0  0  0  0  0  0
   -1.2556    3.1665    0.0248 C   0  0  0  0  0  0  0  0  0  0  0  0
   -0.0574    3.8623    0.0194 C   0  0  0  0  0  0  0  0  0  0  0  0
    1.1445    3.1696    0.0077 C   0  0  0  0  0  0  0  0  0  0  0  0
    1.1595    1.7770    0.0005 C   0  0  0  0  0  0  0  0  0  0  0  0
   -0.0126    1.0758    0.0080 C   0  0  0  0  0  0  0  0  0  0  0  0
   -1.2313    1.7605    0.0174 C   0  0  0  0  0  0  0  0  0  0  0  0
   -2.5049    1.0254    0.0446 C   0  0  0  0  0  0  0  0  0  0  0  0
   -2.5498   -0.1673    0.2630 O   0  0  0  0  0  0  0  0  0  0  0  0
    2.3154    3.8548    0.0027 O   0  0  0  0  0  0  0  0  0  0  0  0
   -4.3346    2.7245   -5.7535 O   0  0  0  0  0  0  0  0  0  0  0  0
   -2.0216    3.0495   -1.8926 H   0  0  0  0  0  0  0  0  0  0  0  0
   -2.2640    3.4301   -4.3124 H   0  0  0  0  0  0  0  0  0  0  0  0
   -6.0964    1.5409   -4.2181 H   0  0  0  0  0  0  0  0  0  0  0  0
   -5.8418    1.1548   -1.8005 H   0  0  0  0  0  0  0  0  0  0  0  0
   -3.5001    2.9980    1.5805 H   0  0  0  0  0  0  0  0  0  0  0  0
   -4.4728    3.8008    0.3237 H   0  0  0  0  0  0  0  0  0  0  0  0
   -0.0591    4.9422    0.0239 H   0  0  0  0  0  0  0  0  0  0  0  0
    2.1018    1.2493   -0.0113 H   0  0  0  0  0  0  0  0  0  0  0  0
    0.0021   -0.0041    0.0020 H   0  0  0  0  0  0  0  0  0  0  0  0
    2.6485    4.0579   -0.8822 H   0  0  0  0  0  0  0  0  0  0  0  0
   -4.7552    3.5666   -5.9750 H   0  0  0  0  0  0  0  0  0  0  0  0
  1  6  2  0  0  0  0
  1  2  1  0  0  0  0
  1 21  1  0  0  0  0
  2  3  2  0  0  0  0
  2 22  1  0  0  0  0
  3  4  1  0  0  0  0
  3 20  1  0  0  0  0
  4  5  2  0  0  0  0
  4 23  1  0  0  0  0
  5  6  1  0  0  0  0
  5 24  1  0  0  0  0
  6  7  1  0  0  0  0
  7  8  1  0  0  0  0
  7 17  1  0  0  0  0
  7  9  1  0  0  0  0
  9 10  1  0  0  0  0
  9 25  1  0  0  0  0
  9 26  1  0  0  0  0
 10 11  1  0  0  0  0
 11 16  2  0  0  0  0
 11 12  1  0  0  0  0
 12 13  2  0  0  0  0
 12 27  1  0  0  0  0
 13 14  1  0  0  0  0
 13 19  1  0  0  0  0
 14 15  2  0  0  0  0
 14 28  1  0  0  0  0
 15 16  1  0  0  0  0
 15 29  1  0  0  0  0
 16 17  1  0  0  0  0
 17 18  2  0  0  0  0
 19 30  1  0  0  0  0
 20 31  1  0  0  0  0
M  END
$$$$
ZINC03833873
  -OEChem-08230709403D

 65 67  0     1  0  0  0  0  0999 V2000
    0.7333    8.0747   -6.1529 C   0  0  0  0  0  0  0  0  0  0  0  0
   -0.0251    6.7878   -5.8218 C   0  0  0  0  0  0  0  0  0  0  0  0
   -0.1080    6.6211   -4.3031 C   0  0  1  0  0  0  0  0  0  0  0  0
    0.8953    6.6558   -3.8785 H   0  0  0  0  0  0  0  0  0  0  0  0
   -0.9518    7.7518   -3.7112 C   0  0  0  0  0  0  0  0  0  0  0  0
   -0.7457    5.2951   -3.9775 C   0  0  0  0  0  0  0  0  0  0  0  0
   -1.0977    4.5589   -4.8685 O   0  0  0  0  0  0  0  0  0  0  0  0
   -0.9226    4.9318   -2.6974 O   0  0  0  0  0  0  0  0  0  0  0  0
   -1.5431    3.6411   -2.4582 C   0  0  2  0  0  0  0  0  0  0  0  0
   -1.2731    2.9642   -3.2688 H   0  0  0  0  0  0  0  0  0  0  0  0
   -3.0603    3.8152   -2.4416 C   0  0  0  0  0  0  0  0  0  0  0  0
   -3.4272    4.7470   -1.2779 C   0  0  2  0  0  0  0  0  0  0  0  0
   -2.9111    5.7004   -1.3909 H   0  0  0  0  0  0  0  0  0  0  0  0
   -2.9891    4.0767   -0.0010 C   0  0  0  0  0  0  0  0  0  0  0  0
   -1.9157    3.3090    0.0268 C   0  0  0  0  0  0  0  0  0  0  0  0
   -1.0232    3.0803   -1.1570 C   0  0  1  0  0  0  0  0  0  0  0  0
   -0.0776    3.5816   -0.9505 H   0  0  0  0  0  0  0  0  0  0  0  0
   -0.7307    1.5817   -1.2484 C   0  0  2  0  0  0  0  0  0  0  0  0
   -1.6673    1.0294   -1.3252 H   0  0  0  0  0  0  0  0  0  0  0  0
    0.0172    1.1506    0.0144 C   0  0  2  0  0  0  0  0  0  0  0  0
    0.0757    0.0625    0.0388 H   0  0  0  0  0  0  0  0  0  0  0  0
   -0.6701    1.6307    1.2560 C   0  0  0  0  0  0  0  0  0  0  0  0
   -1.5484    2.6183    1.2844 C   0  0  0  0  0  0  0  0  0  0  0  0
    1.4347    1.7252   -0.0248 C   0  0  0  0  0  0  0  0  0  0  0  0
    0.1357    1.3035   -2.4784 C   0  0  0  0  0  0  0  0  0  0  0  0
    0.3857   -0.2013   -2.5963 C   0  0  0  0  0  0  0  0  0  0  0  0
    1.2521   -0.4795   -3.8263 C   0  0  2  0  0  0  0  0  0  0  0  0
    0.7820   -0.0454   -4.7087 H   0  0  0  0  0  0  0  0  0  0  0  0
    1.3996   -1.9916   -4.0168 C   0  0  0  0  0  0  0  0  0  0  0  0
    2.3106   -2.2657   -5.2174 C   0  0  2  0  0  0  0  0  0  0  0  0
    2.4195   -3.3415   -5.3547 H   0  0  0  0  0  0  0  0  0  0  0  0
    3.6848   -1.6380   -4.9536 C   0  0  0  0  0  0  0  0  0  0  0  0
    3.4830   -0.1847   -4.5851 C   0  0  0  0  0  0  0  0  0  0  0  0
    4.1210    0.6878   -5.1249 O   0  0  0  0  0  0  0  0  0  0  0  0
    2.5695    0.1091   -3.6363 O   0  0  0  0  0  0  0  0  0  0  0  0
    1.7390   -1.6888   -6.3931 O   0  0  0  0  0  0  0  0  0  0  0  0
   -4.9398    4.9757   -1.2531 C   0  0  0  0  0  0  0  0  0  0  0  0
    0.7923    8.1935   -7.2348 H   0  0  0  0  0  0  0  0  0  0  0  0
    0.2081    8.9271   -5.7219 H   0  0  0  0  0  0  0  0  0  0  0  0
    1.7397    8.0204   -5.7379 H   0  0  0  0  0  0  0  0  0  0  0  0
    0.5001    5.9355   -6.2527 H   0  0  0  0  0  0  0  0  0  0  0  0
   -1.0315    6.8422   -6.2368 H   0  0  0  0  0  0  0  0  0  0  0  0
   -1.9550    7.7171   -4.1359 H   0  0  0  0  0  0  0  0  0  0  0  0
   -1.0108    7.6331   -2.6293 H   0  0  0  0  0  0  0  0  0  0  0  0
   -0.4905    8.7109   -3.9468 H   0  0  0  0  0  0  0  0  0  0  0  0
   -3.3898    4.2556   -3.3826 H   0  0  0  0  0  0  0  0  0  0  0  0
   -3.5396    2.8463   -2.3013 H   0  0  0  0  0  0  0  0  0  0  0  0
   -3.5611    4.2262    0.9029 H   0  0  0  0  0  0  0  0  0  0  0  0
   -0.4325    1.1387    2.1876 H   0  0  0  0  0  0  0  0  0  0  0  0
   -1.9955    2.9202    2.2200 H   0  0  0  0  0  0  0  0  0  0  0  0
    1.9807    1.4063    0.8630 H   0  0  0  0  0  0  0  0  0  0  0  0
    1.9483    1.3647   -0.9162 H   0  0  0  0  0  0  0  0  0  0  0  0
    1.3850    2.8137   -0.0494 H   0  0  0  0  0  0  0  0  0  0  0  0
   -0.3779    1.6576   -3.3722 H   0  0  0  0  0  0  0  0  0  0  0  0
    1.0884    1.8232   -2.3768 H   0  0  0  0  0  0  0  0  0  0  0  0
    0.8993   -0.5555   -1.7025 H   0  0  0  0  0  0  0  0  0  0  0  0
   -0.5670   -0.7211   -2.6979 H   0  0  0  0  0  0  0  0  0  0  0  0
    1.8376   -2.4301   -3.1202 H   0  0  0  0  0  0  0  0  0  0  0  0
    0.4191   -2.4329   -4.1961 H   0  0  0  0  0  0  0  0  0  0  0  0
    4.1754   -2.1603   -4.1323 H   0  0  0  0  0  0  0  0  0  0  0  0
    4.2987   -1.7077   -5.8517 H   0  0  0  0  0  0  0  0  0  0  0  0
    2.2648   -1.8244   -7.1933 H   0  0  0  0  0  0  0  0  0  0  0  0
   -5.4495    4.0208   -1.1243 H   0  0  0  0  0  0  0  0  0  0  0  0
   -5.1937    5.6376   -0.4252 H   0  0  0  0  0  0  0  0  0  0  0  0
   -5.2538    5.4314   -2.1921 H   0  0  0  0  0  0  0  0  0  0  0  0
  1  2  1  0  0  0  0
  1 38  1  0  0  0  0
  1 39  1  0  0  0  0
  1 40  1  0  0  0  0
  2  3  1  0  0  0  0
  2 41  1  0  0  0  0
  2 42  1  0  0  0  0
  3  4  1  0  0  0  0
  3  5  1  0  0  0  0
  3  6  1  0  0  0  0
  5 43  1  0  0  0  0
  5 44  1  0  0  0  0
  5 45  1  0  0  0  0
  6  7  2  0  0  0  0
  6  8  1  0  0  0  0
  8  9  1  0  0  0  0
  9 10  1  0  0  0  0
  9 16  1  0  0  0  0
  9 11  1  0  0  0  0
 11 12  1  0  0  0  0
 11 46  1  0  0  0  0
 11 47  1  0  0  0  0
 12 13  1  0  0  0  0
 12 14  1  0  0  0  0
 12 37  1  0  0  0  0
 14 15  2  0  0  0  0
 14 48  1  0  0  0  0
 15 23  1  0  0  0  0
 15 16  1  0  0  0  0
 16 17  1  0  0  0  0
 16 18  1  0  0  0  0
 18 19  1  0  0  0  0
 18 20  1  0  0  0  0
 18 25  1  0  0  0  0
 20 21  1  0  0  0  0
 20 22  1  0  0  0  0
 20 24  1  0  0  0  0
 22 23  2  0  0  0  0
 22 49  1  0  0  0  0
 23 50  1  0  0  0  0
 24 51  1  0  0  0  0
 24 52  1  0  0  0  0
 24 53  1  0  0  0  0
 25 26  1  0  0  0  0
 25 54  1  0  0  0  0
 25 55  1  0  0  0  0
 26 27  1  0  0  0  0
 26 56  1  0  0  0  0
 26 57  1  0  0  0  0
 27 28  1  0  0  0  0
 27 35  1  0  0  0  0
 27 29  1  0  0  0  0
 29 30  1  0  0  0  0
 29 58  1  0  0  0  0
 29 59  1  0  0  0  0
 30 31  1  0  0  0  0
 30 32  1  0  0  0  0
 30 36  1  0  0  0  0
 32 33  1  0  0  0  0
 32 60  1  0  0  0  0
 32 61  1  0  0  0  0
 33 34  2  0  0  0  0
 33 35  1  0  0  0  0
 36 62  1  0  0  0  0
 37 63  1  0  0  0  0
 37 64  1  0  0  0  0
 37 65  1  0  0  0  0
M  END
$$$$
ZINC03833874
  -OEChem-08230709403D

 64 66  0     1  0  0  0  0  0999 V2000
   -1.4268    7.4931    4.4677 C   0  0  0  0  0  0  0  0  0  0  0  0
   -1.0541    7.0020    3.0674 C   0  0  0  0  0  0  0  0  0  0  0  0
   -0.7318    5.5073    3.1202 C   0  0  1  0  0  0  0  0  0  0  0  0
    0.0446    5.3291    3.8642 H   0  0  0  0  0  0  0  0  0  0  0  0
   -1.9916    4.7270    3.5008 C   0  0  0  0  0  0  0  0  0  0  0  0
   -0.2468    5.0500    1.7686 C   0  0  0  0  0  0  0  0  0  0  0  0
   -0.1672    5.8387    0.8567 O   0  0  0  0  0  0  0  0  0  0  0  0
    0.0967    3.7665    1.5778 O   0  0  0  0  0  0  0  0  0  0  0  0
    0.5549    3.3971    0.2504 C   0  0  2  0  0  0  0  0  0  0  0  0
    1.0582    4.2528   -0.1998 H   0  0  0  0  0  0  0  0  0  0  0  0
   -0.6534    3.0246   -0.6061 C   0  0  0  0  0  0  0  0  0  0  0  0
   -1.3334    1.8019    0.0182 C   0  0  1  0  0  0  0  0  0  0  0  0
   -2.2139    1.5304   -0.5640 H   0  0  0  0  0  0  0  0  0  0  0  0
   -0.3419    0.6667    0.0052 C   0  0  0  0  0  0  0  0  0  0  0  0
    0.9513    0.8960    0.1379 C   0  0  0  0  0  0  0  0  0  0  0  0
    1.5372    2.2574    0.3701 C   0  0  1  0  0  0  0  0  0  0  0  0
    1.9209    2.2745    1.3901 H   0  0  0  0  0  0  0  0  0  0  0  0
    2.7352    2.4261   -0.5666 C   0  0  1  0  0  0  0  0  0  0  0  0
    3.1579    3.4232   -0.4439 H   0  0  0  0  0  0  0  0  0  0  0  0
    3.7876    1.3750   -0.2094 C   0  0  2  0  0  0  0  0  0  0  0  0
    4.5609    1.3727   -0.9775 H   0  0  0  0  0  0  0  0  0  0  0  0
    3.1919    0.0038   -0.1119 C   0  0  0  0  0  0  0  0  0  0  0  0
    1.9026   -0.2361    0.0543 C   0  0  0  0  0  0  0  0  0  0  0  0
    4.4211    1.7402    1.1346 C   0  0  0  0  0  0  0  0  0  0  0  0
    2.2884    2.2328   -2.0171 C   0  0  0  0  0  0  0  0  0  0  0  0
    3.4662    2.5068   -2.9544 C   0  0  0  0  0  0  0  0  0  0  0  0
    3.0193    2.3136   -4.4049 C   0  0  2  0  0  0  0  0  0  0  0  0
    2.5896    1.3190   -4.5242 H   0  0  0  0  0  0  0  0  0  0  0  0
    4.2252    2.4650   -5.3362 C   0  0  0  0  0  0  0  0  0  0  0  0
    3.7647    2.3235   -6.7903 C   0  0  0  0  0  0  0  0  0  0  0  0
    2.7320    3.4157   -7.0945 C   0  0  0  0  0  0  0  0  0  0  0  0
    1.6483    3.3547   -6.0406 C   0  0  0  0  0  0  0  0  0  0  0  0
    0.4805    3.3381   -6.3503 O   0  0  0  0  0  0  0  0  0  0  0  0
    2.0235    3.3188   -4.7449 O   0  0  0  0  0  0  0  0  0  0  0  0
   -1.7399    2.1193    1.4587 C   0  0  0  0  0  0  0  0  0  0  0  0
   -0.5902    7.3255    5.1461 H   0  0  0  0  0  0  0  0  0  0  0  0
   -1.6565    8.5580    4.4302 H   0  0  0  0  0  0  0  0  0  0  0  0
   -2.2992    6.9456    4.8245 H   0  0  0  0  0  0  0  0  0  0  0  0
   -0.1818    7.5495    2.7106 H   0  0  0  0  0  0  0  0  0  0  0  0
   -1.8907    7.1696    2.3891 H   0  0  0  0  0  0  0  0  0  0  0  0
   -2.7680    4.9052    2.7568 H   0  0  0  0  0  0  0  0  0  0  0  0
   -1.7620    3.6621    3.5384 H   0  0  0  0  0  0  0  0  0  0  0  0
   -2.3424    5.0577    4.4784 H   0  0  0  0  0  0  0  0  0  0  0  0
   -1.3535    3.8595   -0.6364 H   0  0  0  0  0  0  0  0  0  0  0  0
   -0.3262    2.7829   -1.6174 H   0  0  0  0  0  0  0  0  0  0  0  0
   -0.6936   -0.3469   -0.1188 H   0  0  0  0  0  0  0  0  0  0  0  0
    3.8586   -0.8430   -0.1822 H   0  0  0  0  0  0  0  0  0  0  0  0
    1.5446   -1.2524    0.1283 H   0  0  0  0  0  0  0  0  0  0  0  0
    5.2003    1.0177    1.3773 H   0  0  0  0  0  0  0  0  0  0  0  0
    4.8570    2.7373    1.0717 H   0  0  0  0  0  0  0  0  0  0  0  0
    3.6574    1.7259    1.9121 H   0  0  0  0  0  0  0  0  0  0  0  0
    1.9429    1.2086   -2.1575 H   0  0  0  0  0  0  0  0  0  0  0  0
    1.4763    2.9242   -2.2423 H   0  0  0  0  0  0  0  0  0  0  0  0
    3.8116    3.5310   -2.8140 H   0  0  0  0  0  0  0  0  0  0  0  0
    4.2782    1.8154   -2.7292 H   0  0  0  0  0  0  0  0  0  0  0  0
    4.6756    3.4469   -5.1913 H   0  0  0  0  0  0  0  0  0  0  0  0
    4.9590    1.6913   -5.1099 H   0  0  0  0  0  0  0  0  0  0  0  0
    4.6203    2.4347   -7.4564 H   0  0  0  0  0  0  0  0  0  0  0  0
    3.3137    1.3420   -6.9363 H   0  0  0  0  0  0  0  0  0  0  0  0
    3.2134    4.3933   -7.0698 H   0  0  0  0  0  0  0  0  0  0  0  0
    2.2970    3.2455   -8.0794 H   0  0  0  0  0  0  0  0  0  0  0  0
   -0.8494    2.1675    2.0853 H   0  0  0  0  0  0  0  0  0  0  0  0
   -2.2567    3.0786    1.4873 H   0  0  0  0  0  0  0  0  0  0  0  0
   -2.4033    1.3380    1.8295 H   0  0  0  0  0  0  0  0  0  0  0  0
  1  2  1  0  0  0  0
  1 36  1  0  0  0  0
  1 37  1  0  0  0  0
  1 38  1  0  0  0  0
  2  3  1  0  0  0  0
  2 39  1  0  0  0  0
  2 40  1  0  0  0  0
  3  4  1  0  0  0  0
  3  5  1  0  0  0  0
  3  6  1  0  0  0  0
  5 41  1  0  0  0  0
  5 42  1  0  0  0  0
  5 43  1  0  0  0  0
  6  7  2  0  0  0  0
  6  8  1  0  0  0  0
  8  9  1  0  0  0  0
  9 10  1  0  0  0  0
  9 16  1  0  0  0  0
  9 11  1  0  0  0  0
 11 12  1  0  0  0  0
 11 44  1  0  0  0  0
 11 45  1  0  0  0  0
 12 13  1  0  0  0  0
 12 14  1  0  0  0  0
 12 35  1  0  0  0  0
 14 15  2  0  0  0  0
 14 46  1  0  0  0  0
 15 23  1  0  0  0  0
 15 16  1  0  0  0  0
 16 17  1  0  0  0  0
 16 18  1  0  0  0  0
 18 19  1  0  0  0  0
 18 20  1  0  0  0  0
 18 25  1  0  0  0  0
 20 21  1  0  0  0  0
 20 22  1  0  0  0  0
 20 24  1  0  0  0  0
 22 23  2  0  0  0  0
 22 47  1  0  0  0  0
 23 48  1  0  0  0  0
 24 49  1  0  0  0  0
 24 50  1  0  0  0  0
 24 51  1  0  0  0  0
 25 26  1  0  0  0  0
 25 52  1  0  0  0  0
 25 53  1  0  0  0  0
 26 27  1  0  0  0  0
 26 54  1  0  0  0  0
 26 55  1  0  0  0  0
 27 28  1  0  0  0  0
 27 34  1  0  0  0  0
 27 29  1  0  0  0  0
 29 30  1  0  0  0  0
 29 56  1  0  0  0  0
 29 57  1  0  0  0  0
 30 31  1  0  0  0  0
 30 58  1  0  0  0  0
 30 59  1  0  0  0  0
 31 32  1  0  0  0  0
 31 60  1  0  0  0  0
 31 61  1  0  0  0  0
 32 33  2  0  0  0  0
 32 34  1  0  0  0  0
 35 62  1  0  0  0  0
 35 63  1  0  0  0  0
 35 64  1  0  0  0  0
M  END
$$$$
ZINC03833875
  -OEChem-08230709403D

 70 71  0     1  0  0  0  0  0999 V2000
    3.3876    6.6794   -9.2798 C   0  0  0  0  0  0  0  0  0  0  0  0
    3.1263    6.1513   -7.8678 C   0  0  0  0  0  0  0  0  0  0  0  0
    2.4374    4.7878   -7.9527 C   0  0  0  0  0  0  0  0  0  0  0  0
    3.3386    3.8070   -8.7055 C   0  0  0  0  0  0  0  0  0  0  0  0
    1.1084    4.9334   -8.6967 C   0  0  0  0  0  0  0  0  0  0  0  0
    2.1800    4.2676   -6.5619 C   0  0  0  0  0  0  0  0  0  0  0  0
    2.5135    4.9204   -5.6014 O   0  0  0  0  0  0  0  0  0  0  0  0
    1.5804    3.0790   -6.3902 O   0  0  0  0  0  0  0  0  0  0  0  0
    1.3645    2.6410   -5.0228 C   0  0  2  0  0  0  0  0  0  0  0  0
    1.2111    3.5156   -4.3905 H   0  0  0  0  0  0  0  0  0  0  0  0
    2.6044    1.8917   -4.5393 C   0  0  0  0  0  0  0  0  0  0  0  0
    2.8004    0.6564   -5.4290 C   0  0  2  0  0  0  0  0  0  0  0  0
    2.9013    0.9632   -6.4700 H   0  0  0  0  0  0  0  0  0  0  0  0
    1.5854   -0.2207   -5.2707 C   0  0  0  0  0  0  0  0  0  0  0  0
    0.3947    0.3012   -5.0410 C   0  0  0  0  0  0  0  0  0  0  0  0
    0.1276    1.7756   -4.9733 C   0  0  1  0  0  0  0  0  0  0  0  0
   -0.4837    2.0239   -5.8410 H   0  0  0  0  0  0  0  0  0  0  0  0
   -0.7136    2.0512   -3.7249 C   0  0  1  0  0  0  0  0  0  0  0  0
   -0.8904    3.1228   -3.6324 H   0  0  0  0  0  0  0  0  0  0  0  0
   -2.0489    1.3177   -3.8609 C   0  0  2  0  0  0  0  0  0  0  0  0
   -2.5812    1.3691   -2.9111 H   0  0  0  0  0  0  0  0  0  0  0  0
   -1.8545   -0.1201   -4.2351 C   0  0  0  0  0  0  0  0  0  0  0  0
   -0.7509   -0.6011   -4.7808 C   0  0  0  0  0  0  0  0  0  0  0  0
   -2.8885    2.0051   -4.9394 C   0  0  0  0  0  0  0  0  0  0  0  0
    0.0264    1.5443   -2.4854 C   0  0  0  0  0  0  0  0  0  0  0  0
   -0.7573    1.9316   -1.2297 C   0  0  0  0  0  0  0  0  0  0  0  0
   -0.0173    1.4248    0.0099 C   0  0  1  0  0  0  0  0  0  0  0  0
    1.0053    1.8021    0.0021 H   0  0  0  0  0  0  0  0  0  0  0  0
   -0.7334    1.9182    1.2687 C   0  0  0  0  0  0  0  0  0  0  0  0
    0.0740    1.5175    2.5050 C   0  0  2  0  0  0  0  0  0  0  0  0
    0.2433    0.4408    2.4951 H   0  0  0  0  0  0  0  0  0  0  0  0
   -0.7019    1.9002    3.7669 C   0  0  0  0  0  0  0  0  0  0  0  0
    0.0345    1.3966    4.9814 C   0  0  0  0  0  0  0  0  0  0  0  0
    1.0733    0.7935    4.8511 O   0  0  0  0  0  0  0  0  0  0  0  0
    1.3308    2.1975    2.4940 O   0  0  0  0  0  0  0  0  0  0  0  0
    0.0021   -0.0041    0.0020 O   0  0  0  0  0  0  0  0  0  0  0  0
    4.0514   -0.1065   -4.9887 C   0  0  0  0  0  0  0  0  0  0  0  0
    3.8784    7.6508   -9.2194 H   0  0  0  0  0  0  0  0  0  0  0  0
    4.0296    5.9806   -9.8161 H   0  0  0  0  0  0  0  0  0  0  0  0
    2.4408    6.7831   -9.8099 H   0  0  0  0  0  0  0  0  0  0  0  0
    2.4843    6.8500   -7.3315 H   0  0  0  0  0  0  0  0  0  0  0  0
    4.0731    6.0476   -7.3378 H   0  0  0  0  0  0  0  0  0  0  0  0
    2.8477    2.8356   -8.7659 H   0  0  0  0  0  0  0  0  0  0  0  0
    3.5247    4.1832   -9.7114 H   0  0  0  0  0  0  0  0  0  0  0  0
    4.2853    3.7033   -8.1754 H   0  0  0  0  0  0  0  0  0  0  0  0
    0.4664    5.6321   -8.1604 H   0  0  0  0  0  0  0  0  0  0  0  0
    1.2945    5.3096   -9.7027 H   0  0  0  0  0  0  0  0  0  0  0  0
    0.6176    3.9620   -8.7572 H   0  0  0  0  0  0  0  0  0  0  0  0
    3.4775    2.5400   -4.6137 H   0  0  0  0  0  0  0  0  0  0  0  0
    2.4648    1.5803   -3.5041 H   0  0  0  0  0  0  0  0  0  0  0  0
    1.6902   -1.2930   -5.3466 H   0  0  0  0  0  0  0  0  0  0  0  0
   -2.6670   -0.8064   -4.0473 H   0  0  0  0  0  0  0  0  0  0  0  0
   -0.6848   -1.6483   -5.0363 H   0  0  0  0  0  0  0  0  0  0  0  0
   -2.3547    1.9753   -5.8894 H   0  0  0  0  0  0  0  0  0  0  0  0
   -3.8423    1.4876   -5.0422 H   0  0  0  0  0  0  0  0  0  0  0  0
   -3.0666    3.0422   -4.6552 H   0  0  0  0  0  0  0  0  0  0  0  0
    1.0193    1.9923   -2.4465 H   0  0  0  0  0  0  0  0  0  0  0  0
    0.1189    0.4594   -2.5357 H   0  0  0  0  0  0  0  0  0  0  0  0
   -1.7503    1.4837   -1.2685 H   0  0  0  0  0  0  0  0  0  0  0  0
   -0.8498    3.0165   -1.1793 H   0  0  0  0  0  0  0  0  0  0  0  0
   -0.8268    3.0036    1.2317 H   0  0  0  0  0  0  0  0  0  0  0  0
   -1.7255    1.4698    1.3217 H   0  0  0  0  0  0  0  0  0  0  0  0
   -0.7941    2.9850    3.8218 H   0  0  0  0  0  0  0  0  0  0  0  0
   -1.6950    1.4525    3.7326 H   0  0  0  0  0  0  0  0  0  0  0  0
    1.2565    3.1616    2.5018 H   0  0  0  0  0  0  0  0  0  0  0  0
   -0.8759   -0.4094    0.0082 H   0  0  0  0  0  0  0  0  0  0  0  0
    3.9376   -0.4235   -3.9520 H   0  0  0  0  0  0  0  0  0  0  0  0
    4.1853   -0.9822   -5.6237 H   0  0  0  0  0  0  0  0  0  0  0  0
    4.9226    0.5427   -5.0766 H   0  0  0  0  0  0  0  0  0  0  0  0
   -0.4636    1.6181    6.2080 O   0  5  0  0  0  0  0  0  0  0  0  0
  1  2  1  0  0  0  0
  1 38  1  0  0  0  0
  1 39  1  0  0  0  0
  1 40  1  0  0  0  0
  2  3  1  0  0  0  0
  2 41  1  0  0  0  0
  2 42  1  0  0  0  0
  3  4  1  0  0  0  0
  3  5  1  0  0  0  0
  3  6  1  0  0  0  0
  4 43  1  0  0  0  0
  4 44  1  0  0  0  0
  4 45  1  0  0  0  0
  5 46  1  0  0  0  0
  5 47  1  0  0  0  0
  5 48  1  0  0  0  0
  6  7  2  0  0  0  0
  6  8  1  0  0  0  0
  8  9  1  0  0  0  0
  9 10  1  0  0  0  0
  9 16  1  0  0  0  0
  9 11  1  0  0  0  0
 11 12  1  0  0  0  0
 11 49  1  0  0  0  0
 11 50  1  0  0  0  0
 12 13  1  0  0  0  0
 12 14  1  0  0  0  0
 12 37  1  0  0  0  0
 14 15  2  0  0  0  0
 14 51  1  0  0  0  0
 15 23  1  0  0  0  0
 15 16  1  0  0  0  0
 16 17  1  0  0  0  0
 16 18  1  0  0  0  0
 18 19  1  0  0  0  0
 18 20  1  0  0  0  0
 18 25  1  0  0  0  0
 20 21  1  0  0  0  0
 20 22  1  0  0  0  0
 20 24  1  0  0  0  0
 22 23  2  0  0  0  0
 22 52  1  0  0  0  0
 23 53  1  0  0  0  0
 24 54  1  0  0  0  0
 24 55  1  0  0  0  0
 24 56  1  0  0  0  0
 25 26  1  0  0  0  0
 25 57  1  0  0  0  0
 25 58  1  0  0  0  0
 26 27  1  0  0  0  0
 26 59  1  0  0  0  0
 26 60  1  0  0  0  0
 27 28  1  0  0  0  0
 27 29  1  0  0  0  0
 27 36  1  0  0  0  0
 29 30  1  0  0  0  0
 29 61  1  0  0  0  0
 29 62  1  0  0  0  0
 30 31  1  0  0  0  0
 30 32  1  0  0  0  0
 30 35  1  0  0  0  0
 32 33  1  0  0  0  0
 32 63  1  0  0  0  0
 32 64  1  0  0  0  0
 33 34  2  0  0  0  0
 33 70  1  0  0  0  0
 35 65  1  0  0  0  0
 36 66  1  0  0  0  0
 37 67  1  0  0  0  0
 37 68  1  0  0  0  0
 37 69  1  0  0  0  0
M  CHG  1  70  -1
M  END
$$$$
ZINC03833876
  -OEChem-08230709403D

 62 64  0     1  0  0  0  0  0999 V2000
   -0.0625    2.4192    0.1057 C   0  0  0  0  0  0  0  0  0  0  0  0
   -0.5723    2.9569    1.4443 C   0  0  0  0  0  0  0  0  0  0  0  0
   -0.0230    2.0950    2.5828 C   0  0  2  0  0  0  0  0  0  0  0  0
    1.0642    2.0550    2.5162 H   0  0  0  0  0  0  0  0  0  0  0  0
   -0.5931    0.6795    2.4716 C   0  0  0  0  0  0  0  0  0  0  0  0
   -0.4235    2.6954    3.9057 C   0  0  0  0  0  0  0  0  0  0  0  0
   -1.0809    3.7087    3.9350 O   0  0  0  0  0  0  0  0  0  0  0  0
   -0.0499    2.1044    5.0515 O   0  0  0  0  0  0  0  0  0  0  0  0
   -0.4714    2.7382    6.2880 C   0  0  1  0  0  0  0  0  0  0  0  0
   -0.5728    3.8104    6.1201 H   0  0  0  0  0  0  0  0  0  0  0  0
   -1.8273    2.1694    6.7011 C   0  0  0  0  0  0  0  0  0  0  0  0
   -2.2524    2.8395    8.0150 C   0  0  0  0  0  0  0  0  0  0  0  0
   -1.2212    2.4983    9.0593 C   0  0  0  0  0  0  0  0  0  0  0  0
    0.0465    2.3272    8.7333 C   0  0  0  0  0  0  0  0  0  0  0  0
    0.5832    2.5053    7.3440 C   0  0  1  0  0  0  0  0  0  0  0  0
    1.2380    3.3767    7.3541 H   0  0  0  0  0  0  0  0  0  0  0  0
    1.4651    1.2987    7.0147 C   0  0  2  0  0  0  0  0  0  0  0  0
    0.8824    0.3827    7.1114 H   0  0  0  0  0  0  0  0  0  0  0  0
    2.6405    1.2688    7.9931 C   0  0  2  0  0  0  0  0  0  0  0  0
    3.1767    0.3270    7.8761 H   0  0  0  0  0  0  0  0  0  0  0  0
    2.1811    1.3966    9.4136 C   0  0  0  0  0  0  0  0  0  0  0  0
    1.0055    1.8833    9.7714 C   0  0  0  0  0  0  0  0  0  0  0  0
    3.5891    2.4247    7.6694 C   0  0  0  0  0  0  0  0  0  0  0  0
    1.9918    1.4233    5.5836 C   0  0  0  0  0  0  0  0  0  0  0  0
    3.2243    0.5326    5.4144 C   0  0  0  0  0  0  0  0  0  0  0  0
    3.7509    0.6572    3.9833 C   0  0  2  0  0  0  0  0  0  0  0  0
    2.9505    0.4290    3.2795 H   0  0  0  0  0  0  0  0  0  0  0  0
    4.9086   -0.3235    3.7770 C   0  0  0  0  0  0  0  0  0  0  0  0
    5.4674   -0.1586    2.3603 C   0  0  2  0  0  0  0  0  0  0  0  0
    6.2933   -0.8540    2.2106 H   0  0  0  0  0  0  0  0  0  0  0  0
    5.9675    1.2807    2.1863 C   0  0  0  0  0  0  0  0  0  0  0  0
    4.8523    2.2243    2.5795 C   0  0  0  0  0  0  0  0  0  0  0  0
    4.5302    3.1400    1.8600 O   0  0  0  0  0  0  0  0  0  0  0  0
    4.2259    2.0140    3.7563 O   0  0  0  0  0  0  0  0  0  0  0  0
    4.4380   -0.4259    1.4059 O   0  0  0  0  0  0  0  0  0  0  0  0
   -0.3973    1.3900   -0.0236 H   0  0  0  0  0  0  0  0  0  0  0  0
    1.0270    2.4512    0.0925 H   0  0  0  0  0  0  0  0  0  0  0  0
   -0.4539    3.0333   -0.7053 H   0  0  0  0  0  0  0  0  0  0  0  0
   -0.2375    3.9861    1.5737 H   0  0  0  0  0  0  0  0  0  0  0  0
   -1.6618    2.9249    1.4575 H   0  0  0  0  0  0  0  0  0  0  0  0
   -0.3035    0.2453    1.5147 H   0  0  0  0  0  0  0  0  0  0  0  0
   -0.2018    0.0654    3.2827 H   0  0  0  0  0  0  0  0  0  0  0  0
   -1.6804    0.7195    2.5382 H   0  0  0  0  0  0  0  0  0  0  0  0
   -2.5649    2.3792    5.9264 H   0  0  0  0  0  0  0  0  0  0  0  0
   -1.7445    1.0926    6.8481 H   0  0  0  0  0  0  0  0  0  0  0  0
   -2.2982    3.9202    7.8804 H   0  0  0  0  0  0  0  0  0  0  0  0
   -3.2286    2.4641    8.3220 H   0  0  0  0  0  0  0  0  0  0  0  0
   -1.5240    2.3918   10.0905 H   0  0  0  0  0  0  0  0  0  0  0  0
    2.8526    1.0705   10.1940 H   0  0  0  0  0  0  0  0  0  0  0  0
    0.7451    1.9574   10.8169 H   0  0  0  0  0  0  0  0  0  0  0  0
    3.0555    3.3704    7.7653 H   0  0  0  0  0  0  0  0  0  0  0  0
    4.4298    2.4100    8.3630 H   0  0  0  0  0  0  0  0  0  0  0  0
    3.9577    2.3174    6.6493 H   0  0  0  0  0  0  0  0  0  0  0  0
    1.2179    1.1095    4.8831 H   0  0  0  0  0  0  0  0  0  0  0  0
    2.2628    2.4602    5.3851 H   0  0  0  0  0  0  0  0  0  0  0  0
    3.9982    0.8464    6.1149 H   0  0  0  0  0  0  0  0  0  0  0  0
    2.9533   -0.5043    5.6129 H   0  0  0  0  0  0  0  0  0  0  0  0
    5.6940   -0.1172    4.5041 H   0  0  0  0  0  0  0  0  0  0  0  0
    4.5489   -1.3438    3.9099 H   0  0  0  0  0  0  0  0  0  0  0  0
    6.8333    1.4485    2.8269 H   0  0  0  0  0  0  0  0  0  0  0  0
    6.2427    1.4504    1.1453 H   0  0  0  0  0  0  0  0  0  0  0  0
    4.7227   -0.3399    0.4858 H   0  0  0  0  0  0  0  0  0  0  0  0
  1  2  1  0  0  0  0
  1 36  1  0  0  0  0
  1 37  1  0  0  0  0
  1 38  1  0  0  0  0
  2  3  1  0  0  0  0
  2 39  1  0  0  0  0
  2 40  1  0  0  0  0
  3  4  1  0  0  0  0
  3  5  1  0  0  0  0
  3  6  1  0  0  0  0
  5 41  1  0  0  0  0
  5 42  1  0  0  0  0
  5 43  1  0  0  0  0
  6  7  2  0  0  0  0
  6  8  1  0  0  0  0
  8  9  1  0  0  0  0
  9 10  1  0  0  0  0
  9 15  1  0  0  0  0
  9 11  1  0  0  0  0
 11 12  1  0  0  0  0
 11 44  1  0  0  0  0
 11 45  1  0  0  0  0
 12 13  1  0  0  0  0
 12 46  1  0  0  0  0
 12 47  1  0  0  0  0
 13 14  2  0  0  0  0
 13 48  1  0  0  0  0
 14 22  1  0  0  0  0
 14 15  1  0  0  0  0
 15 16  1  0  0  0  0
 15 17  1  0  0  0  0
 17 18  1  0  0  0  0
 17 19  1  0  0  0  0
 17 24  1  0  0  0  0
 19 20  1  0  0  0  0
 19 21  1  0  0  0  0
 19 23  1  0  0  0  0
 21 22  2  0  0  0  0
 21 49  1  0  0  0  0
 22 50  1  0  0  0  0
 23 51  1  0  0  0  0
 23 52  1  0  0  0  0
 23 53  1  0  0  0  0
 24 25  1  0  0  0  0
 24 54  1  0  0  0  0
 24 55  1  0  0  0  0
 25 26  1  0  0  0  0
 25 56  1  0  0  0  0
 25 57  1  0  0  0  0
 26 27  1  0  0  0  0
 26 34  1  0  0  0  0
 26 28  1  0  0  0  0
 28 29  1  0  0  0  0
 28 58  1  0  0  0  0
 28 59  1  0  0  0  0
 29 30  1  0  0  0  0
 29 31  1  0  0  0  0
 29 35  1  0  0  0  0
 31 32  1  0  0  0  0
 31 60  1  0  0  0  0
 31 61  1  0  0  0  0
 32 33  2  0  0  0  0
 32 34  1  0  0  0  0
 35 62  1  0  0  0  0
M  END
$$$$
ZINC03833877
  -OEChem-08230709403D

 70 71  0     1  0  0  0  0  0999 V2000
    1.8136    1.9866    7.3648 C   0  0  0  0  0  0  0  0  0  0  0  0
    1.2020    3.3544    7.6748 C   0  0  0  0  0  0  0  0  0  0  0  0
    0.7094    3.9986    6.3774 C   0  0  0  0  0  0  0  0  0  0  0  0
   -0.3485    3.1013    5.7320 C   0  0  0  0  0  0  0  0  0  0  0  0
    1.8864    4.1724    5.4154 C   0  0  0  0  0  0  0  0  0  0  0  0
    0.1070    5.3458    6.6826 C   0  0  0  0  0  0  0  0  0  0  0  0
   -0.0964    5.6710    7.8284 O   0  0  0  0  0  0  0  0  0  0  0  0
   -0.2036    6.1845    5.6817 O   0  0  0  0  0  0  0  0  0  0  0  0
   -0.8966    7.4094    6.0391 C   0  0  1  0  0  0  0  0  0  0  0  0
   -1.5750    7.2037    6.8670 H   0  0  0  0  0  0  0  0  0  0  0  0
    0.1300    8.4485    6.4849 C   0  0  0  0  0  0  0  0  0  0  0  0
   -0.6143    9.7464    6.8292 C   0  0  2  0  0  0  0  0  0  0  0  0
   -1.3572    9.5524    7.6029 H   0  0  0  0  0  0  0  0  0  0  0  0
   -1.2967   10.2278    5.5745 C   0  0  0  0  0  0  0  0  0  0  0  0
   -1.7577    9.3702    4.6831 C   0  0  0  0  0  0  0  0  0  0  0  0
   -1.6963    7.8811    4.8529 C   0  0  1  0  0  0  0  0  0  0  0  0
   -2.7180    7.5336    5.0062 H   0  0  0  0  0  0  0  0  0  0  0  0
   -1.2045    7.2716    3.5387 C   0  0  2  0  0  0  0  0  0  0  0  0
   -0.2320    7.6918    3.2820 H   0  0  0  0  0  0  0  0  0  0  0  0
   -2.2124    7.5990    2.4355 C   0  0  2  0  0  0  0  0  0  0  0  0
   -1.7852    7.3246    1.4710 H   0  0  0  0  0  0  0  0  0  0  0  0
   -2.5610    9.0559    2.4171 C   0  0  0  0  0  0  0  0  0  0  0  0
   -2.3692    9.8788    3.4338 C   0  0  0  0  0  0  0  0  0  0  0  0
   -3.4867    6.7841    2.6663 C   0  0  0  0  0  0  0  0  0  0  0  0
   -1.0840    5.7539    3.6901 C   0  0  0  0  0  0  0  0  0  0  0  0
   -1.1312    5.0982    2.3086 C   0  0  0  0  0  0  0  0  0  0  0  0
   -1.0448    3.5783    2.4621 C   0  0  2  0  0  0  0  0  0  0  0  0
   -0.1538    3.3211    3.0349 H   0  0  0  0  0  0  0  0  0  0  0  0
   -0.9667    2.9296    1.0787 C   0  0  0  0  0  0  0  0  0  0  0  0
   -0.7551    1.4222    1.2335 C   0  0  2  0  0  0  0  0  0  0  0  0
    0.1258    1.2403    1.8492 H   0  0  0  0  0  0  0  0  0  0  0  0
   -0.5525    0.7913   -0.1456 C   0  0  0  0  0  0  0  0  0  0  0  0
   -0.2225   -0.6704    0.0143 C   0  0  0  0  0  0  0  0  0  0  0  0
   -0.1562   -1.1576    1.1179 O   0  0  0  0  0  0  0  0  0  0  0  0
   -1.9015    0.8420    1.8590 O   0  0  0  0  0  0  0  0  0  0  0  0
   -2.2051    3.1020    3.1468 O   0  0  0  0  0  0  0  0  0  0  0  0
    0.3795   10.8023    7.3173 C   0  0  0  0  0  0  0  0  0  0  0  0
    1.0600    1.3474    6.9051 H   0  0  0  0  0  0  0  0  0  0  0  0
    2.6522    2.1105    6.6795 H   0  0  0  0  0  0  0  0  0  0  0  0
    2.1646    1.5277    8.2891 H   0  0  0  0  0  0  0  0  0  0  0  0
    1.9557    3.9937    8.1345 H   0  0  0  0  0  0  0  0  0  0  0  0
    0.3635    3.2306    8.3601 H   0  0  0  0  0  0  0  0  0  0  0  0
   -0.7694    3.6042    4.8614 H   0  0  0  0  0  0  0  0  0  0  0  0
    0.1111    2.1626    5.4224 H   0  0  0  0  0  0  0  0  0  0  0  0
   -1.1407    2.8977    6.4524 H   0  0  0  0  0  0  0  0  0  0  0  0
    2.6401    4.8117    5.8752 H   0  0  0  0  0  0  0  0  0  0  0  0
    2.3222    3.1980    5.1946 H   0  0  0  0  0  0  0  0  0  0  0  0
    1.5355    4.6314    4.4911 H   0  0  0  0  0  0  0  0  0  0  0  0
    0.8386    8.6346    5.6778 H   0  0  0  0  0  0  0  0  0  0  0  0
    0.6616    8.0856    7.3646 H   0  0  0  0  0  0  0  0  0  0  0  0
   -1.4103   11.2880    5.4026 H   0  0  0  0  0  0  0  0  0  0  0  0
   -2.9972    9.4598    1.5154 H   0  0  0  0  0  0  0  0  0  0  0  0
   -2.6574   10.9165    3.3539 H   0  0  0  0  0  0  0  0  0  0  0  0
   -3.9099    7.0388    3.6379 H   0  0  0  0  0  0  0  0  0  0  0  0
   -4.2104    7.0120    1.8837 H   0  0  0  0  0  0  0  0  0  0  0  0
   -3.2475    5.7209    2.6416 H   0  0  0  0  0  0  0  0  0  0  0  0
   -1.9099    5.3826    4.2969 H   0  0  0  0  0  0  0  0  0  0  0  0
   -0.1388    5.5110    4.1755 H   0  0  0  0  0  0  0  0  0  0  0  0
   -0.2914    5.4512    1.7100 H   0  0  0  0  0  0  0  0  0  0  0  0
   -2.0660    5.3608    1.8134 H   0  0  0  0  0  0  0  0  0  0  0  0
   -0.1328    3.3583    0.5229 H   0  0  0  0  0  0  0  0  0  0  0  0
   -1.8957    3.1125    0.5387 H   0  0  0  0  0  0  0  0  0  0  0  0
    0.2669    1.2948   -0.6586 H   0  0  0  0  0  0  0  0  0  0  0  0
   -1.4663    0.8957   -0.7306 H   0  0  0  0  0  0  0  0  0  0  0  0
   -2.7237    0.9655    1.3652 H   0  0  0  0  0  0  0  0  0  0  0  0
   -3.0368    3.2962    2.6932 H   0  0  0  0  0  0  0  0  0  0  0  0
   -0.1514   11.7303    7.5295 H   0  0  0  0  0  0  0  0  0  0  0  0
    0.8693   10.4484    8.2244 H   0  0  0  0  0  0  0  0  0  0  0  0
    1.1285   10.9805    6.5457 H   0  0  0  0  0  0  0  0  0  0  0  0
   -0.0023   -1.4311   -1.0695 O   0  5  0  0  0  0  0  0  0  0  0  0
  1  2  1  0  0  0  0
  1 38  1  0  0  0  0
  1 39  1  0  0  0  0
  1 40  1  0  0  0  0
  2  3  1  0  0  0  0
  2 41  1  0  0  0  0
  2 42  1  0  0  0  0
  3  4  1  0  0  0  0
  3  5  1  0  0  0  0
  3  6  1  0  0  0  0
  4 43  1  0  0  0  0
  4 44  1  0  0  0  0
  4 45  1  0  0  0  0
  5 46  1  0  0  0  0
  5 47  1  0  0  0  0
  5 48  1  0  0  0  0
  6  7  2  0  0  0  0
  6  8  1  0  0  0  0
  8  9  1  0  0  0  0
  9 10  1  0  0  0  0
  9 16  1  0  0  0  0
  9 11  1  0  0  0  0
 11 12  1  0  0  0  0
 11 49  1  0  0  0  0
 11 50  1  0  0  0  0
 12 13  1  0  0  0  0
 12 14  1  0  0  0  0
 12 37  1  0  0  0  0
 14 15  2  0  0  0  0
 14 51  1  0  0  0  0
 15 23  1  0  0  0  0
 15 16  1  0  0  0  0
 16 17  1  0  0  0  0
 16 18  1  0  0  0  0
 18 19  1  0  0  0  0
 18 20  1  0  0  0  0
 18 25  1  0  0  0  0
 20 21  1  0  0  0  0
 20 22  1  0  0  0  0
 20 24  1  0  0  0  0
 22 23  2  0  0  0  0
 22 52  1  0  0  0  0
 23 53  1  0  0  0  0
 24 54  1  0  0  0  0
 24 55  1  0  0  0  0
 24 56  1  0  0  0  0
 25 26  1  0  0  0  0
 25 57  1  0  0  0  0
 25 58  1  0  0  0  0
 26 27  1  0  0  0  0
 26 59  1  0  0  0  0
 26 60  1  0  0  0  0
 27 28  1  0  0  0  0
 27 29  1  0  0  0  0
 27 36  1  0  0  0  0
 29 30  1  0  0  0  0
 29 61  1  0  0  0  0
 29 62  1  0  0  0  0
 30 31  1  0  0  0  0
 30 32  1  0  0  0  0
 30 35  1  0  0  0  0
 32 33  1  0  0  0  0
 32 63  1  0  0  0  0
 32 64  1  0  0  0  0
 33 34  2  0  0  0  0
 33 70  1  0  0  0  0
 35 65  1  0  0  0  0
 36 66  1  0  0  0  0
 37 67  1  0  0  0  0
 37 68  1  0  0  0  0
 37 69  1  0  0  0  0
M  CHG  1  70  -1
M  END
$$$$
ZINC03833878
  -OEChem-08230709403D

 64 66  0     1  0  0  0  0  0999 V2000
   -2.1908    3.7249   -5.8889 C   0  0  0  0  0  0  0  0  0  0  0  0
   -2.5691    3.6006   -4.4117 C   0  0  2  0  0  0  0  0  0  0  0  0
   -3.4011    4.2676   -4.1859 H   0  0  0  0  0  0  0  0  0  0  0  0
   -1.3619    3.9580   -3.5331 C   0  0  0  0  0  0  0  0  0  0  0  0
   -0.2064    3.0305   -3.9033 C   0  0  2  0  0  0  0  0  0  0  0  0
    0.0669    3.2031   -4.9443 H   0  0  0  0  0  0  0  0  0  0  0  0
   -0.5686    1.5760   -3.7258 C   0  0  1  0  0  0  0  0  0  0  0  0
   -0.1069    1.0311   -4.5492 H   0  0  0  0  0  0  0  0  0  0  0  0
   -0.0062    0.9940   -2.4275 C   0  0  2  0  0  0  0  0  0  0  0  0
    1.0565    1.2242   -2.3508 H   0  0  0  0  0  0  0  0  0  0  0  0
   -0.2028   -0.5229   -2.4454 C   0  0  2  0  0  0  0  0  0  0  0  0
    0.4768   -0.9607   -3.1765 H   0  0  0  0  0  0  0  0  0  0  0  0
   -1.6094   -0.8960   -2.8014 C   0  0  0  0  0  0  0  0  0  0  0  0
   -2.4603   -0.0892   -3.4118 C   0  0  0  0  0  0  0  0  0  0  0  0
   -2.0397    1.2852   -3.7689 C   0  0  0  0  0  0  0  0  0  0  0  0
   -2.9546    2.1773   -4.1000 C   0  0  0  0  0  0  0  0  0  0  0  0
    0.1254   -1.0848   -1.0607 C   0  0  0  0  0  0  0  0  0  0  0  0
   -0.7489    1.5939   -1.2319 C   0  0  0  0  0  0  0  0  0  0  0  0
   -2.1921    1.0861   -1.2211 C   0  0  0  0  0  0  0  0  0  0  0  0
   -2.8913    1.5639    0.0532 C   0  0  1  0  0  0  0  0  0  0  0  0
   -2.8140    2.6487    0.1262 H   0  0  0  0  0  0  0  0  0  0  0  0
   -4.3667    1.1566    0.0106 C   0  0  0  0  0  0  0  0  0  0  0  0
   -5.0508    1.5900    1.3109 C   0  0  1  0  0  0  0  0  0  0  0  0
   -6.1007    1.2981    1.2856 H   0  0  0  0  0  0  0  0  0  0  0  0
   -4.3554    0.9033    2.4927 C   0  0  0  0  0  0  0  0  0  0  0  0
   -2.8702    1.1744    2.3957 C   0  0  0  0  0  0  0  0  0  0  0  0
   -2.2486    1.5787    3.3496 O   0  0  0  0  0  0  0  0  0  0  0  0
   -2.2598    0.9522    1.2130 O   0  0  0  0  0  0  0  0  0  0  0  0
   -4.9520    3.0081    1.4561 O   0  0  0  0  0  0  0  0  0  0  0  0
    0.9338    3.3394   -3.0590 O   0  0  0  0  0  0  0  0  0  0  0  0
    1.7657    4.3021   -3.4866 C   0  0  0  0  0  0  0  0  0  0  0  0
    1.5484    4.8679   -4.5319 O   0  0  0  0  0  0  0  0  0  0  0  0
    2.9707    4.6772   -2.6631 C   0  0  1  0  0  0  0  0  0  0  0  0
    2.6732    4.9970   -1.7635 H   0  0  0  0  0  0  0  0  0  0  0  0
    3.8751    3.4545   -2.4962 C   0  0  0  0  0  0  0  0  0  0  0  0
    3.7333    5.7747   -3.3595 C   0  0  0  0  0  0  0  0  0  0  0  0
    3.6450    5.9054   -4.5568 O   0  0  0  0  0  0  0  0  0  0  0  0
    4.6060    6.7092   -2.5619 C   0  0  0  0  0  0  0  0  0  0  0  0
   -1.3690    3.0445   -6.1120 H   0  0  0  0  0  0  0  0  0  0  0  0
   -3.0516    3.4701   -6.5072 H   0  0  0  0  0  0  0  0  0  0  0  0
   -1.8822    4.7488   -6.1001 H   0  0  0  0  0  0  0  0  0  0  0  0
   -1.6193    3.8226   -2.4826 H   0  0  0  0  0  0  0  0  0  0  0  0
   -1.0724    4.9939   -3.7096 H   0  0  0  0  0  0  0  0  0  0  0  0
   -1.9502   -1.8876   -2.5424 H   0  0  0  0  0  0  0  0  0  0  0  0
   -3.4573   -0.4305   -3.6485 H   0  0  0  0  0  0  0  0  0  0  0  0
   -3.9927    1.8833   -4.1486 H   0  0  0  0  0  0  0  0  0  0  0  0
   -0.5949   -0.7068   -0.3351 H   0  0  0  0  0  0  0  0  0  0  0  0
    0.0754   -2.1733   -1.0891 H   0  0  0  0  0  0  0  0  0  0  0  0
    1.1295   -0.7746   -0.7713 H   0  0  0  0  0  0  0  0  0  0  0  0
   -0.7468    2.6810   -1.3111 H   0  0  0  0  0  0  0  0  0  0  0  0
   -0.2519    1.2959   -0.3087 H   0  0  0  0  0  0  0  0  0  0  0  0
   -2.7202    1.4735   -2.0923 H   0  0  0  0  0  0  0  0  0  0  0  0
   -2.1941   -0.0036   -1.2498 H   0  0  0  0  0  0  0  0  0  0  0  0
   -4.8536    1.6415   -0.8355 H   0  0  0  0  0  0  0  0  0  0  0  0
   -4.4424    0.0746   -0.0970 H   0  0  0  0  0  0  0  0  0  0  0  0
   -4.5359   -0.1709    2.4512 H   0  0  0  0  0  0  0  0  0  0  0  0
   -4.7414    1.3050    3.4296 H   0  0  0  0  0  0  0  0  0  0  0  0
   -5.3592    3.3502    2.2637 H   0  0  0  0  0  0  0  0  0  0  0  0
    4.7467    3.7258   -1.9005 H   0  0  0  0  0  0  0  0  0  0  0  0
    3.3236    2.6607   -1.9924 H   0  0  0  0  0  0  0  0  0  0  0  0
    4.1994    3.1059   -3.4767 H   0  0  0  0  0  0  0  0  0  0  0  0
    5.5307    6.3330   -2.5031 H   0  0  0  0  0  0  0  0  0  0  0  0
    4.6401    7.6820   -3.0524 H   0  0  0  0  0  0  0  0  0  0  0  0
    4.1953    6.8224   -1.5586 H   0  0  0  0  0  0  0  0  0  0  0  0
  1  2  1  0  0  0  0
  1 39  1  0  0  0  0
  1 40  1  0  0  0  0
  1 41  1  0  0  0  0
  2  3  1  0  0  0  0
  2 16  1  0  0  0  0
  2  4  1  0  0  0  0
  4  5  1  0  0  0  0
  4 42  1  0  0  0  0
  4 43  1  0  0  0  0
  5  6  1  0  0  0  0
  5  7  1  0  0  0  0
  5 30  1  0  0  0  0
  7  8  1  0  0  0  0
  7 15  1  0  0  0  0
  7  9  1  0  0  0  0
  9 10  1  0  0  0  0
  9 11  1  0  0  0  0
  9 18  1  0  0  0  0
 11 12  1  0  0  0  0
 11 13  1  0  0  0  0
 11 17  1  0  0  0  0
 13 14  2  0  0  0  0
 13 44  1  0  0  0  0
 14 15  1  0  0  0  0
 14 45  1  0  0  0  0
 15 16  2  0  0  0  0
 16 46  1  0  0  0  0
 17 47  1  0  0  0  0
 17 48  1  0  0  0  0
 17 49  1  0  0  0  0
 18 19  1  0  0  0  0
 18 50  1  0  0  0  0
 18 51  1  0  0  0  0
 19 20  1  0  0  0  0
 19 52  1  0  0  0  0
 19 53  1  0  0  0  0
 20 21  1  0  0  0  0
 20 28  1  0  0  0  0
 20 22  1  0  0  0  0
 22 23  1  0  0  0  0
 22 54  1  0  0  0  0
 22 55  1  0  0  0  0
 23 24  1  0  0  0  0
 23 25  1  0  0  0  0
 23 29  1  0  0  0  0
 25 26  1  0  0  0  0
 25 56  1  0  0  0  0
 25 57  1  0  0  0  0
 26 27  2  0  0  0  0
 26 28  1  0  0  0  0
 29 58  1  0  0  0  0
 30 31  1  0  0  0  0
 31 32  2  0  0  0  0
 31 33  1  0  0  0  0
 33 34  1  0  0  0  0
 33 35  1  0  0  0  0
 33 36  1  0  0  0  0
 35 59  1  0  0  0  0
 35 60  1  0  0  0  0
 35 61  1  0  0  0  0
 36 37  2  0  0  0  0
 36 38  1  0  0  0  0
 38 62  1  0  0  0  0
 38 63  1  0  0  0  0
 38 64  1  0  0  0  0
M  END
$$$$
ZINC03833879
  -OEChem-08230709403D

 63 65  0     1  0  0  0  0  0999 V2000
   -0.6114   -0.9219    5.7791 C   0  0  0  0  0  0  0  0  0  0  0  0
   -1.3860   -0.3067    6.9463 C   0  0  2  0  0  0  0  0  0  0  0  0
   -2.3024   -0.8706    7.1204 H   0  0  0  0  0  0  0  0  0  0  0  0
   -1.7275    1.1560    6.6305 C   0  0  0  0  0  0  0  0  0  0  0  0
   -0.4244    1.9082    6.3679 C   0  0  1  0  0  0  0  0  0  0  0  0
   -0.6558    2.9513    6.1519 H   0  0  0  0  0  0  0  0  0  0  0  0
    0.5105    1.8473    7.5528 C   0  0  1  0  0  0  0  0  0  0  0  0
    1.5281    1.7843    7.1673 H   0  0  0  0  0  0  0  0  0  0  0  0
    0.4415    3.1191    8.4013 C   0  0  2  0  0  0  0  0  0  0  0  0
    0.5603    3.9929    7.7606 H   0  0  0  0  0  0  0  0  0  0  0  0
    1.5697    3.0825    9.4332 C   0  0  1  0  0  0  0  0  0  0  0  0
    1.4252    3.8948   10.1455 H   0  0  0  0  0  0  0  0  0  0  0  0
    1.5987    1.7811   10.1753 C   0  0  0  0  0  0  0  0  0  0  0  0
    1.0304    0.6687    9.7432 C   0  0  0  0  0  0  0  0  0  0  0  0
    0.2957    0.6699    8.4570 C   0  0  0  0  0  0  0  0  0  0  0  0
   -0.5337   -0.3214    8.1889 C   0  0  0  0  0  0  0  0  0  0  0  0
    2.9075    3.2788    8.7173 C   0  0  0  0  0  0  0  0  0  0  0  0
   -0.9083    3.1847    9.1188 C   0  0  0  0  0  0  0  0  0  0  0  0
   -1.0245    4.5147    9.8661 C   0  0  0  0  0  0  0  0  0  0  0  0
   -2.3742    4.5803   10.5836 C   0  0  1  0  0  0  0  0  0  0  0  0
   -2.4876    3.7076   11.2268 H   0  0  0  0  0  0  0  0  0  0  0  0
   -2.4414    5.8532   11.4319 C   0  0  0  0  0  0  0  0  0  0  0  0
   -3.8137    5.9420   12.1066 C   0  0  1  0  0  0  0  0  0  0  0  0
   -3.8658    6.8483   12.7099 H   0  0  0  0  0  0  0  0  0  0  0  0
   -4.8996    5.9801   11.0244 C   0  0  0  0  0  0  0  0  0  0  0  0
   -4.6867    4.8070   10.0931 C   0  0  0  0  0  0  0  0  0  0  0  0
   -5.6004    4.0734    9.7986 O   0  0  0  0  0  0  0  0  0  0  0  0
   -3.4470    4.6039    9.6004 O   0  0  0  0  0  0  0  0  0  0  0  0
   -4.0108    4.7994   12.9419 O   0  0  0  0  0  0  0  0  0  0  0  0
    0.2354    1.3223    5.2148 O   0  0  0  0  0  0  0  0  0  0  0  0
   -0.1072    1.8006    4.0084 C   0  0  0  0  0  0  0  0  0  0  0  0
   -0.9312    2.6799    3.9188 O   0  0  0  0  0  0  0  0  0  0  0  0
    0.5358    1.2411    2.7656 C   0  0  0  0  0  0  0  0  0  0  0  0
   -0.0271    1.9546    1.5347 C   0  0  1  0  0  0  0  0  0  0  0  0
    0.1059    3.0307    1.6460 H   0  0  0  0  0  0  0  0  0  0  0  0
    0.7136    1.4758    0.2845 C   0  0  0  0  0  0  0  0  0  0  0  0
   -1.4190    1.6573    1.4068 O   0  0  0  0  0  0  0  0  0  0  0  0
   -0.5688   -2.0042    5.9015 H   0  0  0  0  0  0  0  0  0  0  0  0
   -1.1144   -0.6817    4.8424 H   0  0  0  0  0  0  0  0  0  0  0  0
    0.4009   -0.5181    5.7618 H   0  0  0  0  0  0  0  0  0  0  0  0
   -2.2454    1.6036    7.4787 H   0  0  0  0  0  0  0  0  0  0  0  0
   -2.3627    1.2020    5.7459 H   0  0  0  0  0  0  0  0  0  0  0  0
    2.1162    1.7501   11.1227 H   0  0  0  0  0  0  0  0  0  0  0  0
    1.1018   -0.2379   10.3258 H   0  0  0  0  0  0  0  0  0  0  0  0
   -0.6028   -1.1559    8.8710 H   0  0  0  0  0  0  0  0  0  0  0  0
    3.0680    2.4598    8.0161 H   0  0  0  0  0  0  0  0  0  0  0  0
    2.8941    4.2242    8.1749 H   0  0  0  0  0  0  0  0  0  0  0  0
    3.7136    3.2923    9.4509 H   0  0  0  0  0  0  0  0  0  0  0  0
   -1.7127    3.1075    8.3873 H   0  0  0  0  0  0  0  0  0  0  0  0
   -0.9827    2.3612    9.8289 H   0  0  0  0  0  0  0  0  0  0  0  0
   -0.2200    4.5919   10.5976 H   0  0  0  0  0  0  0  0  0  0  0  0
   -0.9501    5.3383    9.1560 H   0  0  0  0  0  0  0  0  0  0  0  0
   -1.6627    5.8239   12.1941 H   0  0  0  0  0  0  0  0  0  0  0  0
   -2.2931    6.7241   10.7934 H   0  0  0  0  0  0  0  0  0  0  0  0
   -5.8832    5.9065   11.4884 H   0  0  0  0  0  0  0  0  0  0  0  0
   -4.8265    6.9119   10.4636 H   0  0  0  0  0  0  0  0  0  0  0  0
   -4.8617    4.7902   13.4013 H   0  0  0  0  0  0  0  0  0  0  0  0
    0.3238    0.1742    2.6957 H   0  0  0  0  0  0  0  0  0  0  0  0
    1.6138    1.3950    2.8135 H   0  0  0  0  0  0  0  0  0  0  0  0
    0.5806    0.3997    0.1732 H   0  0  0  0  0  0  0  0  0  0  0  0
    1.7753    1.7025    0.3821 H   0  0  0  0  0  0  0  0  0  0  0  0
    0.3126    1.9841   -0.5924 H   0  0  0  0  0  0  0  0  0  0  0  0
   -1.6122    0.7154    1.3039 H   0  0  0  0  0  0  0  0  0  0  0  0
  1  2  1  0  0  0  0
  1 38  1  0  0  0  0
  1 39  1  0  0  0  0
  1 40  1  0  0  0  0
  2  3  1  0  0  0  0
  2 16  1  0  0  0  0
  2  4  1  0  0  0  0
  4  5  1  0  0  0  0
  4 41  1  0  0  0  0
  4 42  1  0  0  0  0
  5  6  1  0  0  0  0
  5  7  1  0  0  0  0
  5 30  1  0  0  0  0
  7  8  1  0  0  0  0
  7 15  1  0  0  0  0
  7  9  1  0  0  0  0
  9 10  1  0  0  0  0
  9 11  1  0  0  0  0
  9 18  1  0  0  0  0
 11 12  1  0  0  0  0
 11 13  1  0  0  0  0
 11 17  1  0  0  0  0
 13 14  2  0  0  0  0
 13 43  1  0  0  0  0
 14 15  1  0  0  0  0
 14 44  1  0  0  0  0
 15 16  2  0  0  0  0
 16 45  1  0  0  0  0
 17 46  1  0  0  0  0
 17 47  1  0  0  0  0
 17 48  1  0  0  0  0
 18 19  1  0  0  0  0
 18 49  1  0  0  0  0
 18 50  1  0  0  0  0
 19 20  1  0  0  0  0
 19 51  1  0  0  0  0
 19 52  1  0  0  0  0
 20 21  1  0  0  0  0
 20 28  1  0  0  0  0
 20 22  1  0  0  0  0
 22 23  1  0  0  0  0
 22 53  1  0  0  0  0
 22 54  1  0  0  0  0
 23 24  1  0  0  0  0
 23 25  1  0  0  0  0
 23 29  1  0  0  0  0
 25 26  1  0  0  0  0
 25 55  1  0  0  0  0
 25 56  1  0  0  0  0
 26 27  2  0  0  0  0
 26 28  1  0  0  0  0
 29 57  1  0  0  0  0
 30 31  1  0  0  0  0
 31 32  2  0  0  0  0
 31 33  1  0  0  0  0
 33 34  1  0  0  0  0
 33 58  1  0  0  0  0
 33 59  1  0  0  0  0
 34 35  1  0  0  0  0
 34 36  1  0  0  0  0
 34 37  1  0  0  0  0
 36 60  1  0  0  0  0
 36 61  1  0  0  0  0
 36 62  1  0  0  0  0
 37 63  1  0  0  0  0
M  END
$$$$
ZINC03833880
  -OEChem-08230709403D

 60 61  0     1  0  0  0  0  0999 V2000
    0.3215    4.0246   -1.2295 C   0  0  0  0  0  0  0  0  0  0  0  0
    1.0672    3.5269    0.0103 C   0  0  0  0  0  0  0  0  0  0  0  0
    0.3448    4.0120    1.2688 C   0  0  0  0  0  0  0  0  0  0  0  0
    1.1056    2.0204    0.0024 C   0  0  0  0  0  0  0  0  0  0  0  0
    2.3283    1.3431   -0.0130 C   0  0  0  0  0  0  0  0  0  0  0  0
    2.3081   -0.0667   -0.0208 C   0  0  0  0  0  0  0  0  0  0  0  0
    1.1333   -0.6909   -0.0129 N   0  0  0  0  0  0  0  0  0  0  0  0
    0.0021   -0.0041    0.0020 C   0  0  0  0  0  0  0  0  0  0  0  0
   -0.0159    1.3219    0.0093 N   0  0  0  0  0  0  0  0  0  0  0  0
   -1.1989   -0.6908    0.0098 N   0  0  0  0  0  0  0  0  0  0  0  0
   -2.4645    0.0470    0.0258 C   0  0  0  0  0  0  0  0  0  0  0  0
   -1.2060   -2.3467    0.0010 S   0  0  0  0  0  0  0  0  0  0  0  0
   -2.4478   -2.7009   -0.5920 O   0  0  0  0  0  0  0  0  0  0  0  0
    0.0213   -2.7113   -0.6156 O   0  0  0  0  0  0  0  0  0  0  0  0
   -1.1912   -2.8223    1.7515 C   0  0  0  0  0  0  0  0  0  0  0  0
    3.5717   -0.8386   -0.0370 C   0  0  0  0  0  0  0  0  0  0  0  0
    4.6757   -0.3589   -0.7420 C   0  0  0  0  0  0  0  0  0  0  0  0
    5.8518   -1.0791   -0.7501 C   0  0  0  0  0  0  0  0  0  0  0  0
    5.9347   -2.2828   -0.0681 C   0  0  0  0  0  0  0  0  0  0  0  0
    4.8389   -2.7662    0.6294 C   0  0  0  0  0  0  0  0  0  0  0  0
    3.6601   -2.0507    0.6479 C   0  0  0  0  0  0  0  0  0  0  0  0
    7.0872   -2.9875   -0.0836 F   0  0  0  0  0  0  0  0  0  0  0  0
    3.6053    2.0833   -0.0207 C   0  0  0  0  0  0  0  0  0  0  0  0
    4.5580    1.7719    0.8491 C   0  0  0  0  0  0  0  0  0  0  0  0
    5.8618    2.5276    0.8412 C   0  0  1  0  0  0  0  0  0  0  0  0
    5.8375    3.2858    0.0584 H   0  0  0  0  0  0  0  0  0  0  0  0
    6.0683    3.2025    2.1987 C   0  0  0  0  0  0  0  0  0  0  0  0
    7.3276    4.0702    2.1505 C   0  0  2  0  0  0  0  0  0  0  0  0
    8.1754    3.4628    1.8336 H   0  0  0  0  0  0  0  0  0  0  0  0
    7.6038    4.6457    3.5410 C   0  0  0  0  0  0  0  0  0  0  0  0
    8.9090    5.3988    3.5227 C   0  0  0  0  0  0  0  0  0  0  0  0
    9.5523    5.4681    2.5023 O   0  0  0  0  0  0  0  0  0  0  0  0
    7.1342    5.1393    1.2223 O   0  0  0  0  0  0  0  0  0  0  0  0
    6.9370    1.6200    0.5920 O   0  0  0  0  0  0  0  0  0  0  0  0
   -0.6965    3.6351   -1.2220 H   0  0  0  0  0  0  0  0  0  0  0  0
    0.2937    5.1142   -1.2238 H   0  0  0  0  0  0  0  0  0  0  0  0
    0.8361    3.6790   -2.1261 H   0  0  0  0  0  0  0  0  0  0  0  0
    2.0852    3.9164    0.0028 H   0  0  0  0  0  0  0  0  0  0  0  0
    0.8761    3.6574    2.1521 H   0  0  0  0  0  0  0  0  0  0  0  0
    0.3170    5.1016    1.2746 H   0  0  0  0  0  0  0  0  0  0  0  0
   -0.6732    3.6225    1.2764 H   0  0  0  0  0  0  0  0  0  0  0  0
   -2.7882    0.2355   -0.9978 H   0  0  0  0  0  0  0  0  0  0  0  0
   -3.2217   -0.5416    0.5438 H   0  0  0  0  0  0  0  0  0  0  0  0
   -2.3252    0.9961    0.5435 H   0  0  0  0  0  0  0  0  0  0  0  0
   -2.0748   -2.4180    2.2453 H   0  0  0  0  0  0  0  0  0  0  0  0
   -1.1950   -3.9093    1.8327 H   0  0  0  0  0  0  0  0  0  0  0  0
   -0.2950   -2.4254    2.2282 H   0  0  0  0  0  0  0  0  0  0  0  0
    4.6108    0.5769   -1.2772 H   0  0  0  0  0  0  0  0  0  0  0  0
    6.7085   -0.7064   -1.2919 H   0  0  0  0  0  0  0  0  0  0  0  0
    4.9082   -3.7048    1.1591 H   0  0  0  0  0  0  0  0  0  0  0  0
    2.8066   -2.4283    1.1914 H   0  0  0  0  0  0  0  0  0  0  0  0
    3.7643    2.8783   -0.7342 H   0  0  0  0  0  0  0  0  0  0  0  0
    4.3990    0.9769    1.5625 H   0  0  0  0  0  0  0  0  0  0  0  0
    5.2052    3.8272    2.4289 H   0  0  0  0  0  0  0  0  0  0  0  0
    6.1814    2.4405    2.9698 H   0  0  0  0  0  0  0  0  0  0  0  0
    6.7972    5.3234    3.8206 H   0  0  0  0  0  0  0  0  0  0  0  0
    7.6632    3.8332    4.2652 H   0  0  0  0  0  0  0  0  0  0  0  0
    6.3944    5.7220    1.4421 H   0  0  0  0  0  0  0  0  0  0  0  0
    7.0188    0.9168    1.2507 H   0  0  0  0  0  0  0  0  0  0  0  0
    9.3570    5.9925    4.6401 O   0  5  0  0  0  0  0  0  0  0  0  0
  1  2  1  0  0  0  0
  1 35  1  0  0  0  0
  1 36  1  0  0  0  0
  1 37  1  0  0  0  0
  2  3  1  0  0  0  0
  2  4  1  0  0  0  0
  2 38  1  0  0  0  0
  3 39  1  0  0  0  0
  3 40  1  0  0  0  0
  3 41  1  0  0  0  0
  4  9  2  0  0  0  0
  4  5  1  0  0  0  0
  5  6  2  0  0  0  0
  5 23  1  0  0  0  0
  6  7  1  0  0  0  0
  6 16  1  0  0  0  0
  7  8  2  0  0  0  0
  8  9  1  0  0  0  0
  8 10  1  0  0  0  0
 10 11  1  0  0  0  0
 10 12  1  0  0  0  0
 11 42  1  0  0  0  0
 11 43  1  0  0  0  0
 11 44  1  0  0  0  0
 12 13  2  0  0  0  0
 12 14  2  0  0  0  0
 12 15  1  0  0  0  0
 15 45  1  0  0  0  0
 15 46  1  0  0  0  0
 15 47  1  0  0  0  0
 16 21  2  0  0  0  0
 16 17  1  0  0  0  0
 17 18  2  0  0  0  0
 17 48  1  0  0  0  0
 18 19  1  0  0  0  0
 18 49  1  0  0  0  0
 19 20  2  0  0  0  0
 19 22  1  0  0  0  0
 20 21  1  0  0  0  0
 20 50  1  0  0  0  0
 21 51  1  0  0  0  0
 23 24  2  0  0  0  0
 23 52  1  0  0  0  0
 24 25  1  0  0  0  0
 24 53  1  0  0  0  0
 25 26  1  0  0  0  0
 25 27  1  0  0  0  0
 25 34  1  0  0  0  0
 27 28  1  0  0  0  0
 27 54  1  0  0  0  0
 27 55  1  0  0  0  0
 28 29  1  0  0  0  0
 28 30  1  0  0  0  0
 28 33  1  0  0  0  0
 30 31  1  0  0  0  0
 30 56  1  0  0  0  0
 30 57  1  0  0  0  0
 31 32  2  0  0  0  0
 31 60  1  0  0  0  0
 33 58  1  0  0  0  0
 34 59  1  0  0  0  0
M  CHG  1  60  -1
M  END
$$$$
ZINC03833881
  -OEChem-08230709403D

 67 69  0     1  0  0  0  0  0999 V2000
   -2.5235    6.4923   -3.0003 C   0  0  0  0  0  0  0  0  0  0  0  0
   -1.0292    6.7256   -3.2318 C   0  0  0  0  0  0  0  0  0  0  0  0
   -0.3490    7.0376   -1.8973 C   0  0  0  0  0  0  0  0  0  0  0  0
   -0.5389    5.8590   -0.9403 C   0  0  0  0  0  0  0  0  0  0  0  0
   -0.9732    8.2947   -1.2883 C   0  0  0  0  0  0  0  0  0  0  0  0
    1.1228    7.2674   -2.1252 C   0  0  0  0  0  0  0  0  0  0  0  0
    1.5568    7.3325   -3.2510 O   0  0  0  0  0  0  0  0  0  0  0  0
    1.9516    7.3997   -1.0777 O   0  0  0  0  0  0  0  0  0  0  0  0
    3.3334    7.7375   -1.3689 C   0  0  1  0  0  0  0  0  0  0  0  0
    3.6231    7.2449   -2.2972 H   0  0  0  0  0  0  0  0  0  0  0  0
    3.4373    9.2349   -1.5608 C   0  0  0  0  0  0  0  0  0  0  0  0
    4.8402    9.7435   -1.5015 C   0  0  0  0  0  0  0  0  0  0  0  0
    5.8363    9.0699   -0.9409 C   0  0  0  0  0  0  0  0  0  0  0  0
    5.6078    7.7536   -0.3467 C   0  0  0  0  0  0  0  0  0  0  0  0
    6.6666    7.0406    0.1107 C   0  0  0  0  0  0  0  0  0  0  0  0
    6.5058    5.7777    0.7016 C   0  0  0  0  0  0  0  0  0  0  0  0
    7.4796    5.1679    1.0958 O   0  0  0  0  0  0  0  0  0  0  0  0
    5.1334    5.1727    0.8501 C   0  0  2  0  0  0  0  0  0  0  0  0
    5.2019    4.1760    0.8055 H   0  0  0  0  0  0  0  0  0  0  0  0
    4.2403    5.6830   -0.2846 C   0  0  2  0  0  0  0  0  0  0  0  0
    4.6402    5.3488   -1.2419 H   0  0  0  0  0  0  0  0  0  0  0  0
    4.2099    7.2138   -0.2483 C   0  0  2  0  0  0  0  0  0  0  0  0
    3.7756    7.5347    0.6986 H   0  0  0  0  0  0  0  0  0  0  0  0
    2.8220    5.1384   -0.1042 C   0  0  0  0  0  0  0  0  0  0  0  0
    2.8694    3.6117   -0.0153 C   0  0  0  0  0  0  0  0  0  0  0  0
    1.4434    3.0579    0.0124 C   0  0  2  0  0  0  0  0  0  0  0  0
    0.8746    3.5554    0.7980 H   0  0  0  0  0  0  0  0  0  0  0  0
    1.4846    1.5520    0.2860 C   0  0  0  0  0  0  0  0  0  0  0  0
    0.0590    0.9921    0.2603 C   0  0  2  0  0  0  0  0  0  0  0  0
    0.0849   -0.0808    0.4509 H   0  0  0  0  0  0  0  0  0  0  0  0
   -0.5543    1.2534   -1.1208 C   0  0  0  0  0  0  0  0  0  0  0  0
   -0.4081    2.7255   -1.4371 C   0  0  0  0  0  0  0  0  0  0  0  0
   -1.3508    3.3747   -1.8240 O   0  0  0  0  0  0  0  0  0  0  0  0
    0.8054    3.2928   -1.2745 O   0  0  0  0  0  0  0  0  0  0  0  0
   -0.7265    1.6374    1.2646 O   0  0  0  0  0  0  0  0  0  0  0  0
    4.5354    5.5837    2.1971 C   0  0  0  0  0  0  0  0  0  0  0  0
    5.1394   11.0899   -2.1087 C   0  0  0  0  0  0  0  0  0  0  0  0
   -2.9681    7.3879   -2.5665 H   0  0  0  0  0  0  0  0  0  0  0  0
   -3.0081    6.2701   -3.9511 H   0  0  0  0  0  0  0  0  0  0  0  0
   -2.6588    5.6527   -2.3186 H   0  0  0  0  0  0  0  0  0  0  0  0
   -0.8939    7.5653   -3.9135 H   0  0  0  0  0  0  0  0  0  0  0  0
   -0.5845    5.8300   -3.6656 H   0  0  0  0  0  0  0  0  0  0  0  0
   -0.1331    6.1163    0.0381 H   0  0  0  0  0  0  0  0  0  0  0  0
   -1.6015    5.6355   -0.8455 H   0  0  0  0  0  0  0  0  0  0  0  0
   -0.0174    4.9855   -1.3317 H   0  0  0  0  0  0  0  0  0  0  0  0
   -0.8379    9.1343   -1.9700 H   0  0  0  0  0  0  0  0  0  0  0  0
   -2.0377    8.1285   -1.1234 H   0  0  0  0  0  0  0  0  0  0  0  0
   -0.4886    8.5169   -0.3375 H   0  0  0  0  0  0  0  0  0  0  0  0
    2.8535    9.7282   -0.7838 H   0  0  0  0  0  0  0  0  0  0  0  0
    3.0125    9.4933   -2.5308 H   0  0  0  0  0  0  0  0  0  0  0  0
    6.8274    9.4986   -0.9236 H   0  0  0  0  0  0  0  0  0  0  0  0
    7.6594    7.4554    0.0182 H   0  0  0  0  0  0  0  0  0  0  0  0
    2.2083    5.4339   -0.9551 H   0  0  0  0  0  0  0  0  0  0  0  0
    2.3914    5.5425    0.8120 H   0  0  0  0  0  0  0  0  0  0  0  0
    3.3914    3.3168    0.8950 H   0  0  0  0  0  0  0  0  0  0  0  0
    3.3970    3.2135   -0.8820 H   0  0  0  0  0  0  0  0  0  0  0  0
    1.9283    1.3723    1.2652 H   0  0  0  0  0  0  0  0  0  0  0  0
    2.0827    1.0590   -0.4804 H   0  0  0  0  0  0  0  0  0  0  0  0
   -0.0310    0.6626   -1.8726 H   0  0  0  0  0  0  0  0  0  0  0  0
   -1.6103    0.9832   -1.1106 H   0  0  0  0  0  0  0  0  0  0  0  0
   -1.6435    1.3329    1.3027 H   0  0  0  0  0  0  0  0  0  0  0  0
    3.5390    5.1536    2.2986 H   0  0  0  0  0  0  0  0  0  0  0  0
    5.1721    5.2198    3.0035 H   0  0  0  0  0  0  0  0  0  0  0  0
    4.4690    6.6704    2.2488 H   0  0  0  0  0  0  0  0  0  0  0  0
    6.1983   11.3170   -1.9850 H   0  0  0  0  0  0  0  0  0  0  0  0
    4.8931   11.0726   -3.1704 H   0  0  0  0  0  0  0  0  0  0  0  0
    4.5433   11.8540   -1.6098 H   0  0  0  0  0  0  0  0  0  0  0  0
  1  2  1  0  0  0  0
  1 38  1  0  0  0  0
  1 39  1  0  0  0  0
  1 40  1  0  0  0  0
  2  3  1  0  0  0  0
  2 41  1  0  0  0  0
  2 42  1  0  0  0  0
  3  4  1  0  0  0  0
  3  5  1  0  0  0  0
  3  6  1  0  0  0  0
  4 43  1  0  0  0  0
  4 44  1  0  0  0  0
  4 45  1  0  0  0  0
  5 46  1  0  0  0  0
  5 47  1  0  0  0  0
  5 48  1  0  0  0  0
  6  7  2  0  0  0  0
  6  8  1  0  0  0  0
  8  9  1  0  0  0  0
  9 10  1  0  0  0  0
  9 22  1  0  0  0  0
  9 11  1  0  0  0  0
 11 12  1  0  0  0  0
 11 49  1  0  0  0  0
 11 50  1  0  0  0  0
 12 13  2  0  0  0  0
 12 37  1  0  0  0  0
 13 14  1  0  0  0  0
 13 51  1  0  0  0  0
 14 22  1  0  0  0  0
 14 15  2  0  0  0  0
 15 16  1  0  0  0  0
 15 52  1  0  0  0  0
 16 17  2  0  0  0  0
 16 18  1  0  0  0  0
 18 19  1  0  0  0  0
 18 20  1  0  0  0  0
 18 36  1  0  0  0  0
 20 21  1  0  0  0  0
 20 22  1  0  0  0  0
 20 24  1  0  0  0  0
 22 23  1  0  0  0  0
 24 25  1  0  0  0  0
 24 53  1  0  0  0  0
 24 54  1  0  0  0  0
 25 26  1  0  0  0  0
 25 55  1  0  0  0  0
 25 56  1  0  0  0  0
 26 27  1  0  0  0  0
 26 34  1  0  0  0  0
 26 28  1  0  0  0  0
 28 29  1  0  0  0  0
 28 57  1  0  0  0  0
 28 58  1  0  0  0  0
 29 30  1  0  0  0  0
 29 31  1  0  0  0  0
 29 35  1  0  0  0  0
 31 32  1  0  0  0  0
 31 59  1  0  0  0  0
 31 60  1  0  0  0  0
 32 33  2  0  0  0  0
 32 34  1  0  0  0  0
 35 61  1  0  0  0  0
 36 62  1  0  0  0  0
 36 63  1  0  0  0  0
 36 64  1  0  0  0  0
 37 65  1  0  0  0  0
 37 66  1  0  0  0  0
 37 67  1  0  0  0  0
M  END
$$$$
ZINC03833882
  -OEChem-08230709403D

 51 53  0     1  0  0  0  0  0999 V2000
    3.1322    4.1549   -3.0982 C   0  0  0  0  0  0  0  0  0  0  0  0
    2.9888    3.2277   -1.8897 C   0  0  2  0  0  0  0  0  0  0  0  0
    3.9679    3.0404   -1.4487 H   0  0  0  0  0  0  0  0  0  0  0  0
    2.3520    1.9006   -2.3249 C   0  0  0  0  0  0  0  0  0  0  0  0
    2.2482    0.9925   -1.1013 C   0  0  1  0  0  0  0  0  0  0  0  0
    3.2503    0.7932   -0.7216 H   0  0  0  0  0  0  0  0  0  0  0  0
    1.4219    1.6186   -0.0028 C   0  0  2  0  0  0  0  0  0  0  0  0
    1.8787    1.3476    0.9490 H   0  0  0  0  0  0  0  0  0  0  0  0
   -0.0127    1.0858    0.0080 C   0  0  1  0  0  0  0  0  0  0  0  0
    0.0021   -0.0041    0.0020 H   0  0  0  0  0  0  0  0  0  0  0  0
   -0.7113    1.5824    1.2748 C   0  0  2  0  0  0  0  0  0  0  0  0
   -1.7744    1.3511    1.2086 H   0  0  0  0  0  0  0  0  0  0  0  0
   -0.5429    3.0601    1.4562 C   0  0  0  0  0  0  0  0  0  0  0  0
    0.4011    3.7758    0.8701 C   0  0  0  0  0  0  0  0  0  0  0  0
    1.3639    3.1170   -0.0427 C   0  0  0  0  0  0  0  0  0  0  0  0
    2.0803    3.8590   -0.8666 C   0  0  0  0  0  0  0  0  0  0  0  0
   -0.1196    0.8601    2.4869 C   0  0  0  0  0  0  0  0  0  0  0  0
   -0.7588    1.5956   -1.2266 C   0  0  0  0  0  0  0  0  0  0  0  0
   -2.1535    0.9685   -1.2748 C   0  0  0  0  0  0  0  0  0  0  0  0
   -2.8996    1.4783   -2.5094 C   0  0  2  0  0  0  0  0  0  0  0  0
   -2.9137    2.5682   -2.5022 H   0  0  0  0  0  0  0  0  0  0  0  0
   -4.3359    0.9480   -2.4945 C   0  0  0  0  0  0  0  0  0  0  0  0
   -5.0635    1.4168   -3.7583 C   0  0  2  0  0  0  0  0  0  0  0  0
   -6.0860    1.0393   -3.7519 H   0  0  0  0  0  0  0  0  0  0  0  0
   -4.3228    0.8783   -4.9885 C   0  0  0  0  0  0  0  0  0  0  0  0
   -2.8644    1.2639   -4.8742 C   0  0  0  0  0  0  0  0  0  0  0  0
   -2.2857    1.7870   -5.7969 O   0  0  0  0  0  0  0  0  0  0  0  0
   -2.2278    1.0086   -3.7120 O   0  0  0  0  0  0  0  0  0  0  0  0
   -5.0812    2.8452   -3.7980 O   0  0  0  0  0  0  0  0  0  0  0  0
    1.6457   -0.2437   -1.4894 O   0  0  0  0  0  0  0  0  0  0  0  0
    2.1485    4.3502   -3.5250 H   0  0  0  0  0  0  0  0  0  0  0  0
    3.5848    5.0951   -2.7831 H   0  0  0  0  0  0  0  0  0  0  0  0
    3.7656    3.6799   -3.8475 H   0  0  0  0  0  0  0  0  0  0  0  0
    2.9748    1.4256   -3.0829 H   0  0  0  0  0  0  0  0  0  0  0  0
    1.3572    2.0856   -2.7303 H   0  0  0  0  0  0  0  0  0  0  0  0
   -1.2364    3.5726    2.1065 H   0  0  0  0  0  0  0  0  0  0  0  0
    0.4702    4.8375    1.0559 H   0  0  0  0  0  0  0  0  0  0  0  0
    2.0145    4.9353   -0.8063 H   0  0  0  0  0  0  0  0  0  0  0  0
    0.9480    1.0706    2.5498 H   0  0  0  0  0  0  0  0  0  0  0  0
   -0.6128    1.2090    3.3942 H   0  0  0  0  0  0  0  0  0  0  0  0
   -0.2726   -0.2138    2.3802 H   0  0  0  0  0  0  0  0  0  0  0  0
   -0.8499    2.6806   -1.1738 H   0  0  0  0  0  0  0  0  0  0  0  0
   -0.2056    1.3207   -2.1247 H   0  0  0  0  0  0  0  0  0  0  0  0
   -2.0624   -0.1164   -1.3276 H   0  0  0  0  0  0  0  0  0  0  0  0
   -2.7067    1.2434   -0.3767 H   0  0  0  0  0  0  0  0  0  0  0  0
   -4.3211   -0.1415   -2.4664 H   0  0  0  0  0  0  0  0  0  0  0  0
   -4.8545    1.3275   -1.6140 H   0  0  0  0  0  0  0  0  0  0  0  0
   -4.4137   -0.2073   -5.0256 H   0  0  0  0  0  0  0  0  0  0  0  0
   -4.7484    1.3134   -5.8928 H   0  0  0  0  0  0  0  0  0  0  0  0
   -5.5275    3.2116   -4.5737 H   0  0  0  0  0  0  0  0  0  0  0  0
    2.1191   -0.7082   -2.1931 H   0  0  0  0  0  0  0  0  0  0  0  0
  1  2  1  0  0  0  0
  1 31  1  0  0  0  0
  1 32  1  0  0  0  0
  1 33  1  0  0  0  0
  2  3  1  0  0  0  0
  2 16  1  0  0  0  0
  2  4  1  0  0  0  0
  4  5  1  0  0  0  0
  4 34  1  0  0  0  0
  4 35  1  0  0  0  0
  5  6  1  0  0  0  0
  5  7  1  0  0  0  0
  5 30  1  0  0  0  0
  7  8  1  0  0  0  0
  7 15  1  0  0  0  0
  7  9  1  0  0  0  0
  9 10  1  0  0  0  0
  9 11  1  0  0  0  0
  9 18  1  0  0  0  0
 11 12  1  0  0  0  0
 11 13  1  0  0  0  0
 11 17  1  0  0  0  0
 13 14  2  0  0  0  0
 13 36  1  0  0  0  0
 14 15  1  0  0  0  0
 14 37  1  0  0  0  0
 15 16  2  0  0  0  0
 16 38  1  0  0  0  0
 17 39  1  0  0  0  0
 17 40  1  0  0  0  0
 17 41  1  0  0  0  0
 18 19  1  0  0  0  0
 18 42  1  0  0  0  0
 18 43  1  0  0  0  0
 19 20  1  0  0  0  0
 19 44  1  0  0  0  0
 19 45  1  0  0  0  0
 20 21  1  0  0  0  0
 20 28  1  0  0  0  0
 20 22  1  0  0  0  0
 22 23  1  0  0  0  0
 22 46  1  0  0  0  0
 22 47  1  0  0  0  0
 23 24  1  0  0  0  0
 23 25  1  0  0  0  0
 23 29  1  0  0  0  0
 25 26  1  0  0  0  0
 25 48  1  0  0  0  0
 25 49  1  0  0  0  0
 26 27  2  0  0  0  0
 26 28  1  0  0  0  0
 29 50  1  0  0  0  0
 30 51  1  0  0  0  0
M  END
$$$$
ZINC03833883
  -OEChem-08230709403D

 63 65  0     1  0  0  0  0  0999 V2000
    0.7517   -2.3997   -4.2273 C   0  0  0  0  0  0  0  0  0  0  0  0
    0.6133   -0.9456   -3.7722 C   0  0  0  0  0  0  0  0  0  0  0  0
    0.5915   -0.8895   -2.2434 C   0  0  1  0  0  0  0  0  0  0  0  0
   -0.1982   -1.5397   -1.8671 H   0  0  0  0  0  0  0  0  0  0  0  0
    1.9416   -1.3580   -1.6966 C   0  0  0  0  0  0  0  0  0  0  0  0
    0.3324    0.5261   -1.7962 C   0  0  0  0  0  0  0  0  0  0  0  0
    0.1806    1.4004   -2.6162 O   0  0  0  0  0  0  0  0  0  0  0  0
    0.2701    0.8157   -0.4870 O   0  0  0  0  0  0  0  0  0  0  0  0
    0.0172    2.2000   -0.1294 C   0  0  2  0  0  0  0  0  0  0  0  0
   -0.5892    2.6725   -0.9021 H   0  0  0  0  0  0  0  0  0  0  0  0
    1.3459    2.9456    0.0078 C   0  0  0  0  0  0  0  0  0  0  0  0
    1.1613    4.3000    0.6210 C   0  0  0  0  0  0  0  0  0  0  0  0
    0.1000    4.6599    1.3222 C   0  0  0  0  0  0  0  0  0  0  0  0
   -1.0067    3.6964    1.5234 C   0  0  0  0  0  0  0  0  0  0  0  0
   -2.1749    4.1329    1.9561 C   0  0  0  0  0  0  0  0  0  0  0  0
   -3.3411    3.1914    2.1149 C   0  0  1  0  0  0  0  0  0  0  0  0
   -4.2766    3.7386    1.9983 H   0  0  0  0  0  0  0  0  0  0  0  0
   -3.2244    2.1185    1.0230 C   0  0  1  0  0  0  0  0  0  0  0  0
   -3.2111    2.5929    0.0418 H   0  0  0  0  0  0  0  0  0  0  0  0
   -1.9228    1.3499    1.2414 C   0  0  1  0  0  0  0  0  0  0  0  0
   -1.8195    0.5983    0.4588 H   0  0  0  0  0  0  0  0  0  0  0  0
   -0.7174    2.2578    1.2113 C   0  0  1  0  0  0  0  0  0  0  0  0
   -0.0271    1.8942    1.9724 H   0  0  0  0  0  0  0  0  0  0  0  0
   -1.9816    0.6481    2.5997 C   0  0  0  0  0  0  0  0  0  0  0  0
   -0.7953   -0.3091    2.7309 C   0  0  0  0  0  0  0  0  0  0  0  0
   -0.8232   -0.9698    4.1107 C   0  0  2  0  0  0  0  0  0  0  0  0
   -0.8477   -0.2004    4.8824 H   0  0  0  0  0  0  0  0  0  0  0  0
    0.4279   -1.8342    4.2894 C   0  0  0  0  0  0  0  0  0  0  0  0
    0.3696   -2.5365    5.6496 C   0  0  2  0  0  0  0  0  0  0  0  0
    1.2566   -3.1568    5.7782 H   0  0  0  0  0  0  0  0  0  0  0  0
   -0.8848   -3.4170    5.7039 C   0  0  0  0  0  0  0  0  0  0  0  0
   -2.0813   -2.5663    5.3386 C   0  0  0  0  0  0  0  0  0  0  0  0
   -3.0755   -2.5646    6.0252 O   0  0  0  0  0  0  0  0  0  0  0  0
   -2.0063   -1.8098    4.2237 O   0  0  0  0  0  0  0  0  0  0  0  0
    0.3139   -1.5598    6.6912 O   0  0  0  0  0  0  0  0  0  0  0  0
   -4.4118    1.1580    1.1150 C   0  0  0  0  0  0  0  0  0  0  0  0
   -3.2964    2.5774    3.4045 O   0  0  0  0  0  0  0  0  0  0  0  0
    0.7672   -2.4397   -5.3164 H   0  0  0  0  0  0  0  0  0  0  0  0
    1.6795   -2.8164   -3.8352 H   0  0  0  0  0  0  0  0  0  0  0  0
   -0.0929   -2.9791   -3.8544 H   0  0  0  0  0  0  0  0  0  0  0  0
   -0.3145   -0.5289   -4.1643 H   0  0  0  0  0  0  0  0  0  0  0  0
    1.4579   -0.3662   -4.1450 H   0  0  0  0  0  0  0  0  0  0  0  0
    2.7313   -0.7077   -2.0729 H   0  0  0  0  0  0  0  0  0  0  0  0
    1.9261   -1.3180   -0.6075 H   0  0  0  0  0  0  0  0  0  0  0  0
    2.1290   -2.3818   -2.0200 H   0  0  0  0  0  0  0  0  0  0  0  0
    2.0187    2.3604    0.6347 H   0  0  0  0  0  0  0  0  0  0  0  0
    1.7919    3.0617   -0.9800 H   0  0  0  0  0  0  0  0  0  0  0  0
    1.9454    5.0293    0.4808 H   0  0  0  0  0  0  0  0  0  0  0  0
    0.0401    5.6515    1.7458 H   0  0  0  0  0  0  0  0  0  0  0  0
   -2.2967    5.1782    2.1992 H   0  0  0  0  0  0  0  0  0  0  0  0
   -1.9379    1.3920    3.3952 H   0  0  0  0  0  0  0  0  0  0  0  0
   -2.9123    0.0863    2.6784 H   0  0  0  0  0  0  0  0  0  0  0  0
   -0.8605   -1.0763    1.9594 H   0  0  0  0  0  0  0  0  0  0  0  0
    0.1349    0.2467    2.6130 H   0  0  0  0  0  0  0  0  0  0  0  0
    0.4701   -2.5812    3.4969 H   0  0  0  0  0  0  0  0  0  0  0  0
    1.3155   -1.2033    4.2426 H   0  0  0  0  0  0  0  0  0  0  0  0
   -1.0108   -3.8147    6.7109 H   0  0  0  0  0  0  0  0  0  0  0  0
   -0.7878   -4.2383    4.9938 H   0  0  0  0  0  0  0  0  0  0  0  0
    0.2684   -1.9358    7.5809 H   0  0  0  0  0  0  0  0  0  0  0  0
   -5.3286    1.6880    0.8570 H   0  0  0  0  0  0  0  0  0  0  0  0
   -4.2636    0.3297    0.4222 H   0  0  0  0  0  0  0  0  0  0  0  0
   -4.4890    0.7721    2.1315 H   0  0  0  0  0  0  0  0  0  0  0  0
   -3.3374    3.2039    4.1400 H   0  0  0  0  0  0  0  0  0  0  0  0
  1  2  1  0  0  0  0
  1 38  1  0  0  0  0
  1 39  1  0  0  0  0
  1 40  1  0  0  0  0
  2  3  1  0  0  0  0
  2 41  1  0  0  0  0
  2 42  1  0  0  0  0
  3  4  1  0  0  0  0
  3  5  1  0  0  0  0
  3  6  1  0  0  0  0
  5 43  1  0  0  0  0
  5 44  1  0  0  0  0
  5 45  1  0  0  0  0
  6  7  2  0  0  0  0
  6  8  1  0  0  0  0
  8  9  1  0  0  0  0
  9 10  1  0  0  0  0
  9 22  1  0  0  0  0
  9 11  1  0  0  0  0
 11 12  1  0  0  0  0
 11 46  1  0  0  0  0
 11 47  1  0  0  0  0
 12 13  2  0  0  0  0
 12 48  1  0  0  0  0
 13 14  1  0  0  0  0
 13 49  1  0  0  0  0
 14 22  1  0  0  0  0
 14 15  2  0  0  0  0
 15 16  1  0  0  0  0
 15 50  1  0  0  0  0
 16 17  1  0  0  0  0
 16 18  1  0  0  0  0
 16 37  1  0  0  0  0
 18 19  1  0  0  0  0
 18 20  1  0  0  0  0
 18 36  1  0  0  0  0
 20 21  1  0  0  0  0
 20 22  1  0  0  0  0
 20 24  1  0  0  0  0
 22 23  1  0  0  0  0
 24 25  1  0  0  0  0
 24 51  1  0  0  0  0
 24 52  1  0  0  0  0
 25 26  1  0  0  0  0
 25 53  1  0  0  0  0
 25 54  1  0  0  0  0
 26 27  1  0  0  0  0
 26 34  1  0  0  0  0
 26 28  1  0  0  0  0
 28 29  1  0  0  0  0
 28 55  1  0  0  0  0
 28 56  1  0  0  0  0
 29 30  1  0  0  0  0
 29 31  1  0  0  0  0
 29 35  1  0  0  0  0
 31 32  1  0  0  0  0
 31 57  1  0  0  0  0
 31 58  1  0  0  0  0
 32 33  2  0  0  0  0
 32 34  1  0  0  0  0
 35 59  1  0  0  0  0
 36 60  1  0  0  0  0
 36 61  1  0  0  0  0
 36 62  1  0  0  0  0
 37 63  1  0  0  0  0
M  END
$$$$
ZINC03833884
  -OEChem-08230709403D

 71 73  0     1  0  0  0  0  0999 V2000
   -6.1956    2.1463   -8.2557 C   0  0  0  0  0  0  0  0  0  0  0  0
   -5.4665    3.4749   -8.0460 C   0  0  0  0  0  0  0  0  0  0  0  0
   -5.1713    3.6652   -6.5569 C   0  0  0  0  0  0  0  0  0  0  0  0
   -4.4422    4.9939   -6.3472 C   0  0  0  0  0  0  0  0  0  0  0  0
   -6.4856    3.6756   -5.7737 C   0  0  0  0  0  0  0  0  0  0  0  0
   -7.3660    4.8243   -6.2700 C   0  0  0  0  0  0  0  0  0  0  0  0
   -4.3042    2.5338   -6.0681 C   0  0  0  0  0  0  0  0  0  0  0  0
   -4.6971    1.8100   -5.1840 O   0  0  0  0  0  0  0  0  0  0  0  0
   -3.0953    2.3301   -6.6149 O   0  0  0  0  0  0  0  0  0  0  0  0
   -2.3148    1.2218   -6.0946 C   0  0  1  0  0  0  0  0  0  0  0  0
   -2.5550    1.0837   -5.0404 H   0  0  0  0  0  0  0  0  0  0  0  0
   -2.6866   -0.0471   -6.8589 C   0  0  0  0  0  0  0  0  0  0  0  0
   -2.3159    0.1518   -8.3353 C   0  0  1  0  0  0  0  0  0  0  0  0
   -2.8303    1.0276   -8.7310 H   0  0  0  0  0  0  0  0  0  0  0  0
   -0.8244    0.3565   -8.4075 C   0  0  0  0  0  0  0  0  0  0  0  0
   -0.1773    0.9688   -7.4334 C   0  0  0  0  0  0  0  0  0  0  0  0
   -0.8475    1.5515   -6.2243 C   0  0  2  0  0  0  0  0  0  0  0  0
   -0.7716    2.6359   -6.3035 H   0  0  0  0  0  0  0  0  0  0  0  0
   -0.0488    1.1319   -4.9887 C   0  0  1  0  0  0  0  0  0  0  0  0
    0.0097    0.0446   -4.9400 H   0  0  0  0  0  0  0  0  0  0  0  0
    1.3604    1.7176   -5.0946 C   0  0  1  0  0  0  0  0  0  0  0  0
    1.9852    1.2834   -4.3141 H   0  0  0  0  0  0  0  0  0  0  0  0
    1.9797    1.4356   -6.4293 C   0  0  0  0  0  0  0  0  0  0  0  0
    1.2959    1.1004   -7.5099 C   0  0  0  0  0  0  0  0  0  0  0  0
    1.2880    3.2318   -4.8882 C   0  0  0  0  0  0  0  0  0  0  0  0
   -0.7335    1.6661   -3.7291 C   0  0  0  0  0  0  0  0  0  0  0  0
    0.0385    1.2009   -2.4927 C   0  0  0  0  0  0  0  0  0  0  0  0
   -0.6462    1.7351   -1.2331 C   0  0  2  0  0  0  0  0  0  0  0  0
   -0.7443    2.8184   -1.3035 H   0  0  0  0  0  0  0  0  0  0  0  0
    0.1928    1.3763   -0.0035 C   0  0  0  0  0  0  0  0  0  0  0  0
   -0.5209    1.8677    1.2597 C   0  0  2  0  0  0  0  0  0  0  0  0
    0.0723    1.6104    2.1373 H   0  0  0  0  0  0  0  0  0  0  0  0
   -1.8944    1.1907    1.3509 C   0  0  0  0  0  0  0  0  0  0  0  0
   -2.6224    1.4094    0.0428 C   0  0  0  0  0  0  0  0  0  0  0  0
   -3.7593    1.8179    0.0250 O   0  0  0  0  0  0  0  0  0  0  0  0
   -1.9655    1.1347   -1.1035 O   0  0  0  0  0  0  0  0  0  0  0  0
   -0.6898    3.2851    1.1929 O   0  0  0  0  0  0  0  0  0  0  0  0
   -2.7088   -1.0884   -9.1406 C   0  0  0  0  0  0  0  0  0  0  0  0
   -6.4060    2.0107   -9.3166 H   0  0  0  0  0  0  0  0  0  0  0  0
   -5.5685    1.3279   -7.9022 H   0  0  0  0  0  0  0  0  0  0  0  0
   -7.1320    2.1537   -7.6977 H   0  0  0  0  0  0  0  0  0  0  0  0
   -6.0937    4.2933   -8.3996 H   0  0  0  0  0  0  0  0  0  0  0  0
   -4.5302    3.4676   -8.6040 H   0  0  0  0  0  0  0  0  0  0  0  0
   -3.5059    4.9865   -6.9052 H   0  0  0  0  0  0  0  0  0  0  0  0
   -5.0694    5.8123   -6.7008 H   0  0  0  0  0  0  0  0  0  0  0  0
   -4.2319    5.1295   -5.2863 H   0  0  0  0  0  0  0  0  0  0  0  0
   -7.0051    2.7290   -5.9231 H   0  0  0  0  0  0  0  0  0  0  0  0
   -6.2753    3.8112   -4.7128 H   0  0  0  0  0  0  0  0  0  0  0  0
   -6.8466    5.7709   -6.1206 H   0  0  0  0  0  0  0  0  0  0  0  0
   -7.5763    4.6887   -7.3308 H   0  0  0  0  0  0  0  0  0  0  0  0
   -8.3023    4.8317   -5.7120 H   0  0  0  0  0  0  0  0  0  0  0  0
   -2.1353   -0.8952   -6.4529 H   0  0  0  0  0  0  0  0  0  0  0  0
   -3.7577   -0.2288   -6.7698 H   0  0  0  0  0  0  0  0  0  0  0  0
   -0.2782   -0.0019   -9.2675 H   0  0  0  0  0  0  0  0  0  0  0  0
    3.0537    1.5107   -6.5140 H   0  0  0  0  0  0  0  0  0  0  0  0
    1.8089    0.9230   -8.4435 H   0  0  0  0  0  0  0  0  0  0  0  0
    0.8748    3.4448   -3.9023 H   0  0  0  0  0  0  0  0  0  0  0  0
    2.2889    3.6569   -4.9622 H   0  0  0  0  0  0  0  0  0  0  0  0
    0.6486    3.6726   -5.6531 H   0  0  0  0  0  0  0  0  0  0  0  0
   -1.7550    1.2887   -3.6829 H   0  0  0  0  0  0  0  0  0  0  0  0
   -0.7497    2.7556   -3.7586 H   0  0  0  0  0  0  0  0  0  0  0  0
    1.0600    1.5784   -2.5389 H   0  0  0  0  0  0  0  0  0  0  0  0
    0.0547    0.1114   -2.4632 H   0  0  0  0  0  0  0  0  0  0  0  0
    0.3191    0.2948    0.0476 H   0  0  0  0  0  0  0  0  0  0  0  0
    1.1699    1.8534   -0.0781 H   0  0  0  0  0  0  0  0  0  0  0  0
   -2.4669    1.6305    2.1675 H   0  0  0  0  0  0  0  0  0  0  0  0
   -1.7668    0.1224    1.5258 H   0  0  0  0  0  0  0  0  0  0  0  0
   -1.1360    3.6647    1.9623 H   0  0  0  0  0  0  0  0  0  0  0  0
   -3.7835   -1.2500   -9.0578 H   0  0  0  0  0  0  0  0  0  0  0  0
   -2.4431   -0.9410  -10.1875 H   0  0  0  0  0  0  0  0  0  0  0  0
   -2.1795   -1.9577   -8.7504 H   0  0  0  0  0  0  0  0  0  0  0  0
  1  2  1  0  0  0  0
  1 39  1  0  0  0  0
  1 40  1  0  0  0  0
  1 41  1  0  0  0  0
  2  3  1  0  0  0  0
  2 42  1  0  0  0  0
  2 43  1  0  0  0  0
  3  4  1  0  0  0  0
  3  5  1  0  0  0  0
  3  7  1  0  0  0  0
  4 44  1  0  0  0  0
  4 45  1  0  0  0  0
  4 46  1  0  0  0  0
  5  6  1  0  0  0  0
  5 47  1  0  0  0  0
  5 48  1  0  0  0  0
  6 49  1  0  0  0  0
  6 50  1  0  0  0  0
  6 51  1  0  0  0  0
  7  8  2  0  0  0  0
  7  9  1  0  0  0  0
  9 10  1  0  0  0  0
 10 11  1  0  0  0  0
 10 17  1  0  0  0  0
 10 12  1  0  0  0  0
 12 13  1  0  0  0  0
 12 52  1  0  0  0  0
 12 53  1  0  0  0  0
 13 14  1  0  0  0  0
 13 15  1  0  0  0  0
 13 38  1  0  0  0  0
 15 16  2  0  0  0  0
 15 54  1  0  0  0  0
 16 24  1  0  0  0  0
 16 17  1  0  0  0  0
 17 18  1  0  0  0  0
 17 19  1  0  0  0  0
 19 20  1  0  0  0  0
 19 21  1  0  0  0  0
 19 26  1  0  0  0  0
 21 22  1  0  0  0  0
 21 23  1  0  0  0  0
 21 25  1  0  0  0  0
 23 24  2  0  0  0  0
 23 55  1  0  0  0  0
 24 56  1  0  0  0  0
 25 57  1  0  0  0  0
 25 58  1  0  0  0  0
 25 59  1  0  0  0  0
 26 27  1  0  0  0  0
 26 60  1  0  0  0  0
 26 61  1  0  0  0  0
 27 28  1  0  0  0  0
 27 62  1  0  0  0  0
 27 63  1  0  0  0  0
 28 29  1  0  0  0  0
 28 36  1  0  0  0  0
 28 30  1  0  0  0  0
 30 31  1  0  0  0  0
 30 64  1  0  0  0  0
 30 65  1  0  0  0  0
 31 32  1  0  0  0  0
 31 33  1  0  0  0  0
 31 37  1  0  0  0  0
 33 34  1  0  0  0  0
 33 66  1  0  0  0  0
 33 67  1  0  0  0  0
 34 35  2  0  0  0  0
 34 36  1  0  0  0  0
 37 68  1  0  0  0  0
 38 69  1  0  0  0  0
 38 70  1  0  0  0  0
 38 71  1  0  0  0  0
M  END
$$$$
ZINC03833885
  -OEChem-08230709403D

 74 76  0     1  0  0  0  0  0999 V2000
   -4.1461    5.1826   -4.8518 C   0  0  0  0  0  0  0  0  0  0  0  0
   -4.4418    4.9945   -6.3411 C   0  0  0  0  0  0  0  0  0  0  0  0
   -5.1712    3.6663   -6.5524 C   0  0  0  0  0  0  0  0  0  0  0  0
   -5.4669    3.4782   -8.0418 C   0  0  0  0  0  0  0  0  0  0  0  0
   -6.1962    2.1499   -8.2531 C   0  0  0  0  0  0  0  0  0  0  0  0
   -6.4852    3.6757   -5.7688 C   0  0  0  0  0  0  0  0  0  0  0  0
   -7.3656    4.8252   -6.2631 C   0  0  0  0  0  0  0  0  0  0  0  0
   -4.3040    2.5340   -6.0656 C   0  0  0  0  0  0  0  0  0  0  0  0
   -4.6967    1.8090   -5.1824 O   0  0  0  0  0  0  0  0  0  0  0  0
   -3.0954    2.3310   -6.6130 O   0  0  0  0  0  0  0  0  0  0  0  0
   -2.3148    1.2218   -6.0946 C   0  0  1  0  0  0  0  0  0  0  0  0
   -2.5550    1.0837   -5.0404 H   0  0  0  0  0  0  0  0  0  0  0  0
   -2.6866   -0.0471   -6.8589 C   0  0  0  0  0  0  0  0  0  0  0  0
   -2.3159    0.1518   -8.3353 C   0  0  1  0  0  0  0  0  0  0  0  0
   -2.8295    1.0282   -8.7307 H   0  0  0  0  0  0  0  0  0  0  0  0
   -0.8244    0.3565   -8.4075 C   0  0  0  0  0  0  0  0  0  0  0  0
   -0.1773    0.9688   -7.4334 C   0  0  0  0  0  0  0  0  0  0  0  0
   -0.8475    1.5515   -6.2243 C   0  0  2  0  0  0  0  0  0  0  0  0
   -0.7716    2.6359   -6.3035 H   0  0  0  0  0  0  0  0  0  0  0  0
   -0.0488    1.1319   -4.9887 C   0  0  1  0  0  0  0  0  0  0  0  0
    0.0097    0.0446   -4.9400 H   0  0  0  0  0  0  0  0  0  0  0  0
    1.3604    1.7176   -5.0946 C   0  0  1  0  0  0  0  0  0  0  0  0
    1.9852    1.2834   -4.3141 H   0  0  0  0  0  0  0  0  0  0  0  0
    1.9797    1.4356   -6.4293 C   0  0  0  0  0  0  0  0  0  0  0  0
    1.2959    1.1004   -7.5099 C   0  0  0  0  0  0  0  0  0  0  0  0
    1.2880    3.2318   -4.8882 C   0  0  0  0  0  0  0  0  0  0  0  0
   -0.7335    1.6661   -3.7291 C   0  0  0  0  0  0  0  0  0  0  0  0
    0.0385    1.2009   -2.4927 C   0  0  0  0  0  0  0  0  0  0  0  0
   -0.6462    1.7351   -1.2331 C   0  0  2  0  0  0  0  0  0  0  0  0
   -0.7443    2.8184   -1.3035 H   0  0  0  0  0  0  0  0  0  0  0  0
    0.1928    1.3763   -0.0035 C   0  0  0  0  0  0  0  0  0  0  0  0
   -0.5209    1.8677    1.2597 C   0  0  2  0  0  0  0  0  0  0  0  0
    0.0723    1.6104    2.1373 H   0  0  0  0  0  0  0  0  0  0  0  0
   -1.8944    1.1907    1.3509 C   0  0  0  0  0  0  0  0  0  0  0  0
   -2.6224    1.4094    0.0428 C   0  0  0  0  0  0  0  0  0  0  0  0
   -3.7593    1.8179    0.0250 O   0  0  0  0  0  0  0  0  0  0  0  0
   -1.9655    1.1347   -1.1035 O   0  0  0  0  0  0  0  0  0  0  0  0
   -0.6898    3.2851    1.1929 O   0  0  0  0  0  0  0  0  0  0  0  0
   -2.7102   -1.0878   -9.1409 C   0  0  0  0  0  0  0  0  0  0  0  0
   -3.5189    4.3637   -4.4996 H   0  0  0  0  0  0  0  0  0  0  0  0
   -3.6265    6.1289   -4.7012 H   0  0  0  0  0  0  0  0  0  0  0  0
   -5.0823    5.1893   -4.2935 H   0  0  0  0  0  0  0  0  0  0  0  0
   -3.5057    4.9878   -6.8994 H   0  0  0  0  0  0  0  0  0  0  0  0
   -5.0690    5.8135   -6.6933 H   0  0  0  0  0  0  0  0  0  0  0  0
   -6.0941    4.2971   -8.3939 H   0  0  0  0  0  0  0  0  0  0  0  0
   -4.5307    3.4715   -8.6000 H   0  0  0  0  0  0  0  0  0  0  0  0
   -6.4069    2.0159   -9.3141 H   0  0  0  0  0  0  0  0  0  0  0  0
   -5.5690    1.3309   -7.9009 H   0  0  0  0  0  0  0  0  0  0  0  0
   -7.1324    2.1566   -7.6948 H   0  0  0  0  0  0  0  0  0  0  0  0
   -7.0048    2.7294   -5.9194 H   0  0  0  0  0  0  0  0  0  0  0  0
   -6.2746    3.8097   -4.7078 H   0  0  0  0  0  0  0  0  0  0  0  0
   -6.8460    5.7715   -6.1126 H   0  0  0  0  0  0  0  0  0  0  0  0
   -7.5763    4.6912   -7.3241 H   0  0  0  0  0  0  0  0  0  0  0  0
   -8.3018    4.8319   -5.7048 H   0  0  0  0  0  0  0  0  0  0  0  0
   -2.1353   -0.8952   -6.4529 H   0  0  0  0  0  0  0  0  0  0  0  0
   -3.7578   -0.2284   -6.7704 H   0  0  0  0  0  0  0  0  0  0  0  0
   -0.2782   -0.0019   -9.2675 H   0  0  0  0  0  0  0  0  0  0  0  0
    3.0537    1.5107   -6.5140 H   0  0  0  0  0  0  0  0  0  0  0  0
    1.8089    0.9230   -8.4435 H   0  0  0  0  0  0  0  0  0  0  0  0
    0.8748    3.4448   -3.9023 H   0  0  0  0  0  0  0  0  0  0  0  0
    2.2889    3.6569   -4.9622 H   0  0  0  0  0  0  0  0  0  0  0  0
    0.6486    3.6726   -5.6531 H   0  0  0  0  0  0  0  0  0  0  0  0
   -1.7550    1.2887   -3.6829 H   0  0  0  0  0  0  0  0  0  0  0  0
   -0.7497    2.7556   -3.7586 H   0  0  0  0  0  0  0  0  0  0  0  0
    1.0600    1.5784   -2.5389 H   0  0  0  0  0  0  0  0  0  0  0  0
    0.0547    0.1114   -2.4632 H   0  0  0  0  0  0  0  0  0  0  0  0
    0.3191    0.2948    0.0476 H   0  0  0  0  0  0  0  0  0  0  0  0
    1.1699    1.8534   -0.0781 H   0  0  0  0  0  0  0  0  0  0  0  0
   -2.4669    1.6305    2.1675 H   0  0  0  0  0  0  0  0  0  0  0  0
   -1.7668    0.1224    1.5258 H   0  0  0  0  0  0  0  0  0  0  0  0
   -1.1360    3.6647    1.9623 H   0  0  0  0  0  0  0  0  0  0  0  0
   -3.7851   -1.2482   -9.0580 H   0  0  0  0  0  0  0  0  0  0  0  0
   -2.4446   -0.9404  -10.1877 H   0  0  0  0  0  0  0  0  0  0  0  0
   -2.1818   -1.9577   -8.7510 H   0  0  0  0  0  0  0  0  0  0  0  0
  1  2  1  0  0  0  0
  1 40  1  0  0  0  0
  1 41  1  0  0  0  0
  1 42  1  0  0  0  0
  2  3  1  0  0  0  0
  2 43  1  0  0  0  0
  2 44  1  0  0  0  0
  3  4  1  0  0  0  0
  3  6  1  0  0  0  0
  3  8  1  0  0  0  0
  4  5  1  0  0  0  0
  4 45  1  0  0  0  0
  4 46  1  0  0  0  0
  5 47  1  0  0  0  0
  5 48  1  0  0  0  0
  5 49  1  0  0  0  0
  6  7  1  0  0  0  0
  6 50  1  0  0  0  0
  6 51  1  0  0  0  0
  7 52  1  0  0  0  0
  7 53  1  0  0  0  0
  7 54  1  0  0  0  0
  8  9  2  0  0  0  0
  8 10  1  0  0  0  0
 10 11  1  0  0  0  0
 11 12  1  0  0  0  0
 11 18  1  0  0  0  0
 11 13  1  0  0  0  0
 13 14  1  0  0  0  0
 13 55  1  0  0  0  0
 13 56  1  0  0  0  0
 14 15  1  0  0  0  0
 14 16  1  0  0  0  0
 14 39  1  0  0  0  0
 16 17  2  0  0  0  0
 16 57  1  0  0  0  0
 17 25  1  0  0  0  0
 17 18  1  0  0  0  0
 18 19  1  0  0  0  0
 18 20  1  0  0  0  0
 20 21  1  0  0  0  0
 20 22  1  0  0  0  0
 20 27  1  0  0  0  0
 22 23  1  0  0  0  0
 22 24  1  0  0  0  0
 22 26  1  0  0  0  0
 24 25  2  0  0  0  0
 24 58  1  0  0  0  0
 25 59  1  0  0  0  0
 26 60  1  0  0  0  0
 26 61  1  0  0  0  0
 26 62  1  0  0  0  0
 27 28  1  0  0  0  0
 27 63  1  0  0  0  0
 27 64  1  0  0  0  0
 28 29  1  0  0  0  0
 28 65  1  0  0  0  0
 28 66  1  0  0  0  0
 29 30  1  0  0  0  0
 29 37  1  0  0  0  0
 29 31  1  0  0  0  0
 31 32  1  0  0  0  0
 31 67  1  0  0  0  0
 31 68  1  0  0  0  0
 32 33  1  0  0  0  0
 32 34  1  0  0  0  0
 32 38  1  0  0  0  0
 34 35  1  0  0  0  0
 34 69  1  0  0  0  0
 34 70  1  0  0  0  0
 35 36  2  0  0  0  0
 35 37  1  0  0  0  0
 38 71  1  0  0  0  0
 39 72  1  0  0  0  0
 39 73  1  0  0  0  0
 39 74  1  0  0  0  0
M  END
$$$$
ZINC03833886
  -OEChem-08230709403D

 69 71  0     1  0  0  0  0  0999 V2000
    8.3805   -0.3108    2.2866 C   0  0  0  0  0  0  0  0  0  0  0  0
    6.9872   -0.3818    2.9147 C   0  0  0  0  0  0  0  0  0  0  0  0
    6.1368    0.7822    2.4021 C   0  0  0  0  0  0  0  0  0  0  0  0
    6.0151    0.6932    0.8795 C   0  0  0  0  0  0  0  0  0  0  0  0
    6.8015    2.1063    2.7840 C   0  0  0  0  0  0  0  0  0  0  0  0
    4.7644    0.7123    3.0207 C   0  0  0  0  0  0  0  0  0  0  0  0
    4.4942   -0.1773    3.7923 O   0  0  0  0  0  0  0  0  0  0  0  0
    3.8422    1.6383    2.7144 O   0  0  0  0  0  0  0  0  0  0  0  0
    2.5420    1.5084    3.3476 C   0  0  1  0  0  0  0  0  0  0  0  0
    2.3352    0.4516    3.5162 H   0  0  0  0  0  0  0  0  0  0  0  0
    2.5698    2.2299    4.6934 C   0  0  0  0  0  0  0  0  0  0  0  0
    2.8491    3.7176    4.4385 C   0  0  2  0  0  0  0  0  0  0  0  0
    2.8922    4.2530    5.3870 H   0  0  0  0  0  0  0  0  0  0  0  0
    1.7222    4.2589    3.5974 C   0  0  0  0  0  0  0  0  0  0  0  0
    1.1050    3.4959    2.7144 C   0  0  0  0  0  0  0  0  0  0  0  0
    1.4876    2.0746    2.4260 C   0  0  2  0  0  0  0  0  0  0  0  0
    1.9000    2.0436    1.4175 H   0  0  0  0  0  0  0  0  0  0  0  0
    0.2129    1.2276    2.4275 C   0  0  1  0  0  0  0  0  0  0  0  0
   -0.2928    1.3258    3.3880 H   0  0  0  0  0  0  0  0  0  0  0  0
   -0.7068    1.7233    1.3105 C   0  0  1  0  0  0  0  0  0  0  0  0
   -1.6801    1.2433    1.4120 H   0  0  0  0  0  0  0  0  0  0  0  0
   -0.8870    3.2098    1.3628 C   0  0  0  0  0  0  0  0  0  0  0  0
   -0.0696    4.0350    1.9905 C   0  0  0  0  0  0  0  0  0  0  0  0
   -0.1008    1.3412   -0.0415 C   0  0  0  0  0  0  0  0  0  0  0  0
    0.5715   -0.2397    2.1838 C   0  0  0  0  0  0  0  0  0  0  0  0
   -0.6991   -1.0905    2.2356 C   0  0  0  0  0  0  0  0  0  0  0  0
   -0.3405   -2.5578    1.9920 C   0  0  2  0  0  0  0  0  0  0  0  0
    0.2046   -2.6484    1.0525 H   0  0  0  0  0  0  0  0  0  0  0  0
   -1.6221   -3.3929    1.9225 C   0  0  0  0  0  0  0  0  0  0  0  0
   -1.2570   -4.8683    1.7315 C   0  0  2  0  0  0  0  0  0  0  0  0
   -2.1672   -5.4661    1.6836 H   0  0  0  0  0  0  0  0  0  0  0  0
   -0.4006   -5.3274    2.9180 C   0  0  0  0  0  0  0  0  0  0  0  0
    0.7575   -4.3661    3.0709 C   0  0  0  0  0  0  0  0  0  0  0  0
    1.8911   -4.7705    3.1767 O   0  0  0  0  0  0  0  0  0  0  0  0
    0.4893   -3.0435    3.0845 O   0  0  0  0  0  0  0  0  0  0  0  0
   -0.5175   -5.0249    0.5188 O   0  0  0  0  0  0  0  0  0  0  0  0
    4.1755    3.8769    3.6927 C   0  0  0  0  0  0  0  0  0  0  0  0
    4.4954    5.2651    3.5811 O   0  0  0  0  0  0  0  0  0  0  0  0
    8.2938   -0.3742    1.2019 H   0  0  0  0  0  0  0  0  0  0  0  0
    8.8540    0.6325    2.5587 H   0  0  0  0  0  0  0  0  0  0  0  0
    8.9863   -1.1401    2.6518 H   0  0  0  0  0  0  0  0  0  0  0  0
    7.0739   -0.3184    3.9994 H   0  0  0  0  0  0  0  0  0  0  0  0
    6.5136   -1.3251    2.6426 H   0  0  0  0  0  0  0  0  0  0  0  0
    5.4092    1.5225    0.5144 H   0  0  0  0  0  0  0  0  0  0  0  0
    7.0077    0.7438    0.4321 H   0  0  0  0  0  0  0  0  0  0  0  0
    5.5415   -0.2501    0.6074 H   0  0  0  0  0  0  0  0  0  0  0  0
    6.8882    2.1698    3.8687 H   0  0  0  0  0  0  0  0  0  0  0  0
    7.7941    2.1569    2.3366 H   0  0  0  0  0  0  0  0  0  0  0  0
    6.1956    2.9356    2.4188 H   0  0  0  0  0  0  0  0  0  0  0  0
    3.3578    1.8103    5.3188 H   0  0  0  0  0  0  0  0  0  0  0  0
    1.6064    2.1171    5.1906 H   0  0  0  0  0  0  0  0  0  0  0  0
    1.4144    5.2869    3.7191 H   0  0  0  0  0  0  0  0  0  0  0  0
   -1.7402    3.6344    0.8547 H   0  0  0  0  0  0  0  0  0  0  0  0
   -0.2560    5.0987    1.9761 H   0  0  0  0  0  0  0  0  0  0  0  0
    0.0162    0.2588   -0.0943 H   0  0  0  0  0  0  0  0  0  0  0  0
    0.8735    1.8177   -0.1506 H   0  0  0  0  0  0  0  0  0  0  0  0
   -0.7603    1.6750   -0.8426 H   0  0  0  0  0  0  0  0  0  0  0  0
    1.0375   -0.3419    1.2038 H   0  0  0  0  0  0  0  0  0  0  0  0
    1.2660   -0.5766    2.9534 H   0  0  0  0  0  0  0  0  0  0  0  0
   -1.1651   -0.9883    3.2157 H   0  0  0  0  0  0  0  0  0  0  0  0
   -1.3936   -0.7536    1.4661 H   0  0  0  0  0  0  0  0  0  0  0  0
   -2.1841   -3.2743    2.8488 H   0  0  0  0  0  0  0  0  0  0  0  0
   -2.2301   -3.0567    1.0826 H   0  0  0  0  0  0  0  0  0  0  0  0
   -1.0018   -5.3254    3.8272 H   0  0  0  0  0  0  0  0  0  0  0  0
   -0.0220   -6.3322    2.7304 H   0  0  0  0  0  0  0  0  0  0  0  0
   -0.2529   -5.9366    0.3345 H   0  0  0  0  0  0  0  0  0  0  0  0
    4.9653    3.3651    4.2426 H   0  0  0  0  0  0  0  0  0  0  0  0
    4.0865    3.4433    2.6966 H   0  0  0  0  0  0  0  0  0  0  0  0
    5.3258    5.4414    3.1180 H   0  0  0  0  0  0  0  0  0  0  0  0
  1  2  1  0  0  0  0
  1 39  1  0  0  0  0
  1 40  1  0  0  0  0
  1 41  1  0  0  0  0
  2  3  1  0  0  0  0
  2 42  1  0  0  0  0
  2 43  1  0  0  0  0
  3  4  1  0  0  0  0
  3  5  1  0  0  0  0
  3  6  1  0  0  0  0
  4 44  1  0  0  0  0
  4 45  1  0  0  0  0
  4 46  1  0  0  0  0
  5 47  1  0  0  0  0
  5 48  1  0  0  0  0
  5 49  1  0  0  0  0
  6  7  2  0  0  0  0
  6  8  1  0  0  0  0
  8  9  1  0  0  0  0
  9 10  1  0  0  0  0
  9 16  1  0  0  0  0
  9 11  1  0  0  0  0
 11 12  1  0  0  0  0
 11 50  1  0  0  0  0
 11 51  1  0  0  0  0
 12 13  1  0  0  0  0
 12 14  1  0  0  0  0
 12 37  1  0  0  0  0
 14 15  2  0  0  0  0
 14 52  1  0  0  0  0
 15 23  1  0  0  0  0
 15 16  1  0  0  0  0
 16 17  1  0  0  0  0
 16 18  1  0  0  0  0
 18 19  1  0  0  0  0
 18 20  1  0  0  0  0
 18 25  1  0  0  0  0
 20 21  1  0  0  0  0
 20 22  1  0  0  0  0
 20 24  1  0  0  0  0
 22 23  2  0  0  0  0
 22 53  1  0  0  0  0
 23 54  1  0  0  0  0
 24 55  1  0  0  0  0
 24 56  1  0  0  0  0
 24 57  1  0  0  0  0
 25 26  1  0  0  0  0
 25 58  1  0  0  0  0
 25 59  1  0  0  0  0
 26 27  1  0  0  0  0
 26 60  1  0  0  0  0
 26 61  1  0  0  0  0
 27 28  1  0  0  0  0
 27 35  1  0  0  0  0
 27 29  1  0  0  0  0
 29 30  1  0  0  0  0
 29 62  1  0  0  0  0
 29 63  1  0  0  0  0
 30 31  1  0  0  0  0
 30 32  1  0  0  0  0
 30 36  1  0  0  0  0
 32 33  1  0  0  0  0
 32 64  1  0  0  0  0
 32 65  1  0  0  0  0
 33 34  2  0  0  0  0
 33 35  1  0  0  0  0
 36 66  1  0  0  0  0
 37 38  1  0  0  0  0
 37 67  1  0  0  0  0
 37 68  1  0  0  0  0
 38 69  1  0  0  0  0
M  END
$$$$
ZINC03833887
  -OEChem-08230709403D

 47 49  0     1  0  0  0  0  0999 V2000
    4.7946    1.7851   -4.1309 C   0  0  0  0  0  0  0  0  0  0  0  0
    4.9690    0.2872   -4.3889 C   0  0  1  0  0  0  0  0  0  0  0  0
    4.0029   -0.1412   -4.6558 H   0  0  0  0  0  0  0  0  0  0  0  0
    5.9209    0.0952   -5.5299 C   0  0  0  0  0  0  0  0  0  0  0  0
    7.1946   -0.2272   -5.3862 C   0  0  0  0  0  0  0  0  0  0  0  0
    7.7517   -0.4365   -4.0297 C   0  0  0  0  0  0  0  0  0  0  0  0
    8.9042   -1.0667   -3.8977 C   0  0  0  0  0  0  0  0  0  0  0  0
    9.4546   -1.4018   -2.5356 C   0  0  0  0  0  0  0  0  0  0  0  0
    8.2649   -1.6650   -1.6021 C   0  0  0  0  0  0  0  0  0  0  0  0
    7.4285   -0.3900   -1.5178 C   0  0  0  0  0  0  0  0  0  0  0  0
    6.9261    0.0458   -2.8740 C   0  0  2  0  0  0  0  0  0  0  0  0
    6.9506    1.1355   -2.8848 H   0  0  0  0  0  0  0  0  0  0  0  0
    5.4764   -0.3835   -3.1113 C   0  0  1  0  0  0  0  0  0  0  0  0
    5.4292   -1.4669   -3.2208 H   0  0  0  0  0  0  0  0  0  0  0  0
    4.6120    0.0506   -1.9258 C   0  0  0  0  0  0  0  0  0  0  0  0
    3.1780   -0.4406   -2.1333 C   0  0  0  0  0  0  0  0  0  0  0  0
    2.3136   -0.0066   -0.9478 C   0  0  2  0  0  0  0  0  0  0  0  0
    2.7648   -0.3583   -0.0200 H   0  0  0  0  0  0  0  0  0  0  0  0
    0.9105   -0.6023   -1.0924 C   0  0  0  0  0  0  0  0  0  0  0  0
    0.0336   -0.1238    0.0688 C   0  0  2  0  0  0  0  0  0  0  0  0
   -0.9674   -0.5430   -0.0331 H   0  0  0  0  0  0  0  0  0  0  0  0
   -0.0454    1.4074    0.0357 C   0  0  0  0  0  0  0  0  0  0  0  0
    1.3634    1.9571   -0.0094 C   0  0  0  0  0  0  0  0  0  0  0  0
    1.7147    2.8295    0.7491 O   0  0  0  0  0  0  0  0  0  0  0  0
    2.2161    1.4453   -0.9214 O   0  0  0  0  0  0  0  0  0  0  0  0
    0.6075   -0.5465    1.3074 O   0  0  0  0  0  0  0  0  0  0  0  0
    5.7529    2.2185   -3.8444 H   0  0  0  0  0  0  0  0  0  0  0  0
    4.4330    2.2703   -5.0376 H   0  0  0  0  0  0  0  0  0  0  0  0
    4.0737    1.9338   -3.3270 H   0  0  0  0  0  0  0  0  0  0  0  0
    5.5427    0.2290   -6.5327 H   0  0  0  0  0  0  0  0  0  0  0  0
    7.8271   -0.3373   -6.2547 H   0  0  0  0  0  0  0  0  0  0  0  0
    9.4614   -1.3461   -4.7797 H   0  0  0  0  0  0  0  0  0  0  0  0
   10.0789   -2.2930   -2.5986 H   0  0  0  0  0  0  0  0  0  0  0  0
   10.0427   -0.5649   -2.1588 H   0  0  0  0  0  0  0  0  0  0  0  0
    7.6573   -2.4770   -2.0015 H   0  0  0  0  0  0  0  0  0  0  0  0
    8.6288   -1.9324   -0.6100 H   0  0  0  0  0  0  0  0  0  0  0  0
    8.0386    0.4070   -1.0927 H   0  0  0  0  0  0  0  0  0  0  0  0
    6.5748   -0.5683   -0.8639 H   0  0  0  0  0  0  0  0  0  0  0  0
    4.6164    1.1381   -1.8518 H   0  0  0  0  0  0  0  0  0  0  0  0
    5.0135   -0.3777   -1.0074 H   0  0  0  0  0  0  0  0  0  0  0  0
    3.1735   -1.5281   -2.2073 H   0  0  0  0  0  0  0  0  0  0  0  0
    2.7765   -0.0124   -3.0518 H   0  0  0  0  0  0  0  0  0  0  0  0
    0.9739   -1.6903   -1.0759 H   0  0  0  0  0  0  0  0  0  0  0  0
    0.4728   -0.2778   -2.0364 H   0  0  0  0  0  0  0  0  0  0  0  0
   -0.5929    1.7276   -0.8507 H   0  0  0  0  0  0  0  0  0  0  0  0
   -0.5518    1.7683    0.9309 H   0  0  0  0  0  0  0  0  0  0  0  0
    0.1070   -0.2704    2.0873 H   0  0  0  0  0  0  0  0  0  0  0  0
  1  2  1  0  0  0  0
  1 27  1  0  0  0  0
  1 28  1  0  0  0  0
  1 29  1  0  0  0  0
  2  3  1  0  0  0  0
  2 13  1  0  0  0  0
  2  4  1  0  0  0  0
  4  5  2  0  0  0  0
  4 30  1  0  0  0  0
  5  6  1  0  0  0  0
  5 31  1  0  0  0  0
  6 11  1  0  0  0  0
  6  7  2  0  0  0  0
  7  8  1  0  0  0  0
  7 32  1  0  0  0  0
  8  9  1  0  0  0  0
  8 33  1  0  0  0  0
  8 34  1  0  0  0  0
  9 10  1  0  0  0  0
  9 35  1  0  0  0  0
  9 36  1  0  0  0  0
 10 11  1  0  0  0  0
 10 37  1  0  0  0  0
 10 38  1  0  0  0  0
 11 12  1  0  0  0  0
 11 13  1  0  0  0  0
 13 14  1  0  0  0  0
 13 15  1  0  0  0  0
 15 16  1  0  0  0  0
 15 39  1  0  0  0  0
 15 40  1  0  0  0  0
 16 17  1  0  0  0  0
 16 41  1  0  0  0  0
 16 42  1  0  0  0  0
 17 18  1  0  0  0  0
 17 25  1  0  0  0  0
 17 19  1  0  0  0  0
 19 20  1  0  0  0  0
 19 43  1  0  0  0  0
 19 44  1  0  0  0  0
 20 21  1  0  0  0  0
 20 22  1  0  0  0  0
 20 26  1  0  0  0  0
 22 23  1  0  0  0  0
 22 45  1  0  0  0  0
 22 46  1  0  0  0  0
 23 24  2  0  0  0  0
 23 25  1  0  0  0  0
 26 47  1  0  0  0  0
M  END
$$$$
ZINC03833888
  -OEChem-08230709403D

 48 50  0     1  0  0  0  0  0999 V2000
    0.7045    3.4441   -3.6075 C   0  0  0  0  0  0  0  0  0  0  0  0
   -0.7572    3.0325   -3.7940 C   0  0  1  0  0  0  0  0  0  0  0  0
   -1.3526    3.4657   -2.9902 H   0  0  0  0  0  0  0  0  0  0  0  0
   -1.2501    3.5606   -5.1067 C   0  0  0  0  0  0  0  0  0  0  0  0
   -1.3620    2.8318   -6.2037 C   0  0  0  0  0  0  0  0  0  0  0  0
   -1.0030    1.3950   -6.1718 C   0  0  0  0  0  0  0  0  0  0  0  0
   -1.4167    0.6068   -7.1467 C   0  0  0  0  0  0  0  0  0  0  0  0
   -1.1727   -0.8794   -7.1003 C   0  0  0  0  0  0  0  0  0  0  0  0
   -1.2016   -1.3125   -5.6281 C   0  0  0  0  0  0  0  0  0  0  0  0
   -0.0792   -0.5852   -4.8907 C   0  0  1  0  0  0  0  0  0  0  0  0
    0.8774   -0.8776   -5.3239 H   0  0  0  0  0  0  0  0  0  0  0  0
   -0.2227    0.9155   -4.9839 C   0  0  2  0  0  0  0  0  0  0  0  0
    0.7842    1.3248   -5.0653 H   0  0  0  0  0  0  0  0  0  0  0  0
   -0.8591    1.5079   -3.7244 C   0  0  1  0  0  0  0  0  0  0  0  0
   -1.9065    1.2113   -3.6699 H   0  0  0  0  0  0  0  0  0  0  0  0
   -0.1167    0.9999   -2.4868 C   0  0  0  0  0  0  0  0  0  0  0  0
   -0.4077    1.9238   -1.3025 C   0  0  0  0  0  0  0  0  0  0  0  0
    0.3347    1.4158   -0.0649 C   0  0  2  0  0  0  0  0  0  0  0  0
    0.0659    0.3757    0.1196 H   0  0  0  0  0  0  0  0  0  0  0  0
   -0.0496    2.2665    1.1488 C   0  0  0  0  0  0  0  0  0  0  0  0
    0.7355    1.7874    2.3738 C   0  0  2  0  0  0  0  0  0  0  0  0
    0.4672    2.3935    3.2391 H   0  0  0  0  0  0  0  0  0  0  0  0
    2.2360    1.9312    2.0916 C   0  0  0  0  0  0  0  0  0  0  0  0
    2.5448    1.2346    0.7847 C   0  0  0  0  0  0  0  0  0  0  0  0
    3.4592    0.4493    0.6999 O   0  0  0  0  0  0  0  0  0  0  0  0
    1.7700    1.5158   -0.2837 O   0  0  0  0  0  0  0  0  0  0  0  0
    0.4273    0.4168    2.6358 O   0  0  0  0  0  0  0  0  0  0  0  0
   -0.1012   -0.9699   -3.5146 O   0  0  0  0  0  0  0  0  0  0  0  0
    1.3108    2.9993   -4.3966 H   0  0  0  0  0  0  0  0  0  0  0  0
    0.7852    4.5301   -3.6559 H   0  0  0  0  0  0  0  0  0  0  0  0
    1.0590    3.0963   -2.6372 H   0  0  0  0  0  0  0  0  0  0  0  0
   -1.5313    4.6019   -5.1599 H   0  0  0  0  0  0  0  0  0  0  0  0
   -1.7142    3.2822   -7.1199 H   0  0  0  0  0  0  0  0  0  0  0  0
   -1.9377    1.0340   -7.9908 H   0  0  0  0  0  0  0  0  0  0  0  0
   -1.9547   -1.3994   -7.6537 H   0  0  0  0  0  0  0  0  0  0  0  0
   -0.1988   -1.1074   -7.5333 H   0  0  0  0  0  0  0  0  0  0  0  0
   -2.1625   -1.0484   -5.1864 H   0  0  0  0  0  0  0  0  0  0  0  0
   -1.0488   -2.3895   -5.5591 H   0  0  0  0  0  0  0  0  0  0  0  0
    0.9551    0.9896   -2.6848 H   0  0  0  0  0  0  0  0  0  0  0  0
   -0.4523   -0.0099   -2.2509 H   0  0  0  0  0  0  0  0  0  0  0  0
   -1.4795    1.9341   -1.1045 H   0  0  0  0  0  0  0  0  0  0  0  0
   -0.0721    2.9337   -1.5385 H   0  0  0  0  0  0  0  0  0  0  0  0
    0.1883    3.3116    0.9504 H   0  0  0  0  0  0  0  0  0  0  0  0
   -1.1181    2.1663    1.3396 H   0  0  0  0  0  0  0  0  0  0  0  0
    2.8069    1.4698    2.8974 H   0  0  0  0  0  0  0  0  0  0  0  0
    2.4962    2.9870    2.0153 H   0  0  0  0  0  0  0  0  0  0  0  0
    0.8965    0.0465    3.3959 H   0  0  0  0  0  0  0  0  0  0  0  0
   -0.0138   -1.9222   -3.3710 H   0  0  0  0  0  0  0  0  0  0  0  0
  1  2  1  0  0  0  0
  1 29  1  0  0  0  0
  1 30  1  0  0  0  0
  1 31  1  0  0  0  0
  2  3  1  0  0  0  0
  2 14  1  0  0  0  0
  2  4  1  0  0  0  0
  4  5  2  0  0  0  0
  4 32  1  0  0  0  0
  5  6  1  0  0  0  0
  5 33  1  0  0  0  0
  6 12  1  0  0  0  0
  6  7  2  0  0  0  0
  7  8  1  0  0  0  0
  7 34  1  0  0  0  0
  8  9  1  0  0  0  0
  8 35  1  0  0  0  0
  8 36  1  0  0  0  0
  9 10  1  0  0  0  0
  9 37  1  0  0  0  0
  9 38  1  0  0  0  0
 10 11  1  0  0  0  0
 10 12  1  0  0  0  0
 10 28  1  0  0  0  0
 12 13  1  0  0  0  0
 12 14  1  0  0  0  0
 14 15  1  0  0  0  0
 14 16  1  0  0  0  0
 16 17  1  0  0  0  0
 16 39  1  0  0  0  0
 16 40  1  0  0  0  0
 17 18  1  0  0  0  0
 17 41  1  0  0  0  0
 17 42  1  0  0  0  0
 18 19  1  0  0  0  0
 18 26  1  0  0  0  0
 18 20  1  0  0  0  0
 20 21  1  0  0  0  0
 20 43  1  0  0  0  0
 20 44  1  0  0  0  0
 21 22  1  0  0  0  0
 21 23  1  0  0  0  0
 21 27  1  0  0  0  0
 23 24  1  0  0  0  0
 23 45  1  0  0  0  0
 23 46  1  0  0  0  0
 24 25  2  0  0  0  0
 24 26  1  0  0  0  0
 27 47  1  0  0  0  0
 28 48  1  0  0  0  0
M  END
$$$$
ZINC03833889
  -OEChem-08230709403D

 65 66  0     1  0  0  0  0  0999 V2000
   -3.2334   -2.3300    1.2133 C   0  0  0  0  0  0  0  0  0  0  0  0
   -1.8282   -1.7736    0.9748 C   0  0  0  0  0  0  0  0  0  0  0  0
   -1.9266   -0.3118    0.5339 C   0  0  2  0  0  0  0  0  0  0  0  0
   -2.4981    0.2524    1.2709 H   0  0  0  0  0  0  0  0  0  0  0  0
   -2.6282   -0.2346   -0.8235 C   0  0  0  0  0  0  0  0  0  0  0  0
   -0.5421    0.2721    0.4177 C   0  0  0  0  0  0  0  0  0  0  0  0
    0.4261   -0.4407    0.5376 O   0  0  0  0  0  0  0  0  0  0  0  0
   -0.3846    1.5839    0.1810 O   0  0  0  0  0  0  0  0  0  0  0  0
    0.9691    2.1060    0.2370 C   0  0  2  0  0  0  0  0  0  0  0  0
    1.6504    1.4089   -0.2508 H   0  0  0  0  0  0  0  0  0  0  0  0
    1.3863    2.2950    1.6966 C   0  0  0  0  0  0  0  0  0  0  0  0
    2.6657    3.0658    1.8126 C   0  0  0  0  0  0  0  0  0  0  0  0
    3.1619    3.8307    0.8554 C   0  0  0  0  0  0  0  0  0  0  0  0
    2.4452    3.9467   -0.4356 C   0  0  0  0  0  0  0  0  0  0  0  0
    3.0708    4.4565   -1.4802 C   0  0  0  0  0  0  0  0  0  0  0  0
    2.3930    4.5355   -2.8241 C   0  0  2  0  0  0  0  0  0  0  0  0
    1.8150    5.4569   -2.8948 H   0  0  0  0  0  0  0  0  0  0  0  0
    1.4580    3.3237   -2.9447 C   0  0  2  0  0  0  0  0  0  0  0  0
    0.9711    3.3305   -3.9199 H   0  0  0  0  0  0  0  0  0  0  0  0
    0.4045    3.4177   -1.8430 C   0  0  2  0  0  0  0  0  0  0  0  0
   -0.1857    4.3214   -1.9949 H   0  0  0  0  0  0  0  0  0  0  0  0
    1.0256    3.4626   -0.4680 C   0  0  1  0  0  0  0  0  0  0  0  0
    0.4329    4.1587    0.1255 H   0  0  0  0  0  0  0  0  0  0  0  0
   -0.5184    2.2006   -1.9322 C   0  0  0  0  0  0  0  0  0  0  0  0
   -1.1526    2.1424   -3.3234 C   0  0  0  0  0  0  0  0  0  0  0  0
   -1.9532    0.8464   -3.4651 C   0  0  1  0  0  0  0  0  0  0  0  0
   -2.6827    0.7798   -2.6579 H   0  0  0  0  0  0  0  0  0  0  0  0
   -2.6802    0.8406   -4.8113 C   0  0  0  0  0  0  0  0  0  0  0  0
   -3.5781   -0.3950   -4.9008 C   0  0  2  0  0  0  0  0  0  0  0  0
   -2.9822   -1.2906   -4.7248 H   0  0  0  0  0  0  0  0  0  0  0  0
   -4.2088   -0.4675   -6.2928 C   0  0  0  0  0  0  0  0  0  0  0  0
   -4.9944   -1.7469   -6.4224 C   0  0  0  0  0  0  0  0  0  0  0  0
   -5.0447   -2.5214   -5.4964 O   0  0  0  0  0  0  0  0  0  0  0  0
   -4.6088   -0.3073   -3.9149 O   0  0  0  0  0  0  0  0  0  0  0  0
   -1.0656   -0.2716   -3.3983 O   0  0  0  0  0  0  0  0  0  0  0  0
    2.2629    2.0331   -2.7795 C   0  0  0  0  0  0  0  0  0  0  0  0
    3.3727    4.4971   -3.8637 O   0  0  0  0  0  0  0  0  0  0  0  0
   -3.7273   -1.7482    1.9915 H   0  0  0  0  0  0  0  0  0  0  0  0
   -3.8106   -2.2668    0.2908 H   0  0  0  0  0  0  0  0  0  0  0  0
   -3.1633   -3.3714    1.5274 H   0  0  0  0  0  0  0  0  0  0  0  0
   -1.3343   -2.3554    0.1966 H   0  0  0  0  0  0  0  0  0  0  0  0
   -1.2511   -1.8368    1.8973 H   0  0  0  0  0  0  0  0  0  0  0  0
   -2.7781    0.8100   -1.0962 H   0  0  0  0  0  0  0  0  0  0  0  0
   -2.0124   -0.7226   -1.5791 H   0  0  0  0  0  0  0  0  0  0  0  0
   -3.5939   -0.7364   -0.7624 H   0  0  0  0  0  0  0  0  0  0  0  0
    0.5986    2.8324    2.2246 H   0  0  0  0  0  0  0  0  0  0  0  0
    1.5179    1.3164    2.1581 H   0  0  0  0  0  0  0  0  0  0  0  0
    3.2183    2.9915    2.7376 H   0  0  0  0  0  0  0  0  0  0  0  0
    4.0849    4.3685    1.0140 H   0  0  0  0  0  0  0  0  0  0  0  0
    4.0810    4.8222   -1.3704 H   0  0  0  0  0  0  0  0  0  0  0  0
    0.0594    1.2929   -1.7581 H   0  0  0  0  0  0  0  0  0  0  0  0
   -1.3019    2.2827   -1.1789 H   0  0  0  0  0  0  0  0  0  0  0  0
   -1.8171    2.9963   -3.4558 H   0  0  0  0  0  0  0  0  0  0  0  0
   -0.3695    2.1705   -4.0811 H   0  0  0  0  0  0  0  0  0  0  0  0
   -3.2900    1.7399   -4.8988 H   0  0  0  0  0  0  0  0  0  0  0  0
   -1.9488    0.8175   -5.6191 H   0  0  0  0  0  0  0  0  0  0  0  0
   -4.8746    0.3837   -6.4348 H   0  0  0  0  0  0  0  0  0  0  0  0
   -3.4239   -0.4448   -7.0489 H   0  0  0  0  0  0  0  0  0  0  0  0
   -5.1794    0.4676   -4.0103 H   0  0  0  0  0  0  0  0  0  0  0  0
   -0.3882   -0.2777   -4.0884 H   0  0  0  0  0  0  0  0  0  0  0  0
    1.5929    1.1760   -2.8462 H   0  0  0  0  0  0  0  0  0  0  0  0
    3.0135    1.9697   -3.5674 H   0  0  0  0  0  0  0  0  0  0  0  0
    2.7559    2.0343   -1.8074 H   0  0  0  0  0  0  0  0  0  0  0  0
    3.9958    5.2363   -3.8443 H   0  0  0  0  0  0  0  0  0  0  0  0
   -5.6382   -2.0262   -7.5666 O   0  5  0  0  0  0  0  0  0  0  0  0
  1  2  1  0  0  0  0
  1 38  1  0  0  0  0
  1 39  1  0  0  0  0
  1 40  1  0  0  0  0
  2  3  1  0  0  0  0
  2 41  1  0  0  0  0
  2 42  1  0  0  0  0
  3  4  1  0  0  0  0
  3  5  1  0  0  0  0
  3  6  1  0  0  0  0
  5 43  1  0  0  0  0
  5 44  1  0  0  0  0
  5 45  1  0  0  0  0
  6  7  2  0  0  0  0
  6  8  1  0  0  0  0
  8  9  1  0  0  0  0
  9 10  1  0  0  0  0
  9 22  1  0  0  0  0
  9 11  1  0  0  0  0
 11 12  1  0  0  0  0
 11 46  1  0  0  0  0
 11 47  1  0  0  0  0
 12 13  2  0  0  0  0
 12 48  1  0  0  0  0
 13 14  1  0  0  0  0
 13 49  1  0  0  0  0
 14 22  1  0  0  0  0
 14 15  2  0  0  0  0
 15 16  1  0  0  0  0
 15 50  1  0  0  0  0
 16 17  1  0  0  0  0
 16 18  1  0  0  0  0
 16 37  1  0  0  0  0
 18 19  1  0  0  0  0
 18 20  1  0  0  0  0
 18 36  1  0  0  0  0
 20 21  1  0  0  0  0
 20 22  1  0  0  0  0
 20 24  1  0  0  0  0
 22 23  1  0  0  0  0
 24 25  1  0  0  0  0
 24 51  1  0  0  0  0
 24 52  1  0  0  0  0
 25 26  1  0  0  0  0
 25 53  1  0  0  0  0
 25 54  1  0  0  0  0
 26 27  1  0  0  0  0
 26 28  1  0  0  0  0
 26 35  1  0  0  0  0
 28 29  1  0  0  0  0
 28 55  1  0  0  0  0
 28 56  1  0  0  0  0
 29 30  1  0  0  0  0
 29 31  1  0  0  0  0
 29 34  1  0  0  0  0
 31 32  1  0  0  0  0
 31 57  1  0  0  0  0
 31 58  1  0  0  0  0
 32 33  2  0  0  0  0
 32 65  1  0  0  0  0
 34 59  1  0  0  0  0
 35 60  1  0  0  0  0
 36 61  1  0  0  0  0
 36 62  1  0  0  0  0
 36 63  1  0  0  0  0
 37 64  1  0  0  0  0
M  CHG  1  65  -1
M  END
$$$$
ZINC03833890
  -OEChem-08230709403D

 65 67  0     1  0  0  0  0  0999 V2000
    0.1545    8.6232   -3.1144 C   0  0  0  0  0  0  0  0  0  0  0  0
    0.9473    7.6236   -2.2699 C   0  0  0  0  0  0  0  0  0  0  0  0
   -0.0150    6.8227   -1.3905 C   0  0  2  0  0  0  0  0  0  0  0  0
   -0.7851    6.3689   -2.0143 H   0  0  0  0  0  0  0  0  0  0  0  0
   -0.6698    7.7558   -0.3700 C   0  0  0  0  0  0  0  0  0  0  0  0
    0.7467    5.7423   -0.6670 C   0  0  0  0  0  0  0  0  0  0  0  0
    1.9504    5.6884   -0.7563 O   0  0  0  0  0  0  0  0  0  0  0  0
    0.0879    4.8398    0.0768 O   0  0  0  0  0  0  0  0  0  0  0  0
    0.8915    3.9018    0.8401 C   0  0  1  0  0  0  0  0  0  0  0  0
    1.7693    3.6291    0.2543 H   0  0  0  0  0  0  0  0  0  0  0  0
    1.3487    4.5763    2.1319 C   0  0  0  0  0  0  0  0  0  0  0  0
    2.1720    3.5637    2.9406 C   0  0  2  0  0  0  0  0  0  0  0  0
    3.0162    3.2147    2.3460 H   0  0  0  0  0  0  0  0  0  0  0  0
    1.2743    2.3989    3.2728 C   0  0  0  0  0  0  0  0  0  0  0  0
    0.3125    2.0295    2.4476 C   0  0  0  0  0  0  0  0  0  0  0  0
    0.0753    2.6607    1.1076 C   0  0  1  0  0  0  0  0  0  0  0  0
    0.3461    1.9243    0.3510 H   0  0  0  0  0  0  0  0  0  0  0  0
   -1.4248    2.9247    0.9643 C   0  0  2  0  0  0  0  0  0  0  0  0
   -1.7645    3.5585    1.7834 H   0  0  0  0  0  0  0  0  0  0  0  0
   -2.1640    1.5862    1.0105 C   0  0  2  0  0  0  0  0  0  0  0  0
   -3.2348    1.7753    1.0862 H   0  0  0  0  0  0  0  0  0  0  0  0
   -1.7314    0.7532    2.1781 C   0  0  0  0  0  0  0  0  0  0  0  0
   -0.6025    0.9338    2.8419 C   0  0  0  0  0  0  0  0  0  0  0  0
   -1.8839    0.8169   -0.2821 C   0  0  0  0  0  0  0  0  0  0  0  0
   -1.6990    3.6167   -0.3724 C   0  0  0  0  0  0  0  0  0  0  0  0
   -3.1669    3.4205   -0.7567 C   0  0  0  0  0  0  0  0  0  0  0  0
   -3.4080    3.9892   -2.1565 C   0  0  1  0  0  0  0  0  0  0  0  0
   -2.7137    3.5306   -2.8605 H   0  0  0  0  0  0  0  0  0  0  0  0
   -4.8464    3.6915   -2.5888 C   0  0  0  0  0  0  0  0  0  0  0  0
   -5.1000    4.3082   -3.9679 C   0  0  1  0  0  0  0  0  0  0  0  0
   -6.1240    4.0999   -4.2780 H   0  0  0  0  0  0  0  0  0  0  0  0
   -4.8855    5.8243   -3.8830 C   0  0  0  0  0  0  0  0  0  0  0  0
   -3.5237    6.0804   -3.2759 C   0  0  0  0  0  0  0  0  0  0  0  0
   -2.7458    6.8456   -3.7947 O   0  0  0  0  0  0  0  0  0  0  0  0
   -3.2029    5.4299   -2.1380 O   0  0  0  0  0  0  0  0  0  0  0  0
   -4.1897    3.7487   -4.9168 O   0  0  0  0  0  0  0  0  0  0  0  0
    2.6790    4.2172    4.2278 C   0  0  0  0  0  0  0  0  0  0  0  0
   -0.6152    8.0941   -3.6763 H   0  0  0  0  0  0  0  0  0  0  0  0
   -0.3138    9.3596   -2.4614 H   0  0  0  0  0  0  0  0  0  0  0  0
    0.8278    9.1280   -3.8072 H   0  0  0  0  0  0  0  0  0  0  0  0
    1.6543    8.1617   -1.6384 H   0  0  0  0  0  0  0  0  0  0  0  0
    1.4908    6.9440   -2.9263 H   0  0  0  0  0  0  0  0  0  0  0  0
    0.1002    8.2097    0.2539 H   0  0  0  0  0  0  0  0  0  0  0  0
   -1.2208    8.5373   -0.8933 H   0  0  0  0  0  0  0  0  0  0  0  0
   -1.3554    7.1853    0.2566 H   0  0  0  0  0  0  0  0  0  0  0  0
    1.9640    5.4443    1.8950 H   0  0  0  0  0  0  0  0  0  0  0  0
    0.4794    4.8886    2.7106 H   0  0  0  0  0  0  0  0  0  0  0  0
    1.4093    1.8701    4.2047 H   0  0  0  0  0  0  0  0  0  0  0  0
   -2.3833   -0.0463    2.4977 H   0  0  0  0  0  0  0  0  0  0  0  0
   -0.3487    0.2853    3.6674 H   0  0  0  0  0  0  0  0  0  0  0  0
   -2.4391   -0.1210   -0.2743 H   0  0  0  0  0  0  0  0  0  0  0  0
   -0.8169    0.6069   -0.3560 H   0  0  0  0  0  0  0  0  0  0  0  0
   -2.1962    1.4169   -1.1369 H   0  0  0  0  0  0  0  0  0  0  0  0
   -1.4867    4.6818   -0.2804 H   0  0  0  0  0  0  0  0  0  0  0  0
   -1.0607    3.1843   -1.1430 H   0  0  0  0  0  0  0  0  0  0  0  0
   -3.4050    2.3568   -0.7507 H   0  0  0  0  0  0  0  0  0  0  0  0
   -3.8027    3.9392   -0.0393 H   0  0  0  0  0  0  0  0  0  0  0  0
   -4.9949    2.6129   -2.6399 H   0  0  0  0  0  0  0  0  0  0  0  0
   -5.5398    4.1206   -1.8655 H   0  0  0  0  0  0  0  0  0  0  0  0
   -4.9294    6.2579   -4.8821 H   0  0  0  0  0  0  0  0  0  0  0  0
   -5.6570    6.2696   -3.2548 H   0  0  0  0  0  0  0  0  0  0  0  0
   -4.2942    4.0950   -5.8136 H   0  0  0  0  0  0  0  0  0  0  0  0
    1.8301    4.5500    4.8250 H   0  0  0  0  0  0  0  0  0  0  0  0
    3.2624    3.4937    4.7972 H   0  0  0  0  0  0  0  0  0  0  0  0
    3.3056    5.0734    3.9782 H   0  0  0  0  0  0  0  0  0  0  0  0
  1  2  1  0  0  0  0
  1 38  1  0  0  0  0
  1 39  1  0  0  0  0
  1 40  1  0  0  0  0
  2  3  1  0  0  0  0
  2 41  1  0  0  0  0
  2 42  1  0  0  0  0
  3  4  1  0  0  0  0
  3  5  1  0  0  0  0
  3  6  1  0  0  0  0
  5 43  1  0  0  0  0
  5 44  1  0  0  0  0
  5 45  1  0  0  0  0
  6  7  2  0  0  0  0
  6  8  1  0  0  0  0
  8  9  1  0  0  0  0
  9 10  1  0  0  0  0
  9 16  1  0  0  0  0
  9 11  1  0  0  0  0
 11 12  1  0  0  0  0
 11 46  1  0  0  0  0
 11 47  1  0  0  0  0
 12 13  1  0  0  0  0
 12 14  1  0  0  0  0
 12 37  1  0  0  0  0
 14 15  2  0  0  0  0
 14 48  1  0  0  0  0
 15 23  1  0  0  0  0
 15 16  1  0  0  0  0
 16 17  1  0  0  0  0
 16 18  1  0  0  0  0
 18 19  1  0  0  0  0
 18 20  1  0  0  0  0
 18 25  1  0  0  0  0
 20 21  1  0  0  0  0
 20 22  1  0  0  0  0
 20 24  1  0  0  0  0
 22 23  2  0  0  0  0
 22 49  1  0  0  0  0
 23 50  1  0  0  0  0
 24 51  1  0  0  0  0
 24 52  1  0  0  0  0
 24 53  1  0  0  0  0
 25 26  1  0  0  0  0
 25 54  1  0  0  0  0
 25 55  1  0  0  0  0
 26 27  1  0  0  0  0
 26 56  1  0  0  0  0
 26 57  1  0  0  0  0
 27 28  1  0  0  0  0
 27 35  1  0  0  0  0
 27 29  1  0  0  0  0
 29 30  1  0  0  0  0
 29 58  1  0  0  0  0
 29 59  1  0  0  0  0
 30 31  1  0  0  0  0
 30 32  1  0  0  0  0
 30 36  1  0  0  0  0
 32 33  1  0  0  0  0
 32 60  1  0  0  0  0
 32 61  1  0  0  0  0
 33 34  2  0  0  0  0
 33 35  1  0  0  0  0
 36 62  1  0  0  0  0
 37 63  1  0  0  0  0
 37 64  1  0  0  0  0
 37 65  1  0  0  0  0
M  END
$$$$
ZINC03833891
  -OEChem-08230709403D

 68 70  0     1  0  0  0  0  0999 V2000
   -4.3521    8.4625    4.7513 C   0  0  0  0  0  0  0  0  0  0  0  0
   -3.8667    7.0256    4.5493 C   0  0  0  0  0  0  0  0  0  0  0  0
   -3.3342    6.8627    3.1243 C   0  0  0  0  0  0  0  0  0  0  0  0
   -2.1085    7.7581    2.9324 C   0  0  0  0  0  0  0  0  0  0  0  0
   -4.4207    7.2645    2.1248 C   0  0  0  0  0  0  0  0  0  0  0  0
   -2.9469    5.4247    2.8941 C   0  0  0  0  0  0  0  0  0  0  0  0
   -2.9463    4.6441    3.8164 O   0  0  0  0  0  0  0  0  0  0  0  0
   -2.6024    5.0109    1.6645 O   0  0  0  0  0  0  0  0  0  0  0  0
   -2.2911    3.6016    1.5063 C   0  0  1  0  0  0  0  0  0  0  0  0
   -1.5318    3.3238    2.2374 H   0  0  0  0  0  0  0  0  0  0  0  0
   -3.5662    2.7852    1.7590 C   0  0  0  0  0  0  0  0  0  0  0  0
   -3.2294    1.3005    1.5615 C   0  0  2  0  0  0  0  0  0  0  0  0
   -2.4189    1.0130    2.2311 H   0  0  0  0  0  0  0  0  0  0  0  0
   -2.7985    1.1168    0.1289 C   0  0  0  0  0  0  0  0  0  0  0  0
   -2.1530    2.0736   -0.5118 C   0  0  0  0  0  0  0  0  0  0  0  0
   -1.7428    3.3729    0.1187 C   0  0  1  0  0  0  0  0  0  0  0  0
   -0.6562    3.3665    0.2034 H   0  0  0  0  0  0  0  0  0  0  0  0
   -2.1144    4.5033   -0.8431 C   0  0  2  0  0  0  0  0  0  0  0  0
   -3.1825    4.4649   -1.0573 H   0  0  0  0  0  0  0  0  0  0  0  0
   -1.3239    4.3220   -2.1400 C   0  0  2  0  0  0  0  0  0  0  0  0
   -1.7095    5.0133   -2.8894 H   0  0  0  0  0  0  0  0  0  0  0  0
   -1.4314    2.9230   -2.6650 C   0  0  0  0  0  0  0  0  0  0  0  0
   -1.7969    1.8821   -1.9367 C   0  0  0  0  0  0  0  0  0  0  0  0
    0.1483    4.6439   -1.8758 C   0  0  0  0  0  0  0  0  0  0  0  0
   -1.7653    5.8533   -0.2135 C   0  0  0  0  0  0  0  0  0  0  0  0
   -1.4842    6.8738   -1.3182 C   0  0  0  0  0  0  0  0  0  0  0  0
   -0.9061    8.1484   -0.7000 C   0  0  1  0  0  0  0  0  0  0  0  0
   -0.1038    7.8871   -0.0101 H   0  0  0  0  0  0  0  0  0  0  0  0
   -0.3547    9.0499   -1.8081 C   0  0  0  0  0  0  0  0  0  0  0  0
    0.1749   10.3477   -1.1903 C   0  0  1  0  0  0  0  0  0  0  0  0
    0.5665   10.9929   -1.9768 H   0  0  0  0  0  0  0  0  0  0  0  0
   -0.9734   11.0590   -0.4641 C   0  0  0  0  0  0  0  0  0  0  0  0
   -1.6152   10.0768    0.4909 C   0  0  0  0  0  0  0  0  0  0  0  0
   -1.8191   10.3740    1.6441 O   0  0  0  0  0  0  0  0  0  0  0  0
   -1.9539    8.8593    0.0176 O   0  0  0  0  0  0  0  0  0  0  0  0
    1.2150   10.0442   -0.2585 O   0  0  0  0  0  0  0  0  0  0  0  0
   -4.4653    0.4444    1.8455 C   0  0  0  0  0  0  0  0  0  0  0  0
   -3.5503    9.1559    4.4973 H   0  0  0  0  0  0  0  0  0  0  0  0
   -5.2116    8.6495    4.1077 H   0  0  0  0  0  0  0  0  0  0  0  0
   -4.6400    8.6057    5.7928 H   0  0  0  0  0  0  0  0  0  0  0  0
   -4.6960    6.3363    4.7084 H   0  0  0  0  0  0  0  0  0  0  0  0
   -3.0711    6.8074    5.2617 H   0  0  0  0  0  0  0  0  0  0  0  0
   -1.5910    7.4741    2.0160 H   0  0  0  0  0  0  0  0  0  0  0  0
   -2.4258    8.7985    2.8630 H   0  0  0  0  0  0  0  0  0  0  0  0
   -1.4354    7.6394    3.7815 H   0  0  0  0  0  0  0  0  0  0  0  0
   -5.2940    6.6266    2.2615 H   0  0  0  0  0  0  0  0  0  0  0  0
   -4.7009    8.3046    2.2913 H   0  0  0  0  0  0  0  0  0  0  0  0
   -4.0414    7.1484    1.1095 H   0  0  0  0  0  0  0  0  0  0  0  0
   -4.3439    3.0822    1.0553 H   0  0  0  0  0  0  0  0  0  0  0  0
   -3.9111    2.9509    2.7796 H   0  0  0  0  0  0  0  0  0  0  0  0
   -3.0203    0.1904   -0.3799 H   0  0  0  0  0  0  0  0  0  0  0  0
   -1.1947    2.7539   -3.7051 H   0  0  0  0  0  0  0  0  0  0  0  0
   -1.8401    0.8979   -2.3795 H   0  0  0  0  0  0  0  0  0  0  0  0
    0.7119    4.5558   -2.8047 H   0  0  0  0  0  0  0  0  0  0  0  0
    0.2350    5.6609   -1.4934 H   0  0  0  0  0  0  0  0  0  0  0  0
    0.5470    3.9442   -1.1412 H   0  0  0  0  0  0  0  0  0  0  0  0
   -2.6016    6.1976    0.3950 H   0  0  0  0  0  0  0  0  0  0  0  0
   -0.8805    5.7438    0.4137 H   0  0  0  0  0  0  0  0  0  0  0  0
   -0.7678    6.4557   -2.0253 H   0  0  0  0  0  0  0  0  0  0  0  0
   -2.4122    7.1109   -1.8385 H   0  0  0  0  0  0  0  0  0  0  0  0
    0.4556    8.5362   -2.3253 H   0  0  0  0  0  0  0  0  0  0  0  0
   -1.1494    9.2824   -2.5169 H   0  0  0  0  0  0  0  0  0  0  0  0
   -0.5837   11.9111    0.0927 H   0  0  0  0  0  0  0  0  0  0  0  0
   -1.7112   11.4006   -1.1902 H   0  0  0  0  0  0  0  0  0  0  0  0
    1.5970   10.8216    0.1714 H   0  0  0  0  0  0  0  0  0  0  0  0
   -4.2277   -0.6053    1.6726 H   0  0  0  0  0  0  0  0  0  0  0  0
   -4.7718    0.5815    2.8824 H   0  0  0  0  0  0  0  0  0  0  0  0
   -5.2768    0.7470    1.1836 H   0  0  0  0  0  0  0  0  0  0  0  0
  1  2  1  0  0  0  0
  1 38  1  0  0  0  0
  1 39  1  0  0  0  0
  1 40  1  0  0  0  0
  2  3  1  0  0  0  0
  2 41  1  0  0  0  0
  2 42  1  0  0  0  0
  3  4  1  0  0  0  0
  3  5  1  0  0  0  0
  3  6  1  0  0  0  0
  4 43  1  0  0  0  0
  4 44  1  0  0  0  0
  4 45  1  0  0  0  0
  5 46  1  0  0  0  0
  5 47  1  0  0  0  0
  5 48  1  0  0  0  0
  6  7  2  0  0  0  0
  6  8  1  0  0  0  0
  8  9  1  0  0  0  0
  9 10  1  0  0  0  0
  9 16  1  0  0  0  0
  9 11  1  0  0  0  0
 11 12  1  0  0  0  0
 11 49  1  0  0  0  0
 11 50  1  0  0  0  0
 12 13  1  0  0  0  0
 12 14  1  0  0  0  0
 12 37  1  0  0  0  0
 14 15  2  0  0  0  0
 14 51  1  0  0  0  0
 15 23  1  0  0  0  0
 15 16  1  0  0  0  0
 16 17  1  0  0  0  0
 16 18  1  0  0  0  0
 18 19  1  0  0  0  0
 18 20  1  0  0  0  0
 18 25  1  0  0  0  0
 20 21  1  0  0  0  0
 20 22  1  0  0  0  0
 20 24  1  0  0  0  0
 22 23  2  0  0  0  0
 22 52  1  0  0  0  0
 23 53  1  0  0  0  0
 24 54  1  0  0  0  0
 24 55  1  0  0  0  0
 24 56  1  0  0  0  0
 25 26  1  0  0  0  0
 25 57  1  0  0  0  0
 25 58  1  0  0  0  0
 26 27  1  0  0  0  0
 26 59  1  0  0  0  0
 26 60  1  0  0  0  0
 27 28  1  0  0  0  0
 27 35  1  0  0  0  0
 27 29  1  0  0  0  0
 29 30  1  0  0  0  0
 29 61  1  0  0  0  0
 29 62  1  0  0  0  0
 30 31  1  0  0  0  0
 30 32  1  0  0  0  0
 30 36  1  0  0  0  0
 32 33  1  0  0  0  0
 32 63  1  0  0  0  0
 32 64  1  0  0  0  0
 33 34  2  0  0  0  0
 33 35  1  0  0  0  0
 36 65  1  0  0  0  0
 37 66  1  0  0  0  0
 37 67  1  0  0  0  0
 37 68  1  0  0  0  0
M  END
$$$$
ZINC03920719
  -OEChem-08230709403D

 75 78  0     1  0  0  0  0  0999 V2000
   -0.0291    1.0885    0.0221 C   0  0  0  0  0  0  0  0  0  0  0  0
   -0.7404    1.5920    1.2797 C   0  0  0  0  0  0  0  0  0  0  0  0
   -0.0014    1.0867    2.5205 C   0  0  0  0  0  0  0  0  0  0  0  0
   -0.7521    3.0989    1.2809 C   0  0  0  0  0  0  0  0  0  0  0  0
    0.3559    3.8992    1.2751 C   0  0  0  0  0  0  0  0  0  0  0  0
   -0.1353    5.2868    1.2756 C   0  0  0  0  0  0  0  0  0  0  0  0
   -1.5139    5.1979    1.2908 C   0  0  0  0  0  0  0  0  0  0  0  0
   -1.8559    3.8705    1.2937 N   0  0  0  0  0  0  0  0  0  0  0  0
   -3.2298    3.3622    1.3087 C   0  0  0  0  0  0  0  0  0  0  0  0
   -3.6921    3.1842    2.7563 C   0  0  0  0  0  0  0  0  0  0  0  0
   -5.1269    2.6533    2.7719 C   0  0  2  0  0  0  0  0  0  0  0  0
   -5.7663    3.3172    2.1900 H   0  0  0  0  0  0  0  0  0  0  0  0
   -5.6329    2.5933    4.2145 C   0  0  0  0  0  0  0  0  0  0  0  0
   -7.1065    2.1819    4.2215 C   0  0  2  0  0  0  0  0  0  0  0  0
   -7.6767    2.8622    3.5890 H   0  0  0  0  0  0  0  0  0  0  0  0
   -7.6461    2.2424    5.6519 C   0  0  0  0  0  0  0  0  0  0  0  0
   -9.1258    1.9568    5.6431 C   0  0  0  0  0  0  0  0  0  0  0  0
   -9.6908    1.7283    4.5998 O   0  0  0  0  0  0  0  0  0  0  0  0
   -7.2313    0.8491    3.7214 O   0  0  0  0  0  0  0  0  0  0  0  0
   -5.1564    1.3433    2.2019 O   0  0  0  0  0  0  0  0  0  0  0  0
   -2.4556    6.3354    1.3026 C   0  0  0  0  0  0  0  0  0  0  0  0
   -3.5671    6.3339    0.4570 C   0  0  0  0  0  0  0  0  0  0  0  0
   -4.4457    7.3967    0.4757 C   0  0  0  0  0  0  0  0  0  0  0  0
   -4.2216    8.4697    1.3238 C   0  0  0  0  0  0  0  0  0  0  0  0
   -3.1174    8.4790    2.1613 C   0  0  0  0  0  0  0  0  0  0  0  0
   -2.2349    7.4193    2.1550 C   0  0  0  0  0  0  0  0  0  0  0  0
   -5.0831    9.5103    1.3345 F   0  0  0  0  0  0  0  0  0  0  0  0
    0.6797    6.5226    1.2673 C   0  0  0  0  0  0  0  0  0  0  0  0
    0.6319    7.3859    0.1724 C   0  0  0  0  0  0  0  0  0  0  0  0
    1.3903    8.5385    0.1729 C   0  0  0  0  0  0  0  0  0  0  0  0
    2.2049    8.8336    1.2515 C   0  0  0  0  0  0  0  0  0  0  0  0
    2.2607    7.9789    2.3380 C   0  0  0  0  0  0  0  0  0  0  0  0
    1.5031    6.8258    2.3520 C   0  0  0  0  0  0  0  0  0  0  0  0
    1.7604    3.4609    1.2674 C   0  0  0  0  0  0  0  0  0  0  0  0
    2.3353    3.2799    0.2107 O   0  0  0  0  0  0  0  0  0  0  0  0
    2.4100    3.2598    2.4310 N   0  0  0  0  0  0  0  0  0  0  0  0
    3.7128    2.7511    2.4258 C   0  0  0  0  0  0  0  0  0  0  0  0
    4.1303    1.8966    3.4379 C   0  0  0  0  0  0  0  0  0  0  0  0
    5.4160    1.3922    3.4272 C   0  0  0  0  0  0  0  0  0  0  0  0
    6.2905    1.7455    2.4160 C   0  0  0  0  0  0  0  0  0  0  0  0
    5.8796    2.6003    1.4096 C   0  0  0  0  0  0  0  0  0  0  0  0
    4.5937    3.1040    1.4116 C   0  0  0  0  0  0  0  0  0  0  0  0
   -0.0207   -0.0015    0.0213 H   0  0  0  0  0  0  0  0  0  0  0  0
    0.9956    1.4598    0.0110 H   0  0  0  0  0  0  0  0  0  0  0  0
   -0.5556    1.4484   -0.8618 H   0  0  0  0  0  0  0  0  0  0  0  0
   -1.7651    1.2207    1.2909 H   0  0  0  0  0  0  0  0  0  0  0  0
    1.0234    1.4580    2.5093 H   0  0  0  0  0  0  0  0  0  0  0  0
   -0.5081    1.4454    3.4164 H   0  0  0  0  0  0  0  0  0  0  0  0
    0.0071   -0.0032    2.5196 H   0  0  0  0  0  0  0  0  0  0  0  0
   -3.8851    4.0711    0.8026 H   0  0  0  0  0  0  0  0  0  0  0  0
   -3.2675    2.4018    0.7946 H   0  0  0  0  0  0  0  0  0  0  0  0
   -3.0369    2.4752    3.2623 H   0  0  0  0  0  0  0  0  0  0  0  0
   -3.6544    4.1446    3.2704 H   0  0  0  0  0  0  0  0  0  0  0  0
   -5.0490    1.8626    4.7742 H   0  0  0  0  0  0  0  0  0  0  0  0
   -5.5274    3.5744    4.6777 H   0  0  0  0  0  0  0  0  0  0  0  0
   -7.1362    1.4988    6.2644 H   0  0  0  0  0  0  0  0  0  0  0  0
   -7.4703    3.2357    6.0648 H   0  0  0  0  0  0  0  0  0  0  0  0
   -6.7482    0.1887    4.2368 H   0  0  0  0  0  0  0  0  0  0  0  0
   -4.6084    0.6984    2.6698 H   0  0  0  0  0  0  0  0  0  0  0  0
   -3.7405    5.5002   -0.2073 H   0  0  0  0  0  0  0  0  0  0  0  0
   -5.3080    7.3946   -0.1745 H   0  0  0  0  0  0  0  0  0  0  0  0
   -2.9475    9.3179    2.8199 H   0  0  0  0  0  0  0  0  0  0  0  0
   -1.3746    7.4278    2.8079 H   0  0  0  0  0  0  0  0  0  0  0  0
   -0.0002    7.1544   -0.6721 H   0  0  0  0  0  0  0  0  0  0  0  0
    1.3511    9.2097   -0.6723 H   0  0  0  0  0  0  0  0  0  0  0  0
    2.7995    9.7352    1.2455 H   0  0  0  0  0  0  0  0  0  0  0  0
    2.8988    8.2146    3.1769 H   0  0  0  0  0  0  0  0  0  0  0  0
    1.5472    6.1596    3.2008 H   0  0  0  0  0  0  0  0  0  0  0  0
    1.9740    3.4680    3.2721 H   0  0  0  0  0  0  0  0  0  0  0  0
    3.4492    1.6238    4.2304 H   0  0  0  0  0  0  0  0  0  0  0  0
    5.7401    0.7247    4.2119 H   0  0  0  0  0  0  0  0  0  0  0  0
    7.2966    1.3527    2.4119 H   0  0  0  0  0  0  0  0  0  0  0  0
    6.5649    2.8740    0.6211 H   0  0  0  0  0  0  0  0  0  0  0  0
    4.2735    3.7718    0.6255 H   0  0  0  0  0  0  0  0  0  0  0  0
   -9.8161    1.9564    6.7942 O   0  5  0  0  0  0  0  0  0  0  0  0
  1  2  1  0  0  0  0
  1 43  1  0  0  0  0
  1 44  1  0  0  0  0
  1 45  1  0  0  0  0
  2  3  1  0  0  0  0
  2  4  1  0  0  0  0
  2 46  1  0  0  0  0
  3 47  1  0  0  0  0
  3 48  1  0  0  0  0
  3 49  1  0  0  0  0
  4  8  1  0  0  0  0
  4  5  2  0  0  0  0
  5  6  1  0  0  0  0
  5 34  1  0  0  0  0
  6  7  2  0  0  0  0
  6 28  1  0  0  0  0
  7  8  1  0  0  0  0
  7 21  1  0  0  0  0
  8  9  1  0  0  0  0
  9 10  1  0  0  0  0
  9 50  1  0  0  0  0
  9 51  1  0  0  0  0
 10 11  1  0  0  0  0
 10 52  1  0  0  0  0
 10 53  1  0  0  0  0
 11 12  1  0  0  0  0
 11 13  1  0  0  0  0
 11 20  1  0  0  0  0
 13 14  1  0  0  0  0
 13 54  1  0  0  0  0
 13 55  1  0  0  0  0
 14 15  1  0  0  0  0
 14 16  1  0  0  0  0
 14 19  1  0  0  0  0
 16 17  1  0  0  0  0
 16 56  1  0  0  0  0
 16 57  1  0  0  0  0
 17 18  2  0  0  0  0
 17 75  1  0  0  0  0
 19 58  1  0  0  0  0
 20 59  1  0  0  0  0
 21 26  2  0  0  0  0
 21 22  1  0  0  0  0
 22 23  2  0  0  0  0
 22 60  1  0  0  0  0
 23 24  1  0  0  0  0
 23 61  1  0  0  0  0
 24 25  2  0  0  0  0
 24 27  1  0  0  0  0
 25 26  1  0  0  0  0
 25 62  1  0  0  0  0
 26 63  1  0  0  0  0
 28 33  2  0  0  0  0
 28 29  1  0  0  0  0
 29 30  2  0  0  0  0
 29 64  1  0  0  0  0
 30 31  1  0  0  0  0
 30 65  1  0  0  0  0
 31 32  2  0  0  0  0
 31 66  1  0  0  0  0
 32 33  1  0  0  0  0
 32 67  1  0  0  0  0
 33 68  1  0  0  0  0
 34 35  2  0  0  0  0
 34 36  1  0  0  0  0
 36 37  1  0  0  0  0
 36 69  1  0  0  0  0
 37 42  2  0  0  0  0
 37 38  1  0  0  0  0
 38 39  2  0  0  0  0
 38 70  1  0  0  0  0
 39 40  1  0  0  0  0
 39 71  1  0  0  0  0
 40 41  2  0  0  0  0
 40 72  1  0  0  0  0
 41 42  1  0  0  0  0
 41 73  1  0  0  0  0
 42 74  1  0  0  0  0
M  CHG  1  75  -1
M  END
$$$$
ZINC04134472
  -OEChem-08230709403D

 65 66  0     1  0  0  0  0  0999 V2000
   -6.3852   -2.4666   -5.4168 C   0  0  0  0  0  0  0  0  0  0  0  0
   -5.3679   -1.3368   -5.2444 C   0  0  0  0  0  0  0  0  0  0  0  0
   -5.1399   -1.0789   -3.7537 C   0  0  1  0  0  0  0  0  0  0  0  0
   -6.0959   -0.8807   -3.2689 H   0  0  0  0  0  0  0  0  0  0  0  0
   -4.4904   -2.3091   -3.1167 C   0  0  0  0  0  0  0  0  0  0  0  0
   -4.2335    0.1129   -3.5829 C   0  0  0  0  0  0  0  0  0  0  0  0
   -3.8130    0.6961   -4.5539 O   0  0  0  0  0  0  0  0  0  0  0  0
   -3.8933    0.5264   -2.3521 O   0  0  0  0  0  0  0  0  0  0  0  0
   -3.0170    1.6808   -2.2633 C   0  0  1  0  0  0  0  0  0  0  0  0
   -2.3577    1.6913   -3.1311 H   0  0  0  0  0  0  0  0  0  0  0  0
   -3.8661    2.9503   -2.2685 C   0  0  0  0  0  0  0  0  0  0  0  0
   -4.7787    2.9264   -1.0346 C   0  0  1  0  0  0  0  0  0  0  0  0
   -5.4013    2.0319   -1.0518 H   0  0  0  0  0  0  0  0  0  0  0  0
   -3.8979    2.9119    0.1879 C   0  0  0  0  0  0  0  0  0  0  0  0
   -2.7202    2.3157    0.1709 C   0  0  0  0  0  0  0  0  0  0  0  0
   -2.1797    1.5671   -1.0112 C   0  0  2  0  0  0  0  0  0  0  0  0
   -2.1506    0.5104   -0.7455 H   0  0  0  0  0  0  0  0  0  0  0  0
   -0.7373    2.0219   -1.2452 C   0  0  1  0  0  0  0  0  0  0  0  0
   -0.7146    3.1008   -1.3992 H   0  0  0  0  0  0  0  0  0  0  0  0
    0.0965    1.6617   -0.0147 C   0  0  1  0  0  0  0  0  0  0  0  0
    1.0772    2.1298   -0.1001 H   0  0  0  0  0  0  0  0  0  0  0  0
   -0.5580    2.1257    1.2507 C   0  0  0  0  0  0  0  0  0  0  0  0
   -1.8403    2.4216    1.3578 C   0  0  0  0  0  0  0  0  0  0  0  0
    0.2721    0.1429    0.0421 C   0  0  0  0  0  0  0  0  0  0  0  0
   -0.1688    1.3127   -2.4759 C   0  0  0  0  0  0  0  0  0  0  0  0
    1.2551    1.8077   -2.7375 C   0  0  0  0  0  0  0  0  0  0  0  0
    1.8236    1.0984   -3.9682 C   0  0  2  0  0  0  0  0  0  0  0  0
    1.7573    0.0194   -3.8287 H   0  0  0  0  0  0  0  0  0  0  0  0
    3.2881    1.4992   -4.1567 C   0  0  0  0  0  0  0  0  0  0  0  0
    3.8920    0.6966   -5.3108 C   0  0  1  0  0  0  0  0  0  0  0  0
    3.2850    0.8341   -6.2057 H   0  0  0  0  0  0  0  0  0  0  0  0
    5.3167    1.1847   -5.5809 C   0  0  0  0  0  0  0  0  0  0  0  0
    5.8672    0.4809   -6.7944 C   0  0  0  0  0  0  0  0  0  0  0  0
    5.1897   -0.3281   -7.3828 O   0  0  0  0  0  0  0  0  0  0  0  0
    3.9211   -0.6892   -4.9634 O   0  0  0  0  0  0  0  0  0  0  0  0
    1.0737    1.4761   -5.1245 O   0  0  0  0  0  0  0  0  0  0  0  0
   -5.6058    4.0917   -1.0215 O   0  0  0  0  0  0  0  0  0  0  0  0
   -6.5476   -2.6503   -6.4789 H   0  0  0  0  0  0  0  0  0  0  0  0
   -6.0051   -3.3728   -4.9453 H   0  0  0  0  0  0  0  0  0  0  0  0
   -7.3276   -2.1815   -4.9492 H   0  0  0  0  0  0  0  0  0  0  0  0
   -5.7480   -0.4306   -5.7160 H   0  0  0  0  0  0  0  0  0  0  0  0
   -4.4255   -1.6219   -5.7121 H   0  0  0  0  0  0  0  0  0  0  0  0
   -4.3280   -2.1253   -2.0547 H   0  0  0  0  0  0  0  0  0  0  0  0
   -5.1460   -3.1711   -3.2403 H   0  0  0  0  0  0  0  0  0  0  0  0
   -3.5345   -2.5072   -3.6015 H   0  0  0  0  0  0  0  0  0  0  0  0
   -4.4729    2.9825   -3.1734 H   0  0  0  0  0  0  0  0  0  0  0  0
   -3.2184    3.8261   -2.2294 H   0  0  0  0  0  0  0  0  0  0  0  0
   -4.2355    3.3964    1.0922 H   0  0  0  0  0  0  0  0  0  0  0  0
    0.0578    2.2248    2.1323 H   0  0  0  0  0  0  0  0  0  0  0  0
   -2.2464    2.7393    2.3068 H   0  0  0  0  0  0  0  0  0  0  0  0
    0.7648   -0.2002   -0.8677 H   0  0  0  0  0  0  0  0  0  0  0  0
    0.8814   -0.1204    0.9067 H   0  0  0  0  0  0  0  0  0  0  0  0
   -0.7049   -0.3329    0.1276 H   0  0  0  0  0  0  0  0  0  0  0  0
   -0.1530    0.2370   -2.3004 H   0  0  0  0  0  0  0  0  0  0  0  0
   -0.7940    1.5304   -3.3419 H   0  0  0  0  0  0  0  0  0  0  0  0
    1.2393    2.8833   -2.9130 H   0  0  0  0  0  0  0  0  0  0  0  0
    1.8803    1.5899   -1.8715 H   0  0  0  0  0  0  0  0  0  0  0  0
    3.3470    2.5636   -4.3844 H   0  0  0  0  0  0  0  0  0  0  0  0
    3.8422    1.2923   -3.2412 H   0  0  0  0  0  0  0  0  0  0  0  0
    5.3047    2.2600   -5.7588 H   0  0  0  0  0  0  0  0  0  0  0  0
    5.9453    0.9662   -4.7177 H   0  0  0  0  0  0  0  0  0  0  0  0
    4.4444   -0.8859   -4.1744 H   0  0  0  0  0  0  0  0  0  0  0  0
    1.0882    2.4251   -5.3099 H   0  0  0  0  0  0  0  0  0  0  0  0
   -6.1891    4.1513   -0.2526 H   0  0  0  0  0  0  0  0  0  0  0  0
    7.1104    0.7527   -7.2215 O   0  5  0  0  0  0  0  0  0  0  0  0
  1  2  1  0  0  0  0
  1 38  1  0  0  0  0
  1 39  1  0  0  0  0
  1 40  1  0  0  0  0
  2  3  1  0  0  0  0
  2 41  1  0  0  0  0
  2 42  1  0  0  0  0
  3  4  1  0  0  0  0
  3  5  1  0  0  0  0
  3  6  1  0  0  0  0
  5 43  1  0  0  0  0
  5 44  1  0  0  0  0
  5 45  1  0  0  0  0
  6  7  2  0  0  0  0
  6  8  1  0  0  0  0
  8  9  1  0  0  0  0
  9 10  1  0  0  0  0
  9 16  1  0  0  0  0
  9 11  1  0  0  0  0
 11 12  1  0  0  0  0
 11 46  1  0  0  0  0
 11 47  1  0  0  0  0
 12 13  1  0  0  0  0
 12 14  1  0  0  0  0
 12 37  1  0  0  0  0
 14 15  2  0  0  0  0
 14 48  1  0  0  0  0
 15 23  1  0  0  0  0
 15 16  1  0  0  0  0
 16 17  1  0  0  0  0
 16 18  1  0  0  0  0
 18 19  1  0  0  0  0
 18 20  1  0  0  0  0
 18 25  1  0  0  0  0
 20 21  1  0  0  0  0
 20 22  1  0  0  0  0
 20 24  1  0  0  0  0
 22 23  2  0  0  0  0
 22 49  1  0  0  0  0
 23 50  1  0  0  0  0
 24 51  1  0  0  0  0
 24 52  1  0  0  0  0
 24 53  1  0  0  0  0
 25 26  1  0  0  0  0
 25 54  1  0  0  0  0
 25 55  1  0  0  0  0
 26 27  1  0  0  0  0
 26 56  1  0  0  0  0
 26 57  1  0  0  0  0
 27 28  1  0  0  0  0
 27 29  1  0  0  0  0
 27 36  1  0  0  0  0
 29 30  1  0  0  0  0
 29 58  1  0  0  0  0
 29 59  1  0  0  0  0
 30 31  1  0  0  0  0
 30 32  1  0  0  0  0
 30 35  1  0  0  0  0
 32 33  1  0  0  0  0
 32 60  1  0  0  0  0
 32 61  1  0  0  0  0
 33 34  2  0  0  0  0
 33 65  1  0  0  0  0
 35 62  1  0  0  0  0
 36 63  1  0  0  0  0
 37 64  1  0  0  0  0
M  CHG  1  65  -1
M  END
$$$$
ZINC04134473
  -OEChem-08230709403D

 67 68  0     1  0  0  0  0  0999 V2000
   -0.2124    1.0466    7.2024 C   0  0  0  0  0  0  0  0  0  0  0  0
   -0.5770    2.4376    7.7249 C   0  0  0  0  0  0  0  0  0  0  0  0
   -0.4075    3.4643    6.6033 C   0  0  2  0  0  0  0  0  0  0  0  0
   -0.9949    3.1573    5.7379 H   0  0  0  0  0  0  0  0  0  0  0  0
    1.0689    3.5531    6.2121 C   0  0  0  0  0  0  0  0  0  0  0  0
   -0.8828    4.8125    7.0804 C   0  0  0  0  0  0  0  0  0  0  0  0
   -1.3129    4.9391    8.2024 O   0  0  0  0  0  0  0  0  0  0  0  0
   -0.8282    5.8726    6.2589 O   0  0  0  0  0  0  0  0  0  0  0  0
   -1.3029    7.1398    6.7855 C   0  0  1  0  0  0  0  0  0  0  0  0
   -2.0978    6.9481    7.5063 H   0  0  0  0  0  0  0  0  0  0  0  0
   -0.1485    7.8442    7.4952 C   0  0  0  0  0  0  0  0  0  0  0  0
   -0.6559    9.1946    8.0204 C   0  0  2  0  0  0  0  0  0  0  0  0
   -1.5049    9.0373    8.6855 H   0  0  0  0  0  0  0  0  0  0  0  0
   -1.0836   10.0154    6.8308 C   0  0  0  0  0  0  0  0  0  0  0  0
   -1.6010    9.4393    5.7617 C   0  0  0  0  0  0  0  0  0  0  0  0
   -1.8582    7.9656    5.6507 C   0  0  1  0  0  0  0  0  0  0  0  0
   -2.9391    7.8249    5.6550 H   0  0  0  0  0  0  0  0  0  0  0  0
   -1.3470    7.4942    4.2879 C   0  0  2  0  0  0  0  0  0  0  0  0
   -0.2881    7.7330    4.1893 H   0  0  0  0  0  0  0  0  0  0  0  0
   -2.1391    8.2111    3.1931 C   0  0  2  0  0  0  0  0  0  0  0  0
   -1.6688    8.0169    2.2292 H   0  0  0  0  0  0  0  0  0  0  0  0
   -2.1891    9.6907    3.4229 C   0  0  0  0  0  0  0  0  0  0  0  0
   -1.9550   10.2701    4.5878 C   0  0  0  0  0  0  0  0  0  0  0  0
   -3.5668    7.6616    3.1692 C   0  0  0  0  0  0  0  0  0  0  0  0
   -1.5464    5.9826    4.1597 C   0  0  0  0  0  0  0  0  0  0  0  0
   -1.5093    5.5869    2.6822 C   0  0  0  0  0  0  0  0  0  0  0  0
   -1.7087    4.0754    2.5539 C   0  0  2  0  0  0  0  0  0  0  0  0
   -0.9660    3.5581    3.1612 H   0  0  0  0  0  0  0  0  0  0  0  0
   -1.5476    3.6622    1.0896 C   0  0  0  0  0  0  0  0  0  0  0  0
   -1.6230    2.1381    0.9785 C   0  0  2  0  0  0  0  0  0  0  0  0
   -0.8833    1.6885    1.6409 H   0  0  0  0  0  0  0  0  0  0  0  0
   -1.3381    1.7172   -0.4646 C   0  0  0  0  0  0  0  0  0  0  0  0
   -1.2909    0.2133   -0.5493 C   0  0  0  0  0  0  0  0  0  0  0  0
   -1.4671   -0.4534    0.4428 O   0  0  0  0  0  0  0  0  0  0  0  0
   -2.9293    1.6971    1.3542 O   0  0  0  0  0  0  0  0  0  0  0  0
   -3.0191    3.7278    3.0055 O   0  0  0  0  0  0  0  0  0  0  0  0
    0.4659    9.9137    8.7723 C   0  0  0  0  0  0  0  0  0  0  0  0
   -0.3331    0.3151    8.0015 H   0  0  0  0  0  0  0  0  0  0  0  0
   -0.8676    0.7876    6.3707 H   0  0  0  0  0  0  0  0  0  0  0  0
    0.8234    1.0460    6.8628 H   0  0  0  0  0  0  0  0  0  0  0  0
    0.0781    2.6965    8.5567 H   0  0  0  0  0  0  0  0  0  0  0  0
   -1.6128    2.4381    8.0645 H   0  0  0  0  0  0  0  0  0  0  0  0
    1.6563    3.8601    7.0775 H   0  0  0  0  0  0  0  0  0  0  0  0
    1.4127    2.5780    5.8670 H   0  0  0  0  0  0  0  0  0  0  0  0
    1.1897    4.2846    5.4130 H   0  0  0  0  0  0  0  0  0  0  0  0
    0.1981    7.2329    8.3284 H   0  0  0  0  0  0  0  0  0  0  0  0
    0.6695    8.0069    6.7934 H   0  0  0  0  0  0  0  0  0  0  0  0
   -0.9649   11.0886    6.8532 H   0  0  0  0  0  0  0  0  0  0  0  0
   -2.4323   10.3246    2.5830 H   0  0  0  0  0  0  0  0  0  0  0  0
   -2.0218   11.3439    4.6831 H   0  0  0  0  0  0  0  0  0  0  0  0
   -4.0386    7.8337    4.1366 H   0  0  0  0  0  0  0  0  0  0  0  0
   -4.1380    8.1678    2.3911 H   0  0  0  0  0  0  0  0  0  0  0  0
   -3.5408    6.5916    2.9629 H   0  0  0  0  0  0  0  0  0  0  0  0
   -2.5108    5.7059    4.5858 H   0  0  0  0  0  0  0  0  0  0  0  0
   -0.7506    5.4645    4.6947 H   0  0  0  0  0  0  0  0  0  0  0  0
   -0.5449    5.8636    2.2561 H   0  0  0  0  0  0  0  0  0  0  0  0
   -2.3051    6.1051    2.1471 H   0  0  0  0  0  0  0  0  0  0  0  0
   -0.5819    4.0061    0.7191 H   0  0  0  0  0  0  0  0  0  0  0  0
   -2.3448    4.1096    0.4960 H   0  0  0  0  0  0  0  0  0  0  0  0
   -0.3797    2.1291   -0.7808 H   0  0  0  0  0  0  0  0  0  0  0  0
   -2.1276    2.0932   -1.1154 H   0  0  0  0  0  0  0  0  0  0  0  0
   -3.6392    2.0587    0.8061 H   0  0  0  0  0  0  0  0  0  0  0  0
   -3.7319    4.1528    2.5090 H   0  0  0  0  0  0  0  0  0  0  0  0
    1.3056   10.0820    8.0980 H   0  0  0  0  0  0  0  0  0  0  0  0
    0.0996   10.8712    9.1425 H   0  0  0  0  0  0  0  0  0  0  0  0
    0.7917    9.3000    9.6122 H   0  0  0  0  0  0  0  0  0  0  0  0
   -1.0532   -0.3855   -1.7269 O   0  5  0  0  0  0  0  0  0  0  0  0
  1  2  1  0  0  0  0
  1 38  1  0  0  0  0
  1 39  1  0  0  0  0
  1 40  1  0  0  0  0
  2  3  1  0  0  0  0
  2 41  1  0  0  0  0
  2 42  1  0  0  0  0
  3  4  1  0  0  0  0
  3  5  1  0  0  0  0
  3  6  1  0  0  0  0
  5 43  1  0  0  0  0
  5 44  1  0  0  0  0
  5 45  1  0  0  0  0
  6  7  2  0  0  0  0
  6  8  1  0  0  0  0
  8  9  1  0  0  0  0
  9 10  1  0  0  0  0
  9 16  1  0  0  0  0
  9 11  1  0  0  0  0
 11 12  1  0  0  0  0
 11 46  1  0  0  0  0
 11 47  1  0  0  0  0
 12 13  1  0  0  0  0
 12 14  1  0  0  0  0
 12 37  1  0  0  0  0
 14 15  2  0  0  0  0
 14 48  1  0  0  0  0
 15 23  1  0  0  0  0
 15 16  1  0  0  0  0
 16 17  1  0  0  0  0
 16 18  1  0  0  0  0
 18 19  1  0  0  0  0
 18 20  1  0  0  0  0
 18 25  1  0  0  0  0
 20 21  1  0  0  0  0
 20 22  1  0  0  0  0
 20 24  1  0  0  0  0
 22 23  2  0  0  0  0
 22 49  1  0  0  0  0
 23 50  1  0  0  0  0
 24 51  1  0  0  0  0
 24 52  1  0  0  0  0
 24 53  1  0  0  0  0
 25 26  1  0  0  0  0
 25 54  1  0  0  0  0
 25 55  1  0  0  0  0
 26 27  1  0  0  0  0
 26 56  1  0  0  0  0
 26 57  1  0  0  0  0
 27 28  1  0  0  0  0
 27 29  1  0  0  0  0
 27 36  1  0  0  0  0
 29 30  1  0  0  0  0
 29 58  1  0  0  0  0
 29 59  1  0  0  0  0
 30 31  1  0  0  0  0
 30 32  1  0  0  0  0
 30 35  1  0  0  0  0
 32 33  1  0  0  0  0
 32 60  1  0  0  0  0
 32 61  1  0  0  0  0
 33 34  2  0  0  0  0
 33 67  1  0  0  0  0
 35 62  1  0  0  0  0
 36 63  1  0  0  0  0
 37 64  1  0  0  0  0
 37 65  1  0  0  0  0
 37 66  1  0  0  0  0
M  CHG  1  67  -1
M  END
$$$$
ZINC04134474
  -OEChem-08230709403D

 65 66  0     1  0  0  0  0  0999 V2000
    7.2336    6.6242   -0.8679 C   0  0  0  0  0  0  0  0  0  0  0  0
    6.0915    6.3733   -1.8546 C   0  0  0  0  0  0  0  0  0  0  0  0
    5.4115    5.0441   -1.5203 C   0  0  2  0  0  0  0  0  0  0  0  0
    5.0919    5.0514   -0.4782 H   0  0  0  0  0  0  0  0  0  0  0  0
    6.3983    3.8962   -1.7430 C   0  0  0  0  0  0  0  0  0  0  0  0
    4.2117    4.8553   -2.4124 C   0  0  0  0  0  0  0  0  0  0  0  0
    3.9294    5.6974   -3.2315 O   0  0  0  0  0  0  0  0  0  0  0  0
    3.4567    3.7515   -2.2970 O   0  0  0  0  0  0  0  0  0  0  0  0
    2.3166    3.6365   -3.1889 C   0  0  1  0  0  0  0  0  0  0  0  0
    1.9429    4.6296   -3.4380 H   0  0  0  0  0  0  0  0  0  0  0  0
    2.7376    2.9110   -4.4678 C   0  0  0  0  0  0  0  0  0  0  0  0
    3.0242    1.4625   -4.2135 C   0  0  0  0  0  0  0  0  0  0  0  0
    2.5874    0.7946   -3.1600 C   0  0  0  0  0  0  0  0  0  0  0  0
    1.7727    1.4877   -2.1353 C   0  0  0  0  0  0  0  0  0  0  0  0
    1.6189    0.9273   -0.9485 C   0  0  0  0  0  0  0  0  0  0  0  0
    0.8941    1.6465    0.1596 C   0  0  1  0  0  0  0  0  0  0  0  0
    1.2737    1.3141    1.1258 H   0  0  0  0  0  0  0  0  0  0  0  0
    1.1509    3.1502   -0.0107 C   0  0  1  0  0  0  0  0  0  0  0  0
    2.2230    3.3450    0.0167 H   0  0  0  0  0  0  0  0  0  0  0  0
    0.5832    3.5853   -1.3601 C   0  0  1  0  0  0  0  0  0  0  0  0
    0.7679    4.6510   -1.4957 H   0  0  0  0  0  0  0  0  0  0  0  0
    1.2107    2.8280   -2.5066 C   0  0  1  0  0  0  0  0  0  0  0  0
    0.4367    2.6634   -3.2563 H   0  0  0  0  0  0  0  0  0  0  0  0
   -0.9268    3.3389   -1.3678 C   0  0  0  0  0  0  0  0  0  0  0  0
   -1.5419    3.9806   -2.6131 C   0  0  0  0  0  0  0  0  0  0  0  0
   -3.0422    3.6833   -2.6518 C   0  0  2  0  0  0  0  0  0  0  0  0
   -3.2009    2.6064   -2.5943 H   0  0  0  0  0  0  0  0  0  0  0  0
   -3.6344    4.2170   -3.9577 C   0  0  0  0  0  0  0  0  0  0  0  0
   -5.1065    3.8112   -4.0536 C   0  0  2  0  0  0  0  0  0  0  0  0
   -5.1930    2.7299   -3.9471 H   0  0  0  0  0  0  0  0  0  0  0  0
   -5.6652    4.2361   -5.4131 C   0  0  0  0  0  0  0  0  0  0  0  0
   -7.0771    3.7292   -5.5566 C   0  0  0  0  0  0  0  0  0  0  0  0
   -7.5844    3.0934   -4.6632 O   0  0  0  0  0  0  0  0  0  0  0  0
   -5.8462    4.4530   -3.0129 O   0  0  0  0  0  0  0  0  0  0  0  0
   -3.6825    4.3189   -1.5436 O   0  0  0  0  0  0  0  0  0  0  0  0
    0.4580    3.9221    1.1140 C   0  0  0  0  0  0  0  0  0  0  0  0
   -0.5075    1.3818    0.0731 O   0  0  0  0  0  0  0  0  0  0  0  0
    6.8356    6.6646    0.1460 H   0  0  0  0  0  0  0  0  0  0  0  0
    7.9609    5.8156   -0.9408 H   0  0  0  0  0  0  0  0  0  0  0  0
    7.7180    7.5712   -1.1060 H   0  0  0  0  0  0  0  0  0  0  0  0
    6.4895    6.3329   -2.8685 H   0  0  0  0  0  0  0  0  0  0  0  0
    5.3642    7.1819   -1.7817 H   0  0  0  0  0  0  0  0  0  0  0  0
    5.9139    2.9493   -1.5049 H   0  0  0  0  0  0  0  0  0  0  0  0
    6.7179    3.8889   -2.7851 H   0  0  0  0  0  0  0  0  0  0  0  0
    7.2662    4.0328   -1.0978 H   0  0  0  0  0  0  0  0  0  0  0  0
    3.6335    3.3859   -4.8678 H   0  0  0  0  0  0  0  0  0  0  0  0
    1.9352    2.9914   -5.2012 H   0  0  0  0  0  0  0  0  0  0  0  0
    3.6256    0.9311   -4.9362 H   0  0  0  0  0  0  0  0  0  0  0  0
    2.8241   -0.2531   -3.0465 H   0  0  0  0  0  0  0  0  0  0  0  0
    2.0186   -0.0599   -0.7693 H   0  0  0  0  0  0  0  0  0  0  0  0
   -1.1199    2.2662   -1.3787 H   0  0  0  0  0  0  0  0  0  0  0  0
   -1.3713    3.7790   -0.4751 H   0  0  0  0  0  0  0  0  0  0  0  0
   -1.3859    5.0589   -2.5810 H   0  0  0  0  0  0  0  0  0  0  0  0
   -1.0673    3.5712   -3.5049 H   0  0  0  0  0  0  0  0  0  0  0  0
   -3.5553    5.3040   -3.9750 H   0  0  0  0  0  0  0  0  0  0  0  0
   -3.0867    3.7993   -4.8025 H   0  0  0  0  0  0  0  0  0  0  0  0
   -5.6607    5.3238   -5.4839 H   0  0  0  0  0  0  0  0  0  0  0  0
   -5.0465    3.8178   -6.2070 H   0  0  0  0  0  0  0  0  0  0  0  0
   -5.8138    5.4189   -3.0455 H   0  0  0  0  0  0  0  0  0  0  0  0
   -3.5824    5.2806   -1.5303 H   0  0  0  0  0  0  0  0  0  0  0  0
    0.9350    3.6850    2.0650 H   0  0  0  0  0  0  0  0  0  0  0  0
    0.5390    4.9923    0.9237 H   0  0  0  0  0  0  0  0  0  0  0  0
   -0.5938    3.6389    1.1546 H   0  0  0  0  0  0  0  0  0  0  0  0
   -0.7373    0.4466    0.1602 H   0  0  0  0  0  0  0  0  0  0  0  0
   -7.7711    3.9841   -6.6769 O   0  5  0  0  0  0  0  0  0  0  0  0
  1  2  1  0  0  0  0
  1 38  1  0  0  0  0
  1 39  1  0  0  0  0
  1 40  1  0  0  0  0
  2  3  1  0  0  0  0
  2 41  1  0  0  0  0
  2 42  1  0  0  0  0
  3  4  1  0  0  0  0
  3  5  1  0  0  0  0
  3  6  1  0  0  0  0
  5 43  1  0  0  0  0
  5 44  1  0  0  0  0
  5 45  1  0  0  0  0
  6  7  2  0  0  0  0
  6  8  1  0  0  0  0
  8  9  1  0  0  0  0
  9 10  1  0  0  0  0
  9 22  1  0  0  0  0
  9 11  1  0  0  0  0
 11 12  1  0  0  0  0
 11 46  1  0  0  0  0
 11 47  1  0  0  0  0
 12 13  2  0  0  0  0
 12 48  1  0  0  0  0
 13 14  1  0  0  0  0
 13 49  1  0  0  0  0
 14 22  1  0  0  0  0
 14 15  2  0  0  0  0
 15 16  1  0  0  0  0
 15 50  1  0  0  0  0
 16 17  1  0  0  0  0
 16 18  1  0  0  0  0
 16 37  1  0  0  0  0
 18 19  1  0  0  0  0
 18 20  1  0  0  0  0
 18 36  1  0  0  0  0
 20 21  1  0  0  0  0
 20 22  1  0  0  0  0
 20 24  1  0  0  0  0
 22 23  1  0  0  0  0
 24 25  1  0  0  0  0
 24 51  1  0  0  0  0
 24 52  1  0  0  0  0
 25 26  1  0  0  0  0
 25 53  1  0  0  0  0
 25 54  1  0  0  0  0
 26 27  1  0  0  0  0
 26 28  1  0  0  0  0
 26 35  1  0  0  0  0
 28 29  1  0  0  0  0
 28 55  1  0  0  0  0
 28 56  1  0  0  0  0
 29 30  1  0  0  0  0
 29 31  1  0  0  0  0
 29 34  1  0  0  0  0
 31 32  1  0  0  0  0
 31 57  1  0  0  0  0
 31 58  1  0  0  0  0
 32 33  2  0  0  0  0
 32 65  1  0  0  0  0
 34 59  1  0  0  0  0
 35 60  1  0  0  0  0
 36 61  1  0  0  0  0
 36 62  1  0  0  0  0
 36 63  1  0  0  0  0
 37 64  1  0  0  0  0
M  CHG  1  65  -1
M  END
$$$$
ZINC04134475
  -OEChem-08230709403D

 65 66  0     1  0  0  0  0  0999 V2000
    2.2668    1.7964    7.2173 C   0  0  0  0  0  0  0  0  0  0  0  0
    2.9470    1.7602    5.8474 C   0  0  0  0  0  0  0  0  0  0  0  0
    1.8844    1.6394    4.7533 C   0  0  2  0  0  0  0  0  0  0  0  0
    1.1613    2.4483    4.8583 H   0  0  0  0  0  0  0  0  0  0  0  0
    1.1675    0.2942    4.8849 C   0  0  0  0  0  0  0  0  0  0  0  0
    2.5435    1.7273    3.4009 C   0  0  0  0  0  0  0  0  0  0  0  0
    3.7404    1.8716    3.3204 O   0  0  0  0  0  0  0  0  0  0  0  0
    1.8009    1.6451    2.2858 O   0  0  0  0  0  0  0  0  0  0  0  0
    2.5028    1.7375    1.0181 C   0  0  1  0  0  0  0  0  0  0  0  0
    3.3863    2.3652    1.1341 H   0  0  0  0  0  0  0  0  0  0  0  0
    2.9228    0.3395    0.5608 C   0  0  0  0  0  0  0  0  0  0  0  0
    1.7441   -0.4858    0.1439 C   0  0  0  0  0  0  0  0  0  0  0  0
    0.5652    0.0148   -0.1837 C   0  0  0  0  0  0  0  0  0  0  0  0
    0.3509    1.4794   -0.1319 C   0  0  0  0  0  0  0  0  0  0  0  0
   -0.8800    1.9555   -0.1633 C   0  0  0  0  0  0  0  0  0  0  0  0
   -1.1390    3.4362   -0.0546 C   0  0  2  0  0  0  0  0  0  0  0  0
   -1.0805    3.8971   -1.0407 H   0  0  0  0  0  0  0  0  0  0  0  0
   -0.0598    4.0293    0.8623 C   0  0  1  0  0  0  0  0  0  0  0  0
   -0.0888    3.5332    1.8324 H   0  0  0  0  0  0  0  0  0  0  0  0
    1.3024    3.8038    0.2096 C   0  0  1  0  0  0  0  0  0  0  0  0
    2.0777    4.2029    0.8637 H   0  0  0  0  0  0  0  0  0  0  0  0
    1.5758    2.3404   -0.0392 C   0  0  1  0  0  0  0  0  0  0  0  0
    2.0922    2.2721   -0.9967 H   0  0  0  0  0  0  0  0  0  0  0  0
    1.3445    4.5515   -1.1246 C   0  0  0  0  0  0  0  0  0  0  0  0
    2.7675    4.5139   -1.6856 C   0  0  0  0  0  0  0  0  0  0  0  0
    2.8405    5.3738   -2.9489 C   0  0  2  0  0  0  0  0  0  0  0  0
    2.0841    5.0405   -3.6596 H   0  0  0  0  0  0  0  0  0  0  0  0
    4.2279    5.2374   -3.5793 C   0  0  0  0  0  0  0  0  0  0  0  0
    4.2617    5.9966   -4.9072 C   0  0  2  0  0  0  0  0  0  0  0  0
    3.4557    5.6415   -5.5494 H   0  0  0  0  0  0  0  0  0  0  0  0
    5.6062    5.7579   -5.5971 C   0  0  0  0  0  0  0  0  0  0  0  0
    5.5939    6.4037   -6.9587 C   0  0  0  0  0  0  0  0  0  0  0  0
    4.6106    6.9944   -7.3382 O   0  0  0  0  0  0  0  0  0  0  0  0
    4.0941    7.3943   -4.6611 O   0  0  0  0  0  0  0  0  0  0  0  0
    2.6044    6.7415   -2.6085 O   0  0  0  0  0  0  0  0  0  0  0  0
   -0.3033    5.5291    1.0421 C   0  0  0  0  0  0  0  0  0  0  0  0
   -2.4321    3.6608    0.5105 O   0  0  0  0  0  0  0  0  0  0  0  0
    1.5952    2.6534    7.2670 H   0  0  0  0  0  0  0  0  0  0  0  0
    1.6967    0.8790    7.3642 H   0  0  0  0  0  0  0  0  0  0  0  0
    3.0239    1.8824    7.9968 H   0  0  0  0  0  0  0  0  0  0  0  0
    3.6187    0.9031    5.7977 H   0  0  0  0  0  0  0  0  0  0  0  0
    3.5171    2.6775    5.7005 H   0  0  0  0  0  0  0  0  0  0  0  0
    1.8906   -0.5146    4.7799 H   0  0  0  0  0  0  0  0  0  0  0  0
    0.6908    0.2307    5.8630 H   0  0  0  0  0  0  0  0  0  0  0  0
    0.4104    0.2082    4.1054 H   0  0  0  0  0  0  0  0  0  0  0  0
    3.4363   -0.1630    1.3805 H   0  0  0  0  0  0  0  0  0  0  0  0
    3.6077    0.4322   -0.2821 H   0  0  0  0  0  0  0  0  0  0  0  0
    1.8653   -1.5583    0.1083 H   0  0  0  0  0  0  0  0  0  0  0  0
   -0.2374   -0.6408   -0.4879 H   0  0  0  0  0  0  0  0  0  0  0  0
   -1.7120    1.2754   -0.2706 H   0  0  0  0  0  0  0  0  0  0  0  0
    0.6633    4.0753   -1.8296 H   0  0  0  0  0  0  0  0  0  0  0  0
    1.0421    5.5873   -0.9703 H   0  0  0  0  0  0  0  0  0  0  0  0
    3.4620    4.9026   -0.9409 H   0  0  0  0  0  0  0  0  0  0  0  0
    3.0346    3.4858   -1.9300 H   0  0  0  0  0  0  0  0  0  0  0  0
    4.9761    5.6526   -2.9042 H   0  0  0  0  0  0  0  0  0  0  0  0
    4.4440    4.1840   -3.7575 H   0  0  0  0  0  0  0  0  0  0  0  0
    6.4052    6.1923   -4.9962 H   0  0  0  0  0  0  0  0  0  0  0  0
    5.7742    4.6863   -5.7048 H   0  0  0  0  0  0  0  0  0  0  0  0
    4.7774    7.7787   -4.0952 H   0  0  0  0  0  0  0  0  0  0  0  0
    3.2412    7.1055   -1.9784 H   0  0  0  0  0  0  0  0  0  0  0  0
   -0.3923    6.0025    0.0643 H   0  0  0  0  0  0  0  0  0  0  0  0
   -1.2238    5.6828    1.6053 H   0  0  0  0  0  0  0  0  0  0  0  0
    0.5326    5.9705    1.5847 H   0  0  0  0  0  0  0  0  0  0  0  0
   -3.1599    3.3098   -0.0207 H   0  0  0  0  0  0  0  0  0  0  0  0
    6.6753    6.3229   -7.7497 O   0  5  0  0  0  0  0  0  0  0  0  0
  1  2  1  0  0  0  0
  1 38  1  0  0  0  0
  1 39  1  0  0  0  0
  1 40  1  0  0  0  0
  2  3  1  0  0  0  0
  2 41  1  0  0  0  0
  2 42  1  0  0  0  0
  3  4  1  0  0  0  0
  3  5  1  0  0  0  0
  3  6  1  0  0  0  0
  5 43  1  0  0  0  0
  5 44  1  0  0  0  0
  5 45  1  0  0  0  0
  6  7  2  0  0  0  0
  6  8  1  0  0  0  0
  8  9  1  0  0  0  0
  9 10  1  0  0  0  0
  9 22  1  0  0  0  0
  9 11  1  0  0  0  0
 11 12  1  0  0  0  0
 11 46  1  0  0  0  0
 11 47  1  0  0  0  0
 12 13  2  0  0  0  0
 12 48  1  0  0  0  0
 13 14  1  0  0  0  0
 13 49  1  0  0  0  0
 14 22  1  0  0  0  0
 14 15  2  0  0  0  0
 15 16  1  0  0  0  0
 15 50  1  0  0  0  0
 16 17  1  0  0  0  0
 16 18  1  0  0  0  0
 16 37  1  0  0  0  0
 18 19  1  0  0  0  0
 18 20  1  0  0  0  0
 18 36  1  0  0  0  0
 20 21  1  0  0  0  0
 20 22  1  0  0  0  0
 20 24  1  0  0  0  0
 22 23  1  0  0  0  0
 24 25  1  0  0  0  0
 24 51  1  0  0  0  0
 24 52  1  0  0  0  0
 25 26  1  0  0  0  0
 25 53  1  0  0  0  0
 25 54  1  0  0  0  0
 26 27  1  0  0  0  0
 26 28  1  0  0  0  0
 26 35  1  0  0  0  0
 28 29  1  0  0  0  0
 28 55  1  0  0  0  0
 28 56  1  0  0  0  0
 29 30  1  0  0  0  0
 29 31  1  0  0  0  0
 29 34  1  0  0  0  0
 31 32  1  0  0  0  0
 31 57  1  0  0  0  0
 31 58  1  0  0  0  0
 32 33  2  0  0  0  0
 32 65  1  0  0  0  0
 34 59  1  0  0  0  0
 35 60  1  0  0  0  0
 36 61  1  0  0  0  0
 36 62  1  0  0  0  0
 36 63  1  0  0  0  0
 37 64  1  0  0  0  0
M  CHG  1  65  -1
M  END
$$$$
ZINC04134476
  -OEChem-08230709403D

 76 77  0     1  0  0  0  0  0999 V2000
   -3.6189   -0.8006   -2.5634 C   0  0  0  0  0  0  0  0  0  0  0  0
   -2.9651    0.3679   -3.3038 C   0  0  0  0  0  0  0  0  0  0  0  0
   -1.4462    0.2917   -3.1366 C   0  0  0  0  0  0  0  0  0  0  0  0
   -0.7896    1.4344   -3.9139 C   0  0  0  0  0  0  0  0  0  0  0  0
    0.7293    1.3582   -3.7467 C   0  0  0  0  0  0  0  0  0  0  0  0
   -0.9404   -1.0481   -3.6751 C   0  0  0  0  0  0  0  0  0  0  0  0
   -1.2970   -1.1691   -5.1581 C   0  0  0  0  0  0  0  0  0  0  0  0
   -1.0950    0.4108   -1.6760 C   0  0  0  0  0  0  0  0  0  0  0  0
   -0.6596   -0.5454   -1.0794 O   0  0  0  0  0  0  0  0  0  0  0  0
   -1.2658    1.5793   -1.0377 O   0  0  0  0  0  0  0  0  0  0  0  0
   -0.9666    1.6043    0.3829 C   0  0  1  0  0  0  0  0  0  0  0  0
   -1.2628    0.6527    0.8243 H   0  0  0  0  0  0  0  0  0  0  0  0
    0.5373    1.7927    0.5708 C   0  0  0  0  0  0  0  0  0  0  0  0
    0.8351    1.8318    2.0761 C   0  0  1  0  0  0  0  0  0  0  0  0
    1.9068    1.9475    2.2377 H   0  0  0  0  0  0  0  0  0  0  0  0
    0.1006    3.0113    2.6591 C   0  0  0  0  0  0  0  0  0  0  0  0
   -1.0544    3.4088    2.1584 C   0  0  0  0  0  0  0  0  0  0  0  0
   -1.7594    2.7147    1.0310 C   0  0  1  0  0  0  0  0  0  0  0  0
   -2.6720    2.2762    1.4347 H   0  0  0  0  0  0  0  0  0  0  0  0
   -2.1945    3.7741    0.0159 C   0  0  2  0  0  0  0  0  0  0  0  0
   -1.3228    4.3310   -0.3278 H   0  0  0  0  0  0  0  0  0  0  0  0
   -3.1785    4.7285    0.6944 C   0  0  2  0  0  0  0  0  0  0  0  0
   -3.3609    5.5781    0.0364 H   0  0  0  0  0  0  0  0  0  0  0  0
   -2.6489    5.2305    2.0030 C   0  0  0  0  0  0  0  0  0  0  0  0
   -1.6864    4.6389    2.6891 C   0  0  0  0  0  0  0  0  0  0  0  0
   -4.4983    3.9942    0.9386 C   0  0  0  0  0  0  0  0  0  0  0  0
   -2.8757    3.0953   -1.1742 C   0  0  0  0  0  0  0  0  0  0  0  0
   -3.7790    4.1033   -1.8876 C   0  0  0  0  0  0  0  0  0  0  0  0
   -4.4315    3.4349   -3.0995 C   0  0  2  0  0  0  0  0  0  0  0  0
   -3.6584    3.0134   -3.7419 H   0  0  0  0  0  0  0  0  0  0  0  0
   -5.2355    4.4740   -3.8835 C   0  0  0  0  0  0  0  0  0  0  0  0
   -5.7849    3.8359   -5.1610 C   0  0  2  0  0  0  0  0  0  0  0  0
   -4.9646    3.4003   -5.7314 H   0  0  0  0  0  0  0  0  0  0  0  0
   -6.4825    4.9041   -6.0054 C   0  0  0  0  0  0  0  0  0  0  0  0
   -6.9157    4.3033   -7.3178 C   0  0  0  0  0  0  0  0  0  0  0  0
   -6.6896    3.1400   -7.5536 O   0  0  0  0  0  0  0  0  0  0  0  0
   -6.7220    2.8132   -4.8176 O   0  0  0  0  0  0  0  0  0  0  0  0
   -5.3034    2.3929   -2.6567 O   0  0  0  0  0  0  0  0  0  0  0  0
    0.3470    0.5400    2.7348 C   0  0  0  0  0  0  0  0  0  0  0  0
   -3.3668   -0.7464   -1.5044 H   0  0  0  0  0  0  0  0  0  0  0  0
   -4.7011   -0.7463   -2.6825 H   0  0  0  0  0  0  0  0  0  0  0  0
   -3.2548   -1.7415   -2.9760 H   0  0  0  0  0  0  0  0  0  0  0  0
   -3.3293    1.3088   -2.8913 H   0  0  0  0  0  0  0  0  0  0  0  0
   -3.2173    0.3137   -4.3628 H   0  0  0  0  0  0  0  0  0  0  0  0
   -1.0437    1.3482   -4.9703 H   0  0  0  0  0  0  0  0  0  0  0  0
   -1.1499    2.3889   -3.5302 H   0  0  0  0  0  0  0  0  0  0  0  0
    0.9833    1.4443   -2.6902 H   0  0  0  0  0  0  0  0  0  0  0  0
    1.0896    0.4037   -4.1304 H   0  0  0  0  0  0  0  0  0  0  0  0
    1.1971    2.1722   -4.3004 H   0  0  0  0  0  0  0  0  0  0  0  0
    0.1417   -1.1024   -3.5560 H   0  0  0  0  0  0  0  0  0  0  0  0
   -1.4082   -1.8622   -3.1214 H   0  0  0  0  0  0  0  0  0  0  0  0
   -2.3791   -1.1148   -5.2772 H   0  0  0  0  0  0  0  0  0  0  0  0
   -0.8292   -0.3550   -5.7118 H   0  0  0  0  0  0  0  0  0  0  0  0
   -0.9367   -2.1236   -5.5417 H   0  0  0  0  0  0  0  0  0  0  0  0
    1.0718    0.9607    0.1122 H   0  0  0  0  0  0  0  0  0  0  0  0
    0.8506    2.7292    0.1094 H   0  0  0  0  0  0  0  0  0  0  0  0
    0.5259    3.5399    3.4994 H   0  0  0  0  0  0  0  0  0  0  0  0
   -3.0807    6.1323    2.4114 H   0  0  0  0  0  0  0  0  0  0  0  0
   -1.3621    5.0507    3.6333 H   0  0  0  0  0  0  0  0  0  0  0  0
   -4.3208    3.1319    1.5813 H   0  0  0  0  0  0  0  0  0  0  0  0
   -5.2051    4.6685    1.4223 H   0  0  0  0  0  0  0  0  0  0  0  0
   -4.9093    3.6591   -0.0137 H   0  0  0  0  0  0  0  0  0  0  0  0
   -2.1177    2.7320   -1.8680 H   0  0  0  0  0  0  0  0  0  0  0  0
   -3.4756    2.2571   -0.8198 H   0  0  0  0  0  0  0  0  0  0  0  0
   -4.5532    4.4467   -1.2015 H   0  0  0  0  0  0  0  0  0  0  0  0
   -3.1836    4.9541   -2.2187 H   0  0  0  0  0  0  0  0  0  0  0  0
   -6.0633    4.8309   -3.2707 H   0  0  0  0  0  0  0  0  0  0  0  0
   -4.5893    5.3119   -4.1449 H   0  0  0  0  0  0  0  0  0  0  0  0
   -7.3561    5.2769   -5.4705 H   0  0  0  0  0  0  0  0  0  0  0  0
   -5.7927    5.7270   -6.1926 H   0  0  0  0  0  0  0  0  0  0  0  0
   -7.4804    3.1296   -4.3078 H   0  0  0  0  0  0  0  0  0  0  0  0
   -6.0173    2.6962   -2.0794 H   0  0  0  0  0  0  0  0  0  0  0  0
    0.8597   -0.3118    2.2881 H   0  0  0  0  0  0  0  0  0  0  0  0
    0.5610    0.5736    3.8031 H   0  0  0  0  0  0  0  0  0  0  0  0
   -0.7275    0.4381    2.5825 H   0  0  0  0  0  0  0  0  0  0  0  0
   -7.5526    5.0605   -8.2249 O   0  5  0  0  0  0  0  0  0  0  0  0
  1  2  1  0  0  0  0
  1 40  1  0  0  0  0
  1 41  1  0  0  0  0
  1 42  1  0  0  0  0
  2  3  1  0  0  0  0
  2 43  1  0  0  0  0
  2 44  1  0  0  0  0
  3  4  1  0  0  0  0
  3  6  1  0  0  0  0
  3  8  1  0  0  0  0
  4  5  1  0  0  0  0
  4 45  1  0  0  0  0
  4 46  1  0  0  0  0
  5 47  1  0  0  0  0
  5 48  1  0  0  0  0
  5 49  1  0  0  0  0
  6  7  1  0  0  0  0
  6 50  1  0  0  0  0
  6 51  1  0  0  0  0
  7 52  1  0  0  0  0
  7 53  1  0  0  0  0
  7 54  1  0  0  0  0
  8  9  2  0  0  0  0
  8 10  1  0  0  0  0
 10 11  1  0  0  0  0
 11 12  1  0  0  0  0
 11 18  1  0  0  0  0
 11 13  1  0  0  0  0
 13 14  1  0  0  0  0
 13 55  1  0  0  0  0
 13 56  1  0  0  0  0
 14 15  1  0  0  0  0
 14 16  1  0  0  0  0
 14 39  1  0  0  0  0
 16 17  2  0  0  0  0
 16 57  1  0  0  0  0
 17 25  1  0  0  0  0
 17 18  1  0  0  0  0
 18 19  1  0  0  0  0
 18 20  1  0  0  0  0
 20 21  1  0  0  0  0
 20 22  1  0  0  0  0
 20 27  1  0  0  0  0
 22 23  1  0  0  0  0
 22 24  1  0  0  0  0
 22 26  1  0  0  0  0
 24 25  2  0  0  0  0
 24 58  1  0  0  0  0
 25 59  1  0  0  0  0
 26 60  1  0  0  0  0
 26 61  1  0  0  0  0
 26 62  1  0  0  0  0
 27 28  1  0  0  0  0
 27 63  1  0  0  0  0
 27 64  1  0  0  0  0
 28 29  1  0  0  0  0
 28 65  1  0  0  0  0
 28 66  1  0  0  0  0
 29 30  1  0  0  0  0
 29 31  1  0  0  0  0
 29 38  1  0  0  0  0
 31 32  1  0  0  0  0
 31 67  1  0  0  0  0
 31 68  1  0  0  0  0
 32 33  1  0  0  0  0
 32 34  1  0  0  0  0
 32 37  1  0  0  0  0
 34 35  1  0  0  0  0
 34 69  1  0  0  0  0
 34 70  1  0  0  0  0
 35 36  2  0  0  0  0
 35 76  1  0  0  0  0
 37 71  1  0  0  0  0
 38 72  1  0  0  0  0
 39 73  1  0  0  0  0
 39 74  1  0  0  0  0
 39 75  1  0  0  0  0
M  CHG  1  76  -1
M  END
$$$$
ZINC04134477
  -OEChem-08230709403D

 64 65  0     1  0  0  0  0  0999 V2000
   -2.6294    6.7992    1.0199 C   0  0  0  0  0  0  0  0  0  0  0  0
   -2.5603    6.3471   -0.4402 C   0  0  0  0  0  0  0  0  0  0  0  0
   -1.6372    5.1323   -0.5547 C   0  0  2  0  0  0  0  0  0  0  0  0
   -1.9773    4.3521    0.1263 H   0  0  0  0  0  0  0  0  0  0  0  0
   -0.2088    5.5410   -0.1894 C   0  0  0  0  0  0  0  0  0  0  0  0
   -1.6648    4.6120   -1.9687 C   0  0  0  0  0  0  0  0  0  0  0  0
   -2.3522    5.1569   -2.7997 O   0  0  0  0  0  0  0  0  0  0  0  0
   -0.9257    3.5432   -2.3051 O   0  0  0  0  0  0  0  0  0  0  0  0
   -1.0014    3.0973   -3.6849 C   0  0  1  0  0  0  0  0  0  0  0  0
   -1.9958    3.3173   -4.0731 H   0  0  0  0  0  0  0  0  0  0  0  0
    0.0080    3.8747   -4.4883 C   0  0  0  0  0  0  0  0  0  0  0  0
   -0.0613    3.3938   -5.9443 C   0  0  0  0  0  0  0  0  0  0  0  0
    0.2871    1.9279   -5.9608 C   0  0  0  0  0  0  0  0  0  0  0  0
   -0.0204    1.1439   -4.9441 C   0  0  0  0  0  0  0  0  0  0  0  0
   -0.7745    1.6047   -3.7322 C   0  0  1  0  0  0  0  0  0  0  0  0
   -1.7520    1.1227   -3.7507 H   0  0  0  0  0  0  0  0  0  0  0  0
   -0.0366    1.0992   -2.4903 C   0  0  2  0  0  0  0  0  0  0  0  0
    0.9881    1.4709   -2.4974 H   0  0  0  0  0  0  0  0  0  0  0  0
   -0.0312   -0.4301   -2.5114 C   0  0  2  0  0  0  0  0  0  0  0  0
    0.6322   -0.7943   -1.7269 H   0  0  0  0  0  0  0  0  0  0  0  0
    0.4343   -0.9636   -3.8319 C   0  0  0  0  0  0  0  0  0  0  0  0
    0.4397   -0.2641   -4.9533 C   0  0  0  0  0  0  0  0  0  0  0  0
   -1.4486   -0.9381   -2.2395 C   0  0  0  0  0  0  0  0  0  0  0  0
   -0.7527    1.5927   -1.2315 C   0  0  0  0  0  0  0  0  0  0  0  0
   -0.3412    0.7277   -0.0385 C   0  0  0  0  0  0  0  0  0  0  0  0
   -1.0573    1.2211    1.2203 C   0  0  2  0  0  0  0  0  0  0  0  0
   -0.8532    2.2824    1.3620 H   0  0  0  0  0  0  0  0  0  0  0  0
   -0.5527    0.4382    2.4342 C   0  0  0  0  0  0  0  0  0  0  0  0
   -1.1752    1.0145    3.7075 C   0  0  2  0  0  0  0  0  0  0  0  0
   -0.9670    2.0830    3.7622 H   0  0  0  0  0  0  0  0  0  0  0  0
   -0.5766    0.3150    4.9295 C   0  0  0  0  0  0  0  0  0  0  0  0
   -1.0972    0.9650    6.1855 C   0  0  0  0  0  0  0  0  0  0  0  0
   -1.8679    1.8925    6.1109 O   0  0  0  0  0  0  0  0  0  0  0  0
   -2.5886    0.8052    3.6835 O   0  0  0  0  0  0  0  0  0  0  0  0
   -2.4650    1.0218    1.0766 O   0  0  0  0  0  0  0  0  0  0  0  0
   -3.0196    5.9873    1.6336 H   0  0  0  0  0  0  0  0  0  0  0  0
   -1.6309    7.0678    1.3647 H   0  0  0  0  0  0  0  0  0  0  0  0
   -3.2871    7.6647    1.1015 H   0  0  0  0  0  0  0  0  0  0  0  0
   -2.1701    7.1590   -1.0539 H   0  0  0  0  0  0  0  0  0  0  0  0
   -3.5588    6.0785   -0.7850 H   0  0  0  0  0  0  0  0  0  0  0  0
   -0.1888    5.9173    0.8334 H   0  0  0  0  0  0  0  0  0  0  0  0
    0.4489    4.6755   -0.2710 H   0  0  0  0  0  0  0  0  0  0  0  0
    0.1313    6.3212   -0.8704 H   0  0  0  0  0  0  0  0  0  0  0  0
    1.0059    3.6937   -4.0888 H   0  0  0  0  0  0  0  0  0  0  0  0
   -0.2182    4.9400   -4.4423 H   0  0  0  0  0  0  0  0  0  0  0  0
    0.6530    3.9500   -6.5513 H   0  0  0  0  0  0  0  0  0  0  0  0
   -1.0692    3.5382   -6.3333 H   0  0  0  0  0  0  0  0  0  0  0  0
    0.7966    1.5122   -6.8176 H   0  0  0  0  0  0  0  0  0  0  0  0
    0.7875   -1.9835   -3.8697 H   0  0  0  0  0  0  0  0  0  0  0  0
    0.7787   -0.7174   -5.8731 H   0  0  0  0  0  0  0  0  0  0  0  0
   -2.1230   -0.5626   -3.0091 H   0  0  0  0  0  0  0  0  0  0  0  0
   -1.4528   -2.0280   -2.2529 H   0  0  0  0  0  0  0  0  0  0  0  0
   -1.7798   -0.5855   -1.2627 H   0  0  0  0  0  0  0  0  0  0  0  0
   -1.8308    1.5231   -1.3760 H   0  0  0  0  0  0  0  0  0  0  0  0
   -0.4779    2.6300   -1.0402 H   0  0  0  0  0  0  0  0  0  0  0  0
   -0.6159   -0.3096   -0.2298 H   0  0  0  0  0  0  0  0  0  0  0  0
    0.7370    0.7972    0.1060 H   0  0  0  0  0  0  0  0  0  0  0  0
   -0.8352   -0.6097    2.3337 H   0  0  0  0  0  0  0  0  0  0  0  0
    0.5329    0.5179    2.4922 H   0  0  0  0  0  0  0  0  0  0  0  0
   -0.8601   -0.7375    4.9207 H   0  0  0  0  0  0  0  0  0  0  0  0
    0.5097    0.3990    4.9004 H   0  0  0  0  0  0  0  0  0  0  0  0
   -2.8476   -0.1252    3.6351 H   0  0  0  0  0  0  0  0  0  0  0  0
   -2.7202    0.0981    0.9466 H   0  0  0  0  0  0  0  0  0  0  0  0
   -0.7048    0.5135    7.3871 O   0  5  0  0  0  0  0  0  0  0  0  0
  1  2  1  0  0  0  0
  1 36  1  0  0  0  0
  1 37  1  0  0  0  0
  1 38  1  0  0  0  0
  2  3  1  0  0  0  0
  2 39  1  0  0  0  0
  2 40  1  0  0  0  0
  3  4  1  0  0  0  0
  3  5  1  0  0  0  0
  3  6  1  0  0  0  0
  5 41  1  0  0  0  0
  5 42  1  0  0  0  0
  5 43  1  0  0  0  0
  6  7  2  0  0  0  0
  6  8  1  0  0  0  0
  8  9  1  0  0  0  0
  9 10  1  0  0  0  0
  9 15  1  0  0  0  0
  9 11  1  0  0  0  0
 11 12  1  0  0  0  0
 11 44  1  0  0  0  0
 11 45  1  0  0  0  0
 12 13  1  0  0  0  0
 12 46  1  0  0  0  0
 12 47  1  0  0  0  0
 13 14  2  0  0  0  0
 13 48  1  0  0  0  0
 14 22  1  0  0  0  0
 14 15  1  0  0  0  0
 15 16  1  0  0  0  0
 15 17  1  0  0  0  0
 17 18  1  0  0  0  0
 17 19  1  0  0  0  0
 17 24  1  0  0  0  0
 19 20  1  0  0  0  0
 19 21  1  0  0  0  0
 19 23  1  0  0  0  0
 21 22  2  0  0  0  0
 21 49  1  0  0  0  0
 22 50  1  0  0  0  0
 23 51  1  0  0  0  0
 23 52  1  0  0  0  0
 23 53  1  0  0  0  0
 24 25  1  0  0  0  0
 24 54  1  0  0  0  0
 24 55  1  0  0  0  0
 25 26  1  0  0  0  0
 25 56  1  0  0  0  0
 25 57  1  0  0  0  0
 26 27  1  0  0  0  0
 26 28  1  0  0  0  0
 26 35  1  0  0  0  0
 28 29  1  0  0  0  0
 28 58  1  0  0  0  0
 28 59  1  0  0  0  0
 29 30  1  0  0  0  0
 29 31  1  0  0  0  0
 29 34  1  0  0  0  0
 31 32  1  0  0  0  0
 31 60  1  0  0  0  0
 31 61  1  0  0  0  0
 32 33  2  0  0  0  0
 32 64  1  0  0  0  0
 34 62  1  0  0  0  0
 35 63  1  0  0  0  0
M  CHG  1  64  -1
M  END
$$$$
