ZINC00008862
  -OEChem-08230709453D

 42 44  0     0  0  0  0  0  0999 V2000
    2.8165    4.5887    1.2981 C   0  0  0  0  0  0  0  0  0  0  0  0
    4.0471    5.2087    1.3953 C   0  0  0  0  0  0  0  0  0  0  0  0
    4.8910    5.2491    0.2994 C   0  0  0  0  0  0  0  0  0  0  0  0
    4.5067    4.6639   -0.8941 C   0  0  0  0  0  0  0  0  0  0  0  0
    3.2796    4.0375   -0.9937 C   0  0  0  0  0  0  0  0  0  0  0  0
    2.4318    3.9959    0.1040 C   0  0  0  0  0  0  0  0  0  0  0  0
    1.2242    3.3802    0.0081 O   0  0  0  0  0  0  0  0  0  0  0  0
    1.1567    2.0552    0.3115 C   0  0  0  0  0  0  0  0  0  0  0  0
    2.2862    1.3608    0.7110 C   0  0  0  0  0  0  0  0  0  0  0  0
    2.1848    0.0706    0.9986 N   0  0  0  0  0  0  0  0  0  0  0  0
    1.0232   -0.5582    0.9088 C   0  0  0  0  0  0  0  0  0  0  0  0
   -0.0810    0.0681    0.5308 N   0  0  0  0  0  0  0  0  0  0  0  0
   -0.0565    1.3612    0.2267 C   0  0  0  0  0  0  0  0  0  0  0  0
   -1.2139    2.0125   -0.1744 N   0  0  0  0  0  0  0  0  0  0  0  0
   -2.4760    1.2741   -0.2651 C   0  0  0  0  0  0  0  0  0  0  0  0
   -2.5668    0.5848   -1.6280 C   0  0  0  0  0  0  0  0  0  0  0  0
   -2.5111    1.6377   -2.7367 C   0  0  0  0  0  0  0  0  0  0  0  0
   -3.6827    2.6087   -2.5772 C   0  0  0  0  0  0  0  0  0  0  0  0
   -3.5919    3.2980   -1.2143 C   0  0  0  0  0  0  0  0  0  0  0  0
   -3.6476    2.2451   -0.1056 C   0  0  0  0  0  0  0  0  0  0  0  0
   -3.6307    3.5921   -3.6127 O   0  0  0  0  0  0  0  0  0  0  0  0
    0.9610   -1.9079    1.2183 N   0  0  0  0  0  0  0  0  0  0  0  0
    6.4342    6.0346    0.4223 Cl  0  0  0  0  0  0  0  0  0  0  0  0
    2.1563    4.5613    2.1524 H   0  0  0  0  0  0  0  0  0  0  0  0
    4.3489    5.6660    2.3260 H   0  0  0  0  0  0  0  0  0  0  0  0
    5.1668    4.6965   -1.7483 H   0  0  0  0  0  0  0  0  0  0  0  0
    2.9803    3.5803   -1.9253 H   0  0  0  0  0  0  0  0  0  0  0  0
    3.2385    1.8644    0.7874 H   0  0  0  0  0  0  0  0  0  0  0  0
   -1.1876    2.9568   -0.3947 H   0  0  0  0  0  0  0  0  0  0  0  0
   -2.5156    0.5240    0.5248 H   0  0  0  0  0  0  0  0  0  0  0  0
   -1.7321   -0.1069   -1.7416 H   0  0  0  0  0  0  0  0  0  0  0  0
   -3.5058    0.0354   -1.6955 H   0  0  0  0  0  0  0  0  0  0  0  0
   -2.5758    1.1467   -3.7077 H   0  0  0  0  0  0  0  0  0  0  0  0
   -1.5721    2.1871   -2.6692 H   0  0  0  0  0  0  0  0  0  0  0  0
   -4.6217    2.0593   -2.6447 H   0  0  0  0  0  0  0  0  0  0  0  0
   -4.4265    3.9897   -1.1006 H   0  0  0  0  0  0  0  0  0  0  0  0
   -2.6529    3.8474   -1.1468 H   0  0  0  0  0  0  0  0  0  0  0  0
   -4.5866    1.6957   -0.1730 H   0  0  0  0  0  0  0  0  0  0  0  0
   -3.5829    2.7361    0.8654 H   0  0  0  0  0  0  0  0  0  0  0  0
   -3.6833    3.2257   -4.5061 H   0  0  0  0  0  0  0  0  0  0  0  0
    0.1165   -2.3812    1.1566 H   0  0  0  0  0  0  0  0  0  0  0  0
    1.7619   -2.3791    1.4965 H   0  0  0  0  0  0  0  0  0  0  0  0
  1  6  2  0  0  0  0
  1  2  1  0  0  0  0
  1 24  1  0  0  0  0
  2  3  2  0  0  0  0
  2 25  1  0  0  0  0
  3  4  1  0  0  0  0
  3 23  1  0  0  0  0
  4  5  2  0  0  0  0
  4 26  1  0  0  0  0
  5  6  1  0  0  0  0
  5 27  1  0  0  0  0
  6  7  1  0  0  0  0
  7  8  1  0  0  0  0
  8 13  2  0  0  0  0
  8  9  1  0  0  0  0
  9 10  2  0  0  0  0
  9 28  1  0  0  0  0
 10 11  1  0  0  0  0
 11 12  2  0  0  0  0
 11 22  1  0  0  0  0
 12 13  1  0  0  0  0
 13 14  1  0  0  0  0
 14 15  1  0  0  0  0
 14 29  1  0  0  0  0
 15 20  1  0  0  0  0
 15 16  1  0  0  0  0
 15 30  1  0  0  0  0
 16 17  1  0  0  0  0
 16 31  1  0  0  0  0
 16 32  1  0  0  0  0
 17 18  1  0  0  0  0
 17 33  1  0  0  0  0
 17 34  1  0  0  0  0
 18 19  1  0  0  0  0
 18 21  1  0  0  0  0
 18 35  1  0  0  0  0
 19 20  1  0  0  0  0
 19 36  1  0  0  0  0
 19 37  1  0  0  0  0
 20 38  1  0  0  0  0
 20 39  1  0  0  0  0
 21 40  1  0  0  0  0
 22 41  1  0  0  0  0
 22 42  1  0  0  0  0
M  END
$$$$
ZINC00013885
  -OEChem-08230709453D

 45 48  0     1  0  0  0  0  0999 V2000
    1.2010   -0.0571    0.2102 C   0  0  0  0  0  0  0  0  0  0  0  0
   -0.0069    0.4254    0.1822 N   0  0  0  0  0  0  0  0  0  0  0  0
    0.0472    1.7663   -0.0097 C   0  0  0  0  0  0  0  0  0  0  0  0
    1.4039    2.1166   -0.1049 C   0  0  0  0  0  0  0  0  0  0  0  0
    2.1078    0.9476    0.0373 N   0  0  0  0  0  0  0  0  0  0  0  0
    3.5655    0.8045    0.0091 C   0  0  1  0  0  0  0  0  0  0  0  0
    3.9208    0.3612    0.9394 H   0  0  0  0  0  0  0  0  0  0  0  0
    3.9988   -0.0584   -1.1987 C   0  0  0  0  0  0  0  0  0  0  0  0
    4.2961    1.0271   -2.2591 C   0  0  2  0  0  0  0  0  0  0  0  0
    5.1485    0.7354   -2.8726 H   0  0  0  0  0  0  0  0  0  0  0  0
    4.6202    2.2672   -1.4589 C   0  0  0  0  0  0  0  0  0  0  0  0
    4.2219    2.1462   -0.2189 C   0  0  0  0  0  0  0  0  0  0  0  0
    3.0659    1.2657   -3.1370 C   0  0  0  0  0  0  0  0  0  0  0  0
    3.3924    2.1952   -4.1722 O   0  0  0  0  0  0  0  0  0  0  0  0
    1.7322    3.3906   -0.2962 N   0  0  0  0  0  0  0  0  0  0  0  0
    0.7954    4.3199   -0.3961 C   0  0  0  0  0  0  0  0  0  0  0  0
   -0.4974    4.0341   -0.3126 N   0  0  0  0  0  0  0  0  0  0  0  0
   -0.9139    2.7871   -0.1170 C   0  0  0  0  0  0  0  0  0  0  0  0
   -2.6333    2.4205    0.0008 S   0  0  0  0  0  0  0  0  0  0  0  0
   -3.3237    4.0807   -0.2073 C   0  0  2  0  0  0  0  0  0  0  0  0
   -2.8810    4.7510    0.5295 H   0  0  0  0  0  0  0  0  0  0  0  0
   -4.8386    4.0301    0.0027 C   0  0  0  0  0  0  0  0  0  0  0  0
   -5.4335    5.3764   -0.4296 C   0  0  0  0  0  0  0  0  0  0  0  0
   -5.2691    5.5137   -1.9447 C   0  0  0  0  0  0  0  0  0  0  0  0
   -3.8544    5.2076   -2.3410 C   0  0  0  0  0  0  0  0  0  0  0  0
   -3.0095    4.5807   -1.5869 C   0  0  0  0  0  0  0  0  0  0  0  0
    1.1778    5.6363   -0.5952 N   0  0  0  0  0  0  0  0  0  0  0  0
    1.4492   -1.0990    0.3490 H   0  0  0  0  0  0  0  0  0  0  0  0
    4.8946   -0.6345   -0.9668 H   0  0  0  0  0  0  0  0  0  0  0  0
    3.1889   -0.7114   -1.5237 H   0  0  0  0  0  0  0  0  0  0  0  0
    5.1163    3.1395   -1.8581 H   0  0  0  0  0  0  0  0  0  0  0  0
    4.3450    2.9032    0.5414 H   0  0  0  0  0  0  0  0  0  0  0  0
    2.7488    0.3227   -3.5822 H   0  0  0  0  0  0  0  0  0  0  0  0
    2.2575    1.6698   -2.5276 H   0  0  0  0  0  0  0  0  0  0  0  0
    2.6575    2.3939   -4.7684 H   0  0  0  0  0  0  0  0  0  0  0  0
   -5.2657    3.2298   -0.6016 H   0  0  0  0  0  0  0  0  0  0  0  0
   -5.0568    3.8543    1.0561 H   0  0  0  0  0  0  0  0  0  0  0  0
   -4.9060    6.1881    0.0713 H   0  0  0  0  0  0  0  0  0  0  0  0
   -6.4918    5.4127   -0.1711 H   0  0  0  0  0  0  0  0  0  0  0  0
   -5.5158    6.5323   -2.2441 H   0  0  0  0  0  0  0  0  0  0  0  0
   -5.9430    4.8187   -2.4457 H   0  0  0  0  0  0  0  0  0  0  0  0
   -3.5203    5.5309   -3.3158 H   0  0  0  0  0  0  0  0  0  0  0  0
   -2.0168    4.4063   -1.9749 H   0  0  0  0  0  0  0  0  0  0  0  0
    2.1186    5.8637   -0.6590 H   0  0  0  0  0  0  0  0  0  0  0  0
    0.5048    6.3307   -0.6708 H   0  0  0  0  0  0  0  0  0  0  0  0
  1  5  1  0  0  0  0
  1  2  2  0  0  0  0
  1 28  1  0  0  0  0
  2  3  1  0  0  0  0
  3 18  2  0  0  0  0
  3  4  1  0  0  0  0
  4  5  1  0  0  0  0
  4 15  2  0  0  0  0
  5  6  1  0  0  0  0
  6  7  1  0  0  0  0
  6 12  1  0  0  0  0
  6  8  1  0  0  0  0
  8  9  1  0  0  0  0
  8 29  1  0  0  0  0
  8 30  1  0  0  0  0
  9 10  1  0  0  0  0
  9 11  1  0  0  0  0
  9 13  1  0  0  0  0
 11 12  2  0  0  0  0
 11 31  1  0  0  0  0
 12 32  1  0  0  0  0
 13 14  1  0  0  0  0
 13 33  1  0  0  0  0
 13 34  1  0  0  0  0
 14 35  1  0  0  0  0
 15 16  1  0  0  0  0
 16 17  2  0  0  0  0
 16 27  1  0  0  0  0
 17 18  1  0  0  0  0
 18 19  1  0  0  0  0
 19 20  1  0  0  0  0
 20 21  1  0  0  0  0
 20 26  1  0  0  0  0
 20 22  1  0  0  0  0
 22 23  1  0  0  0  0
 22 36  1  0  0  0  0
 22 37  1  0  0  0  0
 23 24  1  0  0  0  0
 23 38  1  0  0  0  0
 23 39  1  0  0  0  0
 24 25  1  0  0  0  0
 24 40  1  0  0  0  0
 24 41  1  0  0  0  0
 25 26  2  0  0  0  0
 25 42  1  0  0  0  0
 26 43  1  0  0  0  0
 27 44  1  0  0  0  0
 27 45  1  0  0  0  0
M  END
$$$$
ZINC00024303
  -OEChem-08230709453D

 46 48  0     0  0  0  0  0  0999 V2000
    2.4897    1.0476   -0.0156 C   0  0  0  0  0  0  0  0  0  0  0  0
    1.1746    1.7833    0.0004 C   0  0  0  0  0  0  0  0  0  0  0  0
   -0.0126    1.0758    0.0080 C   0  0  0  0  0  0  0  0  0  0  0  0
   -1.2208    1.7520    0.0173 C   0  0  0  0  0  0  0  0  0  0  0  0
   -1.2380    3.1365    0.0298 C   0  0  0  0  0  0  0  0  0  0  0  0
   -0.0496    3.8418    0.0217 C   0  0  0  0  0  0  0  0  0  0  0  0
    1.1561    3.1656    0.0071 C   0  0  0  0  0  0  0  0  0  0  0  0
    2.4513    3.9359   -0.0021 C   0  0  0  0  0  0  0  0  0  0  0  0
    2.8573    4.1920   -1.3863 N   0  0  0  0  0  0  0  0  0  0  0  0
    4.0354    4.8953   -1.6500 C   0  0  0  0  0  0  0  0  0  0  0  0
    4.8114    5.3460   -0.6247 C   0  0  0  0  0  0  0  0  0  0  0  0
    6.0029    6.0576   -0.9127 C   0  0  0  0  0  0  0  0  0  0  0  0
    6.3654    6.2869   -2.2078 C   0  0  0  0  0  0  0  0  0  0  0  0
    5.5922    5.8380   -3.2342 N   0  0  0  0  0  0  0  0  0  0  0  0
    4.4374    5.1417   -2.9866 C   0  0  0  0  0  0  0  0  0  0  0  0
    3.8930    4.8232   -4.1505 N   0  0  0  0  0  0  0  0  0  0  0  0
    4.6632    5.2873   -5.1377 C   0  0  0  0  0  0  0  0  0  0  0  0
    5.7205    5.9287   -4.5947 C   0  0  0  0  0  0  0  0  0  0  0  0
    6.8400    6.6030   -5.3450 C   0  0  0  0  0  0  0  0  0  0  0  0
    4.3912    5.1327   -6.6119 C   0  0  0  0  0  0  0  0  0  0  0  0
    6.8523    6.5505    0.1892 C   0  0  0  0  0  0  0  0  0  0  0  0
    7.8745    7.1610   -0.0574 O   0  0  0  0  0  0  0  0  0  0  0  0
    6.4948    6.3238    1.4688 N   0  0  0  0  0  0  0  0  0  0  0  0
   -0.0680    5.3487    0.0285 C   0  0  0  0  0  0  0  0  0  0  0  0
   -2.3820    1.0615    0.0191 F   0  0  0  0  0  0  0  0  0  0  0  0
    2.7972    0.8754   -1.0470 H   0  0  0  0  0  0  0  0  0  0  0  0
    3.2461    1.6444    0.4942 H   0  0  0  0  0  0  0  0  0  0  0  0
    2.3771    0.0910    0.4945 H   0  0  0  0  0  0  0  0  0  0  0  0
    0.0021   -0.0041    0.0020 H   0  0  0  0  0  0  0  0  0  0  0  0
   -2.1798    3.6649    0.0412 H   0  0  0  0  0  0  0  0  0  0  0  0
    2.3138    4.8841    0.5175 H   0  0  0  0  0  0  0  0  0  0  0  0
    3.2236    3.3543    0.5013 H   0  0  0  0  0  0  0  0  0  0  0  0
    2.3083    3.8733   -2.1196 H   0  0  0  0  0  0  0  0  0  0  0  0
    4.5208    5.1627    0.3992 H   0  0  0  0  0  0  0  0  0  0  0  0
    7.2746    6.8295   -2.4207 H   0  0  0  0  0  0  0  0  0  0  0  0
    7.6355    5.8825   -5.5353 H   0  0  0  0  0  0  0  0  0  0  0  0
    6.4628    6.9864   -6.2931 H   0  0  0  0  0  0  0  0  0  0  0  0
    7.2315    7.4277   -4.7495 H   0  0  0  0  0  0  0  0  0  0  0  0
    3.7998    5.9784   -6.9629 H   0  0  0  0  0  0  0  0  0  0  0  0
    5.3361    5.0999   -7.1542 H   0  0  0  0  0  0  0  0  0  0  0  0
    3.8408    4.2078   -6.7847 H   0  0  0  0  0  0  0  0  0  0  0  0
    5.6794    5.8368    1.6656 H   0  0  0  0  0  0  0  0  0  0  0  0
    7.0530    6.6477    2.1930 H   0  0  0  0  0  0  0  0  0  0  0  0
   -0.0824    5.7165   -0.9975 H   0  0  0  0  0  0  0  0  0  0  0  0
   -0.9573    5.6988    0.5525 H   0  0  0  0  0  0  0  0  0  0  0  0
    0.8224    5.7207    0.5353 H   0  0  0  0  0  0  0  0  0  0  0  0
  1  2  1  0  0  0  0
  1 26  1  0  0  0  0
  1 27  1  0  0  0  0
  1 28  1  0  0  0  0
  2  7  2  0  0  0  0
  2  3  1  0  0  0  0
  3  4  2  0  0  0  0
  3 29  1  0  0  0  0
  4  5  1  0  0  0  0
  4 25  1  0  0  0  0
  5  6  2  0  0  0  0
  5 30  1  0  0  0  0
  6  7  1  0  0  0  0
  6 24  1  0  0  0  0
  7  8  1  0  0  0  0
  8  9  1  0  0  0  0
  8 31  1  0  0  0  0
  8 32  1  0  0  0  0
  9 10  1  0  0  0  0
  9 33  1  0  0  0  0
 10 15  1  0  0  0  0
 10 11  2  0  0  0  0
 11 12  1  0  0  0  0
 11 34  1  0  0  0  0
 12 13  2  0  0  0  0
 12 21  1  0  0  0  0
 13 14  1  0  0  0  0
 13 35  1  0  0  0  0
 14 18  1  0  0  0  0
 14 15  1  0  0  0  0
 15 16  2  0  0  0  0
 16 17  1  0  0  0  0
 17 18  2  0  0  0  0
 17 20  1  0  0  0  0
 18 19  1  0  0  0  0
 19 36  1  0  0  0  0
 19 37  1  0  0  0  0
 19 38  1  0  0  0  0
 20 39  1  0  0  0  0
 20 40  1  0  0  0  0
 20 41  1  0  0  0  0
 21 22  2  0  0  0  0
 21 23  1  0  0  0  0
 23 42  1  0  0  0  0
 23 43  1  0  0  0  0
 24 44  1  0  0  0  0
 24 45  1  0  0  0  0
 24 46  1  0  0  0  0
M  END
$$$$
ZINC00024303
  -OEChem-08230709453D

 47 49  0     0  0  0  0  0  0999 V2000
    2.4897    1.0476   -0.0156 C   0  0  0  0  0  0  0  0  0  0  0  0
    1.1746    1.7833    0.0004 C   0  0  0  0  0  0  0  0  0  0  0  0
   -0.0126    1.0758    0.0080 C   0  0  0  0  0  0  0  0  0  0  0  0
   -1.2208    1.7520    0.0173 C   0  0  0  0  0  0  0  0  0  0  0  0
   -1.2380    3.1365    0.0298 C   0  0  0  0  0  0  0  0  0  0  0  0
   -0.0496    3.8418    0.0217 C   0  0  0  0  0  0  0  0  0  0  0  0
    1.1561    3.1656    0.0071 C   0  0  0  0  0  0  0  0  0  0  0  0
    2.4513    3.9359   -0.0021 C   0  0  0  0  0  0  0  0  0  0  0  0
    2.8573    4.1920   -1.3863 N   0  0  0  0  0  0  0  0  0  0  0  0
    4.0354    4.8953   -1.6500 C   0  0  0  0  0  0  0  0  0  0  0  0
    4.8114    5.3460   -0.6247 C   0  0  0  0  0  0  0  0  0  0  0  0
    6.0029    6.0576   -0.9127 C   0  0  0  0  0  0  0  0  0  0  0  0
    6.3654    6.2869   -2.2078 C   0  0  0  0  0  0  0  0  0  0  0  0
    5.5922    5.8380   -3.2342 N   0  0  0  0  0  0  0  0  0  0  0  0
    4.4374    5.1417   -2.9866 C   0  0  0  0  0  0  0  0  0  0  0  0
    4.6632    5.2873   -5.1377 C   0  0  0  0  0  0  0  0  0  0  0  0
    5.7205    5.9287   -4.5947 C   0  0  0  0  0  0  0  0  0  0  0  0
    6.8400    6.6030   -5.3450 C   0  0  0  0  0  0  0  0  0  0  0  0
    4.3912    5.1327   -6.6119 C   0  0  0  0  0  0  0  0  0  0  0  0
    6.8523    6.5505    0.1892 C   0  0  0  0  0  0  0  0  0  0  0  0
    7.8745    7.1610   -0.0574 O   0  0  0  0  0  0  0  0  0  0  0  0
    6.4948    6.3238    1.4688 N   0  0  0  0  0  0  0  0  0  0  0  0
   -0.0680    5.3487    0.0285 C   0  0  0  0  0  0  0  0  0  0  0  0
   -2.3820    1.0615    0.0191 F   0  0  0  0  0  0  0  0  0  0  0  0
    2.7972    0.8754   -1.0470 H   0  0  0  0  0  0  0  0  0  0  0  0
    3.2461    1.6444    0.4942 H   0  0  0  0  0  0  0  0  0  0  0  0
    2.3771    0.0910    0.4945 H   0  0  0  0  0  0  0  0  0  0  0  0
    0.0021   -0.0041    0.0020 H   0  0  0  0  0  0  0  0  0  0  0  0
   -2.1798    3.6649    0.0412 H   0  0  0  0  0  0  0  0  0  0  0  0
    2.3138    4.8841    0.5175 H   0  0  0  0  0  0  0  0  0  0  0  0
    3.2236    3.3543    0.5013 H   0  0  0  0  0  0  0  0  0  0  0  0
    2.3083    3.8733   -2.1196 H   0  0  0  0  0  0  0  0  0  0  0  0
    4.5208    5.1627    0.3992 H   0  0  0  0  0  0  0  0  0  0  0  0
    7.2746    6.8295   -2.4207 H   0  0  0  0  0  0  0  0  0  0  0  0
    7.6355    5.8825   -5.5353 H   0  0  0  0  0  0  0  0  0  0  0  0
    6.4628    6.9864   -6.2931 H   0  0  0  0  0  0  0  0  0  0  0  0
    7.2315    7.4277   -4.7495 H   0  0  0  0  0  0  0  0  0  0  0  0
    3.7998    5.9784   -6.9629 H   0  0  0  0  0  0  0  0  0  0  0  0
    5.3361    5.0999   -7.1542 H   0  0  0  0  0  0  0  0  0  0  0  0
    3.8408    4.2078   -6.7847 H   0  0  0  0  0  0  0  0  0  0  0  0
    5.6794    5.8368    1.6656 H   0  0  0  0  0  0  0  0  0  0  0  0
    7.0530    6.6477    2.1930 H   0  0  0  0  0  0  0  0  0  0  0  0
   -0.0824    5.7165   -0.9975 H   0  0  0  0  0  0  0  0  0  0  0  0
   -0.9573    5.6988    0.5525 H   0  0  0  0  0  0  0  0  0  0  0  0
    0.8224    5.7207    0.5353 H   0  0  0  0  0  0  0  0  0  0  0  0
    3.8944    4.8240   -4.1503 N   0  3  0  0  0  0  0  0  0  0  0  0
    3.0185    4.3027   -4.2743 H   0  0  0  0  0  0  0  0  0  0  0  0
  1  2  1  0  0  0  0
  1 25  1  0  0  0  0
  1 26  1  0  0  0  0
  1 27  1  0  0  0  0
  2  7  2  0  0  0  0
  2  3  1  0  0  0  0
  3  4  2  0  0  0  0
  3 28  1  0  0  0  0
  4  5  1  0  0  0  0
  4 24  1  0  0  0  0
  5  6  2  0  0  0  0
  5 29  1  0  0  0  0
  6  7  1  0  0  0  0
  6 23  1  0  0  0  0
  7  8  1  0  0  0  0
  8  9  1  0  0  0  0
  8 30  1  0  0  0  0
  8 31  1  0  0  0  0
  9 10  1  0  0  0  0
  9 32  1  0  0  0  0
 10 15  1  0  0  0  0
 10 11  2  0  0  0  0
 11 12  1  0  0  0  0
 11 33  1  0  0  0  0
 12 13  2  0  0  0  0
 12 20  1  0  0  0  0
 13 14  1  0  0  0  0
 13 34  1  0  0  0  0
 14 17  1  0  0  0  0
 14 15  1  0  0  0  0
 15 46  2  0  0  0  0
 16 17  2  0  0  0  0
 16 19  1  0  0  0  0
 16 46  1  0  0  0  0
 17 18  1  0  0  0  0
 18 35  1  0  0  0  0
 18 36  1  0  0  0  0
 18 37  1  0  0  0  0
 19 38  1  0  0  0  0
 19 39  1  0  0  0  0
 19 40  1  0  0  0  0
 20 21  2  0  0  0  0
 20 22  1  0  0  0  0
 22 41  1  0  0  0  0
 22 42  1  0  0  0  0
 23 43  1  0  0  0  0
 23 44  1  0  0  0  0
 23 45  1  0  0  0  0
 46 47  1  0  0  0  0
M  CHG  1  46   1
M  END
$$$$
ZINC00027351
  -OEChem-08230709453D

 43 45  0     0  0  0  0  0  0999 V2000
   -4.8274    3.8804   -0.2916 C   0  0  0  0  0  0  0  0  0  0  0  0
   -3.5180    3.1783   -0.6568 C   0  0  0  0  0  0  0  0  0  0  0  0
   -3.6163    1.7212   -0.2894 C   0  0  0  0  0  0  0  0  0  0  0  0
   -2.5172    1.0389    0.0302 C   0  0  0  0  0  0  0  0  0  0  0  0
   -1.2246    1.7588    0.0174 C   0  0  0  0  0  0  0  0  0  0  0  0
   -0.0126    1.0758    0.0080 C   0  0  0  0  0  0  0  0  0  0  0  0
    1.1718    1.7863    0.0005 C   0  0  0  0  0  0  0  0  0  0  0  0
    1.1572    3.1703    0.0078 C   0  0  0  0  0  0  0  0  0  0  0  0
   -0.0457    3.8610    0.0222 C   0  0  0  0  0  0  0  0  0  0  0  0
   -1.2418    3.1589    0.0296 C   0  0  0  0  0  0  0  0  0  0  0  0
   -2.4391    3.8003    0.0425 O   0  0  0  0  0  0  0  0  0  0  0  0
   -0.0521    5.2210    0.0294 O   0  0  0  0  0  0  0  0  0  0  0  0
    1.2179    5.8759    0.0215 C   0  0  0  0  0  0  0  0  0  0  0  0
    2.4870    1.0507   -0.0163 C   0  0  0  0  0  0  0  0  0  0  0  0
    2.9117    0.8134   -1.4426 C   0  0  0  0  0  0  0  0  0  0  0  0
    2.6190   -0.3777   -2.0778 C   0  0  0  0  0  0  0  0  0  0  0  0
    3.0059   -0.5554   -3.3324 N   0  0  0  0  0  0  0  0  0  0  0  0
    3.6671    0.3916   -3.9818 C   0  0  0  0  0  0  0  0  0  0  0  0
    3.9668    1.5474   -3.4089 N   0  0  0  0  0  0  0  0  0  0  0  0
    3.6050    1.7948   -2.1539 C   0  0  0  0  0  0  0  0  0  0  0  0
    3.9155    3.0067   -1.5589 N   0  0  0  0  0  0  0  0  0  0  0  0
    4.0538    0.1674   -5.2916 N   0  0  0  0  0  0  0  0  0  0  0  0
   -2.5996   -0.6453    0.4433 Cl  0  0  0  0  0  0  0  0  0  0  0  0
   -3.2820    3.3041   -2.1633 C   0  0  0  0  0  0  0  0  0  0  0  0
   -4.7671    4.9315   -0.5737 H   0  0  0  0  0  0  0  0  0  0  0  0
   -5.6534    3.4083   -0.8236 H   0  0  0  0  0  0  0  0  0  0  0  0
   -4.9947    3.8014    0.7825 H   0  0  0  0  0  0  0  0  0  0  0  0
   -4.5777    1.2291   -0.2852 H   0  0  0  0  0  0  0  0  0  0  0  0
    0.0021   -0.0041    0.0020 H   0  0  0  0  0  0  0  0  0  0  0  0
    2.0890    3.7164    0.0019 H   0  0  0  0  0  0  0  0  0  0  0  0
    1.7684    5.5904   -0.8749 H   0  0  0  0  0  0  0  0  0  0  0  0
    1.0700    6.9558    0.0285 H   0  0  0  0  0  0  0  0  0  0  0  0
    1.7843    5.5810    0.9049 H   0  0  0  0  0  0  0  0  0  0  0  0
    3.2435    1.6473    0.4936 H   0  0  0  0  0  0  0  0  0  0  0  0
    2.3746    0.0938    0.4934 H   0  0  0  0  0  0  0  0  0  0  0  0
    2.0802   -1.1558   -1.5574 H   0  0  0  0  0  0  0  0  0  0  0  0
    3.6511    3.1785   -0.6416 H   0  0  0  0  0  0  0  0  0  0  0  0
    4.3973    3.6835   -2.0596 H   0  0  0  0  0  0  0  0  0  0  0  0
    3.8402   -0.6747   -5.7230 H   0  0  0  0  0  0  0  0  0  0  0  0
    4.5384    0.8524   -5.7782 H   0  0  0  0  0  0  0  0  0  0  0  0
   -2.3450    2.8133   -2.4265 H   0  0  0  0  0  0  0  0  0  0  0  0
   -4.1036    2.8304   -2.7005 H   0  0  0  0  0  0  0  0  0  0  0  0
   -3.2293    4.3581   -2.4360 H   0  0  0  0  0  0  0  0  0  0  0  0
  1  2  1  0  0  0  0
  1 25  1  0  0  0  0
  1 26  1  0  0  0  0
  1 27  1  0  0  0  0
  2 11  1  0  0  0  0
  2  3  1  0  0  0  0
  2 24  1  0  0  0  0
  3  4  2  0  0  0  0
  3 28  1  0  0  0  0
  4  5  1  0  0  0  0
  4 23  1  0  0  0  0
  5 10  2  0  0  0  0
  5  6  1  0  0  0  0
  6  7  2  0  0  0  0
  6 29  1  0  0  0  0
  7  8  1  0  0  0  0
  7 14  1  0  0  0  0
  8  9  2  0  0  0  0
  8 30  1  0  0  0  0
  9 10  1  0  0  0  0
  9 12  1  0  0  0  0
 10 11  1  0  0  0  0
 12 13  1  0  0  0  0
 13 31  1  0  0  0  0
 13 32  1  0  0  0  0
 13 33  1  0  0  0  0
 14 15  1  0  0  0  0
 14 34  1  0  0  0  0
 14 35  1  0  0  0  0
 15 20  2  0  0  0  0
 15 16  1  0  0  0  0
 16 17  2  0  0  0  0
 16 36  1  0  0  0  0
 17 18  1  0  0  0  0
 18 19  2  0  0  0  0
 18 22  1  0  0  0  0
 19 20  1  0  0  0  0
 20 21  1  0  0  0  0
 21 37  1  0  0  0  0
 21 38  1  0  0  0  0
 22 39  1  0  0  0  0
 22 40  1  0  0  0  0
 24 41  1  0  0  0  0
 24 42  1  0  0  0  0
 24 43  1  0  0  0  0
M  END
$$$$
ZINC00027351
  -OEChem-08230709453D

 44 46  0     0  0  0  0  0  0999 V2000
   -4.8268    3.8788   -0.2887 C   0  0  0  0  0  0  0  0  0  0  0  0
   -3.5174    3.1769   -0.6543 C   0  0  0  0  0  0  0  0  0  0  0  0
   -3.6153    1.7198   -0.2870 C   0  0  0  0  0  0  0  0  0  0  0  0
   -2.5160    1.0376    0.0322 C   0  0  0  0  0  0  0  0  0  0  0  0
   -1.2236    1.7577    0.0190 C   0  0  0  0  0  0  0  0  0  0  0  0
   -0.0115    1.0749    0.0092 C   0  0  0  0  0  0  0  0  0  0  0  0
    1.1728    1.7856    0.0014 C   0  0  0  0  0  0  0  0  0  0  0  0
    1.1580    3.1696    0.0088 C   0  0  0  0  0  0  0  0  0  0  0  0
   -0.0450    3.8601    0.0236 C   0  0  0  0  0  0  0  0  0  0  0  0
   -1.2410    3.1578    0.0314 C   0  0  0  0  0  0  0  0  0  0  0  0
   -2.4384    3.7990    0.0447 O   0  0  0  0  0  0  0  0  0  0  0  0
   -0.0516    5.2201    0.0310 O   0  0  0  0  0  0  0  0  0  0  0  0
    1.2183    5.8752    0.0227 C   0  0  0  0  0  0  0  0  0  0  0  0
    2.4881    1.0502   -0.0159 C   0  0  0  0  0  0  0  0  0  0  0  0
    2.9124    0.8131   -1.4423 C   0  0  0  0  0  0  0  0  0  0  0  0
    2.6250   -0.3804   -2.0756 C   0  0  0  0  0  0  0  0  0  0  0  0
    3.6772    0.3872   -3.9780 C   0  0  0  0  0  0  0  0  0  0  0  0
    3.9719    1.5452   -3.4070 N   0  3  0  0  0  0  0  0  0  0  0  0
    3.6050    1.7948   -2.1539 C   0  0  0  0  0  0  0  0  0  0  0  0
    3.9155    3.0067   -1.5589 N   0  0  0  0  0  0  0  0  0  0  0  0
    4.0692    0.1607   -5.2859 N   0  0  0  0  0  0  0  0  0  0  0  0
   -2.5981   -0.6466    0.4452 Cl  0  0  0  0  0  0  0  0  0  0  0  0
   -3.2819    3.3029   -2.1609 C   0  0  0  0  0  0  0  0  0  0  0  0
   -4.7667    4.9299   -0.5707 H   0  0  0  0  0  0  0  0  0  0  0  0
   -5.6529    3.4066   -0.8204 H   0  0  0  0  0  0  0  0  0  0  0  0
   -4.9937    3.7997    0.7855 H   0  0  0  0  0  0  0  0  0  0  0  0
   -4.5767    1.2275   -0.2825 H   0  0  0  0  0  0  0  0  0  0  0  0
    0.0034   -0.0050    0.0031 H   0  0  0  0  0  0  0  0  0  0  0  0
    2.0897    3.7158    0.0027 H   0  0  0  0  0  0  0  0  0  0  0  0
    1.7686    5.5899   -0.8739 H   0  0  0  0  0  0  0  0  0  0  0  0
    1.0702    6.9551    0.0298 H   0  0  0  0  0  0  0  0  0  0  0  0
    1.7850    5.5803    0.9059 H   0  0  0  0  0  0  0  0  0  0  0  0
    3.2447    1.6469    0.4938 H   0  0  0  0  0  0  0  0  0  0  0  0
    2.3761    0.0932    0.4938 H   0  0  0  0  0  0  0  0  0  0  0  0
    2.0869   -1.1588   -1.5549 H   0  0  0  0  0  0  0  0  0  0  0  0
    3.6511    3.1785   -0.6416 H   0  0  0  0  0  0  0  0  0  0  0  0
    4.3973    3.6835   -2.0596 H   0  0  0  0  0  0  0  0  0  0  0  0
    3.8593   -0.6830   -5.7159 H   0  0  0  0  0  0  0  0  0  0  0  0
    4.5537    0.8457   -5.7725 H   0  0  0  0  0  0  0  0  0  0  0  0
   -2.3449    2.8122   -2.4244 H   0  0  0  0  0  0  0  0  0  0  0  0
   -4.1036    2.8291   -2.6979 H   0  0  0  0  0  0  0  0  0  0  0  0
   -3.2294    4.3569   -2.4335 H   0  0  0  0  0  0  0  0  0  0  0  0
    3.0011   -0.6243   -3.3629 N   0  0  0  0  0  0  0  0  0  0  0  0
    4.4749    2.2415   -3.9190 H   0  0  0  0  0  0  0  0  0  0  0  0
  1  2  1  0  0  0  0
  1 24  1  0  0  0  0
  1 25  1  0  0  0  0
  1 26  1  0  0  0  0
  2 11  1  0  0  0  0
  2  3  1  0  0  0  0
  2 23  1  0  0  0  0
  3  4  2  0  0  0  0
  3 27  1  0  0  0  0
  4  5  1  0  0  0  0
  4 22  1  0  0  0  0
  5 10  2  0  0  0  0
  5  6  1  0  0  0  0
  6  7  2  0  0  0  0
  6 28  1  0  0  0  0
  7  8  1  0  0  0  0
  7 14  1  0  0  0  0
  8  9  2  0  0  0  0
  8 29  1  0  0  0  0
  9 10  1  0  0  0  0
  9 12  1  0  0  0  0
 10 11  1  0  0  0  0
 12 13  1  0  0  0  0
 13 30  1  0  0  0  0
 13 31  1  0  0  0  0
 13 32  1  0  0  0  0
 14 15  1  0  0  0  0
 14 33  1  0  0  0  0
 14 34  1  0  0  0  0
 15 16  2  0  0  0  0
 15 19  1  0  0  0  0
 16 35  1  0  0  0  0
 16 43  1  0  0  0  0
 17 21  1  0  0  0  0
 17 18  1  0  0  0  0
 17 43  2  0  0  0  0
 18 44  1  0  0  0  0
 18 19  2  0  0  0  0
 19 20  1  0  0  0  0
 20 36  1  0  0  0  0
 20 37  1  0  0  0  0
 21 38  1  0  0  0  0
 21 39  1  0  0  0  0
 23 40  1  0  0  0  0
 23 41  1  0  0  0  0
 23 42  1  0  0  0  0
M  CHG  1  18   1
M  END
$$$$
ZINC00027351
  -OEChem-08230709453D

 44 46  0     0  0  0  0  0  0999 V2000
   -4.8274    3.8804   -0.2916 C   0  0  0  0  0  0  0  0  0  0  0  0
   -3.5180    3.1783   -0.6568 C   0  0  0  0  0  0  0  0  0  0  0  0
   -3.6163    1.7212   -0.2894 C   0  0  0  0  0  0  0  0  0  0  0  0
   -2.5172    1.0389    0.0302 C   0  0  0  0  0  0  0  0  0  0  0  0
   -1.2246    1.7588    0.0174 C   0  0  0  0  0  0  0  0  0  0  0  0
   -0.0126    1.0758    0.0080 C   0  0  0  0  0  0  0  0  0  0  0  0
    1.1718    1.7863    0.0005 C   0  0  0  0  0  0  0  0  0  0  0  0
    1.1572    3.1703    0.0078 C   0  0  0  0  0  0  0  0  0  0  0  0
   -0.0457    3.8610    0.0222 C   0  0  0  0  0  0  0  0  0  0  0  0
   -1.2418    3.1589    0.0296 C   0  0  0  0  0  0  0  0  0  0  0  0
   -2.4391    3.8003    0.0425 O   0  0  0  0  0  0  0  0  0  0  0  0
   -0.0521    5.2210    0.0294 O   0  0  0  0  0  0  0  0  0  0  0  0
    1.2179    5.8759    0.0215 C   0  0  0  0  0  0  0  0  0  0  0  0
    2.4870    1.0507   -0.0163 C   0  0  0  0  0  0  0  0  0  0  0  0
    2.9117    0.8134   -1.4426 C   0  0  0  0  0  0  0  0  0  0  0  0
    2.6190   -0.3777   -2.0778 C   0  0  0  0  0  0  0  0  0  0  0  0
    3.6671    0.3916   -3.9818 C   0  0  0  0  0  0  0  0  0  0  0  0
    3.9668    1.5474   -3.4089 N   0  0  0  0  0  0  0  0  0  0  0  0
    3.6050    1.7948   -2.1539 C   0  0  0  0  0  0  0  0  0  0  0  0
    3.9155    3.0067   -1.5589 N   0  0  0  0  0  0  0  0  0  0  0  0
    4.0538    0.1674   -5.2916 N   0  0  0  0  0  0  0  0  0  0  0  0
   -2.5996   -0.6453    0.4433 Cl  0  0  0  0  0  0  0  0  0  0  0  0
   -3.2820    3.3041   -2.1633 C   0  0  0  0  0  0  0  0  0  0  0  0
   -4.7671    4.9315   -0.5737 H   0  0  0  0  0  0  0  0  0  0  0  0
   -5.6534    3.4083   -0.8236 H   0  0  0  0  0  0  0  0  0  0  0  0
   -4.9947    3.8014    0.7825 H   0  0  0  0  0  0  0  0  0  0  0  0
   -4.5777    1.2291   -0.2852 H   0  0  0  0  0  0  0  0  0  0  0  0
    0.0021   -0.0041    0.0020 H   0  0  0  0  0  0  0  0  0  0  0  0
    2.0890    3.7164    0.0019 H   0  0  0  0  0  0  0  0  0  0  0  0
    1.7684    5.5904   -0.8749 H   0  0  0  0  0  0  0  0  0  0  0  0
    1.0700    6.9558    0.0285 H   0  0  0  0  0  0  0  0  0  0  0  0
    1.7843    5.5810    0.9049 H   0  0  0  0  0  0  0  0  0  0  0  0
    3.2435    1.6473    0.4936 H   0  0  0  0  0  0  0  0  0  0  0  0
    2.3746    0.0938    0.4934 H   0  0  0  0  0  0  0  0  0  0  0  0
    2.0802   -1.1558   -1.5574 H   0  0  0  0  0  0  0  0  0  0  0  0
    3.6511    3.1785   -0.6416 H   0  0  0  0  0  0  0  0  0  0  0  0
    4.3973    3.6835   -2.0596 H   0  0  0  0  0  0  0  0  0  0  0  0
    3.8402   -0.6747   -5.7230 H   0  0  0  0  0  0  0  0  0  0  0  0
    4.5384    0.8524   -5.7782 H   0  0  0  0  0  0  0  0  0  0  0  0
   -2.3450    2.8133   -2.4265 H   0  0  0  0  0  0  0  0  0  0  0  0
   -4.1036    2.8304   -2.7005 H   0  0  0  0  0  0  0  0  0  0  0  0
   -3.2293    4.3581   -2.4360 H   0  0  0  0  0  0  0  0  0  0  0  0
    2.9903   -0.6196   -3.3669 N   0  3  0  0  0  0  0  0  0  0  0  0
    2.7625   -1.4930   -3.7973 H   0  0  0  0  0  0  0  0  0  0  0  0
  1  2  1  0  0  0  0
  1 24  1  0  0  0  0
  1 25  1  0  0  0  0
  1 26  1  0  0  0  0
  2 11  1  0  0  0  0
  2  3  1  0  0  0  0
  2 23  1  0  0  0  0
  3  4  2  0  0  0  0
  3 27  1  0  0  0  0
  4  5  1  0  0  0  0
  4 22  1  0  0  0  0
  5 10  2  0  0  0  0
  5  6  1  0  0  0  0
  6  7  2  0  0  0  0
  6 28  1  0  0  0  0
  7  8  1  0  0  0  0
  7 14  1  0  0  0  0
  8  9  2  0  0  0  0
  8 29  1  0  0  0  0
  9 10  1  0  0  0  0
  9 12  1  0  0  0  0
 10 11  1  0  0  0  0
 12 13  1  0  0  0  0
 13 30  1  0  0  0  0
 13 31  1  0  0  0  0
 13 32  1  0  0  0  0
 14 15  1  0  0  0  0
 14 33  1  0  0  0  0
 14 34  1  0  0  0  0
 15 19  2  0  0  0  0
 15 16  1  0  0  0  0
 16 35  1  0  0  0  0
 16 43  2  0  0  0  0
 17 18  2  0  0  0  0
 17 21  1  0  0  0  0
 17 43  1  0  0  0  0
 18 19  1  0  0  0  0
 19 20  1  0  0  0  0
 20 36  1  0  0  0  0
 20 37  1  0  0  0  0
 21 38  1  0  0  0  0
 21 39  1  0  0  0  0
 23 40  1  0  0  0  0
 23 41  1  0  0  0  0
 23 42  1  0  0  0  0
 43 44  1  0  0  0  0
M  CHG  1  43   1
M  END
$$$$
ZINC00027440
  -OEChem-08230709453D

 47 49  0     1  0  0  0  0  0999 V2000
    5.8214    2.5436   -1.2101 C   0  0  0  0  0  0  0  0  0  0  0  0
    4.3594    2.1139   -1.3473 C   0  0  2  0  0  0  0  0  0  0  0  0
    3.8536    2.7801   -2.0461 H   0  0  0  0  0  0  0  0  0  0  0  0
    3.6777    2.2034    0.0174 C   0  0  0  0  0  0  0  0  0  0  0  0
    2.3800    1.4340   -0.0137 C   0  0  0  0  0  0  0  0  0  0  0  0
    1.1757    2.1026    0.0021 C   0  0  0  0  0  0  0  0  0  0  0  0
   -0.0168    1.3909    0.0097 C   0  0  0  0  0  0  0  0  0  0  0  0
    0.0021   -0.0041    0.0020 C   0  0  0  0  0  0  0  0  0  0  0  0
    1.2070   -0.6791   -0.0217 C   0  0  0  0  0  0  0  0  0  0  0  0
    2.4063    0.0351   -0.0383 C   0  0  0  0  0  0  0  0  0  0  0  0
    3.6969   -0.6841   -0.1057 C   0  0  0  0  0  0  0  0  0  0  0  0
    4.5806   -0.3280   -1.0042 N   0  0  0  0  0  0  0  0  0  0  0  0
    4.3052    0.7487   -1.8592 N   0  0  0  0  0  0  0  0  0  0  0  0
    3.9908    0.5232   -3.1502 C   0  0  0  0  0  0  0  0  0  0  0  0
    3.7524    1.4560   -3.8884 O   0  0  0  0  0  0  0  0  0  0  0  0
    3.9354   -0.8877   -3.6768 C   0  0  0  0  0  0  0  0  0  0  0  0
    3.9864   -1.7925    0.8311 C   0  0  0  0  0  0  0  0  0  0  0  0
    3.0418   -2.1622    1.7901 C   0  0  0  0  0  0  0  0  0  0  0  0
    3.3115   -3.1987    2.6570 C   0  0  0  0  0  0  0  0  0  0  0  0
    4.5284   -3.8681    2.5853 C   0  0  0  0  0  0  0  0  0  0  0  0
    5.4736   -3.4981    1.6347 C   0  0  0  0  0  0  0  0  0  0  0  0
    5.2068   -2.4665    0.7612 C   0  0  0  0  0  0  0  0  0  0  0  0
    4.8012   -4.9129    3.4683 N   0  0  0  0  0  0  0  0  0  0  0  0
   -1.1665   -0.6998    0.0183 O   0  0  0  0  0  0  0  0  0  0  0  0
   -1.0728   -2.1257    0.0092 C   0  0  0  0  0  0  0  0  0  0  0  0
   -1.2368    2.0727    0.0192 N   0  0  0  0  0  0  0  0  0  0  0  0
    6.3288    1.8857   -0.5044 H   0  0  0  0  0  0  0  0  0  0  0  0
    6.3112    2.4810   -2.1818 H   0  0  0  0  0  0  0  0  0  0  0  0
    5.8658    3.5701   -0.8462 H   0  0  0  0  0  0  0  0  0  0  0  0
    3.4748    3.2479    0.2539 H   0  0  0  0  0  0  0  0  0  0  0  0
    4.3326    1.7798    0.7788 H   0  0  0  0  0  0  0  0  0  0  0  0
    1.1589    3.1824    0.0086 H   0  0  0  0  0  0  0  0  0  0  0  0
    1.2213   -1.7589   -0.0277 H   0  0  0  0  0  0  0  0  0  0  0  0
    4.1771   -1.5848   -2.8744 H   0  0  0  0  0  0  0  0  0  0  0  0
    2.9330   -1.0971   -4.0503 H   0  0  0  0  0  0  0  0  0  0  0  0
    4.6561   -1.0019   -4.4866 H   0  0  0  0  0  0  0  0  0  0  0  0
    2.0987   -1.6393    1.8495 H   0  0  0  0  0  0  0  0  0  0  0  0
    2.5791   -3.4883    3.3960 H   0  0  0  0  0  0  0  0  0  0  0  0
    6.4175   -4.0202    1.5808 H   0  0  0  0  0  0  0  0  0  0  0  0
    5.9413   -2.1793    0.0233 H   0  0  0  0  0  0  0  0  0  0  0  0
    5.6495   -5.3806    3.4190 H   0  0  0  0  0  0  0  0  0  0  0  0
    4.1425   -5.1717    4.1318 H   0  0  0  0  0  0  0  0  0  0  0  0
   -0.5516   -2.4498   -0.8915 H   0  0  0  0  0  0  0  0  0  0  0  0
   -0.5212   -2.4592    0.8881 H   0  0  0  0  0  0  0  0  0  0  0  0
   -2.0743   -2.5557    0.0240 H   0  0  0  0  0  0  0  0  0  0  0  0
   -2.0699    1.5760    0.0204 H   0  0  0  0  0  0  0  0  0  0  0  0
   -1.2503    3.0426    0.0245 H   0  0  0  0  0  0  0  0  0  0  0  0
  1  2  1  0  0  0  0
  1 27  1  0  0  0  0
  1 28  1  0  0  0  0
  1 29  1  0  0  0  0
  2  3  1  0  0  0  0
  2 13  1  0  0  0  0
  2  4  1  0  0  0  0
  4  5  1  0  0  0  0
  4 30  1  0  0  0  0
  4 31  1  0  0  0  0
  5 10  2  0  0  0  0
  5  6  1  0  0  0  0
  6  7  2  0  0  0  0
  6 32  1  0  0  0  0
  7  8  1  0  0  0  0
  7 26  1  0  0  0  0
  8  9  2  0  0  0  0
  8 24  1  0  0  0  0
  9 10  1  0  0  0  0
  9 33  1  0  0  0  0
 10 11  1  0  0  0  0
 11 12  2  0  0  0  0
 11 17  1  0  0  0  0
 12 13  1  0  0  0  0
 13 14  1  0  0  0  0
 14 15  2  0  0  0  0
 14 16  1  0  0  0  0
 16 34  1  0  0  0  0
 16 35  1  0  0  0  0
 16 36  1  0  0  0  0
 17 22  2  0  0  0  0
 17 18  1  0  0  0  0
 18 19  2  0  0  0  0
 18 37  1  0  0  0  0
 19 20  1  0  0  0  0
 19 38  1  0  0  0  0
 20 21  2  0  0  0  0
 20 23  1  0  0  0  0
 21 22  1  0  0  0  0
 21 39  1  0  0  0  0
 22 40  1  0  0  0  0
 23 41  1  0  0  0  0
 23 42  1  0  0  0  0
 24 25  1  0  0  0  0
 25 43  1  0  0  0  0
 25 44  1  0  0  0  0
 25 45  1  0  0  0  0
 26 46  1  0  0  0  0
 26 47  1  0  0  0  0
M  END
$$$$
ZINC00035353
  -OEChem-08230709453D

 44 46  0     0  0  0  0  0  0999 V2000
   12.1771   -5.1712    2.9136 C   0  0  0  0  0  0  0  0  0  0  0  0
   12.3417   -4.2111    1.9323 C   0  0  0  0  0  0  0  0  0  0  0  0
   11.2556   -3.4817    1.4888 C   0  0  0  0  0  0  0  0  0  0  0  0
    9.9989   -3.7132    2.0290 C   0  0  0  0  0  0  0  0  0  0  0  0
    9.8374   -4.6730    3.0175 C   0  0  0  0  0  0  0  0  0  0  0  0
   10.9256   -5.4040    3.4532 C   0  0  0  0  0  0  0  0  0  0  0  0
    8.9288   -2.9969    1.5944 O   0  0  0  0  0  0  0  0  0  0  0  0
    7.6655   -3.2887    2.1953 C   0  0  0  0  0  0  0  0  0  0  0  0
    6.6059   -2.4031    1.5922 C   0  0  0  0  0  0  0  0  0  0  0  0
    6.9031   -1.6010    0.7324 O   0  0  0  0  0  0  0  0  0  0  0  0
    5.3278   -2.5024    2.0082 N   0  0  0  0  0  0  0  0  0  0  0  0
    4.3527   -1.6875    1.4532 C   0  0  0  0  0  0  0  0  0  0  0  0
    2.9989   -1.6418    1.7462 C   0  0  0  0  0  0  0  0  0  0  0  0
    2.1793   -0.6844    1.0159 C   0  0  0  0  0  0  0  0  0  0  0  0
    2.8465    0.0615    0.1096 C   0  0  0  0  0  0  0  0  0  0  0  0
    4.5302   -0.4795    0.2249 S   0  0  0  0  0  0  0  0  0  0  0  0
    2.2880    1.1048   -0.8069 C   0  0  0  0  0  0  0  0  0  0  0  0
    1.4064    2.0676   -0.0003 C   0  0  0  0  0  0  0  0  0  0  0  0
   -0.0186    1.5231    0.0104 C   0  0  0  0  0  0  0  0  0  0  0  0
    0.0021   -0.0041    0.0020 C   0  0  0  0  0  0  0  0  0  0  0  0
    0.6826   -0.5346    1.2591 C   0  0  0  0  0  0  0  0  0  0  0  0
    2.4117   -2.5267    2.7571 C   0  0  0  0  0  0  0  0  0  0  0  0
    1.9825   -3.6190    2.4343 O   0  0  0  0  0  0  0  0  0  0  0  0
    2.3472   -2.1307    4.0437 N   0  0  0  0  0  0  0  0  0  0  0  0
   13.0275   -5.7404    3.2589 H   0  0  0  0  0  0  0  0  0  0  0  0
   13.3202   -4.0316    1.5118 H   0  0  0  0  0  0  0  0  0  0  0  0
   11.3847   -2.7317    0.7226 H   0  0  0  0  0  0  0  0  0  0  0  0
    8.8609   -4.8519    3.4428 H   0  0  0  0  0  0  0  0  0  0  0  0
   10.7996   -6.1545    4.2196 H   0  0  0  0  0  0  0  0  0  0  0  0
    7.7231   -3.1072    3.2685 H   0  0  0  0  0  0  0  0  0  0  0  0
    7.4109   -4.3334    2.0166 H   0  0  0  0  0  0  0  0  0  0  0  0
    5.0900   -3.1439    2.6958 H   0  0  0  0  0  0  0  0  0  0  0  0
    3.1052    1.6594   -1.2681 H   0  0  0  0  0  0  0  0  0  0  0  0
    1.6894    0.6258   -1.5818 H   0  0  0  0  0  0  0  0  0  0  0  0
    1.4186    3.0530   -0.4660 H   0  0  0  0  0  0  0  0  0  0  0  0
    1.7796    2.1373    1.0215 H   0  0  0  0  0  0  0  0  0  0  0  0
   -0.5493    1.8822   -0.8714 H   0  0  0  0  0  0  0  0  0  0  0  0
   -0.5323    1.8726    0.9060 H   0  0  0  0  0  0  0  0  0  0  0  0
   -1.0209   -0.3781   -0.0391 H   0  0  0  0  0  0  0  0  0  0  0  0
    0.5456   -0.3523   -0.8763 H   0  0  0  0  0  0  0  0  0  0  0  0
    0.5174    0.1616    2.0813 H   0  0  0  0  0  0  0  0  0  0  0  0
    0.2603   -1.5059    1.5168 H   0  0  0  0  0  0  0  0  0  0  0  0
    2.6892   -1.2602    4.3010 H   0  0  0  0  0  0  0  0  0  0  0  0
    1.9587   -2.7161    4.7125 H   0  0  0  0  0  0  0  0  0  0  0  0
  1  6  2  0  0  0  0
  1  2  1  0  0  0  0
  1 25  1  0  0  0  0
  2  3  2  0  0  0  0
  2 26  1  0  0  0  0
  3  4  1  0  0  0  0
  3 27  1  0  0  0  0
  4  5  2  0  0  0  0
  4  7  1  0  0  0  0
  5  6  1  0  0  0  0
  5 28  1  0  0  0  0
  6 29  1  0  0  0  0
  7  8  1  0  0  0  0
  8  9  1  0  0  0  0
  8 30  1  0  0  0  0
  8 31  1  0  0  0  0
  9 10  2  0  0  0  0
  9 11  1  0  0  0  0
 11 12  1  0  0  0  0
 11 32  1  0  0  0  0
 12 16  1  0  0  0  0
 12 13  2  0  0  0  0
 13 14  1  0  0  0  0
 13 22  1  0  0  0  0
 14 21  1  0  0  0  0
 14 15  2  0  0  0  0
 15 16  1  0  0  0  0
 15 17  1  0  0  0  0
 17 18  1  0  0  0  0
 17 33  1  0  0  0  0
 17 34  1  0  0  0  0
 18 19  1  0  0  0  0
 18 35  1  0  0  0  0
 18 36  1  0  0  0  0
 19 20  1  0  0  0  0
 19 37  1  0  0  0  0
 19 38  1  0  0  0  0
 20 21  1  0  0  0  0
 20 39  1  0  0  0  0
 20 40  1  0  0  0  0
 21 41  1  0  0  0  0
 21 42  1  0  0  0  0
 22 23  2  0  0  0  0
 22 24  1  0  0  0  0
 24 43  1  0  0  0  0
 24 44  1  0  0  0  0
M  END
$$$$
ZINC00036871
  -OEChem-08230709453D

 42 45  0     0  0  0  0  0  0999 V2000
   -3.2697    2.8279  -11.8621 C   0  0  0  0  0  0  0  0  0  0  0  0
   -2.4551    2.9111  -10.7473 C   0  0  0  0  0  0  0  0  0  0  0  0
   -2.6178    1.9575   -9.7387 C   0  0  0  0  0  0  0  0  0  0  0  0
   -3.6002    0.9629   -9.8936 C   0  0  0  0  0  0  0  0  0  0  0  0
   -3.5260    0.1748   -8.7604 N   0  0  0  0  0  0  0  0  0  0  0  0
   -1.2794    2.3062   -8.1584 H   0  0  0  0  0  0  0  0  0  0  0  0
   -2.5425    0.6942   -7.9653 C   0  0  0  0  0  0  0  0  0  0  0  0
   -2.0139    1.7460   -8.5415 N   0  0  0  0  0  0  0  0  0  0  0  0
   -2.0581    0.0463   -6.4000 S   0  0  0  0  0  0  0  0  0  0  0  0
   -0.7490    1.2187   -5.9661 C   0  0  0  0  0  0  0  0  0  0  0  0
   -0.1702    0.8512   -4.6241 C   0  0  0  0  0  0  0  0  0  0  0  0
    0.8548    0.0199   -4.5537 N   0  0  0  0  0  0  0  0  0  0  0  0
    1.3687   -0.3070   -3.3702 C   0  0  0  0  0  0  0  0  0  0  0  0
    0.8499    0.2037   -2.2587 N   0  0  0  0  0  0  0  0  0  0  0  0
   -0.1803    1.0390   -2.3335 C   0  0  0  0  0  0  0  0  0  0  0  0
   -0.6923    1.3569   -3.5205 N   0  0  0  0  0  0  0  0  0  0  0  0
   -0.7225    1.5721   -1.1820 N   0  0  0  0  0  0  0  0  0  0  0  0
   -0.0127    1.0858    0.0080 C   0  0  0  0  0  0  0  0  0  0  0  0
   -0.7286    1.5791    1.2674 C   0  0  0  0  0  0  0  0  0  0  0  0
   -0.7644    3.1099    1.2618 C   0  0  0  0  0  0  0  0  0  0  0  0
   -1.4660    3.5913   -0.0113 C   0  0  0  0  0  0  0  0  0  0  0  0
   -0.7289    3.0396   -1.2338 C   0  0  0  0  0  0  0  0  0  0  0  0
    2.4392   -1.1748   -3.2978 N   0  0  0  0  0  0  0  0  0  0  0  0
   -4.3483    0.9259  -10.9832 N   0  0  0  0  0  0  0  0  0  0  0  0
   -4.2108    1.8156  -11.9459 C   0  0  0  0  0  0  0  0  0  0  0  0
   -3.1726    3.5477  -12.6614 H   0  0  0  0  0  0  0  0  0  0  0  0
   -1.7134    3.6911  -10.6589 H   0  0  0  0  0  0  0  0  0  0  0  0
   -1.1638    2.2256   -5.9195 H   0  0  0  0  0  0  0  0  0  0  0  0
    0.0354    1.1835   -6.7220 H   0  0  0  0  0  0  0  0  0  0  0  0
    0.0021   -0.0041    0.0020 H   0  0  0  0  0  0  0  0  0  0  0  0
    1.0099    1.4629    0.0003 H   0  0  0  0  0  0  0  0  0  0  0  0
   -1.7471    1.1912    1.2827 H   0  0  0  0  0  0  0  0  0  0  0  0
   -0.1928    1.2311    2.1505 H   0  0  0  0  0  0  0  0  0  0  0  0
    0.2538    3.4983    1.2857 H   0  0  0  0  0  0  0  0  0  0  0  0
   -1.3112    3.4647    2.1354 H   0  0  0  0  0  0  0  0  0  0  0  0
   -1.4570    4.6808   -0.0419 H   0  0  0  0  0  0  0  0  0  0  0  0
   -2.4961    3.2350   -0.0160 H   0  0  0  0  0  0  0  0  0  0  0  0
    0.2971    3.4074   -1.2358 H   0  0  0  0  0  0  0  0  0  0  0  0
   -1.2345    3.3688   -2.1416 H   0  0  0  0  0  0  0  0  0  0  0  0
    2.8134   -1.4124   -2.4350 H   0  0  0  0  0  0  0  0  0  0  0  0
    2.8174   -1.5473   -4.1097 H   0  0  0  0  0  0  0  0  0  0  0  0
   -4.8453    1.7542  -12.8178 H   0  0  0  0  0  0  0  0  0  0  0  0
  1 25  2  0  0  0  0
  1  2  1  0  0  0  0
  1 26  1  0  0  0  0
  2  3  2  0  0  0  0
  2 27  1  0  0  0  0
  3  8  1  0  0  0  0
  3  4  1  0  0  0  0
  4  5  1  0  0  0  0
  4 24  2  0  0  0  0
  5  7  2  0  0  0  0
  6  8  1  0  0  0  0
  7  9  1  0  0  0  0
  7  8  1  0  0  0  0
  9 10  1  0  0  0  0
 10 11  1  0  0  0  0
 10 28  1  0  0  0  0
 10 29  1  0  0  0  0
 11 16  2  0  0  0  0
 11 12  1  0  0  0  0
 12 13  2  0  0  0  0
 13 14  1  0  0  0  0
 13 23  1  0  0  0  0
 14 15  2  0  0  0  0
 15 16  1  0  0  0  0
 15 17  1  0  0  0  0
 17 22  1  0  0  0  0
 17 18  1  0  0  0  0
 18 19  1  0  0  0  0
 18 30  1  0  0  0  0
 18 31  1  0  0  0  0
 19 20  1  0  0  0  0
 19 32  1  0  0  0  0
 19 33  1  0  0  0  0
 20 21  1  0  0  0  0
 20 34  1  0  0  0  0
 20 35  1  0  0  0  0
 21 22  1  0  0  0  0
 21 36  1  0  0  0  0
 21 37  1  0  0  0  0
 22 38  1  0  0  0  0
 22 39  1  0  0  0  0
 23 40  1  0  0  0  0
 23 41  1  0  0  0  0
 24 25  1  0  0  0  0
 25 42  1  0  0  0  0
M  END
$$$$
ZINC00038397
  -OEChem-08230709453D

 41 42  0     0  0  0  0  0  0999 V2000
   10.8978    0.5677   -0.1015 C   0  0  0  0  0  0  0  0  0  0  0  0
    9.4152    0.2981   -0.0882 C   0  0  0  0  0  0  0  0  0  0  0  0
    8.9306   -0.9568   -0.0902 C   0  0  0  0  0  0  0  0  0  0  0  0
    7.1665   -0.7148   -0.0648 S   0  0  0  0  0  0  0  0  0  0  0  0
    7.1121    1.0159   -0.0621 C   0  0  0  0  0  0  0  0  0  0  0  0
    8.4546    1.3755   -0.0731 C   0  0  0  0  0  0  0  0  0  0  0  0
    8.8746    2.7803   -0.0701 C   0  0  0  0  0  0  0  0  0  0  0  0
    9.0594    3.3579    0.9851 O   0  0  0  0  0  0  0  0  0  0  0  0
    9.0560    3.4319   -1.2358 N   0  0  0  0  0  0  0  0  0  0  0  0
    5.9990    1.8427   -0.0464 N   0  0  0  0  0  0  0  0  0  0  0  0
    4.7621    1.3075   -0.0374 C   0  0  0  0  0  0  0  0  0  0  0  0
    4.6226    0.1028   -0.0430 O   0  0  0  0  0  0  0  0  0  0  0  0
    3.5524    2.2061   -0.0205 C   0  0  0  0  0  0  0  0  0  0  0  0
    2.3667    1.4085   -0.0135 O   0  0  0  0  0  0  0  0  0  0  0  0
    1.1782    2.0694    0.0019 C   0  0  0  0  0  0  0  0  0  0  0  0
    1.1542    3.4548    0.0096 C   0  0  0  0  0  0  0  0  0  0  0  0
   -0.0548    4.1250    0.0248 C   0  0  0  0  0  0  0  0  0  0  0  0
   -1.2417    3.4160    0.0319 C   0  0  0  0  0  0  0  0  0  0  0  0
   -1.2248    2.0337    0.0189 C   0  0  0  0  0  0  0  0  0  0  0  0
   -0.0164    1.3557    0.0095 C   0  0  0  0  0  0  0  0  0  0  0  0
    0.0021   -0.0041    0.0020 O   0  0  0  0  0  0  0  0  0  0  0  0
   -1.2622   -0.6701    0.0105 C   0  0  0  0  0  0  0  0  0  0  0  0
    9.6962   -2.2547   -0.1041 C   0  0  0  0  0  0  0  0  0  0  0  0
   11.2655    0.6274    0.9228 H   0  0  0  0  0  0  0  0  0  0  0  0
   11.4093   -0.2403   -0.6246 H   0  0  0  0  0  0  0  0  0  0  0  0
   11.0910    1.5109   -0.6125 H   0  0  0  0  0  0  0  0  0  0  0  0
    8.9087    2.9715   -2.0768 H   0  0  0  0  0  0  0  0  0  0  0  0
    9.3338    4.3613   -1.2338 H   0  0  0  0  0  0  0  0  0  0  0  0
    6.1106    2.8062   -0.0420 H   0  0  0  0  0  0  0  0  0  0  0  0
    3.5585    2.8403   -0.9069 H   0  0  0  0  0  0  0  0  0  0  0  0
    3.5759    2.8301    0.8729 H   0  0  0  0  0  0  0  0  0  0  0  0
    2.0799    4.0110    0.0034 H   0  0  0  0  0  0  0  0  0  0  0  0
   -0.0722    5.2048    0.0308 H   0  0  0  0  0  0  0  0  0  0  0  0
   -2.1842    3.9432    0.0430 H   0  0  0  0  0  0  0  0  0  0  0  0
   -2.1534    1.4823    0.0199 H   0  0  0  0  0  0  0  0  0  0  0  0
   -1.8316   -0.3800   -0.8725 H   0  0  0  0  0  0  0  0  0  0  0  0
   -1.1047   -1.7486    0.0032 H   0  0  0  0  0  0  0  0  0  0  0  0
   -1.8146   -0.3896    0.9073 H   0  0  0  0  0  0  0  0  0  0  0  0
    9.8904   -2.5730    0.9201 H   0  0  0  0  0  0  0  0  0  0  0  0
    9.1095   -3.0172   -0.6165 H   0  0  0  0  0  0  0  0  0  0  0  0
   10.6426   -2.1127   -0.6261 H   0  0  0  0  0  0  0  0  0  0  0  0
  1  2  1  0  0  0  0
  1 24  1  0  0  0  0
  1 25  1  0  0  0  0
  1 26  1  0  0  0  0
  2  6  1  0  0  0  0
  2  3  2  0  0  0  0
  3  4  1  0  0  0  0
  3 23  1  0  0  0  0
  4  5  1  0  0  0  0
  5  6  2  0  0  0  0
  5 10  1  0  0  0  0
  6  7  1  0  0  0  0
  7  8  2  0  0  0  0
  7  9  1  0  0  0  0
  9 27  1  0  0  0  0
  9 28  1  0  0  0  0
 10 11  1  0  0  0  0
 10 29  1  0  0  0  0
 11 12  2  0  0  0  0
 11 13  1  0  0  0  0
 13 14  1  0  0  0  0
 13 30  1  0  0  0  0
 13 31  1  0  0  0  0
 14 15  1  0  0  0  0
 15 20  2  0  0  0  0
 15 16  1  0  0  0  0
 16 17  2  0  0  0  0
 16 32  1  0  0  0  0
 17 18  1  0  0  0  0
 17 33  1  0  0  0  0
 18 19  2  0  0  0  0
 18 34  1  0  0  0  0
 19 20  1  0  0  0  0
 19 35  1  0  0  0  0
 20 21  1  0  0  0  0
 21 22  1  0  0  0  0
 22 36  1  0  0  0  0
 22 37  1  0  0  0  0
 22 38  1  0  0  0  0
 23 39  1  0  0  0  0
 23 40  1  0  0  0  0
 23 41  1  0  0  0  0
M  END
$$$$
ZINC00067591
  -OEChem-08230709453D

 42 43  0     0  0  0  0  0  0999 V2000
   -0.4343   -2.1639    9.3310 C   0  0  0  0  0  0  0  0  0  0  0  0
    0.7535   -2.2615    8.4086 C   0  0  0  0  0  0  0  0  0  0  0  0
    2.0142   -2.4868    8.9262 C   0  0  0  0  0  0  0  0  0  0  0  0
    3.1043   -2.5768    8.0805 C   0  0  0  0  0  0  0  0  0  0  0  0
    2.9366   -2.4418    6.7143 C   0  0  0  0  0  0  0  0  0  0  0  0
    1.6781   -2.2222    6.1901 C   0  0  0  0  0  0  0  0  0  0  0  0
    0.5816   -2.1255    7.0373 C   0  0  0  0  0  0  0  0  0  0  0  0
   -0.6937   -1.8973    6.5100 N   0  0  0  0  0  0  0  0  0  0  0  0
   -0.8645   -0.9897    5.5283 C   0  0  0  0  0  0  0  0  0  0  0  0
    0.4932   -0.2010    4.8461 S   0  0  0  0  0  0  0  0  0  0  0  0
   -2.1041   -0.7032    5.0837 N   0  0  0  0  0  0  0  0  0  0  0  0
   -2.2756    0.1700    4.0045 C   0  0  0  0  0  0  0  0  0  0  0  0
   -1.5890    1.3755    3.9705 C   0  0  0  0  0  0  0  0  0  0  0  0
   -1.7622    2.2391    2.8984 C   0  0  0  0  0  0  0  0  0  0  0  0
   -2.6267    1.8970    1.8652 C   0  0  0  0  0  0  0  0  0  0  0  0
   -3.3042    0.6937    1.8995 C   0  0  0  0  0  0  0  0  0  0  0  0
   -3.1338   -0.1684    2.9659 C   0  0  0  0  0  0  0  0  0  0  0  0
   -3.8794   -1.4775    3.0019 C   0  0  0  0  0  0  0  0  0  0  0  0
   -1.0730    3.4533    2.8602 N   0  0  0  0  0  0  0  0  0  0  0  0
   -0.3238    3.9366    1.4647 S   0  0  0  0  0  0  0  0  0  0  0  0
    0.3131    5.1617    1.8006 O   0  0  0  0  0  0  0  0  0  0  0  0
   -1.3419    3.8973    0.4742 O   0  0  0  0  0  0  0  0  0  0  0  0
    0.9184    2.6565    1.1350 C   0  0  0  0  0  0  0  0  0  0  0  0
   -0.8677   -3.1542    9.4712 H   0  0  0  0  0  0  0  0  0  0  0  0
   -0.1144   -1.7675   10.2946 H   0  0  0  0  0  0  0  0  0  0  0  0
   -1.1799   -1.4995    8.8942 H   0  0  0  0  0  0  0  0  0  0  0  0
    2.1484   -2.5930    9.9925 H   0  0  0  0  0  0  0  0  0  0  0  0
    4.0889   -2.7534    8.4877 H   0  0  0  0  0  0  0  0  0  0  0  0
    3.7901   -2.5127    6.0565 H   0  0  0  0  0  0  0  0  0  0  0  0
    1.5471   -2.1217    5.1228 H   0  0  0  0  0  0  0  0  0  0  0  0
   -1.4551   -2.3922    6.8508 H   0  0  0  0  0  0  0  0  0  0  0  0
   -2.8774   -1.1024    5.5122 H   0  0  0  0  0  0  0  0  0  0  0  0
   -0.9215    1.6410    4.7770 H   0  0  0  0  0  0  0  0  0  0  0  0
   -2.7654    2.5707    1.0325 H   0  0  0  0  0  0  0  0  0  0  0  0
   -3.9723    0.4283    1.0935 H   0  0  0  0  0  0  0  0  0  0  0  0
   -4.8365   -1.3369    3.5041 H   0  0  0  0  0  0  0  0  0  0  0  0
   -4.0513   -1.8259    1.9834 H   0  0  0  0  0  0  0  0  0  0  0  0
   -3.2897   -2.2167    3.5441 H   0  0  0  0  0  0  0  0  0  0  0  0
   -1.0332    4.0135    3.6511 H   0  0  0  0  0  0  0  0  0  0  0  0
    1.6088    2.5948    1.9763 H   0  0  0  0  0  0  0  0  0  0  0  0
    0.4226    1.6951    1.0007 H   0  0  0  0  0  0  0  0  0  0  0  0
    1.4703    2.9102    0.2300 H   0  0  0  0  0  0  0  0  0  0  0  0
  1  2  1  0  0  0  0
  1 24  1  0  0  0  0
  1 25  1  0  0  0  0
  1 26  1  0  0  0  0
  2  7  2  0  0  0  0
  2  3  1  0  0  0  0
  3  4  2  0  0  0  0
  3 27  1  0  0  0  0
  4  5  1  0  0  0  0
  4 28  1  0  0  0  0
  5  6  2  0  0  0  0
  5 29  1  0  0  0  0
  6  7  1  0  0  0  0
  6 30  1  0  0  0  0
  7  8  1  0  0  0  0
  8  9  1  0  0  0  0
  8 31  1  0  0  0  0
  9 10  2  0  0  0  0
  9 11  1  0  0  0  0
 11 12  1  0  0  0  0
 11 32  1  0  0  0  0
 12 17  2  0  0  0  0
 12 13  1  0  0  0  0
 13 14  2  0  0  0  0
 13 33  1  0  0  0  0
 14 15  1  0  0  0  0
 14 19  1  0  0  0  0
 15 16  2  0  0  0  0
 15 34  1  0  0  0  0
 16 17  1  0  0  0  0
 16 35  1  0  0  0  0
 17 18  1  0  0  0  0
 18 36  1  0  0  0  0
 18 37  1  0  0  0  0
 18 38  1  0  0  0  0
 19 20  1  0  0  0  0
 19 39  1  0  0  0  0
 20 21  2  0  0  0  0
 20 22  2  0  0  0  0
 20 23  1  0  0  0  0
 23 40  1  0  0  0  0
 23 41  1  0  0  0  0
 23 42  1  0  0  0  0
M  END
$$$$
ZINC00068253
  -OEChem-08230709453D

 45 47  0     1  0  0  0  0  0999 V2000
    1.7903   -6.3268   -0.7813 C   0  0  0  0  0  0  0  0  0  0  0  0
    1.5783   -4.8370   -1.0582 C   0  0  0  0  0  0  0  0  0  0  0  0
    0.5012   -4.2918   -0.1182 C   0  0  0  0  0  0  0  0  0  0  0  0
    0.2892   -2.8021   -0.3951 C   0  0  1  0  0  0  0  0  0  0  0  0
    0.0642   -2.6531   -1.4512 H   0  0  0  0  0  0  0  0  0  0  0  0
   -0.8731   -2.2822    0.4557 C   0  0  0  0  0  0  0  0  0  0  0  0
   -1.2525   -0.8688    0.0102 C   0  0  0  0  0  0  0  0  0  0  0  0
    0.0021   -0.0041    0.0020 C   0  0  0  0  0  0  0  0  0  0  0  0
    1.2320   -0.5627   -0.0130 C   0  0  0  0  0  0  0  0  0  0  0  0
    2.3518    0.8085   -0.0161 S   0  0  0  0  0  0  0  0  0  0  0  0
    1.2045    2.1068    0.0019 C   0  0  0  0  0  0  0  0  0  0  0  0
   -0.0176    1.4486    0.0100 C   0  0  0  0  0  0  0  0  0  0  0  0
   -1.2814    2.1919    0.0201 C   0  0  0  0  0  0  0  0  0  0  0  0
   -1.8009    2.4946    1.0783 O   0  0  0  0  0  0  0  0  0  0  0  0
   -1.8679    2.5398   -1.1424 N   0  0  0  0  0  0  0  0  0  0  0  0
    1.4478    3.4706    0.0073 N   0  0  0  0  0  0  0  0  0  0  0  0
    2.7151    3.9290   -0.0024 C   0  0  0  0  0  0  0  0  0  0  0  0
    3.6444    3.1461   -0.0159 O   0  0  0  0  0  0  0  0  0  0  0  0
    2.9752    5.3869    0.0034 C   0  0  0  0  0  0  0  0  0  0  0  0
    1.9204    6.3051    0.0131 C   0  0  0  0  0  0  0  0  0  0  0  0
    2.2087    7.6560    0.0245 C   0  0  0  0  0  0  0  0  0  0  0  0
    3.4561    8.0821    0.0147 N   0  0  0  0  0  0  0  0  0  0  0  0
    4.4791    7.2510   -0.0005 C   0  0  0  0  0  0  0  0  0  0  0  0
    4.2824    5.8838   -0.0065 C   0  0  0  0  0  0  0  0  0  0  0  0
    1.5602   -2.0238   -0.0249 C   0  0  0  0  0  0  0  0  0  0  0  0
    0.8566   -6.8638   -0.9483 H   0  0  0  0  0  0  0  0  0  0  0  0
    2.5576   -6.7152   -1.4510 H   0  0  0  0  0  0  0  0  0  0  0  0
    2.1077   -6.4626    0.2525 H   0  0  0  0  0  0  0  0  0  0  0  0
    1.2610   -4.7012   -2.0921 H   0  0  0  0  0  0  0  0  0  0  0  0
    2.5120   -4.3000   -0.8912 H   0  0  0  0  0  0  0  0  0  0  0  0
    0.8186   -4.4277    0.9156 H   0  0  0  0  0  0  0  0  0  0  0  0
   -0.4325   -4.8289   -0.2853 H   0  0  0  0  0  0  0  0  0  0  0  0
   -0.5746   -2.2635    1.5039 H   0  0  0  0  0  0  0  0  0  0  0  0
   -1.7319   -2.9425    0.3355 H   0  0  0  0  0  0  0  0  0  0  0  0
   -1.9806   -0.4498    0.7047 H   0  0  0  0  0  0  0  0  0  0  0  0
   -1.6787   -0.9038   -0.9924 H   0  0  0  0  0  0  0  0  0  0  0  0
   -1.4539    2.2985   -1.9858 H   0  0  0  0  0  0  0  0  0  0  0  0
   -2.7040    3.0315   -1.1357 H   0  0  0  0  0  0  0  0  0  0  0  0
    0.7060    4.0955    0.0181 H   0  0  0  0  0  0  0  0  0  0  0  0
    0.8960    5.9631    0.0165 H   0  0  0  0  0  0  0  0  0  0  0  0
    1.4010    8.3729    0.0368 H   0  0  0  0  0  0  0  0  0  0  0  0
    5.4849    7.6445   -0.0080 H   0  0  0  0  0  0  0  0  0  0  0  0
    5.1253    5.2087   -0.0189 H   0  0  0  0  0  0  0  0  0  0  0  0
    1.9043   -2.3309    0.9627 H   0  0  0  0  0  0  0  0  0  0  0  0
    2.3387   -2.2199   -0.7623 H   0  0  0  0  0  0  0  0  0  0  0  0
  1  2  1  0  0  0  0
  1 26  1  0  0  0  0
  1 27  1  0  0  0  0
  1 28  1  0  0  0  0
  2  3  1  0  0  0  0
  2 29  1  0  0  0  0
  2 30  1  0  0  0  0
  3  4  1  0  0  0  0
  3 31  1  0  0  0  0
  3 32  1  0  0  0  0
  4  5  1  0  0  0  0
  4 25  1  0  0  0  0
  4  6  1  0  0  0  0
  6  7  1  0  0  0  0
  6 33  1  0  0  0  0
  6 34  1  0  0  0  0
  7  8  1  0  0  0  0
  7 35  1  0  0  0  0
  7 36  1  0  0  0  0
  8 12  1  0  0  0  0
  8  9  2  0  0  0  0
  9 10  1  0  0  0  0
  9 25  1  0  0  0  0
 10 11  1  0  0  0  0
 11 12  2  0  0  0  0
 11 16  1  0  0  0  0
 12 13  1  0  0  0  0
 13 14  2  0  0  0  0
 13 15  1  0  0  0  0
 15 37  1  0  0  0  0
 15 38  1  0  0  0  0
 16 17  1  0  0  0  0
 16 39  1  0  0  0  0
 17 18  2  0  0  0  0
 17 19  1  0  0  0  0
 19 24  2  0  0  0  0
 19 20  1  0  0  0  0
 20 21  2  0  0  0  0
 20 40  1  0  0  0  0
 21 22  1  0  0  0  0
 21 41  1  0  0  0  0
 22 23  2  0  0  0  0
 23 24  1  0  0  0  0
 23 42  1  0  0  0  0
 24 43  1  0  0  0  0
 25 44  1  0  0  0  0
 25 45  1  0  0  0  0
M  END
$$$$
ZINC00068254
  -OEChem-08230709453D

 45 47  0     1  0  0  0  0  0999 V2000
   -0.7527    1.5927   -1.2315 C   0  0  0  0  0  0  0  0  0  0  0  0
   -0.0127    1.0858    0.0080 C   0  0  0  0  0  0  0  0  0  0  0  0
   -0.7288    1.5792    1.2668 C   0  0  0  0  0  0  0  0  0  0  0  0
    0.0111    1.0724    2.5063 C   0  0  2  0  0  0  0  0  0  0  0  0
    0.1090   -0.0120    2.4555 H   0  0  0  0  0  0  0  0  0  0  0  0
   -0.7711    1.4587    3.7649 C   0  0  0  0  0  0  0  0  0  0  0  0
   -0.1776    0.7506    4.9841 C   0  0  0  0  0  0  0  0  0  0  0  0
    1.3215    1.0202    5.0261 C   0  0  0  0  0  0  0  0  0  0  0  0
    1.9822    1.4490    3.9286 C   0  0  0  0  0  0  0  0  0  0  0  0
    3.6649    1.6200    4.4514 S   0  0  0  0  0  0  0  0  0  0  0  0
    3.4957    1.1287    6.1043 C   0  0  0  0  0  0  0  0  0  0  0  0
    2.1414    0.8442    6.2125 C   0  0  0  0  0  0  0  0  0  0  0  0
    1.5600    0.3828    7.4769 C   0  0  0  0  0  0  0  0  0  0  0  0
    1.5067   -0.8079    7.7236 O   0  0  0  0  0  0  0  0  0  0  0  0
    1.0846    1.2771    8.3661 N   0  0  0  0  0  0  0  0  0  0  0  0
    4.4743    1.0414    7.0809 N   0  0  0  0  0  0  0  0  0  0  0  0
    5.7499    1.3626    6.7873 C   0  0  0  0  0  0  0  0  0  0  0  0
    6.0416    1.7287    5.6658 O   0  0  0  0  0  0  0  0  0  0  0  0
    6.7960    1.2693    7.8313 C   0  0  0  0  0  0  0  0  0  0  0  0
    6.4809    0.8559    9.1296 C   0  0  0  0  0  0  0  0  0  0  0  0
    7.4890    0.7783   10.0709 C   0  0  0  0  0  0  0  0  0  0  0  0
    8.7300    1.0973    9.7615 N   0  0  0  0  0  0  0  0  0  0  0  0
    9.0689    1.4968    8.5519 C   0  0  0  0  0  0  0  0  0  0  0  0
    8.1255    1.5978    7.5479 C   0  0  0  0  0  0  0  0  0  0  0  0
    1.4041    1.7153    2.5730 C   0  0  0  0  0  0  0  0  0  0  0  0
   -0.2425    1.2411   -2.1283 H   0  0  0  0  0  0  0  0  0  0  0  0
   -1.7753    1.2154   -1.2238 H   0  0  0  0  0  0  0  0  0  0  0  0
   -0.7675    2.6825   -1.2255 H   0  0  0  0  0  0  0  0  0  0  0  0
    0.0021   -0.0041    0.0020 H   0  0  0  0  0  0  0  0  0  0  0  0
    1.0099    1.4631    0.0003 H   0  0  0  0  0  0  0  0  0  0  0  0
   -0.7436    2.6691    1.2728 H   0  0  0  0  0  0  0  0  0  0  0  0
   -1.7514    1.2020    1.2746 H   0  0  0  0  0  0  0  0  0  0  0  0
   -0.7145    2.5376    3.9096 H   0  0  0  0  0  0  0  0  0  0  0  0
   -1.8138    1.1633    3.6481 H   0  0  0  0  0  0  0  0  0  0  0  0
   -0.6434    1.1338    5.8920 H   0  0  0  0  0  0  0  0  0  0  0  0
   -0.3561   -0.3219    4.9065 H   0  0  0  0  0  0  0  0  0  0  0  0
    1.1271    2.2260    8.1696 H   0  0  0  0  0  0  0  0  0  0  0  0
    0.7000    0.9718    9.2027 H   0  0  0  0  0  0  0  0  0  0  0  0
    4.2415    0.7492    7.9761 H   0  0  0  0  0  0  0  0  0  0  0  0
    5.4655    0.5974    9.3913 H   0  0  0  0  0  0  0  0  0  0  0  0
    7.2564    0.4559   11.0750 H   0  0  0  0  0  0  0  0  0  0  0  0
   10.0982    1.7482    8.3428 H   0  0  0  0  0  0  0  0  0  0  0  0
    8.4103    1.9257    6.5591 H   0  0  0  0  0  0  0  0  0  0  0  0
    2.0466    1.2796    1.8078 H   0  0  0  0  0  0  0  0  0  0  0  0
    1.3203    2.7904    2.4143 H   0  0  0  0  0  0  0  0  0  0  0  0
  1  2  1  0  0  0  0
  1 26  1  0  0  0  0
  1 27  1  0  0  0  0
  1 28  1  0  0  0  0
  2  3  1  0  0  0  0
  2 29  1  0  0  0  0
  2 30  1  0  0  0  0
  3  4  1  0  0  0  0
  3 31  1  0  0  0  0
  3 32  1  0  0  0  0
  4  5  1  0  0  0  0
  4 25  1  0  0  0  0
  4  6  1  0  0  0  0
  6  7  1  0  0  0  0
  6 33  1  0  0  0  0
  6 34  1  0  0  0  0
  7  8  1  0  0  0  0
  7 35  1  0  0  0  0
  7 36  1  0  0  0  0
  8 12  1  0  0  0  0
  8  9  2  0  0  0  0
  9 10  1  0  0  0  0
  9 25  1  0  0  0  0
 10 11  1  0  0  0  0
 11 12  2  0  0  0  0
 11 16  1  0  0  0  0
 12 13  1  0  0  0  0
 13 14  2  0  0  0  0
 13 15  1  0  0  0  0
 15 37  1  0  0  0  0
 15 38  1  0  0  0  0
 16 17  1  0  0  0  0
 16 39  1  0  0  0  0
 17 18  2  0  0  0  0
 17 19  1  0  0  0  0
 19 24  2  0  0  0  0
 19 20  1  0  0  0  0
 20 21  2  0  0  0  0
 20 40  1  0  0  0  0
 21 22  1  0  0  0  0
 21 41  1  0  0  0  0
 22 23  2  0  0  0  0
 23 24  1  0  0  0  0
 23 42  1  0  0  0  0
 24 43  1  0  0  0  0
 25 44  1  0  0  0  0
 25 45  1  0  0  0  0
M  END
$$$$
ZINC00086200
  -OEChem-08230709453D

 39 40  0     0  0  0  0  0  0999 V2000
    0.2178    1.9866    4.9200 C   0  0  0  0  0  0  0  0  0  0  0  0
    0.7711    1.4842    3.6600 N   0  0  0  0  0  0  0  0  0  0  0  0
    0.1102    1.6910    2.5037 C   0  0  0  0  0  0  0  0  0  0  0  0
   -0.9455    2.2946    2.5064 O   0  0  0  0  0  0  0  0  0  0  0  0
    0.6670    1.1854    1.2358 C   0  0  0  0  0  0  0  0  0  0  0  0
    1.8798    0.4916    1.2277 C   0  0  0  0  0  0  0  0  0  0  0  0
    2.3950    0.0221    0.0395 C   0  0  0  0  0  0  0  0  0  0  0  0
    1.7166    0.2338   -1.1508 C   0  0  0  0  0  0  0  0  0  0  0  0
    0.5183    0.9168   -1.1599 C   0  0  0  0  0  0  0  0  0  0  0  0
   -0.0178    1.3983    0.0288 C   0  0  0  0  0  0  0  0  0  0  0  0
   -1.5520    2.2648    0.0217 S   0  0  0  0  0  0  0  0  0  0  0  0
   -1.0865    3.9570    0.1777 C   0  0  0  0  0  0  0  0  0  0  0  0
    0.2557    4.3177    0.1533 C   0  0  0  0  0  0  0  0  0  0  0  0
    0.6173    5.6431    0.2752 C   0  0  0  0  0  0  0  0  0  0  0  0
   -0.3509    6.6244    0.4227 C   0  0  0  0  0  0  0  0  0  0  0  0
   -1.6861    6.2867    0.4492 C   0  0  0  0  0  0  0  0  0  0  0  0
   -2.0696    4.9491    0.3216 C   0  0  0  0  0  0  0  0  0  0  0  0
   -3.4970    4.5814    0.3425 C   0  0  0  0  0  0  0  0  0  0  0  0
   -3.8262    3.4157    0.2349 O   0  0  0  0  0  0  0  0  0  0  0  0
   -4.4371    5.5371    0.4808 N   0  0  0  0  0  0  0  0  0  0  0  0
   -5.8557    5.1717    0.5016 C   0  0  0  0  0  0  0  0  0  0  0  0
    0.0523    8.0428    0.5519 N   0  3  0  0  0  0  0  0  0  0  0  0
    1.2320    8.3451    0.5285 O   0  0  0  0  0  0  0  0  0  0  0  0
   -0.7955    8.9076    0.6816 O   0  5  0  0  0  0  0  0  0  0  0  0
   -0.7605    1.5376    5.0919 H   0  0  0  0  0  0  0  0  0  0  0  0
    0.8865    1.7257    5.7402 H   0  0  0  0  0  0  0  0  0  0  0  0
    0.1155    3.0704    4.8653 H   0  0  0  0  0  0  0  0  0  0  0  0
    1.6131    1.0026    3.6579 H   0  0  0  0  0  0  0  0  0  0  0  0
    2.4126    0.3233    2.1519 H   0  0  0  0  0  0  0  0  0  0  0  0
    3.3325   -0.5143    0.0353 H   0  0  0  0  0  0  0  0  0  0  0  0
    2.1290   -0.1383   -2.0770 H   0  0  0  0  0  0  0  0  0  0  0  0
   -0.0040    1.0776   -2.0914 H   0  0  0  0  0  0  0  0  0  0  0  0
    1.0161    3.5594    0.0384 H   0  0  0  0  0  0  0  0  0  0  0  0
    1.6615    5.9184    0.2554 H   0  0  0  0  0  0  0  0  0  0  0  0
   -2.4360    7.0554    0.5639 H   0  0  0  0  0  0  0  0  0  0  0  0
   -4.1745    6.4670    0.5665 H   0  0  0  0  0  0  0  0  0  0  0  0
   -6.0442    4.4944    1.3345 H   0  0  0  0  0  0  0  0  0  0  0  0
   -6.4607    6.0706    0.6201 H   0  0  0  0  0  0  0  0  0  0  0  0
   -6.1175    4.6783   -0.4344 H   0  0  0  0  0  0  0  0  0  0  0  0
  1  2  1  0  0  0  0
  1 25  1  0  0  0  0
  1 26  1  0  0  0  0
  1 27  1  0  0  0  0
  2  3  1  0  0  0  0
  2 28  1  0  0  0  0
  3  4  2  0  0  0  0
  3  5  1  0  0  0  0
  5 10  2  0  0  0  0
  5  6  1  0  0  0  0
  6  7  2  0  0  0  0
  6 29  1  0  0  0  0
  7  8  1  0  0  0  0
  7 30  1  0  0  0  0
  8  9  2  0  0  0  0
  8 31  1  0  0  0  0
  9 10  1  0  0  0  0
  9 32  1  0  0  0  0
 10 11  1  0  0  0  0
 11 12  1  0  0  0  0
 12 17  2  0  0  0  0
 12 13  1  0  0  0  0
 13 14  2  0  0  0  0
 13 33  1  0  0  0  0
 14 15  1  0  0  0  0
 14 34  1  0  0  0  0
 15 16  2  0  0  0  0
 15 22  1  0  0  0  0
 16 17  1  0  0  0  0
 16 35  1  0  0  0  0
 17 18  1  0  0  0  0
 18 19  2  0  0  0  0
 18 20  1  0  0  0  0
 20 21  1  0  0  0  0
 20 36  1  0  0  0  0
 21 37  1  0  0  0  0
 21 38  1  0  0  0  0
 21 39  1  0  0  0  0
 22 23  2  0  0  0  0
 22 24  1  0  0  0  0
M  CHG  2  22   1  24  -1
M  END
$$$$
ZINC00092029
  -OEChem-08230709453D

 40 42  0     0  0  0  0  0  0999 V2000
   -4.5770   -4.2852    0.0115 C   0  0  0  0  0  0  0  0  0  0  0  0
   -4.8524   -2.8036    0.0261 C   0  0  0  0  0  0  0  0  0  0  0  0
   -6.1399   -2.3501    0.0401 C   0  0  0  0  0  0  0  0  0  0  0  0
   -6.3722   -0.9637    0.0575 C   0  0  0  0  0  0  0  0  0  0  0  0
   -7.5104   -0.5242    0.0661 O   0  0  0  0  0  0  0  0  0  0  0  0
   -5.3119   -0.1277    0.0567 N   0  0  0  0  0  0  0  0  0  0  0  0
   -8.1610   -1.2836    0.0652 H   0  0  0  0  0  0  0  0  0  0  0  0
   -4.0493   -0.6376    0.0382 C   0  0  0  0  0  0  0  0  0  0  0  0
   -3.8402   -1.9401    0.0252 N   0  0  0  0  0  0  0  0  0  0  0  0
   -2.6716    0.4608    0.0314 S   0  0  0  0  0  0  0  0  0  0  0  0
   -1.3147   -0.7369    0.0125 C   0  0  0  0  0  0  0  0  0  0  0  0
    0.0021   -0.0041    0.0044 C   0  0  0  0  0  0  0  0  0  0  0  0
    1.1467   -0.7358   -0.0096 N   0  0  0  0  0  0  0  0  0  0  0  0
    1.0963   -1.7345   -0.0140 H   0  0  0  0  0  0  0  0  0  0  0  0
    2.3546   -0.1253   -0.0178 C   0  0  0  0  0  0  0  0  0  0  0  0
    3.3880   -0.7684   -0.0312 O   0  0  0  0  0  0  0  0  0  0  0  0
    2.3699    1.3451   -0.0104 C   0  0  0  0  0  0  0  0  0  0  0  0
    3.5600    2.0697   -0.0174 C   0  0  0  0  0  0  0  0  0  0  0  0
    3.5163    3.4466   -0.0095 C   0  0  0  0  0  0  0  0  0  0  0  0
    2.2987    4.1146    0.0049 C   0  0  0  0  0  0  0  0  0  0  0  0
    1.1117    3.4173    0.0124 C   0  0  0  0  0  0  0  0  0  0  0  0
    1.1299    2.0210    0.0050 C   0  0  0  0  0  0  0  0  0  0  0  0
   -0.0155    1.2942    0.0117 N   0  0  0  0  0  0  0  0  0  0  0  0
   -7.2934   -3.3199    0.0412 C   0  0  0  0  0  0  0  0  0  0  0  0
   -7.7459   -3.5606    1.4584 C   0  0  0  0  0  0  0  0  0  0  0  0
   -8.9982   -3.3633    1.7885 C   0  0  0  0  0  0  0  0  0  0  0  0
   -3.5003   -4.4545    0.0016 H   0  0  0  0  0  0  0  0  0  0  0  0
   -5.0087   -4.7437    0.9013 H   0  0  0  0  0  0  0  0  0  0  0  0
   -5.0229   -4.7288   -0.8786 H   0  0  0  0  0  0  0  0  0  0  0  0
   -1.3906   -1.3578   -0.8802 H   0  0  0  0  0  0  0  0  0  0  0  0
   -1.3742   -1.3674    0.8997 H   0  0  0  0  0  0  0  0  0  0  0  0
    4.5098    1.5557   -0.0286 H   0  0  0  0  0  0  0  0  0  0  0  0
    4.4368    4.0115   -0.0148 H   0  0  0  0  0  0  0  0  0  0  0  0
    2.2828    5.1944    0.0105 H   0  0  0  0  0  0  0  0  0  0  0  0
    0.1710    3.9476    0.0243 H   0  0  0  0  0  0  0  0  0  0  0  0
   -8.1180   -2.9044   -0.5379 H   0  0  0  0  0  0  0  0  0  0  0  0
   -6.9758   -4.2629   -0.4038 H   0  0  0  0  0  0  0  0  0  0  0  0
   -7.0379   -3.8956    2.2019 H   0  0  0  0  0  0  0  0  0  0  0  0
   -9.7063   -3.0282    1.0450 H   0  0  0  0  0  0  0  0  0  0  0  0
   -9.3226   -3.5357    2.8040 H   0  0  0  0  0  0  0  0  0  0  0  0
  1  2  1  0  0  0  0
  1 27  1  0  0  0  0
  1 28  1  0  0  0  0
  1 29  1  0  0  0  0
  2  3  2  0  0  0  0
  2  9  1  0  0  0  0
  3 24  1  0  0  0  0
  3  4  1  0  0  0  0
  4  6  2  0  0  0  0
  4  5  1  0  0  0  0
  5  7  1  0  0  0  0
  6  8  1  0  0  0  0
  8 10  1  0  0  0  0
  8  9  2  0  0  0  0
 10 11  1  0  0  0  0
 11 12  1  0  0  0  0
 11 30  1  0  0  0  0
 11 31  1  0  0  0  0
 12 23  2  0  0  0  0
 12 13  1  0  0  0  0
 13 14  1  0  0  0  0
 13 15  1  0  0  0  0
 15 16  2  0  0  0  0
 15 17  1  0  0  0  0
 17 22  2  0  0  0  0
 17 18  1  0  0  0  0
 18 19  2  0  0  0  0
 18 32  1  0  0  0  0
 19 20  1  0  0  0  0
 19 33  1  0  0  0  0
 20 21  2  0  0  0  0
 20 34  1  0  0  0  0
 21 22  1  0  0  0  0
 21 35  1  0  0  0  0
 22 23  1  0  0  0  0
 24 25  1  0  0  0  0
 24 36  1  0  0  0  0
 24 37  1  0  0  0  0
 25 26  2  0  0  0  0
 25 38  1  0  0  0  0
 26 39  1  0  0  0  0
 26 40  1  0  0  0  0
M  END
$$$$
ZINC00095240
  -OEChem-08230709453D

 41 43  0     0  0  0  0  0  0999 V2000
    5.1242    0.4338    0.9202 C   0  0  0  0  0  0  0  0  0  0  0  0
    4.8594    1.9110    1.0573 C   0  0  0  0  0  0  0  0  0  0  0  0
    5.9033    2.8014    1.1528 C   0  0  0  0  0  0  0  0  0  0  0  0
    5.6569    4.1601    1.2794 C   0  0  0  0  0  0  0  0  0  0  0  0
    4.4194    4.6150    1.3097 N   0  0  0  0  0  0  0  0  0  0  0  0
    3.3876    3.8037    1.2218 C   0  0  0  0  0  0  0  0  0  0  0  0
    3.5314    2.4036    1.0902 C   0  0  0  0  0  0  0  0  0  0  0  0
    2.2841    1.6589    1.0121 C   0  0  0  0  0  0  0  0  0  0  0  0
    1.0996    2.3609    1.0608 C   0  0  0  0  0  0  0  0  0  0  0  0
    1.6297    4.0540    1.2272 S   0  0  0  0  0  0  0  0  0  0  0  0
   -0.2230    1.8569    0.9995 C   0  0  0  0  0  0  0  0  0  0  0  0
   -0.4136    0.6596    0.8841 O   0  0  0  0  0  0  0  0  0  0  0  0
   -1.2702    2.7029    1.0632 N   0  0  0  0  0  0  0  0  0  0  0  0
   -2.5680    2.2139    0.9464 C   0  0  0  0  0  0  0  0  0  0  0  0
   -3.5027    2.9026    0.1776 C   0  0  0  0  0  0  0  0  0  0  0  0
   -4.7762    2.4238    0.0562 C   0  0  0  0  0  0  0  0  0  0  0  0
   -5.1440    1.2435    0.7148 C   0  0  0  0  0  0  0  0  0  0  0  0
   -4.2020    0.5569    1.4914 C   0  0  0  0  0  0  0  0  0  0  0  0
   -2.9294    1.0404    1.6033 C   0  0  0  0  0  0  0  0  0  0  0  0
   -6.5130    0.7274    0.5911 C   0  0  0  0  0  0  0  0  0  0  0  0
   -6.8286   -0.2968    1.1593 O   0  0  0  0  0  0  0  0  0  0  0  0
   -7.5259    1.4700   -0.2416 C   0  0  0  0  0  0  0  0  0  0  0  0
    2.2873    0.2768    0.8875 N   0  0  0  0  0  0  0  0  0  0  0  0
    6.8112    5.1235    1.3830 C   0  0  0  0  0  0  0  0  0  0  0  0
    5.2034    0.1754   -0.1357 H   0  0  0  0  0  0  0  0  0  0  0  0
    6.0564    0.1832    1.4266 H   0  0  0  0  0  0  0  0  0  0  0  0
    4.3043   -0.1256    1.3706 H   0  0  0  0  0  0  0  0  0  0  0  0
    6.9208    2.4401    1.1295 H   0  0  0  0  0  0  0  0  0  0  0  0
   -1.1194    3.6526    1.1906 H   0  0  0  0  0  0  0  0  0  0  0  0
   -3.2193    3.8147   -0.3265 H   0  0  0  0  0  0  0  0  0  0  0  0
   -5.4994    2.9564   -0.5436 H   0  0  0  0  0  0  0  0  0  0  0  0
   -4.4812   -0.3537    2.0006 H   0  0  0  0  0  0  0  0  0  0  0  0
   -2.2024    0.5116    2.2018 H   0  0  0  0  0  0  0  0  0  0  0  0
   -7.0795    2.2354   -0.7051 H   0  0  0  0  0  0  0  0  0  0  0  0
   -7.9518    0.7945   -0.9835 H   0  0  0  0  0  0  0  0  0  0  0  0
   -8.3191    1.8484    0.4031 H   0  0  0  0  0  0  0  0  0  0  0  0
    1.5340   -0.2411    1.2118 H   0  0  0  0  0  0  0  0  0  0  0  0
    3.0429   -0.1713    0.4762 H   0  0  0  0  0  0  0  0  0  0  0  0
    7.1001    5.4530    0.3849 H   0  0  0  0  0  0  0  0  0  0  0  0
    6.5120    5.9863    1.9780 H   0  0  0  0  0  0  0  0  0  0  0  0
    7.6562    4.6280    1.8609 H   0  0  0  0  0  0  0  0  0  0  0  0
  1  2  1  0  0  0  0
  1 25  1  0  0  0  0
  1 26  1  0  0  0  0
  1 27  1  0  0  0  0
  2  7  2  0  0  0  0
  2  3  1  0  0  0  0
  3  4  2  0  0  0  0
  3 28  1  0  0  0  0
  4  5  1  0  0  0  0
  4 24  1  0  0  0  0
  5  6  2  0  0  0  0
  6 10  1  0  0  0  0
  6  7  1  0  0  0  0
  7  8  1  0  0  0  0
  8  9  2  0  0  0  0
  8 23  1  0  0  0  0
  9 10  1  0  0  0  0
  9 11  1  0  0  0  0
 11 12  2  0  0  0  0
 11 13  1  0  0  0  0
 13 14  1  0  0  0  0
 13 29  1  0  0  0  0
 14 19  2  0  0  0  0
 14 15  1  0  0  0  0
 15 16  2  0  0  0  0
 15 30  1  0  0  0  0
 16 17  1  0  0  0  0
 16 31  1  0  0  0  0
 17 18  2  0  0  0  0
 17 20  1  0  0  0  0
 18 19  1  0  0  0  0
 18 32  1  0  0  0  0
 19 33  1  0  0  0  0
 20 21  2  0  0  0  0
 20 22  1  0  0  0  0
 22 34  1  0  0  0  0
 22 35  1  0  0  0  0
 22 36  1  0  0  0  0
 23 37  1  0  0  0  0
 23 38  1  0  0  0  0
 24 39  1  0  0  0  0
 24 40  1  0  0  0  0
 24 41  1  0  0  0  0
M  END
$$$$
ZINC00099041
  -OEChem-08230709453D

 41 42  0     0  0  0  0  0  0999 V2000
    3.7431   -1.1002    3.3655 C   0  0  0  0  0  0  0  0  0  0  0  0
    3.3735    0.3165    2.9215 C   0  0  0  0  0  0  0  0  0  0  0  0
    1.9282    0.4452    2.8676 O   0  0  0  0  0  0  0  0  0  0  0  0
    1.4337    1.6420    2.4909 C   0  0  0  0  0  0  0  0  0  0  0  0
    2.1906    2.5531    2.2149 O   0  0  0  0  0  0  0  0  0  0  0  0
   -0.0160    1.8447    2.4139 C   0  0  0  0  0  0  0  0  0  0  0  0
   -0.7151    1.5916    1.2428 C   0  0  0  0  0  0  0  0  0  0  0  0
   -2.0658    1.8096    1.2489 C   0  0  0  0  0  0  0  0  0  0  0  0
   -2.3670    2.3662    2.9155 S   0  0  0  0  0  0  0  0  0  0  0  0
   -0.7441    2.3002    3.5205 C   0  0  0  0  0  0  0  0  0  0  0  0
   -0.2844    2.6177    4.7771 N   0  0  0  0  0  0  0  0  0  0  0  0
   -3.0250    1.6287    0.1590 C   0  0  0  0  0  0  0  0  0  0  0  0
   -2.6441    1.2342   -0.9280 O   0  0  0  0  0  0  0  0  0  0  0  0
   -4.3303    1.8988    0.3584 N   0  0  0  0  0  0  0  0  0  0  0  0
   -5.2297    1.8375   -0.7134 C   0  0  0  0  0  0  0  0  0  0  0  0
   -4.7765    2.0140   -2.0128 C   0  0  0  0  0  0  0  0  0  0  0  0
   -5.6652    1.9483   -3.0691 C   0  0  0  0  0  0  0  0  0  0  0  0
   -7.0080    1.7169   -2.8340 C   0  0  0  0  0  0  0  0  0  0  0  0
   -7.4679    1.5452   -1.5415 C   0  0  0  0  0  0  0  0  0  0  0  0
   -6.5829    1.6048   -0.4774 C   0  0  0  0  0  0  0  0  0  0  0  0
   -7.0339    1.4371    0.7945 O   0  0  0  0  0  0  0  0  0  0  0  0
   -8.4336    1.2023    0.9608 C   0  0  0  0  0  0  0  0  0  0  0  0
   -0.0104    1.0996    0.0050 C   0  0  0  0  0  0  0  0  0  0  0  0
    3.3242   -1.2924    4.3532 H   0  0  0  0  0  0  0  0  0  0  0  0
    3.3405   -1.8207    2.6536 H   0  0  0  0  0  0  0  0  0  0  0  0
    4.8281   -1.1968    3.4060 H   0  0  0  0  0  0  0  0  0  0  0  0
    3.7925    0.5087    1.9338 H   0  0  0  0  0  0  0  0  0  0  0  0
    3.7761    1.0370    3.6335 H   0  0  0  0  0  0  0  0  0  0  0  0
    0.6598    2.5349    4.9834 H   0  0  0  0  0  0  0  0  0  0  0  0
   -0.9043    2.9245    5.4572 H   0  0  0  0  0  0  0  0  0  0  0  0
   -4.6468    2.1356    1.2442 H   0  0  0  0  0  0  0  0  0  0  0  0
   -3.7288    2.1990   -2.1990 H   0  0  0  0  0  0  0  0  0  0  0  0
   -5.3107    2.0825   -4.0804 H   0  0  0  0  0  0  0  0  0  0  0  0
   -7.6995    1.6704   -3.6623 H   0  0  0  0  0  0  0  0  0  0  0  0
   -8.5174    1.3650   -1.3614 H   0  0  0  0  0  0  0  0  0  0  0  0
   -8.6591    1.0864    2.0208 H   0  0  0  0  0  0  0  0  0  0  0  0
   -8.9938    2.0473    0.5604 H   0  0  0  0  0  0  0  0  0  0  0  0
   -8.7155    0.2942    0.4279 H   0  0  0  0  0  0  0  0  0  0  0  0
    0.0085    0.0098    0.0065 H   0  0  0  0  0  0  0  0  0  0  0  0
    1.0108    1.4807   -0.0075 H   0  0  0  0  0  0  0  0  0  0  0  0
   -0.5407    1.4526   -0.8795 H   0  0  0  0  0  0  0  0  0  0  0  0
  1  2  1  0  0  0  0
  1 24  1  0  0  0  0
  1 25  1  0  0  0  0
  1 26  1  0  0  0  0
  2  3  1  0  0  0  0
  2 27  1  0  0  0  0
  2 28  1  0  0  0  0
  3  4  1  0  0  0  0
  4  5  2  0  0  0  0
  4  6  1  0  0  0  0
  6 10  2  0  0  0  0
  6  7  1  0  0  0  0
  7  8  2  0  0  0  0
  7 23  1  0  0  0  0
  8  9  1  0  0  0  0
  8 12  1  0  0  0  0
  9 10  1  0  0  0  0
 10 11  1  0  0  0  0
 11 29  1  0  0  0  0
 11 30  1  0  0  0  0
 12 13  2  0  0  0  0
 12 14  1  0  0  0  0
 14 15  1  0  0  0  0
 14 31  1  0  0  0  0
 15 20  2  0  0  0  0
 15 16  1  0  0  0  0
 16 17  2  0  0  0  0
 16 32  1  0  0  0  0
 17 18  1  0  0  0  0
 17 33  1  0  0  0  0
 18 19  2  0  0  0  0
 18 34  1  0  0  0  0
 19 20  1  0  0  0  0
 19 35  1  0  0  0  0
 20 21  1  0  0  0  0
 21 22  1  0  0  0  0
 22 36  1  0  0  0  0
 22 37  1  0  0  0  0
 22 38  1  0  0  0  0
 23 39  1  0  0  0  0
 23 40  1  0  0  0  0
 23 41  1  0  0  0  0
M  END
$$$$
ZINC00103787
  -OEChem-08230709453D

 44 46  0     1  0  0  0  0  0999 V2000
    3.5460    2.5868   -4.3668 C   0  0  0  0  0  0  0  0  0  0  0  0
    3.0116    2.8792   -2.9632 C   0  0  0  0  0  0  0  0  0  0  0  0
    4.0612    2.4793   -1.9244 C   0  0  0  0  0  0  0  0  0  0  0  0
    1.7300    2.0773   -2.7282 C   0  0  0  0  0  0  0  0  0  0  0  0
    2.7138    4.3510   -2.8357 C   0  0  0  0  0  0  0  0  0  0  0  0
    2.3172    4.9850   -1.7219 C   0  0  0  0  0  0  0  0  0  0  0  0
    2.1510    6.3529   -2.0312 C   0  0  0  0  0  0  0  0  0  0  0  0
    2.4394    6.5191   -3.2893 N   0  0  0  0  0  0  0  0  0  0  0  0
    2.7989    5.2717   -3.8236 N   0  0  0  0  0  0  0  0  0  0  0  0
    3.0706    5.0944   -4.7695 H   0  0  0  0  0  0  0  0  0  0  0  0
    1.7550    7.2601   -1.0985 O   0  0  0  0  0  0  0  0  0  0  0  0
    1.7840    6.8755    0.1930 C   0  0  0  0  0  0  0  0  0  0  0  0
    1.9254    5.5987    0.6092 C   0  0  0  0  0  0  0  0  0  0  0  0
    2.0640    4.4362   -0.3410 C   0  0  1  0  0  0  0  0  0  0  0  0
    2.9012    3.8088   -0.0352 H   0  0  0  0  0  0  0  0  0  0  0  0
    0.7939    3.6250   -0.3410 C   0  0  0  0  0  0  0  0  0  0  0  0
    0.7710    2.3794    0.2595 C   0  0  0  0  0  0  0  0  0  0  0  0
   -0.3908    1.6331    0.2611 C   0  0  0  0  0  0  0  0  0  0  0  0
   -1.5366    2.1331   -0.3459 C   0  0  0  0  0  0  0  0  0  0  0  0
   -1.5112    3.3872   -0.9442 C   0  0  0  0  0  0  0  0  0  0  0  0
   -0.3458    4.1278   -0.9418 C   0  0  0  0  0  0  0  0  0  0  0  0
   -3.0196    1.1816   -0.3523 S   0  0  0  0  0  0  0  0  0  0  0  0
   -4.2080    2.2269   -1.2386 C   0  0  0  0  0  0  0  0  0  0  0  0
    1.9441    5.3360    2.0168 C   0  0  0  0  0  0  0  0  0  0  0  0
    1.9590    5.1276    3.1334 N   0  0  0  0  0  0  0  0  0  0  0  0
    1.6616    7.8495    1.1524 N   0  0  0  0  0  0  0  0  0  0  0  0
    4.4590    3.1581   -4.5342 H   0  0  0  0  0  0  0  0  0  0  0  0
    3.7614    1.5223   -4.4591 H   0  0  0  0  0  0  0  0  0  0  0  0
    2.7982    2.8717   -5.1069 H   0  0  0  0  0  0  0  0  0  0  0  0
    3.6805    2.6877   -0.9245 H   0  0  0  0  0  0  0  0  0  0  0  0
    4.2766    1.4148   -2.0166 H   0  0  0  0  0  0  0  0  0  0  0  0
    4.9743    3.0507   -2.0918 H   0  0  0  0  0  0  0  0  0  0  0  0
    0.9391    2.4588   -3.3739 H   0  0  0  0  0  0  0  0  0  0  0  0
    1.9113    1.0272   -2.9573 H   0  0  0  0  0  0  0  0  0  0  0  0
    1.4266    2.1745   -1.6858 H   0  0  0  0  0  0  0  0  0  0  0  0
    1.6629    1.9897    0.7275 H   0  0  0  0  0  0  0  0  0  0  0  0
   -0.4078    0.6601    0.7295 H   0  0  0  0  0  0  0  0  0  0  0  0
   -2.4007    3.7804   -1.4139 H   0  0  0  0  0  0  0  0  0  0  0  0
   -0.3241    5.1008   -1.4101 H   0  0  0  0  0  0  0  0  0  0  0  0
   -4.3281    3.1711   -0.7075 H   0  0  0  0  0  0  0  0  0  0  0  0
   -3.8403    2.4210   -2.2462 H   0  0  0  0  0  0  0  0  0  0  0  0
   -5.1695    1.7167   -1.2948 H   0  0  0  0  0  0  0  0  0  0  0  0
    1.5585    8.7778    0.8906 H   0  0  0  0  0  0  0  0  0  0  0  0
    1.6782    7.6095    2.0921 H   0  0  0  0  0  0  0  0  0  0  0  0
  1  2  1  0  0  0  0
  1 27  1  0  0  0  0
  1 28  1  0  0  0  0
  1 29  1  0  0  0  0
  2  3  1  0  0  0  0
  2  4  1  0  0  0  0
  2  5  1  0  0  0  0
  3 30  1  0  0  0  0
  3 31  1  0  0  0  0
  3 32  1  0  0  0  0
  4 33  1  0  0  0  0
  4 34  1  0  0  0  0
  4 35  1  0  0  0  0
  5  9  1  0  0  0  0
  5  6  2  0  0  0  0
  6 14  1  0  0  0  0
  6  7  1  0  0  0  0
  7  8  2  0  0  0  0
  7 11  1  0  0  0  0
  8  9  1  0  0  0  0
  9 10  1  0  0  0  0
 11 12  1  0  0  0  0
 12 13  2  0  0  0  0
 12 26  1  0  0  0  0
 13 14  1  0  0  0  0
 13 24  1  0  0  0  0
 14 15  1  0  0  0  0
 14 16  1  0  0  0  0
 16 21  2  0  0  0  0
 16 17  1  0  0  0  0
 17 18  2  0  0  0  0
 17 36  1  0  0  0  0
 18 19  1  0  0  0  0
 18 37  1  0  0  0  0
 19 20  2  0  0  0  0
 19 22  1  0  0  0  0
 20 21  1  0  0  0  0
 20 38  1  0  0  0  0
 21 39  1  0  0  0  0
 22 23  1  0  0  0  0
 23 40  1  0  0  0  0
 23 41  1  0  0  0  0
 23 42  1  0  0  0  0
 24 25  3  0  0  0  0
 26 43  1  0  0  0  0
 26 44  1  0  0  0  0
M  END
$$$$
ZINC00112716
  -OEChem-08230709453D

 44 45  0     0  0  0  0  0  0999 V2000
    5.6891   -4.3694   -0.8804 C   0  0  0  0  0  0  0  0  0  0  0  0
    5.9084   -3.7462    0.4996 C   0  0  0  0  0  0  0  0  0  0  0  0
    7.4028   -3.7473    0.8280 C   0  0  0  0  0  0  0  0  0  0  0  0
    5.1542   -4.5605    1.5526 C   0  0  0  0  0  0  0  0  0  0  0  0
    5.4098   -2.3686    0.4982 N   0  0  0  0  0  0  0  0  0  0  0  0
    4.1226   -2.1182    0.1869 C   0  0  0  0  0  0  0  0  0  0  0  0
    3.0411   -3.4159   -0.0914 S   0  0  0  0  0  0  0  0  0  0  0  0
    3.6867   -0.8462    0.0947 N   0  0  0  0  0  0  0  0  0  0  0  0
    4.5926    0.2153    0.2183 N   0  0  0  0  0  0  0  0  0  0  0  0
    4.1584    1.4378    0.2561 C   0  0  0  0  0  0  0  0  0  0  0  0
    2.7602    1.7121    0.6346 C   0  0  0  0  0  0  0  0  0  0  0  0
    1.8724    0.8260    1.1797 C   0  0  0  0  0  0  0  0  0  0  0  0
    0.7068    1.4708    1.3756 N   0  0  0  0  0  0  0  0  0  0  0  0
   -0.1211    1.0626    1.7603 H   0  0  0  0  0  0  0  0  0  0  0  0
    0.8325    2.7993    0.9581 N   0  0  0  0  0  0  0  0  0  0  0  0
    2.0512    2.9867    0.5002 C   0  0  0  0  0  0  0  0  0  0  0  0
    2.6043    4.2503   -0.0431 C   0  0  0  0  0  0  0  0  0  0  0  0
    3.8992    4.6461    0.2893 C   0  0  0  0  0  0  0  0  0  0  0  0
    4.4130    5.8189   -0.2228 C   0  0  0  0  0  0  0  0  0  0  0  0
    3.6381    6.6113   -1.0588 C   0  0  0  0  0  0  0  0  0  0  0  0
    2.3461    6.2232   -1.3867 C   0  0  0  0  0  0  0  0  0  0  0  0
    1.8286    5.0484   -0.8830 C   0  0  0  0  0  0  0  0  0  0  0  0
    4.1450    7.7695   -1.5568 O   0  0  0  0  0  0  0  0  0  0  0  0
    5.5156    8.0542   -1.2695 C   0  0  0  0  0  0  0  0  0  0  0  0
    6.2918   -3.8397   -1.6182 H   0  0  0  0  0  0  0  0  0  0  0  0
    5.9836   -5.4185   -0.8563 H   0  0  0  0  0  0  0  0  0  0  0  0
    4.6357   -4.2938   -1.1499 H   0  0  0  0  0  0  0  0  0  0  0  0
    7.5590   -3.3033    1.8112 H   0  0  0  0  0  0  0  0  0  0  0  0
    7.7738   -4.7722    0.8291 H   0  0  0  0  0  0  0  0  0  0  0  0
    7.9401   -3.1671    0.0778 H   0  0  0  0  0  0  0  0  0  0  0  0
    4.1165   -4.6831    1.2425 H   0  0  0  0  0  0  0  0  0  0  0  0
    5.6204   -5.5402    1.6568 H   0  0  0  0  0  0  0  0  0  0  0  0
    5.1884   -4.0383    2.5088 H   0  0  0  0  0  0  0  0  0  0  0  0
    6.0060   -1.6368    0.7212 H   0  0  0  0  0  0  0  0  0  0  0  0
    2.7458   -0.6658   -0.0572 H   0  0  0  0  0  0  0  0  0  0  0  0
    4.8214    2.2541    0.0103 H   0  0  0  0  0  0  0  0  0  0  0  0
    2.0714   -0.2098    1.4117 H   0  0  0  0  0  0  0  0  0  0  0  0
    4.5008    4.0325    0.9435 H   0  0  0  0  0  0  0  0  0  0  0  0
    5.4178    6.1234    0.0302 H   0  0  0  0  0  0  0  0  0  0  0  0
    1.7457    6.8418   -2.0374 H   0  0  0  0  0  0  0  0  0  0  0  0
    0.8235    4.7470   -1.1385 H   0  0  0  0  0  0  0  0  0  0  0  0
    5.7713    9.0398   -1.6586 H   0  0  0  0  0  0  0  0  0  0  0  0
    5.6718    8.0377   -0.1909 H   0  0  0  0  0  0  0  0  0  0  0  0
    6.1492    7.3023   -1.7400 H   0  0  0  0  0  0  0  0  0  0  0  0
  1  2  1  0  0  0  0
  1 25  1  0  0  0  0
  1 26  1  0  0  0  0
  1 27  1  0  0  0  0
  2  3  1  0  0  0  0
  2  4  1  0  0  0  0
  2  5  1  0  0  0  0
  3 28  1  0  0  0  0
  3 29  1  0  0  0  0
  3 30  1  0  0  0  0
  4 31  1  0  0  0  0
  4 32  1  0  0  0  0
  4 33  1  0  0  0  0
  5  6  1  0  0  0  0
  5 34  1  0  0  0  0
  6  7  2  0  0  0  0
  6  8  1  0  0  0  0
  8  9  1  0  0  0  0
  8 35  1  0  0  0  0
  9 10  2  3  0  0  0
 10 11  1  0  0  0  0
 10 36  1  0  0  0  0
 11 16  1  0  0  0  0
 11 12  2  0  0  0  0
 12 13  1  0  0  0  0
 12 37  1  0  0  0  0
 13 14  1  0  0  0  0
 13 15  1  0  0  0  0
 15 16  2  0  0  0  0
 16 17  1  0  0  0  0
 17 22  2  0  0  0  0
 17 18  1  0  0  0  0
 18 19  2  0  0  0  0
 18 38  1  0  0  0  0
 19 20  1  0  0  0  0
 19 39  1  0  0  0  0
 20 21  2  0  0  0  0
 20 23  1  0  0  0  0
 21 22  1  0  0  0  0
 21 40  1  0  0  0  0
 22 41  1  0  0  0  0
 23 24  1  0  0  0  0
 24 42  1  0  0  0  0
 24 43  1  0  0  0  0
 24 44  1  0  0  0  0
M  END
$$$$
ZINC00112720
  -OEChem-08230709453D

 44 45  0     0  0  0  0  0  0999 V2000
   -1.0963   10.0868   -0.6753 C   0  0  0  0  0  0  0  0  0  0  0  0
   -1.0994    9.4365    0.7096 C   0  0  0  0  0  0  0  0  0  0  0  0
   -2.5427    9.2387    1.1770 C   0  0  0  0  0  0  0  0  0  0  0  0
   -0.3622   10.3410    1.6993 C   0  0  0  0  0  0  0  0  0  0  0  0
   -0.4260    8.1373    0.6405 N   0  0  0  0  0  0  0  0  0  0  0  0
    0.8487    8.0610    0.2095 C   0  0  0  0  0  0  0  0  0  0  0  0
    1.7246    9.4922   -0.1300 S   0  0  0  0  0  0  0  0  0  0  0  0
    1.4339    6.8580    0.0459 N   0  0  0  0  0  0  0  0  0  0  0  0
    0.6870    5.6859    0.2223 N   0  0  0  0  0  0  0  0  0  0  0  0
    1.2712    4.5287    0.1608 C   0  0  0  0  0  0  0  0  0  0  0  0
    0.4699    3.2935    0.2358 C   0  0  0  0  0  0  0  0  0  0  0  0
   -0.8743    3.2046    0.4712 C   0  0  0  0  0  0  0  0  0  0  0  0
   -1.2146    1.9019    0.4593 N   0  0  0  0  0  0  0  0  0  0  0  0
   -2.1380    1.5453    0.6011 H   0  0  0  0  0  0  0  0  0  0  0  0
   -0.0776    1.1248    0.2180 N   0  0  0  0  0  0  0  0  0  0  0  0
    0.9583    1.9222    0.0720 C   0  0  0  0  0  0  0  0  0  0  0  0
    2.3563    1.5108   -0.2001 C   0  0  0  0  0  0  0  0  0  0  0  0
    3.1643    2.2875   -1.0294 C   0  0  0  0  0  0  0  0  0  0  0  0
    4.4658    1.9046   -1.2767 C   0  0  0  0  0  0  0  0  0  0  0  0
    4.9686    0.7416   -0.7090 C   0  0  0  0  0  0  0  0  0  0  0  0
    4.1648   -0.0371    0.1126 C   0  0  0  0  0  0  0  0  0  0  0  0
    2.8641    0.3432    0.3680 C   0  0  0  0  0  0  0  0  0  0  0  0
    6.2500    0.3645   -0.9585 O   0  0  0  0  0  0  0  0  0  0  0  0
    7.0570    1.2692   -1.7149 C   0  0  0  0  0  0  0  0  0  0  0  0
   -1.6922    9.4844   -1.3609 H   0  0  0  0  0  0  0  0  0  0  0  0
   -1.5220   11.0880   -0.6075 H   0  0  0  0  0  0  0  0  0  0  0  0
   -0.0727   10.1515   -1.0441 H   0  0  0  0  0  0  0  0  0  0  0  0
   -2.5450    8.8568    2.1979 H   0  0  0  0  0  0  0  0  0  0  0  0
   -3.0691   10.1927    1.1447 H   0  0  0  0  0  0  0  0  0  0  0  0
   -3.0425    8.5257    0.5213 H   0  0  0  0  0  0  0  0  0  0  0  0
    0.6842   10.4238    1.4059 H   0  0  0  0  0  0  0  0  0  0  0  0
   -0.8196   11.3304    1.6975 H   0  0  0  0  0  0  0  0  0  0  0  0
   -0.4263    9.9130    2.6998 H   0  0  0  0  0  0  0  0  0  0  0  0
   -0.8976    7.3319    0.9049 H   0  0  0  0  0  0  0  0  0  0  0  0
    2.3722    6.8037   -0.1939 H   0  0  0  0  0  0  0  0  0  0  0  0
    2.3444    4.4706    0.0546 H   0  0  0  0  0  0  0  0  0  0  0  0
   -1.5456    4.0342    0.6371 H   0  0  0  0  0  0  0  0  0  0  0  0
    2.7725    3.1901   -1.4746 H   0  0  0  0  0  0  0  0  0  0  0  0
    5.0935    2.5080   -1.9157 H   0  0  0  0  0  0  0  0  0  0  0  0
    4.5587   -0.9414    0.5524 H   0  0  0  0  0  0  0  0  0  0  0  0
    2.2393   -0.2630    1.0073 H   0  0  0  0  0  0  0  0  0  0  0  0
    8.0772    0.8890   -1.7676 H   0  0  0  0  0  0  0  0  0  0  0  0
    6.6515    1.3625   -2.7223 H   0  0  0  0  0  0  0  0  0  0  0  0
    7.0579    2.2463   -1.2317 H   0  0  0  0  0  0  0  0  0  0  0  0
  1  2  1  0  0  0  0
  1 25  1  0  0  0  0
  1 26  1  0  0  0  0
  1 27  1  0  0  0  0
  2  3  1  0  0  0  0
  2  4  1  0  0  0  0
  2  5  1  0  0  0  0
  3 28  1  0  0  0  0
  3 29  1  0  0  0  0
  3 30  1  0  0  0  0
  4 31  1  0  0  0  0
  4 32  1  0  0  0  0
  4 33  1  0  0  0  0
  5  6  1  0  0  0  0
  5 34  1  0  0  0  0
  6  7  2  0  0  0  0
  6  8  1  0  0  0  0
  8  9  1  0  0  0  0
  8 35  1  0  0  0  0
  9 10  2  0  0  0  0
 10 11  1  0  0  0  0
 10 36  1  0  0  0  0
 11 16  1  0  0  0  0
 11 12  2  0  0  0  0
 12 13  1  0  0  0  0
 12 37  1  0  0  0  0
 13 14  1  0  0  0  0
 13 15  1  0  0  0  0
 15 16  2  0  0  0  0
 16 17  1  0  0  0  0
 17 22  2  0  0  0  0
 17 18  1  0  0  0  0
 18 19  2  0  0  0  0
 18 38  1  0  0  0  0
 19 20  1  0  0  0  0
 19 39  1  0  0  0  0
 20 21  2  0  0  0  0
 20 23  1  0  0  0  0
 21 22  1  0  0  0  0
 21 40  1  0  0  0  0
 22 41  1  0  0  0  0
 23 24  1  0  0  0  0
 24 42  1  0  0  0  0
 24 43  1  0  0  0  0
 24 44  1  0  0  0  0
M  END
$$$$
ZINC00112720
  -OEChem-08230709453D

 44 45  0     0  0  0  0  0  0999 V2000
   -1.0963   10.0868   -0.6753 C   0  0  0  0  0  0  0  0  0  0  0  0
   -1.0994    9.4365    0.7096 C   0  0  0  0  0  0  0  0  0  0  0  0
   -2.5427    9.2387    1.1770 C   0  0  0  0  0  0  0  0  0  0  0  0
   -0.3622   10.3410    1.6993 C   0  0  0  0  0  0  0  0  0  0  0  0
   -0.4260    8.1373    0.6405 N   0  0  0  0  0  0  0  0  0  0  0  0
    0.8487    8.0610    0.2095 C   0  0  0  0  0  0  0  0  0  0  0  0
    1.7246    9.4922   -0.1300 S   0  0  0  0  0  0  0  0  0  0  0  0
    1.4339    6.8580    0.0459 N   0  0  0  0  0  0  0  0  0  0  0  0
    0.6870    5.6859    0.2223 N   0  0  0  0  0  0  0  0  0  0  0  0
    1.2712    4.5287    0.1608 C   0  0  0  0  0  0  0  0  0  0  0  0
    0.4699    3.2935    0.2358 C   0  0  0  0  0  0  0  0  0  0  0  0
   -0.8742    3.2046    0.4718 C   0  0  0  0  0  0  0  0  0  0  0  0
   -1.2144    1.9018    0.4603 N   0  0  0  0  0  0  0  0  0  0  0  0
   -0.0554    0.1264    0.1659 H   0  0  0  0  0  0  0  0  0  0  0  0
   -0.0775    1.1248    0.2186 N   0  0  0  0  0  0  0  0  0  0  0  0
    0.9583    1.9222    0.0720 C   0  0  0  0  0  0  0  0  0  0  0  0
    2.3563    1.5108   -0.2001 C   0  0  0  0  0  0  0  0  0  0  0  0
    3.1643    2.2875   -1.0294 C   0  0  0  0  0  0  0  0  0  0  0  0
    4.4658    1.9046   -1.2767 C   0  0  0  0  0  0  0  0  0  0  0  0
    4.9686    0.7416   -0.7090 C   0  0  0  0  0  0  0  0  0  0  0  0
    4.1648   -0.0371    0.1126 C   0  0  0  0  0  0  0  0  0  0  0  0
    2.8641    0.3432    0.3680 C   0  0  0  0  0  0  0  0  0  0  0  0
    6.2500    0.3645   -0.9585 O   0  0  0  0  0  0  0  0  0  0  0  0
    7.0570    1.2692   -1.7149 C   0  0  0  0  0  0  0  0  0  0  0  0
   -1.6922    9.4844   -1.3609 H   0  0  0  0  0  0  0  0  0  0  0  0
   -1.5220   11.0880   -0.6075 H   0  0  0  0  0  0  0  0  0  0  0  0
   -0.0727   10.1515   -1.0441 H   0  0  0  0  0  0  0  0  0  0  0  0
   -2.5450    8.8568    2.1979 H   0  0  0  0  0  0  0  0  0  0  0  0
   -3.0691   10.1927    1.1447 H   0  0  0  0  0  0  0  0  0  0  0  0
   -3.0425    8.5257    0.5213 H   0  0  0  0  0  0  0  0  0  0  0  0
    0.6842   10.4238    1.4059 H   0  0  0  0  0  0  0  0  0  0  0  0
   -0.8196   11.3304    1.6975 H   0  0  0  0  0  0  0  0  0  0  0  0
   -0.4263    9.9130    2.6998 H   0  0  0  0  0  0  0  0  0  0  0  0
   -0.8976    7.3319    0.9049 H   0  0  0  0  0  0  0  0  0  0  0  0
    2.3722    6.8037   -0.1939 H   0  0  0  0  0  0  0  0  0  0  0  0
    2.3444    4.4706    0.0546 H   0  0  0  0  0  0  0  0  0  0  0  0
   -1.5454    4.0341    0.6384 H   0  0  0  0  0  0  0  0  0  0  0  0
    2.7725    3.1901   -1.4746 H   0  0  0  0  0  0  0  0  0  0  0  0
    5.0935    2.5080   -1.9157 H   0  0  0  0  0  0  0  0  0  0  0  0
    4.5587   -0.9414    0.5524 H   0  0  0  0  0  0  0  0  0  0  0  0
    2.2393   -0.2630    1.0073 H   0  0  0  0  0  0  0  0  0  0  0  0
    8.0772    0.8890   -1.7676 H   0  0  0  0  0  0  0  0  0  0  0  0
    6.6515    1.3625   -2.7223 H   0  0  0  0  0  0  0  0  0  0  0  0
    7.0579    2.2463   -1.2317 H   0  0  0  0  0  0  0  0  0  0  0  0
  1  2  1  0  0  0  0
  1 25  1  0  0  0  0
  1 26  1  0  0  0  0
  1 27  1  0  0  0  0
  2  3  1  0  0  0  0
  2  4  1  0  0  0  0
  2  5  1  0  0  0  0
  3 28  1  0  0  0  0
  3 29  1  0  0  0  0
  3 30  1  0  0  0  0
  4 31  1  0  0  0  0
  4 32  1  0  0  0  0
  4 33  1  0  0  0  0
  5  6  1  0  0  0  0
  5 34  1  0  0  0  0
  6  7  2  0  0  0  0
  6  8  1  0  0  0  0
  8  9  1  0  0  0  0
  8 35  1  0  0  0  0
  9 10  2  0  0  0  0
 10 11  1  0  0  0  0
 10 36  1  0  0  0  0
 11 12  1  0  0  0  0
 11 16  2  0  0  0  0
 12 37  1  0  0  0  0
 12 13  2  0  0  0  0
 13 15  1  0  0  0  0
 14 15  1  0  0  0  0
 15 16  1  0  0  0  0
 16 17  1  0  0  0  0
 17 22  2  0  0  0  0
 17 18  1  0  0  0  0
 18 19  2  0  0  0  0
 18 38  1  0  0  0  0
 19 20  1  0  0  0  0
 19 39  1  0  0  0  0
 20 21  2  0  0  0  0
 20 23  1  0  0  0  0
 21 22  1  0  0  0  0
 21 40  1  0  0  0  0
 22 41  1  0  0  0  0
 23 24  1  0  0  0  0
 24 42  1  0  0  0  0
 24 43  1  0  0  0  0
 24 44  1  0  0  0  0
M  END
$$$$
ZINC00116231
  -OEChem-08230709453D

 46 47  0     0  0  0  0  0  0999 V2000
    5.2770    4.9459    0.0391 C   0  0  0  0  0  0  0  0  0  0  0  0
    5.0748    3.4628    0.2139 C   0  0  0  0  0  0  0  0  0  0  0  0
    6.1669    2.6324    0.3873 C   0  0  0  0  0  0  0  0  0  0  0  0
    5.9848    1.2714    0.5475 C   0  0  0  0  0  0  0  0  0  0  0  0
    4.7105    0.7375    0.5350 C   0  0  0  0  0  0  0  0  0  0  0  0
    3.6134    1.5684    0.3616 C   0  0  0  0  0  0  0  0  0  0  0  0
    3.7992    2.9333    0.1954 C   0  0  0  0  0  0  0  0  0  0  0  0
    2.3590    1.0457    0.3490 O   0  0  0  0  0  0  0  0  0  0  0  0
    1.2768    1.9606    0.1660 C   0  0  0  0  0  0  0  0  0  0  0  0
   -0.0273    1.2054    0.1796 C   0  0  0  0  0  0  0  0  0  0  0  0
   -0.0296    0.0022    0.3312 O   0  0  0  0  0  0  0  0  0  0  0  0
   -1.1906    1.8665    0.0178 N   0  0  0  0  0  0  0  0  0  0  0  0
   -2.3868    1.1576   -0.0856 C   0  0  0  0  0  0  0  0  0  0  0  0
   -2.4041   -0.0881   -0.7050 C   0  0  0  0  0  0  0  0  0  0  0  0
   -3.5824   -0.7932   -0.8038 C   0  0  0  0  0  0  0  0  0  0  0  0
   -4.7642   -0.2513   -0.2911 C   0  0  0  0  0  0  0  0  0  0  0  0
   -4.7444    1.0027    0.3254 C   0  0  0  0  0  0  0  0  0  0  0  0
   -3.5616    1.7000    0.4258 C   0  0  0  0  0  0  0  0  0  0  0  0
   -6.0303   -1.0020   -0.4002 C   0  0  0  0  0  0  0  0  0  0  0  0
   -7.0576   -0.5294    0.0466 O   0  0  0  0  0  0  0  0  0  0  0  0
   -6.0477   -2.2112   -0.9951 N   0  0  0  0  0  0  0  0  0  0  0  0
    4.5127   -0.7462    0.7101 C   0  0  0  0  0  0  0  0  0  0  0  0
    5.2366   -1.4931   -0.4120 C   0  0  0  0  0  0  0  0  0  0  0  0
    5.0823   -1.1806    2.0621 C   0  0  0  0  0  0  0  0  0  0  0  0
    5.3895    5.1749   -1.0206 H   0  0  0  0  0  0  0  0  0  0  0  0
    4.4136    5.4796    0.4364 H   0  0  0  0  0  0  0  0  0  0  0  0
    6.1740    5.2560    0.5751 H   0  0  0  0  0  0  0  0  0  0  0  0
    7.1638    3.0478    0.3974 H   0  0  0  0  0  0  0  0  0  0  0  0
    6.8394    0.6248    0.6821 H   0  0  0  0  0  0  0  0  0  0  0  0
    2.9469    3.5817    0.0554 H   0  0  0  0  0  0  0  0  0  0  0  0
    1.3907    2.4716   -0.7900 H   0  0  0  0  0  0  0  0  0  0  0  0
    1.2805    2.6938    0.9726 H   0  0  0  0  0  0  0  0  0  0  0  0
   -1.1957    2.8355   -0.0266 H   0  0  0  0  0  0  0  0  0  0  0  0
   -1.4913   -0.5042   -1.1052 H   0  0  0  0  0  0  0  0  0  0  0  0
   -3.5942   -1.7623   -1.2805 H   0  0  0  0  0  0  0  0  0  0  0  0
   -5.6558    1.4241    0.7229 H   0  0  0  0  0  0  0  0  0  0  0  0
   -3.5455    2.6690    0.9025 H   0  0  0  0  0  0  0  0  0  0  0  0
   -5.2281   -2.5882   -1.3515 H   0  0  0  0  0  0  0  0  0  0  0  0
   -6.8798   -2.7045   -1.0667 H   0  0  0  0  0  0  0  0  0  0  0  0
    3.4483   -0.9777    0.6730 H   0  0  0  0  0  0  0  0  0  0  0  0
    5.0935   -2.5662   -0.2853 H   0  0  0  0  0  0  0  0  0  0  0  0
    4.8308   -1.1837   -1.3751 H   0  0  0  0  0  0  0  0  0  0  0  0
    6.3010   -1.2616   -0.3749 H   0  0  0  0  0  0  0  0  0  0  0  0
    4.5666   -0.6484    2.8615 H   0  0  0  0  0  0  0  0  0  0  0  0
    4.9392   -2.2537    2.1887 H   0  0  0  0  0  0  0  0  0  0  0  0
    6.1468   -0.9490    2.0992 H   0  0  0  0  0  0  0  0  0  0  0  0
  1  2  1  0  0  0  0
  1 25  1  0  0  0  0
  1 26  1  0  0  0  0
  1 27  1  0  0  0  0
  2  7  2  0  0  0  0
  2  3  1  0  0  0  0
  3  4  2  0  0  0  0
  3 28  1  0  0  0  0
  4  5  1  0  0  0  0
  4 29  1  0  0  0  0
  5  6  2  0  0  0  0
  5 22  1  0  0  0  0
  6  7  1  0  0  0  0
  6  8  1  0  0  0  0
  7 30  1  0  0  0  0
  8  9  1  0  0  0  0
  9 10  1  0  0  0  0
  9 31  1  0  0  0  0
  9 32  1  0  0  0  0
 10 11  2  0  0  0  0
 10 12  1  0  0  0  0
 12 13  1  0  0  0  0
 12 33  1  0  0  0  0
 13 18  2  0  0  0  0
 13 14  1  0  0  0  0
 14 15  2  0  0  0  0
 14 34  1  0  0  0  0
 15 16  1  0  0  0  0
 15 35  1  0  0  0  0
 16 17  2  0  0  0  0
 16 19  1  0  0  0  0
 17 18  1  0  0  0  0
 17 36  1  0  0  0  0
 18 37  1  0  0  0  0
 19 20  2  0  0  0  0
 19 21  1  0  0  0  0
 21 38  1  0  0  0  0
 21 39  1  0  0  0  0
 22 23  1  0  0  0  0
 22 24  1  0  0  0  0
 22 40  1  0  0  0  0
 23 41  1  0  0  0  0
 23 42  1  0  0  0  0
 23 43  1  0  0  0  0
 24 44  1  0  0  0  0
 24 45  1  0  0  0  0
 24 46  1  0  0  0  0
M  END
$$$$
ZINC00117919
  -OEChem-08230709453D

 48 50  0     0  0  0  0  0  0999 V2000
   -0.0127    1.0858    0.0080 C   0  0  0  0  0  0  0  0  0  0  0  0
   -0.7288    1.5792    1.2668 C   0  0  0  0  0  0  0  0  0  0  0  0
   -0.7487    3.0441    1.2749 N   0  0  0  0  0  0  0  0  0  0  0  0
    0.2124    3.6954    1.9439 C   0  0  0  0  0  0  0  0  0  0  0  0
    0.2643    5.0722    1.9999 C   0  0  0  0  0  0  0  0  0  0  0  0
   -0.7700    5.8531    1.3019 C   0  0  0  0  0  0  0  0  0  0  0  0
   -0.7666    7.0720    1.3218 O   0  0  0  0  0  0  0  0  0  0  0  0
   -1.8084    5.1009    0.5783 C   0  0  0  0  0  0  0  0  0  0  0  0
   -1.7526    3.6949    0.5890 C   0  0  0  0  0  0  0  0  0  0  0  0
   -2.7290    2.9721   -0.0859 C   0  0  0  0  0  0  0  0  0  0  0  0
   -3.7344    3.6405   -0.7657 C   0  0  0  0  0  0  0  0  0  0  0  0
   -3.7780    5.0370   -0.7749 C   0  0  0  0  0  0  0  0  0  0  0  0
   -2.8279    5.7609   -0.1118 C   0  0  0  0  0  0  0  0  0  0  0  0
   -4.7647    5.6745   -1.4423 F   0  0  0  0  0  0  0  0  0  0  0  0
   -4.7092    2.9145   -1.4457 N   0  0  0  0  0  0  0  0  0  0  0  0
   -4.6691    1.4500   -1.4400 C   0  0  0  0  0  0  0  0  0  0  0  0
   -3.7383    0.9609   -2.5514 C   0  0  0  0  0  0  0  0  0  0  0  0
   -3.6964   -0.5685   -2.5453 C   0  0  0  0  0  0  0  0  0  0  0  0
   -5.1046   -1.1182   -2.7808 C   0  0  0  0  0  0  0  0  0  0  0  0
   -6.0355   -0.6291   -1.6694 C   0  0  0  0  0  0  0  0  0  0  0  0
   -6.0774    0.9003   -1.6755 C   0  0  0  0  0  0  0  0  0  0  0  0
    1.3360    5.7498    2.7458 C   0  0  0  0  0  0  0  0  0  0  0  0
    1.3726    6.9649    2.7889 O   0  0  0  0  0  0  0  0  0  0  0  0
    2.2773    5.0243    3.3814 N   0  0  0  0  0  0  0  0  0  0  0  0
    3.2725    5.6535    4.0740 N   0  0  0  0  0  0  0  0  0  0  0  0
    0.0021   -0.0041    0.0020 H   0  0  0  0  0  0  0  0  0  0  0  0
    1.0099    1.4631    0.0003 H   0  0  0  0  0  0  0  0  0  0  0  0
   -0.5399    1.4469   -0.8751 H   0  0  0  0  0  0  0  0  0  0  0  0
   -1.7514    1.2020    1.2746 H   0  0  0  0  0  0  0  0  0  0  0  0
   -0.2017    1.2182    2.1499 H   0  0  0  0  0  0  0  0  0  0  0  0
    0.9713    3.1231    2.4565 H   0  0  0  0  0  0  0  0  0  0  0  0
   -2.7017    1.8924   -0.0840 H   0  0  0  0  0  0  0  0  0  0  0  0
   -2.8651    6.8402   -0.1209 H   0  0  0  0  0  0  0  0  0  0  0  0
   -5.4147    3.3784   -1.9232 H   0  0  0  0  0  0  0  0  0  0  0  0
   -4.2991    1.1005   -0.4761 H   0  0  0  0  0  0  0  0  0  0  0  0
   -4.1082    1.3105   -3.5152 H   0  0  0  0  0  0  0  0  0  0  0  0
   -2.7350    1.3525   -2.3836 H   0  0  0  0  0  0  0  0  0  0  0  0
   -3.3264   -0.9180   -1.5814 H   0  0  0  0  0  0  0  0  0  0  0  0
   -3.0332   -0.9169   -3.3371 H   0  0  0  0  0  0  0  0  0  0  0  0
   -5.0748   -2.2078   -2.7765 H   0  0  0  0  0  0  0  0  0  0  0  0
   -5.4746   -0.7687   -3.7447 H   0  0  0  0  0  0  0  0  0  0  0  0
   -5.6655   -0.9786   -0.7055 H   0  0  0  0  0  0  0  0  0  0  0  0
   -7.0388   -1.0207   -1.8372 H   0  0  0  0  0  0  0  0  0  0  0  0
   -6.7405    1.2488   -0.8837 H   0  0  0  0  0  0  0  0  0  0  0  0
   -6.4474    1.2498   -2.6393 H   0  0  0  0  0  0  0  0  0  0  0  0
    2.2482    4.0554    3.3470 H   0  0  0  0  0  0  0  0  0  0  0  0
    2.8907    6.2775    4.7689 H   0  0  0  0  0  0  0  0  0  0  0  0
    3.8994    4.9841    4.4945 H   0  0  0  0  0  0  0  0  0  0  0  0
  1  2  1  0  0  0  0
  1 26  1  0  0  0  0
  1 27  1  0  0  0  0
  1 28  1  0  0  0  0
  2  3  1  0  0  0  0
  2 29  1  0  0  0  0
  2 30  1  0  0  0  0
  3  9  1  0  0  0  0
  3  4  1  0  0  0  0
  4  5  2  0  0  0  0
  4 31  1  0  0  0  0
  5  6  1  0  0  0  0
  5 22  1  0  0  0  0
  6  7  2  0  0  0  0
  6  8  1  0  0  0  0
  8 13  2  0  0  0  0
  8  9  1  0  0  0  0
  9 10  2  0  0  0  0
 10 11  1  0  0  0  0
 10 32  1  0  0  0  0
 11 12  2  0  0  0  0
 11 15  1  0  0  0  0
 12 13  1  0  0  0  0
 12 14  1  0  0  0  0
 13 33  1  0  0  0  0
 15 16  1  0  0  0  0
 15 34  1  0  0  0  0
 16 21  1  0  0  0  0
 16 17  1  0  0  0  0
 16 35  1  0  0  0  0
 17 18  1  0  0  0  0
 17 36  1  0  0  0  0
 17 37  1  0  0  0  0
 18 19  1  0  0  0  0
 18 38  1  0  0  0  0
 18 39  1  0  0  0  0
 19 20  1  0  0  0  0
 19 40  1  0  0  0  0
 19 41  1  0  0  0  0
 20 21  1  0  0  0  0
 20 42  1  0  0  0  0
 20 43  1  0  0  0  0
 21 44  1  0  0  0  0
 21 45  1  0  0  0  0
 22 23  2  0  0  0  0
 22 24  1  0  0  0  0
 24 25  1  0  0  0  0
 24 46  1  0  0  0  0
 25 47  1  0  0  0  0
 25 48  1  0  0  0  0
M  END
$$$$
ZINC00118945
  -OEChem-08230709453D

 38 39  0     0  0  0  0  0  0999 V2000
   -8.8750    2.7881    0.1393 C   0  0  0  0  0  0  0  0  0  0  0  0
   -8.5758    1.3115    0.1046 C   0  0  0  0  0  0  0  0  0  0  0  0
   -7.2690    0.8452    0.0763 C   0  0  0  0  0  0  0  0  0  0  0  0
   -7.5504   -0.9195    0.0518 S   0  0  0  0  0  0  0  0  0  0  0  0
   -9.2861   -0.8733    0.0729 C   0  0  0  0  0  0  0  0  0  0  0  0
   -9.5390    0.4269    0.0963 N   0  0  0  0  0  0  0  0  0  0  0  0
  -10.1770   -1.9252    0.0668 N   0  0  0  0  0  0  0  0  0  0  0  0
   -6.0114    1.5904    0.0736 C   0  0  0  0  0  0  0  0  0  0  0  0
   -6.0250    2.8081    0.0933 O   0  0  0  0  0  0  0  0  0  0  0  0
   -4.8368    0.9299    0.0494 N   0  0  0  0  0  0  0  0  0  0  0  0
   -3.6315    1.6441    0.0469 N   0  0  0  0  0  0  0  0  0  0  0  0
   -2.5001    1.0080    0.0236 C   0  0  0  0  0  0  0  0  0  0  0  0
   -1.2320    1.7593    0.0210 C   0  0  0  0  0  0  0  0  0  0  0  0
   -0.0130    1.0761   -0.0041 C   0  0  0  0  0  0  0  0  0  0  0  0
    1.1700    1.7818   -0.0127 C   0  0  0  0  0  0  0  0  0  0  0  0
    1.1524    3.1724    0.0093 C   0  0  0  0  0  0  0  0  0  0  0  0
   -0.0587    3.8556    0.0397 C   0  0  0  0  0  0  0  0  0  0  0  0
   -1.2457    3.1567    0.0485 C   0  0  0  0  0  0  0  0  0  0  0  0
    2.3524    3.8836    0.0005 N   0  0  0  0  0  0  0  0  0  0  0  0
    3.6279    3.1692    0.0950 C   0  0  0  0  0  0  0  0  0  0  0  0
    2.3371    5.3448   -0.1033 C   0  0  0  0  0  0  0  0  0  0  0  0
   -8.9618    3.1653   -0.8796 H   0  0  0  0  0  0  0  0  0  0  0  0
   -9.8119    2.9566    0.6702 H   0  0  0  0  0  0  0  0  0  0  0  0
   -8.0676    3.3105    0.6525 H   0  0  0  0  0  0  0  0  0  0  0  0
   -9.8495   -2.8380    0.0483 H   0  0  0  0  0  0  0  0  0  0  0  0
  -11.1314   -1.7525    0.0811 H   0  0  0  0  0  0  0  0  0  0  0  0
   -4.8259   -0.0399    0.0338 H   0  0  0  0  0  0  0  0  0  0  0  0
   -2.4880   -0.0718    0.0062 H   0  0  0  0  0  0  0  0  0  0  0  0
    0.0015   -0.0036   -0.0212 H   0  0  0  0  0  0  0  0  0  0  0  0
    2.1123    1.2547   -0.0370 H   0  0  0  0  0  0  0  0  0  0  0  0
   -0.0685    4.9354    0.0567 H   0  0  0  0  0  0  0  0  0  0  0  0
   -2.1857    3.6879    0.0721 H   0  0  0  0  0  0  0  0  0  0  0  0
    3.4452    2.0949    0.0738 H   0  0  0  0  0  0  0  0  0  0  0  0
    4.2629    3.4465   -0.7465 H   0  0  0  0  0  0  0  0  0  0  0  0
    4.1249    3.4349    1.0281 H   0  0  0  0  0  0  0  0  0  0  0  0
    2.2979    5.7796    0.8955 H   0  0  0  0  0  0  0  0  0  0  0  0
    3.2404    5.6824   -0.6114 H   0  0  0  0  0  0  0  0  0  0  0  0
    1.4616    5.6596   -0.6712 H   0  0  0  0  0  0  0  0  0  0  0  0
  1  2  1  0  0  0  0
  1 22  1  0  0  0  0
  1 23  1  0  0  0  0
  1 24  1  0  0  0  0
  2  6  1  0  0  0  0
  2  3  2  0  0  0  0
  3  4  1  0  0  0  0
  3  8  1  0  0  0  0
  4  5  1  0  0  0  0
  5  6  2  0  0  0  0
  5  7  1  0  0  0  0
  7 25  1  0  0  0  0
  7 26  1  0  0  0  0
  8  9  2  0  0  0  0
  8 10  1  0  0  0  0
 10 11  1  0  0  0  0
 10 27  1  0  0  0  0
 11 12  2  0  0  0  0
 12 13  1  0  0  0  0
 12 28  1  0  0  0  0
 13 18  2  0  0  0  0
 13 14  1  0  0  0  0
 14 15  2  0  0  0  0
 14 29  1  0  0  0  0
 15 16  1  0  0  0  0
 15 30  1  0  0  0  0
 16 17  2  0  0  0  0
 16 19  1  0  0  0  0
 17 18  1  0  0  0  0
 17 31  1  0  0  0  0
 18 32  1  0  0  0  0
 19 20  1  0  0  0  0
 19 21  1  0  0  0  0
 20 33  1  0  0  0  0
 20 34  1  0  0  0  0
 20 35  1  0  0  0  0
 21 36  1  0  0  0  0
 21 37  1  0  0  0  0
 21 38  1  0  0  0  0
M  END
$$$$
ZINC00120711
  -OEChem-08230709453D

 43 44  0     0  0  0  0  0  0999 V2000
   -2.4739   -0.4217    0.0372 C   0  0  0  0  0  0  0  0  0  0  0  0
   -1.0447   -0.8990    0.0128 C   0  0  0  0  0  0  0  0  0  0  0  0
    0.0021   -0.0041    0.0020 C   0  0  0  0  0  0  0  0  0  0  0  0
    1.3916   -1.1280   -0.0167 S   0  0  0  0  0  0  0  0  0  0  0  0
    0.4832   -2.6081   -0.0164 C   0  0  0  0  0  0  0  0  0  0  0  0
   -0.7608   -2.1761   -0.0027 N   0  0  0  0  0  0  0  0  0  0  0  0
    0.9901   -4.0273   -0.0282 C   0  0  0  0  0  0  0  0  0  0  0  0
    1.1379   -4.4690   -1.3792 O   0  0  0  0  0  0  0  0  0  0  0  0
    1.5894   -5.7369   -1.5678 C   0  0  0  0  0  0  0  0  0  0  0  0
    1.8895   -6.5374   -0.4752 C   0  0  0  0  0  0  0  0  0  0  0  0
    2.3423   -7.8279   -0.6695 C   0  0  0  0  0  0  0  0  0  0  0  0
    2.5083   -8.3178   -1.9518 C   0  0  0  0  0  0  0  0  0  0  0  0
    2.2153   -7.5201   -3.0425 C   0  0  0  0  0  0  0  0  0  0  0  0
    1.7563   -6.2310   -2.8534 C   0  0  0  0  0  0  0  0  0  0  0  0
    3.0089   -9.7238   -2.1610 C   0  0  0  0  0  0  0  0  0  0  0  0
    4.3164   -9.6868   -2.9547 C   0  0  0  0  0  0  0  0  0  0  0  0
    3.2550  -10.3848   -0.8033 C   0  0  0  0  0  0  0  0  0  0  0  0
    1.9636  -10.5272   -2.9373 C   0  0  0  0  0  0  0  0  0  0  0  0
   -0.0178    1.4626    0.0101 C   0  0  0  0  0  0  0  0  0  0  0  0
   -1.0798    2.0566    0.0183 O   0  0  0  0  0  0  0  0  0  0  0  0
    1.1401    2.1523    0.0027 N   0  0  0  0  0  0  0  0  0  0  0  0
    1.1216    3.5182    0.0102 N   0  0  0  0  0  0  0  0  0  0  0  0
   -2.8340   -0.3008   -0.9845 H   0  0  0  0  0  0  0  0  0  0  0  0
   -3.0926   -1.1536    0.5563 H   0  0  0  0  0  0  0  0  0  0  0  0
   -2.5287    0.5347    0.5573 H   0  0  0  0  0  0  0  0  0  0  0  0
    1.9551   -4.0727    0.4765 H   0  0  0  0  0  0  0  0  0  0  0  0
    0.2789   -4.6714    0.4889 H   0  0  0  0  0  0  0  0  0  0  0  0
    1.7646   -6.1535    0.5266 H   0  0  0  0  0  0  0  0  0  0  0  0
    2.5712   -8.4532    0.1808 H   0  0  0  0  0  0  0  0  0  0  0  0
    2.3458   -7.9051   -4.0430 H   0  0  0  0  0  0  0  0  0  0  0  0
    1.5273   -5.6084   -3.7056 H   0  0  0  0  0  0  0  0  0  0  0  0
    5.0611   -9.1145   -2.4016 H   0  0  0  0  0  0  0  0  0  0  0  0
    4.6785  -10.7037   -3.1060 H   0  0  0  0  0  0  0  0  0  0  0  0
    4.1411   -9.2159   -3.9220 H   0  0  0  0  0  0  0  0  0  0  0  0
    2.3236  -10.4111   -0.2378 H   0  0  0  0  0  0  0  0  0  0  0  0
    3.6171  -11.4017   -0.9545 H   0  0  0  0  0  0  0  0  0  0  0  0
    3.9998   -9.8125   -0.2502 H   0  0  0  0  0  0  0  0  0  0  0  0
    1.7882  -10.0562   -3.9046 H   0  0  0  0  0  0  0  0  0  0  0  0
    2.3256  -11.5441   -3.0886 H   0  0  0  0  0  0  0  0  0  0  0  0
    1.0321  -10.5535   -2.3718 H   0  0  0  0  0  0  0  0  0  0  0  0
    1.9866    1.6788   -0.0079 H   0  0  0  0  0  0  0  0  0  0  0  0
    2.0585    3.8925    0.0033 H   0  0  0  0  0  0  0  0  0  0  0  0
    0.5831    3.8767   -0.7641 H   0  0  0  0  0  0  0  0  0  0  0  0
  1  2  1  0  0  0  0
  1 23  1  0  0  0  0
  1 24  1  0  0  0  0
  1 25  1  0  0  0  0
  2  6  1  0  0  0  0
  2  3  2  0  0  0  0
  3  4  1  0  0  0  0
  3 19  1  0  0  0  0
  4  5  1  0  0  0  0
  5  6  2  0  0  0  0
  5  7  1  0  0  0  0
  7  8  1  0  0  0  0
  7 26  1  0  0  0  0
  7 27  1  0  0  0  0
  8  9  1  0  0  0  0
  9 14  2  0  0  0  0
  9 10  1  0  0  0  0
 10 11  2  0  0  0  0
 10 28  1  0  0  0  0
 11 12  1  0  0  0  0
 11 29  1  0  0  0  0
 12 13  2  0  0  0  0
 12 15  1  0  0  0  0
 13 14  1  0  0  0  0
 13 30  1  0  0  0  0
 14 31  1  0  0  0  0
 15 16  1  0  0  0  0
 15 17  1  0  0  0  0
 15 18  1  0  0  0  0
 16 32  1  0  0  0  0
 16 33  1  0  0  0  0
 16 34  1  0  0  0  0
 17 35  1  0  0  0  0
 17 36  1  0  0  0  0
 17 37  1  0  0  0  0
 18 38  1  0  0  0  0
 18 39  1  0  0  0  0
 18 40  1  0  0  0  0
 19 20  2  0  0  0  0
 19 21  1  0  0  0  0
 21 22  1  0  0  0  0
 21 41  1  0  0  0  0
 22 42  1  0  0  0  0
 22 43  1  0  0  0  0
M  END
$$$$
ZINC00124282
  -OEChem-08230709453D

 39 41  0     0  0  0  0  0  0999 V2000
   -2.5053    1.3817   -1.2305 C   0  0  0  0  0  0  0  0  0  0  0  0
   -2.9884    1.8416    0.1208 C   0  0  0  0  0  0  0  0  0  0  0  0
   -2.1746    1.6765    1.2517 C   0  0  0  0  0  0  0  0  0  0  0  0
   -0.8781    1.1085    1.3484 C   0  0  0  0  0  0  0  0  0  0  0  0
   -0.2818    1.0543    2.5164 N   0  0  0  0  0  0  0  0  0  0  0  0
   -0.8523    1.5116    3.6286 C   0  0  0  0  0  0  0  0  0  0  0  0
   -2.0659    2.0501    3.6065 N   0  0  0  0  0  0  0  0  0  0  0  0
   -2.7276    2.1402    2.4756 C   0  0  0  0  0  0  0  0  0  0  0  0
   -4.3173    2.7640    1.9941 S   0  0  0  0  0  0  0  0  0  0  0  0
   -4.2141    2.4179    0.2463 C   0  0  0  0  0  0  0  0  0  0  0  0
   -5.2123    2.6816   -0.7989 C   0  0  0  0  0  0  0  0  0  0  0  0
   -4.9820    2.3709   -1.9524 O   0  0  0  0  0  0  0  0  0  0  0  0
   -6.3833    3.2679   -0.4800 N   0  0  0  0  0  0  0  0  0  0  0  0
   -7.3114    3.5131   -1.4518 N   0  0  0  0  0  0  0  0  0  0  0  0
   -0.1209    1.4187    4.9125 C   0  0  0  0  0  0  0  0  0  0  0  0
    1.1524    0.8513    4.9543 C   0  0  0  0  0  0  0  0  0  0  0  0
    1.8311    0.7717    6.1522 C   0  0  0  0  0  0  0  0  0  0  0  0
    1.2494    1.2440    7.3165 C   0  0  0  0  0  0  0  0  0  0  0  0
   -0.0133    1.8033    7.2885 C   0  0  0  0  0  0  0  0  0  0  0  0
   -0.7061    1.8947    6.0912 C   0  0  0  0  0  0  0  0  0  0  0  0
   -1.9476    2.4434    6.0623 O   0  0  0  0  0  0  0  0  0  0  0  0
   -2.4807    2.9076    7.3042 C   0  0  0  0  0  0  0  0  0  0  0  0
   -0.1885    0.5771    0.1183 C   0  0  0  0  0  0  0  0  0  0  0  0
   -2.7071    0.3167   -1.3454 H   0  0  0  0  0  0  0  0  0  0  0  0
   -3.0263    1.9365   -2.0108 H   0  0  0  0  0  0  0  0  0  0  0  0
   -1.4330    1.5592   -1.3128 H   0  0  0  0  0  0  0  0  0  0  0  0
   -6.5669    3.5157    0.4397 H   0  0  0  0  0  0  0  0  0  0  0  0
   -7.5532    2.6656   -1.9430 H   0  0  0  0  0  0  0  0  0  0  0  0
   -8.1325    3.9535   -1.0647 H   0  0  0  0  0  0  0  0  0  0  0  0
    1.6077    0.4776    4.0491 H   0  0  0  0  0  0  0  0  0  0  0  0
    2.8186    0.3355    6.1830 H   0  0  0  0  0  0  0  0  0  0  0  0
    1.7856    1.1744    8.2515 H   0  0  0  0  0  0  0  0  0  0  0  0
   -0.4614    2.1695    8.2003 H   0  0  0  0  0  0  0  0  0  0  0  0
   -1.8289    3.6794    7.7136 H   0  0  0  0  0  0  0  0  0  0  0  0
   -3.4756    3.3217    7.1404 H   0  0  0  0  0  0  0  0  0  0  0  0
   -2.5443    2.0760    8.0059 H   0  0  0  0  0  0  0  0  0  0  0  0
   -0.8045   -0.1981   -0.3374 H   0  0  0  0  0  0  0  0  0  0  0  0
    0.7778    0.1564    0.3967 H   0  0  0  0  0  0  0  0  0  0  0  0
   -0.0398    1.3885   -0.5941 H   0  0  0  0  0  0  0  0  0  0  0  0
  1  2  1  0  0  0  0
  1 24  1  0  0  0  0
  1 25  1  0  0  0  0
  1 26  1  0  0  0  0
  2 10  2  0  0  0  0
  2  3  1  0  0  0  0
  3  8  2  0  0  0  0
  3  4  1  0  0  0  0
  4  5  2  0  0  0  0
  4 23  1  0  0  0  0
  5  6  1  0  0  0  0
  6  7  2  0  0  0  0
  6 15  1  0  0  0  0
  7  8  1  0  0  0  0
  8  9  1  0  0  0  0
  9 10  1  0  0  0  0
 10 11  1  0  0  0  0
 11 12  2  0  0  0  0
 11 13  1  0  0  0  0
 13 14  1  0  0  0  0
 13 27  1  0  0  0  0
 14 28  1  0  0  0  0
 14 29  1  0  0  0  0
 15 20  2  0  0  0  0
 15 16  1  0  0  0  0
 16 17  2  0  0  0  0
 16 30  1  0  0  0  0
 17 18  1  0  0  0  0
 17 31  1  0  0  0  0
 18 19  2  0  0  0  0
 18 32  1  0  0  0  0
 19 20  1  0  0  0  0
 19 33  1  0  0  0  0
 20 21  1  0  0  0  0
 21 22  1  0  0  0  0
 22 34  1  0  0  0  0
 22 35  1  0  0  0  0
 22 36  1  0  0  0  0
 23 37  1  0  0  0  0
 23 38  1  0  0  0  0
 23 39  1  0  0  0  0
M  END
$$$$
ZINC00138042
  -OEChem-08230709453D

 49 51  0     1  0  0  0  0  0999 V2000
   -9.2240    1.6971    0.0791 C   0  0  0  0  0  0  0  0  0  0  0  0
   -8.2796    2.0315   -1.0773 C   0  0  0  0  0  0  0  0  0  0  0  0
   -8.9786    1.7629   -2.4450 C   0  0  1  0  0  0  0  0  0  0  0  0
  -10.0185    2.0811   -2.5193 H   0  0  0  0  0  0  0  0  0  0  0  0
   -8.0050    2.3623   -3.5053 C   0  0  0  0  0  0  0  0  0  0  0  0
   -6.7852    1.4128   -3.4967 C   0  0  0  0  0  0  0  0  0  0  0  0
   -7.1367    0.3292   -2.4320 C   0  0  2  0  0  0  0  0  0  0  0  0
   -6.5724   -0.6013   -2.4949 H   0  0  0  0  0  0  0  0  0  0  0  0
   -8.6915    0.2300   -2.6214 C   0  0  0  0  0  0  0  0  0  0  0  0
   -7.0598    1.0820   -1.0687 C   0  0  2  0  0  0  0  0  0  0  0  0
   -7.1610    0.0943    0.0954 C   0  0  0  0  0  0  0  0  0  0  0  0
   -5.8154    1.8500   -0.9788 N   0  0  0  0  0  0  0  0  0  0  0  0
   -4.6271    1.2212   -1.0738 C   0  0  0  0  0  0  0  0  0  0  0  0
   -4.5686   -0.4863   -1.1838 S   0  0  0  0  0  0  0  0  0  0  0  0
   -3.4849    1.9366   -1.0821 N   0  0  0  0  0  0  0  0  0  0  0  0
   -3.5329    3.3338   -0.9921 N   0  0  0  0  0  0  0  0  0  0  0  0
   -2.4472    4.0311   -1.1350 C   0  0  0  0  0  0  0  0  0  0  0  0
   -1.2964    3.4625   -1.8581 C   0  0  0  0  0  0  0  0  0  0  0  0
   -1.4843    2.4126   -2.7607 C   0  0  0  0  0  0  0  0  0  0  0  0
   -0.4054    1.8834   -3.4346 C   0  0  0  0  0  0  0  0  0  0  0  0
    0.8707    2.3904   -3.2198 C   0  0  0  0  0  0  0  0  0  0  0  0
    1.0677    3.4327   -2.3258 C   0  0  0  0  0  0  0  0  0  0  0  0
   -0.0073    3.9687   -1.6388 C   0  0  0  0  0  0  0  0  0  0  0  0
    0.1848    4.9854   -0.7590 O   0  0  0  0  0  0  0  0  0  0  0  0
    1.9295    1.8629   -3.8878 O   0  0  0  0  0  0  0  0  0  0  0  0
   -7.8219    3.4886   -0.9865 C   0  0  0  0  0  0  0  0  0  0  0  0
   -8.6939    1.8088    1.0250 H   0  0  0  0  0  0  0  0  0  0  0  0
  -10.0775    2.3748    0.0587 H   0  0  0  0  0  0  0  0  0  0  0  0
   -9.5733    0.6696   -0.0226 H   0  0  0  0  0  0  0  0  0  0  0  0
   -8.4733    2.3703   -4.4895 H   0  0  0  0  0  0  0  0  0  0  0  0
   -7.7042    3.3699   -3.2184 H   0  0  0  0  0  0  0  0  0  0  0  0
   -6.6538    0.9540   -4.4767 H   0  0  0  0  0  0  0  0  0  0  0  0
   -5.8847    1.9536   -3.2055 H   0  0  0  0  0  0  0  0  0  0  0  0
   -9.1614   -0.3665   -1.8393 H   0  0  0  0  0  0  0  0  0  0  0  0
   -8.9604   -0.1244   -3.6165 H   0  0  0  0  0  0  0  0  0  0  0  0
   -7.2297    0.6445    1.0338 H   0  0  0  0  0  0  0  0  0  0  0  0
   -8.0498   -0.5242   -0.0292 H   0  0  0  0  0  0  0  0  0  0  0  0
   -6.2754   -0.5411    0.1107 H   0  0  0  0  0  0  0  0  0  0  0  0
   -5.8468    2.8110   -0.8510 H   0  0  0  0  0  0  0  0  0  0  0  0
   -2.6297    1.4840   -1.1504 H   0  0  0  0  0  0  0  0  0  0  0  0
   -2.3876    5.0280   -0.7237 H   0  0  0  0  0  0  0  0  0  0  0  0
   -2.4746    2.0165   -2.9302 H   0  0  0  0  0  0  0  0  0  0  0  0
   -0.5518    1.0721   -4.1322 H   0  0  0  0  0  0  0  0  0  0  0  0
    2.0614    3.8231   -2.1625 H   0  0  0  0  0  0  0  0  0  0  0  0
    0.0431    5.8643   -1.1366 H   0  0  0  0  0  0  0  0  0  0  0  0
    2.3575    1.1274   -3.4286 H   0  0  0  0  0  0  0  0  0  0  0  0
   -7.0779    3.6846   -1.7585 H   0  0  0  0  0  0  0  0  0  0  0  0
   -8.6778    4.1480   -1.1310 H   0  0  0  0  0  0  0  0  0  0  0  0
   -7.3841    3.6715   -0.0052 H   0  0  0  0  0  0  0  0  0  0  0  0
  1  2  1  0  0  0  0
  1 27  1  0  0  0  0
  1 28  1  0  0  0  0
  1 29  1  0  0  0  0
  2 10  1  0  0  0  0
  2  3  1  0  0  0  0
  2 26  1  0  0  0  0
  3  4  1  0  0  0  0
  3  9  1  0  0  0  0
  3  5  1  0  0  0  0
  5  6  1  0  0  0  0
  5 30  1  0  0  0  0
  5 31  1  0  0  0  0
  6  7  1  0  0  0  0
  6 32  1  0  0  0  0
  6 33  1  0  0  0  0
  7  8  1  0  0  0  0
  7  9  1  0  0  0  0
  7 10  1  0  0  0  0
  9 34  1  0  0  0  0
  9 35  1  0  0  0  0
 10 11  1  0  0  0  0
 10 12  1  0  0  0  0
 11 36  1  0  0  0  0
 11 37  1  0  0  0  0
 11 38  1  0  0  0  0
 12 13  1  0  0  0  0
 12 39  1  0  0  0  0
 13 14  2  0  0  0  0
 13 15  1  0  0  0  0
 15 16  1  0  0  0  0
 15 40  1  0  0  0  0
 16 17  2  3  0  0  0
 17 18  1  0  0  0  0
 17 41  1  0  0  0  0
 18 23  2  0  0  0  0
 18 19  1  0  0  0  0
 19 20  2  0  0  0  0
 19 42  1  0  0  0  0
 20 21  1  0  0  0  0
 20 43  1  0  0  0  0
 21 22  2  0  0  0  0
 21 25  1  0  0  0  0
 22 23  1  0  0  0  0
 22 44  1  0  0  0  0
 23 24  1  0  0  0  0
 24 45  1  0  0  0  0
 25 46  1  0  0  0  0
 26 47  1  0  0  0  0
 26 48  1  0  0  0  0
 26 49  1  0  0  0  0
M  END
$$$$
ZINC00138499
  -OEChem-08230709453D

 40 41  0     1  0  0  0  0  0999 V2000
    6.8975   -7.7922   -2.4683 C   0  0  0  0  0  0  0  0  0  0  0  0
    5.4907   -7.3169   -2.2113 C   0  0  0  0  0  0  0  0  0  0  0  0
    5.2700   -6.2173   -1.4044 C   0  0  0  0  0  0  0  0  0  0  0  0
    3.9748   -5.7829   -1.1647 C   0  0  0  0  0  0  0  0  0  0  0  0
    2.9036   -6.4480   -1.7437 C   0  0  0  0  0  0  0  0  0  0  0  0
    3.1285   -7.5443   -2.5532 C   0  0  0  0  0  0  0  0  0  0  0  0
    4.4213   -7.9791   -2.7873 C   0  0  0  0  0  0  0  0  0  0  0  0
    4.7014   -9.3569   -3.8056 Cl  0  0  0  0  0  0  0  0  0  0  0  0
    3.7555   -4.7036   -0.3682 O   0  0  0  0  0  0  0  0  0  0  0  0
    2.4087   -4.2378   -0.2631 C   0  0  1  0  0  0  0  0  0  0  0  0
    1.9016   -4.3739   -1.2183 H   0  0  0  0  0  0  0  0  0  0  0  0
    1.6772   -5.0326    0.8205 C   0  0  0  0  0  0  0  0  0  0  0  0
    2.4099   -2.7754    0.1010 C   0  0  0  0  0  0  0  0  0  0  0  0
    3.4606   -2.1898    0.2553 O   0  0  0  0  0  0  0  0  0  0  0  0
    1.2432   -2.1184    0.2551 N   0  0  0  0  0  0  0  0  0  0  0  0
    1.2430   -0.7446    0.4940 C   0  0  0  0  0  0  0  0  0  0  0  0
    2.2435   -0.1759    1.2760 C   0  0  0  0  0  0  0  0  0  0  0  0
    2.2465    1.1802    1.5134 C   0  0  0  0  0  0  0  0  0  0  0  0
    1.2432    1.9857    0.9680 C   0  0  0  0  0  0  0  0  0  0  0  0
    0.2400    1.4113    0.1827 C   0  0  0  0  0  0  0  0  0  0  0  0
    0.2426    0.0545   -0.0505 C   0  0  0  0  0  0  0  0  0  0  0  0
    1.2430    3.4398    1.2209 C   0  0  0  0  0  0  0  0  0  0  0  0
    2.1164    3.9381    1.9043 O   0  0  0  0  0  0  0  0  0  0  0  0
    0.2746    4.2153    0.6941 N   0  0  0  0  0  0  0  0  0  0  0  0
    7.2956   -7.2892   -3.3496 H   0  0  0  0  0  0  0  0  0  0  0  0
    7.5222   -7.5619   -1.6053 H   0  0  0  0  0  0  0  0  0  0  0  0
    6.8923   -8.8692   -2.6359 H   0  0  0  0  0  0  0  0  0  0  0  0
    6.1054   -5.6981   -0.9583 H   0  0  0  0  0  0  0  0  0  0  0  0
    1.8946   -6.1090   -1.5612 H   0  0  0  0  0  0  0  0  0  0  0  0
    2.2950   -8.0623   -3.0040 H   0  0  0  0  0  0  0  0  0  0  0  0
    0.6499   -4.6772    0.9006 H   0  0  0  0  0  0  0  0  0  0  0  0
    1.6763   -6.0903    0.5571 H   0  0  0  0  0  0  0  0  0  0  0  0
    2.1843   -4.8964    1.7757 H   0  0  0  0  0  0  0  0  0  0  0  0
    0.4037   -2.6012    0.1999 H   0  0  0  0  0  0  0  0  0  0  0  0
    3.0188   -0.7989    1.6968 H   0  0  0  0  0  0  0  0  0  0  0  0
    3.0209    1.6203    2.1241 H   0  0  0  0  0  0  0  0  0  0  0  0
   -0.5364    2.0311   -0.2408 H   0  0  0  0  0  0  0  0  0  0  0  0
   -0.5325   -0.3901   -0.6570 H   0  0  0  0  0  0  0  0  0  0  0  0
   -0.4222    3.8177    0.1489 H   0  0  0  0  0  0  0  0  0  0  0  0
    0.2745    5.1709    0.8603 H   0  0  0  0  0  0  0  0  0  0  0  0
  1  2  1  0  0  0  0
  1 25  1  0  0  0  0
  1 26  1  0  0  0  0
  1 27  1  0  0  0  0
  2  7  2  0  0  0  0
  2  3  1  0  0  0  0
  3  4  2  0  0  0  0
  3 28  1  0  0  0  0
  4  5  1  0  0  0  0
  4  9  1  0  0  0  0
  5  6  2  0  0  0  0
  5 29  1  0  0  0  0
  6  7  1  0  0  0  0
  6 30  1  0  0  0  0
  7  8  1  0  0  0  0
  9 10  1  0  0  0  0
 10 11  1  0  0  0  0
 10 12  1  0  0  0  0
 10 13  1  0  0  0  0
 12 31  1  0  0  0  0
 12 32  1  0  0  0  0
 12 33  1  0  0  0  0
 13 14  2  0  0  0  0
 13 15  1  0  0  0  0
 15 16  1  0  0  0  0
 15 34  1  0  0  0  0
 16 21  2  0  0  0  0
 16 17  1  0  0  0  0
 17 18  2  0  0  0  0
 17 35  1  0  0  0  0
 18 19  1  0  0  0  0
 18 36  1  0  0  0  0
 19 20  2  0  0  0  0
 19 22  1  0  0  0  0
 20 21  1  0  0  0  0
 20 37  1  0  0  0  0
 21 38  1  0  0  0  0
 22 23  2  0  0  0  0
 22 24  1  0  0  0  0
 24 39  1  0  0  0  0
 24 40  1  0  0  0  0
M  END
$$$$
ZINC00138502
  -OEChem-08230709453D

 40 41  0     1  0  0  0  0  0999 V2000
    4.5879    2.2895   -1.0542 C   0  0  0  0  0  0  0  0  0  0  0  0
    3.2039    2.8005   -0.7470 C   0  0  0  0  0  0  0  0  0  0  0  0
    2.1749    1.9086   -0.5127 C   0  0  0  0  0  0  0  0  0  0  0  0
    0.9000    2.3793   -0.2357 C   0  0  0  0  0  0  0  0  0  0  0  0
    0.6629    3.7454   -0.1835 C   0  0  0  0  0  0  0  0  0  0  0  0
    1.6954    4.6338   -0.4127 C   0  0  0  0  0  0  0  0  0  0  0  0
    2.9656    4.1622   -0.6942 C   0  0  0  0  0  0  0  0  0  0  0  0
    4.2616    5.2808   -0.9818 Cl  0  0  0  0  0  0  0  0  0  0  0  0
   -0.1146    1.5035   -0.0100 O   0  0  0  0  0  0  0  0  0  0  0  0
    0.2241    0.1160    0.0356 C   0  0  2  0  0  0  0  0  0  0  0  0
    1.2100   -0.0027    0.4851 H   0  0  0  0  0  0  0  0  0  0  0  0
    0.2395   -0.4521   -1.3849 C   0  0  0  0  0  0  0  0  0  0  0  0
   -0.7968   -0.6235    0.8614 C   0  0  0  0  0  0  0  0  0  0  0  0
   -1.7714   -0.0397    1.2858 O   0  0  0  0  0  0  0  0  0  0  0  0
   -0.6267   -1.9336    1.1282 N   0  0  0  0  0  0  0  0  0  0  0  0
   -1.6188   -2.6416    1.8056 C   0  0  0  0  0  0  0  0  0  0  0  0
   -2.3453   -2.0223    2.8177 C   0  0  0  0  0  0  0  0  0  0  0  0
   -3.3288   -2.7170    3.4852 C   0  0  0  0  0  0  0  0  0  0  0  0
   -3.5896   -4.0490    3.1524 C   0  0  0  0  0  0  0  0  0  0  0  0
   -2.8543   -4.6697    2.1390 C   0  0  0  0  0  0  0  0  0  0  0  0
   -1.8759   -3.9676    1.4718 C   0  0  0  0  0  0  0  0  0  0  0  0
   -4.6397   -4.7985    3.8695 C   0  0  0  0  0  0  0  0  0  0  0  0
   -4.8658   -5.9572    3.5786 O   0  0  0  0  0  0  0  0  0  0  0  0
   -5.3479   -4.1984    4.8466 N   0  0  0  0  0  0  0  0  0  0  0  0
    5.1443    2.1664   -0.1250 H   0  0  0  0  0  0  0  0  0  0  0  0
    4.5157    1.3291   -1.5645 H   0  0  0  0  0  0  0  0  0  0  0  0
    5.1049    3.0036   -1.6953 H   0  0  0  0  0  0  0  0  0  0  0  0
    2.3624    0.8456   -0.5493 H   0  0  0  0  0  0  0  0  0  0  0  0
   -0.3283    4.1138    0.0357 H   0  0  0  0  0  0  0  0  0  0  0  0
    1.5113    5.6972   -0.3719 H   0  0  0  0  0  0  0  0  0  0  0  0
    0.9779    0.0827   -1.9822 H   0  0  0  0  0  0  0  0  0  0  0  0
    0.4979   -1.5105   -1.3502 H   0  0  0  0  0  0  0  0  0  0  0  0
   -0.7464   -0.3334   -1.8344 H   0  0  0  0  0  0  0  0  0  0  0  0
    0.1858   -2.3839    0.8490 H   0  0  0  0  0  0  0  0  0  0  0  0
   -2.1404   -0.9941    3.0771 H   0  0  0  0  0  0  0  0  0  0  0  0
   -3.8952   -2.2344    4.2679 H   0  0  0  0  0  0  0  0  0  0  0  0
   -3.0537   -5.6988    1.8792 H   0  0  0  0  0  0  0  0  0  0  0  0
   -1.3076   -4.4466    0.6883 H   0  0  0  0  0  0  0  0  0  0  0  0
   -5.1675   -3.2740    5.0787 H   0  0  0  0  0  0  0  0  0  0  0  0
   -6.0380   -4.6910    5.3179 H   0  0  0  0  0  0  0  0  0  0  0  0
  1  2  1  0  0  0  0
  1 25  1  0  0  0  0
  1 26  1  0  0  0  0
  1 27  1  0  0  0  0
  2  7  2  0  0  0  0
  2  3  1  0  0  0  0
  3  4  2  0  0  0  0
  3 28  1  0  0  0  0
  4  5  1  0  0  0  0
  4  9  1  0  0  0  0
  5  6  2  0  0  0  0
  5 29  1  0  0  0  0
  6  7  1  0  0  0  0
  6 30  1  0  0  0  0
  7  8  1  0  0  0  0
  9 10  1  0  0  0  0
 10 11  1  0  0  0  0
 10 12  1  0  0  0  0
 10 13  1  0  0  0  0
 12 31  1  0  0  0  0
 12 32  1  0  0  0  0
 12 33  1  0  0  0  0
 13 14  2  0  0  0  0
 13 15  1  0  0  0  0
 15 16  1  0  0  0  0
 15 34  1  0  0  0  0
 16 21  2  0  0  0  0
 16 17  1  0  0  0  0
 17 18  2  0  0  0  0
 17 35  1  0  0  0  0
 18 19  1  0  0  0  0
 18 36  1  0  0  0  0
 19 20  2  0  0  0  0
 19 22  1  0  0  0  0
 20 21  1  0  0  0  0
 20 37  1  0  0  0  0
 21 38  1  0  0  0  0
 22 23  2  0  0  0  0
 22 24  1  0  0  0  0
 24 39  1  0  0  0  0
 24 40  1  0  0  0  0
M  END
$$$$
ZINC00140707
  -OEChem-08230709453D

 41 42  0     0  0  0  0  0  0999 V2000
    6.0061   -0.7399   -0.0584 C   0  0  0  0  0  0  0  0  0  0  0  0
    4.7792    0.1741   -0.0417 C   0  0  0  0  0  0  0  0  0  0  0  0
    3.5924   -0.6218   -0.0351 O   0  0  0  0  0  0  0  0  0  0  0  0
    2.4053    0.0405   -0.0202 C   0  0  0  0  0  0  0  0  0  0  0  0
    2.3869    1.4277   -0.0126 C   0  0  0  0  0  0  0  0  0  0  0  0
    1.1856    2.1045    0.0020 C   0  0  0  0  0  0  0  0  0  0  0  0
   -0.0169    1.3930    0.0097 C   0  0  0  0  0  0  0  0  0  0  0  0
    0.0021   -0.0041    0.0020 C   0  0  0  0  0  0  0  0  0  0  0  0
    1.2103   -0.6755   -0.0131 C   0  0  0  0  0  0  0  0  0  0  0  0
    1.2324   -2.0353   -0.0206 O   0  0  0  0  0  0  0  0  0  0  0  0
   -0.0301   -2.7047   -0.0122 C   0  0  0  0  0  0  0  0  0  0  0  0
   -1.3024    2.1146    0.0197 C   0  0  0  0  0  0  0  0  0  0  0  0
   -1.3181    3.4125    0.0268 N   0  0  0  0  0  0  0  0  0  0  0  0
   -2.5398    4.0982    0.0363 N   0  0  0  0  0  0  0  0  0  0  0  0
   -2.5561    5.4459    0.0437 C   0  0  0  0  0  0  0  0  0  0  0  0
   -1.5088    6.0676    0.0422 O   0  0  0  0  0  0  0  0  0  0  0  0
   -3.8309    6.1614    0.0537 C   0  0  0  0  0  0  0  0  0  0  0  0
   -4.0813    7.5263    0.0679 C   0  0  0  0  0  0  0  0  0  0  0  0
   -5.3294    7.9170    0.0699 N   0  0  0  0  0  0  0  0  0  0  0  0
   -6.3283    7.0469    0.0705 C   0  0  0  0  0  0  0  0  0  0  0  0
   -5.4994    5.5212    0.0587 S   0  0  0  0  0  0  0  0  0  0  0  0
   -7.6849    7.2913    0.0790 N   0  0  0  0  0  0  0  0  0  0  0  0
   -2.9528    8.5250    0.0761 C   0  0  0  0  0  0  0  0  0  0  0  0
    5.9822   -1.3639   -0.9518 H   0  0  0  0  0  0  0  0  0  0  0  0
    6.9114   -0.1328   -0.0634 H   0  0  0  0  0  0  0  0  0  0  0  0
    5.9988   -1.3741    0.8281 H   0  0  0  0  0  0  0  0  0  0  0  0
    4.7865    0.8083   -0.9282 H   0  0  0  0  0  0  0  0  0  0  0  0
    4.8032    0.7982    0.8517 H   0  0  0  0  0  0  0  0  0  0  0  0
    3.3157    1.9787   -0.0182 H   0  0  0  0  0  0  0  0  0  0  0  0
    1.1742    3.1845    0.0076 H   0  0  0  0  0  0  0  0  0  0  0  0
   -0.9250   -0.5580    0.0083 H   0  0  0  0  0  0  0  0  0  0  0  0
   -0.5833   -2.4257    0.8846 H   0  0  0  0  0  0  0  0  0  0  0  0
   -0.6003   -2.4162   -0.8952 H   0  0  0  0  0  0  0  0  0  0  0  0
    0.1302   -3.7828   -0.0195 H   0  0  0  0  0  0  0  0  0  0  0  0
   -2.2311    1.5633    0.0211 H   0  0  0  0  0  0  0  0  0  0  0  0
   -3.3739    3.6031    0.0376 H   0  0  0  0  0  0  0  0  0  0  0  0
   -8.3112    6.5506    0.0786 H   0  0  0  0  0  0  0  0  0  0  0  0
   -8.0133    8.2040    0.0855 H   0  0  0  0  0  0  0  0  0  0  0  0
   -2.6825    8.7762   -0.9496 H   0  0  0  0  0  0  0  0  0  0  0  0
   -3.2696    9.4270    0.5996 H   0  0  0  0  0  0  0  0  0  0  0  0
   -2.0900    8.0941    0.5840 H   0  0  0  0  0  0  0  0  0  0  0  0
  1  2  1  0  0  0  0
  1 24  1  0  0  0  0
  1 25  1  0  0  0  0
  1 26  1  0  0  0  0
  2  3  1  0  0  0  0
  2 27  1  0  0  0  0
  2 28  1  0  0  0  0
  3  4  1  0  0  0  0
  4  9  2  0  0  0  0
  4  5  1  0  0  0  0
  5  6  2  0  0  0  0
  5 29  1  0  0  0  0
  6  7  1  0  0  0  0
  6 30  1  0  0  0  0
  7  8  2  0  0  0  0
  7 12  1  0  0  0  0
  8  9  1  0  0  0  0
  8 31  1  0  0  0  0
  9 10  1  0  0  0  0
 10 11  1  0  0  0  0
 11 32  1  0  0  0  0
 11 33  1  0  0  0  0
 11 34  1  0  0  0  0
 12 13  2  0  0  0  0
 12 35  1  0  0  0  0
 13 14  1  0  0  0  0
 14 15  1  0  0  0  0
 14 36  1  0  0  0  0
 15 16  2  0  0  0  0
 15 17  1  0  0  0  0
 17 21  1  0  0  0  0
 17 18  2  0  0  0  0
 18 19  1  0  0  0  0
 18 23  1  0  0  0  0
 19 20  2  0  0  0  0
 20 21  1  0  0  0  0
 20 22  1  0  0  0  0
 22 37  1  0  0  0  0
 22 38  1  0  0  0  0
 23 39  1  0  0  0  0
 23 40  1  0  0  0  0
 23 41  1  0  0  0  0
M  END
$$$$
ZINC00147100
  -OEChem-08230709453D

 43 44  0     0  0  0  0  0  0999 V2000
    0.2616   -8.8265   -2.7842 C   0  0  0  0  0  0  0  0  0  0  0  0
   -0.4919   -8.3492   -1.5411 C   0  0  0  0  0  0  0  0  0  0  0  0
   -0.4684   -6.8983   -1.4883 O   0  0  0  0  0  0  0  0  0  0  0  0
   -1.0925   -6.3139   -0.4468 C   0  0  0  0  0  0  0  0  0  0  0  0
   -1.6414   -6.9979    0.3942 O   0  0  0  0  0  0  0  0  0  0  0  0
   -1.1094   -4.8444   -0.3277 C   0  0  0  0  0  0  0  0  0  0  0  0
   -1.7565   -4.2363    0.7523 C   0  0  0  0  0  0  0  0  0  0  0  0
   -1.7699   -2.8643    0.8605 C   0  0  0  0  0  0  0  0  0  0  0  0
   -1.1403   -2.0824   -0.1034 C   0  0  0  0  0  0  0  0  0  0  0  0
   -0.5001   -2.6842   -1.1828 C   0  0  0  0  0  0  0  0  0  0  0  0
   -0.4779   -4.0557   -1.2943 C   0  0  0  0  0  0  0  0  0  0  0  0
   -1.1558   -0.6938    0.0094 N   0  0  0  0  0  0  0  0  0  0  0  0
   -0.0423    0.0166   -0.2587 C   0  0  0  0  0  0  0  0  0  0  0  0
    1.4277   -0.7921   -0.5993 S   0  0  0  0  0  0  0  0  0  0  0  0
   -0.0860    1.3637   -0.2586 N   0  0  0  0  0  0  0  0  0  0  0  0
    1.1244    2.1358   -0.5499 C   0  0  0  0  0  0  0  0  0  0  0  0
    0.8037    3.6305   -0.4856 C   0  0  0  0  0  0  0  0  0  0  0  0
    2.0141    4.4026   -0.7770 N   0  0  0  0  0  0  0  0  0  0  0  0
    2.9903    4.8655    0.2207 C   0  0  0  0  0  0  0  0  0  0  0  0
    4.0477    5.6116   -0.6159 C   0  0  0  0  0  0  0  0  0  0  0  0
    3.5503    5.4978   -1.9951 N   0  0  0  0  0  0  0  0  0  0  0  0
    2.4045    4.8041   -1.9938 C   0  0  0  0  0  0  0  0  0  0  0  0
    1.7758    4.5605   -3.0056 O   0  0  0  0  0  0  0  0  0  0  0  0
    0.2439   -9.9157   -2.8239 H   0  0  0  0  0  0  0  0  0  0  0  0
   -0.2168   -8.4227   -3.6765 H   0  0  0  0  0  0  0  0  0  0  0  0
    1.2944   -8.4814   -2.7379 H   0  0  0  0  0  0  0  0  0  0  0  0
   -0.0136   -8.7531   -0.6489 H   0  0  0  0  0  0  0  0  0  0  0  0
   -1.5248   -8.6943   -1.5875 H   0  0  0  0  0  0  0  0  0  0  0  0
   -2.2450   -4.8424    1.5009 H   0  0  0  0  0  0  0  0  0  0  0  0
   -2.2692   -2.3939    1.6947 H   0  0  0  0  0  0  0  0  0  0  0  0
   -0.0166   -2.0742   -1.9315 H   0  0  0  0  0  0  0  0  0  0  0  0
    0.0232   -4.5222   -2.1296 H   0  0  0  0  0  0  0  0  0  0  0  0
   -1.9681   -0.2383    0.2808 H   0  0  0  0  0  0  0  0  0  0  0  0
   -0.9198    1.8219   -0.0695 H   0  0  0  0  0  0  0  0  0  0  0  0
    1.8933    1.8972    0.1849 H   0  0  0  0  0  0  0  0  0  0  0  0
    1.4846    1.8841   -1.5474 H   0  0  0  0  0  0  0  0  0  0  0  0
    0.0349    3.8690   -1.2205 H   0  0  0  0  0  0  0  0  0  0  0  0
    0.4435    3.8821    0.5119 H   0  0  0  0  0  0  0  0  0  0  0  0
    2.5175    5.5409    0.9338 H   0  0  0  0  0  0  0  0  0  0  0  0
    3.4416    4.0179    0.7364 H   0  0  0  0  0  0  0  0  0  0  0  0
    5.0230    5.1344   -0.5203 H   0  0  0  0  0  0  0  0  0  0  0  0
    4.1012    6.6575   -0.3136 H   0  0  0  0  0  0  0  0  0  0  0  0
    3.9833    5.8665   -2.7809 H   0  0  0  0  0  0  0  0  0  0  0  0
  1  2  1  0  0  0  0
  1 24  1  0  0  0  0
  1 25  1  0  0  0  0
  1 26  1  0  0  0  0
  2  3  1  0  0  0  0
  2 27  1  0  0  0  0
  2 28  1  0  0  0  0
  3  4  1  0  0  0  0
  4  5  2  0  0  0  0
  4  6  1  0  0  0  0
  6 11  2  0  0  0  0
  6  7  1  0  0  0  0
  7  8  2  0  0  0  0
  7 29  1  0  0  0  0
  8  9  1  0  0  0  0
  8 30  1  0  0  0  0
  9 10  2  0  0  0  0
  9 12  1  0  0  0  0
 10 11  1  0  0  0  0
 10 31  1  0  0  0  0
 11 32  1  0  0  0  0
 12 13  1  0  0  0  0
 12 33  1  0  0  0  0
 13 14  2  0  0  0  0
 13 15  1  0  0  0  0
 15 16  1  0  0  0  0
 15 34  1  0  0  0  0
 16 17  1  0  0  0  0
 16 35  1  0  0  0  0
 16 36  1  0  0  0  0
 17 18  1  0  0  0  0
 17 37  1  0  0  0  0
 17 38  1  0  0  0  0
 18 22  1  0  0  0  0
 18 19  1  0  0  0  0
 19 20  1  0  0  0  0
 19 39  1  0  0  0  0
 19 40  1  0  0  0  0
 20 21  1  0  0  0  0
 20 41  1  0  0  0  0
 20 42  1  0  0  0  0
 21 22  1  0  0  0  0
 21 43  1  0  0  0  0
 22 23  2  0  0  0  0
M  END
$$$$
ZINC00160866
  -OEChem-08230709453D

 44 46  0     0  0  0  0  0  0999 V2000
   -2.4871    0.9625    0.0786 C   0  0  0  0  0  0  0  0  0  0  0  0
   -1.1981    1.7428    0.0607 C   0  0  0  0  0  0  0  0  0  0  0  0
   -1.2399    3.1354    0.0732 C   0  0  0  0  0  0  0  0  0  0  0  0
   -0.0908    3.8690    0.0527 C   0  0  0  0  0  0  0  0  0  0  0  0
    1.1459    3.2154    0.0231 C   0  0  0  0  0  0  0  0  0  0  0  0
    2.4045    3.9615   -0.0002 C   0  0  0  0  0  0  0  0  0  0  0  0
    3.5802    3.2263   -0.0293 C   0  0  0  0  0  0  0  0  0  0  0  0
    3.5162    1.8240   -0.0352 C   0  0  0  0  0  0  0  0  0  0  0  0
    2.3725    1.1723   -0.0143 N   0  0  0  0  0  0  0  0  0  0  0  0
    1.1949    1.7988    0.0147 C   0  0  0  0  0  0  0  0  0  0  0  0
   -0.0121    1.0757    0.0370 C   0  0  0  0  0  0  0  0  0  0  0  0
    4.7798    1.0503   -0.0664 C   0  0  0  0  0  0  0  0  0  0  0  0
    6.0053    1.7108    0.0159 C   0  0  0  0  0  0  0  0  0  0  0  0
    7.1810    0.9900   -0.0133 C   0  0  0  0  0  0  0  0  0  0  0  0
    7.1477   -0.3923   -0.1244 C   0  0  0  0  0  0  0  0  0  0  0  0
    5.9266   -1.0576   -0.2065 C   0  0  0  0  0  0  0  0  0  0  0  0
    4.7451   -0.3399   -0.1723 C   0  0  0  0  0  0  0  0  0  0  0  0
    5.8962   -2.4129   -0.3148 O   0  0  0  0  0  0  0  0  0  0  0  0
    4.6092   -3.0287   -0.3945 C   0  0  0  0  0  0  0  0  0  0  0  0
    8.3085   -1.0988   -0.1528 O   0  0  0  0  0  0  0  0  0  0  0  0
    9.5242   -0.3531   -0.0640 C   0  0  0  0  0  0  0  0  0  0  0  0
    2.4221    5.4405    0.0076 C   0  0  0  0  0  0  0  0  0  0  0  0
    1.3801    6.0611   -0.0713 O   0  0  0  0  0  0  0  0  0  0  0  0
    3.5937    6.1000    0.1021 N   0  0  0  0  0  0  0  0  0  0  0  0
    3.6100    7.4659    0.1093 N   0  0  0  0  0  0  0  0  0  0  0  0
   -2.7804    0.7689    1.1105 H   0  0  0  0  0  0  0  0  0  0  0  0
   -3.2675    1.5384   -0.4189 H   0  0  0  0  0  0  0  0  0  0  0  0
   -2.3460    0.0157   -0.4426 H   0  0  0  0  0  0  0  0  0  0  0  0
   -2.1945    3.6400    0.0964 H   0  0  0  0  0  0  0  0  0  0  0  0
   -0.1350    4.9480    0.0589 H   0  0  0  0  0  0  0  0  0  0  0  0
    4.5364    3.7281   -0.0477 H   0  0  0  0  0  0  0  0  0  0  0  0
    0.0025   -0.0042    0.0307 H   0  0  0  0  0  0  0  0  0  0  0  0
    6.0338    2.7869    0.1028 H   0  0  0  0  0  0  0  0  0  0  0  0
    8.1293    1.5029    0.0508 H   0  0  0  0  0  0  0  0  0  0  0  0
    3.7975   -0.8545   -0.2313 H   0  0  0  0  0  0  0  0  0  0  0  0
    4.0802   -2.6529   -1.2704 H   0  0  0  0  0  0  0  0  0  0  0  0
    4.7278   -4.1090   -0.4775 H   0  0  0  0  0  0  0  0  0  0  0  0
    4.0378   -2.7938    0.5035 H   0  0  0  0  0  0  0  0  0  0  0  0
   10.3728   -1.0363   -0.0981 H   0  0  0  0  0  0  0  0  0  0  0  0
    9.5849    0.3437   -0.9000 H   0  0  0  0  0  0  0  0  0  0  0  0
    9.5422    0.2022    0.8738 H   0  0  0  0  0  0  0  0  0  0  0  0
    4.4254    5.6047    0.1650 H   0  0  0  0  0  0  0  0  0  0  0  0
    3.0289    7.8306    0.8491 H   0  0  0  0  0  0  0  0  0  0  0  0
    4.5534    7.8158    0.1846 H   0  0  0  0  0  0  0  0  0  0  0  0
  1  2  1  0  0  0  0
  1 26  1  0  0  0  0
  1 27  1  0  0  0  0
  1 28  1  0  0  0  0
  2 11  2  0  0  0  0
  2  3  1  0  0  0  0
  3  4  2  0  0  0  0
  3 29  1  0  0  0  0
  4  5  1  0  0  0  0
  4 30  1  0  0  0  0
  5 10  2  0  0  0  0
  5  6  1  0  0  0  0
  6  7  2  0  0  0  0
  6 22  1  0  0  0  0
  7  8  1  0  0  0  0
  7 31  1  0  0  0  0
  8  9  2  0  0  0  0
  8 12  1  0  0  0  0
  9 10  1  0  0  0  0
 10 11  1  0  0  0  0
 11 32  1  0  0  0  0
 12 17  2  0  0  0  0
 12 13  1  0  0  0  0
 13 14  2  0  0  0  0
 13 33  1  0  0  0  0
 14 15  1  0  0  0  0
 14 34  1  0  0  0  0
 15 16  2  0  0  0  0
 15 20  1  0  0  0  0
 16 17  1  0  0  0  0
 16 18  1  0  0  0  0
 17 35  1  0  0  0  0
 18 19  1  0  0  0  0
 19 36  1  0  0  0  0
 19 37  1  0  0  0  0
 19 38  1  0  0  0  0
 20 21  1  0  0  0  0
 21 39  1  0  0  0  0
 21 40  1  0  0  0  0
 21 41  1  0  0  0  0
 22 23  2  0  0  0  0
 22 24  1  0  0  0  0
 24 25  1  0  0  0  0
 24 42  1  0  0  0  0
 25 43  1  0  0  0  0
 25 44  1  0  0  0  0
M  END
$$$$
ZINC00178348
  -OEChem-08230709453D

 44 47  0     1  0  0  0  0  0999 V2000
   -0.0187    1.5258    0.0104 C   0  0  0  0  0  0  0  0  0  0  0  0
    0.0021   -0.0041    0.0020 C   0  0  0  0  0  0  0  0  0  0  0  0
    0.6709   -0.4649   -1.1737 O   0  0  0  0  0  0  0  0  0  0  0  0
    0.7768   -1.8110   -1.3363 C   0  0  0  0  0  0  0  0  0  0  0  0
    0.2535   -2.6689   -0.3822 C   0  0  0  0  0  0  0  0  0  0  0  0
    0.3574   -4.0369   -0.5516 C   0  0  0  0  0  0  0  0  0  0  0  0
    0.9920   -4.5523   -1.6666 C   0  0  0  0  0  0  0  0  0  0  0  0
    1.5212   -3.7019   -2.6193 C   0  0  0  0  0  0  0  0  0  0  0  0
    1.4160   -2.3297   -2.4582 C   0  0  0  0  0  0  0  0  0  0  0  0
    1.9365   -1.4917   -3.3943 O   0  0  0  0  0  0  0  0  0  0  0  0
   -0.2174   -4.9685    0.4841 C   0  0  1  0  0  0  0  0  0  0  0  0
   -1.2455   -5.2107    0.2150 H   0  0  0  0  0  0  0  0  0  0  0  0
    0.5791   -6.2088    0.5130 N   0  0  0  0  0  0  0  0  0  0  0  0
    1.7284   -6.1850    1.2602 C   0  0  0  0  0  0  0  0  0  0  0  0
    1.9293   -5.2927    2.3239 C   0  0  0  0  0  0  0  0  0  0  0  0
    3.2025   -5.4088    3.0172 C   0  0  0  0  0  0  0  0  0  0  0  0
    4.0404   -6.3586    2.5453 C   0  0  0  0  0  0  0  0  0  0  0  0
    3.1680   -7.1093    1.1957 S   0  0  0  0  0  0  0  0  0  0  0  0
    5.4057   -6.6963    3.0583 C   0  0  0  0  0  0  0  0  0  0  0  0
    5.8759   -5.5561    3.9731 C   0  0  0  0  0  0  0  0  0  0  0  0
    4.7484   -5.2125    4.9508 C   0  0  0  0  0  0  0  0  0  0  0  0
    3.5994   -4.5357    4.2019 C   0  0  0  0  0  0  0  0  0  0  0  0
    0.8417   -4.3349    2.6292 C   0  0  0  0  0  0  0  0  0  0  0  0
    0.8931   -3.6069    3.6035 O   0  0  0  0  0  0  0  0  0  0  0  0
   -0.2087   -4.3030    1.7829 N   0  0  0  0  0  0  0  0  0  0  0  0
    1.0039    1.9031    0.0027 H   0  0  0  0  0  0  0  0  0  0  0  0
   -0.5459    1.8868   -0.8726 H   0  0  0  0  0  0  0  0  0  0  0  0
   -0.5289    1.8773    0.9072 H   0  0  0  0  0  0  0  0  0  0  0  0
    0.5293   -0.3651    0.8851 H   0  0  0  0  0  0  0  0  0  0  0  0
   -1.0205   -0.3814    0.0098 H   0  0  0  0  0  0  0  0  0  0  0  0
   -0.2387   -2.2688    0.4919 H   0  0  0  0  0  0  0  0  0  0  0  0
    1.0747   -5.6217   -1.7933 H   0  0  0  0  0  0  0  0  0  0  0  0
    2.0165   -4.1071   -3.4894 H   0  0  0  0  0  0  0  0  0  0  0  0
    2.8561   -1.2417   -3.2305 H   0  0  0  0  0  0  0  0  0  0  0  0
    0.3039   -7.0021    0.0273 H   0  0  0  0  0  0  0  0  0  0  0  0
    5.3655   -7.6274    3.6235 H   0  0  0  0  0  0  0  0  0  0  0  0
    6.0958   -6.8045    2.2215 H   0  0  0  0  0  0  0  0  0  0  0  0
    6.7578   -5.8738    4.5293 H   0  0  0  0  0  0  0  0  0  0  0  0
    6.1195   -4.6810    3.3706 H   0  0  0  0  0  0  0  0  0  0  0  0
    4.3854   -6.1266    5.4207 H   0  0  0  0  0  0  0  0  0  0  0  0
    5.1272   -4.5369    5.7176 H   0  0  0  0  0  0  0  0  0  0  0  0
    3.9231   -3.5586    3.8433 H   0  0  0  0  0  0  0  0  0  0  0  0
    2.7466   -4.4175    4.8705 H   0  0  0  0  0  0  0  0  0  0  0  0
   -1.0004   -3.8114    2.0520 H   0  0  0  0  0  0  0  0  0  0  0  0
  1  2  1  0  0  0  0
  1 26  1  0  0  0  0
  1 27  1  0  0  0  0
  1 28  1  0  0  0  0
  2  3  1  0  0  0  0
  2 29  1  0  0  0  0
  2 30  1  0  0  0  0
  3  4  1  0  0  0  0
  4  9  2  0  0  0  0
  4  5  1  0  0  0  0
  5  6  2  0  0  0  0
  5 31  1  0  0  0  0
  6  7  1  0  0  0  0
  6 11  1  0  0  0  0
  7  8  2  0  0  0  0
  7 32  1  0  0  0  0
  8  9  1  0  0  0  0
  8 33  1  0  0  0  0
  9 10  1  0  0  0  0
 10 34  1  0  0  0  0
 11 12  1  0  0  0  0
 11 25  1  0  0  0  0
 11 13  1  0  0  0  0
 13 14  1  0  0  0  0
 13 35  1  0  0  0  0
 14 18  1  0  0  0  0
 14 15  2  0  0  0  0
 15 16  1  0  0  0  0
 15 23  1  0  0  0  0
 16 22  1  0  0  0  0
 16 17  2  0  0  0  0
 17 18  1  0  0  0  0
 17 19  1  0  0  0  0
 19 20  1  0  0  0  0
 19 36  1  0  0  0  0
 19 37  1  0  0  0  0
 20 21  1  0  0  0  0
 20 38  1  0  0  0  0
 20 39  1  0  0  0  0
 21 22  1  0  0  0  0
 21 40  1  0  0  0  0
 21 41  1  0  0  0  0
 22 42  1  0  0  0  0
 22 43  1  0  0  0  0
 23 24  2  0  0  0  0
 23 25  1  0  0  0  0
 25 44  1  0  0  0  0
M  END
$$$$
ZINC00190506
  -OEChem-08230709453D

 39 41  0     0  0  0  0  0  0999 V2000
   -3.5629    0.0323    7.0610 C   0  0  0  0  0  0  0  0  0  0  0  0
   -4.0595    1.0041    8.1003 C   0  0  0  0  0  0  0  0  0  0  0  0
   -3.9871    2.3511    7.8739 C   0  0  0  0  0  0  0  0  0  0  0  0
   -4.6877    2.9791    9.3947 S   0  0  0  0  0  0  0  0  0  0  0  0
   -5.0093    1.3955   10.1594 C   0  0  0  0  0  0  0  0  0  0  0  0
   -4.5663    0.5625    9.2319 N   0  0  0  0  0  0  0  0  0  0  0  0
   -5.5679    1.1153   11.3962 N   0  0  0  0  0  0  0  0  0  0  0  0
   -3.4676    3.0850    6.6996 C   0  0  0  0  0  0  0  0  0  0  0  0
   -3.4875    4.4523    6.6741 C   0  0  0  0  0  0  0  0  0  0  0  0
   -2.7621    4.7672    5.0707 S   0  0  0  0  0  0  0  0  0  0  0  0
   -2.5073    3.0624    4.5989 C   0  0  0  0  0  0  0  0  0  0  0  0
   -2.9797    2.4219    5.6530 N   0  0  0  0  0  0  0  0  0  0  0  0
   -1.9633    2.5481    3.4326 N   0  0  0  0  0  0  0  0  0  0  0  0
   -1.3768    3.4071    2.4957 C   0  0  0  0  0  0  0  0  0  0  0  0
   -0.9187    4.6560    2.8891 C   0  0  0  0  0  0  0  0  0  0  0  0
   -0.3388    5.5046    1.9589 C   0  0  0  0  0  0  0  0  0  0  0  0
   -0.2165    5.1056    0.6360 C   0  0  0  0  0  0  0  0  0  0  0  0
   -0.6676    3.8593    0.2425 C   0  0  0  0  0  0  0  0  0  0  0  0
   -1.2525    3.0095    1.1663 C   0  0  0  0  0  0  0  0  0  0  0  0
   -1.7003    1.7850    0.7771 O   0  0  0  0  0  0  0  0  0  0  0  0
   -1.5404    1.4437   -0.6013 C   0  0  0  0  0  0  0  0  0  0  0  0
    0.1110    6.7288    2.3436 O   0  0  0  0  0  0  0  0  0  0  0  0
    0.6975    7.5515    1.3331 C   0  0  0  0  0  0  0  0  0  0  0  0
   -2.5084   -0.1805    7.2371 H   0  0  0  0  0  0  0  0  0  0  0  0
   -4.1359   -0.8927    7.1253 H   0  0  0  0  0  0  0  0  0  0  0  0
   -3.6851    0.4672    6.0690 H   0  0  0  0  0  0  0  0  0  0  0  0
   -5.6774    0.1948   11.6816 H   0  0  0  0  0  0  0  0  0  0  0  0
   -5.8493    1.8398   11.9766 H   0  0  0  0  0  0  0  0  0  0  0  0
   -3.8436    5.1498    7.4178 H   0  0  0  0  0  0  0  0  0  0  0  0
   -1.9890    1.5929    3.2655 H   0  0  0  0  0  0  0  0  0  0  0  0
   -1.0135    4.9668    3.9191 H   0  0  0  0  0  0  0  0  0  0  0  0
    0.2356    5.7682   -0.0872 H   0  0  0  0  0  0  0  0  0  0  0  0
   -0.5670    3.5496   -0.7873 H   0  0  0  0  0  0  0  0  0  0  0  0
   -1.9380    0.4440   -0.7766 H   0  0  0  0  0  0  0  0  0  0  0  0
   -0.4818    1.4643   -0.8603 H   0  0  0  0  0  0  0  0  0  0  0  0
   -2.0795    2.1625   -1.2185 H   0  0  0  0  0  0  0  0  0  0  0  0
    1.5620    7.0425    0.9068 H   0  0  0  0  0  0  0  0  0  0  0  0
   -0.0352    7.7418    0.5489 H   0  0  0  0  0  0  0  0  0  0  0  0
    1.0132    8.4976    1.7727 H   0  0  0  0  0  0  0  0  0  0  0  0
  1  2  1  0  0  0  0
  1 24  1  0  0  0  0
  1 25  1  0  0  0  0
  1 26  1  0  0  0  0
  2  6  1  0  0  0  0
  2  3  2  0  0  0  0
  3  4  1  0  0  0  0
  3  8  1  0  0  0  0
  4  5  1  0  0  0  0
  5  6  2  0  0  0  0
  5  7  1  0  0  0  0
  7 27  1  0  0  0  0
  7 28  1  0  0  0  0
  8 12  1  0  0  0  0
  8  9  2  0  0  0  0
  9 10  1  0  0  0  0
  9 29  1  0  0  0  0
 10 11  1  0  0  0  0
 11 12  2  0  0  0  0
 11 13  1  0  0  0  0
 13 14  1  0  0  0  0
 13 30  1  0  0  0  0
 14 19  2  0  0  0  0
 14 15  1  0  0  0  0
 15 16  2  0  0  0  0
 15 31  1  0  0  0  0
 16 17  1  0  0  0  0
 16 22  1  0  0  0  0
 17 18  2  0  0  0  0
 17 32  1  0  0  0  0
 18 19  1  0  0  0  0
 18 33  1  0  0  0  0
 19 20  1  0  0  0  0
 20 21  1  0  0  0  0
 21 34  1  0  0  0  0
 21 35  1  0  0  0  0
 21 36  1  0  0  0  0
 22 23  1  0  0  0  0
 23 37  1  0  0  0  0
 23 38  1  0  0  0  0
 23 39  1  0  0  0  0
M  END
$$$$
ZINC00197386
  -OEChem-08230709453D

 40 42  0     0  0  0  0  0  0999 V2000
    5.3803   -2.6048    2.1404 C   0  0  0  0  0  0  0  0  0  0  0  0
    4.5581   -2.0436    1.1800 C   0  0  0  0  0  0  0  0  0  0  0  0
    3.4628   -1.2940    1.5581 C   0  0  0  0  0  0  0  0  0  0  0  0
    3.1860   -1.1025    2.9106 C   0  0  0  0  0  0  0  0  0  0  0  0
    4.0212   -1.6655    3.8739 C   0  0  0  0  0  0  0  0  0  0  0  0
    5.1102   -2.4184    3.4842 C   0  0  0  0  0  0  0  0  0  0  0  0
    2.0106   -0.2975    3.3231 C   0  0  0  0  0  0  0  0  0  0  0  0
    1.7643   -0.1270    4.6128 N   0  0  0  0  0  0  0  0  0  0  0  0
    0.7212    0.5864    5.0276 C   0  0  0  0  0  0  0  0  0  0  0  0
   -0.1096    1.1572    4.0940 C   0  0  0  0  0  0  0  0  0  0  0  0
    0.1742    0.9607    2.7352 C   0  0  0  0  0  0  0  0  0  0  0  0
    1.2281    0.2296    2.3921 N   0  0  0  0  0  0  0  0  0  0  0  0
   -0.8599    1.6695    1.4972 S   0  0  0  0  0  0  0  0  0  0  0  0
   -0.0127    1.0858    0.0080 C   0  0  0  0  0  0  0  0  0  0  0  0
   -0.7416    1.5850   -1.2129 C   0  0  0  0  0  0  0  0  0  0  0  0
   -1.7359    2.2682   -1.0884 O   0  0  0  0  0  0  0  0  0  0  0  0
   -0.2884    1.2723   -2.4431 N   0  0  0  0  0  0  0  0  0  0  0  0
   -0.9491    1.7248   -3.5497 N   0  0  0  0  0  0  0  0  0  0  0  0
   -1.3068    1.9871    4.4668 C   0  0  0  0  0  0  0  0  0  0  0  0
   -1.6964    1.7393    5.9236 C   0  0  0  0  0  0  0  0  0  0  0  0
   -0.4449    1.9002    6.7945 C   0  0  0  0  0  0  0  0  0  0  0  0
    0.4977    0.7321    6.5085 C   0  0  0  0  0  0  0  0  0  0  0  0
    6.2362   -3.1910    1.8400 H   0  0  0  0  0  0  0  0  0  0  0  0
    4.7735   -2.1927    0.1322 H   0  0  0  0  0  0  0  0  0  0  0  0
    2.8211   -0.8569    0.8074 H   0  0  0  0  0  0  0  0  0  0  0  0
    3.8140   -1.5166    4.9233 H   0  0  0  0  0  0  0  0  0  0  0  0
    5.7555   -2.8589    4.2298 H   0  0  0  0  0  0  0  0  0  0  0  0
    0.0021   -0.0041    0.0020 H   0  0  0  0  0  0  0  0  0  0  0  0
    1.0099    1.4631    0.0003 H   0  0  0  0  0  0  0  0  0  0  0  0
    0.5068    0.7259   -2.5426 H   0  0  0  0  0  0  0  0  0  0  0  0
   -1.0328    2.7302   -3.5350 H   0  0  0  0  0  0  0  0  0  0  0  0
   -0.4953    1.4121   -4.3949 H   0  0  0  0  0  0  0  0  0  0  0  0
   -1.0699    3.0424    4.3317 H   0  0  0  0  0  0  0  0  0  0  0  0
   -2.1447    1.7206    3.8225 H   0  0  0  0  0  0  0  0  0  0  0  0
   -2.4512    2.4639    6.2293 H   0  0  0  0  0  0  0  0  0  0  0  0
   -2.0933    0.7298    6.0301 H   0  0  0  0  0  0  0  0  0  0  0  0
    0.0518    2.8396    6.5520 H   0  0  0  0  0  0  0  0  0  0  0  0
   -0.7282    1.8969    7.8471 H   0  0  0  0  0  0  0  0  0  0  0  0
    1.4534    0.9114    7.0012 H   0  0  0  0  0  0  0  0  0  0  0  0
    0.0596   -0.1876    6.8960 H   0  0  0  0  0  0  0  0  0  0  0  0
  1  6  2  0  0  0  0
  1  2  1  0  0  0  0
  1 23  1  0  0  0  0
  2  3  2  0  0  0  0
  2 24  1  0  0  0  0
  3  4  1  0  0  0  0
  3 25  1  0  0  0  0
  4  5  2  0  0  0  0
  4  7  1  0  0  0  0
  5  6  1  0  0  0  0
  5 26  1  0  0  0  0
  6 27  1  0  0  0  0
  7 12  2  0  0  0  0
  7  8  1  0  0  0  0
  8  9  2  0  0  0  0
  9 22  1  0  0  0  0
  9 10  1  0  0  0  0
 10 11  2  0  0  0  0
 10 19  1  0  0  0  0
 11 12  1  0  0  0  0
 11 13  1  0  0  0  0
 13 14  1  0  0  0  0
 14 15  1  0  0  0  0
 14 28  1  0  0  0  0
 14 29  1  0  0  0  0
 15 16  2  0  0  0  0
 15 17  1  0  0  0  0
 17 18  1  0  0  0  0
 17 30  1  0  0  0  0
 18 31  1  0  0  0  0
 18 32  1  0  0  0  0
 19 20  1  0  0  0  0
 19 33  1  0  0  0  0
 19 34  1  0  0  0  0
 20 21  1  0  0  0  0
 20 35  1  0  0  0  0
 20 36  1  0  0  0  0
 21 22  1  0  0  0  0
 21 37  1  0  0  0  0
 21 38  1  0  0  0  0
 22 39  1  0  0  0  0
 22 40  1  0  0  0  0
M  END
$$$$
ZINC00200626
  -OEChem-08230709453D

 41 43  0     0  0  0  0  0  0999 V2000
    1.6359   11.8649    2.6657 C   0  0  0  0  0  0  0  0  0  0  0  0
    1.5183   10.3626    2.6570 C   0  0  0  0  0  0  0  0  0  0  0  0
    2.0058    9.6385    1.5842 C   0  0  0  0  0  0  0  0  0  0  0  0
    1.9052    8.2612    1.5760 C   0  0  0  0  0  0  0  0  0  0  0  0
    1.3022    7.6042    2.6408 C   0  0  0  0  0  0  0  0  0  0  0  0
    0.8134    8.3340    3.7161 C   0  0  0  0  0  0  0  0  0  0  0  0
    0.9231    9.7110    3.7213 C   0  0  0  0  0  0  0  0  0  0  0  0
    0.3929   10.5040    4.8880 C   0  0  0  0  0  0  0  0  0  0  0  0
    1.1926    6.2092    2.6325 N   0  0  0  0  0  0  0  0  0  0  0  0
    1.0141    5.5542    1.4682 C   0  0  0  0  0  0  0  0  0  0  0  0
    0.8527    6.1775    0.4403 O   0  0  0  0  0  0  0  0  0  0  0  0
    1.0150    4.0474    1.4435 C   0  0  0  0  0  0  0  0  0  0  0  0
    0.7942    3.5607    0.0099 C   0  0  0  0  0  0  0  0  0  0  0  0
    0.7951    2.0959   -0.0141 N   0  0  0  0  0  0  0  0  0  0  0  0
   -0.3622    1.4170    0.1544 C   0  0  0  0  0  0  0  0  0  0  0  0
   -1.4103    2.0144    0.3221 O   0  0  0  0  0  0  0  0  0  0  0  0
   -0.3387    0.0188    0.1275 C   0  0  0  0  0  0  0  0  0  0  0  0
    0.8505   -0.6885   -0.0689 C   0  0  0  0  0  0  0  0  0  0  0  0
    0.7131   -2.0737   -0.0706 C   0  0  0  0  0  0  0  0  0  0  0  0
   -0.5061   -2.6322    0.1095 C   0  0  0  0  0  0  0  0  0  0  0  0
   -1.5530   -1.2619    0.2949 S   0  0  0  0  0  0  0  0  0  0  0  0
    2.0082    0.0892   -0.2363 N   0  0  0  0  0  0  0  0  0  0  0  0
    2.8893   -0.3611   -0.3807 H   0  0  0  0  0  0  0  0  0  0  0  0
    1.9458    1.4284   -0.2048 C   0  0  0  0  0  0  0  0  0  0  0  0
    2.9716    2.0642   -0.3539 O   0  0  0  0  0  0  0  0  0  0  0  0
    2.5774   12.1530    3.1332 H   0  0  0  0  0  0  0  0  0  0  0  0
    1.6098   12.2374    1.6416 H   0  0  0  0  0  0  0  0  0  0  0  0
    0.8054   12.2911    3.2285 H   0  0  0  0  0  0  0  0  0  0  0  0
    2.4702   10.1503    0.7543 H   0  0  0  0  0  0  0  0  0  0  0  0
    2.2906    7.6960    0.7403 H   0  0  0  0  0  0  0  0  0  0  0  0
    0.3483    7.8257    4.5478 H   0  0  0  0  0  0  0  0  0  0  0  0
    1.1782   10.6207    5.6348 H   0  0  0  0  0  0  0  0  0  0  0  0
    0.0706   11.4864    4.5431 H   0  0  0  0  0  0  0  0  0  0  0  0
   -0.4536    9.9783    5.3299 H   0  0  0  0  0  0  0  0  0  0  0  0
    1.2451    5.7137    3.4647 H   0  0  0  0  0  0  0  0  0  0  0  0
    0.2145    3.6731    2.0817 H   0  0  0  0  0  0  0  0  0  0  0  0
    1.9735    3.6786    1.8089 H   0  0  0  0  0  0  0  0  0  0  0  0
    1.5947    3.9350   -0.6282 H   0  0  0  0  0  0  0  0  0  0  0  0
   -0.1642    3.9295   -0.3554 H   0  0  0  0  0  0  0  0  0  0  0  0
    1.5793   -2.7023   -0.2153 H   0  0  0  0  0  0  0  0  0  0  0  0
   -0.7654   -3.6803    0.1318 H   0  0  0  0  0  0  0  0  0  0  0  0
  1  2  1  0  0  0  0
  1 26  1  0  0  0  0
  1 27  1  0  0  0  0
  1 28  1  0  0  0  0
  2  7  2  0  0  0  0
  2  3  1  0  0  0  0
  3  4  2  0  0  0  0
  3 29  1  0  0  0  0
  4  5  1  0  0  0  0
  4 30  1  0  0  0  0
  5  6  2  0  0  0  0
  5  9  1  0  0  0  0
  6  7  1  0  0  0  0
  6 31  1  0  0  0  0
  7  8  1  0  0  0  0
  8 32  1  0  0  0  0
  8 33  1  0  0  0  0
  8 34  1  0  0  0  0
  9 10  1  0  0  0  0
  9 35  1  0  0  0  0
 10 11  2  0  0  0  0
 10 12  1  0  0  0  0
 12 13  1  0  0  0  0
 12 36  1  0  0  0  0
 12 37  1  0  0  0  0
 13 14  1  0  0  0  0
 13 38  1  0  0  0  0
 13 39  1  0  0  0  0
 14 24  1  0  0  0  0
 14 15  1  0  0  0  0
 15 16  2  0  0  0  0
 15 17  1  0  0  0  0
 17 21  1  0  0  0  0
 17 18  2  0  0  0  0
 18 19  1  0  0  0  0
 18 22  1  0  0  0  0
 19 20  2  0  0  0  0
 19 40  1  0  0  0  0
 20 21  1  0  0  0  0
 20 41  1  0  0  0  0
 22 23  1  0  0  0  0
 22 24  1  0  0  0  0
 24 25  2  0  0  0  0
M  END
$$$$
ZINC00202170
  -OEChem-08230709453D

 43 44  0     0  0  0  0  0  0999 V2000
    0.9436   -8.8215   -0.5464 C   0  0  0  0  0  0  0  0  0  0  0  0
    2.3661   -8.3253   -0.5834 C   0  0  0  0  0  0  0  0  0  0  0  0
    3.3945   -9.2139   -0.7112 C   0  0  0  0  0  0  0  0  0  0  0  0
    4.7132   -8.7276   -0.7439 C   0  0  0  0  0  0  0  0  0  0  0  0
    5.6558   -9.4939   -0.8571 O   0  0  0  0  0  0  0  0  0  0  0  0
    4.9163   -7.3958   -0.6528 N   0  0  0  0  0  0  0  0  0  0  0  0
    5.8453   -7.0267   -0.6813 H   0  0  0  0  0  0  0  0  0  0  0  0
    3.8514   -6.5571   -0.5219 C   0  0  0  0  0  0  0  0  0  0  0  0
    2.6172   -7.0219   -0.4921 N   0  0  0  0  0  0  0  0  0  0  0  0
    4.1264   -4.8211   -0.3976 S   0  0  0  0  0  0  0  0  0  0  0  0
    2.4174   -4.2414   -0.2581 C   0  0  0  0  0  0  0  0  0  0  0  0
    2.4048   -2.7393   -0.1368 C   0  0  0  0  0  0  0  0  0  0  0  0
    3.4485   -2.1215   -0.1440 O   0  0  0  0  0  0  0  0  0  0  0  0
    1.2337   -2.0825   -0.0204 N   0  0  0  0  0  0  0  0  0  0  0  0
    1.2134   -0.6815   -0.0190 C   0  0  0  0  0  0  0  0  0  0  0  0
    2.1377    0.0273   -0.7746 C   0  0  0  0  0  0  0  0  0  0  0  0
    2.1168    1.4080   -0.7731 C   0  0  0  0  0  0  0  0  0  0  0  0
    1.1727    2.0869   -0.0168 C   0  0  0  0  0  0  0  0  0  0  0  0
    0.2489    1.3793    0.7385 C   0  0  0  0  0  0  0  0  0  0  0  0
    0.2686   -0.0014    0.7378 C   0  0  0  0  0  0  0  0  0  0  0  0
    1.1530    3.4464   -0.0153 O   0  0  0  0  0  0  0  0  0  0  0  0
    0.1538    4.0799    0.7861 C   0  0  0  0  0  0  0  0  0  0  0  0
    3.1208  -10.6922   -0.8149 C   0  0  0  0  0  0  0  0  0  0  0  0
    3.0739  -11.0937   -2.2667 C   0  0  0  0  0  0  0  0  0  0  0  0
    3.8487  -12.0544   -2.7059 C   0  0  0  0  0  0  0  0  0  0  0  0
    0.2659   -7.9743   -0.4414 H   0  0  0  0  0  0  0  0  0  0  0  0
    0.7201   -9.3533   -1.4712 H   0  0  0  0  0  0  0  0  0  0  0  0
    0.8161   -9.4960    0.3004 H   0  0  0  0  0  0  0  0  0  0  0  0
    1.9556   -4.6811    0.6259 H   0  0  0  0  0  0  0  0  0  0  0  0
    1.8592   -4.5390   -1.1457 H   0  0  0  0  0  0  0  0  0  0  0  0
    0.4049   -2.5796    0.0624 H   0  0  0  0  0  0  0  0  0  0  0  0
    2.8726   -0.5012   -1.3638 H   0  0  0  0  0  0  0  0  0  0  0  0
    2.8386    1.9595   -1.3574 H   0  0  0  0  0  0  0  0  0  0  0  0
   -0.4857    1.9085    1.3273 H   0  0  0  0  0  0  0  0  0  0  0  0
   -0.4508   -0.5521    1.3256 H   0  0  0  0  0  0  0  0  0  0  0  0
    0.2491    5.1621    0.6974 H   0  0  0  0  0  0  0  0  0  0  0  0
   -0.8347    3.7731    0.4441 H   0  0  0  0  0  0  0  0  0  0  0  0
    0.2846    3.7878    1.8280 H   0  0  0  0  0  0  0  0  0  0  0  0
    3.9134  -11.2448   -0.3105 H   0  0  0  0  0  0  0  0  0  0  0  0
    2.1640  -10.9184   -0.3443 H   0  0  0  0  0  0  0  0  0  0  0  0
    2.4016  -10.5895   -2.9450 H   0  0  0  0  0  0  0  0  0  0  0  0
    3.8151  -12.3421   -3.7463 H   0  0  0  0  0  0  0  0  0  0  0  0
    4.5211  -12.5586   -2.0276 H   0  0  0  0  0  0  0  0  0  0  0  0
  1  2  1  0  0  0  0
  1 26  1  0  0  0  0
  1 27  1  0  0  0  0
  1 28  1  0  0  0  0
  2  9  1  0  0  0  0
  2  3  2  0  0  0  0
  3  4  1  0  0  0  0
  3 23  1  0  0  0  0
  4  5  2  0  0  0  0
  4  6  1  0  0  0  0
  6  7  1  0  0  0  0
  6  8  1  0  0  0  0
  8  9  2  0  0  0  0
  8 10  1  0  0  0  0
 10 11  1  0  0  0  0
 11 12  1  0  0  0  0
 11 29  1  0  0  0  0
 11 30  1  0  0  0  0
 12 13  2  0  0  0  0
 12 14  1  0  0  0  0
 14 15  1  0  0  0  0
 14 31  1  0  0  0  0
 15 20  2  0  0  0  0
 15 16  1  0  0  0  0
 16 17  2  0  0  0  0
 16 32  1  0  0  0  0
 17 18  1  0  0  0  0
 17 33  1  0  0  0  0
 18 19  2  0  0  0  0
 18 21  1  0  0  0  0
 19 20  1  0  0  0  0
 19 34  1  0  0  0  0
 20 35  1  0  0  0  0
 21 22  1  0  0  0  0
 22 36  1  0  0  0  0
 22 37  1  0  0  0  0
 22 38  1  0  0  0  0
 23 24  1  0  0  0  0
 23 39  1  0  0  0  0
 23 40  1  0  0  0  0
 24 25  2  0  0  0  0
 24 41  1  0  0  0  0
 25 42  1  0  0  0  0
 25 43  1  0  0  0  0
M  END
$$$$
ZINC00202215
  -OEChem-08230709453D

 43 44  0     0  0  0  0  0  0999 V2000
    6.0810   -1.2427   -4.2412 C   0  0  0  0  0  0  0  0  0  0  0  0
    5.5682   -2.5140   -3.5618 C   0  0  0  0  0  0  0  0  0  0  0  0
    6.1346   -2.6100   -2.2142 N   0  0  0  0  0  0  0  0  0  0  0  0
    7.4073   -3.3039   -2.0022 C   0  0  0  0  0  0  0  0  0  0  0  0
    7.1404   -4.7835   -1.7182 C   0  0  0  0  0  0  0  0  0  0  0  0
    5.4849   -2.0599   -1.1693 C   0  0  0  0  0  0  0  0  0  0  0  0
    6.1468   -2.1721    0.4055 S   0  0  0  0  0  0  0  0  0  0  0  0
    3.9541   -1.2253   -1.4242 S   0  0  0  0  0  0  0  0  0  0  0  0
    3.5829   -0.7239    0.2748 C   0  0  0  0  0  0  0  0  0  0  0  0
    2.2778    0.0293    0.3025 C   0  0  0  0  0  0  0  0  0  0  0  0
    1.1432   -0.6245    0.4816 N   0  0  0  0  0  0  0  0  0  0  0  0
   -0.0114    0.0372    0.5066 C   0  0  0  0  0  0  0  0  0  0  0  0
   -0.0223    1.3567    0.3513 N   0  0  0  0  0  0  0  0  0  0  0  0
    1.1202    2.0103    0.1715 C   0  0  0  0  0  0  0  0  0  0  0  0
    2.2709    1.3414    0.1473 N   0  0  0  0  0  0  0  0  0  0  0  0
    1.1140    3.3820    0.0091 N   0  0  0  0  0  0  0  0  0  0  0  0
   -0.1001    4.0699   -0.0816 C   0  0  0  0  0  0  0  0  0  0  0  0
   -1.1970    3.4690   -0.6856 C   0  0  0  0  0  0  0  0  0  0  0  0
   -2.3959    4.1494   -0.7697 C   0  0  0  0  0  0  0  0  0  0  0  0
   -2.5022    5.4313   -0.2620 C   0  0  0  0  0  0  0  0  0  0  0  0
   -1.4105    6.0345    0.3353 C   0  0  0  0  0  0  0  0  0  0  0  0
   -0.2101    5.3577    0.4269 C   0  0  0  0  0  0  0  0  0  0  0  0
   -1.1954   -0.6463    0.6941 N   0  0  0  0  0  0  0  0  0  0  0  0
    5.6595   -1.1712   -5.2439 H   0  0  0  0  0  0  0  0  0  0  0  0
    5.7803   -0.3724   -3.6578 H   0  0  0  0  0  0  0  0  0  0  0  0
    7.1685   -1.2786   -4.3059 H   0  0  0  0  0  0  0  0  0  0  0  0
    5.8689   -3.3843   -4.1452 H   0  0  0  0  0  0  0  0  0  0  0  0
    4.4807   -2.4781   -3.4971 H   0  0  0  0  0  0  0  0  0  0  0  0
    8.0249   -3.2111   -2.8956 H   0  0  0  0  0  0  0  0  0  0  0  0
    7.9268   -2.8590   -1.1536 H   0  0  0  0  0  0  0  0  0  0  0  0
    6.5228   -4.8763   -0.8249 H   0  0  0  0  0  0  0  0  0  0  0  0
    6.6209   -5.2284   -2.5669 H   0  0  0  0  0  0  0  0  0  0  0  0
    8.0874   -5.2997   -1.5606 H   0  0  0  0  0  0  0  0  0  0  0  0
    4.3811   -0.0814    0.6467 H   0  0  0  0  0  0  0  0  0  0  0  0
    3.5050   -1.6090    0.9061 H   0  0  0  0  0  0  0  0  0  0  0  0
    1.9518    3.8681   -0.0420 H   0  0  0  0  0  0  0  0  0  0  0  0
   -1.1135    2.4694   -1.0860 H   0  0  0  0  0  0  0  0  0  0  0  0
   -3.2503    3.6813   -1.2359 H   0  0  0  0  0  0  0  0  0  0  0  0
   -3.4398    5.9627   -0.3324 H   0  0  0  0  0  0  0  0  0  0  0  0
   -1.4968    7.0357    0.7308 H   0  0  0  0  0  0  0  0  0  0  0  0
    0.6422    5.8294    0.8932 H   0  0  0  0  0  0  0  0  0  0  0  0
   -2.0365   -0.1634    0.7126 H   0  0  0  0  0  0  0  0  0  0  0  0
   -1.1867   -1.6096    0.8074 H   0  0  0  0  0  0  0  0  0  0  0  0
  1  2  1  0  0  0  0
  1 24  1  0  0  0  0
  1 25  1  0  0  0  0
  1 26  1  0  0  0  0
  2  3  1  0  0  0  0
  2 27  1  0  0  0  0
  2 28  1  0  0  0  0
  3  4  1  0  0  0  0
  3  6  1  0  0  0  0
  4  5  1  0  0  0  0
  4 29  1  0  0  0  0
  4 30  1  0  0  0  0
  5 31  1  0  0  0  0
  5 32  1  0  0  0  0
  5 33  1  0  0  0  0
  6  7  2  0  0  0  0
  6  8  1  0  0  0  0
  8  9  1  0  0  0  0
  9 10  1  0  0  0  0
  9 34  1  0  0  0  0
  9 35  1  0  0  0  0
 10 15  2  0  0  0  0
 10 11  1  0  0  0  0
 11 12  2  0  0  0  0
 12 13  1  0  0  0  0
 12 23  1  0  0  0  0
 13 14  2  0  0  0  0
 14 15  1  0  0  0  0
 14 16  1  0  0  0  0
 16 17  1  0  0  0  0
 16 36  1  0  0  0  0
 17 22  2  0  0  0  0
 17 18  1  0  0  0  0
 18 19  2  0  0  0  0
 18 37  1  0  0  0  0
 19 20  1  0  0  0  0
 19 38  1  0  0  0  0
 20 21  2  0  0  0  0
 20 39  1  0  0  0  0
 21 22  1  0  0  0  0
 21 40  1  0  0  0  0
 22 41  1  0  0  0  0
 23 42  1  0  0  0  0
 23 43  1  0  0  0  0
M  END
$$$$
ZINC00203813
  -OEChem-08230709453D

 43 45  0     1  0  0  0  0  0999 V2000
    7.6478   -6.2404    0.7809 C   0  0  0  0  0  0  0  0  0  0  0  0
    6.3140   -5.6668    0.2985 C   0  0  0  0  0  0  0  0  0  0  0  0
    5.2734   -6.0624    1.1945 O   0  0  0  0  0  0  0  0  0  0  0  0
    4.0153   -5.6329    0.9078 C   0  0  0  0  0  0  0  0  0  0  0  0
    3.7877   -4.8483   -0.2114 C   0  0  0  0  0  0  0  0  0  0  0  0
    2.5072   -4.4176   -0.5048 C   0  0  0  0  0  0  0  0  0  0  0  0
    1.4534   -4.7584    0.3227 C   0  0  0  0  0  0  0  0  0  0  0  0
    1.6737   -5.5409    1.4409 C   0  0  0  0  0  0  0  0  0  0  0  0
    2.9538   -5.9806    1.7375 C   0  0  0  0  0  0  0  0  0  0  0  0
    3.1721   -6.7508    2.8369 O   0  0  0  0  0  0  0  0  0  0  0  0
    2.0354   -7.0688    3.6424 C   0  0  0  0  0  0  0  0  0  0  0  0
    0.0606   -4.2811    0.0016 C   0  0  1  0  0  0  0  0  0  0  0  0
   -0.6284   -4.6462    0.7633 H   0  0  0  0  0  0  0  0  0  0  0  0
    0.0395   -2.7755   -0.0095 C   0  0  0  0  0  0  0  0  0  0  0  0
    0.0414   -2.0861    1.1903 C   0  0  0  0  0  0  0  0  0  0  0  0
    0.0230   -0.7055    1.1995 C   0  0  0  0  0  0  0  0  0  0  0  0
    0.0021   -0.0041    0.0020 C   0  0  0  0  0  0  0  0  0  0  0  0
   -0.0058   -0.6913   -1.2007 C   0  0  0  0  0  0  0  0  0  0  0  0
    0.0186   -2.0801   -1.2083 C   0  0  0  0  0  0  0  0  0  0  0  0
    0.0158   -2.7381   -2.3940 O   0  0  0  0  0  0  0  0  0  0  0  0
   -0.3509   -4.0296   -2.4428 C   0  0  0  0  0  0  0  0  0  0  0  0
   -0.3521   -4.8163   -1.3407 C   0  0  0  0  0  0  0  0  0  0  0  0
   -0.7541   -6.1858   -1.4566 C   0  0  0  0  0  0  0  0  0  0  0  0
   -1.0730   -7.2722   -1.5486 N   0  0  0  0  0  0  0  0  0  0  0  0
   -0.7363   -4.5674   -3.6454 N   0  0  0  0  0  0  0  0  0  0  0  0
   -0.0164    1.3548    0.0095 O   0  0  0  0  0  0  0  0  0  0  0  0
    7.5866   -7.3283    0.8088 H   0  0  0  0  0  0  0  0  0  0  0  0
    8.4415   -5.9386    0.0974 H   0  0  0  0  0  0  0  0  0  0  0  0
    7.8656   -5.8629    1.7800 H   0  0  0  0  0  0  0  0  0  0  0  0
    6.0962   -6.0442   -0.7006 H   0  0  0  0  0  0  0  0  0  0  0  0
    6.3752   -4.5788    0.2705 H   0  0  0  0  0  0  0  0  0  0  0  0
    4.6099   -4.5770   -0.8570 H   0  0  0  0  0  0  0  0  0  0  0  0
    2.3303   -3.8102   -1.3800 H   0  0  0  0  0  0  0  0  0  0  0  0
    0.8481   -5.8091    2.0835 H   0  0  0  0  0  0  0  0  0  0  0  0
    1.5847   -6.1486    4.0142 H   0  0  0  0  0  0  0  0  0  0  0  0
    1.3063   -7.6140    3.0430 H   0  0  0  0  0  0  0  0  0  0  0  0
    2.3480   -7.6863    4.4845 H   0  0  0  0  0  0  0  0  0  0  0  0
    0.0578   -2.6301    2.1231 H   0  0  0  0  0  0  0  0  0  0  0  0
    0.0251   -0.1715    2.1383 H   0  0  0  0  0  0  0  0  0  0  0  0
   -0.0265   -0.1468   -2.1332 H   0  0  0  0  0  0  0  0  0  0  0  0
   -1.0042   -5.4983   -3.6967 H   0  0  0  0  0  0  0  0  0  0  0  0
   -0.7408   -4.0167   -4.4438 H   0  0  0  0  0  0  0  0  0  0  0  0
    0.8616    1.7601    0.0033 H   0  0  0  0  0  0  0  0  0  0  0  0
  1  2  1  0  0  0  0
  1 27  1  0  0  0  0
  1 28  1  0  0  0  0
  1 29  1  0  0  0  0
  2  3  1  0  0  0  0
  2 30  1  0  0  0  0
  2 31  1  0  0  0  0
  3  4  1  0  0  0  0
  4  9  2  0  0  0  0
  4  5  1  0  0  0  0
  5  6  2  0  0  0  0
  5 32  1  0  0  0  0
  6  7  1  0  0  0  0
  6 33  1  0  0  0  0
  7  8  2  0  0  0  0
  7 12  1  0  0  0  0
  8  9  1  0  0  0  0
  8 34  1  0  0  0  0
  9 10  1  0  0  0  0
 10 11  1  0  0  0  0
 11 35  1  0  0  0  0
 11 36  1  0  0  0  0
 11 37  1  0  0  0  0
 12 13  1  0  0  0  0
 12 22  1  0  0  0  0
 12 14  1  0  0  0  0
 14 19  2  0  0  0  0
 14 15  1  0  0  0  0
 15 16  2  0  0  0  0
 15 38  1  0  0  0  0
 16 17  1  0  0  0  0
 16 39  1  0  0  0  0
 17 18  2  0  0  0  0
 17 26  1  0  0  0  0
 18 19  1  0  0  0  0
 18 40  1  0  0  0  0
 19 20  1  0  0  0  0
 20 21  1  0  0  0  0
 21 22  2  0  0  0  0
 21 25  1  0  0  0  0
 22 23  1  0  0  0  0
 23 24  3  0  0  0  0
 25 41  1  0  0  0  0
 25 42  1  0  0  0  0
 26 43  1  0  0  0  0
M  END
$$$$
ZINC00203814
  -OEChem-08230709453D

 43 45  0     1  0  0  0  0  0999 V2000
    2.7220   -2.5653    7.5202 C   0  0  0  0  0  0  0  0  0  0  0  0
    2.4475   -1.8356    6.2037 C   0  0  0  0  0  0  0  0  0  0  0  0
    2.3231   -2.7897    5.1472 O   0  0  0  0  0  0  0  0  0  0  0  0
    2.0760   -2.3029    3.9016 C   0  0  0  0  0  0  0  0  0  0  0  0
    1.9560   -0.9371    3.7011 C   0  0  0  0  0  0  0  0  0  0  0  0
    1.7044   -0.4440    2.4344 C   0  0  0  0  0  0  0  0  0  0  0  0
    1.5714   -1.3108    1.3656 C   0  0  0  0  0  0  0  0  0  0  0  0
    1.6848   -2.6748    1.5597 C   0  0  0  0  0  0  0  0  0  0  0  0
    1.9426   -3.1754    2.8258 C   0  0  0  0  0  0  0  0  0  0  0  0
    2.0595   -4.5166    3.0176 O   0  0  0  0  0  0  0  0  0  0  0  0
    1.9109   -5.3518    1.8676 C   0  0  0  0  0  0  0  0  0  0  0  0
    1.2962   -0.7679   -0.0130 C   0  0  2  0  0  0  0  0  0  0  0  0
    1.2188   -1.5955   -0.7181 H   0  0  0  0  0  0  0  0  0  0  0  0
    2.4281    0.1337   -0.4292 C   0  0  0  0  0  0  0  0  0  0  0  0
    3.6251   -0.4239   -0.8428 C   0  0  0  0  0  0  0  0  0  0  0  0
    4.6742    0.3871   -1.2279 C   0  0  0  0  0  0  0  0  0  0  0  0
    4.5301    1.7673   -1.2006 C   0  0  0  0  0  0  0  0  0  0  0  0
    3.3333    2.3286   -0.7869 C   0  0  0  0  0  0  0  0  0  0  0  0
    2.2788    1.5114   -0.4000 C   0  0  0  0  0  0  0  0  0  0  0  0
    1.1137    2.0763    0.0026 O   0  0  0  0  0  0  0  0  0  0  0  0
   -0.0163    1.3499    0.0095 C   0  0  0  0  0  0  0  0  0  0  0  0
    0.0021   -0.0041    0.0020 C   0  0  0  0  0  0  0  0  0  0  0  0
   -1.2366   -0.7225    0.0091 C   0  0  0  0  0  0  0  0  0  0  0  0
   -2.2193   -1.2925    0.0147 N   0  0  0  0  0  0  0  0  0  0  0  0
   -1.2255    1.9994    0.0186 N   0  0  0  0  0  0  0  0  0  0  0  0
    5.5616    2.5668   -1.5798 O   0  0  0  0  0  0  0  0  0  0  0  0
    3.6475   -3.1346    7.4339 H   0  0  0  0  0  0  0  0  0  0  0  0
    2.8170   -1.8375    8.3260 H   0  0  0  0  0  0  0  0  0  0  0  0
    1.8972   -3.2436    7.7385 H   0  0  0  0  0  0  0  0  0  0  0  0
    3.2723   -1.1573    5.9854 H   0  0  0  0  0  0  0  0  0  0  0  0
    1.5220   -1.2663    6.2900 H   0  0  0  0  0  0  0  0  0  0  0  0
    2.0587   -0.2579    4.5344 H   0  0  0  0  0  0  0  0  0  0  0  0
    1.6111    0.6208    2.2794 H   0  0  0  0  0  0  0  0  0  0  0  0
    1.5764   -3.3501    0.7238 H   0  0  0  0  0  0  0  0  0  0  0  0
    0.9212   -5.2028    1.4358 H   0  0  0  0  0  0  0  0  0  0  0  0
    2.6714   -5.0939    1.1305 H   0  0  0  0  0  0  0  0  0  0  0  0
    2.0268   -6.3957    2.1592 H   0  0  0  0  0  0  0  0  0  0  0  0
    3.7392   -1.4976   -0.8647 H   0  0  0  0  0  0  0  0  0  0  0  0
    5.6067   -0.0524   -1.5499 H   0  0  0  0  0  0  0  0  0  0  0  0
    3.2197    3.4024   -0.7653 H   0  0  0  0  0  0  0  0  0  0  0  0
   -2.0502    1.4888    0.0197 H   0  0  0  0  0  0  0  0  0  0  0  0
   -1.2552    2.9689    0.0241 H   0  0  0  0  0  0  0  0  0  0  0  0
    6.1548    2.8129   -0.8569 H   0  0  0  0  0  0  0  0  0  0  0  0
  1  2  1  0  0  0  0
  1 27  1  0  0  0  0
  1 28  1  0  0  0  0
  1 29  1  0  0  0  0
  2  3  1  0  0  0  0
  2 30  1  0  0  0  0
  2 31  1  0  0  0  0
  3  4  1  0  0  0  0
  4  9  2  0  0  0  0
  4  5  1  0  0  0  0
  5  6  2  0  0  0  0
  5 32  1  0  0  0  0
  6  7  1  0  0  0  0
  6 33  1  0  0  0  0
  7  8  2  0  0  0  0
  7 12  1  0  0  0  0
  8  9  1  0  0  0  0
  8 34  1  0  0  0  0
  9 10  1  0  0  0  0
 10 11  1  0  0  0  0
 11 35  1  0  0  0  0
 11 36  1  0  0  0  0
 11 37  1  0  0  0  0
 12 13  1  0  0  0  0
 12 22  1  0  0  0  0
 12 14  1  0  0  0  0
 14 19  2  0  0  0  0
 14 15  1  0  0  0  0
 15 16  2  0  0  0  0
 15 38  1  0  0  0  0
 16 17  1  0  0  0  0
 16 39  1  0  0  0  0
 17 18  2  0  0  0  0
 17 26  1  0  0  0  0
 18 19  1  0  0  0  0
 18 40  1  0  0  0  0
 19 20  1  0  0  0  0
 20 21  1  0  0  0  0
 21 22  2  0  0  0  0
 21 25  1  0  0  0  0
 22 23  1  0  0  0  0
 23 24  3  0  0  0  0
 25 41  1  0  0  0  0
 25 42  1  0  0  0  0
 26 43  1  0  0  0  0
M  END
$$$$
ZINC00204309
  -OEChem-08230709453D

 44 45  0     0  0  0  0  0  0999 V2000
   -0.0120    1.0900    0.0074 C   0  0  0  0  0  0  0  0  0  0  0  0
   -0.7191    1.5663    1.2500 C   0  0  0  0  0  0  0  0  0  0  0  0
   -0.0230    1.7998    2.4269 C   0  0  0  0  0  0  0  0  0  0  0  0
   -0.7533    2.2412    3.5378 C   0  0  0  0  0  0  0  0  0  0  0  0
   -2.3740    2.3211    2.9287 S   0  0  0  0  0  0  0  0  0  0  0  0
   -2.0690    1.7888    1.2549 C   0  0  0  0  0  0  0  0  0  0  0  0
   -3.0252    1.6276    0.1592 C   0  0  0  0  0  0  0  0  0  0  0  0
   -2.6419    1.2483   -0.9324 O   0  0  0  0  0  0  0  0  0  0  0  0
   -4.3303    1.8991    0.3583 N   0  0  0  0  0  0  0  0  0  0  0  0
   -5.2295    1.8384   -0.7135 C   0  0  0  0  0  0  0  0  0  0  0  0
   -6.2961    2.7253   -0.7765 C   0  0  0  0  0  0  0  0  0  0  0  0
   -7.1794    2.6682   -1.8364 C   0  0  0  0  0  0  0  0  0  0  0  0
   -7.0080    1.7177   -2.8321 C   0  0  0  0  0  0  0  0  0  0  0  0
   -5.9457    0.8279   -2.7672 C   0  0  0  0  0  0  0  0  0  0  0  0
   -5.0583    0.8875   -1.7109 C   0  0  0  0  0  0  0  0  0  0  0  0
   -7.8814    1.6585   -3.8726 O   0  0  0  0  0  0  0  0  0  0  0  0
   -8.9519    2.6051   -3.8757 C   0  0  0  0  0  0  0  0  0  0  0  0
   -0.2968    2.5380    4.8006 N   0  0  0  0  0  0  0  0  0  0  0  0
    1.4259    1.5916    2.5054 C   0  0  0  0  0  0  0  0  0  0  0  0
    2.1864    2.5043    2.2454 O   0  0  0  0  0  0  0  0  0  0  0  0
    1.9155    0.3879    2.8660 O   0  0  0  0  0  0  0  0  0  0  0  0
    3.3602    0.2540    2.9226 C   0  0  0  0  0  0  0  0  0  0  0  0
    3.7352   -0.7819    3.9843 C   0  0  0  0  0  0  0  0  0  0  0  0
    3.8840   -0.2008    1.5589 C   0  0  0  0  0  0  0  0  0  0  0  0
    0.0032    0.0002   -0.0069 H   0  0  0  0  0  0  0  0  0  0  0  0
    1.0105    1.4677    0.0038 H   0  0  0  0  0  0  0  0  0  0  0  0
   -0.5382    1.4577   -0.8736 H   0  0  0  0  0  0  0  0  0  0  0  0
   -4.6467    2.1365    1.2440 H   0  0  0  0  0  0  0  0  0  0  0  0
   -6.4325    3.4622    0.0012 H   0  0  0  0  0  0  0  0  0  0  0  0
   -8.0064    3.3609   -1.8878 H   0  0  0  0  0  0  0  0  0  0  0  0
   -5.8129    0.0882   -3.5428 H   0  0  0  0  0  0  0  0  0  0  0  0
   -4.2311    0.1949   -1.6606 H   0  0  0  0  0  0  0  0  0  0  0  0
   -9.5726    2.4486   -4.7579 H   0  0  0  0  0  0  0  0  0  0  0  0
   -9.5561    2.4732   -2.9782 H   0  0  0  0  0  0  0  0  0  0  0  0
   -8.5433    3.6155   -3.8935 H   0  0  0  0  0  0  0  0  0  0  0  0
    0.6464    2.4487    5.0088 H   0  0  0  0  0  0  0  0  0  0  0  0
   -0.9179    2.8367    5.4831 H   0  0  0  0  0  0  0  0  0  0  0  0
    3.8044    1.2154    3.1802 H   0  0  0  0  0  0  0  0  0  0  0  0
    3.2910   -1.7434    3.7267 H   0  0  0  0  0  0  0  0  0  0  0  0
    4.8197   -0.8825    4.0268 H   0  0  0  0  0  0  0  0  0  0  0  0
    3.3620   -0.4579    4.9558 H   0  0  0  0  0  0  0  0  0  0  0  0
    4.9685   -0.3014    1.6014 H   0  0  0  0  0  0  0  0  0  0  0  0
    3.4398   -1.1623    1.3013 H   0  0  0  0  0  0  0  0  0  0  0  0
    3.6169    0.5372    0.8025 H   0  0  0  0  0  0  0  0  0  0  0  0
  1  2  1  0  0  0  0
  1 25  1  0  0  0  0
  1 26  1  0  0  0  0
  1 27  1  0  0  0  0
  2  6  2  0  0  0  0
  2  3  1  0  0  0  0
  3  4  2  0  0  0  0
  3 19  1  0  0  0  0
  4  5  1  0  0  0  0
  4 18  1  0  0  0  0
  5  6  1  0  0  0  0
  6  7  1  0  0  0  0
  7  8  2  0  0  0  0
  7  9  1  0  0  0  0
  9 10  1  0  0  0  0
  9 28  1  0  0  0  0
 10 15  2  0  0  0  0
 10 11  1  0  0  0  0
 11 12  2  0  0  0  0
 11 29  1  0  0  0  0
 12 13  1  0  0  0  0
 12 30  1  0  0  0  0
 13 14  2  0  0  0  0
 13 16  1  0  0  0  0
 14 15  1  0  0  0  0
 14 31  1  0  0  0  0
 15 32  1  0  0  0  0
 16 17  1  0  0  0  0
 17 33  1  0  0  0  0
 17 34  1  0  0  0  0
 17 35  1  0  0  0  0
 18 36  1  0  0  0  0
 18 37  1  0  0  0  0
 19 20  2  0  0  0  0
 19 21  1  0  0  0  0
 21 22  1  0  0  0  0
 22 23  1  0  0  0  0
 22 24  1  0  0  0  0
 22 38  1  0  0  0  0
 23 39  1  0  0  0  0
 23 40  1  0  0  0  0
 23 41  1  0  0  0  0
 24 42  1  0  0  0  0
 24 43  1  0  0  0  0
 24 44  1  0  0  0  0
M  END
$$$$
ZINC00205663
  -OEChem-08230709453D

 41 42  0     0  0  0  0  0  0999 V2000
    1.1432    3.5928   -0.0155 C   0  0  0  0  0  0  0  0  0  0  0  0
    1.1682    2.0860   -0.0167 C   0  0  0  0  0  0  0  0  0  0  0  0
    2.1113    1.4123   -0.7709 C   0  0  0  0  0  0  0  0  0  0  0  0
    2.1370    0.0314   -0.7742 C   0  0  0  0  0  0  0  0  0  0  0  0
    1.2143   -0.6805   -0.0189 C   0  0  0  0  0  0  0  0  0  0  0  0
    0.2684   -0.0009    0.7374 C   0  0  0  0  0  0  0  0  0  0  0  0
    0.2481    1.3801    0.7364 C   0  0  0  0  0  0  0  0  0  0  0  0
    1.2373   -2.0795   -0.0204 N   0  0  0  0  0  0  0  0  0  0  0  0
    2.4096   -2.7341   -0.1369 C   0  0  0  0  0  0  0  0  0  0  0  0
    3.4521   -2.1143   -0.1440 O   0  0  0  0  0  0  0  0  0  0  0  0
    2.4252   -4.2361   -0.2581 C   0  0  0  0  0  0  0  0  0  0  0  0
    4.1353   -4.8125   -0.3976 S   0  0  0  0  0  0  0  0  0  0  0  0
    3.8637   -6.5490   -0.5220 C   0  0  0  0  0  0  0  0  0  0  0  0
    2.6328   -7.0150   -0.4867 N   0  0  0  0  0  0  0  0  0  0  0  0
    2.3906   -8.3317   -0.5836 C   0  0  0  0  0  0  0  0  0  0  0  0
    1.2415   -8.7482   -0.5540 O   0  0  0  0  0  0  0  0  0  0  0  0
    3.4665   -9.2323   -0.7145 C   0  0  0  0  0  0  0  0  0  0  0  0
    4.7392   -8.7392   -0.7448 C   0  0  0  0  0  0  0  0  0  0  0  0
    4.9315   -7.3859   -0.6473 N   0  0  0  0  0  0  0  0  0  0  0  0
    6.2896   -6.8374   -0.6774 C   0  0  0  0  0  0  0  0  0  0  0  0
    6.8324   -6.7626    0.7264 C   0  0  0  0  0  0  0  0  0  0  0  0
    7.9702   -7.3416    1.0205 C   0  0  0  0  0  0  0  0  0  0  0  0
    5.8136   -9.5890   -0.8711 N   0  0  0  0  0  0  0  0  0  0  0  0
    0.4909    3.9460   -0.8142 H   0  0  0  0  0  0  0  0  0  0  0  0
    0.7684    3.9492    0.9440 H   0  0  0  0  0  0  0  0  0  0  0  0
    2.1521    3.9731   -0.1754 H   0  0  0  0  0  0  0  0  0  0  0  0
    2.8315    1.9666   -1.3546 H   0  0  0  0  0  0  0  0  0  0  0  0
    2.8736   -0.4942   -1.3637 H   0  0  0  0  0  0  0  0  0  0  0  0
   -0.4507   -0.5517    1.3255 H   0  0  0  0  0  0  0  0  0  0  0  0
   -0.4870    1.9092    1.3247 H   0  0  0  0  0  0  0  0  0  0  0  0
    0.4094   -2.5783    0.0623 H   0  0  0  0  0  0  0  0  0  0  0  0
    1.9642   -4.6768    0.6259 H   0  0  0  0  0  0  0  0  0  0  0  0
    1.8676   -4.5348   -1.1458 H   0  0  0  0  0  0  0  0  0  0  0  0
    3.2873  -10.2947   -0.7892 H   0  0  0  0  0  0  0  0  0  0  0  0
    6.9288   -7.4825   -1.2802 H   0  0  0  0  0  0  0  0  0  0  0  0
    6.2683   -5.8381   -1.1124 H   0  0  0  0  0  0  0  0  0  0  0  0
    6.2835   -6.2317    1.4901 H   0  0  0  0  0  0  0  0  0  0  0  0
    8.5191   -7.8725    0.2568 H   0  0  0  0  0  0  0  0  0  0  0  0
    8.3592   -7.2881    2.0266 H   0  0  0  0  0  0  0  0  0  0  0  0
    6.7150   -9.2315   -0.8916 H   0  0  0  0  0  0  0  0  0  0  0  0
    5.6697  -10.5459   -0.9397 H   0  0  0  0  0  0  0  0  0  0  0  0
  1  2  1  0  0  0  0
  1 24  1  0  0  0  0
  1 25  1  0  0  0  0
  1 26  1  0  0  0  0
  2  7  2  0  0  0  0
  2  3  1  0  0  0  0
  3  4  2  0  0  0  0
  3 27  1  0  0  0  0
  4  5  1  0  0  0  0
  4 28  1  0  0  0  0
  5  6  2  0  0  0  0
  5  8  1  0  0  0  0
  6  7  1  0  0  0  0
  6 29  1  0  0  0  0
  7 30  1  0  0  0  0
  8  9  1  0  0  0  0
  8 31  1  0  0  0  0
  9 10  2  0  0  0  0
  9 11  1  0  0  0  0
 11 12  1  0  0  0  0
 11 32  1  0  0  0  0
 11 33  1  0  0  0  0
 12 13  1  0  0  0  0
 13 19  1  0  0  0  0
 13 14  2  0  0  0  0
 14 15  1  0  0  0  0
 15 16  2  0  0  0  0
 15 17  1  0  0  0  0
 17 18  2  0  0  0  0
 17 34  1  0  0  0  0
 18 19  1  0  0  0  0
 18 23  1  0  0  0  0
 19 20  1  0  0  0  0
 20 21  1  0  0  0  0
 20 35  1  0  0  0  0
 20 36  1  0  0  0  0
 21 22  2  0  0  0  0
 21 37  1  0  0  0  0
 22 38  1  0  0  0  0
 22 39  1  0  0  0  0
 23 40  1  0  0  0  0
 23 41  1  0  0  0  0
M  END
$$$$
ZINC00205700
  -OEChem-08230709453D

 42 43  0     1  0  0  0  0  0999 V2000
   -4.2603    1.6871    1.7226 C   0  0  0  0  0  0  0  0  0  0  0  0
   -5.1669    0.5059    1.3709 C   0  0  0  0  0  0  0  0  0  0  0  0
   -4.9580    0.1214   -0.0952 C   0  0  1  0  0  0  0  0  0  0  0  0
   -5.1345    0.9915   -0.7277 H   0  0  0  0  0  0  0  0  0  0  0  0
   -3.5446   -0.3633   -0.2909 C   0  0  0  0  0  0  0  0  0  0  0  0
   -3.3122   -1.5530   -0.3363 O   0  0  0  0  0  0  0  0  0  0  0  0
   -2.5386    0.5249   -0.4155 N   0  0  0  0  0  0  0  0  0  0  0  0
   -1.2417    0.0790   -0.7030 C   0  0  0  0  0  0  0  0  0  0  0  0
   -0.7973   -1.1364   -0.2032 C   0  0  0  0  0  0  0  0  0  0  0  0
    0.4820   -1.5743   -0.4885 C   0  0  0  0  0  0  0  0  0  0  0  0
    1.3214   -0.8040   -1.2721 C   0  0  0  0  0  0  0  0  0  0  0  0
    0.8840    0.4060   -1.7778 C   0  0  0  0  0  0  0  0  0  0  0  0
   -0.3954    0.8546   -1.4920 C   0  0  0  0  0  0  0  0  0  0  0  0
   -0.8257    2.0465   -1.9850 O   0  0  0  0  0  0  0  0  0  0  0  0
    0.0964    2.7881   -2.7862 C   0  0  0  0  0  0  0  0  0  0  0  0
   -6.1152   -1.1958   -0.5444 S   0  0  0  0  0  0  0  0  0  0  0  0
   -7.6365   -0.3118   -0.4502 C   0  0  0  0  0  0  0  0  0  0  0  0
   -8.8097   -0.9758   -0.6437 N   0  0  0  0  0  0  0  0  0  0  0  0
   -8.8049   -1.9561   -0.8410 H   0  0  0  0  0  0  0  0  0  0  0  0
   -9.9794   -0.3055   -0.5682 C   0  0  0  0  0  0  0  0  0  0  0  0
  -11.0400   -0.8854   -0.7339 O   0  0  0  0  0  0  0  0  0  0  0  0
   -9.9516    1.0742   -0.2999 C   0  0  0  0  0  0  0  0  0  0  0  0
   -8.7455    1.6876   -0.1199 C   0  0  0  0  0  0  0  0  0  0  0  0
   -7.6196    0.9831   -0.1989 N   0  0  0  0  0  0  0  0  0  0  0  0
   -8.6891    3.1655    0.1694 C   0  0  0  0  0  0  0  0  0  0  0  0
   -4.5546    2.5580    1.1369 H   0  0  0  0  0  0  0  0  0  0  0  0
   -4.3551    1.9143    2.7844 H   0  0  0  0  0  0  0  0  0  0  0  0
   -3.2252    1.4304    1.4970 H   0  0  0  0  0  0  0  0  0  0  0  0
   -6.2081    0.7877    1.5278 H   0  0  0  0  0  0  0  0  0  0  0  0
   -4.9205   -0.3436    2.0079 H   0  0  0  0  0  0  0  0  0  0  0  0
   -2.7124    1.4730   -0.3060 H   0  0  0  0  0  0  0  0  0  0  0  0
   -1.4511   -1.7403    0.4085 H   0  0  0  0  0  0  0  0  0  0  0  0
    0.8268   -2.5207   -0.0988 H   0  0  0  0  0  0  0  0  0  0  0  0
    2.3202   -1.1505   -1.4932 H   0  0  0  0  0  0  0  0  0  0  0  0
    1.5407    1.0032   -2.3929 H   0  0  0  0  0  0  0  0  0  0  0  0
    0.9852    3.0179   -2.1986 H   0  0  0  0  0  0  0  0  0  0  0  0
    0.3794    2.1960   -3.6566 H   0  0  0  0  0  0  0  0  0  0  0  0
   -0.3720    3.7159   -3.1146 H   0  0  0  0  0  0  0  0  0  0  0  0
  -10.8696    1.6397   -0.2376 H   0  0  0  0  0  0  0  0  0  0  0  0
   -7.6499    3.4743    0.2823 H   0  0  0  0  0  0  0  0  0  0  0  0
   -9.1438    3.7147   -0.6551 H   0  0  0  0  0  0  0  0  0  0  0  0
   -9.2329    3.3766    1.0902 H   0  0  0  0  0  0  0  0  0  0  0  0
  1  2  1  0  0  0  0
  1 26  1  0  0  0  0
  1 27  1  0  0  0  0
  1 28  1  0  0  0  0
  2  3  1  0  0  0  0
  2 29  1  0  0  0  0
  2 30  1  0  0  0  0
  3  4  1  0  0  0  0
  3  5  1  0  0  0  0
  3 16  1  0  0  0  0
  5  6  2  0  0  0  0
  5  7  1  0  0  0  0
  7  8  1  0  0  0  0
  7 31  1  0  0  0  0
  8 13  2  0  0  0  0
  8  9  1  0  0  0  0
  9 10  2  0  0  0  0
  9 32  1  0  0  0  0
 10 11  1  0  0  0  0
 10 33  1  0  0  0  0
 11 12  2  0  0  0  0
 11 34  1  0  0  0  0
 12 13  1  0  0  0  0
 12 35  1  0  0  0  0
 13 14  1  0  0  0  0
 14 15  1  0  0  0  0
 15 36  1  0  0  0  0
 15 37  1  0  0  0  0
 15 38  1  0  0  0  0
 16 17  1  0  0  0  0
 17 24  2  0  0  0  0
 17 18  1  0  0  0  0
 18 19  1  0  0  0  0
 18 20  1  0  0  0  0
 20 21  2  0  0  0  0
 20 22  1  0  0  0  0
 22 23  2  0  0  0  0
 22 39  1  0  0  0  0
 23 24  1  0  0  0  0
 23 25  1  0  0  0  0
 25 40  1  0  0  0  0
 25 41  1  0  0  0  0
 25 42  1  0  0  0  0
M  END
$$$$
ZINC00205700
  -OEChem-08230709453D

 42 43  0     1  0  0  0  0  0999 V2000
   -4.2600    1.6867    1.7217 C   0  0  0  0  0  0  0  0  0  0  0  0
   -5.1666    0.5055    1.3698 C   0  0  0  0  0  0  0  0  0  0  0  0
   -4.9579    0.1216   -0.0965 C   0  0  1  0  0  0  0  0  0  0  0  0
   -5.1346    0.9919   -0.7286 H   0  0  0  0  0  0  0  0  0  0  0  0
   -3.5445   -0.3629   -0.2927 C   0  0  0  0  0  0  0  0  0  0  0  0
   -3.3121   -1.5526   -0.3385 O   0  0  0  0  0  0  0  0  0  0  0  0
   -2.5386    0.5254   -0.4171 N   0  0  0  0  0  0  0  0  0  0  0  0
   -1.2417    0.0796   -0.7050 C   0  0  0  0  0  0  0  0  0  0  0  0
   -0.7972   -1.1359   -0.2058 C   0  0  0  0  0  0  0  0  0  0  0  0
    0.4821   -1.5736   -0.4915 C   0  0  0  0  0  0  0  0  0  0  0  0
    1.3213   -0.8030   -1.2749 C   0  0  0  0  0  0  0  0  0  0  0  0
    0.8838    0.4072   -1.7801 C   0  0  0  0  0  0  0  0  0  0  0  0
   -0.3956    0.8556   -1.4939 C   0  0  0  0  0  0  0  0  0  0  0  0
   -0.8261    2.0476   -1.9864 O   0  0  0  0  0  0  0  0  0  0  0  0
    0.0958    2.7896   -2.7875 C   0  0  0  0  0  0  0  0  0  0  0  0
   -6.1151   -1.1955   -0.5460 S   0  0  0  0  0  0  0  0  0  0  0  0
   -7.6365   -0.3116   -0.4512 C   0  0  0  0  0  0  0  0  0  0  0  0
   -8.8097   -0.9756   -0.6447 N   0  0  0  0  0  0  0  0  0  0  0  0
   -6.7429    1.4437   -0.0602 H   0  0  0  0  0  0  0  0  0  0  0  0
   -9.9794   -0.3055   -0.5682 C   0  0  0  0  0  0  0  0  0  0  0  0
  -11.0400   -0.8854   -0.7339 O   0  0  0  0  0  0  0  0  0  0  0  0
   -9.9522    1.0719   -0.2884 C   0  0  0  0  0  0  0  0  0  0  0  0
   -8.7461    1.6854   -0.1087 C   0  0  0  0  0  0  0  0  0  0  0  0
   -7.6199    0.9821   -0.1939 N   0  0  0  0  0  0  0  0  0  0  0  0
   -8.6900    3.1621    0.1867 C   0  0  0  0  0  0  0  0  0  0  0  0
   -4.5544    2.5578    1.1364 H   0  0  0  0  0  0  0  0  0  0  0  0
   -4.3546    1.9135    2.7837 H   0  0  0  0  0  0  0  0  0  0  0  0
   -3.2249    1.4301    1.4959 H   0  0  0  0  0  0  0  0  0  0  0  0
   -6.2077    0.7872    1.5270 H   0  0  0  0  0  0  0  0  0  0  0  0
   -4.9200   -0.3442    2.0064 H   0  0  0  0  0  0  0  0  0  0  0  0
   -2.7124    1.4734   -0.3072 H   0  0  0  0  0  0  0  0  0  0  0  0
   -1.4508   -1.7401    0.4058 H   0  0  0  0  0  0  0  0  0  0  0  0
    0.8270   -2.5202   -0.1022 H   0  0  0  0  0  0  0  0  0  0  0  0
    2.3201   -1.1494   -1.4964 H   0  0  0  0  0  0  0  0  0  0  0  0
    1.5403    1.0046   -2.3951 H   0  0  0  0  0  0  0  0  0  0  0  0
    0.9847    3.0192   -2.1999 H   0  0  0  0  0  0  0  0  0  0  0  0
    0.3787    2.1978   -3.6581 H   0  0  0  0  0  0  0  0  0  0  0  0
   -0.3727    3.7175   -3.1154 H   0  0  0  0  0  0  0  0  0  0  0  0
  -10.8705    1.6364   -0.2211 H   0  0  0  0  0  0  0  0  0  0  0  0
   -7.6508    3.4711    0.2984 H   0  0  0  0  0  0  0  0  0  0  0  0
   -9.1471    3.7145   -0.6344 H   0  0  0  0  0  0  0  0  0  0  0  0
   -9.2318    3.3689    1.1097 H   0  0  0  0  0  0  0  0  0  0  0  0
  1  2  1  0  0  0  0
  1 26  1  0  0  0  0
  1 27  1  0  0  0  0
  1 28  1  0  0  0  0
  2  3  1  0  0  0  0
  2 29  1  0  0  0  0
  2 30  1  0  0  0  0
  3  4  1  0  0  0  0
  3  5  1  0  0  0  0
  3 16  1  0  0  0  0
  5  6  2  0  0  0  0
  5  7  1  0  0  0  0
  7  8  1  0  0  0  0
  7 31  1  0  0  0  0
  8 13  2  0  0  0  0
  8  9  1  0  0  0  0
  9 10  2  0  0  0  0
  9 32  1  0  0  0  0
 10 11  1  0  0  0  0
 10 33  1  0  0  0  0
 11 12  2  0  0  0  0
 11 34  1  0  0  0  0
 12 13  1  0  0  0  0
 12 35  1  0  0  0  0
 13 14  1  0  0  0  0
 14 15  1  0  0  0  0
 15 36  1  0  0  0  0
 15 37  1  0  0  0  0
 15 38  1  0  0  0  0
 16 17  1  0  0  0  0
 17 24  1  0  0  0  0
 17 18  2  0  0  0  0
 18 20  1  0  0  0  0
 19 24  1  0  0  0  0
 20 21  2  0  0  0  0
 20 22  1  0  0  0  0
 22 39  1  0  0  0  0
 22 23  2  0  0  0  0
 23 25  1  0  0  0  0
 23 24  1  0  0  0  0
 25 40  1  0  0  0  0
 25 41  1  0  0  0  0
 25 42  1  0  0  0  0
M  END
$$$$
ZINC00205700
  -OEChem-08230709453D

 42 43  0     1  0  0  0  0  0999 V2000
   -4.2603    1.6871    1.7226 C   0  0  0  0  0  0  0  0  0  0  0  0
   -5.1669    0.5059    1.3709 C   0  0  0  0  0  0  0  0  0  0  0  0
   -4.9580    0.1214   -0.0952 C   0  0  1  0  0  0  0  0  0  0  0  0
   -5.1345    0.9915   -0.7277 H   0  0  0  0  0  0  0  0  0  0  0  0
   -3.5446   -0.3633   -0.2909 C   0  0  0  0  0  0  0  0  0  0  0  0
   -3.3122   -1.5530   -0.3363 O   0  0  0  0  0  0  0  0  0  0  0  0
   -2.5386    0.5249   -0.4155 N   0  0  0  0  0  0  0  0  0  0  0  0
   -1.2417    0.0790   -0.7030 C   0  0  0  0  0  0  0  0  0  0  0  0
   -0.7973   -1.1364   -0.2032 C   0  0  0  0  0  0  0  0  0  0  0  0
    0.4820   -1.5743   -0.4885 C   0  0  0  0  0  0  0  0  0  0  0  0
    1.3214   -0.8040   -1.2721 C   0  0  0  0  0  0  0  0  0  0  0  0
    0.8840    0.4060   -1.7778 C   0  0  0  0  0  0  0  0  0  0  0  0
   -0.3954    0.8546   -1.4920 C   0  0  0  0  0  0  0  0  0  0  0  0
   -0.8257    2.0465   -1.9850 O   0  0  0  0  0  0  0  0  0  0  0  0
    0.0964    2.7881   -2.7862 C   0  0  0  0  0  0  0  0  0  0  0  0
   -6.1152   -1.1958   -0.5444 S   0  0  0  0  0  0  0  0  0  0  0  0
   -7.6365   -0.3118   -0.4502 C   0  0  0  0  0  0  0  0  0  0  0  0
   -8.8096   -0.9756   -0.6447 N   0  0  0  0  0  0  0  0  0  0  0  0
  -11.7937   -0.2349   -0.6401 H   0  0  0  0  0  0  0  0  0  0  0  0
   -9.9794   -0.3053   -0.5692 C   0  0  0  0  0  0  0  0  0  0  0  0
  -11.0401   -0.8859   -0.7312 O   0  0  0  0  0  0  0  0  0  0  0  0
   -9.9523    1.0716   -0.2870 C   0  0  0  0  0  0  0  0  0  0  0  0
   -8.7462    1.6850   -0.1068 C   0  0  0  0  0  0  0  0  0  0  0  0
   -7.6200    0.9818   -0.1925 N   0  0  0  0  0  0  0  0  0  0  0  0
   -8.6902    3.1615    0.1897 C   0  0  0  0  0  0  0  0  0  0  0  0
   -4.5546    2.5580    1.1369 H   0  0  0  0  0  0  0  0  0  0  0  0
   -4.3551    1.9143    2.7844 H   0  0  0  0  0  0  0  0  0  0  0  0
   -3.2252    1.4304    1.4970 H   0  0  0  0  0  0  0  0  0  0  0  0
   -6.2081    0.7877    1.5278 H   0  0  0  0  0  0  0  0  0  0  0  0
   -4.9205   -0.3436    2.0079 H   0  0  0  0  0  0  0  0  0  0  0  0
   -2.7124    1.4730   -0.3060 H   0  0  0  0  0  0  0  0  0  0  0  0
   -1.4511   -1.7403    0.4085 H   0  0  0  0  0  0  0  0  0  0  0  0
    0.8268   -2.5207   -0.0988 H   0  0  0  0  0  0  0  0  0  0  0  0
    2.3202   -1.1505   -1.4932 H   0  0  0  0  0  0  0  0  0  0  0  0
    1.5407    1.0032   -2.3929 H   0  0  0  0  0  0  0  0  0  0  0  0
    0.9852    3.0179   -2.1986 H   0  0  0  0  0  0  0  0  0  0  0  0
    0.3794    2.1960   -3.6566 H   0  0  0  0  0  0  0  0  0  0  0  0
   -0.3720    3.7159   -3.1146 H   0  0  0  0  0  0  0  0  0  0  0  0
  -10.8706    1.6359   -0.2189 H   0  0  0  0  0  0  0  0  0  0  0  0
   -7.6509    3.4706    0.3012 H   0  0  0  0  0  0  0  0  0  0  0  0
   -9.1477    3.7144   -0.6308 H   0  0  0  0  0  0  0  0  0  0  0  0
   -9.2316    3.3676    1.1130 H   0  0  0  0  0  0  0  0  0  0  0  0
  1  2  1  0  0  0  0
  1 26  1  0  0  0  0
  1 27  1  0  0  0  0
  1 28  1  0  0  0  0
  2  3  1  0  0  0  0
  2 29  1  0  0  0  0
  2 30  1  0  0  0  0
  3  4  1  0  0  0  0
  3  5  1  0  0  0  0
  3 16  1  0  0  0  0
  5  6  2  0  0  0  0
  5  7  1  0  0  0  0
  7  8  1  0  0  0  0
  7 31  1  0  0  0  0
  8 13  2  0  0  0  0
  8  9  1  0  0  0  0
  9 10  2  0  0  0  0
  9 32  1  0  0  0  0
 10 11  1  0  0  0  0
 10 33  1  0  0  0  0
 11 12  2  0  0  0  0
 11 34  1  0  0  0  0
 12 13  1  0  0  0  0
 12 35  1  0  0  0  0
 13 14  1  0  0  0  0
 14 15  1  0  0  0  0
 15 36  1  0  0  0  0
 15 37  1  0  0  0  0
 15 38  1  0  0  0  0
 16 17  1  0  0  0  0
 17 24  2  0  0  0  0
 17 18  1  0  0  0  0
 18 20  2  0  0  0  0
 19 21  1  0  0  0  0
 20 21  1  0  0  0  0
 20 22  1  0  0  0  0
 22 39  1  0  0  0  0
 22 23  2  0  0  0  0
 23 25  1  0  0  0  0
 23 24  1  0  0  0  0
 25 40  1  0  0  0  0
 25 41  1  0  0  0  0
 25 42  1  0  0  0  0
M  END
$$$$
ZINC00206419
  -OEChem-08230709453D

 43 45  0     0  0  0  0  0  0999 V2000
    4.9489   -6.9188   -0.0997 C   0  0  0  0  0  0  0  0  0  0  0  0
    6.2433   -6.1470   -0.1119 C   0  0  0  0  0  0  0  0  0  0  0  0
    7.4464   -6.8187   -0.1314 C   0  0  0  0  0  0  0  0  0  0  0  0
    8.6423   -6.1112   -0.1417 C   0  0  0  0  0  0  0  0  0  0  0  0
    8.6342   -4.7236   -0.1335 C   0  0  0  0  0  0  0  0  0  0  0  0
    7.4327   -4.0380   -0.1194 C   0  0  0  0  0  0  0  0  0  0  0  0
    6.2244   -4.7502   -0.1030 C   0  0  0  0  0  0  0  0  0  0  0  0
    4.9407   -4.0281   -0.0828 C   0  0  0  0  0  0  0  0  0  0  0  0
    4.9261   -2.7297   -0.0746 N   0  0  0  0  0  0  0  0  0  0  0  0
    3.7051   -2.0430   -0.0553 N   0  0  0  0  0  0  0  0  0  0  0  0
    3.6901   -0.6953   -0.0468 C   0  0  0  0  0  0  0  0  0  0  0  0
    4.7365   -0.0753   -0.0558 O   0  0  0  0  0  0  0  0  0  0  0  0
    2.4040    0.0281   -0.0264 C   0  0  0  0  0  0  0  0  0  0  0  0
    1.2007   -0.6820   -0.0160 C   0  0  0  0  0  0  0  0  0  0  0  0
    0.0021   -0.0041    0.0020 C   0  0  0  0  0  0  0  0  0  0  0  0
   -0.0168    1.3859    0.0097 C   0  0  0  0  0  0  0  0  0  0  0  0
    1.1790    2.0996    0.0021 C   0  0  0  0  0  0  0  0  0  0  0  0
    2.3859    1.4248   -0.0171 C   0  0  0  0  0  0  0  0  0  0  0  0
    1.1774    3.4609    0.0181 O   0  0  0  0  0  0  0  0  0  0  0  0
   -0.0492    4.1072   -0.3389 C   0  0  0  0  0  0  0  0  0  0  0  0
   -1.1942    3.4116    0.4094 C   0  0  0  0  0  0  0  0  0  0  0  0
   -1.2122    2.0339    0.0189 O   0  0  0  0  0  0  0  0  0  0  0  0
    7.4232   -2.6800   -0.1161 O   0  0  0  0  0  0  0  0  0  0  0  0
    9.9351   -3.9630   -0.1459 C   0  0  0  0  0  0  0  0  0  0  0  0
    9.8242   -6.7807   -0.1604 O   0  0  0  0  0  0  0  0  0  0  0  0
    4.6234   -7.0985   -1.1243 H   0  0  0  0  0  0  0  0  0  0  0  0
    5.0992   -7.8724    0.4063 H   0  0  0  0  0  0  0  0  0  0  0  0
    4.1879   -6.3436    0.4277 H   0  0  0  0  0  0  0  0  0  0  0  0
    7.4598   -7.8986   -0.1382 H   0  0  0  0  0  0  0  0  0  0  0  0
    4.0115   -4.5786   -0.0747 H   0  0  0  0  0  0  0  0  0  0  0  0
    2.8706   -2.5374   -0.0481 H   0  0  0  0  0  0  0  0  0  0  0  0
    1.2106   -1.7620   -0.0224 H   0  0  0  0  0  0  0  0  0  0  0  0
   -0.9271   -0.5546    0.0099 H   0  0  0  0  0  0  0  0  0  0  0  0
    3.3139    1.9774   -0.0253 H   0  0  0  0  0  0  0  0  0  0  0  0
   -0.0078    5.1581   -0.0525 H   0  0  0  0  0  0  0  0  0  0  0  0
   -0.2085    4.0253   -1.4141 H   0  0  0  0  0  0  0  0  0  0  0  0
   -1.0309    3.4882    1.4844 H   0  0  0  0  0  0  0  0  0  0  0  0
   -2.1429    3.8798    0.1469 H   0  0  0  0  0  0  0  0  0  0  0  0
    7.4336   -2.2888    0.7682 H   0  0  0  0  0  0  0  0  0  0  0  0
   10.2355   -3.7736   -1.1764 H   0  0  0  0  0  0  0  0  0  0  0  0
    9.8062   -3.0143    0.3752 H   0  0  0  0  0  0  0  0  0  0  0  0
   10.7045   -4.5509    0.3547 H   0  0  0  0  0  0  0  0  0  0  0  0
   10.1554   -6.9691   -1.0492 H   0  0  0  0  0  0  0  0  0  0  0  0
  1  2  1  0  0  0  0
  1 26  1  0  0  0  0
  1 27  1  0  0  0  0
  1 28  1  0  0  0  0
  2  7  2  0  0  0  0
  2  3  1  0  0  0  0
  3  4  2  0  0  0  0
  3 29  1  0  0  0  0
  4  5  1  0  0  0  0
  4 25  1  0  0  0  0
  5  6  2  0  0  0  0
  5 24  1  0  0  0  0
  6  7  1  0  0  0  0
  6 23  1  0  0  0  0
  7  8  1  0  0  0  0
  8  9  2  0  0  0  0
  8 30  1  0  0  0  0
  9 10  1  0  0  0  0
 10 11  1  0  0  0  0
 10 31  1  0  0  0  0
 11 12  2  0  0  0  0
 11 13  1  0  0  0  0
 13 18  2  0  0  0  0
 13 14  1  0  0  0  0
 14 15  2  0  0  0  0
 14 32  1  0  0  0  0
 15 16  1  0  0  0  0
 15 33  1  0  0  0  0
 16 22  1  0  0  0  0
 16 17  2  0  0  0  0
 17 18  1  0  0  0  0
 17 19  1  0  0  0  0
 18 34  1  0  0  0  0
 19 20  1  0  0  0  0
 20 21  1  0  0  0  0
 20 35  1  0  0  0  0
 20 36  1  0  0  0  0
 21 22  1  0  0  0  0
 21 37  1  0  0  0  0
 21 38  1  0  0  0  0
 23 39  1  0  0  0  0
 24 40  1  0  0  0  0
 24 41  1  0  0  0  0
 24 42  1  0  0  0  0
 25 43  1  0  0  0  0
M  END
$$$$
ZINC00207318
  -OEChem-08230709453D

 44 46  0     1  0  0  0  0  0999 V2000
   -3.1074    2.0840    5.4670 C   0  0  0  0  0  0  0  0  0  0  0  0
   -2.5889    3.1765    4.5298 C   0  0  0  0  0  0  0  0  0  0  0  0
   -1.9470    2.5735    3.4044 O   0  0  0  0  0  0  0  0  0  0  0  0
   -1.4266    3.4114    2.4683 C   0  0  0  0  0  0  0  0  0  0  0  0
   -1.5319    4.7837    2.6293 C   0  0  0  0  0  0  0  0  0  0  0  0
   -1.0027    5.6341    1.6765 C   0  0  0  0  0  0  0  0  0  0  0  0
   -0.3682    5.1187    0.5616 C   0  0  0  0  0  0  0  0  0  0  0  0
   -0.2542    3.7507    0.3979 C   0  0  0  0  0  0  0  0  0  0  0  0
   -0.7875    2.8927    1.3463 C   0  0  0  0  0  0  0  0  0  0  0  0
   -0.6816    1.5467    1.1837 O   0  0  0  0  0  0  0  0  0  0  0  0
   -0.0127    1.0858    0.0080 C   0  0  0  0  0  0  0  0  0  0  0  0
   -1.1183    7.1262    1.8533 C   0  0  1  0  0  0  0  0  0  0  0  0
   -1.6505    7.3398    2.7803 H   0  0  0  0  0  0  0  0  0  0  0  0
    0.2602    7.7284    1.9231 C   0  0  0  0  0  0  0  0  0  0  0  0
    0.9975    7.6062    3.0879 C   0  0  0  0  0  0  0  0  0  0  0  0
    2.2629    8.1515    3.1712 C   0  0  0  0  0  0  0  0  0  0  0  0
    2.8011    8.8262    2.0819 C   0  0  0  0  0  0  0  0  0  0  0  0
    2.0642    8.9497    0.9130 C   0  0  0  0  0  0  0  0  0  0  0  0
    0.7913    8.4004    0.8329 C   0  0  0  0  0  0  0  0  0  0  0  0
    0.0838    8.5298   -0.3166 O   0  0  0  0  0  0  0  0  0  0  0  0
   -1.2492    8.3635   -0.3054 C   0  0  0  0  0  0  0  0  0  0  0  0
   -1.8812    7.7070    0.6961 C   0  0  0  0  0  0  0  0  0  0  0  0
   -3.3052    7.5627    0.6515 C   0  0  0  0  0  0  0  0  0  0  0  0
   -4.4348    7.4483    0.6161 N   0  0  0  0  0  0  0  0  0  0  0  0
   -1.9927    8.8748   -1.3397 N   0  0  0  0  0  0  0  0  0  0  0  0
    4.0813    9.3787    2.1636 N   0  0  0  0  0  0  0  0  0  0  0  0
   -2.2725    1.4726    5.8095 H   0  0  0  0  0  0  0  0  0  0  0  0
   -3.5970    2.5439    6.3254 H   0  0  0  0  0  0  0  0  0  0  0  0
   -3.8222    1.4570    4.9339 H   0  0  0  0  0  0  0  0  0  0  0  0
   -1.8742    3.8034    5.0628 H   0  0  0  0  0  0  0  0  0  0  0  0
   -3.4239    3.7878    4.1873 H   0  0  0  0  0  0  0  0  0  0  0  0
   -2.0278    5.1888    3.4990 H   0  0  0  0  0  0  0  0  0  0  0  0
    0.0437    5.7863   -0.1808 H   0  0  0  0  0  0  0  0  0  0  0  0
    0.2463    3.3507   -0.4716 H   0  0  0  0  0  0  0  0  0  0  0  0
    0.0021   -0.0041    0.0020 H   0  0  0  0  0  0  0  0  0  0  0  0
    1.0099    1.4631    0.0003 H   0  0  0  0  0  0  0  0  0  0  0  0
   -0.5399    1.4469   -0.8751 H   0  0  0  0  0  0  0  0  0  0  0  0
    0.5810    7.0823    3.9355 H   0  0  0  0  0  0  0  0  0  0  0  0
    2.8342    8.0542    4.0825 H   0  0  0  0  0  0  0  0  0  0  0  0
    2.4804    9.4732    0.0651 H   0  0  0  0  0  0  0  0  0  0  0  0
   -2.9563    8.7632   -1.3458 H   0  0  0  0  0  0  0  0  0  0  0  0
   -1.5547    9.3477   -2.0645 H   0  0  0  0  0  0  0  0  0  0  0  0
    4.5957    9.2917    2.9813 H   0  0  0  0  0  0  0  0  0  0  0  0
    4.4559    9.8493    1.4027 H   0  0  0  0  0  0  0  0  0  0  0  0
  1  2  1  0  0  0  0
  1 27  1  0  0  0  0
  1 28  1  0  0  0  0
  1 29  1  0  0  0  0
  2  3  1  0  0  0  0
  2 30  1  0  0  0  0
  2 31  1  0  0  0  0
  3  4  1  0  0  0  0
  4  9  2  0  0  0  0
  4  5  1  0  0  0  0
  5  6  2  0  0  0  0
  5 32  1  0  0  0  0
  6  7  1  0  0  0  0
  6 12  1  0  0  0  0
  7  8  2  0  0  0  0
  7 33  1  0  0  0  0
  8  9  1  0  0  0  0
  8 34  1  0  0  0  0
  9 10  1  0  0  0  0
 10 11  1  0  0  0  0
 11 35  1  0  0  0  0
 11 36  1  0  0  0  0
 11 37  1  0  0  0  0
 12 13  1  0  0  0  0
 12 22  1  0  0  0  0
 12 14  1  0  0  0  0
 14 19  2  0  0  0  0
 14 15  1  0  0  0  0
 15 16  2  0  0  0  0
 15 38  1  0  0  0  0
 16 17  1  0  0  0  0
 16 39  1  0  0  0  0
 17 18  2  0  0  0  0
 17 26  1  0  0  0  0
 18 19  1  0  0  0  0
 18 40  1  0  0  0  0
 19 20  1  0  0  0  0
 20 21  1  0  0  0  0
 21 22  2  0  0  0  0
 21 25  1  0  0  0  0
 22 23  1  0  0  0  0
 23 24  3  0  0  0  0
 25 41  1  0  0  0  0
 25 42  1  0  0  0  0
 26 43  1  0  0  0  0
 26 44  1  0  0  0  0
M  END
$$$$
ZINC00209530
  -OEChem-08230709453D

 38 40  0     0  0  0  0  0  0999 V2000
    1.9624    3.5360   -2.5001 C   0  0  0  0  0  0  0  0  0  0  0  0
    2.0826    4.2747   -1.1921 C   0  0  0  0  0  0  0  0  0  0  0  0
    2.2868    5.6419   -1.1867 C   0  0  0  0  0  0  0  0  0  0  0  0
    2.4022    6.3188    0.0130 C   0  0  0  0  0  0  0  0  0  0  0  0
    2.3092    5.6291    1.2075 C   0  0  0  0  0  0  0  0  0  0  0  0
    2.0999    4.2627    1.2021 C   0  0  0  0  0  0  0  0  0  0  0  0
    1.9840    3.5860    0.0024 C   0  0  0  0  0  0  0  0  0  0  0  0
    1.7562    2.0963   -0.0035 C   0  0  0  0  0  0  0  0  0  0  0  0
   -0.0218    1.7577    0.0117 S   0  0  0  0  0  0  0  0  0  0  0  0
    0.0021   -0.0041    0.0020 C   0  0  0  0  0  0  0  0  0  0  0  0
   -1.0845   -0.8308    0.0134 N   0  0  0  0  0  0  0  0  0  0  0  0
   -2.0187   -0.5701    0.0284 H   0  0  0  0  0  0  0  0  0  0  0  0
   -0.5823   -2.1027   -0.0040 C   0  0  0  0  0  0  0  0  0  0  0  0
    0.7171   -2.0066   -0.0153 N   0  0  0  0  0  0  0  0  0  0  0  0
    1.0681   -0.7702   -0.0118 N   0  0  0  0  0  0  0  0  0  0  0  0
    2.4356    6.3670    2.5154 C   0  0  0  0  0  0  0  0  0  0  0  0
    2.6300    7.8085    0.0189 C   0  0  0  0  0  0  0  0  0  0  0  0
    4.4079    8.1471    0.0037 S   0  0  0  0  0  0  0  0  0  0  0  0
    4.3840    9.9089    0.0134 C   0  0  0  0  0  0  0  0  0  0  0  0
    5.4706   10.7356    0.0129 N   0  0  0  0  0  0  0  0  0  0  0  0
    6.4049   10.4749    0.0072 H   0  0  0  0  0  0  0  0  0  0  0  0
    4.9683   12.0076    0.0188 C   0  0  0  0  0  0  0  0  0  0  0  0
    3.6689   11.9114    0.0312 N   0  0  0  0  0  0  0  0  0  0  0  0
    3.3180   10.6750    0.0281 N   0  0  0  0  0  0  0  0  0  0  0  0
    0.9176    3.5132   -2.8098 H   0  0  0  0  0  0  0  0  0  0  0  0
    2.5557    4.0441   -3.2603 H   0  0  0  0  0  0  0  0  0  0  0  0
    2.3270    2.5162   -2.3762 H   0  0  0  0  0  0  0  0  0  0  0  0
    2.3597    6.1807   -2.1199 H   0  0  0  0  0  0  0  0  0  0  0  0
    2.0272    3.7239    2.1353 H   0  0  0  0  0  0  0  0  0  0  0  0
    2.2177    1.6547    0.8798 H   0  0  0  0  0  0  0  0  0  0  0  0
    2.2007    1.6643   -0.9001 H   0  0  0  0  0  0  0  0  0  0  0  0
   -1.1564   -3.0175   -0.0037 H   0  0  0  0  0  0  0  0  0  0  0  0
    3.4818    6.3893    2.8204 H   0  0  0  0  0  0  0  0  0  0  0  0
    2.0707    7.3869    2.3939 H   0  0  0  0  0  0  0  0  0  0  0  0
    1.8456    5.8584    3.2779 H   0  0  0  0  0  0  0  0  0  0  0  0
    2.1684    8.2501   -0.8644 H   0  0  0  0  0  0  0  0  0  0  0  0
    2.1855    8.2405    0.9155 H   0  0  0  0  0  0  0  0  0  0  0  0
    5.5424   12.9224    0.0179 H   0  0  0  0  0  0  0  0  0  0  0  0
  1  2  1  0  0  0  0
  1 25  1  0  0  0  0
  1 26  1  0  0  0  0
  1 27  1  0  0  0  0
  2  7  2  0  0  0  0
  2  3  1  0  0  0  0
  3  4  2  0  0  0  0
  3 28  1  0  0  0  0
  4  5  1  0  0  0  0
  4 17  1  0  0  0  0
  5  6  2  0  0  0  0
  5 16  1  0  0  0  0
  6  7  1  0  0  0  0
  6 29  1  0  0  0  0
  7  8  1  0  0  0  0
  8  9  1  0  0  0  0
  8 30  1  0  0  0  0
  8 31  1  0  0  0  0
  9 10  1  0  0  0  0
 10 15  2  0  0  0  0
 10 11  1  0  0  0  0
 11 12  1  0  0  0  0
 11 13  1  0  0  0  0
 13 14  2  0  0  0  0
 13 32  1  0  0  0  0
 14 15  1  0  0  0  0
 16 33  1  0  0  0  0
 16 34  1  0  0  0  0
 16 35  1  0  0  0  0
 17 18  1  0  0  0  0
 17 36  1  0  0  0  0
 17 37  1  0  0  0  0
 18 19  1  0  0  0  0
 19 24  2  0  0  0  0
 19 20  1  0  0  0  0
 20 21  1  0  0  0  0
 20 22  1  0  0  0  0
 22 23  2  0  0  0  0
 22 38  1  0  0  0  0
 23 24  1  0  0  0  0
M  END
$$$$
ZINC00223650
  -OEChem-08230709453D

 41 43  0     0  0  0  0  0  0999 V2000
   -7.2767   -2.8366   -1.0558 C   0  0  0  0  0  0  0  0  0  0  0  0
   -5.8791   -2.2145   -1.0364 C   0  0  0  0  0  0  0  0  0  0  0  0
   -5.9341   -0.9395   -0.3935 O   0  0  0  0  0  0  0  0  0  0  0  0
   -4.7675   -0.2483   -0.2922 C   0  0  0  0  0  0  0  0  0  0  0  0
   -4.7499    0.9961    0.3206 C   0  0  0  0  0  0  0  0  0  0  0  0
   -3.5655    1.6986    0.4238 C   0  0  0  0  0  0  0  0  0  0  0  0
   -2.3919    1.1590   -0.0860 C   0  0  0  0  0  0  0  0  0  0  0  0
   -2.4113   -0.0844   -0.7040 C   0  0  0  0  0  0  0  0  0  0  0  0
   -3.5954   -0.7882   -0.8013 C   0  0  0  0  0  0  0  0  0  0  0  0
   -1.1906    1.8709    0.0179 N   0  0  0  0  0  0  0  0  0  0  0  0
   -0.0269    1.2097    0.1756 C   0  0  0  0  0  0  0  0  0  0  0  0
   -0.0287    0.0016    0.3240 O   0  0  0  0  0  0  0  0  0  0  0  0
    1.2415    1.9447    0.1623 C   0  0  0  0  0  0  0  0  0  0  0  0
    2.5084    1.4592    0.3047 C   0  0  0  0  0  0  0  0  0  0  0  0
    3.5971    2.3330    0.2574 C   0  0  0  0  0  0  0  0  0  0  0  0
    5.0421    2.0354    0.3826 C   0  0  0  0  0  0  0  0  0  0  0  0
    5.4329    0.8934    0.5472 O   0  0  0  0  0  0  0  0  0  0  0  0
    5.9136    3.0604    0.3099 N   0  0  0  0  0  0  0  0  0  0  0  0
    6.8932    2.8770    0.3919 H   0  0  0  0  0  0  0  0  0  0  0  0
    5.4899    4.3353    0.1279 C   0  0  0  0  0  0  0  0  0  0  0  0
    4.2239    4.6321    0.0142 N   0  0  0  0  0  0  0  0  0  0  0  0
    3.2827    3.6986    0.0710 C   0  0  0  0  0  0  0  0  0  0  0  0
    1.5109    3.6979   -0.0363 S   0  0  0  0  0  0  0  0  0  0  0  0
    6.5102    5.4421    0.0552 C   0  0  0  0  0  0  0  0  0  0  0  0
    2.7331   -0.0171    0.5077 C   0  0  0  0  0  0  0  0  0  0  0  0
   -7.2348   -3.8091   -1.5462 H   0  0  0  0  0  0  0  0  0  0  0  0
   -7.6335   -2.9604   -0.0333 H   0  0  0  0  0  0  0  0  0  0  0  0
   -7.9576   -2.1835   -1.6017 H   0  0  0  0  0  0  0  0  0  0  0  0
   -5.5223   -2.0907   -2.0589 H   0  0  0  0  0  0  0  0  0  0  0  0
   -5.1982   -2.8676   -0.4906 H   0  0  0  0  0  0  0  0  0  0  0  0
   -5.6628    1.4158    0.7167 H   0  0  0  0  0  0  0  0  0  0  0  0
   -3.5519    2.6672    0.9012 H   0  0  0  0  0  0  0  0  0  0  0  0
   -1.4998   -0.5027   -1.1047 H   0  0  0  0  0  0  0  0  0  0  0  0
   -3.6098   -1.7572   -1.2780 H   0  0  0  0  0  0  0  0  0  0  0  0
   -1.1961    2.8400   -0.0237 H   0  0  0  0  0  0  0  0  0  0  0  0
    6.0024    6.3952   -0.0922 H   0  0  0  0  0  0  0  0  0  0  0  0
    7.0790    5.4734    0.9845 H   0  0  0  0  0  0  0  0  0  0  0  0
    7.1870    5.2580   -0.7791 H   0  0  0  0  0  0  0  0  0  0  0  0
    2.8522   -0.5030   -0.4607 H   0  0  0  0  0  0  0  0  0  0  0  0
    3.6331   -0.1690    1.1035 H   0  0  0  0  0  0  0  0  0  0  0  0
    1.8767   -0.4469    1.0270 H   0  0  0  0  0  0  0  0  0  0  0  0
  1  2  1  0  0  0  0
  1 26  1  0  0  0  0
  1 27  1  0  0  0  0
  1 28  1  0  0  0  0
  2  3  1  0  0  0  0
  2 29  1  0  0  0  0
  2 30  1  0  0  0  0
  3  4  1  0  0  0  0
  4  9  2  0  0  0  0
  4  5  1  0  0  0  0
  5  6  2  0  0  0  0
  5 31  1  0  0  0  0
  6  7  1  0  0  0  0
  6 32  1  0  0  0  0
  7  8  2  0  0  0  0
  7 10  1  0  0  0  0
  8  9  1  0  0  0  0
  8 33  1  0  0  0  0
  9 34  1  0  0  0  0
 10 11  1  0  0  0  0
 10 35  1  0  0  0  0
 11 12  2  0  0  0  0
 11 13  1  0  0  0  0
 13 23  1  0  0  0  0
 13 14  2  0  0  0  0
 14 15  1  0  0  0  0
 14 25  1  0  0  0  0
 15 22  2  0  0  0  0
 15 16  1  0  0  0  0
 16 17  2  0  0  0  0
 16 18  1  0  0  0  0
 18 19  1  0  0  0  0
 18 20  1  0  0  0  0
 20 21  2  0  0  0  0
 20 24  1  0  0  0  0
 21 22  1  0  0  0  0
 22 23  1  0  0  0  0
 24 36  1  0  0  0  0
 24 37  1  0  0  0  0
 24 38  1  0  0  0  0
 25 39  1  0  0  0  0
 25 40  1  0  0  0  0
 25 41  1  0  0  0  0
M  END
$$$$
ZINC00223650
  -OEChem-08230709453D

 41 43  0     0  0  0  0  0  0999 V2000
   -7.2760   -2.8371   -1.0610 C   0  0  0  0  0  0  0  0  0  0  0  0
   -5.8784   -2.2149   -1.0410 C   0  0  0  0  0  0  0  0  0  0  0  0
   -5.9337   -0.9400   -0.3980 O   0  0  0  0  0  0  0  0  0  0  0  0
   -4.7671   -0.2488   -0.2962 C   0  0  0  0  0  0  0  0  0  0  0  0
   -4.7498    0.9956    0.3167 C   0  0  0  0  0  0  0  0  0  0  0  0
   -3.5655    1.6981    0.4204 C   0  0  0  0  0  0  0  0  0  0  0  0
   -2.3917    1.1586   -0.0891 C   0  0  0  0  0  0  0  0  0  0  0  0
   -2.4108   -0.0847   -0.7072 C   0  0  0  0  0  0  0  0  0  0  0  0
   -3.5948   -0.7885   -0.8050 C   0  0  0  0  0  0  0  0  0  0  0  0
   -1.1904    1.8706    0.0153 N   0  0  0  0  0  0  0  0  0  0  0  0
   -0.0268    1.2094    0.1734 C   0  0  0  0  0  0  0  0  0  0  0  0
   -0.0286    0.0013    0.3216 O   0  0  0  0  0  0  0  0  0  0  0  0
    1.2416    1.9445    0.1606 C   0  0  0  0  0  0  0  0  0  0  0  0
    2.5085    1.4590    0.3034 C   0  0  0  0  0  0  0  0  0  0  0  0
    3.5971    2.3329    0.2565 C   0  0  0  0  0  0  0  0  0  0  0  0
    5.0425    2.0345    0.3750 C   0  0  0  0  0  0  0  0  0  0  0  0
    5.4334    0.8924    0.5389 O   0  0  0  0  0  0  0  0  0  0  0  0
    5.9144    3.0587    0.2961 N   0  0  0  0  0  0  0  0  0  0  0  0
    3.9572    5.5857   -0.1255 H   0  0  0  0  0  0  0  0  0  0  0  0
    5.4907    4.3337    0.1148 C   0  0  0  0  0  0  0  0  0  0  0  0
    4.2243    4.6313    0.0074 N   0  0  0  0  0  0  0  0  0  0  0  0
    3.2827    3.6985    0.0702 C   0  0  0  0  0  0  0  0  0  0  0  0
    1.5110    3.6977   -0.0377 S   0  0  0  0  0  0  0  0  0  0  0  0
    6.5114    5.4396    0.0351 C   0  0  0  0  0  0  0  0  0  0  0  0
    2.7332   -0.0173    0.5063 C   0  0  0  0  0  0  0  0  0  0  0  0
   -7.2338   -3.8095   -1.5515 H   0  0  0  0  0  0  0  0  0  0  0  0
   -7.6331   -2.9610   -0.0386 H   0  0  0  0  0  0  0  0  0  0  0  0
   -7.9567   -2.1840   -1.6070 H   0  0  0  0  0  0  0  0  0  0  0  0
   -5.5212   -2.0910   -2.0634 H   0  0  0  0  0  0  0  0  0  0  0  0
   -5.1976   -2.8681   -0.4951 H   0  0  0  0  0  0  0  0  0  0  0  0
   -5.6629    1.4152    0.7126 H   0  0  0  0  0  0  0  0  0  0  0  0
   -3.5521    2.6667    0.8979 H   0  0  0  0  0  0  0  0  0  0  0  0
   -1.4991   -0.5029   -1.1076 H   0  0  0  0  0  0  0  0  0  0  0  0
   -3.6090   -1.7575   -1.2818 H   0  0  0  0  0  0  0  0  0  0  0  0
   -1.1960    2.8397   -0.0262 H   0  0  0  0  0  0  0  0  0  0  0  0
    6.0035    6.3929   -0.1107 H   0  0  0  0  0  0  0  0  0  0  0  0
    7.0853    5.4717    0.9612 H   0  0  0  0  0  0  0  0  0  0  0  0
    7.1834    5.2539   -0.8027 H   0  0  0  0  0  0  0  0  0  0  0  0
    2.8526   -0.5031   -0.4621 H   0  0  0  0  0  0  0  0  0  0  0  0
    3.6330   -0.1692    1.1024 H   0  0  0  0  0  0  0  0  0  0  0  0
    1.8766   -0.4472    1.0252 H   0  0  0  0  0  0  0  0  0  0  0  0
  1  2  1  0  0  0  0
  1 26  1  0  0  0  0
  1 27  1  0  0  0  0
  1 28  1  0  0  0  0
  2  3  1  0  0  0  0
  2 29  1  0  0  0  0
  2 30  1  0  0  0  0
  3  4  1  0  0  0  0
  4  9  2  0  0  0  0
  4  5  1  0  0  0  0
  5  6  2  0  0  0  0
  5 31  1  0  0  0  0
  6  7  1  0  0  0  0
  6 32  1  0  0  0  0
  7  8  2  0  0  0  0
  7 10  1  0  0  0  0
  8  9  1  0  0  0  0
  8 33  1  0  0  0  0
  9 34  1  0  0  0  0
 10 11  1  0  0  0  0
 10 35  1  0  0  0  0
 11 12  2  0  0  0  0
 11 13  1  0  0  0  0
 13 23  1  0  0  0  0
 13 14  2  0  0  0  0
 14 15  1  0  0  0  0
 14 25  1  0  0  0  0
 15 16  1  0  0  0  0
 15 22  2  0  0  0  0
 16 18  1  0  0  0  0
 16 17  2  0  0  0  0
 18 20  2  0  0  0  0
 19 21  1  0  0  0  0
 20 24  1  0  0  0  0
 20 21  1  0  0  0  0
 21 22  1  0  0  0  0
 22 23  1  0  0  0  0
 24 36  1  0  0  0  0
 24 37  1  0  0  0  0
 24 38  1  0  0  0  0
 25 39  1  0  0  0  0
 25 40  1  0  0  0  0
 25 41  1  0  0  0  0
M  END
$$$$
ZINC00223660
  -OEChem-08230709453D

 41 43  0     0  0  0  0  0  0999 V2000
   -1.3097    6.2060    2.1832 C   0  0  0  0  0  0  0  0  0  0  0  0
   -1.7831    5.0536    3.0311 C   0  0  0  0  0  0  0  0  0  0  0  0
   -2.4592    5.2973    4.2288 C   0  0  0  0  0  0  0  0  0  0  0  0
   -2.8106    6.5904    4.8589 C   0  0  0  0  0  0  0  0  0  0  0  0
   -2.5193    7.6454    4.3240 O   0  0  0  0  0  0  0  0  0  0  0  0
   -3.4731    6.5698    6.0319 N   0  0  0  0  0  0  0  0  0  0  0  0
   -2.0343    7.4628    3.4688 H   0  0  0  0  0  0  0  0  0  0  0  0
   -3.8138    5.4015    6.6295 C   0  0  0  0  0  0  0  0  0  0  0  0
   -3.5133    4.2447    6.1046 N   0  0  0  0  0  0  0  0  0  0  0  0
   -2.8627    4.1516    4.9520 C   0  0  0  0  0  0  0  0  0  0  0  0
   -2.2882    2.8093    3.9426 S   0  0  0  0  0  0  0  0  0  0  0  0
   -1.5519    3.7702    2.6310 C   0  0  0  0  0  0  0  0  0  0  0  0
   -0.8685    3.2974    1.4229 C   0  0  0  0  0  0  0  0  0  0  0  0
   -0.4205    4.0989    0.6241 O   0  0  0  0  0  0  0  0  0  0  0  0
   -0.7367    1.9752    1.1970 N   0  0  0  0  0  0  0  0  0  0  0  0
   -0.0540    1.5029   -0.0100 C   0  0  0  0  0  0  0  0  0  0  0  0
   -0.0415   -0.0041   -0.0230 C   0  0  0  0  0  0  0  0  0  0  0  0
    1.0941   -0.6894    0.3637 C   0  0  0  0  0  0  0  0  0  0  0  0
    1.1045   -2.0719    0.3567 C   0  0  0  0  0  0  0  0  0  0  0  0
   -0.0176   -2.7721   -0.0473 C   0  0  0  0  0  0  0  0  0  0  0  0
   -1.1535   -2.0914   -0.4398 C   0  0  0  0  0  0  0  0  0  0  0  0
   -1.1683   -0.7040   -0.4285 C   0  0  0  0  0  0  0  0  0  0  0  0
   -2.2847   -0.0320   -0.8146 O   0  0  0  0  0  0  0  0  0  0  0  0
   -3.4074   -0.8179   -1.2198 C   0  0  0  0  0  0  0  0  0  0  0  0
   -4.5611    5.4394    7.9375 C   0  0  0  0  0  0  0  0  0  0  0  0
   -2.0925    6.4832    1.4772 H   0  0  0  0  0  0  0  0  0  0  0  0
   -1.0795    7.0577    2.8234 H   0  0  0  0  0  0  0  0  0  0  0  0
   -0.4146    5.9106    1.6358 H   0  0  0  0  0  0  0  0  0  0  0  0
   -1.0938    1.3365    1.8337 H   0  0  0  0  0  0  0  0  0  0  0  0
    0.9706    1.8747   -0.0170 H   0  0  0  0  0  0  0  0  0  0  0  0
   -0.5794    1.8695   -0.8918 H   0  0  0  0  0  0  0  0  0  0  0  0
    1.9730   -0.1449    0.6757 H   0  0  0  0  0  0  0  0  0  0  0  0
    1.9918   -2.6059    0.6632 H   0  0  0  0  0  0  0  0  0  0  0  0
   -0.0055   -3.8519   -0.0562 H   0  0  0  0  0  0  0  0  0  0  0  0
   -2.0295   -2.6386   -0.7554 H   0  0  0  0  0  0  0  0  0  0  0  0
   -3.1286   -1.4372   -2.0723 H   0  0  0  0  0  0  0  0  0  0  0  0
   -3.7209   -1.4565   -0.3940 H   0  0  0  0  0  0  0  0  0  0  0  0
   -4.2289   -0.1595   -1.5021 H   0  0  0  0  0  0  0  0  0  0  0  0
   -4.7482    4.4213    8.2789 H   0  0  0  0  0  0  0  0  0  0  0  0
   -3.9651    5.9683    8.6812 H   0  0  0  0  0  0  0  0  0  0  0  0
   -5.5107    5.9563    7.7986 H   0  0  0  0  0  0  0  0  0  0  0  0
  1  2  1  0  0  0  0
  1 26  1  0  0  0  0
  1 27  1  0  0  0  0
  1 28  1  0  0  0  0
  2 12  2  0  0  0  0
  2  3  1  0  0  0  0
  3  4  2  0  0  0  0
  3 10  1  0  0  0  0
  4  6  1  0  0  0  0
  4  5  1  0  0  0  0
  5  7  1  0  0  0  0
  6  8  2  0  0  0  0
  8 25  1  0  0  0  0
  8  9  1  0  0  0  0
  9 10  2  0  0  0  0
 10 11  1  0  0  0  0
 11 12  1  0  0  0  0
 12 13  1  0  0  0  0
 13 14  2  0  0  0  0
 13 15  1  0  0  0  0
 15 16  1  0  0  0  0
 15 29  1  0  0  0  0
 16 17  1  0  0  0  0
 16 30  1  0  0  0  0
 16 31  1  0  0  0  0
 17 22  2  0  0  0  0
 17 18  1  0  0  0  0
 18 19  2  0  0  0  0
 18 32  1  0  0  0  0
 19 20  1  0  0  0  0
 19 33  1  0  0  0  0
 20 21  2  0  0  0  0
 20 34  1  0  0  0  0
 21 22  1  0  0  0  0
 21 35  1  0  0  0  0
 22 23  1  0  0  0  0
 23 24  1  0  0  0  0
 24 36  1  0  0  0  0
 24 37  1  0  0  0  0
 24 38  1  0  0  0  0
 25 39  1  0  0  0  0
 25 40  1  0  0  0  0
 25 41  1  0  0  0  0
M  END
$$$$
ZINC00230813
  -OEChem-08230709453D

 44 46  0     1  0  0  0  0  0999 V2000
    1.9198    4.5006   -4.5503 C   0  0  0  0  0  0  0  0  0  0  0  0
    0.5835    5.1048   -4.2036 C   0  0  0  0  0  0  0  0  0  0  0  0
    0.0753    5.2138   -2.9425 C   0  0  0  0  0  0  0  0  0  0  0  0
   -1.2458    5.8545   -3.0778 C   0  0  0  0  0  0  0  0  0  0  0  0
   -2.2316    6.2377   -2.1715 C   0  0  0  0  0  0  0  0  0  0  0  0
   -3.3868    6.8400   -2.6327 C   0  0  0  0  0  0  0  0  0  0  0  0
   -3.5610    7.0686   -3.9946 C   0  0  0  0  0  0  0  0  0  0  0  0
   -2.5884    6.6995   -4.8971 C   0  0  0  0  0  0  0  0  0  0  0  0
   -1.4195    6.0917   -4.4504 C   0  0  0  0  0  0  0  0  0  0  0  0
   -0.2935    5.6209   -5.0972 N   0  0  0  0  0  0  0  0  0  0  0  0
   -0.0784    5.6725   -6.5455 C   0  0  0  0  0  0  0  0  0  0  0  0
   -0.6162    4.4150   -7.1783 C   0  0  0  0  0  0  0  0  0  0  0  0
   -1.8601    4.1636   -7.6545 C   0  0  0  0  0  0  0  0  0  0  0  0
   -2.1301    2.9237   -8.2027 C   0  0  0  0  0  0  0  0  0  0  0  0
   -1.1461    1.9922   -8.2380 C   0  0  0  0  0  0  0  0  0  0  0  0
    0.2176    2.8670   -7.4881 S   0  0  0  0  0  0  0  0  0  0  0  0
   -4.3556    7.2107   -1.7536 O   0  0  0  0  0  0  0  0  0  0  0  0
    0.7153    4.7736   -1.6958 C   0  0  0  0  0  0  0  0  0  0  0  0
    1.4339    5.5371   -1.0783 O   0  0  0  0  0  0  0  0  0  0  0  0
    0.5066    3.5241   -1.2357 N   0  0  0  0  0  0  0  0  0  0  0  0
    1.1449    3.0852    0.0077 C   0  0  1  0  0  0  0  0  0  0  0  0
    2.1315    3.5412    0.0903 H   0  0  0  0  0  0  0  0  0  0  0  0
    0.2852    3.5101    1.1999 C   0  0  0  0  0  0  0  0  0  0  0  0
    1.2864    1.5618   -0.0018 C   0  0  0  0  0  0  0  0  0  0  0  0
   -0.0110    0.9628    0.0073 O   0  0  0  0  0  0  0  0  0  0  0  0
    1.7994    3.4326   -4.7322 H   0  0  0  0  0  0  0  0  0  0  0  0
    2.3136    4.9797   -5.4467 H   0  0  0  0  0  0  0  0  0  0  0  0
    2.6129    4.6524   -3.7229 H   0  0  0  0  0  0  0  0  0  0  0  0
   -2.0965    6.0599   -1.1148 H   0  0  0  0  0  0  0  0  0  0  0  0
   -4.4668    7.5398   -4.3467 H   0  0  0  0  0  0  0  0  0  0  0  0
   -2.7333    6.8817   -5.9517 H   0  0  0  0  0  0  0  0  0  0  0  0
   -0.5965    6.5376   -6.9591 H   0  0  0  0  0  0  0  0  0  0  0  0
    0.9887    5.7553   -6.7515 H   0  0  0  0  0  0  0  0  0  0  0  0
   -2.6279    4.9218   -7.6090 H   0  0  0  0  0  0  0  0  0  0  0  0
   -3.1118    2.6990   -8.5927 H   0  0  0  0  0  0  0  0  0  0  0  0
   -1.1784    0.9829   -8.6209 H   0  0  0  0  0  0  0  0  0  0  0  0
   -5.0159    6.5250   -1.5838 H   0  0  0  0  0  0  0  0  0  0  0  0
   -0.0663    2.9155   -1.7279 H   0  0  0  0  0  0  0  0  0  0  0  0
   -0.7014    3.0541    1.1173 H   0  0  0  0  0  0  0  0  0  0  0  0
    0.7601    3.1835    2.1250 H   0  0  0  0  0  0  0  0  0  0  0  0
    0.1844    4.5954    1.2067 H   0  0  0  0  0  0  0  0  0  0  0  0
    1.8401    1.2428    0.8812 H   0  0  0  0  0  0  0  0  0  0  0  0
    1.8231    1.2523   -0.8987 H   0  0  0  0  0  0  0  0  0  0  0  0
    0.0021   -0.0041    0.0020 H   0  0  0  0  0  0  0  0  0  0  0  0
  1  2  1  0  0  0  0
  1 26  1  0  0  0  0
  1 27  1  0  0  0  0
  1 28  1  0  0  0  0
  2 10  1  0  0  0  0
  2  3  2  0  0  0  0
  3  4  1  0  0  0  0
  3 18  1  0  0  0  0
  4  9  2  0  0  0  0
  4  5  1  0  0  0  0
  5  6  2  0  0  0  0
  5 29  1  0  0  0  0
  6  7  1  0  0  0  0
  6 17  1  0  0  0  0
  7  8  2  0  0  0  0
  7 30  1  0  0  0  0
  8  9  1  0  0  0  0
  8 31  1  0  0  0  0
  9 10  1  0  0  0  0
 10 11  1  0  0  0  0
 11 12  1  0  0  0  0
 11 32  1  0  0  0  0
 11 33  1  0  0  0  0
 12 16  1  0  0  0  0
 12 13  2  0  0  0  0
 13 14  1  0  0  0  0
 13 34  1  0  0  0  0
 14 15  2  0  0  0  0
 14 35  1  0  0  0  0
 15 16  1  0  0  0  0
 15 36  1  0  0  0  0
 17 37  1  0  0  0  0
 18 19  2  0  0  0  0
 18 20  1  0  0  0  0
 20 21  1  0  0  0  0
 20 38  1  0  0  0  0
 21 22  1  0  0  0  0
 21 23  1  0  0  0  0
 21 24  1  0  0  0  0
 23 39  1  0  0  0  0
 23 40  1  0  0  0  0
 23 41  1  0  0  0  0
 24 25  1  0  0  0  0
 24 42  1  0  0  0  0
 24 43  1  0  0  0  0
 25 44  1  0  0  0  0
M  END
$$$$
ZINC00231444
  -OEChem-08230709453D

 45 48  0     0  0  0  0  0  0999 V2000
    1.1843    1.7793    0.0003 C   0  0  0  0  0  0  0  0  0  0  0  0
   -0.0126    1.0758    0.0080 C   0  0  0  0  0  0  0  0  0  0  0  0
   -1.2186    1.7413    0.0173 C   0  0  0  0  0  0  0  0  0  0  0  0
   -1.2402    3.1323    0.0298 C   0  0  0  0  0  0  0  0  0  0  0  0
   -0.0248    3.8404    0.0215 C   0  0  0  0  0  0  0  0  0  0  0  0
    1.1863    3.1455    0.0067 C   0  0  0  0  0  0  0  0  0  0  0  0
   -0.3836    5.2606    0.0312 C   0  0  0  0  0  0  0  0  0  0  0  0
   -1.7244    5.3265    0.0441 C   0  0  0  0  0  0  0  0  0  0  0  0
   -2.2533    4.0646    0.0434 N   0  0  0  0  0  0  0  0  0  0  0  0
   -3.2010    3.8576    0.0514 H   0  0  0  0  0  0  0  0  0  0  0  0
    0.5711    6.4266    0.0274 C   0  0  0  0  0  0  0  0  0  0  0  0
    0.9780    6.7478   -1.4121 C   0  0  0  0  0  0  0  0  0  0  0  0
    1.9062    7.8813   -1.4158 N   0  0  0  0  0  0  0  0  0  0  0  0
    2.4180    8.3593   -2.6214 C   0  0  0  0  0  0  0  0  0  0  0  0
    3.2486    9.3807   -2.6300 N   0  0  0  0  0  0  0  0  0  0  0  0
    3.7203    9.8060   -3.7941 C   0  0  0  0  0  0  0  0  0  0  0  0
    2.9428    8.7220   -4.9033 S   0  0  0  0  0  0  0  0  0  0  0  0
    2.0698    7.7957   -3.7587 N   0  0  0  0  0  0  0  0  0  0  0  0
    4.5967   10.8430   -4.0554 N   0  0  0  0  0  0  0  0  0  0  0  0
    4.1038   12.1044   -3.4875 C   0  0  0  0  0  0  0  0  0  0  0  0
    5.1624   13.1947   -3.6680 C   0  0  0  0  0  0  0  0  0  0  0  0
    5.4612   13.3673   -5.1598 C   0  0  0  0  0  0  0  0  0  0  0  0
    5.9264   12.0277   -5.7374 C   0  0  0  0  0  0  0  0  0  0  0  0
    4.8457   10.9711   -5.4969 C   0  0  0  0  0  0  0  0  0  0  0  0
    6.4900   14.3442   -5.3309 O   0  0  0  0  0  0  0  0  0  0  0  0
    2.1212    1.2423   -0.0112 H   0  0  0  0  0  0  0  0  0  0  0  0
    0.0021   -0.0041    0.0020 H   0  0  0  0  0  0  0  0  0  0  0  0
   -2.1443    1.1850    0.0191 H   0  0  0  0  0  0  0  0  0  0  0  0
    2.1212    3.6861    0.0007 H   0  0  0  0  0  0  0  0  0  0  0  0
   -2.3002    6.2401    0.0538 H   0  0  0  0  0  0  0  0  0  0  0  0
    0.0849    7.2958    0.4701 H   0  0  0  0  0  0  0  0  0  0  0  0
    1.4581    6.1717    0.6074 H   0  0  0  0  0  0  0  0  0  0  0  0
    1.4643    5.8786   -1.8548 H   0  0  0  0  0  0  0  0  0  0  0  0
    0.0911    7.0027   -1.9921 H   0  0  0  0  0  0  0  0  0  0  0  0
    2.1647    8.2992   -0.5795 H   0  0  0  0  0  0  0  0  0  0  0  0
    3.1876   12.3994   -3.9990 H   0  0  0  0  0  0  0  0  0  0  0  0
    3.8992   11.9691   -2.4254 H   0  0  0  0  0  0  0  0  0  0  0  0
    6.0744   12.9066   -3.1451 H   0  0  0  0  0  0  0  0  0  0  0  0
    4.7899   14.1345   -3.2604 H   0  0  0  0  0  0  0  0  0  0  0  0
    4.5592   13.6936   -5.6775 H   0  0  0  0  0  0  0  0  0  0  0  0
    6.8504   11.7212   -5.2471 H   0  0  0  0  0  0  0  0  0  0  0  0
    6.0998   12.1337   -6.8082 H   0  0  0  0  0  0  0  0  0  0  0  0
    5.1799   10.0128   -5.8943 H   0  0  0  0  0  0  0  0  0  0  0  0
    3.9261   11.2717   -5.9990 H   0  0  0  0  0  0  0  0  0  0  0  0
    6.2628   15.2189   -4.9869 H   0  0  0  0  0  0  0  0  0  0  0  0
  1  6  2  0  0  0  0
  1  2  1  0  0  0  0
  1 26  1  0  0  0  0
  2  3  2  0  0  0  0
  2 27  1  0  0  0  0
  3  4  1  0  0  0  0
  3 28  1  0  0  0  0
  4  9  1  0  0  0  0
  4  5  2  0  0  0  0
  5  6  1  0  0  0  0
  5  7  1  0  0  0  0
  6 29  1  0  0  0  0
  7  8  2  0  0  0  0
  7 11  1  0  0  0  0
  8  9  1  0  0  0  0
  8 30  1  0  0  0  0
  9 10  1  0  0  0  0
 11 12  1  0  0  0  0
 11 31  1  0  0  0  0
 11 32  1  0  0  0  0
 12 13  1  0  0  0  0
 12 33  1  0  0  0  0
 12 34  1  0  0  0  0
 13 14  1  0  0  0  0
 13 35  1  0  0  0  0
 14 18  2  0  0  0  0
 14 15  1  0  0  0  0
 15 16  2  0  0  0  0
 16 17  1  0  0  0  0
 16 19  1  0  0  0  0
 17 18  1  0  0  0  0
 19 24  1  0  0  0  0
 19 20  1  0  0  0  0
 20 21  1  0  0  0  0
 20 36  1  0  0  0  0
 20 37  1  0  0  0  0
 21 22  1  0  0  0  0
 21 38  1  0  0  0  0
 21 39  1  0  0  0  0
 22 23  1  0  0  0  0
 22 25  1  0  0  0  0
 22 40  1  0  0  0  0
 23 24  1  0  0  0  0
 23 41  1  0  0  0  0
 23 42  1  0  0  0  0
 24 43  1  0  0  0  0
 24 44  1  0  0  0  0
 25 45  1  0  0  0  0
M  END
$$$$
ZINC00231980
  -OEChem-08230709453D

 45 48  0     1  0  0  0  0  0999 V2000
   -3.2467    9.6059   -4.7083 C   0  0  0  0  0  0  0  0  0  0  0  0
   -4.0466   10.6914   -4.3776 C   0  0  0  0  0  0  0  0  0  0  0  0
   -5.3390   10.5040   -3.9392 C   0  0  0  0  0  0  0  0  0  0  0  0
   -5.8502    9.2151   -3.8259 C   0  0  0  0  0  0  0  0  0  0  0  0
   -5.0335    8.1183   -4.1561 C   0  0  0  0  0  0  0  0  0  0  0  0
   -3.7284    8.3316   -4.6044 C   0  0  0  0  0  0  0  0  0  0  0  0
   -5.8526    6.9236   -3.9378 C   0  0  0  0  0  0  0  0  0  0  0  0
   -7.0508    7.3436   -3.5018 C   0  0  0  0  0  0  0  0  0  0  0  0
   -7.0678    8.7098   -3.4287 N   0  0  0  0  0  0  0  0  0  0  0  0
   -7.8248    9.2429   -3.1395 H   0  0  0  0  0  0  0  0  0  0  0  0
   -5.4285    5.4940   -4.1553 C   0  0  0  0  0  0  0  0  0  0  0  0
   -4.7020    4.9825   -2.9097 C   0  0  0  0  0  0  0  0  0  0  0  0
   -4.2897    3.5927   -3.1211 N   0  0  0  0  0  0  0  0  0  0  0  0
   -3.6055    2.9081   -2.1174 C   0  0  0  0  0  0  0  0  0  0  0  0
   -3.2330    1.6591   -2.3029 N   0  0  0  0  0  0  0  0  0  0  0  0
   -2.5844    1.0382   -1.3271 C   0  0  0  0  0  0  0  0  0  0  0  0
   -2.5138    2.2747   -0.1121 S   0  0  0  0  0  0  0  0  0  0  0  0
   -3.3282    3.5064   -0.9783 N   0  0  0  0  0  0  0  0  0  0  0  0
   -2.0980   -0.2555   -1.2863 N   0  0  0  0  0  0  0  0  0  0  0  0
   -3.2061   -1.2431   -1.3481 C   0  0  0  0  0  0  0  0  0  0  0  0
   -2.6047   -2.5396   -0.7646 C   0  0  0  0  0  0  0  0  0  0  0  0
   -1.4384   -2.0729    0.1308 C   0  0  0  0  0  0  0  0  0  0  0  0
   -1.4333   -0.5336    0.0129 C   0  0  1  0  0  0  0  0  0  0  0  0
   -1.9960   -0.0877    0.8330 H   0  0  0  0  0  0  0  0  0  0  0  0
    0.0021   -0.0041    0.0020 C   0  0  0  0  0  0  0  0  0  0  0  0
   -0.0173    1.4248    0.0099 O   0  0  0  0  0  0  0  0  0  0  0  0
   -2.2355    9.7701   -5.0500 H   0  0  0  0  0  0  0  0  0  0  0  0
   -3.6515   11.6927   -4.4646 H   0  0  0  0  0  0  0  0  0  0  0  0
   -5.9535   11.3549   -3.6847 H   0  0  0  0  0  0  0  0  0  0  0  0
   -3.1005    7.4921   -4.8637 H   0  0  0  0  0  0  0  0  0  0  0  0
   -7.8786    6.6986   -3.2466 H   0  0  0  0  0  0  0  0  0  0  0  0
   -4.7594    5.4401   -5.0140 H   0  0  0  0  0  0  0  0  0  0  0  0
   -6.3085    4.8782   -4.3412 H   0  0  0  0  0  0  0  0  0  0  0  0
   -5.3711    5.0363   -2.0510 H   0  0  0  0  0  0  0  0  0  0  0  0
   -3.8220    5.5982   -2.7238 H   0  0  0  0  0  0  0  0  0  0  0  0
   -4.4927    3.1487   -3.9593 H   0  0  0  0  0  0  0  0  0  0  0  0
   -3.5184   -1.4000   -2.3806 H   0  0  0  0  0  0  0  0  0  0  0  0
   -4.0493   -0.9094   -0.7433 H   0  0  0  0  0  0  0  0  0  0  0  0
   -2.2344   -3.1792   -1.5658 H   0  0  0  0  0  0  0  0  0  0  0  0
   -3.3498   -3.0687   -0.1704 H   0  0  0  0  0  0  0  0  0  0  0  0
   -0.4957   -2.4835   -0.2310 H   0  0  0  0  0  0  0  0  0  0  0  0
   -1.6093   -2.3729    1.1647 H   0  0  0  0  0  0  0  0  0  0  0  0
    0.5123   -0.3556   -0.8948 H   0  0  0  0  0  0  0  0  0  0  0  0
    0.5293   -0.3651    0.8851 H   0  0  0  0  0  0  0  0  0  0  0  0
    0.8606    1.8301    0.0037 H   0  0  0  0  0  0  0  0  0  0  0  0
  1  6  2  0  0  0  0
  1  2  1  0  0  0  0
  1 27  1  0  0  0  0
  2  3  2  0  0  0  0
  2 28  1  0  0  0  0
  3  4  1  0  0  0  0
  3 29  1  0  0  0  0
  4  9  1  0  0  0  0
  4  5  2  0  0  0  0
  5  6  1  0  0  0  0
  5  7  1  0  0  0  0
  6 30  1  0  0  0  0
  7  8  2  0  0  0  0
  7 11  1  0  0  0  0
  8  9  1  0  0  0  0
  8 31  1  0  0  0  0
  9 10  1  0  0  0  0
 11 12  1  0  0  0  0
 11 32  1  0  0  0  0
 11 33  1  0  0  0  0
 12 13  1  0  0  0  0
 12 34  1  0  0  0  0
 12 35  1  0  0  0  0
 13 14  1  0  0  0  0
 13 36  1  0  0  0  0
 14 18  2  0  0  0  0
 14 15  1  0  0  0  0
 15 16  2  0  0  0  0
 16 17  1  0  0  0  0
 16 19  1  0  0  0  0
 17 18  1  0  0  0  0
 19 23  1  0  0  0  0
 19 20  1  0  0  0  0
 20 21  1  0  0  0  0
 20 37  1  0  0  0  0
 20 38  1  0  0  0  0
 21 22  1  0  0  0  0
 21 39  1  0  0  0  0
 21 40  1  0  0  0  0
 22 23  1  0  0  0  0
 22 41  1  0  0  0  0
 22 42  1  0  0  0  0
 23 24  1  0  0  0  0
 23 25  1  0  0  0  0
 25 26  1  0  0  0  0
 25 43  1  0  0  0  0
 25 44  1  0  0  0  0
 26 45  1  0  0  0  0
M  END
$$$$
ZINC00232118
  -OEChem-08230709453D

 45 47  0     1  0  0  0  0  0999 V2000
   -7.3421    0.0624    0.0393 C   0  0  0  0  0  0  0  0  0  0  0  0
   -6.8061    0.5101   -1.1537 C   0  0  0  0  0  0  0  0  0  0  0  0
   -5.6158    1.2130   -1.1561 C   0  0  0  0  0  0  0  0  0  0  0  0
   -4.9617    1.4686    0.0346 C   0  0  0  0  0  0  0  0  0  0  0  0
   -5.4950    1.0164    1.2271 C   0  0  0  0  0  0  0  0  0  0  0  0
   -6.6875    0.3173    1.2299 C   0  0  0  0  0  0  0  0  0  0  0  0
   -3.6641    2.2350    0.0320 C   0  0  2  0  0  0  0  0  0  0  0  0
   -3.6170    2.8667   -0.8550 H   0  0  0  0  0  0  0  0  0  0  0  0
   -2.4915    1.2523    0.0212 C   0  0  0  0  0  0  0  0  0  0  0  0
   -1.2300    1.9972    0.0188 N   0  0  0  0  0  0  0  0  0  0  0  0
   -0.0158    1.3120    0.0093 C   0  0  0  0  0  0  0  0  0  0  0  0
    1.1203    1.9773    0.0020 N   0  0  0  0  0  0  0  0  0  0  0  0
    2.2565    1.2938   -0.0125 C   0  0  0  0  0  0  0  0  0  0  0  0
    1.6800   -0.3426   -0.0158 S   0  0  0  0  0  0  0  0  0  0  0  0
    0.0021   -0.0041    0.0020 N   0  0  0  0  0  0  0  0  0  0  0  0
    3.5575    1.7617   -0.0221 N   0  0  0  0  0  0  0  0  0  0  0  0
    3.8039    2.6548    1.1173 C   0  0  0  0  0  0  0  0  0  0  0  0
    5.2016    3.2660    0.9951 C   0  0  0  0  0  0  0  0  0  0  0  0
    6.2433    2.1441    0.9675 C   0  0  0  0  0  0  0  0  0  0  0  0
    5.9356    1.2012   -0.1990 C   0  0  2  0  0  0  0  0  0  0  0  0
    6.0117    1.7481   -1.1389 H   0  0  0  0  0  0  0  0  0  0  0  0
    4.5166    0.6499   -0.0423 C   0  0  0  0  0  0  0  0  0  0  0  0
    6.9369    0.0444   -0.1986 C   0  0  0  0  0  0  0  0  0  0  0  0
    6.7231   -0.7711   -1.3525 O   0  0  0  0  0  0  0  0  0  0  0  0
   -3.5907    3.0513    1.2026 O   0  0  0  0  0  0  0  0  0  0  0  0
   -8.2724   -0.4861    0.0412 H   0  0  0  0  0  0  0  0  0  0  0  0
   -7.3175    0.3111   -2.0839 H   0  0  0  0  0  0  0  0  0  0  0  0
   -5.1971    1.5628   -2.0881 H   0  0  0  0  0  0  0  0  0  0  0  0
   -4.9817    1.2123    2.1569 H   0  0  0  0  0  0  0  0  0  0  0  0
   -7.1064   -0.0322    2.1619 H   0  0  0  0  0  0  0  0  0  0  0  0
   -2.5475    0.6296   -0.8716 H   0  0  0  0  0  0  0  0  0  0  0  0
   -2.5386    0.6206    0.9083 H   0  0  0  0  0  0  0  0  0  0  0  0
   -1.2396    2.9672    0.0237 H   0  0  0  0  0  0  0  0  0  0  0  0
    3.0589    3.4504    1.1228 H   0  0  0  0  0  0  0  0  0  0  0  0
    3.7358    2.0870    2.0452 H   0  0  0  0  0  0  0  0  0  0  0  0
    5.2662    3.8454    0.0741 H   0  0  0  0  0  0  0  0  0  0  0  0
    5.3902    3.9167    1.8490 H   0  0  0  0  0  0  0  0  0  0  0  0
    7.2369    2.5728    0.8370 H   0  0  0  0  0  0  0  0  0  0  0  0
    6.2054    1.5887    1.9046 H   0  0  0  0  0  0  0  0  0  0  0  0
    4.4450    0.0915    0.8911 H   0  0  0  0  0  0  0  0  0  0  0  0
    4.2891   -0.0108   -0.8789 H   0  0  0  0  0  0  0  0  0  0  0  0
    7.9515    0.4421   -0.2177 H   0  0  0  0  0  0  0  0  0  0  0  0
    6.7986   -0.5555    0.7009 H   0  0  0  0  0  0  0  0  0  0  0  0
    7.3242   -1.5257   -1.4176 H   0  0  0  0  0  0  0  0  0  0  0  0
   -3.6271    2.5546    2.0315 H   0  0  0  0  0  0  0  0  0  0  0  0
  1  6  2  0  0  0  0
  1  2  1  0  0  0  0
  1 26  1  0  0  0  0
  2  3  2  0  0  0  0
  2 27  1  0  0  0  0
  3  4  1  0  0  0  0
  3 28  1  0  0  0  0
  4  5  2  0  0  0  0
  4  7  1  0  0  0  0
  5  6  1  0  0  0  0
  5 29  1  0  0  0  0
  6 30  1  0  0  0  0
  7  8  1  0  0  0  0
  7  9  1  0  0  0  0
  7 25  1  0  0  0  0
  9 10  1  0  0  0  0
  9 31  1  0  0  0  0
  9 32  1  0  0  0  0
 10 11  1  0  0  0  0
 10 33  1  0  0  0  0
 11 15  2  0  0  0  0
 11 12  1  0  0  0  0
 12 13  2  0  0  0  0
 13 14  1  0  0  0  0
 13 16  1  0  0  0  0
 14 15  1  0  0  0  0
 16 22  1  0  0  0  0
 16 17  1  0  0  0  0
 17 18  1  0  0  0  0
 17 34  1  0  0  0  0
 17 35  1  0  0  0  0
 18 19  1  0  0  0  0
 18 36  1  0  0  0  0
 18 37  1  0  0  0  0
 19 20  1  0  0  0  0
 19 38  1  0  0  0  0
 19 39  1  0  0  0  0
 20 21  1  0  0  0  0
 20 22  1  0  0  0  0
 20 23  1  0  0  0  0
 22 40  1  0  0  0  0
 22 41  1  0  0  0  0
 23 24  1  0  0  0  0
 23 42  1  0  0  0  0
 23 43  1  0  0  0  0
 24 44  1  0  0  0  0
 25 45  1  0  0  0  0
M  END
$$$$
ZINC00272991
  -OEChem-08230709453D

 42 44  0     0  0  0  0  0  0999 V2000
   -0.0167    1.3794    0.0096 C   0  0  0  0  0  0  0  0  0  0  0  0
    1.1683    2.0937    0.0021 C   0  0  0  0  0  0  0  0  0  0  0  0
    2.3774    1.4296   -0.0131 C   0  0  0  0  0  0  0  0  0  0  0  0
    2.4035    0.0339   -0.0208 C   0  0  0  0  0  0  0  0  0  0  0  0
    1.2042   -0.6806   -0.0131 C   0  0  0  0  0  0  0  0  0  0  0  0
    0.0021   -0.0041    0.0020 C   0  0  0  0  0  0  0  0  0  0  0  0
    3.6952   -0.6842   -0.0366 C   0  0  0  0  0  0  0  0  0  0  0  0
    3.7148   -1.8997   -0.0429 O   0  0  0  0  0  0  0  0  0  0  0  0
    4.8513    0.0085   -0.0439 N   0  0  0  0  0  0  0  0  0  0  0  0
    6.0621   -0.6647   -0.0587 C   0  0  0  0  0  0  0  0  0  0  0  0
    7.3429   -0.1344   -0.0737 C   0  0  0  0  0  0  0  0  0  0  0  0
    8.4622   -1.0664   -0.0792 C   0  0  0  0  0  0  0  0  0  0  0  0
    8.1159   -2.3717   -0.0874 C   0  0  0  0  0  0  0  0  0  0  0  0
    6.3439   -2.3734   -0.0705 S   0  0  0  0  0  0  0  0  0  0  0  0
    9.0260   -3.5596   -0.1197 C   0  0  0  0  0  0  0  0  0  0  0  0
   10.1140   -3.3937    0.9497 C   0  0  0  0  0  0  0  0  0  0  0  0
   11.2947   -2.6562    0.3257 C   0  0  0  0  0  0  0  0  0  0  0  0
   10.7992   -1.6626   -0.7230 C   0  0  0  0  0  0  0  0  0  0  0  0
    9.9137   -0.6033   -0.0762 C   0  0  0  0  0  0  0  0  0  0  0  0
    7.5632    1.3150   -0.0791 C   0  0  0  0  0  0  0  0  0  0  0  0
    7.6665    1.9188    0.9726 O   0  0  0  0  0  0  0  0  0  0  0  0
    7.6513    1.9789   -1.2487 N   0  0  0  0  0  0  0  0  0  0  0  0
    7.8566    3.3294   -1.2538 N   0  0  0  0  0  0  0  0  0  0  0  0
   -0.9606    1.9042    0.0169 H   0  0  0  0  0  0  0  0  0  0  0  0
    1.1467    3.1734    0.0082 H   0  0  0  0  0  0  0  0  0  0  0  0
    3.3017    1.9883   -0.0193 H   0  0  0  0  0  0  0  0  0  0  0  0
    1.2175   -1.7605   -0.0194 H   0  0  0  0  0  0  0  0  0  0  0  0
   -0.9265   -0.5555    0.0076 H   0  0  0  0  0  0  0  0  0  0  0  0
    4.8356    0.9783   -0.0389 H   0  0  0  0  0  0  0  0  0  0  0  0
    8.4517   -4.4636    0.0827 H   0  0  0  0  0  0  0  0  0  0  0  0
    9.4906   -3.6354   -1.1028 H   0  0  0  0  0  0  0  0  0  0  0  0
    9.7212   -2.8159    1.7864 H   0  0  0  0  0  0  0  0  0  0  0  0
   10.4372   -4.3741    1.2997 H   0  0  0  0  0  0  0  0  0  0  0  0
   11.8376   -2.1196    1.1038 H   0  0  0  0  0  0  0  0  0  0  0  0
   11.9623   -3.3770   -0.1463 H   0  0  0  0  0  0  0  0  0  0  0  0
   11.6550   -1.1786   -1.1937 H   0  0  0  0  0  0  0  0  0  0  0  0
   10.2274   -2.1956   -1.4827 H   0  0  0  0  0  0  0  0  0  0  0  0
   10.2387   -0.4380    0.9511 H   0  0  0  0  0  0  0  0  0  0  0  0
    9.9960    0.3283   -0.6361 H   0  0  0  0  0  0  0  0  0  0  0  0
    7.5690    1.4977   -2.0869 H   0  0  0  0  0  0  0  0  0  0  0  0
    7.9003    3.6849   -2.1970 H   0  0  0  0  0  0  0  0  0  0  0  0
    7.1444    3.8054   -0.7205 H   0  0  0  0  0  0  0  0  0  0  0  0
  1  6  2  0  0  0  0
  1  2  1  0  0  0  0
  1 24  1  0  0  0  0
  2  3  2  0  0  0  0
  2 25  1  0  0  0  0
  3  4  1  0  0  0  0
  3 26  1  0  0  0  0
  4  5  2  0  0  0  0
  4  7  1  0  0  0  0
  5  6  1  0  0  0  0
  5 27  1  0  0  0  0
  6 28  1  0  0  0  0
  7  8  2  0  0  0  0
  7  9  1  0  0  0  0
  9 10  1  0  0  0  0
  9 29  1  0  0  0  0
 10 14  1  0  0  0  0
 10 11  2  0  0  0  0
 11 12  1  0  0  0  0
 11 20  1  0  0  0  0
 12 19  1  0  0  0  0
 12 13  2  0  0  0  0
 13 14  1  0  0  0  0
 13 15  1  0  0  0  0
 15 16  1  0  0  0  0
 15 30  1  0  0  0  0
 15 31  1  0  0  0  0
 16 17  1  0  0  0  0
 16 32  1  0  0  0  0
 16 33  1  0  0  0  0
 17 18  1  0  0  0  0
 17 34  1  0  0  0  0
 17 35  1  0  0  0  0
 18 19  1  0  0  0  0
 18 36  1  0  0  0  0
 18 37  1  0  0  0  0
 19 38  1  0  0  0  0
 19 39  1  0  0  0  0
 20 21  2  0  0  0  0
 20 22  1  0  0  0  0
 22 23  1  0  0  0  0
 22 40  1  0  0  0  0
 23 41  1  0  0  0  0
 23 42  1  0  0  0  0
M  END
$$$$
ZINC00291631
  -OEChem-08230709453D

 40 41  0     0  0  0  0  0  0999 V2000
   -9.4052    1.4872    0.2294 C   0  0  0  0  0  0  0  0  0  0  0  0
   -9.4847    0.0778    0.4518 O   0  0  0  0  0  0  0  0  0  0  0  0
   -8.3163   -0.6143    0.4453 C   0  0  0  0  0  0  0  0  0  0  0  0
   -7.1177    0.0523    0.2293 C   0  0  0  0  0  0  0  0  0  0  0  0
   -5.9290   -0.6444    0.2279 C   0  0  0  0  0  0  0  0  0  0  0  0
   -5.9290   -2.0266    0.4326 C   0  0  0  0  0  0  0  0  0  0  0  0
   -7.1354   -2.6976    0.6501 C   0  0  0  0  0  0  0  0  0  0  0  0
   -8.3231   -1.9923    0.6559 C   0  0  0  0  0  0  0  0  0  0  0  0
   -9.4989   -2.6423    0.8668 O   0  0  0  0  0  0  0  0  0  0  0  0
   -9.4314   -4.0544    1.0751 C   0  0  0  0  0  0  0  0  0  0  0  0
   -4.6573   -2.7752    0.4253 C   0  0  0  0  0  0  0  0  0  0  0  0
   -4.6584   -3.9772    0.6085 O   0  0  0  0  0  0  0  0  0  0  0  0
   -3.4947   -2.1265    0.2154 N   0  0  0  0  0  0  0  0  0  0  0  0
   -2.3082   -2.8453    0.0961 C   0  0  0  0  0  0  0  0  0  0  0  0
   -2.0425   -3.9011    0.9582 C   0  0  0  0  0  0  0  0  0  0  0  0
   -0.8632   -4.6086    0.8425 C   0  0  0  0  0  0  0  0  0  0  0  0
    0.0611   -4.2765   -0.1363 C   0  0  0  0  0  0  0  0  0  0  0  0
   -0.1889   -3.2350   -1.0049 C   0  0  0  0  0  0  0  0  0  0  0  0
   -1.3782   -2.5100   -0.8991 C   0  0  0  0  0  0  0  0  0  0  0  0
   -1.6519   -1.3944   -1.8246 C   0  0  0  0  0  0  0  0  0  0  0  0
   -2.7016   -0.7855   -1.7492 O   0  0  0  0  0  0  0  0  0  0  0  0
   -0.7383   -1.0502   -2.7538 N   0  0  0  0  0  0  0  0  0  0  0  0
   -0.9917   -0.0171   -3.6108 N   0  0  0  0  0  0  0  0  0  0  0  0
    1.5397   -5.1764   -0.2693 Cl  0  0  0  0  0  0  0  0  0  0  0  0
  -10.4065    1.9169    0.2599 H   0  0  0  0  0  0  0  0  0  0  0  0
   -8.7903    1.9433    1.0053 H   0  0  0  0  0  0  0  0  0  0  0  0
   -8.9582    1.6763   -0.7465 H   0  0  0  0  0  0  0  0  0  0  0  0
   -7.1167    1.1199    0.0665 H   0  0  0  0  0  0  0  0  0  0  0  0
   -4.9976   -0.1228    0.0641 H   0  0  0  0  0  0  0  0  0  0  0  0
   -7.1391   -3.7652    0.8135 H   0  0  0  0  0  0  0  0  0  0  0  0
   -8.9866   -4.5297    0.2008 H   0  0  0  0  0  0  0  0  0  0  0  0
   -8.8197   -4.2633    1.9528 H   0  0  0  0  0  0  0  0  0  0  0  0
  -10.4362   -4.4472    1.2305 H   0  0  0  0  0  0  0  0  0  0  0  0
   -3.4845   -1.1590    0.1475 H   0  0  0  0  0  0  0  0  0  0  0  0
   -2.7576   -4.1660    1.7229 H   0  0  0  0  0  0  0  0  0  0  0  0
   -0.6592   -5.4260    1.5183 H   0  0  0  0  0  0  0  0  0  0  0  0
    0.5340   -2.9800   -1.7658 H   0  0  0  0  0  0  0  0  0  0  0  0
    0.0991   -1.5359   -2.8139 H   0  0  0  0  0  0  0  0  0  0  0  0
   -0.2207    0.1229   -4.2464 H   0  0  0  0  0  0  0  0  0  0  0  0
   -1.8528   -0.1682   -4.1147 H   0  0  0  0  0  0  0  0  0  0  0  0
  1  2  1  0  0  0  0
  1 25  1  0  0  0  0
  1 26  1  0  0  0  0
  1 27  1  0  0  0  0
  2  3  1  0  0  0  0
  3  8  2  0  0  0  0
  3  4  1  0  0  0  0
  4  5  2  0  0  0  0
  4 28  1  0  0  0  0
  5  6  1  0  0  0  0
  5 29  1  0  0  0  0
  6  7  2  0  0  0  0
  6 11  1  0  0  0  0
  7  8  1  0  0  0  0
  7 30  1  0  0  0  0
  8  9  1  0  0  0  0
  9 10  1  0  0  0  0
 10 31  1  0  0  0  0
 10 32  1  0  0  0  0
 10 33  1  0  0  0  0
 11 12  2  0  0  0  0
 11 13  1  0  0  0  0
 13 14  1  0  0  0  0
 13 34  1  0  0  0  0
 14 19  2  0  0  0  0
 14 15  1  0  0  0  0
 15 16  2  0  0  0  0
 15 35  1  0  0  0  0
 16 17  1  0  0  0  0
 16 36  1  0  0  0  0
 17 18  2  0  0  0  0
 17 24  1  0  0  0  0
 18 19  1  0  0  0  0
 18 37  1  0  0  0  0
 19 20  1  0  0  0  0
 20 21  2  0  0  0  0
 20 22  1  0  0  0  0
 22 23  1  0  0  0  0
 22 38  1  0  0  0  0
 23 39  1  0  0  0  0
 23 40  1  0  0  0  0
M  END
$$$$
ZINC00296381
  -OEChem-08230709453D

 43 44  0     0  0  0  0  0  0999 V2000
    0.4232    4.0832    1.2685 C   0  0  0  0  0  0  0  0  0  0  0  0
    1.1421    3.5931    0.0100 C   0  0  0  0  0  0  0  0  0  0  0  0
    2.5748    4.1300   -0.0007 C   0  0  0  0  0  0  0  0  0  0  0  0
    0.3998    4.0959   -1.2298 C   0  0  0  0  0  0  0  0  0  0  0  0
    1.1702    2.0864    0.0021 C   0  0  0  0  0  0  0  0  0  0  0  0
   -0.0166    1.3754    0.0096 C   0  0  0  0  0  0  0  0  0  0  0  0
    0.0021   -0.0041    0.0020 C   0  0  0  0  0  0  0  0  0  0  0  0
    1.2219   -0.6823   -0.0133 C   0  0  0  0  0  0  0  0  0  0  0  0
    2.4156    0.0411   -0.0209 C   0  0  0  0  0  0  0  0  0  0  0  0
    2.3828    1.4202   -0.0132 C   0  0  0  0  0  0  0  0  0  0  0  0
    1.2495   -2.1605   -0.0210 C   0  0  0  0  0  0  0  0  0  0  0  0
    0.2084   -2.7878   -0.0140 O   0  0  0  0  0  0  0  0  0  0  0  0
    2.4290   -2.8124   -0.0358 N   0  0  0  0  0  0  0  0  0  0  0  0
    2.4551   -4.2131   -0.0432 N   0  0  0  0  0  0  0  0  0  0  0  0
    3.6346   -4.8651   -0.0580 C   0  0  0  0  0  0  0  0  0  0  0  0
    4.6734   -4.2391   -0.0650 O   0  0  0  0  0  0  0  0  0  0  0  0
    3.6627   -6.3718   -0.0658 C   0  0  0  0  0  0  0  0  0  0  0  0
    5.0926   -6.8475   -0.0822 C   0  0  0  0  0  0  0  0  0  0  0  0
    5.5484   -7.7043    0.8624 C   0  0  0  0  0  0  0  0  0  0  0  0
    7.2471   -7.8985    0.3435 S   0  0  0  0  0  0  0  0  0  0  0  0
    7.1828   -6.8500   -1.0391 C   0  0  0  0  0  0  0  0  0  0  0  0
    5.9279   -6.4428   -1.0206 N   0  0  0  0  0  0  0  0  0  0  0  0
    8.1896   -6.5282   -1.9358 N   0  0  0  0  0  0  0  0  0  0  0  0
    0.9521    3.7250    2.1518 H   0  0  0  0  0  0  0  0  0  0  0  0
    0.4029    5.1730    1.2743 H   0  0  0  0  0  0  0  0  0  0  0  0
   -0.5974    3.7007    1.2762 H   0  0  0  0  0  0  0  0  0  0  0  0
    3.0870    3.7809   -0.8973 H   0  0  0  0  0  0  0  0  0  0  0  0
    2.5545    5.2198    0.0050 H   0  0  0  0  0  0  0  0  0  0  0  0
    3.1036    3.7718    0.8826 H   0  0  0  0  0  0  0  0  0  0  0  0
   -0.6208    3.7134   -1.2222 H   0  0  0  0  0  0  0  0  0  0  0  0
    0.3795    5.1857   -1.2241 H   0  0  0  0  0  0  0  0  0  0  0  0
    0.9120    3.7467   -2.1264 H   0  0  0  0  0  0  0  0  0  0  0  0
   -0.9598    1.9014    0.0169 H   0  0  0  0  0  0  0  0  0  0  0  0
   -0.9251   -0.5579    0.0083 H   0  0  0  0  0  0  0  0  0  0  0  0
    3.3627   -0.4777   -0.0324 H   0  0  0  0  0  0  0  0  0  0  0  0
    3.3057    1.9812   -0.0190 H   0  0  0  0  0  0  0  0  0  0  0  0
    3.2598   -2.3118   -0.0414 H   0  0  0  0  0  0  0  0  0  0  0  0
    1.6243   -4.7138   -0.0376 H   0  0  0  0  0  0  0  0  0  0  0  0
    3.1645   -6.7491    0.8272 H   0  0  0  0  0  0  0  0  0  0  0  0
    3.1471   -6.7402   -0.9527 H   0  0  0  0  0  0  0  0  0  0  0  0
    5.0286   -8.1475    1.6990 H   0  0  0  0  0  0  0  0  0  0  0  0
    9.0749   -6.9099   -1.8284 H   0  0  0  0  0  0  0  0  0  0  0  0
    8.0090   -5.9214   -2.6706 H   0  0  0  0  0  0  0  0  0  0  0  0
  1  2  1  0  0  0  0
  1 24  1  0  0  0  0
  1 25  1  0  0  0  0
  1 26  1  0  0  0  0
  2  3  1  0  0  0  0
  2  4  1  0  0  0  0
  2  5  1  0  0  0  0
  3 27  1  0  0  0  0
  3 28  1  0  0  0  0
  3 29  1  0  0  0  0
  4 30  1  0  0  0  0
  4 31  1  0  0  0  0
  4 32  1  0  0  0  0
  5 10  2  0  0  0  0
  5  6  1  0  0  0  0
  6  7  2  0  0  0  0
  6 33  1  0  0  0  0
  7  8  1  0  0  0  0
  7 34  1  0  0  0  0
  8  9  2  0  0  0  0
  8 11  1  0  0  0  0
  9 10  1  0  0  0  0
  9 35  1  0  0  0  0
 10 36  1  0  0  0  0
 11 12  2  0  0  0  0
 11 13  1  0  0  0  0
 13 14  1  0  0  0  0
 13 37  1  0  0  0  0
 14 15  1  0  0  0  0
 14 38  1  0  0  0  0
 15 16  2  0  0  0  0
 15 17  1  0  0  0  0
 17 18  1  0  0  0  0
 17 39  1  0  0  0  0
 17 40  1  0  0  0  0
 18 22  1  0  0  0  0
 18 19  2  0  0  0  0
 19 20  1  0  0  0  0
 19 41  1  0  0  0  0
 20 21  1  0  0  0  0
 21 22  2  0  0  0  0
 21 23  1  0  0  0  0
 23 42  1  0  0  0  0
 23 43  1  0  0  0  0
M  END
$$$$
ZINC00341101
  -OEChem-08230709453D

 42 45  0     0  0  0  0  0  0999 V2000
    0.0647   -0.9761    0.4608 C   0  0  0  0  0  0  0  0  0  0  0  0
    0.0989    0.5362    0.2309 C   0  0  0  0  0  0  0  0  0  0  0  0
   -0.6237    1.2412    1.3821 C   0  0  0  0  0  0  0  0  0  0  0  0
   -2.1127    0.9348    1.2709 C   0  0  0  0  0  0  0  0  0  0  0  0
   -2.6092    0.4737    0.0976 C   0  0  0  0  0  0  0  0  0  0  0  0
   -4.3433    0.2455    0.3851 S   0  0  0  0  0  0  0  0  0  0  0  0
   -4.4009    0.7675    2.0709 C   0  0  0  0  0  0  0  0  0  0  0  0
   -3.0575    1.1052    2.3582 C   0  0  0  0  0  0  0  0  0  0  0  0
   -2.7707    1.5759    3.6813 C   0  0  0  0  0  0  0  0  0  0  0  0
   -1.6449    1.8923    4.0254 O   0  0  0  0  0  0  0  0  0  0  0  0
   -3.8267    1.6481    4.5253 N   0  0  0  0  0  0  0  0  0  0  0  0
   -5.0912    1.3007    4.1617 C   0  0  0  0  0  0  0  0  0  0  0  0
   -5.3925    0.8620    2.9479 N   0  0  0  0  0  0  0  0  0  0  0  0
   -6.0973    1.4090    5.0915 N   0  0  0  0  0  0  0  0  0  0  0  0
   -7.4239    1.1735    4.7170 C   0  0  0  0  0  0  0  0  0  0  0  0
   -7.8608    1.5234    3.4458 C   0  0  0  0  0  0  0  0  0  0  0  0
   -9.1702    1.2846    3.0773 C   0  0  0  0  0  0  0  0  0  0  0  0
  -10.0488    0.7078    3.9761 C   0  0  0  0  0  0  0  0  0  0  0  0
   -9.6184    0.3635    5.2444 C   0  0  0  0  0  0  0  0  0  0  0  0
   -8.3089    0.5943    5.6172 C   0  0  0  0  0  0  0  0  0  0  0  0
   -3.6131    2.0895    5.8002 N   0  0  0  0  0  0  0  0  0  0  0  0
   -1.8305    0.2219   -1.1554 C   0  0  0  0  0  0  0  0  0  0  0  0
   -0.5431    0.8418   -1.0100 O   0  0  0  0  0  0  0  0  0  0  0  0
    1.5532    1.0087    0.1796 C   0  0  0  0  0  0  0  0  0  0  0  0
    0.5577   -1.2114    1.4040 H   0  0  0  0  0  0  0  0  0  0  0  0
   -0.9707   -1.3146    0.4977 H   0  0  0  0  0  0  0  0  0  0  0  0
    0.5827   -1.4795   -0.3554 H   0  0  0  0  0  0  0  0  0  0  0  0
   -0.2451    0.8722    2.3353 H   0  0  0  0  0  0  0  0  0  0  0  0
   -0.4632    2.3172    1.3134 H   0  0  0  0  0  0  0  0  0  0  0  0
   -5.8873    1.6490    6.0076 H   0  0  0  0  0  0  0  0  0  0  0  0
   -7.1762    1.9777    2.7448 H   0  0  0  0  0  0  0  0  0  0  0  0
   -9.5096    1.5527    2.0877 H   0  0  0  0  0  0  0  0  0  0  0  0
  -11.0734    0.5262    3.6869 H   0  0  0  0  0  0  0  0  0  0  0  0
  -10.3071   -0.0868    5.9439 H   0  0  0  0  0  0  0  0  0  0  0  0
   -7.9734    0.3252    6.6079 H   0  0  0  0  0  0  0  0  0  0  0  0
   -2.6405    2.3144    5.9468 H   0  0  0  0  0  0  0  0  0  0  0  0
   -4.2030    2.8800    6.0128 H   0  0  0  0  0  0  0  0  0  0  0  0
   -2.3538    0.6551   -2.0077 H   0  0  0  0  0  0  0  0  0  0  0  0
   -1.7081   -0.8510   -1.3038 H   0  0  0  0  0  0  0  0  0  0  0  0
    2.0706    0.5043   -0.6365 H   0  0  0  0  0  0  0  0  0  0  0  0
    1.5796    2.0860    0.0158 H   0  0  0  0  0  0  0  0  0  0  0  0
    2.0455    0.7724    1.1229 H   0  0  0  0  0  0  0  0  0  0  0  0
  1  2  1  0  0  0  0
  1 25  1  0  0  0  0
  1 26  1  0  0  0  0
  1 27  1  0  0  0  0
  2 23  1  0  0  0  0
  2  3  1  0  0  0  0
  2 24  1  0  0  0  0
  3  4  1  0  0  0  0
  3 28  1  0  0  0  0
  3 29  1  0  0  0  0
  4  8  1  0  0  0  0
  4  5  2  0  0  0  0
  5  6  1  0  0  0  0
  5 22  1  0  0  0  0
  6  7  1  0  0  0  0
  7 13  1  0  0  0  0
  7  8  2  0  0  0  0
  8  9  1  0  0  0  0
  9 10  2  0  0  0  0
  9 11  1  0  0  0  0
 11 12  1  0  0  0  0
 11 21  1  0  0  0  0
 12 13  2  0  0  0  0
 12 14  1  0  0  0  0
 14 15  1  0  0  0  0
 14 30  1  0  0  0  0
 15 20  2  0  0  0  0
 15 16  1  0  0  0  0
 16 17  2  0  0  0  0
 16 31  1  0  0  0  0
 17 18  1  0  0  0  0
 17 32  1  0  0  0  0
 18 19  2  0  0  0  0
 18 33  1  0  0  0  0
 19 20  1  0  0  0  0
 19 34  1  0  0  0  0
 20 35  1  0  0  0  0
 21 36  1  0  0  0  0
 21 37  1  0  0  0  0
 22 23  1  0  0  0  0
 22 38  1  0  0  0  0
 22 39  1  0  0  0  0
 24 40  1  0  0  0  0
 24 41  1  0  0  0  0
 24 42  1  0  0  0  0
M  END
$$$$
ZINC00354329
  -OEChem-08230709453D

 48 49  0     0  0  0  0  0  0999 V2000
    2.6738   -0.0025    1.1311 C   0  0  0  0  0  0  0  0  0  0  0  0
    2.6323    0.7519   -0.1994 C   0  0  0  0  0  0  0  0  0  0  0  0
    2.7432   -0.2451   -1.3546 C   0  0  0  0  0  0  0  0  0  0  0  0
    1.3319    1.5055   -0.3092 C   0  0  0  0  0  0  0  0  0  0  0  0
    0.1326    0.8213   -0.2759 C   0  0  0  0  0  0  0  0  0  0  0  0
   -1.0654    1.5153   -0.3820 C   0  0  0  0  0  0  0  0  0  0  0  0
   -1.0568    2.8980   -0.5104 C   0  0  0  0  0  0  0  0  0  0  0  0
    0.1433    3.5806   -0.5435 C   0  0  0  0  0  0  0  0  0  0  0  0
    1.3397    2.8859   -0.4432 C   0  0  0  0  0  0  0  0  0  0  0  0
    2.5211    3.5589   -0.4759 O   0  0  0  0  0  0  0  0  0  0  0  0
    0.1531    5.0806   -0.6881 C   0  0  0  0  0  0  0  0  0  0  0  0
   -0.4422    5.4661   -2.0438 C   0  0  0  0  0  0  0  0  0  0  0  0
   -0.6809    5.7063    0.4316 C   0  0  0  0  0  0  0  0  0  0  0  0
   -2.2808    0.8223   -0.3542 N   0  0  0  0  0  0  0  0  0  0  0  0
   -3.5290    1.3770    0.5822 S   0  0  0  0  0  0  0  0  0  0  0  0
   -3.7247    2.7402    0.2321 O   0  0  0  0  0  0  0  0  0  0  0  0
   -4.5664    0.4103    0.4902 O   0  0  0  0  0  0  0  0  0  0  0  0
   -2.9729    1.3614    2.2541 C   0  0  0  0  0  0  0  0  0  0  0  0
   -2.8473    2.5466    2.9521 C   0  0  0  0  0  0  0  0  0  0  0  0
   -2.4156    2.5348    4.2656 C   0  0  0  0  0  0  0  0  0  0  0  0
   -2.0980    1.3380    4.8817 C   0  0  0  0  0  0  0  0  0  0  0  0
   -2.2163    0.1499    4.1880 C   0  0  0  0  0  0  0  0  0  0  0  0
   -2.6549    0.1577    2.8698 C   0  0  0  0  0  0  0  0  0  0  0  0
   -2.7753   -1.0422    2.1650 N   0  0  0  0  0  0  0  0  0  0  0  0
    1.8418   -0.7052    1.1764 H   0  0  0  0  0  0  0  0  0  0  0  0
    3.6144   -0.5475    1.2105 H   0  0  0  0  0  0  0  0  0  0  0  0
    2.5948    0.7078    1.9541 H   0  0  0  0  0  0  0  0  0  0  0  0
    3.4643    1.4546   -0.2447 H   0  0  0  0  0  0  0  0  0  0  0  0
    2.7136    0.2924   -2.3025 H   0  0  0  0  0  0  0  0  0  0  0  0
    3.6838   -0.7901   -1.2752 H   0  0  0  0  0  0  0  0  0  0  0  0
    1.9111   -0.9477   -1.3093 H   0  0  0  0  0  0  0  0  0  0  0  0
    0.1267   -0.2537   -0.1719 H   0  0  0  0  0  0  0  0  0  0  0  0
   -1.9883    3.4390   -0.5884 H   0  0  0  0  0  0  0  0  0  0  0  0
    2.8871    3.6680   -1.3643 H   0  0  0  0  0  0  0  0  0  0  0  0
    1.1784    5.4451   -0.6246 H   0  0  0  0  0  0  0  0  0  0  0  0
   -1.4674    5.1016   -2.1073 H   0  0  0  0  0  0  0  0  0  0  0  0
   -0.4351    6.5511   -2.1484 H   0  0  0  0  0  0  0  0  0  0  0  0
    0.1520    5.0203   -2.8415 H   0  0  0  0  0  0  0  0  0  0  0  0
   -1.6861    5.2850    0.4149 H   0  0  0  0  0  0  0  0  0  0  0  0
   -0.2144    5.4949    1.3938 H   0  0  0  0  0  0  0  0  0  0  0  0
   -0.7366    6.7848    0.2839 H   0  0  0  0  0  0  0  0  0  0  0  0
   -2.3922    0.0171   -0.8833 H   0  0  0  0  0  0  0  0  0  0  0  0
   -3.0902    3.4834    2.4725 H   0  0  0  0  0  0  0  0  0  0  0  0
   -2.3218    3.4627    4.8102 H   0  0  0  0  0  0  0  0  0  0  0  0
   -1.7569    1.3326    5.9063 H   0  0  0  0  0  0  0  0  0  0  0  0
   -1.9679   -0.7843    4.6696 H   0  0  0  0  0  0  0  0  0  0  0  0
   -2.9918   -1.0298    1.2196 H   0  0  0  0  0  0  0  0  0  0  0  0
   -2.6423   -1.8880    2.6211 H   0  0  0  0  0  0  0  0  0  0  0  0
  1  2  1  0  0  0  0
  1 25  1  0  0  0  0
  1 26  1  0  0  0  0
  1 27  1  0  0  0  0
  2  3  1  0  0  0  0
  2  4  1  0  0  0  0
  2 28  1  0  0  0  0
  3 29  1  0  0  0  0
  3 30  1  0  0  0  0
  3 31  1  0  0  0  0
  4  9  2  0  0  0  0
  4  5  1  0  0  0  0
  5  6  2  0  0  0  0
  5 32  1  0  0  0  0
  6  7  1  0  0  0  0
  6 14  1  0  0  0  0
  7  8  2  0  0  0  0
  7 33  1  0  0  0  0
  8  9  1  0  0  0  0
  8 11  1  0  0  0  0
  9 10  1  0  0  0  0
 10 34  1  0  0  0  0
 11 12  1  0  0  0  0
 11 13  1  0  0  0  0
 11 35  1  0  0  0  0
 12 36  1  0  0  0  0
 12 37  1  0  0  0  0
 12 38  1  0  0  0  0
 13 39  1  0  0  0  0
 13 40  1  0  0  0  0
 13 41  1  0  0  0  0
 14 15  1  0  0  0  0
 14 42  1  0  0  0  0
 15 16  2  0  0  0  0
 15 17  2  0  0  0  0
 15 18  1  0  0  0  0
 18 23  2  0  0  0  0
 18 19  1  0  0  0  0
 19 20  2  0  0  0  0
 19 43  1  0  0  0  0
 20 21  1  0  0  0  0
 20 44  1  0  0  0  0
 21 22  2  0  0  0  0
 21 45  1  0  0  0  0
 22 23  1  0  0  0  0
 22 46  1  0  0  0  0
 23 24  1  0  0  0  0
 24 47  1  0  0  0  0
 24 48  1  0  0  0  0
M  END
$$$$
ZINC00368908
  -OEChem-08230709453D

 39 40  0     0  0  0  0  0  0999 V2000
    6.1201   -6.1448   -0.0917 C   0  0  0  0  0  0  0  0  0  0  0  0
    4.6924   -5.6626   -0.0746 C   0  0  0  0  0  0  0  0  0  0  0  0
    3.6546   -6.5780   -0.0696 C   0  0  0  0  0  0  0  0  0  0  0  0
    2.3411   -6.1438   -0.0548 C   0  0  0  0  0  0  0  0  0  0  0  0
    2.0577   -4.7936   -0.0445 C   0  0  0  0  0  0  0  0  0  0  0  0
    3.0997   -3.8649   -0.0490 C   0  0  0  0  0  0  0  0  0  0  0  0
    4.4230   -4.3099   -0.0698 C   0  0  0  0  0  0  0  0  0  0  0  0
    2.8036   -2.4171   -0.0380 C   0  0  0  0  0  0  0  0  0  0  0  0
    3.7131   -1.6107   -0.0420 O   0  0  0  0  0  0  0  0  0  0  0  0
    1.5251   -1.9908   -0.0236 N   0  0  0  0  0  0  0  0  0  0  0  0
    1.2486   -0.6387   -0.0133 C   0  0  0  0  0  0  0  0  0  0  0  0
    0.0021   -0.0041    0.0020 C   0  0  0  0  0  0  0  0  0  0  0  0
   -0.0167    1.3813    0.0096 C   0  0  0  0  0  0  0  0  0  0  0  0
    1.1876    2.0337    0.0016 C   0  0  0  0  0  0  0  0  0  0  0  0
    2.3604    0.6911   -0.0168 S   0  0  0  0  0  0  0  0  0  0  0  0
    1.4468    3.4727    0.0060 C   0  0  0  0  0  0  0  0  0  0  0  0
    0.5177    4.2581    0.0182 O   0  0  0  0  0  0  0  0  0  0  0  0
    2.7163    3.9296   -0.0035 O   0  0  0  0  0  0  0  0  0  0  0  0
    2.8956    5.3473    0.0015 C   0  0  0  0  0  0  0  0  0  0  0  0
   -1.3166    2.1436    0.0200 C   0  0  0  0  0  0  0  0  0  0  0  0
   -1.2450   -0.7803    0.0102 C   0  0  0  0  0  0  0  0  0  0  0  0
   -1.7719   -1.0961   -1.0400 O   0  0  0  0  0  0  0  0  0  0  0  0
   -1.8055   -1.1427    1.1811 N   0  0  0  0  0  0  0  0  0  0  0  0
    6.4541   -6.2550   -1.1234 H   0  0  0  0  0  0  0  0  0  0  0  0
    6.7543   -5.4209    0.4201 H   0  0  0  0  0  0  0  0  0  0  0  0
    6.1846   -7.1072    0.4159 H   0  0  0  0  0  0  0  0  0  0  0  0
    3.8710   -7.6360   -0.0776 H   0  0  0  0  0  0  0  0  0  0  0  0
    1.5358   -6.8635   -0.0517 H   0  0  0  0  0  0  0  0  0  0  0  0
    1.0318   -4.4560   -0.0334 H   0  0  0  0  0  0  0  0  0  0  0  0
    5.2339   -3.5965   -0.0782 H   0  0  0  0  0  0  0  0  0  0  0  0
    0.7993   -2.6343   -0.0204 H   0  0  0  0  0  0  0  0  0  0  0  0
    3.9607    5.5788   -0.0072 H   0  0  0  0  0  0  0  0  0  0  0  0
    2.4233    5.7764   -0.8822 H   0  0  0  0  0  0  0  0  0  0  0  0
    2.4397    5.7680    0.8977 H   0  0  0  0  0  0  0  0  0  0  0  0
   -1.6251    2.3218    1.0501 H   0  0  0  0  0  0  0  0  0  0  0  0
   -1.1823    3.0979   -0.4893 H   0  0  0  0  0  0  0  0  0  0  0  0
   -2.0827    1.5625   -0.4934 H   0  0  0  0  0  0  0  0  0  0  0  0
   -1.3854   -0.8909    2.0184 H   0  0  0  0  0  0  0  0  0  0  0  0
   -2.6290   -1.6553    1.1865 H   0  0  0  0  0  0  0  0  0  0  0  0
  1  2  1  0  0  0  0
  1 24  1  0  0  0  0
  1 25  1  0  0  0  0
  1 26  1  0  0  0  0
  2  7  2  0  0  0  0
  2  3  1  0  0  0  0
  3  4  2  0  0  0  0
  3 27  1  0  0  0  0
  4  5  1  0  0  0  0
  4 28  1  0  0  0  0
  5  6  2  0  0  0  0
  5 29  1  0  0  0  0
  6  7  1  0  0  0  0
  6  8  1  0  0  0  0
  7 30  1  0  0  0  0
  8  9  2  0  0  0  0
  8 10  1  0  0  0  0
 10 11  1  0  0  0  0
 10 31  1  0  0  0  0
 11 15  1  0  0  0  0
 11 12  2  0  0  0  0
 12 13  1  0  0  0  0
 12 21  1  0  0  0  0
 13 14  2  0  0  0  0
 13 20  1  0  0  0  0
 14 15  1  0  0  0  0
 14 16  1  0  0  0  0
 16 17  2  0  0  0  0
 16 18  1  0  0  0  0
 18 19  1  0  0  0  0
 19 32  1  0  0  0  0
 19 33  1  0  0  0  0
 19 34  1  0  0  0  0
 20 35  1  0  0  0  0
 20 36  1  0  0  0  0
 20 37  1  0  0  0  0
 21 22  2  0  0  0  0
 21 23  1  0  0  0  0
 23 38  1  0  0  0  0
 23 39  1  0  0  0  0
M  END
$$$$
ZINC00370871
  -OEChem-08230709453D

 42 43  0     0  0  0  0  0  0999 V2000
    9.8403   -0.5299   -0.0961 C   0  0  0  0  0  0  0  0  0  0  0  0
    8.4149   -1.0189   -0.0846 C   0  0  0  0  0  0  0  0  0  0  0  0
    7.3511   -0.1292   -0.0696 C   0  0  0  0  0  0  0  0  0  0  0  0
    6.0573   -0.6620   -0.0600 C   0  0  0  0  0  0  0  0  0  0  0  0
    6.3426   -2.3716   -0.0643 S   0  0  0  0  0  0  0  0  0  0  0  0
    8.1251   -2.3561   -0.0890 C   0  0  0  0  0  0  0  0  0  0  0  0
    9.0493   -3.4918   -0.1039 C   0  0  0  0  0  0  0  0  0  0  0  0
   10.2510   -3.2985   -0.1144 O   0  0  0  0  0  0  0  0  0  0  0  0
    8.5692   -4.7512   -0.1061 N   0  0  0  0  0  0  0  0  0  0  0  0
    4.8512    0.0085   -0.0449 N   0  0  0  0  0  0  0  0  0  0  0  0
    3.6951   -0.6842   -0.0375 C   0  0  0  0  0  0  0  0  0  0  0  0
    3.7148   -1.8994   -0.0442 O   0  0  0  0  0  0  0  0  0  0  0  0
    2.4036    0.0339   -0.0213 C   0  0  0  0  0  0  0  0  0  0  0  0
    1.2042   -0.6806   -0.0136 C   0  0  0  0  0  0  0  0  0  0  0  0
    0.0021   -0.0041    0.0020 C   0  0  0  0  0  0  0  0  0  0  0  0
   -0.0167    1.3794    0.0096 C   0  0  0  0  0  0  0  0  0  0  0  0
    1.1683    2.0937    0.0021 C   0  0  0  0  0  0  0  0  0  0  0  0
    2.3774    1.4297   -0.0130 C   0  0  0  0  0  0  0  0  0  0  0  0
    7.5747    1.3207   -0.0644 C   0  0  0  0  0  0  0  0  0  0  0  0
    7.6777    1.9163    0.9908 O   0  0  0  0  0  0  0  0  0  0  0  0
    7.6659    1.9930   -1.2297 O   0  0  0  0  0  0  0  0  0  0  0  0
    7.8876    3.4257   -1.1486 C   0  0  0  0  0  0  0  0  0  0  0  0
    8.6759    3.8900   -2.3749 C   0  0  0  0  0  0  0  0  0  0  0  0
    6.5398    4.1487   -1.1049 C   0  0  0  0  0  0  0  0  0  0  0  0
   10.1941   -0.4172    0.9287 H   0  0  0  0  0  0  0  0  0  0  0  0
   10.4676   -1.2512   -0.6198 H   0  0  0  0  0  0  0  0  0  0  0  0
    9.8902    0.4324   -0.6055 H   0  0  0  0  0  0  0  0  0  0  0  0
    7.6116   -4.9053   -0.0978 H   0  0  0  0  0  0  0  0  0  0  0  0
    9.1814   -5.5036   -0.1160 H   0  0  0  0  0  0  0  0  0  0  0  0
    4.8355    0.9784   -0.0395 H   0  0  0  0  0  0  0  0  0  0  0  0
    1.2174   -1.7605   -0.0202 H   0  0  0  0  0  0  0  0  0  0  0  0
   -0.9265   -0.5555    0.0080 H   0  0  0  0  0  0  0  0  0  0  0  0
   -0.9606    1.9042    0.0169 H   0  0  0  0  0  0  0  0  0  0  0  0
    1.1467    3.1735    0.0078 H   0  0  0  0  0  0  0  0  0  0  0  0
    3.3017    1.9884   -0.0193 H   0  0  0  0  0  0  0  0  0  0  0  0
    8.4525    3.6554   -0.2452 H   0  0  0  0  0  0  0  0  0  0  0  0
    8.1109    3.6604   -3.2783 H   0  0  0  0  0  0  0  0  0  0  0  0
    8.8423    4.9655   -2.3140 H   0  0  0  0  0  0  0  0  0  0  0  0
    9.6360    3.3750   -2.4060 H   0  0  0  0  0  0  0  0  0  0  0  0
    6.7063    5.2242   -1.0440 H   0  0  0  0  0  0  0  0  0  0  0  0
    5.9749    3.9190   -2.0083 H   0  0  0  0  0  0  0  0  0  0  0  0
    5.9782    3.8179   -0.2313 H   0  0  0  0  0  0  0  0  0  0  0  0
  1  2  1  0  0  0  0
  1 25  1  0  0  0  0
  1 26  1  0  0  0  0
  1 27  1  0  0  0  0
  2  6  2  0  0  0  0
  2  3  1  0  0  0  0
  3  4  2  0  0  0  0
  3 19  1  0  0  0  0
  4  5  1  0  0  0  0
  4 10  1  0  0  0  0
  5  6  1  0  0  0  0
  6  7  1  0  0  0  0
  7  8  2  0  0  0  0
  7  9  1  0  0  0  0
  9 28  1  0  0  0  0
  9 29  1  0  0  0  0
 10 11  1  0  0  0  0
 10 30  1  0  0  0  0
 11 12  2  0  0  0  0
 11 13  1  0  0  0  0
 13 18  2  0  0  0  0
 13 14  1  0  0  0  0
 14 15  2  0  0  0  0
 14 31  1  0  0  0  0
 15 16  1  0  0  0  0
 15 32  1  0  0  0  0
 16 17  2  0  0  0  0
 16 33  1  0  0  0  0
 17 18  1  0  0  0  0
 17 34  1  0  0  0  0
 18 35  1  0  0  0  0
 19 20  2  0  0  0  0
 19 21  1  0  0  0  0
 21 22  1  0  0  0  0
 22 23  1  0  0  0  0
 22 24  1  0  0  0  0
 22 36  1  0  0  0  0
 23 37  1  0  0  0  0
 23 38  1  0  0  0  0
 23 39  1  0  0  0  0
 24 40  1  0  0  0  0
 24 41  1  0  0  0  0
 24 42  1  0  0  0  0
M  END
$$$$
ZINC00373316
  -OEChem-08230709453D

 42 43  0     0  0  0  0  0  0999 V2000
    0.4023    5.5766    0.9644 C   0  0  0  0  0  0  0  0  0  0  0  0
    0.2788    4.0569    1.0921 C   0  0  0  0  0  0  0  0  0  0  0  0
    1.1791    3.4274    0.1781 O   0  0  0  0  0  0  0  0  0  0  0  0
    1.1945    2.0678    0.1645 C   0  0  0  0  0  0  0  0  0  0  0  0
    2.0449    1.3928   -0.6988 C   0  0  0  0  0  0  0  0  0  0  0  0
    2.0614    0.0120   -0.7129 C   0  0  0  0  0  0  0  0  0  0  0  0
    1.2264   -0.7006    0.1373 C   0  0  0  0  0  0  0  0  0  0  0  0
    0.3754   -0.0242    1.0012 C   0  0  0  0  0  0  0  0  0  0  0  0
    0.3600    1.3565    1.0142 C   0  0  0  0  0  0  0  0  0  0  0  0
    1.2422   -2.1014    0.1232 N   0  0  0  0  0  0  0  0  0  0  0  0
    2.4131   -2.7612    0.0230 C   0  0  0  0  0  0  0  0  0  0  0  0
    3.8895   -1.8954    0.0622 S   0  0  0  0  0  0  0  0  0  0  0  0
    2.4218   -4.1025   -0.1082 N   0  0  0  0  0  0  0  0  0  0  0  0
    1.2136   -4.8110   -0.1403 N   0  0  0  0  0  0  0  0  0  0  0  0
    1.2222   -6.1524   -0.2714 C   0  0  0  0  0  0  0  0  0  0  0  0
    2.2778   -6.7566   -0.2714 O   0  0  0  0  0  0  0  0  0  0  0  0
   -0.0455   -6.8859   -0.4146 C   0  0  0  0  0  0  0  0  0  0  0  0
   -1.3232   -6.3605   -0.3309 C   0  0  0  0  0  0  0  0  0  0  0  0
   -2.1823   -7.4431   -0.5335 C   0  0  0  0  0  0  0  0  0  0  0  0
   -1.4471   -8.5096   -0.7194 N   0  0  0  0  0  0  0  0  0  0  0  0
   -0.1969   -8.2206   -0.6625 N   0  0  0  0  0  0  0  0  0  0  0  0
    0.8994   -9.1772   -0.8337 C   0  0  0  0  0  0  0  0  0  0  0  0
   -3.6884   -7.3919   -0.5373 C   0  0  0  0  0  0  0  0  0  0  0  0
    1.4239    5.8787    1.1946 H   0  0  0  0  0  0  0  0  0  0  0  0
    0.1553    5.8769   -0.0539 H   0  0  0  0  0  0  0  0  0  0  0  0
   -0.2844    6.0567    1.6615 H   0  0  0  0  0  0  0  0  0  0  0  0
   -0.7428    3.7548    0.8619 H   0  0  0  0  0  0  0  0  0  0  0  0
    0.5258    3.7566    2.1103 H   0  0  0  0  0  0  0  0  0  0  0  0
    2.6976    1.9472   -1.3569 H   0  0  0  0  0  0  0  0  0  0  0  0
    2.7233   -0.5134   -1.3853 H   0  0  0  0  0  0  0  0  0  0  0  0
   -0.2746   -0.5779    1.6625 H   0  0  0  0  0  0  0  0  0  0  0  0
   -0.3018    1.8828    1.6861 H   0  0  0  0  0  0  0  0  0  0  0  0
    0.4104   -2.5965    0.1856 H   0  0  0  0  0  0  0  0  0  0  0  0
    3.2645   -4.5773   -0.1803 H   0  0  0  0  0  0  0  0  0  0  0  0
    0.3708   -4.3362   -0.0681 H   0  0  0  0  0  0  0  0  0  0  0  0
   -1.5977   -5.3322   -0.1476 H   0  0  0  0  0  0  0  0  0  0  0  0
    1.1266   -9.6446    0.1244 H   0  0  0  0  0  0  0  0  0  0  0  0
    0.6045   -9.9433   -1.5508 H   0  0  0  0  0  0  0  0  0  0  0  0
    1.7827   -8.6555   -1.2020 H   0  0  0  0  0  0  0  0  0  0  0  0
   -4.0428   -7.1973   -1.5495 H   0  0  0  0  0  0  0  0  0  0  0  0
   -4.0852   -8.3460   -0.1906 H   0  0  0  0  0  0  0  0  0  0  0  0
   -4.0266   -6.5954    0.1255 H   0  0  0  0  0  0  0  0  0  0  0  0
  1  2  1  0  0  0  0
  1 24  1  0  0  0  0
  1 25  1  0  0  0  0
  1 26  1  0  0  0  0
  2  3  1  0  0  0  0
  2 27  1  0  0  0  0
  2 28  1  0  0  0  0
  3  4  1  0  0  0  0
  4  9  2  0  0  0  0
  4  5  1  0  0  0  0
  5  6  2  0  0  0  0
  5 29  1  0  0  0  0
  6  7  1  0  0  0  0
  6 30  1  0  0  0  0
  7  8  2  0  0  0  0
  7 10  1  0  0  0  0
  8  9  1  0  0  0  0
  8 31  1  0  0  0  0
  9 32  1  0  0  0  0
 10 11  1  0  0  0  0
 10 33  1  0  0  0  0
 11 12  2  0  0  0  0
 11 13  1  0  0  0  0
 13 14  1  0  0  0  0
 13 34  1  0  0  0  0
 14 15  1  0  0  0  0
 14 35  1  0  0  0  0
 15 16  2  0  0  0  0
 15 17  1  0  0  0  0
 17 21  1  0  0  0  0
 17 18  2  0  0  0  0
 18 19  1  0  0  0  0
 18 36  1  0  0  0  0
 19 20  2  0  0  0  0
 19 23  1  0  0  0  0
 20 21  1  0  0  0  0
 21 22  1  0  0  0  0
 22 37  1  0  0  0  0
 22 38  1  0  0  0  0
 22 39  1  0  0  0  0
 23 40  1  0  0  0  0
 23 41  1  0  0  0  0
 23 42  1  0  0  0  0
M  END
$$$$
ZINC00373321
  -OEChem-08230709453D

 42 43  0     0  0  0  0  0  0999 V2000
    0.3963    5.6035    0.7485 C   0  0  0  0  0  0  0  0  0  0  0  0
    0.2841    4.0853    0.9016 C   0  0  0  0  0  0  0  0  0  0  0  0
    1.1504    3.4465   -0.0384 O   0  0  0  0  0  0  0  0  0  0  0  0
    1.1707    2.0869   -0.0341 C   0  0  0  0  0  0  0  0  0  0  0  0
    1.9894    1.4030   -0.9209 C   0  0  0  0  0  0  0  0  0  0  0  0
    2.0109    0.0223   -0.9168 C   0  0  0  0  0  0  0  0  0  0  0  0
    1.2128   -0.6815   -0.0249 C   0  0  0  0  0  0  0  0  0  0  0  0
    0.3937    0.0036    0.8625 C   0  0  0  0  0  0  0  0  0  0  0  0
    0.3732    1.3844    0.8573 C   0  0  0  0  0  0  0  0  0  0  0  0
    1.2338   -2.0823   -0.0205 N   0  0  0  0  0  0  0  0  0  0  0  0
    2.4049   -2.7392   -0.1370 C   0  0  0  0  0  0  0  0  0  0  0  0
    3.8781   -1.8671   -0.1472 S   0  0  0  0  0  0  0  0  0  0  0  0
    2.4162   -4.0825   -0.2454 N   0  0  0  0  0  0  0  0  0  0  0  0
    1.2106   -4.7962   -0.2370 N   0  0  0  0  0  0  0  0  0  0  0  0
    1.2219   -6.1395   -0.3454 C   0  0  0  0  0  0  0  0  0  0  0  0
    2.2783   -6.7320   -0.4505 O   0  0  0  0  0  0  0  0  0  0  0  0
   -0.0492   -6.8919   -0.3366 C   0  0  0  0  0  0  0  0  0  0  0  0
   -0.1977   -8.2952   -0.4411 C   0  0  0  0  0  0  0  0  0  0  0  0
   -1.5309   -8.5230   -0.3859 C   0  0  0  0  0  0  0  0  0  0  0  0
   -2.1367   -7.3231   -0.2562 N   0  0  0  0  0  0  0  0  0  0  0  0
   -1.2604   -6.3843   -0.2241 N   0  0  0  0  0  0  0  0  0  0  0  0
   -3.5845   -7.1215   -0.1602 C   0  0  0  0  0  0  0  0  0  0  0  0
   -2.2121   -9.8655   -0.4558 C   0  0  0  0  0  0  0  0  0  0  0  0
    0.1083    5.8889   -0.2633 H   0  0  0  0  0  0  0  0  0  0  0  0
   -0.2645    6.0908    1.4655 H   0  0  0  0  0  0  0  0  0  0  0  0
    1.4250    5.9124    0.9342 H   0  0  0  0  0  0  0  0  0  0  0  0
   -0.7446    3.7764    0.7159 H   0  0  0  0  0  0  0  0  0  0  0  0
    0.5722    3.7999    1.9134 H   0  0  0  0  0  0  0  0  0  0  0  0
    2.6135    1.9506   -1.6116 H   0  0  0  0  0  0  0  0  0  0  0  0
    2.6480   -0.5100   -1.6076 H   0  0  0  0  0  0  0  0  0  0  0  0
   -0.2276   -0.5432    1.5564 H   0  0  0  0  0  0  0  0  0  0  0  0
   -0.2639    1.9175    1.5475 H   0  0  0  0  0  0  0  0  0  0  0  0
    0.4054   -2.5795    0.0664 H   0  0  0  0  0  0  0  0  0  0  0  0
    3.2590   -4.5552   -0.3292 H   0  0  0  0  0  0  0  0  0  0  0  0
    0.3677   -4.3234   -0.1532 H   0  0  0  0  0  0  0  0  0  0  0  0
    0.5873   -9.0298   -0.5437 H   0  0  0  0  0  0  0  0  0  0  0  0
   -3.8872   -7.1536    0.8865 H   0  0  0  0  0  0  0  0  0  0  0  0
   -3.8453   -6.1518   -0.5842 H   0  0  0  0  0  0  0  0  0  0  0  0
   -4.0984   -7.9091   -0.7113 H   0  0  0  0  0  0  0  0  0  0  0  0
   -2.3197  -10.2711    0.5502 H   0  0  0  0  0  0  0  0  0  0  0  0
   -3.1971   -9.7500   -0.9082 H   0  0  0  0  0  0  0  0  0  0  0  0
   -1.6124  -10.5462   -1.0598 H   0  0  0  0  0  0  0  0  0  0  0  0
  1  2  1  0  0  0  0
  1 24  1  0  0  0  0
  1 25  1  0  0  0  0
  1 26  1  0  0  0  0
  2  3  1  0  0  0  0
  2 27  1  0  0  0  0
  2 28  1  0  0  0  0
  3  4  1  0  0  0  0
  4  9  2  0  0  0  0
  4  5  1  0  0  0  0
  5  6  2  0  0  0  0
  5 29  1  0  0  0  0
  6  7  1  0  0  0  0
  6 30  1  0  0  0  0
  7  8  2  0  0  0  0
  7 10  1  0  0  0  0
  8  9  1  0  0  0  0
  8 31  1  0  0  0  0
  9 32  1  0  0  0  0
 10 11  1  0  0  0  0
 10 33  1  0  0  0  0
 11 12  2  0  0  0  0
 11 13  1  0  0  0  0
 13 14  1  0  0  0  0
 13 34  1  0  0  0  0
 14 15  1  0  0  0  0
 14 35  1  0  0  0  0
 15 16  2  0  0  0  0
 15 17  1  0  0  0  0
 17 21  2  0  0  0  0
 17 18  1  0  0  0  0
 18 19  2  0  0  0  0
 18 36  1  0  0  0  0
 19 20  1  0  0  0  0
 19 23  1  0  0  0  0
 20 21  1  0  0  0  0
 20 22  1  0  0  0  0
 22 37  1  0  0  0  0
 22 38  1  0  0  0  0
 22 39  1  0  0  0  0
 23 40  1  0  0  0  0
 23 41  1  0  0  0  0
 23 42  1  0  0  0  0
M  END
$$$$
ZINC00375577
  -OEChem-08230709453D

 45 47  0     1  0  0  0  0  0999 V2000
  -11.0190   -4.7572   -0.7049 C   0  0  0  0  0  0  0  0  0  0  0  0
  -10.0047   -3.6480   -0.9904 C   0  0  0  0  0  0  0  0  0  0  0  0
  -10.2660   -2.4650   -0.0560 C   0  0  0  0  0  0  0  0  0  0  0  0
   -9.2516   -1.3557   -0.3416 C   0  0  1  0  0  0  0  0  0  0  0  0
   -9.2827   -1.0929   -1.3990 H   0  0  0  0  0  0  0  0  0  0  0  0
   -9.5870   -0.1235    0.5036 C   0  0  0  0  0  0  0  0  0  0  0  0
   -8.7384    1.0655    0.0493 C   0  0  0  0  0  0  0  0  0  0  0  0
   -7.2733    0.6468    0.0394 C   0  0  0  0  0  0  0  0  0  0  0  0
   -6.9227   -0.6576    0.0303 C   0  0  0  0  0  0  0  0  0  0  0  0
   -5.1524   -0.6503    0.0148 S   0  0  0  0  0  0  0  0  0  0  0  0
   -4.8796    1.0607    0.0305 C   0  0  0  0  0  0  0  0  0  0  0  0
   -6.1645    1.5857    0.0393 C   0  0  0  0  0  0  0  0  0  0  0  0
   -6.3942    3.0336    0.0487 C   0  0  0  0  0  0  0  0  0  0  0  0
   -6.4947    3.6407   -1.0014 O   0  0  0  0  0  0  0  0  0  0  0  0
   -6.4940    3.6925    1.2202 N   0  0  0  0  0  0  0  0  0  0  0  0
   -3.6721    1.7400    0.0286 N   0  0  0  0  0  0  0  0  0  0  0  0
   -2.5125    1.0531    0.0194 C   0  0  0  0  0  0  0  0  0  0  0  0
   -2.5261   -0.1624    0.0129 O   0  0  0  0  0  0  0  0  0  0  0  0
   -1.2244    1.7777    0.0174 C   0  0  0  0  0  0  0  0  0  0  0  0
   -0.0126    1.0758    0.0080 C   0  0  0  0  0  0  0  0  0  0  0  0
    1.1653    1.8015    0.0006 C   0  0  0  0  0  0  0  0  0  0  0  0
    1.1091    3.1839    0.0086 C   0  0  0  0  0  0  0  0  0  0  0  0
   -0.0474    3.8186    0.0231 N   0  0  0  0  0  0  0  0  0  0  0  0
   -1.1951    3.1728    0.0306 C   0  0  0  0  0  0  0  0  0  0  0  0
   -7.8419   -1.8400    0.0272 C   0  0  0  0  0  0  0  0  0  0  0  0
  -10.9192   -5.0830    0.3305 H   0  0  0  0  0  0  0  0  0  0  0  0
  -12.0276   -4.3788   -0.8711 H   0  0  0  0  0  0  0  0  0  0  0  0
  -10.8328   -5.6000   -1.3705 H   0  0  0  0  0  0  0  0  0  0  0  0
  -10.1045   -3.3221   -2.0258 H   0  0  0  0  0  0  0  0  0  0  0  0
   -8.9960   -4.0263   -0.8242 H   0  0  0  0  0  0  0  0  0  0  0  0
  -10.1662   -2.7908    0.9793 H   0  0  0  0  0  0  0  0  0  0  0  0
  -11.2746   -2.0866   -0.2222 H   0  0  0  0  0  0  0  0  0  0  0  0
   -9.3799   -0.3365    1.5523 H   0  0  0  0  0  0  0  0  0  0  0  0
  -10.6430    0.1190    0.3850 H   0  0  0  0  0  0  0  0  0  0  0  0
   -8.8760    1.8976    0.7398 H   0  0  0  0  0  0  0  0  0  0  0  0
   -9.0391    1.3669   -0.9541 H   0  0  0  0  0  0  0  0  0  0  0  0
   -6.4138    3.2087    2.0571 H   0  0  0  0  0  0  0  0  0  0  0  0
   -6.6460    4.6505    1.2264 H   0  0  0  0  0  0  0  0  0  0  0  0
   -3.6612    2.7099    0.0338 H   0  0  0  0  0  0  0  0  0  0  0  0
    0.0021   -0.0041    0.0020 H   0  0  0  0  0  0  0  0  0  0  0  0
    2.1187    1.2942   -0.0116 H   0  0  0  0  0  0  0  0  0  0  0  0
    2.0271    3.7528    0.0033 H   0  0  0  0  0  0  0  0  0  0  0  0
   -2.1216    3.7278    0.0425 H   0  0  0  0  0  0  0  0  0  0  0  0
   -7.8574   -2.2956    1.0173 H   0  0  0  0  0  0  0  0  0  0  0  0
   -7.5003   -2.5694   -0.7072 H   0  0  0  0  0  0  0  0  0  0  0  0
  1  2  1  0  0  0  0
  1 26  1  0  0  0  0
  1 27  1  0  0  0  0
  1 28  1  0  0  0  0
  2  3  1  0  0  0  0
  2 29  1  0  0  0  0
  2 30  1  0  0  0  0
  3  4  1  0  0  0  0
  3 31  1  0  0  0  0
  3 32  1  0  0  0  0
  4  5  1  0  0  0  0
  4 25  1  0  0  0  0
  4  6  1  0  0  0  0
  6  7  1  0  0  0  0
  6 33  1  0  0  0  0
  6 34  1  0  0  0  0
  7  8  1  0  0  0  0
  7 35  1  0  0  0  0
  7 36  1  0  0  0  0
  8 12  1  0  0  0  0
  8  9  2  0  0  0  0
  9 10  1  0  0  0  0
  9 25  1  0  0  0  0
 10 11  1  0  0  0  0
 11 12  2  0  0  0  0
 11 16  1  0  0  0  0
 12 13  1  0  0  0  0
 13 14  2  0  0  0  0
 13 15  1  0  0  0  0
 15 37  1  0  0  0  0
 15 38  1  0  0  0  0
 16 17  1  0  0  0  0
 16 39  1  0  0  0  0
 17 18  2  0  0  0  0
 17 19  1  0  0  0  0
 19 24  2  0  0  0  0
 19 20  1  0  0  0  0
 20 21  2  0  0  0  0
 20 40  1  0  0  0  0
 21 22  1  0  0  0  0
 21 41  1  0  0  0  0
 22 23  2  0  0  0  0
 22 42  1  0  0  0  0
 23 24  1  0  0  0  0
 24 43  1  0  0  0  0
 25 44  1  0  0  0  0
 25 45  1  0  0  0  0
M  END
$$$$
ZINC00375578
  -OEChem-08230709453D

 45 47  0     1  0  0  0  0  0999 V2000
   -0.0127    1.0858    0.0080 C   0  0  0  0  0  0  0  0  0  0  0  0
   -0.7288    1.5792    1.2668 C   0  0  0  0  0  0  0  0  0  0  0  0
   -0.7496    3.1091    1.2752 C   0  0  0  0  0  0  0  0  0  0  0  0
   -1.4657    3.6025    2.5340 C   0  0  2  0  0  0  0  0  0  0  0  0
   -2.4563    3.1513    2.5914 H   0  0  0  0  0  0  0  0  0  0  0  0
   -1.5983    5.1274    2.4848 C   0  0  0  0  0  0  0  0  0  0  0  0
   -2.5224    5.6056    3.6062 C   0  0  0  0  0  0  0  0  0  0  0  0
   -2.0320    5.0248    4.9268 C   0  0  0  0  0  0  0  0  0  0  0  0
   -1.1988    3.9619    4.9526 C   0  0  0  0  0  0  0  0  0  0  0  0
   -0.9111    3.6539    6.6720 S   0  0  0  0  0  0  0  0  0  0  0  0
   -1.8838    4.9179    7.3492 C   0  0  0  0  0  0  0  0  0  0  0  0
   -2.4078    5.5482    6.2291 C   0  0  0  0  0  0  0  0  0  0  0  0
   -3.3073    6.6989    6.3553 C   0  0  0  0  0  0  0  0  0  0  0  0
   -4.5098    6.5261    6.4299 O   0  0  0  0  0  0  0  0  0  0  0  0
   -2.8027    7.9482    6.3887 N   0  0  0  0  0  0  0  0  0  0  0  0
   -2.0882    5.2253    8.6846 N   0  0  0  0  0  0  0  0  0  0  0  0
   -1.4886    4.4929    9.6441 C   0  0  0  0  0  0  0  0  0  0  0  0
   -0.7685    3.5627    9.3379 O   0  0  0  0  0  0  0  0  0  0  0  0
   -1.7066    4.8208   11.0685 C   0  0  0  0  0  0  0  0  0  0  0  0
   -1.0895    4.0677   12.0752 C   0  0  0  0  0  0  0  0  0  0  0  0
   -1.3260    4.4162   13.3930 C   0  0  0  0  0  0  0  0  0  0  0  0
   -2.1564    5.4872   13.6717 C   0  0  0  0  0  0  0  0  0  0  0  0
   -2.7248    6.1786   12.7026 N   0  0  0  0  0  0  0  0  0  0  0  0
   -2.5263    5.8897   11.4332 C   0  0  0  0  0  0  0  0  0  0  0  0
   -0.6486    3.2168    3.7757 C   0  0  0  0  0  0  0  0  0  0  0  0
    0.0021   -0.0041    0.0020 H   0  0  0  0  0  0  0  0  0  0  0  0
    1.0099    1.4631    0.0003 H   0  0  0  0  0  0  0  0  0  0  0  0
   -0.5399    1.4469   -0.8751 H   0  0  0  0  0  0  0  0  0  0  0  0
   -1.7514    1.2020    1.2746 H   0  0  0  0  0  0  0  0  0  0  0  0
   -0.2017    1.2182    2.1499 H   0  0  0  0  0  0  0  0  0  0  0  0
    0.2730    3.4864    1.2675 H   0  0  0  0  0  0  0  0  0  0  0  0
   -1.2768    3.4701    0.3922 H   0  0  0  0  0  0  0  0  0  0  0  0
   -0.6147    5.5805    2.6081 H   0  0  0  0  0  0  0  0  0  0  0  0
   -2.0154    5.4237    1.5224 H   0  0  0  0  0  0  0  0  0  0  0  0
   -2.5031    6.6943    3.6562 H   0  0  0  0  0  0  0  0  0  0  0  0
   -3.5398    5.2667    3.4108 H   0  0  0  0  0  0  0  0  0  0  0  0
   -1.8444    8.0860    6.3292 H   0  0  0  0  0  0  0  0  0  0  0  0
   -3.3979    8.7096    6.4722 H   0  0  0  0  0  0  0  0  0  0  0  0
   -2.6628    5.9676    8.9290 H   0  0  0  0  0  0  0  0  0  0  0  0
   -0.4454    3.2365   11.8291 H   0  0  0  0  0  0  0  0  0  0  0  0
   -0.8669    3.8584   14.1958 H   0  0  0  0  0  0  0  0  0  0  0  0
   -2.3427    5.7613   14.6996 H   0  0  0  0  0  0  0  0  0  0  0  0
   -3.0057    6.4822   10.6679 H   0  0  0  0  0  0  0  0  0  0  0  0
   -0.7295    2.1439    3.9498 H   0  0  0  0  0  0  0  0  0  0  0  0
    0.3967    3.4872    3.6259 H   0  0  0  0  0  0  0  0  0  0  0  0
  1  2  1  0  0  0  0
  1 26  1  0  0  0  0
  1 27  1  0  0  0  0
  1 28  1  0  0  0  0
  2  3  1  0  0  0  0
  2 29  1  0  0  0  0
  2 30  1  0  0  0  0
  3  4  1  0  0  0  0
  3 31  1  0  0  0  0
  3 32  1  0  0  0  0
  4  5  1  0  0  0  0
  4 25  1  0  0  0  0
  4  6  1  0  0  0  0
  6  7  1  0  0  0  0
  6 33  1  0  0  0  0
  6 34  1  0  0  0  0
  7  8  1  0  0  0  0
  7 35  1  0  0  0  0
  7 36  1  0  0  0  0
  8 12  1  0  0  0  0
  8  9  2  0  0  0  0
  9 10  1  0  0  0  0
  9 25  1  0  0  0  0
 10 11  1  0  0  0  0
 11 12  2  0  0  0  0
 11 16  1  0  0  0  0
 12 13  1  0  0  0  0
 13 14  2  0  0  0  0
 13 15  1  0  0  0  0
 15 37  1  0  0  0  0
 15 38  1  0  0  0  0
 16 17  1  0  0  0  0
 16 39  1  0  0  0  0
 17 18  2  0  0  0  0
 17 19  1  0  0  0  0
 19 24  2  0  0  0  0
 19 20  1  0  0  0  0
 20 21  2  0  0  0  0
 20 40  1  0  0  0  0
 21 22  1  0  0  0  0
 21 41  1  0  0  0  0
 22 23  2  0  0  0  0
 22 42  1  0  0  0  0
 23 24  1  0  0  0  0
 24 43  1  0  0  0  0
 25 44  1  0  0  0  0
 25 45  1  0  0  0  0
M  END
$$$$
ZINC00376157
  -OEChem-08230709453D

 42 43  0     0  0  0  0  0  0999 V2000
    1.5718   -4.8088    2.4683 C   0  0  0  0  0  0  0  0  0  0  0  0
    1.5149   -4.2185    1.0579 C   0  0  0  0  0  0  0  0  0  0  0  0
    1.4085   -2.7729    1.1422 O   0  0  0  0  0  0  0  0  0  0  0  0
    1.3473   -2.0947   -0.0216 C   0  0  0  0  0  0  0  0  0  0  0  0
    1.3820   -2.6957   -1.0781 O   0  0  0  0  0  0  0  0  0  0  0  0
    1.2389   -0.6315   -0.0132 C   0  0  0  0  0  0  0  0  0  0  0  0
    0.0021   -0.0041    0.0020 C   0  0  0  0  0  0  0  0  0  0  0  0
   -0.0165    1.3640    0.0095 C   0  0  0  0  0  0  0  0  0  0  0  0
    1.7170    1.7801   -0.0048 S   0  0  0  0  0  0  0  0  0  0  0  0
    2.3794    0.1784   -0.0197 C   0  0  0  0  0  0  0  0  0  0  0  0
    3.7066   -0.2039   -0.0344 N   0  0  0  0  0  0  0  0  0  0  0  0
    4.6773    0.7310   -0.0387 C   0  0  0  0  0  0  0  0  0  0  0  0
    4.3854    1.9080   -0.0296 O   0  0  0  0  0  0  0  0  0  0  0  0
    6.1253    0.3138   -0.0547 C   0  0  0  0  0  0  0  0  0  0  0  0
    7.0013    1.5400   -0.0565 C   0  0  0  0  0  0  0  0  0  0  0  0
    7.3963    2.1055   -1.2545 C   0  0  0  0  0  0  0  0  0  0  0  0
    8.1956    3.2334   -1.2561 C   0  0  0  0  0  0  0  0  0  0  0  0
    8.6089    3.7893   -0.0598 C   0  0  0  0  0  0  0  0  0  0  0  0
    8.2185    3.2205    1.1381 C   0  0  0  0  0  0  0  0  0  0  0  0
    7.4146    2.0960    1.1397 C   0  0  0  0  0  0  0  0  0  0  0  0
   -1.1726    2.2628    0.0202 C   0  0  0  0  0  0  0  0  0  0  0  0
   -2.3001    1.8041    0.0234 O   0  0  0  0  0  0  0  0  0  0  0  0
   -0.9882    3.5978    0.0265 N   0  0  0  0  0  0  0  0  0  0  0  0
   -1.2767   -0.8013    0.0104 C   0  0  0  0  0  0  0  0  0  0  0  0
    2.4397   -4.4107    2.9941 H   0  0  0  0  0  0  0  0  0  0  0  0
    0.6647   -4.5423    3.0106 H   0  0  0  0  0  0  0  0  0  0  0  0
    1.6517   -5.8941    2.4050 H   0  0  0  0  0  0  0  0  0  0  0  0
    0.6470   -4.6167    0.5322 H   0  0  0  0  0  0  0  0  0  0  0  0
    2.4220   -4.4851    0.5156 H   0  0  0  0  0  0  0  0  0  0  0  0
    3.9400   -1.1454   -0.0417 H   0  0  0  0  0  0  0  0  0  0  0  0
    6.3406   -0.2853    0.8300 H   0  0  0  0  0  0  0  0  0  0  0  0
    6.3236   -0.2757   -0.9498 H   0  0  0  0  0  0  0  0  0  0  0  0
    7.0772    1.6685   -2.1891 H   0  0  0  0  0  0  0  0  0  0  0  0
    8.5003    3.6780   -2.1919 H   0  0  0  0  0  0  0  0  0  0  0  0
    9.2364    4.6683   -0.0611 H   0  0  0  0  0  0  0  0  0  0  0  0
    8.5414    3.6549    2.0727 H   0  0  0  0  0  0  0  0  0  0  0  0
    7.1096    1.6516    2.0756 H   0  0  0  0  0  0  0  0  0  0  0  0
   -0.0897    3.9634    0.0240 H   0  0  0  0  0  0  0  0  0  0  0  0
   -1.7539    4.1932    0.0336 H   0  0  0  0  0  0  0  0  0  0  0  0
   -1.5950   -0.9884   -1.0151 H   0  0  0  0  0  0  0  0  0  0  0  0
   -1.1093   -1.7513    0.5179 H   0  0  0  0  0  0  0  0  0  0  0  0
   -2.0509   -0.2409    0.5346 H   0  0  0  0  0  0  0  0  0  0  0  0
  1  2  1  0  0  0  0
  1 25  1  0  0  0  0
  1 26  1  0  0  0  0
  1 27  1  0  0  0  0
  2  3  1  0  0  0  0
  2 28  1  0  0  0  0
  2 29  1  0  0  0  0
  3  4  1  0  0  0  0
  4  5  2  0  0  0  0
  4  6  1  0  0  0  0
  6 10  2  0  0  0  0
  6  7  1  0  0  0  0
  7  8  2  0  0  0  0
  7 24  1  0  0  0  0
  8  9  1  0  0  0  0
  8 21  1  0  0  0  0
  9 10  1  0  0  0  0
 10 11  1  0  0  0  0
 11 12  1  0  0  0  0
 11 30  1  0  0  0  0
 12 13  2  0  0  0  0
 12 14  1  0  0  0  0
 14 15  1  0  0  0  0
 14 31  1  0  0  0  0
 14 32  1  0  0  0  0
 15 20  2  0  0  0  0
 15 16  1  0  0  0  0
 16 17  2  0  0  0  0
 16 33  1  0  0  0  0
 17 18  1  0  0  0  0
 17 34  1  0  0  0  0
 18 19  2  0  0  0  0
 18 35  1  0  0  0  0
 19 20  1  0  0  0  0
 19 36  1  0  0  0  0
 20 37  1  0  0  0  0
 21 22  2  0  0  0  0
 21 23  1  0  0  0  0
 23 38  1  0  0  0  0
 23 39  1  0  0  0  0
 24 40  1  0  0  0  0
 24 41  1  0  0  0  0
 24 42  1  0  0  0  0
M  END
$$$$
ZINC00377509
  -OEChem-08230709453D

 44 46  0     1  0  0  0  0  0999 V2000
   10.1120    4.3601   -0.2455 C   0  0  0  0  0  0  0  0  0  0  0  0
    8.6229    4.5102   -0.4219 C   0  0  0  0  0  0  0  0  0  0  0  0
    8.1117    4.9424   -1.6321 C   0  0  0  0  0  0  0  0  0  0  0  0
    6.7479    5.0807   -1.7975 C   0  0  0  0  0  0  0  0  0  0  0  0
    5.8886    4.7855   -0.7459 C   0  0  0  0  0  0  0  0  0  0  0  0
    6.4063    4.3574    0.4707 C   0  0  0  0  0  0  0  0  0  0  0  0
    7.7709    4.2159    0.6270 C   0  0  0  0  0  0  0  0  0  0  0  0
    4.1475    4.9604   -0.9523 S   0  0  0  0  0  0  0  0  0  0  0  0
    3.4636    4.4706    0.6549 C   0  0  0  0  0  0  0  0  0  0  0  0
    1.9609    4.5759    0.6145 C   0  0  0  0  0  0  0  0  0  0  0  0
    1.1039    3.5783    0.3500 C   0  0  0  0  0  0  0  0  0  0  0  0
   -0.2077    4.0980    0.4130 C   0  0  0  0  0  0  0  0  0  0  0  0
   -0.1256    5.3638    0.7042 N   0  0  0  0  0  0  0  0  0  0  0  0
    1.2323    5.6941    0.8377 N   0  0  0  0  0  0  0  0  0  0  0  0
    1.5975    6.5983    1.0592 H   0  0  0  0  0  0  0  0  0  0  0  0
   -1.3024    3.3216    0.1924 O   0  0  0  0  0  0  0  0  0  0  0  0
   -1.1234    1.9859    0.1710 C   0  0  0  0  0  0  0  0  0  0  0  0
    0.0785    1.3759    0.1061 C   0  0  0  0  0  0  0  0  0  0  0  0
    1.3812    2.1314    0.0307 C   0  0  1  0  0  0  0  0  0  0  0  0
    2.0860    1.7227    0.7547 H   0  0  0  0  0  0  0  0  0  0  0  0
    1.9641    2.0162   -1.3792 C   0  0  0  0  0  0  0  0  0  0  0  0
    2.3566    0.5627   -1.6516 C   0  0  0  0  0  0  0  0  0  0  0  0
    0.9172    2.4621   -2.4019 C   0  0  0  0  0  0  0  0  0  0  0  0
    0.1183   -0.0556    0.1029 C   0  0  0  0  0  0  0  0  0  0  0  0
    0.1498   -1.1911    0.1003 N   0  0  0  0  0  0  0  0  0  0  0  0
   -2.2410    1.1908    0.2255 N   0  0  0  0  0  0  0  0  0  0  0  0
   10.5310    5.2979    0.1195 H   0  0  0  0  0  0  0  0  0  0  0  0
   10.3145    3.5671    0.4744 H   0  0  0  0  0  0  0  0  0  0  0  0
   10.5676    4.1068   -1.2028 H   0  0  0  0  0  0  0  0  0  0  0  0
    8.7801    5.1717   -2.4489 H   0  0  0  0  0  0  0  0  0  0  0  0
    6.3494    5.4182   -2.7428 H   0  0  0  0  0  0  0  0  0  0  0  0
    5.7417    4.1313    1.2915 H   0  0  0  0  0  0  0  0  0  0  0  0
    8.1736    3.8790    1.5708 H   0  0  0  0  0  0  0  0  0  0  0  0
    3.8533    5.1288    1.4314 H   0  0  0  0  0  0  0  0  0  0  0  0
    3.7500    3.4418    0.8733 H   0  0  0  0  0  0  0  0  0  0  0  0
    2.8457    2.6521   -1.4609 H   0  0  0  0  0  0  0  0  0  0  0  0
    1.4605   -0.0573   -1.6749 H   0  0  0  0  0  0  0  0  0  0  0  0
    2.8680    0.4984   -2.6121 H   0  0  0  0  0  0  0  0  0  0  0  0
    3.0210    0.2117   -0.8620 H   0  0  0  0  0  0  0  0  0  0  0  0
    1.3325    2.3800   -3.4064 H   0  0  0  0  0  0  0  0  0  0  0  0
    0.0356    1.8262   -2.3202 H   0  0  0  0  0  0  0  0  0  0  0  0
    0.6376    3.4975   -2.2079 H   0  0  0  0  0  0  0  0  0  0  0  0
   -2.1501    0.2251    0.2165 H   0  0  0  0  0  0  0  0  0  0  0  0
   -3.1216    1.5947    0.2728 H   0  0  0  0  0  0  0  0  0  0  0  0
  1  2  1  0  0  0  0
  1 27  1  0  0  0  0
  1 28  1  0  0  0  0
  1 29  1  0  0  0  0
  2  7  2  0  0  0  0
  2  3  1  0  0  0  0
  3  4  2  0  0  0  0
  3 30  1  0  0  0  0
  4  5  1  0  0  0  0
  4 31  1  0  0  0  0
  5  6  2  0  0  0  0
  5  8  1  0  0  0  0
  6  7  1  0  0  0  0
  6 32  1  0  0  0  0
  7 33  1  0  0  0  0
  8  9  1  0  0  0  0
  9 10  1  0  0  0  0
  9 34  1  0  0  0  0
  9 35  1  0  0  0  0
 10 14  1  0  0  0  0
 10 11  2  0  0  0  0
 11 19  1  0  0  0  0
 11 12  1  0  0  0  0
 12 13  2  0  0  0  0
 12 16  1  0  0  0  0
 13 14  1  0  0  0  0
 14 15  1  0  0  0  0
 16 17  1  0  0  0  0
 17 18  2  0  0  0  0
 17 26  1  0  0  0  0
 18 19  1  0  0  0  0
 18 24  1  0  0  0  0
 19 20  1  0  0  0  0
 19 21  1  0  0  0  0
 21 22  1  0  0  0  0
 21 23  1  0  0  0  0
 21 36  1  0  0  0  0
 22 37  1  0  0  0  0
 22 38  1  0  0  0  0
 22 39  1  0  0  0  0
 23 40  1  0  0  0  0
 23 41  1  0  0  0  0
 23 42  1  0  0  0  0
 24 25  3  0  0  0  0
 26 43  1  0  0  0  0
 26 44  1  0  0  0  0
M  END
$$$$
ZINC00377510
  -OEChem-08230709453D

 44 46  0     1  0  0  0  0  0999 V2000
   -0.2024    0.8883    2.1725 C   0  0  0  0  0  0  0  0  0  0  0  0
   -0.1378   -0.5716    1.8045 C   0  0  0  0  0  0  0  0  0  0  0  0
   -0.2177   -0.9527    0.4774 C   0  0  0  0  0  0  0  0  0  0  0  0
   -0.1532   -2.2891    0.1360 C   0  0  0  0  0  0  0  0  0  0  0  0
   -0.0193   -3.2524    1.1288 C   0  0  0  0  0  0  0  0  0  0  0  0
    0.0549   -2.8661    2.4617 C   0  0  0  0  0  0  0  0  0  0  0  0
   -0.0046   -1.5275    2.7951 C   0  0  0  0  0  0  0  0  0  0  0  0
    0.0567   -4.9594    0.6985 S   0  0  0  0  0  0  0  0  0  0  0  0
   -0.0769   -4.9622   -1.1106 C   0  0  0  0  0  0  0  0  0  0  0  0
   -0.0246   -6.3810   -1.6159 C   0  0  0  0  0  0  0  0  0  0  0  0
    1.0602   -7.0145   -2.0867 C   0  0  0  0  0  0  0  0  0  0  0  0
    0.6795   -8.3245   -2.4519 C   0  0  0  0  0  0  0  0  0  0  0  0
   -0.5926   -8.4561   -2.2106 N   0  0  0  0  0  0  0  0  0  0  0  0
   -1.0646   -7.2442   -1.6821 N   0  0  0  0  0  0  0  0  0  0  0  0
   -2.0055   -7.0523   -1.4031 H   0  0  0  0  0  0  0  0  0  0  0  0
    1.5682   -9.2172   -2.9649 O   0  0  0  0  0  0  0  0  0  0  0  0
    2.7650   -8.7423   -3.3635 C   0  0  0  0  0  0  0  0  0  0  0  0
    3.2408   -7.5162   -3.0619 C   0  0  0  0  0  0  0  0  0  0  0  0
    2.4777   -6.5210   -2.2248 C   0  0  2  0  0  0  0  0  0  0  0  0
    2.4799   -5.5482   -2.7166 H   0  0  0  0  0  0  0  0  0  0  0  0
    3.1260   -6.4028   -0.8440 C   0  0  0  0  0  0  0  0  0  0  0  0
    3.2359   -7.7917   -0.2116 C   0  0  0  0  0  0  0  0  0  0  0  0
    4.5230   -5.7955   -0.9867 C   0  0  0  0  0  0  0  0  0  0  0  0
    4.5307   -7.1431   -3.5594 C   0  0  0  0  0  0  0  0  0  0  0  0
    5.5540   -6.8471   -3.9541 N   0  0  0  0  0  0  0  0  0  0  0  0
    3.5544   -9.5629   -4.1301 N   0  0  0  0  0  0  0  0  0  0  0  0
    0.8049    1.3046    2.1857 H   0  0  0  0  0  0  0  0  0  0  0  0
   -0.8064    1.4217    1.4385 H   0  0  0  0  0  0  0  0  0  0  0  0
   -0.6524    0.9947    3.1596 H   0  0  0  0  0  0  0  0  0  0  0  0
   -0.3261   -0.2038   -0.2932 H   0  0  0  0  0  0  0  0  0  0  0  0
   -0.2111   -2.5857   -0.9008 H   0  0  0  0  0  0  0  0  0  0  0  0
    0.1592   -3.6120    3.2358 H   0  0  0  0  0  0  0  0  0  0  0  0
    0.0526   -1.2266    3.8308 H   0  0  0  0  0  0  0  0  0  0  0  0
   -1.0218   -4.5060   -1.4059 H   0  0  0  0  0  0  0  0  0  0  0  0
    0.7498   -4.3940   -1.5369 H   0  0  0  0  0  0  0  0  0  0  0  0
    2.5142   -5.7619   -0.2090 H   0  0  0  0  0  0  0  0  0  0  0  0
    3.8476   -8.4326   -0.8466 H   0  0  0  0  0  0  0  0  0  0  0  0
    3.6977   -7.7076    0.7721 H   0  0  0  0  0  0  0  0  0  0  0  0
    2.2406   -8.2244   -0.1100 H   0  0  0  0  0  0  0  0  0  0  0  0
    4.4612   -4.8742   -1.5659 H   0  0  0  0  0  0  0  0  0  0  0  0
    4.9268   -5.5767    0.0019 H   0  0  0  0  0  0  0  0  0  0  0  0
    5.1762   -6.5028   -1.4976 H   0  0  0  0  0  0  0  0  0  0  0  0
    3.2446  -10.4511   -4.3669 H   0  0  0  0  0  0  0  0  0  0  0  0
    4.4220   -9.2545   -4.4351 H   0  0  0  0  0  0  0  0  0  0  0  0
  1  2  1  0  0  0  0
  1 27  1  0  0  0  0
  1 28  1  0  0  0  0
  1 29  1  0  0  0  0
  2  7  2  0  0  0  0
  2  3  1  0  0  0  0
  3  4  2  0  0  0  0
  3 30  1  0  0  0  0
  4  5  1  0  0  0  0
  4 31  1  0  0  0  0
  5  6  2  0  0  0  0
  5  8  1  0  0  0  0
  6  7  1  0  0  0  0
  6 32  1  0  0  0  0
  7 33  1  0  0  0  0
  8  9  1  0  0  0  0
  9 10  1  0  0  0  0
  9 34  1  0  0  0  0
  9 35  1  0  0  0  0
 10 14  1  0  0  0  0
 10 11  2  0  0  0  0
 11 19  1  0  0  0  0
 11 12  1  0  0  0  0
 12 13  2  0  0  0  0
 12 16  1  0  0  0  0
 13 14  1  0  0  0  0
 14 15  1  0  0  0  0
 16 17  1  0  0  0  0
 17 18  2  0  0  0  0
 17 26  1  0  0  0  0
 18 19  1  0  0  0  0
 18 24  1  0  0  0  0
 19 20  1  0  0  0  0
 19 21  1  0  0  0  0
 21 22  1  0  0  0  0
 21 23  1  0  0  0  0
 21 36  1  0  0  0  0
 22 37  1  0  0  0  0
 22 38  1  0  0  0  0
 22 39  1  0  0  0  0
 23 40  1  0  0  0  0
 23 41  1  0  0  0  0
 23 42  1  0  0  0  0
 24 25  3  0  0  0  0
 26 43  1  0  0  0  0
 26 44  1  0  0  0  0
M  END
$$$$
ZINC00379091
  -OEChem-08230709453D

 40 42  0     0  0  0  0  0  0999 V2000
    3.7231   -1.1714    3.3474 C   0  0  0  0  0  0  0  0  0  0  0  0
    3.3596    0.2529    2.9231 C   0  0  0  0  0  0  0  0  0  0  0  0
    1.9150    0.3873    2.8664 O   0  0  0  0  0  0  0  0  0  0  0  0
    1.4258    1.5911    2.5056 C   0  0  0  0  0  0  0  0  0  0  0  0
    2.1866    2.5036    2.2455 O   0  0  0  0  0  0  0  0  0  0  0  0
   -0.0230    1.7999    2.4269 C   0  0  0  0  0  0  0  0  0  0  0  0
   -0.7191    1.5664    1.2500 C   0  0  0  0  0  0  0  0  0  0  0  0
   -2.0690    1.7889    1.2549 C   0  0  0  0  0  0  0  0  0  0  0  0
   -2.3739    2.3220    2.9285 S   0  0  0  0  0  0  0  0  0  0  0  0
   -0.7532    2.2416    3.5377 C   0  0  0  0  0  0  0  0  0  0  0  0
   -0.2967    2.5385    4.8005 N   0  0  0  0  0  0  0  0  0  0  0  0
   -3.0252    1.6277    0.1592 C   0  0  0  0  0  0  0  0  0  0  0  0
   -2.6419    1.2483   -0.9324 O   0  0  0  0  0  0  0  0  0  0  0  0
   -4.3303    1.8991    0.3583 N   0  0  0  0  0  0  0  0  0  0  0  0
   -5.2294    1.8383   -0.7134 C   0  0  0  0  0  0  0  0  0  0  0  0
   -6.2958    2.7255   -0.7763 C   0  0  0  0  0  0  0  0  0  0  0  0
   -7.1808    2.6702   -1.8360 C   0  0  0  0  0  0  0  0  0  0  0  0
   -7.0131    1.7229   -2.8331 C   0  0  0  0  0  0  0  0  0  0  0  0
   -5.9477    0.8279   -2.7699 C   0  0  0  0  0  0  0  0  0  0  0  0
   -5.0581    0.8875   -1.7102 C   0  0  0  0  0  0  0  0  0  0  0  0
   -6.0032    0.0058   -3.8583 O   0  0  0  0  0  0  0  0  0  0  0  0
   -7.3414    0.1385   -4.3728 C   0  0  0  0  0  0  0  0  0  0  0  0
   -7.7362    1.4608   -3.9620 O   0  0  0  0  0  0  0  0  0  0  0  0
   -0.0119    1.0902    0.0073 C   0  0  0  0  0  0  0  0  0  0  0  0
    4.8076   -1.2723    3.3900 H   0  0  0  0  0  0  0  0  0  0  0  0
    3.3002   -1.3766    4.3308 H   0  0  0  0  0  0  0  0  0  0  0  0
    3.3204   -1.8800    2.6237 H   0  0  0  0  0  0  0  0  0  0  0  0
    3.7825    0.4582    1.9396 H   0  0  0  0  0  0  0  0  0  0  0  0
    3.7623    0.9616    3.6468 H   0  0  0  0  0  0  0  0  0  0  0  0
    0.6464    2.4489    5.0087 H   0  0  0  0  0  0  0  0  0  0  0  0
   -0.9178    2.8374    5.4829 H   0  0  0  0  0  0  0  0  0  0  0  0
   -4.6466    2.1366    1.2439 H   0  0  0  0  0  0  0  0  0  0  0  0
   -6.4313    3.4622    0.0018 H   0  0  0  0  0  0  0  0  0  0  0  0
   -8.0069    3.3641   -1.8851 H   0  0  0  0  0  0  0  0  0  0  0  0
   -4.2311    0.1947   -1.6595 H   0  0  0  0  0  0  0  0  0  0  0  0
   -7.9976   -0.6116   -3.9314 H   0  0  0  0  0  0  0  0  0  0  0  0
   -7.3435    0.0586   -5.4599 H   0  0  0  0  0  0  0  0  0  0  0  0
    0.0033    0.0004   -0.0071 H   0  0  0  0  0  0  0  0  0  0  0  0
    1.0105    1.4680    0.0038 H   0  0  0  0  0  0  0  0  0  0  0  0
   -0.5381    1.4579   -0.8736 H   0  0  0  0  0  0  0  0  0  0  0  0
  1  2  1  0  0  0  0
  1 25  1  0  0  0  0
  1 26  1  0  0  0  0
  1 27  1  0  0  0  0
  2  3  1  0  0  0  0
  2 28  1  0  0  0  0
  2 29  1  0  0  0  0
  3  4  1  0  0  0  0
  4  5  2  0  0  0  0
  4  6  1  0  0  0  0
  6 10  2  0  0  0  0
  6  7  1  0  0  0  0
  7  8  2  0  0  0  0
  7 24  1  0  0  0  0
  8  9  1  0  0  0  0
  8 12  1  0  0  0  0
  9 10  1  0  0  0  0
 10 11  1  0  0  0  0
 11 30  1  0  0  0  0
 11 31  1  0  0  0  0
 12 13  2  0  0  0  0
 12 14  1  0  0  0  0
 14 15  1  0  0  0  0
 14 32  1  0  0  0  0
 15 20  2  0  0  0  0
 15 16  1  0  0  0  0
 16 17  2  0  0  0  0
 16 33  1  0  0  0  0
 17 18  1  0  0  0  0
 17 34  1  0  0  0  0
 18 23  1  0  0  0  0
 18 19  2  0  0  0  0
 19 20  1  0  0  0  0
 19 21  1  0  0  0  0
 20 35  1  0  0  0  0
 21 22  1  0  0  0  0
 22 23  1  0  0  0  0
 22 36  1  0  0  0  0
 22 37  1  0  0  0  0
 24 38  1  0  0  0  0
 24 39  1  0  0  0  0
 24 40  1  0  0  0  0
M  END
$$$$
ZINC00412405
  -OEChem-08230709453D

 43 44  0     0  0  0  0  0  0999 V2000
   -7.8481   10.7254   -2.0245 C   0  0  0  0  0  0  0  0  0  0  0  0
   -6.4767   10.0472   -2.0069 C   0  0  0  0  0  0  0  0  0  0  0  0
   -6.5448    8.8289   -1.1962 N   0  0  0  0  0  0  0  0  0  0  0  0
   -5.4473    8.0629   -1.0374 C   0  0  0  0  0  0  0  0  0  0  0  0
   -3.9736    8.5137   -1.7831 S   0  0  0  0  0  0  0  0  0  0  0  0
   -5.5099    6.9421   -0.2916 N   0  0  0  0  0  0  0  0  0  0  0  0
   -4.3960    6.0939   -0.2053 C   0  0  0  0  0  0  0  0  0  0  0  0
   -3.1369    6.6247    0.0369 C   0  0  0  0  0  0  0  0  0  0  0  0
   -2.0372    5.7874    0.1221 C   0  0  0  0  0  0  0  0  0  0  0  0
   -2.1949    4.4125   -0.0359 C   0  0  0  0  0  0  0  0  0  0  0  0
   -3.4530    3.8825   -0.2842 C   0  0  0  0  0  0  0  0  0  0  0  0
   -4.5537    4.7195   -0.3632 C   0  0  0  0  0  0  0  0  0  0  0  0
   -5.7882    4.1993   -0.6007 O   0  0  0  0  0  0  0  0  0  0  0  0
   -5.8764    2.7811   -0.7523 C   0  0  0  0  0  0  0  0  0  0  0  0
   -1.0817    3.5648    0.0504 N   0  0  0  0  0  0  0  0  0  0  0  0
   -1.0246    2.4488   -0.7030 C   0  0  0  0  0  0  0  0  0  0  0  0
   -1.9772    2.1286   -1.3897 O   0  0  0  0  0  0  0  0  0  0  0  0
    0.1852    1.6202   -0.6955 C   0  0  0  0  0  0  0  0  0  0  0  0
    0.3750    0.4708   -1.4079 C   0  0  0  0  0  0  0  0  0  0  0  0
    1.6686    0.0174   -1.1053 C   0  0  0  0  0  0  0  0  0  0  0  0
    2.2048    0.8987   -0.2326 C   0  0  0  0  0  0  0  0  0  0  0  0
    1.3080    1.8631    0.0119 O   0  0  0  0  0  0  0  0  0  0  0  0
   -0.8029    6.3077    0.3604 O   0  0  0  0  0  0  0  0  0  0  0  0
   -0.7149    7.7259    0.5120 C   0  0  0  0  0  0  0  0  0  0  0  0
   -7.7974   11.6318   -2.6277 H   0  0  0  0  0  0  0  0  0  0  0  0
   -8.5844   10.0450   -2.4522 H   0  0  0  0  0  0  0  0  0  0  0  0
   -8.1394   10.9824   -1.0061 H   0  0  0  0  0  0  0  0  0  0  0  0
   -5.7404   10.7276   -1.5791 H   0  0  0  0  0  0  0  0  0  0  0  0
   -6.1854    9.7901   -3.0253 H   0  0  0  0  0  0  0  0  0  0  0  0
   -7.3797    8.5735   -0.7737 H   0  0  0  0  0  0  0  0  0  0  0  0
   -6.3252    6.7219    0.1856 H   0  0  0  0  0  0  0  0  0  0  0  0
   -3.0147    7.6907    0.1594 H   0  0  0  0  0  0  0  0  0  0  0  0
   -3.5746    2.8169   -0.4111 H   0  0  0  0  0  0  0  0  0  0  0  0
   -6.9130    2.4991   -0.9366 H   0  0  0  0  0  0  0  0  0  0  0  0
   -5.2592    2.4666   -1.5939 H   0  0  0  0  0  0  0  0  0  0  0  0
   -5.5242    2.2958    0.1579 H   0  0  0  0  0  0  0  0  0  0  0  0
   -0.3526    3.7815    0.6523 H   0  0  0  0  0  0  0  0  0  0  0  0
   -0.3330    0.0013   -2.0747 H   0  0  0  0  0  0  0  0  0  0  0  0
    2.1454   -0.8693   -1.4962 H   0  0  0  0  0  0  0  0  0  0  0  0
    3.1938    0.8360    0.1968 H   0  0  0  0  0  0  0  0  0  0  0  0
   -1.0664    8.2111   -0.3985 H   0  0  0  0  0  0  0  0  0  0  0  0
   -1.3328    8.0405    1.3531 H   0  0  0  0  0  0  0  0  0  0  0  0
    0.3216    8.0079    0.6971 H   0  0  0  0  0  0  0  0  0  0  0  0
  1  2  1  0  0  0  0
  1 25  1  0  0  0  0
  1 26  1  0  0  0  0
  1 27  1  0  0  0  0
  2  3  1  0  0  0  0
  2 28  1  0  0  0  0
  2 29  1  0  0  0  0
  3  4  1  0  0  0  0
  3 30  1  0  0  0  0
  4  5  2  0  0  0  0
  4  6  1  0  0  0  0
  6  7  1  0  0  0  0
  6 31  1  0  0  0  0
  7 12  2  0  0  0  0
  7  8  1  0  0  0  0
  8  9  2  0  0  0  0
  8 32  1  0  0  0  0
  9 10  1  0  0  0  0
  9 23  1  0  0  0  0
 10 11  2  0  0  0  0
 10 15  1  0  0  0  0
 11 12  1  0  0  0  0
 11 33  1  0  0  0  0
 12 13  1  0  0  0  0
 13 14  1  0  0  0  0
 14 34  1  0  0  0  0
 14 35  1  0  0  0  0
 14 36  1  0  0  0  0
 15 16  1  0  0  0  0
 15 37  1  0  0  0  0
 16 17  2  0  0  0  0
 16 18  1  0  0  0  0
 18 22  1  0  0  0  0
 18 19  2  0  0  0  0
 19 20  1  0  0  0  0
 19 38  1  0  0  0  0
 20 21  2  0  0  0  0
 20 39  1  0  0  0  0
 21 22  1  0  0  0  0
 21 40  1  0  0  0  0
 23 24  1  0  0  0  0
 24 41  1  0  0  0  0
 24 42  1  0  0  0  0
 24 43  1  0  0  0  0
M  END
$$$$
ZINC00417907
  -OEChem-08230709453D

 47 50  0     0  0  0  0  0  0999 V2000
    5.7769    7.1652    0.8077 C   0  0  0  0  0  0  0  0  0  0  0  0
    5.5447    5.6762    0.8121 C   0  0  0  0  0  0  0  0  0  0  0  0
    5.9106    4.9175    1.9346 C   0  0  0  0  0  0  0  0  0  0  0  0
    5.6988    3.5797    1.9301 C   0  0  0  0  0  0  0  0  0  0  0  0
    5.1317    3.0000    0.8281 N   0  0  0  0  0  0  0  0  0  0  0  0
    4.7965    1.7074    0.5338 C   0  0  0  0  0  0  0  0  0  0  0  0
    4.2563    1.7162   -0.7338 C   0  0  0  0  0  0  0  0  0  0  0  0
    4.2621    2.9868   -1.1810 N   0  0  0  0  0  0  0  0  0  0  0  0
    4.7848    3.7744   -0.2561 C   0  0  0  0  0  0  0  0  0  0  0  0
    5.0021    5.0991   -0.2332 N   0  0  0  0  0  0  0  0  0  0  0  0
    3.7513    0.5354   -1.4730 C   0  0  0  0  0  0  0  0  0  0  0  0
    4.3580   -0.7085   -1.3009 C   0  0  0  0  0  0  0  0  0  0  0  0
    3.8868   -1.8076   -1.9899 C   0  0  0  0  0  0  0  0  0  0  0  0
    2.8101   -1.6785   -2.8538 C   0  0  0  0  0  0  0  0  0  0  0  0
    2.2002   -0.4392   -3.0299 C   0  0  0  0  0  0  0  0  0  0  0  0
    2.6683    0.6658   -2.3418 C   0  0  0  0  0  0  0  0  0  0  0  0
    1.1480   -0.3141   -3.8824 O   0  0  0  0  0  0  0  0  0  0  0  0
    2.3490   -2.7643   -3.5309 O   0  0  0  0  0  0  0  0  0  0  0  0
    4.9709    0.5937    1.3572 N   0  0  0  0  0  0  0  0  0  0  0  0
    3.6830   -0.0463    1.6567 C   0  0  0  0  0  0  0  0  0  0  0  0
    2.9811    0.6947    2.8134 C   0  0  0  0  0  0  0  0  0  0  0  0
    2.2995   -0.4336    3.6282 C   0  0  0  0  0  0  0  0  0  0  0  0
    3.3400   -1.5792    3.5637 C   0  0  0  0  0  0  0  0  0  0  0  0
    3.9108   -1.4916    2.1332 C   0  0  0  0  0  0  0  0  0  0  0  0
    6.0819    2.7415    3.1225 C   0  0  0  0  0  0  0  0  0  0  0  0
    6.7666    7.3773    0.4031 H   0  0  0  0  0  0  0  0  0  0  0  0
    5.0204    7.6491    0.1900 H   0  0  0  0  0  0  0  0  0  0  0  0
    5.7119    7.5460    1.8270 H   0  0  0  0  0  0  0  0  0  0  0  0
    6.3573    5.3958    2.7937 H   0  0  0  0  0  0  0  0  0  0  0  0
    5.1969   -0.8117   -0.6285 H   0  0  0  0  0  0  0  0  0  0  0  0
    4.3581   -2.7701   -1.8562 H   0  0  0  0  0  0  0  0  0  0  0  0
    2.1961    1.6276   -2.4774 H   0  0  0  0  0  0  0  0  0  0  0  0
    0.2865   -0.4582   -3.4677 H   0  0  0  0  0  0  0  0  0  0  0  0
    2.7703   -2.8997   -4.3907 H   0  0  0  0  0  0  0  0  0  0  0  0
    5.4564    0.8437    2.2056 H   0  0  0  0  0  0  0  0  0  0  0  0
    3.0486   -0.0410    0.7704 H   0  0  0  0  0  0  0  0  0  0  0  0
    3.7112    1.2212    3.4280 H   0  0  0  0  0  0  0  0  0  0  0  0
    2.2362    1.3893    2.4252 H   0  0  0  0  0  0  0  0  0  0  0  0
    1.3628   -0.7357    3.1598 H   0  0  0  0  0  0  0  0  0  0  0  0
    2.1313   -0.1221    4.6592 H   0  0  0  0  0  0  0  0  0  0  0  0
    2.8565   -2.5430    3.7232 H   0  0  0  0  0  0  0  0  0  0  0  0
    4.1283   -1.4204    4.2995 H   0  0  0  0  0  0  0  0  0  0  0  0
    3.3863   -2.1876    1.4786 H   0  0  0  0  0  0  0  0  0  0  0  0
    4.9770   -1.7184    2.1414 H   0  0  0  0  0  0  0  0  0  0  0  0
    7.0572    2.2868    2.9487 H   0  0  0  0  0  0  0  0  0  0  0  0
    6.1281    3.3723    4.0103 H   0  0  0  0  0  0  0  0  0  0  0  0
    5.3376    1.9592    3.2709 H   0  0  0  0  0  0  0  0  0  0  0  0
  1  2  1  0  0  0  0
  1 26  1  0  0  0  0
  1 27  1  0  0  0  0
  1 28  1  0  0  0  0
  2 10  2  0  0  0  0
  2  3  1  0  0  0  0
  3  4  2  0  0  0  0
  3 29  1  0  0  0  0
  4  5  1  0  0  0  0
  4 25  1  0  0  0  0
  5  9  1  0  0  0  0
  5  6  1  0  0  0  0
  6  7  2  0  0  0  0
  6 19  1  0  0  0  0
  7  8  1  0  0  0  0
  7 11  1  0  0  0  0
  8  9  2  0  0  0  0
  9 10  1  0  0  0  0
 11 16  2  0  0  0  0
 11 12  1  0  0  0  0
 12 13  2  0  0  0  0
 12 30  1  0  0  0  0
 13 14  1  0  0  0  0
 13 31  1  0  0  0  0
 14 15  2  0  0  0  0
 14 18  1  0  0  0  0
 15 16  1  0  0  0  0
 15 17  1  0  0  0  0
 16 32  1  0  0  0  0
 17 33  1  0  0  0  0
 18 34  1  0  0  0  0
 19 20  1  0  0  0  0
 19 35  1  0  0  0  0
 20 24  1  0  0  0  0
 20 21  1  0  0  0  0
 20 36  1  0  0  0  0
 21 22  1  0  0  0  0
 21 37  1  0  0  0  0
 21 38  1  0  0  0  0
 22 23  1  0  0  0  0
 22 39  1  0  0  0  0
 22 40  1  0  0  0  0
 23 24  1  0  0  0  0
 23 41  1  0  0  0  0
 23 42  1  0  0  0  0
 24 43  1  0  0  0  0
 24 44  1  0  0  0  0
 25 45  1  0  0  0  0
 25 46  1  0  0  0  0
 25 47  1  0  0  0  0
M  END
$$$$
ZINC00418005
  -OEChem-08230709453D

 42 43  0     0  0  0  0  0  0999 V2000
   -2.8208    5.4827   -0.0880 C   0  0  0  0  0  0  0  0  0  0  0  0
   -2.6580    3.9871   -0.0001 C   0  0  0  0  0  0  0  0  0  0  0  0
   -3.7733    3.1778    0.1296 C   0  0  0  0  0  0  0  0  0  0  0  0
   -3.6341    1.8032    0.2116 C   0  0  0  0  0  0  0  0  0  0  0  0
   -2.3811    1.2295    0.1651 C   0  0  0  0  0  0  0  0  0  0  0  0
   -1.2493    2.0404    0.0342 C   0  0  0  0  0  0  0  0  0  0  0  0
   -1.3979    3.4289   -0.0427 C   0  0  0  0  0  0  0  0  0  0  0  0
   -0.1844    4.3123   -0.1777 C   0  0  0  0  0  0  0  0  0  0  0  0
    0.0917    1.4362   -0.0162 C   0  0  0  0  0  0  0  0  0  0  0  0
    0.6781    1.1750    1.0124 O   0  0  0  0  0  0  0  0  0  0  0  0
    0.7335    1.1363   -1.3464 C   0  0  0  0  0  0  0  0  0  0  0  0
    2.4203    0.5362   -1.0808 S   0  0  0  0  0  0  0  0  0  0  0  0
    2.9175    0.2720   -2.7504 C   0  0  0  0  0  0  0  0  0  0  0  0
    2.0601    0.5291   -3.7274 N   0  0  0  0  0  0  0  0  0  0  0  0
    2.4029    0.3467   -5.0005 C   0  0  0  0  0  0  0  0  0  0  0  0
    3.6760   -0.1311   -5.2975 C   0  0  0  0  0  0  0  0  0  0  0  0
    4.5471   -0.3953   -4.2446 C   0  0  0  0  0  0  0  0  0  0  0  0
    4.1372   -0.1838   -2.9961 N   0  0  0  0  0  0  0  0  0  0  0  0
    5.8249   -0.8719   -4.4930 N   0  0  0  0  0  0  0  0  0  0  0  0
    1.5020    0.6239   -6.0170 N   0  0  0  0  0  0  0  0  0  0  0  0
   -2.2318   -0.2674    0.2546 C   0  0  0  0  0  0  0  0  0  0  0  0
   -4.8552    0.9313    0.3527 C   0  0  0  0  0  0  0  0  0  0  0  0
   -2.7903    5.9110    0.9138 H   0  0  0  0  0  0  0  0  0  0  0  0
   -2.0123    5.9016   -0.6871 H   0  0  0  0  0  0  0  0  0  0  0  0
   -3.7777    5.7172   -0.5545 H   0  0  0  0  0  0  0  0  0  0  0  0
   -4.7573    3.6213    0.1666 H   0  0  0  0  0  0  0  0  0  0  0  0
    0.0899    4.3946   -1.2294 H   0  0  0  0  0  0  0  0  0  0  0  0
   -0.4102    5.3027    0.2175 H   0  0  0  0  0  0  0  0  0  0  0  0
    0.6448    3.8785    0.3812 H   0  0  0  0  0  0  0  0  0  0  0  0
    0.2017    0.4361   -1.8228 H   0  0  0  0  0  0  0  0  0  0  0  0
    0.7615    2.0441   -1.9491 H   0  0  0  0  0  0  0  0  0  0  0  0
    3.9806   -0.2934   -6.3209 H   0  0  0  0  0  0  0  0  0  0  0  0
    6.4268   -1.0535   -3.7544 H   0  0  0  0  0  0  0  0  0  0  0  0
    6.1170   -1.0237   -5.4054 H   0  0  0  0  0  0  0  0  0  0  0  0
    1.7573    0.4852   -6.9424 H   0  0  0  0  0  0  0  0  0  0  0  0
    0.6164    0.9567   -5.8028 H   0  0  0  0  0  0  0  0  0  0  0  0
   -2.2281   -0.5702    1.3017 H   0  0  0  0  0  0  0  0  0  0  0  0
   -3.0649   -0.7470   -0.2593 H   0  0  0  0  0  0  0  0  0  0  0  0
   -1.2945   -0.5677   -0.2138 H   0  0  0  0  0  0  0  0  0  0  0  0
   -5.0803    0.7895    1.4097 H   0  0  0  0  0  0  0  0  0  0  0  0
   -5.7023    1.4104   -0.1382 H   0  0  0  0  0  0  0  0  0  0  0  0
   -4.6661   -0.0366   -0.1116 H   0  0  0  0  0  0  0  0  0  0  0  0
  1  2  1  0  0  0  0
  1 23  1  0  0  0  0
  1 24  1  0  0  0  0
  1 25  1  0  0  0  0
  2  7  2  0  0  0  0
  2  3  1  0  0  0  0
  3  4  2  0  0  0  0
  3 26  1  0  0  0  0
  4  5  1  0  0  0  0
  4 22  1  0  0  0  0
  5  6  2  0  0  0  0
  5 21  1  0  0  0  0
  6  7  1  0  0  0  0
  6  9  1  0  0  0  0
  7  8  1  0  0  0  0
  8 27  1  0  0  0  0
  8 28  1  0  0  0  0
  8 29  1  0  0  0  0
  9 10  2  0  0  0  0
  9 11  1  0  0  0  0
 11 12  1  0  0  0  0
 11 30  1  0  0  0  0
 11 31  1  0  0  0  0
 12 13  1  0  0  0  0
 13 18  2  0  0  0  0
 13 14  1  0  0  0  0
 14 15  2  0  0  0  0
 15 16  1  0  0  0  0
 15 20  1  0  0  0  0
 16 17  2  0  0  0  0
 16 32  1  0  0  0  0
 17 18  1  0  0  0  0
 17 19  1  0  0  0  0
 19 33  1  0  0  0  0
 19 34  1  0  0  0  0
 20 35  1  0  0  0  0
 20 36  1  0  0  0  0
 21 37  1  0  0  0  0
 21 38  1  0  0  0  0
 21 39  1  0  0  0  0
 22 40  1  0  0  0  0
 22 41  1  0  0  0  0
 22 42  1  0  0  0  0
M  END
$$$$
ZINC00419946
  -OEChem-08230709453D

 43 44  0     0  0  0  0  0  0999 V2000
   -0.2691   -3.9446    0.6539 C   0  0  0  0  0  0  0  0  0  0  0  0
   -1.0465   -3.9752   -0.6636 C   0  0  0  0  0  0  0  0  0  0  0  0
   -2.5069   -4.2151   -0.3796 C   0  0  0  0  0  0  0  0  0  0  0  0
   -2.9217   -4.5143    0.9034 C   0  0  0  0  0  0  0  0  0  0  0  0
   -4.2609   -4.7396    1.1638 C   0  0  0  0  0  0  0  0  0  0  0  0
   -5.1897   -4.6610    0.1423 C   0  0  0  0  0  0  0  0  0  0  0  0
   -4.7820   -4.3575   -1.1419 C   0  0  0  0  0  0  0  0  0  0  0  0
   -3.4378   -4.1306   -1.4067 C   0  0  0  0  0  0  0  0  0  0  0  0
   -3.0214   -3.8233   -2.7067 N   0  0  0  0  0  0  0  0  0  0  0  0
   -2.4689   -2.6228   -2.9713 C   0  0  0  0  0  0  0  0  0  0  0  0
   -2.4425   -1.7652   -2.1141 O   0  0  0  0  0  0  0  0  0  0  0  0
   -1.8840   -2.3461   -4.3323 C   0  0  0  0  0  0  0  0  0  0  0  0
   -1.2244   -0.6610   -4.3743 S   0  0  0  0  0  0  0  0  0  0  0  0
   -0.6221   -0.6093   -6.0293 C   0  0  0  0  0  0  0  0  0  0  0  0
   -0.7571   -1.6843   -6.7969 N   0  0  0  0  0  0  0  0  0  0  0  0
   -0.3253   -1.6902   -8.0449 C   0  0  0  0  0  0  0  0  0  0  0  0
    0.2932   -0.5440   -8.5560 C   0  0  0  0  0  0  0  0  0  0  0  0
    0.4234    0.5775   -7.7081 C   0  0  0  0  0  0  0  0  0  0  0  0
   -0.0435    0.4996   -6.4678 N   0  0  0  0  0  0  0  0  0  0  0  0
    1.0248    1.7342   -8.1608 N   0  0  0  0  0  0  0  0  0  0  0  0
    0.7812   -0.5094   -9.9019 C   0  0  0  0  0  0  0  0  0  0  0  0
    1.1683   -0.4820  -10.9695 N   0  0  0  0  0  0  0  0  0  0  0  0
   -5.7947   -4.2730   -2.2547 C   0  0  0  0  0  0  0  0  0  0  0  0
   -5.8633   -5.6157   -2.9849 C   0  0  0  0  0  0  0  0  0  0  0  0
   -0.2561   -4.9429    1.0914 H   0  0  0  0  0  0  0  0  0  0  0  0
    0.7534   -3.6175    0.4649 H   0  0  0  0  0  0  0  0  0  0  0  0
   -0.7506   -3.2517    1.3439 H   0  0  0  0  0  0  0  0  0  0  0  0
   -0.6623   -4.7775   -1.2936 H   0  0  0  0  0  0  0  0  0  0  0  0
   -0.9281   -3.0213   -1.1775 H   0  0  0  0  0  0  0  0  0  0  0  0
   -2.1987   -4.5764    1.7033 H   0  0  0  0  0  0  0  0  0  0  0  0
   -4.5821   -4.9779    2.1670 H   0  0  0  0  0  0  0  0  0  0  0  0
   -6.2350   -4.8375    0.3489 H   0  0  0  0  0  0  0  0  0  0  0  0
   -3.1304   -4.4743   -3.4175 H   0  0  0  0  0  0  0  0  0  0  0  0
   -2.6607   -2.4512   -5.0898 H   0  0  0  0  0  0  0  0  0  0  0  0
   -1.0814   -3.0555   -4.5340 H   0  0  0  0  0  0  0  0  0  0  0  0
   -0.4440   -2.5692   -8.6611 H   0  0  0  0  0  0  0  0  0  0  0  0
    1.1094    2.4997   -7.5710 H   0  0  0  0  0  0  0  0  0  0  0  0
    1.3629    1.7817   -9.0687 H   0  0  0  0  0  0  0  0  0  0  0  0
   -6.7735   -4.0357   -1.8379 H   0  0  0  0  0  0  0  0  0  0  0  0
   -5.4996   -3.4926   -2.9561 H   0  0  0  0  0  0  0  0  0  0  0  0
   -4.8845   -5.8530   -3.4017 H   0  0  0  0  0  0  0  0  0  0  0  0
   -6.1584   -6.3961   -2.2835 H   0  0  0  0  0  0  0  0  0  0  0  0
   -6.5958   -5.5546   -3.7898 H   0  0  0  0  0  0  0  0  0  0  0  0
  1  2  1  0  0  0  0
  1 25  1  0  0  0  0
  1 26  1  0  0  0  0
  1 27  1  0  0  0  0
  2  3  1  0  0  0  0
  2 28  1  0  0  0  0
  2 29  1  0  0  0  0
  3  8  2  0  0  0  0
  3  4  1  0  0  0  0
  4  5  2  0  0  0  0
  4 30  1  0  0  0  0
  5  6  1  0  0  0  0
  5 31  1  0  0  0  0
  6  7  2  0  0  0  0
  6 32  1  0  0  0  0
  7  8  1  0  0  0  0
  7 23  1  0  0  0  0
  8  9  1  0  0  0  0
  9 10  1  0  0  0  0
  9 33  1  0  0  0  0
 10 11  2  0  0  0  0
 10 12  1  0  0  0  0
 12 13  1  0  0  0  0
 12 34  1  0  0  0  0
 12 35  1  0  0  0  0
 13 14  1  0  0  0  0
 14 19  2  0  0  0  0
 14 15  1  0  0  0  0
 15 16  2  0  0  0  0
 16 17  1  0  0  0  0
 16 36  1  0  0  0  0
 17 18  2  0  0  0  0
 17 21  1  0  0  0  0
 18 19  1  0  0  0  0
 18 20  1  0  0  0  0
 20 37  1  0  0  0  0
 20 38  1  0  0  0  0
 21 22  3  0  0  0  0
 23 24  1  0  0  0  0
 23 39  1  0  0  0  0
 23 40  1  0  0  0  0
 24 41  1  0  0  0  0
 24 42  1  0  0  0  0
 24 43  1  0  0  0  0
M  END
$$$$
ZINC00422019
  -OEChem-08230709453D

 42 43  0     1  0  0  0  0  0999 V2000
   12.4692   -6.9812   -1.2962 C   0  0  0  0  0  0  0  0  0  0  0  0
   12.8418   -5.5332   -1.6207 C   0  0  0  0  0  0  0  0  0  0  0  0
   11.6871   -4.6779   -1.4119 O   0  0  0  0  0  0  0  0  0  0  0  0
   11.8484   -3.3618   -1.6552 C   0  0  0  0  0  0  0  0  0  0  0  0
   12.9248   -2.9407   -2.0316 O   0  0  0  0  0  0  0  0  0  0  0  0
   10.7226   -2.4360   -1.4652 C   0  0  0  0  0  0  0  0  0  0  0  0
    9.5101   -2.8792   -0.9227 C   0  0  0  0  0  0  0  0  0  0  0  0
    8.5232   -2.0169   -0.7686 N   0  0  0  0  0  0  0  0  0  0  0  0
    8.6633   -0.7430   -1.1186 C   0  0  0  0  0  0  0  0  0  0  0  0
    9.7887   -0.2768   -1.6410 N   0  0  0  0  0  0  0  0  0  0  0  0
   10.8337   -1.0745   -1.8254 C   0  0  0  0  0  0  0  0  0  0  0  0
   12.0043   -0.5843   -2.3639 N   0  0  0  0  0  0  0  0  0  0  0  0
    7.3083    0.3595   -0.8879 S   0  0  0  0  0  0  0  0  0  0  0  0
    6.0928   -0.7800   -0.1806 C   0  0  1  0  0  0  0  0  0  0  0  0
    5.9598   -1.6304   -0.8494 H   0  0  0  0  0  0  0  0  0  0  0  0
    6.5882   -1.2739    1.1801 C   0  0  0  0  0  0  0  0  0  0  0  0
    4.7768   -0.0666   -0.0074 C   0  0  0  0  0  0  0  0  0  0  0  0
    4.7435    1.1455    0.0240 O   0  0  0  0  0  0  0  0  0  0  0  0
    3.6367   -0.7753    0.1127 N   0  0  0  0  0  0  0  0  0  0  0  0
    2.4044   -0.1145    0.1654 C   0  0  0  0  0  0  0  0  0  0  0  0
    2.2153    1.0631   -0.5460 C   0  0  0  0  0  0  0  0  0  0  0  0
    0.9976    1.7126   -0.4922 C   0  0  0  0  0  0  0  0  0  0  0  0
   -0.0325    1.1918    0.2693 C   0  0  0  0  0  0  0  0  0  0  0  0
    0.1527    0.0194    0.9788 C   0  0  0  0  0  0  0  0  0  0  0  0
    1.3678   -0.6352    0.9288 C   0  0  0  0  0  0  0  0  0  0  0  0
   11.6567   -7.3021   -1.9480 H   0  0  0  0  0  0  0  0  0  0  0  0
   13.3360   -7.6232   -1.4530 H   0  0  0  0  0  0  0  0  0  0  0  0
   12.1496   -7.0498   -0.2564 H   0  0  0  0  0  0  0  0  0  0  0  0
   13.1614   -5.4646   -2.6605 H   0  0  0  0  0  0  0  0  0  0  0  0
   13.6543   -5.2122   -0.9689 H   0  0  0  0  0  0  0  0  0  0  0  0
    9.3846   -3.9123   -0.6341 H   0  0  0  0  0  0  0  0  0  0  0  0
   12.7893   -1.1518   -2.4157 H   0  0  0  0  0  0  0  0  0  0  0  0
   12.0430    0.3280   -2.6910 H   0  0  0  0  0  0  0  0  0  0  0  0
    5.8562   -1.9601    1.6060 H   0  0  0  0  0  0  0  0  0  0  0  0
    7.5401   -1.7900    1.0548 H   0  0  0  0  0  0  0  0  0  0  0  0
    6.7212   -0.4236    1.8489 H   0  0  0  0  0  0  0  0  0  0  0  0
    3.6704   -1.7434    0.1626 H   0  0  0  0  0  0  0  0  0  0  0  0
    3.0196    1.4707   -1.1403 H   0  0  0  0  0  0  0  0  0  0  0  0
    0.8499    2.6284   -1.0452 H   0  0  0  0  0  0  0  0  0  0  0  0
   -0.9822    1.7041    0.3135 H   0  0  0  0  0  0  0  0  0  0  0  0
   -0.6537   -0.3847    1.5729 H   0  0  0  0  0  0  0  0  0  0  0  0
    1.5116   -1.5510    1.4829 H   0  0  0  0  0  0  0  0  0  0  0  0
  1  2  1  0  0  0  0
  1 26  1  0  0  0  0
  1 27  1  0  0  0  0
  1 28  1  0  0  0  0
  2  3  1  0  0  0  0
  2 29  1  0  0  0  0
  2 30  1  0  0  0  0
  3  4  1  0  0  0  0
  4  5  2  0  0  0  0
  4  6  1  0  0  0  0
  6 11  2  0  0  0  0
  6  7  1  0  0  0  0
  7  8  2  0  0  0  0
  7 31  1  0  0  0  0
  8  9  1  0  0  0  0
  9 10  2  0  0  0  0
  9 13  1  0  0  0  0
 10 11  1  0  0  0  0
 11 12  1  0  0  0  0
 12 32  1  0  0  0  0
 12 33  1  0  0  0  0
 13 14  1  0  0  0  0
 14 15  1  0  0  0  0
 14 16  1  0  0  0  0
 14 17  1  0  0  0  0
 16 34  1  0  0  0  0
 16 35  1  0  0  0  0
 16 36  1  0  0  0  0
 17 18  2  0  0  0  0
 17 19  1  0  0  0  0
 19 20  1  0  0  0  0
 19 37  1  0  0  0  0
 20 25  2  0  0  0  0
 20 21  1  0  0  0  0
 21 22  2  0  0  0  0
 21 38  1  0  0  0  0
 22 23  1  0  0  0  0
 22 39  1  0  0  0  0
 23 24  2  0  0  0  0
 23 40  1  0  0  0  0
 24 25  1  0  0  0  0
 24 41  1  0  0  0  0
 25 42  1  0  0  0  0
M  END
$$$$
ZINC00434653
  -OEChem-08230709453D

 47 49  0     1  0  0  0  0  0999 V2000
   -3.2308    4.6981    2.0170 C   0  0  0  0  0  0  0  0  0  0  0  0
   -1.8767    4.3148    1.4166 C   0  0  0  0  0  0  0  0  0  0  0  0
   -1.9661    3.0140    0.8317 O   0  0  0  0  0  0  0  0  0  0  0  0
   -0.8413    2.5204    0.2503 C   0  0  0  0  0  0  0  0  0  0  0  0
    0.3247    3.2725    0.2430 C   0  0  0  0  0  0  0  0  0  0  0  0
    1.4667    2.7684   -0.3481 C   0  0  0  0  0  0  0  0  0  0  0  0
    1.4486    1.5153   -0.9327 C   0  0  0  0  0  0  0  0  0  0  0  0
    0.2880    0.7640   -0.9271 C   0  0  0  0  0  0  0  0  0  0  0  0
   -0.8584    1.2660   -0.3417 C   0  0  0  0  0  0  0  0  0  0  0  0
   -2.1248    0.4492   -0.3414 C   0  0  1  0  0  0  0  0  0  0  0  0
   -2.9622    1.0689   -0.0209 H   0  0  0  0  0  0  0  0  0  0  0  0
   -2.3864   -0.0845   -1.7267 C   0  0  0  0  0  0  0  0  0  0  0  0
   -2.7945    0.5608   -2.8297 C   0  0  0  0  0  0  0  0  0  0  0  0
   -2.8835   -0.3486   -3.8278 N   0  0  0  0  0  0  0  0  0  0  0  0
   -3.1633   -0.1614   -4.7694 H   0  0  0  0  0  0  0  0  0  0  0  0
   -2.5147   -1.6004   -3.3110 N   0  0  0  0  0  0  0  0  0  0  0  0
   -2.2174   -1.4479   -2.0532 C   0  0  0  0  0  0  0  0  0  0  0  0
   -1.8095   -2.3642   -1.1346 O   0  0  0  0  0  0  0  0  0  0  0  0
   -1.8296   -1.9949    0.1615 C   0  0  0  0  0  0  0  0  0  0  0  0
   -1.9733   -0.7245    0.5930 C   0  0  0  0  0  0  0  0  0  0  0  0
   -1.9817   -0.4794    2.0039 C   0  0  0  0  0  0  0  0  0  0  0  0
   -1.9884   -0.2851    3.1231 N   0  0  0  0  0  0  0  0  0  0  0  0
   -1.6950   -2.9796    1.1083 N   0  0  0  0  0  0  0  0  0  0  0  0
   -3.0998    2.0327   -2.9376 C   0  0  0  0  0  0  0  0  0  0  0  0
   -3.6560    2.3374   -4.3300 C   0  0  0  0  0  0  0  0  0  0  0  0
   -4.1353    2.4177   -1.8792 C   0  0  0  0  0  0  0  0  0  0  0  0
   -1.8178    2.8371   -2.7132 C   0  0  0  0  0  0  0  0  0  0  0  0
   -3.9876    4.7036    1.2326 H   0  0  0  0  0  0  0  0  0  0  0  0
   -3.5067    3.9734    2.7831 H   0  0  0  0  0  0  0  0  0  0  0  0
   -3.1626    5.6903    2.4632 H   0  0  0  0  0  0  0  0  0  0  0  0
   -1.1199    4.3092    2.2010 H   0  0  0  0  0  0  0  0  0  0  0  0
   -1.6007    5.0394    0.6505 H   0  0  0  0  0  0  0  0  0  0  0  0
    0.3393    4.2513    0.6994 H   0  0  0  0  0  0  0  0  0  0  0  0
    2.3745    3.3534   -0.3541 H   0  0  0  0  0  0  0  0  0  0  0  0
    2.3425    1.1229   -1.3947 H   0  0  0  0  0  0  0  0  0  0  0  0
    0.2763   -0.2142   -1.3846 H   0  0  0  0  0  0  0  0  0  0  0  0
   -1.7052   -2.7507    2.0509 H   0  0  0  0  0  0  0  0  0  0  0  0
   -1.5897   -3.9042    0.8348 H   0  0  0  0  0  0  0  0  0  0  0  0
   -4.5693    1.7643   -4.4898 H   0  0  0  0  0  0  0  0  0  0  0  0
   -3.8768    3.4020   -4.4080 H   0  0  0  0  0  0  0  0  0  0  0  0
   -2.9183    2.0632   -5.0840 H   0  0  0  0  0  0  0  0  0  0  0  0
   -3.7391    2.2005   -0.8873 H   0  0  0  0  0  0  0  0  0  0  0  0
   -4.3561    3.4822   -1.9572 H   0  0  0  0  0  0  0  0  0  0  0  0
   -5.0486    1.8445   -2.0391 H   0  0  0  0  0  0  0  0  0  0  0  0
   -1.0316    2.4571   -3.3655 H   0  0  0  0  0  0  0  0  0  0  0  0
   -2.0031    3.8869   -2.9409 H   0  0  0  0  0  0  0  0  0  0  0  0
   -1.5056    2.7405   -1.6734 H   0  0  0  0  0  0  0  0  0  0  0  0
  1  2  1  0  0  0  0
  1 28  1  0  0  0  0
  1 29  1  0  0  0  0
  1 30  1  0  0  0  0
  2  3  1  0  0  0  0
  2 31  1  0  0  0  0
  2 32  1  0  0  0  0
  3  4  1  0  0  0  0
  4  9  2  0  0  0  0
  4  5  1  0  0  0  0
  5  6  2  0  0  0  0
  5 33  1  0  0  0  0
  6  7  1  0  0  0  0
  6 34  1  0  0  0  0
  7  8  2  0  0  0  0
  7 35  1  0  0  0  0
  8  9  1  0  0  0  0
  8 36  1  0  0  0  0
  9 10  1  0  0  0  0
 10 11  1  0  0  0  0
 10 20  1  0  0  0  0
 10 12  1  0  0  0  0
 12 17  1  0  0  0  0
 12 13  2  0  0  0  0
 13 14  1  0  0  0  0
 13 24  1  0  0  0  0
 14 15  1  0  0  0  0
 14 16  1  0  0  0  0
 16 17  2  0  0  0  0
 17 18  1  0  0  0  0
 18 19  1  0  0  0  0
 19 20  2  0  0  0  0
 19 23  1  0  0  0  0
 20 21  1  0  0  0  0
 21 22  3  0  0  0  0
 23 37  1  0  0  0  0
 23 38  1  0  0  0  0
 24 25  1  0  0  0  0
 24 26  1  0  0  0  0
 24 27  1  0  0  0  0
 25 39  1  0  0  0  0
 25 40  1  0  0  0  0
 25 41  1  0  0  0  0
 26 42  1  0  0  0  0
 26 43  1  0  0  0  0
 26 44  1  0  0  0  0
 27 45  1  0  0  0  0
 27 46  1  0  0  0  0
 27 47  1  0  0  0  0
M  END
$$$$
ZINC00434653
  -OEChem-08230709453D

 47 49  0     1  0  0  0  0  0999 V2000
   -3.2306    4.6976    2.0174 C   0  0  0  0  0  0  0  0  0  0  0  0
   -1.8766    4.3151    1.4163 C   0  0  0  0  0  0  0  0  0  0  0  0
   -1.9656    3.0143    0.8314 O   0  0  0  0  0  0  0  0  0  0  0  0
   -0.8408    2.5213    0.2494 C   0  0  0  0  0  0  0  0  0  0  0  0
    0.3247    3.2741    0.2416 C   0  0  0  0  0  0  0  0  0  0  0  0
    1.4667    2.7706   -0.3501 C   0  0  0  0  0  0  0  0  0  0  0  0
    1.4490    1.5176   -0.9348 C   0  0  0  0  0  0  0  0  0  0  0  0
    0.2888    0.7656   -0.9286 C   0  0  0  0  0  0  0  0  0  0  0  0
   -0.8575    1.2670   -0.3426 C   0  0  0  0  0  0  0  0  0  0  0  0
   -2.1235    0.4494   -0.3417 C   0  0  1  0  0  0  0  0  0  0  0  0
   -2.9611    1.0687   -0.0208 H   0  0  0  0  0  0  0  0  0  0  0  0
   -2.3855   -0.0843   -1.7269 C   0  0  0  0  0  0  0  0  0  0  0  0
   -2.7942    0.5609   -2.8298 C   0  0  0  0  0  0  0  0  0  0  0  0
   -2.8830   -0.3485   -3.8279 N   0  0  0  0  0  0  0  0  0  0  0  0
   -2.4861   -2.4603   -3.8206 H   0  0  0  0  0  0  0  0  0  0  0  0
   -2.5144   -1.6003   -3.3111 N   0  0  0  0  0  0  0  0  0  0  0  0
   -2.2159   -1.4476   -2.0536 C   0  0  0  0  0  0  0  0  0  0  0  0
   -1.8070   -2.3637   -1.1352 O   0  0  0  0  0  0  0  0  0  0  0  0
   -1.8267   -1.9945    0.1609 C   0  0  0  0  0  0  0  0  0  0  0  0
   -1.9709   -0.7242    0.5925 C   0  0  0  0  0  0  0  0  0  0  0  0
   -1.9787   -0.4792    2.0034 C   0  0  0  0  0  0  0  0  0  0  0  0
   -1.9849   -0.2849    3.1227 N   0  0  0  0  0  0  0  0  0  0  0  0
   -1.6910   -2.9792    1.1076 N   0  0  0  0  0  0  0  0  0  0  0  0
   -3.0994    2.0328   -2.9377 C   0  0  0  0  0  0  0  0  0  0  0  0
   -3.6552    2.3376   -4.3302 C   0  0  0  0  0  0  0  0  0  0  0  0
   -4.1351    2.4178   -1.8796 C   0  0  0  0  0  0  0  0  0  0  0  0
   -1.8174    2.8371   -2.7130 C   0  0  0  0  0  0  0  0  0  0  0  0
   -3.9878    4.7027    1.2334 H   0  0  0  0  0  0  0  0  0  0  0  0
   -3.5058    3.9727    2.7836 H   0  0  0  0  0  0  0  0  0  0  0  0
   -3.1628    5.6898    2.4636 H   0  0  0  0  0  0  0  0  0  0  0  0
   -1.1194    4.3099    2.2003 H   0  0  0  0  0  0  0  0  0  0  0  0
   -1.6014    5.0399    0.6501 H   0  0  0  0  0  0  0  0  0  0  0  0
    0.3390    4.2529    0.6980 H   0  0  0  0  0  0  0  0  0  0  0  0
    2.3742    3.3561   -0.3566 H   0  0  0  0  0  0  0  0  0  0  0  0
    2.3429    1.1257   -1.3973 H   0  0  0  0  0  0  0  0  0  0  0  0
    0.2775   -0.2126   -1.3862 H   0  0  0  0  0  0  0  0  0  0  0  0
   -1.7009   -2.7503    2.0502 H   0  0  0  0  0  0  0  0  0  0  0  0
   -1.5854   -3.9037    0.8340 H   0  0  0  0  0  0  0  0  0  0  0  0
   -4.5685    1.7645   -4.4903 H   0  0  0  0  0  0  0  0  0  0  0  0
   -3.8759    3.4022   -4.4083 H   0  0  0  0  0  0  0  0  0  0  0  0
   -2.9173    2.0633   -5.0841 H   0  0  0  0  0  0  0  0  0  0  0  0
   -3.7392    2.2006   -0.8876 H   0  0  0  0  0  0  0  0  0  0  0  0
   -4.3558    3.4823   -1.9576 H   0  0  0  0  0  0  0  0  0  0  0  0
   -5.0484    1.8447   -2.0397 H   0  0  0  0  0  0  0  0  0  0  0  0
   -1.0310    2.4571   -3.3651 H   0  0  0  0  0  0  0  0  0  0  0  0
   -2.0026    3.8869   -2.9407 H   0  0  0  0  0  0  0  0  0  0  0  0
   -1.5054    2.7404   -1.6731 H   0  0  0  0  0  0  0  0  0  0  0  0
  1  2  1  0  0  0  0
  1 28  1  0  0  0  0
  1 29  1  0  0  0  0
  1 30  1  0  0  0  0
  2  3  1  0  0  0  0
  2 31  1  0  0  0  0
  2 32  1  0  0  0  0
  3  4  1  0  0  0  0
  4  9  2  0  0  0  0
  4  5  1  0  0  0  0
  5  6  2  0  0  0  0
  5 33  1  0  0  0  0
  6  7  1  0  0  0  0
  6 34  1  0  0  0  0
  7  8  2  0  0  0  0
  7 35  1  0  0  0  0
  8  9  1  0  0  0  0
  8 36  1  0  0  0  0
  9 10  1  0  0  0  0
 10 11  1  0  0  0  0
 10 20  1  0  0  0  0
 10 12  1  0  0  0  0
 12 13  1  0  0  0  0
 12 17  2  0  0  0  0
 13 24  1  0  0  0  0
 13 14  2  0  0  0  0
 14 16  1  0  0  0  0
 15 16  1  0  0  0  0
 16 17  1  0  0  0  0
 17 18  1  0  0  0  0
 18 19  1  0  0  0  0
 19 20  2  0  0  0  0
 19 23  1  0  0  0  0
 20 21  1  0  0  0  0
 21 22  3  0  0  0  0
 23 37  1  0  0  0  0
 23 38  1  0  0  0  0
 24 25  1  0  0  0  0
 24 26  1  0  0  0  0
 24 27  1  0  0  0  0
 25 39  1  0  0  0  0
 25 40  1  0  0  0  0
 25 41  1  0  0  0  0
 26 42  1  0  0  0  0
 26 43  1  0  0  0  0
 26 44  1  0  0  0  0
 27 45  1  0  0  0  0
 27 46  1  0  0  0  0
 27 47  1  0  0  0  0
M  END
$$$$
ZINC00459455
  -OEChem-08230709453D

 39 40  0     0  0  0  0  0  0999 V2000
    5.6924   -9.9112    1.2874 C   0  0  0  0  0  0  0  0  0  0  0  0
    5.0858   -9.6834   -0.0986 C   0  0  0  0  0  0  0  0  0  0  0  0
    4.2012  -10.8752   -0.4702 C   0  0  0  0  0  0  0  0  0  0  0  0
    6.2076   -9.5401   -1.1290 C   0  0  0  0  0  0  0  0  0  0  0  0
    4.2546   -8.4265   -0.0828 C   0  0  0  0  0  0  0  0  0  0  0  0
    4.7427   -7.1178   -0.0855 C   0  0  0  0  0  0  0  0  0  0  0  0
    3.6200   -6.3079   -0.0649 C   0  0  0  0  0  0  0  0  0  0  0  0
    2.5431   -7.1483   -0.0591 N   0  0  0  0  0  0  0  0  0  0  0  0
    1.5861   -6.8586   -0.0482 H   0  0  0  0  0  0  0  0  0  0  0  0
    2.9473   -8.3674   -0.0698 N   0  0  0  0  0  0  0  0  0  0  0  0
    3.5924   -4.8371   -0.0572 C   0  0  0  0  0  0  0  0  0  0  0  0
    4.6345   -4.2090   -0.0642 O   0  0  0  0  0  0  0  0  0  0  0  0
    2.4128   -4.1854   -0.0425 N   0  0  0  0  0  0  0  0  0  0  0  0
    2.3865   -2.7846   -0.0352 N   0  0  0  0  0  0  0  0  0  0  0  0
    1.2502   -2.1568   -0.0210 C   0  0  0  0  0  0  0  0  0  0  0  0
    1.2225   -0.6834   -0.0133 C   0  0  0  0  0  0  0  0  0  0  0  0
    0.0021   -0.0041    0.0020 C   0  0  0  0  0  0  0  0  0  0  0  0
   -0.0166    1.3758    0.0096 C   0  0  0  0  0  0  0  0  0  0  0  0
    1.1706    2.0900    0.0021 C   0  0  0  0  0  0  0  0  0  0  0  0
    2.3839    1.4285   -0.0130 C   0  0  0  0  0  0  0  0  0  0  0  0
    2.4205    0.0439   -0.0208 C   0  0  0  0  0  0  0  0  0  0  0  0
    3.6128   -0.6066   -0.0361 O   0  0  0  0  0  0  0  0  0  0  0  0
   -1.5335    2.2199    0.0214 Cl  0  0  0  0  0  0  0  0  0  0  0  0
    4.8932  -10.0133    2.0215 H   0  0  0  0  0  0  0  0  0  0  0  0
    6.2936  -10.8203    1.2760 H   0  0  0  0  0  0  0  0  0  0  0  0
    6.3226   -9.0621    1.5522 H   0  0  0  0  0  0  0  0  0  0  0  0
    3.7690  -10.7129   -1.4576 H   0  0  0  0  0  0  0  0  0  0  0  0
    4.8024  -11.7843   -0.4816 H   0  0  0  0  0  0  0  0  0  0  0  0
    3.4019  -10.9773    0.2639 H   0  0  0  0  0  0  0  0  0  0  0  0
    6.8378   -8.6910   -0.8643 H   0  0  0  0  0  0  0  0  0  0  0  0
    6.8088  -10.4492   -1.1405 H   0  0  0  0  0  0  0  0  0  0  0  0
    5.7755   -9.3778   -2.1164 H   0  0  0  0  0  0  0  0  0  0  0  0
    5.7761   -6.8044   -0.0990 H   0  0  0  0  0  0  0  0  0  0  0  0
    1.5821   -4.6861   -0.0369 H   0  0  0  0  0  0  0  0  0  0  0  0
    0.3252   -2.7143   -0.0148 H   0  0  0  0  0  0  0  0  0  0  0  0
   -0.9252   -0.5577    0.0082 H   0  0  0  0  0  0  0  0  0  0  0  0
    1.1477    3.1698    0.0081 H   0  0  0  0  0  0  0  0  0  0  0  0
    3.3052    1.9922   -0.0187 H   0  0  0  0  0  0  0  0  0  0  0  0
    3.9495   -0.7899   -0.9239 H   0  0  0  0  0  0  0  0  0  0  0  0
  1  2  1  0  0  0  0
  1 24  1  0  0  0  0
  1 25  1  0  0  0  0
  1 26  1  0  0  0  0
  2  3  1  0  0  0  0
  2  4  1  0  0  0  0
  2  5  1  0  0  0  0
  3 27  1  0  0  0  0
  3 28  1  0  0  0  0
  3 29  1  0  0  0  0
  4 30  1  0  0  0  0
  4 31  1  0  0  0  0
  4 32  1  0  0  0  0
  5 10  2  0  0  0  0
  5  6  1  0  0  0  0
  6  7  2  0  0  0  0
  6 33  1  0  0  0  0
  7  8  1  0  0  0  0
  7 11  1  0  0  0  0
  8  9  1  0  0  0  0
  8 10  1  0  0  0  0
 11 12  2  0  0  0  0
 11 13  1  0  0  0  0
 13 14  1  0  0  0  0
 13 34  1  0  0  0  0
 14 15  2  0  0  0  0
 15 16  1  0  0  0  0
 15 35  1  0  0  0  0
 16 21  2  0  0  0  0
 16 17  1  0  0  0  0
 17 18  2  0  0  0  0
 17 36  1  0  0  0  0
 18 19  1  0  0  0  0
 18 23  1  0  0  0  0
 19 20  2  0  0  0  0
 19 37  1  0  0  0  0
 20 21  1  0  0  0  0
 20 38  1  0  0  0  0
 21 22  1  0  0  0  0
 22 39  1  0  0  0  0
M  END
$$$$
ZINC00459779
  -OEChem-08230709453D

 37 38  0     0  0  0  0  0  0999 V2000
   -6.1143    1.3277    0.0696 C   0  0  0  0  0  0  0  0  0  0  0  0
   -4.7648    0.7578    0.0531 N   0  0  0  0  0  0  0  0  0  0  0  0
   -4.5981   -0.5796    0.0438 C   0  0  0  0  0  0  0  0  0  0  0  0
   -5.9634   -1.6125    0.0513 S   0  0  0  0  0  0  0  0  0  0  0  0
   -3.3566   -1.1038    0.0287 N   0  0  0  0  0  0  0  0  0  0  0  0
   -2.3278   -0.3256    0.0230 N   0  0  0  0  0  0  0  0  0  0  0  0
   -1.1053   -0.8418    0.0081 C   0  0  0  0  0  0  0  0  0  0  0  0
    0.0021   -0.0041    0.0020 C   0  0  0  0  0  0  0  0  0  0  0  0
    1.4097   -0.4227   -0.0137 C   0  0  0  0  0  0  0  0  0  0  0  0
    2.1477    0.7169   -0.0146 C   0  0  0  0  0  0  0  0  0  0  0  0
    1.2462    1.8091   -0.0001 C   0  0  0  0  0  0  0  0  0  0  0  0
   -0.0162    1.3468    0.0094 O   0  0  0  0  0  0  0  0  0  0  0  0
    1.6159    3.1724    0.0037 C   0  0  0  0  0  0  0  0  0  0  0  0
    2.5617    3.6502    0.9325 C   0  0  0  0  0  0  0  0  0  0  0  0
    2.9167    4.9656    0.9258 C   0  0  0  0  0  0  0  0  0  0  0  0
    2.3454    5.8487    0.0150 C   0  0  0  0  0  0  0  0  0  0  0  0
    1.4120    5.4077   -0.9020 C   0  0  0  0  0  0  0  0  0  0  0  0
    1.0353    4.0731   -0.9222 C   0  0  0  0  0  0  0  0  0  0  0  0
    0.1203    3.6353   -1.8187 O   0  0  0  0  0  0  0  0  0  0  0  0
   -0.4200    4.6038   -2.7199 C   0  0  0  0  0  0  0  0  0  0  0  0
    2.7417    7.2748    0.0295 N   0  3  0  0  0  0  0  0  0  0  0  0
    2.2045    8.1163   -0.8295 O   0  0  0  0  0  0  0  0  0  0  0  0
    3.6313    7.7022    0.9015 O   0  5  0  0  0  0  0  0  0  0  0  0
   -6.6576    1.0007   -0.8170 H   0  0  0  0  0  0  0  0  0  0  0  0
   -6.6402    0.9905    0.9629 H   0  0  0  0  0  0  0  0  0  0  0  0
   -6.0492    2.4157    0.0752 H   0  0  0  0  0  0  0  0  0  0  0  0
   -3.9912    1.3430    0.0489 H   0  0  0  0  0  0  0  0  0  0  0  0
   -3.2366   -2.0664    0.0220 H   0  0  0  0  0  0  0  0  0  0  0  0
   -0.9717   -1.9135    0.0007 H   0  0  0  0  0  0  0  0  0  0  0  0
    1.7835   -1.4359   -0.0230 H   0  0  0  0  0  0  0  0  0  0  0  0
    3.2258    0.7792   -0.0240 H   0  0  0  0  0  0  0  0  0  0  0  0
    3.0078    2.9735    1.6463 H   0  0  0  0  0  0  0  0  0  0  0  0
    3.6451    5.3269    1.6367 H   0  0  0  0  0  0  0  0  0  0  0  0
    0.9748    6.1026   -1.6037 H   0  0  0  0  0  0  0  0  0  0  0  0
   -1.1389    4.1222   -3.3826 H   0  0  0  0  0  0  0  0  0  0  0  0
   -0.9186    5.3896   -2.1524 H   0  0  0  0  0  0  0  0  0  0  0  0
    0.3855    5.0385   -3.3118 H   0  0  0  0  0  0  0  0  0  0  0  0
  1  2  1  0  0  0  0
  1 24  1  0  0  0  0
  1 25  1  0  0  0  0
  1 26  1  0  0  0  0
  2  3  1  0  0  0  0
  2 27  1  0  0  0  0
  3  4  2  0  0  0  0
  3  5  1  0  0  0  0
  5  6  1  0  0  0  0
  5 28  1  0  0  0  0
  6  7  2  0  0  0  0
  7  8  1  0  0  0  0
  7 29  1  0  0  0  0
  8 12  1  0  0  0  0
  8  9  2  0  0  0  0
  9 10  1  0  0  0  0
  9 30  1  0  0  0  0
 10 11  2  0  0  0  0
 10 31  1  0  0  0  0
 11 12  1  0  0  0  0
 11 13  1  0  0  0  0
 13 18  2  0  0  0  0
 13 14  1  0  0  0  0
 14 15  2  0  0  0  0
 14 32  1  0  0  0  0
 15 16  1  0  0  0  0
 15 33  1  0  0  0  0
 16 17  2  0  0  0  0
 16 21  1  0  0  0  0
 17 18  1  0  0  0  0
 17 34  1  0  0  0  0
 18 19  1  0  0  0  0
 19 20  1  0  0  0  0
 20 35  1  0  0  0  0
 20 36  1  0  0  0  0
 20 37  1  0  0  0  0
 21 22  2  0  0  0  0
 21 23  1  0  0  0  0
M  CHG  2  21   1  23  -1
M  END
$$$$
ZINC00472489
  -OEChem-08230709453D

 40 42  0     0  0  0  0  0  0999 V2000
   -1.9602    0.7774    0.8473 C   0  0  0  0  0  0  0  0  0  0  0  0
   -0.9481    1.6744    0.1824 C   0  0  0  0  0  0  0  0  0  0  0  0
    0.0083    1.1332   -0.6575 C   0  0  0  0  0  0  0  0  0  0  0  0
    0.9354    1.9533   -1.2737 C   0  0  0  0  0  0  0  0  0  0  0  0
    0.9124    3.3158   -1.0479 C   0  0  0  0  0  0  0  0  0  0  0  0
   -0.0433    3.8618   -0.2011 C   0  0  0  0  0  0  0  0  0  0  0  0
   -0.9733    3.0350    0.4164 C   0  0  0  0  0  0  0  0  0  0  0  0
   -0.0691    5.2407    0.0299 N   0  0  0  0  0  0  0  0  0  0  0  0
    1.1141    5.9469    0.1272 C   0  0  0  0  0  0  0  0  0  0  0  0
    1.0914    7.2736    0.2348 N   0  0  0  0  0  0  0  0  0  0  0  0
    2.2226    7.9501    0.3278 C   0  0  0  0  0  0  0  0  0  0  0  0
    3.3806    7.3131    0.3144 N   0  0  0  0  0  0  0  0  0  0  0  0
    3.4114    5.9868    0.2070 C   0  0  0  0  0  0  0  0  0  0  0  0
    2.2758    5.3027    0.1188 N   0  0  0  0  0  0  0  0  0  0  0  0
    4.6210    5.3227    0.1926 N   0  0  0  0  0  0  0  0  0  0  0  0
    2.1924    9.4519    0.4491 C   0  0  0  0  0  0  0  0  0  0  0  0
    2.1233    9.9148    2.1975 S   0  0  0  0  0  0  0  0  0  0  0  0
    2.0981   11.6703    2.0485 C   0  0  0  0  0  0  0  0  0  0  0  0
    2.1314   12.3460    0.9236 N   0  0  0  0  0  0  0  0  0  0  0  0
    2.0935   13.6615    1.1944 C   0  0  0  0  0  0  0  0  0  0  0  0
    2.0442   13.8176    2.5283 C   0  0  0  0  0  0  0  0  0  0  0  0
    2.0467   12.5563    3.0805 N   0  0  0  0  0  0  0  0  0  0  0  0
    2.0020   12.2299    4.5079 C   0  0  0  0  0  0  0  0  0  0  0  0
   -1.5706    0.4393    1.8075 H   0  0  0  0  0  0  0  0  0  0  0  0
   -2.8867    1.3293    1.0051 H   0  0  0  0  0  0  0  0  0  0  0  0
   -2.1551   -0.0853    0.2102 H   0  0  0  0  0  0  0  0  0  0  0  0
    0.0282    0.0682   -0.8359 H   0  0  0  0  0  0  0  0  0  0  0  0
    1.6781    1.5281   -1.9324 H   0  0  0  0  0  0  0  0  0  0  0  0
    1.6366    3.9559   -1.5298 H   0  0  0  0  0  0  0  0  0  0  0  0
   -1.7176    3.4564    1.0759 H   0  0  0  0  0  0  0  0  0  0  0  0
   -0.9178    5.7012    0.1219 H   0  0  0  0  0  0  0  0  0  0  0  0
    5.4495    5.8225    0.2607 H   0  0  0  0  0  0  0  0  0  0  0  0
    4.6427    4.3561    0.1143 H   0  0  0  0  0  0  0  0  0  0  0  0
    3.0916    9.8710   -0.0025 H   0  0  0  0  0  0  0  0  0  0  0  0
    1.3130    9.8402   -0.0646 H   0  0  0  0  0  0  0  0  0  0  0  0
    2.1055   14.4577    0.4648 H   0  0  0  0  0  0  0  0  0  0  0  0
    2.0095   14.7541    3.0650 H   0  0  0  0  0  0  0  0  0  0  0  0
    3.0178   12.1664    4.8981 H   0  0  0  0  0  0  0  0  0  0  0  0
    1.4558   13.0077    5.0416 H   0  0  0  0  0  0  0  0  0  0  0  0
    1.4993   11.2727    4.6462 H   0  0  0  0  0  0  0  0  0  0  0  0
  1  2  1  0  0  0  0
  1 24  1  0  0  0  0
  1 25  1  0  0  0  0
  1 26  1  0  0  0  0
  2  7  2  0  0  0  0
  2  3  1  0  0  0  0
  3  4  2  0  0  0  0
  3 27  1  0  0  0  0
  4  5  1  0  0  0  0
  4 28  1  0  0  0  0
  5  6  2  0  0  0  0
  5 29  1  0  0  0  0
  6  7  1  0  0  0  0
  6  8  1  0  0  0  0
  7 30  1  0  0  0  0
  8  9  1  0  0  0  0
  8 31  1  0  0  0  0
  9 14  2  0  0  0  0
  9 10  1  0  0  0  0
 10 11  2  0  0  0  0
 11 12  1  0  0  0  0
 11 16  1  0  0  0  0
 12 13  2  0  0  0  0
 13 14  1  0  0  0  0
 13 15  1  0  0  0  0
 15 32  1  0  0  0  0
 15 33  1  0  0  0  0
 16 17  1  0  0  0  0
 16 34  1  0  0  0  0
 16 35  1  0  0  0  0
 17 18  1  0  0  0  0
 18 22  1  0  0  0  0
 18 19  2  0  0  0  0
 19 20  1  0  0  0  0
 20 21  2  0  0  0  0
 20 36  1  0  0  0  0
 21 22  1  0  0  0  0
 21 37  1  0  0  0  0
 22 23  1  0  0  0  0
 23 38  1  0  0  0  0
 23 39  1  0  0  0  0
 23 40  1  0  0  0  0
M  END
$$$$
ZINC00472534
  -OEChem-08230709453D

 44 45  0     1  0  0  0  0  0999 V2000
   -1.2786    7.8146    0.4789 C   0  0  0  0  0  0  0  0  0  0  0  0
   -1.2563    6.3127    0.3569 C   0  0  0  0  0  0  0  0  0  0  0  0
   -0.2392    5.6926   -0.3454 C   0  0  0  0  0  0  0  0  0  0  0  0
   -0.2159    4.3164   -0.4591 C   0  0  0  0  0  0  0  0  0  0  0  0
   -1.2153    3.5552    0.1328 C   0  0  0  0  0  0  0  0  0  0  0  0
   -2.2385    4.1814    0.8325 C   0  0  0  0  0  0  0  0  0  0  0  0
   -2.2527    5.5576    0.9478 C   0  0  0  0  0  0  0  0  0  0  0  0
   -1.1946    2.1607    0.0195 N   0  0  0  0  0  0  0  0  0  0  0  0
   -0.0184    1.5027    0.0118 C   0  0  0  0  0  0  0  0  0  0  0  0
    1.0237    2.1232    0.0133 O   0  0  0  0  0  0  0  0  0  0  0  0
    0.0019   -0.0041   -0.0051 C   0  0  1  0  0  0  0  0  0  0  0  0
   -0.8320   -0.3853    0.5844 H   0  0  0  0  0  0  0  0  0  0  0  0
   -0.1243   -0.4998   -1.4471 C   0  0  0  0  0  0  0  0  0  0  0  0
    1.5601   -0.5945    0.7016 S   0  0  0  0  0  0  0  0  0  0  0  0
    1.2588   -2.3305    0.6993 C   0  0  0  0  0  0  0  0  0  0  0  0
    0.1089   -2.7865    0.2485 N   0  0  0  0  0  0  0  0  0  0  0  0
   -0.1510   -4.1032    0.2284 C   0  0  0  0  0  0  0  0  0  0  0  0
   -1.2219   -4.5111   -0.1978 O   0  0  0  0  0  0  0  0  0  0  0  0
    0.8135   -5.0132    0.7054 C   0  0  0  0  0  0  0  0  0  0  0  0
    2.0006   -4.5296    1.1755 C   0  0  0  0  0  0  0  0  0  0  0  0
    2.2178   -3.1766    1.1693 N   0  0  0  0  0  0  0  0  0  0  0  0
    3.4849   -2.6382    1.6701 C   0  0  0  0  0  0  0  0  0  0  0  0
    3.3637   -2.3589    3.1460 C   0  0  0  0  0  0  0  0  0  0  0  0
    4.2189   -2.8885    3.9852 C   0  0  0  0  0  0  0  0  0  0  0  0
    2.9650   -5.3887    1.6493 N   0  0  0  0  0  0  0  0  0  0  0  0
   -1.8411    8.2384   -0.3530 H   0  0  0  0  0  0  0  0  0  0  0  0
   -1.7531    8.0957    1.4191 H   0  0  0  0  0  0  0  0  0  0  0  0
   -0.2576    8.1960    0.4590 H   0  0  0  0  0  0  0  0  0  0  0  0
    0.5376    6.2851   -0.8058 H   0  0  0  0  0  0  0  0  0  0  0  0
    0.5789    3.8326   -1.0075 H   0  0  0  0  0  0  0  0  0  0  0  0
   -3.0196    3.5925    1.2902 H   0  0  0  0  0  0  0  0  0  0  0  0
   -3.0454    6.0449    1.4959 H   0  0  0  0  0  0  0  0  0  0  0  0
   -2.0267    1.6676   -0.0535 H   0  0  0  0  0  0  0  0  0  0  0  0
   -0.1096   -1.5896   -1.4593 H   0  0  0  0  0  0  0  0  0  0  0  0
   -1.0627   -0.1442   -1.8727 H   0  0  0  0  0  0  0  0  0  0  0  0
    0.7095   -0.1186   -2.0366 H   0  0  0  0  0  0  0  0  0  0  0  0
    0.6168   -6.0751    0.6995 H   0  0  0  0  0  0  0  0  0  0  0  0
    4.2801   -3.3645    1.5018 H   0  0  0  0  0  0  0  0  0  0  0  0
    3.7201   -1.7133    1.1434 H   0  0  0  0  0  0  0  0  0  0  0  0
    2.5719   -1.7221    3.5118 H   0  0  0  0  0  0  0  0  0  0  0  0
    4.1320   -2.6883    5.0430 H   0  0  0  0  0  0  0  0  0  0  0  0
    5.0107   -3.5253    3.6194 H   0  0  0  0  0  0  0  0  0  0  0  0
    3.8059   -5.0378    1.9820 H   0  0  0  0  0  0  0  0  0  0  0  0
    2.8041   -6.3453    1.6506 H   0  0  0  0  0  0  0  0  0  0  0  0
  1  2  1  0  0  0  0
  1 26  1  0  0  0  0
  1 27  1  0  0  0  0
  1 28  1  0  0  0  0
  2  7  2  0  0  0  0
  2  3  1  0  0  0  0
  3  4  2  0  0  0  0
  3 29  1  0  0  0  0
  4  5  1  0  0  0  0
  4 30  1  0  0  0  0
  5  6  2  0  0  0  0
  5  8  1  0  0  0  0
  6  7  1  0  0  0  0
  6 31  1  0  0  0  0
  7 32  1  0  0  0  0
  8  9  1  0  0  0  0
  8 33  1  0  0  0  0
  9 10  2  0  0  0  0
  9 11  1  0  0  0  0
 11 12  1  0  0  0  0
 11 13  1  0  0  0  0
 11 14  1  0  0  0  0
 13 34  1  0  0  0  0
 13 35  1  0  0  0  0
 13 36  1  0  0  0  0
 14 15  1  0  0  0  0
 15 21  1  0  0  0  0
 15 16  2  0  0  0  0
 16 17  1  0  0  0  0
 17 18  2  0  0  0  0
 17 19  1  0  0  0  0
 19 20  2  0  0  0  0
 19 37  1  0  0  0  0
 20 21  1  0  0  0  0
 20 25  1  0  0  0  0
 21 22  1  0  0  0  0
 22 23  1  0  0  0  0
 22 38  1  0  0  0  0
 22 39  1  0  0  0  0
 23 24  2  0  0  0  0
 23 40  1  0  0  0  0
 24 41  1  0  0  0  0
 24 42  1  0  0  0  0
 25 43  1  0  0  0  0
 25 44  1  0  0  0  0
M  END
$$$$
ZINC00472535
  -OEChem-08230709453D

 44 45  0     1  0  0  0  0  0999 V2000
    3.1514    9.5134   -7.5218 C   0  0  0  0  0  0  0  0  0  0  0  0
    2.2967    8.3462   -7.0998 C   0  0  0  0  0  0  0  0  0  0  0  0
    2.5749    7.6775   -5.9218 C   0  0  0  0  0  0  0  0  0  0  0  0
    1.7935    6.6075   -5.5322 C   0  0  0  0  0  0  0  0  0  0  0  0
    0.7270    6.2035   -6.3247 C   0  0  0  0  0  0  0  0  0  0  0  0
    0.4532    6.8741   -7.5096 C   0  0  0  0  0  0  0  0  0  0  0  0
    1.2355    7.9464   -7.8912 C   0  0  0  0  0  0  0  0  0  0  0  0
   -0.0663    5.1195   -5.9331 N   0  0  0  0  0  0  0  0  0  0  0  0
   -0.3203    4.9075   -4.6266 C   0  0  0  0  0  0  0  0  0  0  0  0
    0.2060    5.6050   -3.7855 O   0  0  0  0  0  0  0  0  0  0  0  0
   -1.2584    3.8038   -4.2108 C   0  0  2  0  0  0  0  0  0  0  0  0
   -1.0877    2.9272   -4.8357 H   0  0  0  0  0  0  0  0  0  0  0  0
   -2.7048    4.2743   -4.3763 C   0  0  0  0  0  0  0  0  0  0  0  0
   -0.9573    3.3771   -2.4777 S   0  0  0  0  0  0  0  0  0  0  0  0
   -2.0473    2.0033   -2.3070 C   0  0  0  0  0  0  0  0  0  0  0  0
   -2.7624    1.6129   -3.3413 N   0  0  0  0  0  0  0  0  0  0  0  0
   -3.6064    0.5738   -3.2439 C   0  0  0  0  0  0  0  0  0  0  0  0
   -4.2668    0.2264   -4.2125 O   0  0  0  0  0  0  0  0  0  0  0  0
   -3.7277   -0.1155   -2.0208 C   0  0  0  0  0  0  0  0  0  0  0  0
   -2.9778    0.2939   -0.9560 C   0  0  0  0  0  0  0  0  0  0  0  0
   -2.1313    1.3607   -1.1085 N   0  0  0  0  0  0  0  0  0  0  0  0
   -1.3185    1.8155    0.0223 C   0  0  0  0  0  0  0  0  0  0  0  0
    0.0016    1.0887    0.0166 C   0  0  0  0  0  0  0  0  0  0  0  0
    1.1225    1.7667    0.0105 C   0  0  0  0  0  0  0  0  0  0  0  0
   -3.0709   -0.3552    0.2534 N   0  0  0  0  0  0  0  0  0  0  0  0
    3.9793    9.1550   -8.1336 H   0  0  0  0  0  0  0  0  0  0  0  0
    2.5494   10.2144   -8.0999 H   0  0  0  0  0  0  0  0  0  0  0  0
    3.5439   10.0149   -6.6372 H   0  0  0  0  0  0  0  0  0  0  0  0
    3.4044    7.9922   -5.3059 H   0  0  0  0  0  0  0  0  0  0  0  0
    2.0113    6.0857   -4.6121 H   0  0  0  0  0  0  0  0  0  0  0  0
   -0.3730    6.5597   -8.1301 H   0  0  0  0  0  0  0  0  0  0  0  0
    1.0207    8.4707   -8.8106 H   0  0  0  0  0  0  0  0  0  0  0  0
   -0.4335    4.5205   -6.6020 H   0  0  0  0  0  0  0  0  0  0  0  0
   -2.8861    4.5312   -5.4200 H   0  0  0  0  0  0  0  0  0  0  0  0
   -3.3832    3.4760   -4.0755 H   0  0  0  0  0  0  0  0  0  0  0  0
   -2.8755    5.1509   -3.7514 H   0  0  0  0  0  0  0  0  0  0  0  0
   -4.4029   -0.9532   -1.9273 H   0  0  0  0  0  0  0  0  0  0  0  0
   -1.8439    1.6071    0.9544 H   0  0  0  0  0  0  0  0  0  0  0  0
   -1.1433    2.8878   -0.0641 H   0  0  0  0  0  0  0  0  0  0  0  0
    0.0236    0.0089    0.0129 H   0  0  0  0  0  0  0  0  0  0  0  0
    2.0686    1.2458    0.0018 H   0  0  0  0  0  0  0  0  0  0  0  0
    1.1006    2.8464    0.0141 H   0  0  0  0  0  0  0  0  0  0  0  0
   -2.5352   -0.0585    1.0056 H   0  0  0  0  0  0  0  0  0  0  0  0
   -3.6723   -1.1096    0.3539 H   0  0  0  0  0  0  0  0  0  0  0  0
  1  2  1  0  0  0  0
  1 26  1  0  0  0  0
  1 27  1  0  0  0  0
  1 28  1  0  0  0  0
  2  7  2  0  0  0  0
  2  3  1  0  0  0  0
  3  4  2  0  0  0  0
  3 29  1  0  0  0  0
  4  5  1  0  0  0  0
  4 30  1  0  0  0  0
  5  6  2  0  0  0  0
  5  8  1  0  0  0  0
  6  7  1  0  0  0  0
  6 31  1  0  0  0  0
  7 32  1  0  0  0  0
  8  9  1  0  0  0  0
  8 33  1  0  0  0  0
  9 10  2  0  0  0  0
  9 11  1  0  0  0  0
 11 12  1  0  0  0  0
 11 13  1  0  0  0  0
 11 14  1  0  0  0  0
 13 34  1  0  0  0  0
 13 35  1  0  0  0  0
 13 36  1  0  0  0  0
 14 15  1  0  0  0  0
 15 21  1  0  0  0  0
 15 16  2  0  0  0  0
 16 17  1  0  0  0  0
 17 18  2  0  0  0  0
 17 19  1  0  0  0  0
 19 20  2  0  0  0  0
 19 37  1  0  0  0  0
 20 21  1  0  0  0  0
 20 25  1  0  0  0  0
 21 22  1  0  0  0  0
 22 23  1  0  0  0  0
 22 38  1  0  0  0  0
 22 39  1  0  0  0  0
 23 24  2  0  0  0  0
 23 40  1  0  0  0  0
 24 41  1  0  0  0  0
 24 42  1  0  0  0  0
 25 43  1  0  0  0  0
 25 44  1  0  0  0  0
M  END
$$$$
ZINC00477228
  -OEChem-08230709453D

 41 43  0     0  0  0  0  0  0999 V2000
   -1.9535    0.7760    0.8568 C   0  0  0  0  0  0  0  0  0  0  0  0
   -0.9448    1.6737    0.1877 C   0  0  0  0  0  0  0  0  0  0  0  0
    0.0082    1.1333   -0.6565 C   0  0  0  0  0  0  0  0  0  0  0  0
    0.9316    1.9541   -1.2772 C   0  0  0  0  0  0  0  0  0  0  0  0
    0.9086    3.3166   -1.0514 C   0  0  0  0  0  0  0  0  0  0  0  0
   -0.0433    3.8618   -0.1998 C   0  0  0  0  0  0  0  0  0  0  0  0
   -0.9696    3.0343    0.4222 C   0  0  0  0  0  0  0  0  0  0  0  0
   -0.0691    5.2407    0.0313 N   0  0  0  0  0  0  0  0  0  0  0  0
    1.1141    5.9469    0.1285 C   0  0  0  0  0  0  0  0  0  0  0  0
    1.0917    7.2740    0.2311 N   0  0  0  0  0  0  0  0  0  0  0  0
    2.2228    7.9500    0.3288 C   0  0  0  0  0  0  0  0  0  0  0  0
    3.3808    7.3131    0.3150 N   0  0  0  0  0  0  0  0  0  0  0  0
    3.4115    5.9868    0.2076 C   0  0  0  0  0  0  0  0  0  0  0  0
    2.2760    5.3031    0.1143 N   0  0  0  0  0  0  0  0  0  0  0  0
    4.6210    5.3226    0.1937 N   0  0  0  0  0  0  0  0  0  0  0  0
    2.1926    9.4518    0.4500 C   0  0  0  0  0  0  0  0  0  0  0  0
    2.2363   10.1914   -1.2014 S   0  0  0  0  0  0  0  0  0  0  0  0
    2.1920   11.8999   -0.7728 C   0  0  0  0  0  0  0  0  0  0  0  0
    2.1368   12.2452    0.5060 N   0  0  0  0  0  0  0  0  0  0  0  0
    2.1080   13.5186    0.8616 C   0  0  0  0  0  0  0  0  0  0  0  0
    2.1247   14.4960   -0.1216 C   0  0  0  0  0  0  0  0  0  0  0  0
    2.1770   14.1002   -1.4489 C   0  0  0  0  0  0  0  0  0  0  0  0
    2.2092   12.8095   -1.7367 N   0  0  0  0  0  0  0  0  0  0  0  0
    2.1963   15.1279   -2.5509 C   0  0  0  0  0  0  0  0  0  0  0  0
   -1.5596    0.4379    1.8152 H   0  0  0  0  0  0  0  0  0  0  0  0
   -2.8796    1.3275    1.0188 H   0  0  0  0  0  0  0  0  0  0  0  0
   -2.1508   -0.0866    0.2203 H   0  0  0  0  0  0  0  0  0  0  0  0
    0.0283    0.0683   -0.8347 H   0  0  0  0  0  0  0  0  0  0  0  0
    1.6715    1.5295   -1.9396 H   0  0  0  0  0  0  0  0  0  0  0  0
    1.6300    3.9573   -1.5367 H   0  0  0  0  0  0  0  0  0  0  0  0
   -1.7112    3.4552    1.0850 H   0  0  0  0  0  0  0  0  0  0  0  0
   -0.9178    5.7012    0.1234 H   0  0  0  0  0  0  0  0  0  0  0  0
    4.6427    4.3560    0.1157 H   0  0  0  0  0  0  0  0  0  0  0  0
    5.4496    5.8223    0.2619 H   0  0  0  0  0  0  0  0  0  0  0  0
    1.2792    9.7569    0.9607 H   0  0  0  0  0  0  0  0  0  0  0  0
    3.0578    9.7877    1.0215 H   0  0  0  0  0  0  0  0  0  0  0  0
    2.0679   13.7938    1.9051 H   0  0  0  0  0  0  0  0  0  0  0  0
    2.0972   15.5432    0.1411 H   0  0  0  0  0  0  0  0  0  0  0  0
    1.1741   15.3578   -2.8513 H   0  0  0  0  0  0  0  0  0  0  0  0
    2.6826   16.0354   -2.1929 H   0  0  0  0  0  0  0  0  0  0  0  0
    2.7463   14.7339   -3.4055 H   0  0  0  0  0  0  0  0  0  0  0  0
  1  2  1  0  0  0  0
  1 25  1  0  0  0  0
  1 26  1  0  0  0  0
  1 27  1  0  0  0  0
  2  7  2  0  0  0  0
  2  3  1  0  0  0  0
  3  4  2  0  0  0  0
  3 28  1  0  0  0  0
  4  5  1  0  0  0  0
  4 29  1  0  0  0  0
  5  6  2  0  0  0  0
  5 30  1  0  0  0  0
  6  7  1  0  0  0  0
  6  8  1  0  0  0  0
  7 31  1  0  0  0  0
  8  9  1  0  0  0  0
  8 32  1  0  0  0  0
  9 14  2  0  0  0  0
  9 10  1  0  0  0  0
 10 11  2  0  0  0  0
 11 12  1  0  0  0  0
 11 16  1  0  0  0  0
 12 13  2  0  0  0  0
 13 14  1  0  0  0  0
 13 15  1  0  0  0  0
 15 33  1  0  0  0  0
 15 34  1  0  0  0  0
 16 17  1  0  0  0  0
 16 35  1  0  0  0  0
 16 36  1  0  0  0  0
 17 18  1  0  0  0  0
 18 23  2  0  0  0  0
 18 19  1  0  0  0  0
 19 20  2  0  0  0  0
 20 21  1  0  0  0  0
 20 37  1  0  0  0  0
 21 22  2  0  0  0  0
 21 38  1  0  0  0  0
 22 23  1  0  0  0  0
 22 24  1  0  0  0  0
 24 39  1  0  0  0  0
 24 40  1  0  0  0  0
 24 41  1  0  0  0  0
M  END
$$$$
ZINC00477788
  -OEChem-08230709453D

 43 45  0     0  0  0  0  0  0999 V2000
   10.7882   10.1893    2.3216 C   0  0  0  0  0  0  0  0  0  0  0  0
    9.6221    9.2348    2.3217 C   0  0  0  0  0  0  0  0  0  0  0  0
    9.4320    8.3774    1.2533 C   0  0  0  0  0  0  0  0  0  0  0  0
    8.3645    7.5016    1.2503 C   0  0  0  0  0  0  0  0  0  0  0  0
    7.4811    7.4820    2.3223 C   0  0  0  0  0  0  0  0  0  0  0  0
    7.6718    8.3479    3.3911 C   0  0  0  0  0  0  0  0  0  0  0  0
    8.7447    9.2179    3.3902 C   0  0  0  0  0  0  0  0  0  0  0  0
    6.7122    8.3348    4.5530 C   0  0  0  0  0  0  0  0  0  0  0  0
    6.3991    6.5963    2.3225 N   0  0  0  0  0  0  0  0  0  0  0  0
    5.8919    6.1252    1.1271 C   0  0  0  0  0  0  0  0  0  0  0  0
    4.9406    5.1940    1.1275 N   0  0  0  0  0  0  0  0  0  0  0  0
    4.4545    4.7431   -0.0155 C   0  0  0  0  0  0  0  0  0  0  0  0
    4.9141    5.2102   -1.1632 N   0  0  0  0  0  0  0  0  0  0  0  0
    5.8613    6.1453   -1.1717 C   0  0  0  0  0  0  0  0  0  0  0  0
    6.3525    6.6011   -0.0245 N   0  0  0  0  0  0  0  0  0  0  0  0
    6.3362    6.6368   -2.3705 N   0  0  0  0  0  0  0  0  0  0  0  0
    3.3777    3.6888   -0.0104 C   0  0  0  0  0  0  0  0  0  0  0  0
    1.7530    4.4861    0.0182 S   0  0  0  0  0  0  0  0  0  0  0  0
    0.7138    3.0631    0.0195 C   0  0  0  0  0  0  0  0  0  0  0  0
    1.1207    1.8152    0.0037 N   0  0  0  0  0  0  0  0  0  0  0  0
    0.0528    0.9997    0.0106 C   0  0  0  0  0  0  0  0  0  0  0  0
   -1.0574    1.7568    0.0260 C   0  0  0  0  0  0  0  0  0  0  0  0
   -0.6471    3.0710    0.0372 N   0  0  0  0  0  0  0  0  0  0  0  0
   -1.5115    4.2537    0.0585 C   0  0  0  0  0  0  0  0  0  0  0  0
   10.4891   11.1284    1.8559 H   0  0  0  0  0  0  0  0  0  0  0  0
   11.1042   10.3772    3.3477 H   0  0  0  0  0  0  0  0  0  0  0  0
   11.6149    9.7529    1.7610 H   0  0  0  0  0  0  0  0  0  0  0  0
   10.1191    8.3932    0.4202 H   0  0  0  0  0  0  0  0  0  0  0  0
    8.2162    6.8328    0.4154 H   0  0  0  0  0  0  0  0  0  0  0  0
    8.8959    9.8887    4.2230 H   0  0  0  0  0  0  0  0  0  0  0  0
    7.0595    7.6242    5.3031 H   0  0  0  0  0  0  0  0  0  0  0  0
    6.6604    9.3308    4.9927 H   0  0  0  0  0  0  0  0  0  0  0  0
    5.7227    8.0399    4.2038 H   0  0  0  0  0  0  0  0  0  0  0  0
    6.0046    6.3127    3.1620 H   0  0  0  0  0  0  0  0  0  0  0  0
    7.0291    7.3156   -2.3760 H   0  0  0  0  0  0  0  0  0  0  0  0
    5.9771    6.3035   -3.2077 H   0  0  0  0  0  0  0  0  0  0  0  0
    3.4892    3.0597    0.8727 H   0  0  0  0  0  0  0  0  0  0  0  0
    3.4656    3.0753   -0.9070 H   0  0  0  0  0  0  0  0  0  0  0  0
    0.0817   -0.0798    0.0007 H   0  0  0  0  0  0  0  0  0  0  0  0
   -2.0774    1.4018    0.0311 H   0  0  0  0  0  0  0  0  0  0  0  0
   -1.7392    4.5557   -0.9638 H   0  0  0  0  0  0  0  0  0  0  0  0
   -2.4377    4.0174    0.5823 H   0  0  0  0  0  0  0  0  0  0  0  0
   -1.0008    5.0678    0.5727 H   0  0  0  0  0  0  0  0  0  0  0  0
  1  2  1  0  0  0  0
  1 25  1  0  0  0  0
  1 26  1  0  0  0  0
  1 27  1  0  0  0  0
  2  7  2  0  0  0  0
  2  3  1  0  0  0  0
  3  4  2  0  0  0  0
  3 28  1  0  0  0  0
  4  5  1  0  0  0  0
  4 29  1  0  0  0  0
  5  6  2  0  0  0  0
  5  9  1  0  0  0  0
  6  7  1  0  0  0  0
  6  8  1  0  0  0  0
  7 30  1  0  0  0  0
  8 31  1  0  0  0  0
  8 32  1  0  0  0  0
  8 33  1  0  0  0  0
  9 10  1  0  0  0  0
  9 34  1  0  0  0  0
 10 15  2  0  0  0  0
 10 11  1  0  0  0  0
 11 12  2  0  0  0  0
 12 13  1  0  0  0  0
 12 17  1  0  0  0  0
 13 14  2  0  0  0  0
 14 15  1  0  0  0  0
 14 16  1  0  0  0  0
 16 35  1  0  0  0  0
 16 36  1  0  0  0  0
 17 18  1  0  0  0  0
 17 37  1  0  0  0  0
 17 38  1  0  0  0  0
 18 19  1  0  0  0  0
 19 23  1  0  0  0  0
 19 20  2  0  0  0  0
 20 21  1  0  0  0  0
 21 22  2  0  0  0  0
 21 39  1  0  0  0  0
 22 23  1  0  0  0  0
 22 40  1  0  0  0  0
 23 24  1  0  0  0  0
 24 41  1  0  0  0  0
 24 42  1  0  0  0  0
 24 43  1  0  0  0  0
M  END
$$$$
ZINC00479619
  -OEChem-08230709453D

 40 42  0     0  0  0  0  0  0999 V2000
    1.2206   -2.1876    0.0244 C   0  0  0  0  0  0  0  0  0  0  0  0
    1.2049   -0.6807    0.0206 C   0  0  0  0  0  0  0  0  0  0  0  0
    2.1430    0.0209    0.7554 C   0  0  0  0  0  0  0  0  0  0  0  0
    2.1317    1.4019    0.7537 C   0  0  0  0  0  0  0  0  0  0  0  0
    1.1767    2.0861    0.0128 C   0  0  0  0  0  0  0  0  0  0  0  0
    0.2361    1.3784   -0.7245 C   0  0  0  0  0  0  0  0  0  0  0  0
    0.2527   -0.0026   -0.7181 C   0  0  0  0  0  0  0  0  0  0  0  0
    1.1621    3.4843    0.0092 N   0  0  0  0  0  0  0  0  0  0  0  0
    2.3471    4.1876    0.1059 C   0  0  0  0  0  0  0  0  0  0  0  0
    2.3280    5.5149    0.2077 N   0  0  0  0  0  0  0  0  0  0  0  0
    3.4608    6.1880    0.3058 C   0  0  0  0  0  0  0  0  0  0  0  0
    4.6172    5.5481    0.2924 N   0  0  0  0  0  0  0  0  0  0  0  0
    4.6445    4.2217    0.1855 C   0  0  0  0  0  0  0  0  0  0  0  0
    3.5074    3.5409    0.0921 N   0  0  0  0  0  0  0  0  0  0  0  0
    5.8524    3.5544    0.1720 N   0  0  0  0  0  0  0  0  0  0  0  0
    3.4344    7.6899    0.4276 C   0  0  0  0  0  0  0  0  0  0  0  0
    3.4809    8.4299   -1.2236 S   0  0  0  0  0  0  0  0  0  0  0  0
    3.4407   10.1384   -0.7943 C   0  0  0  0  0  0  0  0  0  0  0  0
    3.3854   10.6229    0.4244 N   0  0  0  0  0  0  0  0  0  0  0  0
    3.3732   11.9653    0.3687 C   0  0  0  0  0  0  0  0  0  0  0  0
    3.4127   12.3353   -0.9226 C   0  0  0  0  0  0  0  0  0  0  0  0
    3.4558   11.1800   -1.6703 N   0  0  0  0  0  0  0  0  0  0  0  0
    3.5084   11.0891   -3.1316 C   0  0  0  0  0  0  0  0  0  0  0  0
    0.5927   -2.5555    0.8360 H   0  0  0  0  0  0  0  0  0  0  0  0
    0.8382   -2.5574   -0.9270 H   0  0  0  0  0  0  0  0  0  0  0  0
    2.2421   -2.5400    0.1670 H   0  0  0  0  0  0  0  0  0  0  0  0
    2.8851   -0.5118    1.3316 H   0  0  0  0  0  0  0  0  0  0  0  0
    2.8619    1.9492    1.3313 H   0  0  0  0  0  0  0  0  0  0  0  0
   -0.5074    1.9074   -1.3023 H   0  0  0  0  0  0  0  0  0  0  0  0
   -0.4786   -0.5535   -1.2910 H   0  0  0  0  0  0  0  0  0  0  0  0
    0.3199    3.9604   -0.0612 H   0  0  0  0  0  0  0  0  0  0  0  0
    5.8716    2.5877    0.0944 H   0  0  0  0  0  0  0  0  0  0  0  0
    6.6822    4.0521    0.2402 H   0  0  0  0  0  0  0  0  0  0  0  0
    2.5214    7.9970    0.9378 H   0  0  0  0  0  0  0  0  0  0  0  0
    4.3001    8.0233    0.9997 H   0  0  0  0  0  0  0  0  0  0  0  0
    3.3335   12.6329    1.2167 H   0  0  0  0  0  0  0  0  0  0  0  0
    3.4106   13.3466   -1.3018 H   0  0  0  0  0  0  0  0  0  0  0  0
    2.4945   11.0512   -3.5300 H   0  0  0  0  0  0  0  0  0  0  0  0
    4.0235   11.9625   -3.5316 H   0  0  0  0  0  0  0  0  0  0  0  0
    4.0463   10.1861   -3.4203 H   0  0  0  0  0  0  0  0  0  0  0  0
  1  2  1  0  0  0  0
  1 24  1  0  0  0  0
  1 25  1  0  0  0  0
  1 26  1  0  0  0  0
  2  7  2  0  0  0  0
  2  3  1  0  0  0  0
  3  4  2  0  0  0  0
  3 27  1  0  0  0  0
  4  5  1  0  0  0  0
  4 28  1  0  0  0  0
  5  6  2  0  0  0  0
  5  8  1  0  0  0  0
  6  7  1  0  0  0  0
  6 29  1  0  0  0  0
  7 30  1  0  0  0  0
  8  9  1  0  0  0  0
  8 31  1  0  0  0  0
  9 14  2  0  0  0  0
  9 10  1  0  0  0  0
 10 11  2  0  0  0  0
 11 12  1  0  0  0  0
 11 16  1  0  0  0  0
 12 13  2  0  0  0  0
 13 14  1  0  0  0  0
 13 15  1  0  0  0  0
 15 32  1  0  0  0  0
 15 33  1  0  0  0  0
 16 17  1  0  0  0  0
 16 34  1  0  0  0  0
 16 35  1  0  0  0  0
 17 18  1  0  0  0  0
 18 22  1  0  0  0  0
 18 19  2  0  0  0  0
 19 20  1  0  0  0  0
 20 21  2  0  0  0  0
 20 36  1  0  0  0  0
 21 22  1  0  0  0  0
 21 37  1  0  0  0  0
 22 23  1  0  0  0  0
 23 38  1  0  0  0  0
 23 39  1  0  0  0  0
 23 40  1  0  0  0  0
M  END
$$$$
ZINC00480399
  -OEChem-08230709453D

 41 43  0     0  0  0  0  0  0999 V2000
   -6.3952    9.3097    5.7936 C   0  0  0  0  0  0  0  0  0  0  0  0
   -7.3026    8.1614    5.7271 N   0  0  0  0  0  0  0  0  0  0  0  0
   -8.6771    8.2064    5.6607 C   0  0  0  0  0  0  0  0  0  0  0  0
   -9.1091    6.9347    5.6155 C   0  0  0  0  0  0  0  0  0  0  0  0
   -8.0388    6.1231    5.6467 N   0  0  0  0  0  0  0  0  0  0  0  0
   -6.9467    6.8477    5.7196 C   0  0  0  0  0  0  0  0  0  0  0  0
   -5.2996    6.2255    5.7883 S   0  0  0  0  0  0  0  0  0  0  0  0
   -5.6330    4.4472    5.7383 C   0  0  0  0  0  0  0  0  0  0  0  0
   -4.3307    3.6904    5.7876 C   0  0  0  0  0  0  0  0  0  0  0  0
   -3.8171    3.3378    6.9532 N   0  0  0  0  0  0  0  0  0  0  0  0
   -2.6673    2.6689    7.0009 C   0  0  0  0  0  0  0  0  0  0  0  0
   -2.0358    2.3557    5.8747 N   0  0  0  0  0  0  0  0  0  0  0  0
   -2.5552    2.7119    4.7049 C   0  0  0  0  0  0  0  0  0  0  0  0
   -3.7029    3.3856    4.6656 N   0  0  0  0  0  0  0  0  0  0  0  0
   -1.9027    2.3888    3.5316 N   0  0  0  0  0  0  0  0  0  0  0  0
   -0.7594    1.5803    3.5658 C   0  0  0  0  0  0  0  0  0  0  0  0
   -0.5611    0.7003    4.6197 C   0  0  0  0  0  0  0  0  0  0  0  0
    0.5680   -0.0961    4.6514 C   0  0  0  0  0  0  0  0  0  0  0  0
    1.5018   -0.0183    3.6347 C   0  0  0  0  0  0  0  0  0  0  0  0
    1.3082    0.8524    2.5782 C   0  0  0  0  0  0  0  0  0  0  0  0
    0.1819    1.6581    2.5418 C   0  0  0  0  0  0  0  0  0  0  0  0
   -0.0071    2.5190    1.5061 O   0  0  0  0  0  0  0  0  0  0  0  0
    0.9995    2.5450    0.4921 C   0  0  0  0  0  0  0  0  0  0  0  0
   -2.1322    2.3007    8.2184 N   0  0  0  0  0  0  0  0  0  0  0  0
   -6.1197    9.6140    4.7838 H   0  0  0  0  0  0  0  0  0  0  0  0
   -6.8929   10.1371    6.2994 H   0  0  0  0  0  0  0  0  0  0  0  0
   -5.4981    9.0323    6.3470 H   0  0  0  0  0  0  0  0  0  0  0  0
   -9.2912    9.0947    5.6472 H   0  0  0  0  0  0  0  0  0  0  0  0
  -10.1404    6.6191    5.5588 H   0  0  0  0  0  0  0  0  0  0  0  0
   -6.1609    4.2023    4.8166 H   0  0  0  0  0  0  0  0  0  0  0  0
   -6.2477    4.1686    6.5942 H   0  0  0  0  0  0  0  0  0  0  0  0
   -2.2362    2.7217    2.6837 H   0  0  0  0  0  0  0  0  0  0  0  0
   -1.2887    0.6377    5.4153 H   0  0  0  0  0  0  0  0  0  0  0  0
    0.7212   -0.7811    5.4722 H   0  0  0  0  0  0  0  0  0  0  0  0
    2.3827   -0.6425    3.6636 H   0  0  0  0  0  0  0  0  0  0  0  0
    2.0373    0.9074    1.7834 H   0  0  0  0  0  0  0  0  0  0  0  0
    1.0852    1.5570    0.0398 H   0  0  0  0  0  0  0  0  0  0  0  0
    1.9548    2.8256    0.9356 H   0  0  0  0  0  0  0  0  0  0  0  0
    0.7263    3.2722   -0.2725 H   0  0  0  0  0  0  0  0  0  0  0  0
   -1.2944    1.8130    8.2524 H   0  0  0  0  0  0  0  0  0  0  0  0
   -2.5938    2.5297    9.0403 H   0  0  0  0  0  0  0  0  0  0  0  0
  1  2  1  0  0  0  0
  1 25  1  0  0  0  0
  1 26  1  0  0  0  0
  1 27  1  0  0  0  0
  2  6  1  0  0  0  0
  2  3  1  0  0  0  0
  3  4  2  0  0  0  0
  3 28  1  0  0  0  0
  4  5  1  0  0  0  0
  4 29  1  0  0  0  0
  5  6  2  0  0  0  0
  6  7  1  0  0  0  0
  7  8  1  0  0  0  0
  8  9  1  0  0  0  0
  8 30  1  0  0  0  0
  8 31  1  0  0  0  0
  9 14  2  0  0  0  0
  9 10  1  0  0  0  0
 10 11  2  0  0  0  0
 11 12  1  0  0  0  0
 11 24  1  0  0  0  0
 12 13  2  0  0  0  0
 13 14  1  0  0  0  0
 13 15  1  0  0  0  0
 15 16  1  0  0  0  0
 15 32  1  0  0  0  0
 16 21  2  0  0  0  0
 16 17  1  0  0  0  0
 17 18  2  0  0  0  0
 17 33  1  0  0  0  0
 18 19  1  0  0  0  0
 18 34  1  0  0  0  0
 19 20  2  0  0  0  0
 19 35  1  0  0  0  0
 20 21  1  0  0  0  0
 20 36  1  0  0  0  0
 21 22  1  0  0  0  0
 22 23  1  0  0  0  0
 23 37  1  0  0  0  0
 23 38  1  0  0  0  0
 23 39  1  0  0  0  0
 24 40  1  0  0  0  0
 24 41  1  0  0  0  0
M  END
$$$$
ZINC00481760
  -OEChem-08230709453D

 42 44  0     1  0  0  0  0  0999 V2000
    5.3837    1.8168    1.5408 C   0  0  0  0  0  0  0  0  0  0  0  0
    4.7917    1.1737    0.2850 C   0  0  1  0  0  0  0  0  0  0  0  0
    4.5085   -0.3123    0.5966 C   0  0  0  0  0  0  0  0  0  0  0  0
    2.7467   -0.4347    0.0892 S   0  0  0  0  0  0  0  0  0  0  0  0
    2.3872    1.2969   -0.0080 C   0  0  0  0  0  0  0  0  0  0  0  0
    1.1909    1.9329    0.0011 C   0  0  0  0  0  0  0  0  0  0  0  0
    1.2027    3.4462    0.0091 C   0  0  2  0  0  0  0  0  0  0  0  0
    0.3717    3.8149   -0.5923 H   0  0  0  0  0  0  0  0  0  0  0  0
    2.4915    3.9706   -0.5557 C   0  0  0  0  0  0  0  0  0  0  0  0
    3.6429    3.2472   -0.5792 C   0  0  0  0  0  0  0  0  0  0  0  0
    3.6176    1.9304   -0.1129 N   0  0  0  0  0  0  0  0  0  0  0  0
    4.8082    3.8006   -1.0517 N   0  0  0  0  0  0  0  0  0  0  0  0
    2.5091    5.2969   -1.0953 C   0  0  0  0  0  0  0  0  0  0  0  0
    2.5231    6.3491   -1.5234 N   0  0  0  0  0  0  0  0  0  0  0  0
    1.0459    3.9362    1.4255 C   0  0  0  0  0  0  0  0  0  0  0  0
    1.9742    3.5816    2.3864 C   0  0  0  0  0  0  0  0  0  0  0  0
    1.8330    4.0350    3.6846 C   0  0  0  0  0  0  0  0  0  0  0  0
    0.7576    4.8345    4.0243 C   0  0  0  0  0  0  0  0  0  0  0  0
   -0.1736    5.1848    3.0646 C   0  0  0  0  0  0  0  0  0  0  0  0
   -0.0295    4.7357    1.7653 C   0  0  0  0  0  0  0  0  0  0  0  0
   -0.0145    1.2150    0.0087 C   0  0  0  0  0  0  0  0  0  0  0  0
    0.0021   -0.0041    0.0020 O   0  0  0  0  0  0  0  0  0  0  0  0
   -1.1907    1.8729    0.0179 N   0  0  0  0  0  0  0  0  0  0  0  0
   -2.4493    1.1232    0.0198 C   0  0  0  0  0  0  0  0  0  0  0  0
    5.7616    1.2543   -0.7614 O   0  0  0  0  0  0  0  0  0  0  0  0
    4.6432    1.8010    2.3405 H   0  0  0  0  0  0  0  0  0  0  0  0
    6.2670    1.2594    1.8525 H   0  0  0  0  0  0  0  0  0  0  0  0
    5.6625    2.8480    1.3240 H   0  0  0  0  0  0  0  0  0  0  0  0
    4.6283   -0.5287    1.6582 H   0  0  0  0  0  0  0  0  0  0  0  0
    5.1386   -0.9638   -0.0088 H   0  0  0  0  0  0  0  0  0  0  0  0
    4.8151    4.7158   -1.3729 H   0  0  0  0  0  0  0  0  0  0  0  0
    5.6241    3.2761   -1.0642 H   0  0  0  0  0  0  0  0  0  0  0  0
    2.8120    2.9533    2.1220 H   0  0  0  0  0  0  0  0  0  0  0  0
    2.5603    3.7610    4.4344 H   0  0  0  0  0  0  0  0  0  0  0  0
    0.6449    5.1851    5.0396 H   0  0  0  0  0  0  0  0  0  0  0  0
   -1.0139    5.8091    3.3301 H   0  0  0  0  0  0  0  0  0  0  0  0
   -0.7572    5.0091    1.0156 H   0  0  0  0  0  0  0  0  0  0  0  0
   -1.2038    2.8428    0.0232 H   0  0  0  0  0  0  0  0  0  0  0  0
   -2.5028    0.5007   -0.8734 H   0  0  0  0  0  0  0  0  0  0  0  0
   -2.4943    0.4910    0.9066 H   0  0  0  0  0  0  0  0  0  0  0  0
   -3.2873    1.8202    0.0275 H   0  0  0  0  0  0  0  0  0  0  0  0
    6.5803    0.7741   -0.5766 H   0  0  0  0  0  0  0  0  0  0  0  0
  1  2  1  0  0  0  0
  1 26  1  0  0  0  0
  1 27  1  0  0  0  0
  1 28  1  0  0  0  0
  2 11  1  0  0  0  0
  2  3  1  0  0  0  0
  2 25  1  0  0  0  0
  3  4  1  0  0  0  0
  3 29  1  0  0  0  0
  3 30  1  0  0  0  0
  4  5  1  0  0  0  0
  5 11  1  0  0  0  0
  5  6  2  0  0  0  0
  6  7  1  0  0  0  0
  6 21  1  0  0  0  0
  7  8  1  0  0  0  0
  7  9  1  0  0  0  0
  7 15  1  0  0  0  0
  9 10  2  0  0  0  0
  9 13  1  0  0  0  0
 10 11  1  0  0  0  0
 10 12  1  0  0  0  0
 12 31  1  0  0  0  0
 12 32  1  0  0  0  0
 13 14  3  0  0  0  0
 15 20  2  0  0  0  0
 15 16  1  0  0  0  0
 16 17  2  0  0  0  0
 16 33  1  0  0  0  0
 17 18  1  0  0  0  0
 17 34  1  0  0  0  0
 18 19  2  0  0  0  0
 18 35  1  0  0  0  0
 19 20  1  0  0  0  0
 19 36  1  0  0  0  0
 20 37  1  0  0  0  0
 21 22  2  0  0  0  0
 21 23  1  0  0  0  0
 23 24  1  0  0  0  0
 23 38  1  0  0  0  0
 24 39  1  0  0  0  0
 24 40  1  0  0  0  0
 24 41  1  0  0  0  0
 25 42  1  0  0  0  0
M  END
$$$$
ZINC00483853
  -OEChem-08230709453D

 42 43  0     0  0  0  0  0  0999 V2000
   -2.4749    0.8789   -2.5017 C   0  0  0  0  0  0  0  0  0  0  0  0
   -3.0702    0.5121   -1.1667 C   0  0  0  0  0  0  0  0  0  0  0  0
   -2.4493    0.8721    0.0184 C   0  0  0  0  0  0  0  0  0  0  0  0
   -3.0618    0.4906    1.2168 C   0  0  0  0  0  0  0  0  0  0  0  0
   -4.4815   -0.3448    0.6775 S   0  0  0  0  0  0  0  0  0  0  0  0
   -4.2442   -0.1884   -1.0824 C   0  0  0  0  0  0  0  0  0  0  0  0
   -5.0914   -0.6846   -2.1659 C   0  0  0  0  0  0  0  0  0  0  0  0
   -4.7757   -0.4871   -3.3241 O   0  0  0  0  0  0  0  0  0  0  0  0
   -6.2233   -1.3616   -1.8812 O   0  0  0  0  0  0  0  0  0  0  0  0
   -7.0027   -1.8173   -2.9889 C   0  0  0  0  0  0  0  0  0  0  0  0
   -7.7406   -3.0999   -2.6000 C   0  0  0  0  0  0  0  0  0  0  0  0
   -8.0194   -0.7409   -3.3742 C   0  0  0  0  0  0  0  0  0  0  0  0
   -2.6402    0.7235    2.5102 N   0  0  0  0  0  0  0  0  0  0  0  0
   -3.3717    0.2733    3.5488 C   0  0  0  0  0  0  0  0  0  0  0  0
   -4.4027   -0.3379    3.3464 O   0  0  0  0  0  0  0  0  0  0  0  0
   -2.9204    0.5227    4.9337 C   0  0  0  0  0  0  0  0  0  0  0  0
   -1.7338    1.2194    5.1697 C   0  0  0  0  0  0  0  0  0  0  0  0
   -1.3212    1.4538    6.4650 C   0  0  0  0  0  0  0  0  0  0  0  0
   -2.0746    0.9902    7.5289 C   0  0  0  0  0  0  0  0  0  0  0  0
   -3.2487    0.2941    7.3020 C   0  0  0  0  0  0  0  0  0  0  0  0
   -3.6757    0.0578    6.0118 C   0  0  0  0  0  0  0  0  0  0  0  0
   -1.1873    1.6238    0.0165 C   0  0  0  0  0  0  0  0  0  0  0  0
   -1.2038    2.8404    0.0232 O   0  0  0  0  0  0  0  0  0  0  0  0
   -0.0111    0.9658    0.0074 N   0  0  0  0  0  0  0  0  0  0  0  0
   -1.8050    0.0847   -2.8313 H   0  0  0  0  0  0  0  0  0  0  0  0
   -3.2733    1.0073   -3.2326 H   0  0  0  0  0  0  0  0  0  0  0  0
   -1.9159    1.8098   -2.4069 H   0  0  0  0  0  0  0  0  0  0  0  0
   -6.3472   -2.0179   -3.8363 H   0  0  0  0  0  0  0  0  0  0  0  0
   -8.3961   -2.8993   -1.7525 H   0  0  0  0  0  0  0  0  0  0  0  0
   -8.3351   -3.4475   -3.4449 H   0  0  0  0  0  0  0  0  0  0  0  0
   -7.0162   -3.8668   -2.3255 H   0  0  0  0  0  0  0  0  0  0  0  0
   -8.6140   -1.0884   -4.2191 H   0  0  0  0  0  0  0  0  0  0  0  0
   -8.6749   -0.5402   -2.5267 H   0  0  0  0  0  0  0  0  0  0  0  0
   -7.4938    0.1729   -3.6512 H   0  0  0  0  0  0  0  0  0  0  0  0
   -1.8175    1.2113    2.6717 H   0  0  0  0  0  0  0  0  0  0  0  0
   -1.1423    1.5776    4.3400 H   0  0  0  0  0  0  0  0  0  0  0  0
   -0.4056    1.9962    6.6490 H   0  0  0  0  0  0  0  0  0  0  0  0
   -1.7449    1.1729    8.5410 H   0  0  0  0  0  0  0  0  0  0  0  0
   -3.8322   -0.0647    8.1370 H   0  0  0  0  0  0  0  0  0  0  0  0
   -4.5921   -0.4860    5.8361 H   0  0  0  0  0  0  0  0  0  0  0  0
    0.0021   -0.0041    0.0020 H   0  0  0  0  0  0  0  0  0  0  0  0
    0.8223    1.4622    0.0021 H   0  0  0  0  0  0  0  0  0  0  0  0
  1  2  1  0  0  0  0
  1 25  1  0  0  0  0
  1 26  1  0  0  0  0
  1 27  1  0  0  0  0
  2  6  2  0  0  0  0
  2  3  1  0  0  0  0
  3  4  2  0  0  0  0
  3 22  1  0  0  0  0
  4  5  1  0  0  0  0
  4 13  1  0  0  0  0
  5  6  1  0  0  0  0
  6  7  1  0  0  0  0
  7  8  2  0  0  0  0
  7  9  1  0  0  0  0
  9 10  1  0  0  0  0
 10 11  1  0  0  0  0
 10 12  1  0  0  0  0
 10 28  1  0  0  0  0
 11 29  1  0  0  0  0
 11 30  1  0  0  0  0
 11 31  1  0  0  0  0
 12 32  1  0  0  0  0
 12 33  1  0  0  0  0
 12 34  1  0  0  0  0
 13 14  1  0  0  0  0
 13 35  1  0  0  0  0
 14 15  2  0  0  0  0
 14 16  1  0  0  0  0
 16 21  2  0  0  0  0
 16 17  1  0  0  0  0
 17 18  2  0  0  0  0
 17 36  1  0  0  0  0
 18 19  1  0  0  0  0
 18 37  1  0  0  0  0
 19 20  2  0  0  0  0
 19 38  1  0  0  0  0
 20 21  1  0  0  0  0
 20 39  1  0  0  0  0
 21 40  1  0  0  0  0
 22 23  2  0  0  0  0
 22 24  1  0  0  0  0
 24 41  1  0  0  0  0
 24 42  1  0  0  0  0
M  END
$$$$
ZINC00497287
  -OEChem-08230709453D

 43 44  0     0  0  0  0  0  0999 V2000
   -6.0928    5.7242    2.9084 C   0  0  0  0  0  0  0  0  0  0  0  0
   -6.0135    5.3564    1.4491 C   0  0  0  0  0  0  0  0  0  0  0  0
   -5.0792    4.5868    1.0328 N   0  0  0  0  0  0  0  0  0  0  0  0
   -4.1303    4.0862    1.9339 N   0  0  0  0  0  0  0  0  0  0  0  0
   -3.1466    3.2759    1.4957 C   0  0  0  0  0  0  0  0  0  0  0  0
   -3.0828    2.9799    0.3210 O   0  0  0  0  0  0  0  0  0  0  0  0
   -2.1260    2.7375    2.4649 C   0  0  0  0  0  0  0  0  0  0  0  0
   -1.1288    1.8514    1.7157 C   0  0  0  0  0  0  0  0  0  0  0  0
   -0.1129    1.3066    2.6863 C   0  0  0  0  0  0  0  0  0  0  0  0
    1.0399    1.8733    3.1499 C   0  0  0  0  0  0  0  0  0  0  0  0
    1.7947    1.2003    4.0154 N   0  0  0  0  0  0  0  0  0  0  0  0
    1.4473   -0.0037    4.4317 C   0  0  0  0  0  0  0  0  0  0  0  0
   -0.0888   -0.2564    3.5539 S   0  0  0  0  0  0  0  0  0  0  0  0
    2.0980   -0.8455    5.3191 N   0  0  0  0  0  0  0  0  0  0  0  0
    1.4469    3.2247    2.6933 C   0  0  0  0  0  0  0  0  0  0  0  0
    1.3710    3.5576    1.3418 C   0  0  0  0  0  0  0  0  0  0  0  0
    1.7452    4.8167    0.9211 C   0  0  0  0  0  0  0  0  0  0  0  0
    2.2075    5.7483    1.8405 C   0  0  0  0  0  0  0  0  0  0  0  0
    2.2897    5.4181    3.1862 C   0  0  0  0  0  0  0  0  0  0  0  0
    1.9116    4.1625    3.6140 C   0  0  0  0  0  0  0  0  0  0  0  0
    2.5809    6.9864    1.4221 O   0  0  0  0  0  0  0  0  0  0  0  0
    2.4707    7.2592    0.0237 C   0  0  0  0  0  0  0  0  0  0  0  0
   -7.0342    5.8948    0.4798 C   0  0  0  0  0  0  0  0  0  0  0  0
   -5.5152    6.6312    3.0864 H   0  0  0  0  0  0  0  0  0  0  0  0
   -7.1334    5.8961    3.1837 H   0  0  0  0  0  0  0  0  0  0  0  0
   -5.6873    4.9111    3.5105 H   0  0  0  0  0  0  0  0  0  0  0  0
   -4.1814    4.3229    2.8732 H   0  0  0  0  0  0  0  0  0  0  0  0
   -1.5952    3.5672    2.9318 H   0  0  0  0  0  0  0  0  0  0  0  0
   -2.6288    2.1497    3.2328 H   0  0  0  0  0  0  0  0  0  0  0  0
   -1.6603    1.0248    1.2440 H   0  0  0  0  0  0  0  0  0  0  0  0
   -0.6218    2.4406    0.9516 H   0  0  0  0  0  0  0  0  0  0  0  0
    2.9334   -0.5682    5.7268 H   0  0  0  0  0  0  0  0  0  0  0  0
    1.7183   -1.7121    5.5328 H   0  0  0  0  0  0  0  0  0  0  0  0
    1.0153    2.8318    0.6254 H   0  0  0  0  0  0  0  0  0  0  0  0
    1.6824    5.0768   -0.1252 H   0  0  0  0  0  0  0  0  0  0  0  0
    2.6498    6.1451    3.8991 H   0  0  0  0  0  0  0  0  0  0  0  0
    1.9757    3.9061    4.6612 H   0  0  0  0  0  0  0  0  0  0  0  0
    3.0958    6.5610   -0.5330 H   0  0  0  0  0  0  0  0  0  0  0  0
    1.4324    7.1455   -0.2880 H   0  0  0  0  0  0  0  0  0  0  0  0
    2.7999    8.2792   -0.1745 H   0  0  0  0  0  0  0  0  0  0  0  0
   -6.8160    5.5231   -0.5214 H   0  0  0  0  0  0  0  0  0  0  0  0
   -8.0292    5.5666    0.7803 H   0  0  0  0  0  0  0  0  0  0  0  0
   -6.9956    6.9841    0.4793 H   0  0  0  0  0  0  0  0  0  0  0  0
  1  2  1  0  0  0  0
  1 24  1  0  0  0  0
  1 25  1  0  0  0  0
  1 26  1  0  0  0  0
  2  3  2  0  0  0  0
  2 23  1  0  0  0  0
  3  4  1  0  0  0  0
  4  5  1  0  0  0  0
  4 27  1  0  0  0  0
  5  6  2  0  0  0  0
  5  7  1  0  0  0  0
  7  8  1  0  0  0  0
  7 28  1  0  0  0  0
  7 29  1  0  0  0  0
  8  9  1  0  0  0  0
  8 30  1  0  0  0  0
  8 31  1  0  0  0  0
  9 13  1  0  0  0  0
  9 10  2  0  0  0  0
 10 11  1  0  0  0  0
 10 15  1  0  0  0  0
 11 12  2  0  0  0  0
 12 13  1  0  0  0  0
 12 14  1  0  0  0  0
 14 32  1  0  0  0  0
 14 33  1  0  0  0  0
 15 20  2  0  0  0  0
 15 16  1  0  0  0  0
 16 17  2  0  0  0  0
 16 34  1  0  0  0  0
 17 18  1  0  0  0  0
 17 35  1  0  0  0  0
 18 19  2  0  0  0  0
 18 21  1  0  0  0  0
 19 20  1  0  0  0  0
 19 36  1  0  0  0  0
 20 37  1  0  0  0  0
 21 22  1  0  0  0  0
 22 38  1  0  0  0  0
 22 39  1  0  0  0  0
 22 40  1  0  0  0  0
 23 41  1  0  0  0  0
 23 42  1  0  0  0  0
 23 43  1  0  0  0  0
M  END
$$$$
ZINC00501849
  -OEChem-08230709453D

 39 42  0     0  0  0  0  0  0999 V2000
   -3.8414   12.6837   -4.7332 C   0  0  0  0  0  0  0  0  0  0  0  0
   -3.6419   13.0201   -3.4005 C   0  0  0  0  0  0  0  0  0  0  0  0
   -3.2564   12.0763   -2.4934 C   0  0  0  0  0  0  0  0  0  0  0  0
   -3.0577   10.7518   -2.9056 C   0  0  0  0  0  0  0  0  0  0  0  0
   -3.2598   10.4117   -4.2575 C   0  0  0  0  0  0  0  0  0  0  0  0
   -3.6520   11.3881   -5.1638 C   0  0  0  0  0  0  0  0  0  0  0  0
   -2.9930    9.0630   -4.3602 N   0  0  0  0  0  0  0  0  0  0  0  0
   -3.0434    8.5085   -5.1908 H   0  0  0  0  0  0  0  0  0  0  0  0
   -2.6450    8.6253   -3.1063 C   0  0  0  0  0  0  0  0  0  0  0  0
   -2.6930    9.6290   -2.2597 N   0  0  0  0  0  0  0  0  0  0  0  0
   -2.2813    7.2467   -2.7630 C   0  0  0  0  0  0  0  0  0  0  0  0
   -1.9659    6.9410   -1.5309 N   0  0  0  0  0  0  0  0  0  0  0  0
   -1.6315    5.6736   -1.2153 C   0  0  0  0  0  0  0  0  0  0  0  0
   -1.2653    5.1396    0.0266 C   0  0  0  0  0  0  0  0  0  0  0  0
   -0.9573    3.7724    0.1053 C   0  0  0  0  0  0  0  0  0  0  0  0
   -1.0374    3.0571   -1.0465 C   0  0  0  0  0  0  0  0  0  0  0  0
   -1.5385    4.2367   -2.2715 S   0  0  0  0  0  0  0  0  0  0  0  0
   -0.7619    1.5977   -1.2310 C   0  0  0  0  0  0  0  0  0  0  0  0
   -0.0127    1.0858    0.0080 C   0  0  0  0  0  0  0  0  0  0  0  0
   -0.7360    1.5829    1.2630 C   0  0  0  0  0  0  0  0  0  0  0  0
   -0.5488    3.0924    1.4099 C   0  0  0  0  0  0  0  0  0  0  0  0
   -1.2045    5.9921    1.2212 C   0  0  0  0  0  0  0  0  0  0  0  0
   -0.1686    6.5610    1.5104 O   0  0  0  0  0  0  0  0  0  0  0  0
   -2.2961    6.1441    1.9969 N   0  0  0  0  0  0  0  0  0  0  0  0
   -4.1468   13.4432   -5.4377 H   0  0  0  0  0  0  0  0  0  0  0  0
   -3.7939   14.0397   -3.0785 H   0  0  0  0  0  0  0  0  0  0  0  0
   -3.1043   12.3497   -1.4597 H   0  0  0  0  0  0  0  0  0  0  0  0
   -3.8081   11.1333   -6.2016 H   0  0  0  0  0  0  0  0  0  0  0  0
   -2.2739    6.4838   -3.5274 H   0  0  0  0  0  0  0  0  0  0  0  0
   -0.1473    1.4495   -2.1189 H   0  0  0  0  0  0  0  0  0  0  0  0
   -1.7023    1.0576   -1.3405 H   0  0  0  0  0  0  0  0  0  0  0  0
    0.0021   -0.0041    0.0020 H   0  0  0  0  0  0  0  0  0  0  0  0
    1.0090    1.4654    0.0003 H   0  0  0  0  0  0  0  0  0  0  0  0
   -1.7996    1.3593    1.1802 H   0  0  0  0  0  0  0  0  0  0  0  0
   -0.3286    1.0786    2.1392 H   0  0  0  0  0  0  0  0  0  0  0  0
    0.4982    3.3088    1.6222 H   0  0  0  0  0  0  0  0  0  0  0  0
   -1.1707    3.4625    2.2249 H   0  0  0  0  0  0  0  0  0  0  0  0
   -3.1219    5.6905    1.7663 H   0  0  0  0  0  0  0  0  0  0  0  0
   -2.2559    6.7070    2.7858 H   0  0  0  0  0  0  0  0  0  0  0  0
  1  6  2  0  0  0  0
  1  2  1  0  0  0  0
  1 25  1  0  0  0  0
  2  3  2  0  0  0  0
  2 26  1  0  0  0  0
  3  4  1  0  0  0  0
  3 27  1  0  0  0  0
  4 10  1  0  0  0  0
  4  5  2  0  0  0  0
  5  6  1  0  0  0  0
  5  7  1  0  0  0  0
  6 28  1  0  0  0  0
  7  8  1  0  0  0  0
  7  9  1  0  0  0  0
  9 10  2  0  0  0  0
  9 11  1  0  0  0  0
 11 12  2  0  0  0  0
 11 29  1  0  0  0  0
 12 13  1  0  0  0  0
 13 17  1  0  0  0  0
 13 14  2  0  0  0  0
 14 15  1  0  0  0  0
 14 22  1  0  0  0  0
 15 21  1  0  0  0  0
 15 16  2  0  0  0  0
 16 17  1  0  0  0  0
 16 18  1  0  0  0  0
 18 19  1  0  0  0  0
 18 30  1  0  0  0  0
 18 31  1  0  0  0  0
 19 20  1  0  0  0  0
 19 32  1  0  0  0  0
 19 33  1  0  0  0  0
 20 21  1  0  0  0  0
 20 34  1  0  0  0  0
 20 35  1  0  0  0  0
 21 36  1  0  0  0  0
 21 37  1  0  0  0  0
 22 23  2  0  0  0  0
 22 24  1  0  0  0  0
 24 38  1  0  0  0  0
 24 39  1  0  0  0  0
M  END
$$$$
ZINC00503364
  -OEChem-08230709453D

 44 47  0     0  0  0  0  0  0999 V2000
   -2.1633   -5.3231    1.4228 C   0  0  0  0  0  0  0  0  0  0  0  0
   -0.9894   -4.5931    1.4212 C   0  0  0  0  0  0  0  0  0  0  0  0
   -1.0347   -3.2116    1.4293 C   0  0  0  0  0  0  0  0  0  0  0  0
   -2.2538   -2.5600    1.4394 C   0  0  0  0  0  0  0  0  0  0  0  0
   -3.4276   -3.2900    1.4467 C   0  0  0  0  0  0  0  0  0  0  0  0
   -3.3824   -4.6715    1.4329 C   0  0  0  0  0  0  0  0  0  0  0  0
   -2.3031   -1.0538    1.4487 C   0  0  0  0  0  0  0  0  0  0  0  0
   -2.3271   -0.5354    0.0094 C   0  0  0  0  0  0  0  0  0  0  0  0
   -2.3750    0.9287    0.0184 N   0  0  0  0  0  0  0  0  0  0  0  0
   -3.5687    1.5499    0.0277 C   0  0  0  0  0  0  0  0  0  0  0  0
   -4.6021    0.9031    0.0285 O   0  0  0  0  0  0  0  0  0  0  0  0
   -3.6080    2.9803    0.0361 C   0  0  0  0  0  0  0  0  0  0  0  0
   -4.7818    3.8555    0.0474 C   0  0  0  0  0  0  0  0  0  0  0  0
   -4.5541    5.1844    0.0543 C   0  0  0  0  0  0  0  0  0  0  0  0
   -2.7892    5.3491    0.0466 S   0  0  0  0  0  0  0  0  0  0  0  0
   -2.3609    3.6266    0.0338 C   0  0  0  0  0  0  0  0  0  0  0  0
   -1.2163    2.9528    0.0293 N   0  0  0  0  0  0  0  0  0  0  0  0
   -1.2091    1.6360    0.0167 C   0  0  0  0  0  0  0  0  0  0  0  0
   -0.0111    0.9658    0.0074 N   0  0  0  0  0  0  0  0  0  0  0  0
    1.1625    1.6649   -0.0001 N   0  0  0  0  0  0  0  0  0  0  0  0
   -5.5759    6.2803    0.0652 C   0  0  0  0  0  0  0  0  0  0  0  0
   -6.9377    5.6768   -0.3070 C   0  0  0  0  0  0  0  0  0  0  0  0
   -7.1566    4.4089    0.5237 C   0  0  0  0  0  0  0  0  0  0  0  0
   -6.2064    3.3081    0.0517 C   0  0  0  0  0  0  0  0  0  0  0  0
   -2.1280   -6.4025    1.4158 H   0  0  0  0  0  0  0  0  0  0  0  0
   -0.0370   -5.1022    1.4134 H   0  0  0  0  0  0  0  0  0  0  0  0
   -0.1175   -2.6412    1.4281 H   0  0  0  0  0  0  0  0  0  0  0  0
   -4.3800   -2.7809    1.4590 H   0  0  0  0  0  0  0  0  0  0  0  0
   -4.2996   -5.2418    1.4337 H   0  0  0  0  0  0  0  0  0  0  0  0
   -1.4228   -0.6646    1.9604 H   0  0  0  0  0  0  0  0  0  0  0  0
   -3.2018   -0.7229    1.9691 H   0  0  0  0  0  0  0  0  0  0  0  0
   -3.2073   -0.9246   -0.5024 H   0  0  0  0  0  0  0  0  0  0  0  0
   -1.4283   -0.8664   -0.5110 H   0  0  0  0  0  0  0  0  0  0  0  0
    0.0021   -0.0041    0.0020 H   0  0  0  0  0  0  0  0  0  0  0  0
    1.9551    1.0406   -0.0110 H   0  0  0  0  0  0  0  0  0  0  0  0
    1.1965    2.3061   -0.7784 H   0  0  0  0  0  0  0  0  0  0  0  0
   -5.6298    6.7220    1.0603 H   0  0  0  0  0  0  0  0  0  0  0  0
   -5.3017    7.0451   -0.6615 H   0  0  0  0  0  0  0  0  0  0  0  0
   -7.7277    6.3962   -0.0913 H   0  0  0  0  0  0  0  0  0  0  0  0
   -6.9496    5.4280   -1.3682 H   0  0  0  0  0  0  0  0  0  0  0  0
   -6.9648    4.6267    1.5744 H   0  0  0  0  0  0  0  0  0  0  0  0
   -8.1865    4.0720    0.4059 H   0  0  0  0  0  0  0  0  0  0  0  0
   -6.4811    2.9965   -0.9561 H   0  0  0  0  0  0  0  0  0  0  0  0
   -6.2684    2.4563    0.7290 H   0  0  0  0  0  0  0  0  0  0  0  0
  1  6  2  0  0  0  0
  1  2  1  0  0  0  0
  1 25  1  0  0  0  0
  2  3  2  0  0  0  0
  2 26  1  0  0  0  0
  3  4  1  0  0  0  0
  3 27  1  0  0  0  0
  4  5  2  0  0  0  0
  4  7  1  0  0  0  0
  5  6  1  0  0  0  0
  5 28  1  0  0  0  0
  6 29  1  0  0  0  0
  7  8  1  0  0  0  0
  7 30  1  0  0  0  0
  7 31  1  0  0  0  0
  8  9  1  0  0  0  0
  8 32  1  0  0  0  0
  8 33  1  0  0  0  0
  9 18  1  0  0  0  0
  9 10  1  0  0  0  0
 10 11  2  0  0  0  0
 10 12  1  0  0  0  0
 12 16  2  0  0  0  0
 12 13  1  0  0  0  0
 13 24  1  0  0  0  0
 13 14  2  0  0  0  0
 14 15  1  0  0  0  0
 14 21  1  0  0  0  0
 15 16  1  0  0  0  0
 16 17  1  0  0  0  0
 17 18  2  0  0  0  0
 18 19  1  0  0  0  0
 19 20  1  0  0  0  0
 19 34  1  0  0  0  0
 20 35  1  0  0  0  0
 20 36  1  0  0  0  0
 21 22  1  0  0  0  0
 21 37  1  0  0  0  0
 21 38  1  0  0  0  0
 22 23  1  0  0  0  0
 22 39  1  0  0  0  0
 22 40  1  0  0  0  0
 23 24  1  0  0  0  0
 23 41  1  0  0  0  0
 23 42  1  0  0  0  0
 24 43  1  0  0  0  0
 24 44  1  0  0  0  0
M  END
$$$$
ZINC00505204
  -OEChem-08230709453D

 40 41  0     0  0  0  0  0  0999 V2000
    2.4542    0.9925    0.7841 C   0  0  0  0  0  0  0  0  0  0  0  0
    1.1550    1.7327    0.5963 C   0  0  0  0  0  0  0  0  0  0  0  0
   -0.0392    1.0385    0.5821 C   0  0  0  0  0  0  0  0  0  0  0  0
   -1.2343    1.7196    0.4030 C   0  0  0  0  0  0  0  0  0  0  0  0
   -1.2287    3.0984    0.2504 C   0  0  0  0  0  0  0  0  0  0  0  0
   -0.0324    3.7891    0.2651 C   0  0  0  0  0  0  0  0  0  0  0  0
    1.1592    3.1073    0.4377 C   0  0  0  0  0  0  0  0  0  0  0  0
    2.6612    3.9775    0.4559 Cl  0  0  0  0  0  0  0  0  0  0  0  0
   -0.0252    5.2863    0.0936 C   0  0  0  0  0  0  0  0  0  0  0  0
   -2.4099    1.0376    0.3832 O   0  0  0  0  0  0  0  0  0  0  0  0
   -3.6013    1.8037    0.1946 C   0  0  0  0  0  0  0  0  0  0  0  0
   -4.7957    0.8848    0.2006 C   0  0  0  0  0  0  0  0  0  0  0  0
   -4.6418   -0.3087    0.3515 O   0  0  0  0  0  0  0  0  0  0  0  0
   -6.0349    1.3892    0.0382 N   0  0  0  0  0  0  0  0  0  0  0  0
   -7.1288    0.5309   -0.0666 C   0  0  0  0  0  0  0  0  0  0  0  0
   -6.9837   -0.7060   -0.6868 C   0  0  0  0  0  0  0  0  0  0  0  0
   -8.0605   -1.5578   -0.7876 C   0  0  0  0  0  0  0  0  0  0  0  0
   -9.3030   -1.1744   -0.2755 C   0  0  0  0  0  0  0  0  0  0  0  0
   -9.4466    0.0710    0.3421 C   0  0  0  0  0  0  0  0  0  0  0  0
   -8.3644    0.9158    0.4443 C   0  0  0  0  0  0  0  0  0  0  0  0
  -10.4610   -2.0829   -0.3864 C   0  0  0  0  0  0  0  0  0  0  0  0
  -11.5413   -1.7481    0.0599 O   0  0  0  0  0  0  0  0  0  0  0  0
  -10.3208   -3.2836   -0.9824 N   0  0  0  0  0  0  0  0  0  0  0  0
    2.8477    0.6967   -0.1885 H   0  0  0  0  0  0  0  0  0  0  0  0
    3.1729    1.6412    1.2848 H   0  0  0  0  0  0  0  0  0  0  0  0
    2.2817    0.1042    1.3917 H   0  0  0  0  0  0  0  0  0  0  0  0
   -0.0420   -0.0344    0.7060 H   0  0  0  0  0  0  0  0  0  0  0  0
   -2.1585    3.6309    0.1153 H   0  0  0  0  0  0  0  0  0  0  0  0
    0.0570    5.5303   -0.9655 H   0  0  0  0  0  0  0  0  0  0  0  0
   -0.9510    5.7021    0.4915 H   0  0  0  0  0  0  0  0  0  0  0  0
    0.8235    5.7095    0.6309 H   0  0  0  0  0  0  0  0  0  0  0  0
   -3.6977    2.5301    1.0015 H   0  0  0  0  0  0  0  0  0  0  0  0
   -3.5498    2.3264   -0.7606 H   0  0  0  0  0  0  0  0  0  0  0  0
   -6.1658    2.3493   -0.0058 H   0  0  0  0  0  0  0  0  0  0  0  0
   -6.0242   -1.0000   -1.0859 H   0  0  0  0  0  0  0  0  0  0  0  0
   -7.9462   -2.5195   -1.2655 H   0  0  0  0  0  0  0  0  0  0  0  0
  -10.4054    0.3701    0.7392 H   0  0  0  0  0  0  0  0  0  0  0  0
   -8.4746    1.8782    0.9218 H   0  0  0  0  0  0  0  0  0  0  0  0
   -9.4590   -3.5506   -1.3384 H   0  0  0  0  0  0  0  0  0  0  0  0
  -11.0818   -3.8806   -1.0552 H   0  0  0  0  0  0  0  0  0  0  0  0
  1  2  1  0  0  0  0
  1 24  1  0  0  0  0
  1 25  1  0  0  0  0
  1 26  1  0  0  0  0
  2  7  2  0  0  0  0
  2  3  1  0  0  0  0
  3  4  2  0  0  0  0
  3 27  1  0  0  0  0
  4  5  1  0  0  0  0
  4 10  1  0  0  0  0
  5  6  2  0  0  0  0
  5 28  1  0  0  0  0
  6  7  1  0  0  0  0
  6  9  1  0  0  0  0
  7  8  1  0  0  0  0
  9 29  1  0  0  0  0
  9 30  1  0  0  0  0
  9 31  1  0  0  0  0
 10 11  1  0  0  0  0
 11 12  1  0  0  0  0
 11 32  1  0  0  0  0
 11 33  1  0  0  0  0
 12 13  2  0  0  0  0
 12 14  1  0  0  0  0
 14 15  1  0  0  0  0
 14 34  1  0  0  0  0
 15 20  2  0  0  0  0
 15 16  1  0  0  0  0
 16 17  2  0  0  0  0
 16 35  1  0  0  0  0
 17 18  1  0  0  0  0
 17 36  1  0  0  0  0
 18 19  2  0  0  0  0
 18 21  1  0  0  0  0
 19 20  1  0  0  0  0
 19 37  1  0  0  0  0
 20 38  1  0  0  0  0
 21 22  2  0  0  0  0
 21 23  1  0  0  0  0
 23 39  1  0  0  0  0
 23 40  1  0  0  0  0
M  END
$$$$
ZINC00529936
  -OEChem-08230709453D

 44 46  0     0  0  0  0  0  0999 V2000
   -1.2029    1.7841   -0.4472 C   0  0  0  0  0  0  0  0  0  0  0  0
   -1.2184    3.1658   -0.4536 C   0  0  0  0  0  0  0  0  0  0  0  0
   -0.0259    3.8759   -0.3874 C   0  0  0  0  0  0  0  0  0  0  0  0
    1.1815    3.1958   -0.3094 C   0  0  0  0  0  0  0  0  0  0  0  0
    1.1932    1.8083   -0.2978 C   0  0  0  0  0  0  0  0  0  0  0  0
   -0.0033    1.1042   -0.3643 C   0  0  0  0  0  0  0  0  0  0  0  0
    2.4068    1.1195   -0.2199 N   0  0  0  0  0  0  0  0  0  0  0  0
    2.4174   -0.2300   -0.2091 C   0  0  0  0  0  0  0  0  0  0  0  0
    3.6195   -0.9121   -0.2345 C   0  0  0  0  0  0  0  0  0  0  0  0
    4.9085   -0.2026   -0.1459 C   0  0  0  0  0  0  0  0  0  0  0  0
    4.9492    1.0094   -0.0470 O   0  0  0  0  0  0  0  0  0  0  0  0
    6.0418   -0.9339   -0.1725 N   0  0  0  0  0  0  0  0  0  0  0  0
    6.0116   -2.2691   -0.2861 C   0  0  0  0  0  0  0  0  0  0  0  0
    7.5004   -3.1138   -0.3182 S   0  0  0  0  0  0  0  0  0  0  0  0
    4.8776   -2.9782   -0.3763 N   0  0  0  0  0  0  0  0  0  0  0  0
    3.6687   -2.3801   -0.3577 C   0  0  0  0  0  0  0  0  0  0  0  0
    2.6464   -3.0348   -0.4400 O   0  0  0  0  0  0  0  0  0  0  0  0
    4.9530   -4.4362   -0.4974 C   0  0  0  0  0  0  0  0  0  0  0  0
    4.3001   -4.8733   -1.8103 C   0  0  0  0  0  0  0  0  0  0  0  0
    4.3788   -6.3961   -1.9368 C   0  0  0  0  0  0  0  0  0  0  0  0
    3.6444   -7.0441   -0.7614 C   0  0  0  0  0  0  0  0  0  0  0  0
    4.2973   -6.6070    0.5515 C   0  0  0  0  0  0  0  0  0  0  0  0
    4.2186   -5.0842    0.6780 C   0  0  0  0  0  0  0  0  0  0  0  0
   -0.0421    5.2725   -0.3998 N   0  0  0  0  0  0  0  0  0  0  0  0
   -2.1309    1.2345   -0.5032 H   0  0  0  0  0  0  0  0  0  0  0  0
   -2.1582    3.6944   -0.5147 H   0  0  0  0  0  0  0  0  0  0  0  0
    2.1099    3.7453   -0.2582 H   0  0  0  0  0  0  0  0  0  0  0  0
    0.0051    0.0242   -0.3557 H   0  0  0  0  0  0  0  0  0  0  0  0
    3.2416    1.6114   -0.1735 H   0  0  0  0  0  0  0  0  0  0  0  0
    1.4866   -0.7771   -0.1806 H   0  0  0  0  0  0  0  0  0  0  0  0
    6.8984   -0.4828   -0.1115 H   0  0  0  0  0  0  0  0  0  0  0  0
    5.9975   -4.7479   -0.4897 H   0  0  0  0  0  0  0  0  0  0  0  0
    3.2556   -4.5616   -1.8180 H   0  0  0  0  0  0  0  0  0  0  0  0
    4.8233   -4.4116   -2.6476 H   0  0  0  0  0  0  0  0  0  0  0  0
    5.4233   -6.7078   -1.9290 H   0  0  0  0  0  0  0  0  0  0  0  0
    3.9137   -6.7075   -2.8720 H   0  0  0  0  0  0  0  0  0  0  0  0
    3.7005   -8.1289   -0.8515 H   0  0  0  0  0  0  0  0  0  0  0  0
    2.6000   -6.7324   -0.7691 H   0  0  0  0  0  0  0  0  0  0  0  0
    5.3418   -6.9187    0.5592 H   0  0  0  0  0  0  0  0  0  0  0  0
    3.7741   -7.0687    1.3888 H   0  0  0  0  0  0  0  0  0  0  0  0
    4.6838   -4.7728    1.6132 H   0  0  0  0  0  0  0  0  0  0  0  0
    3.1742   -4.7725    0.6702 H   0  0  0  0  0  0  0  0  0  0  0  0
    0.7907    5.7676   -0.3539 H   0  0  0  0  0  0  0  0  0  0  0  0
   -0.8863    5.7472   -0.4543 H   0  0  0  0  0  0  0  0  0  0  0  0
  1  6  2  0  0  0  0
  1  2  1  0  0  0  0
  1 25  1  0  0  0  0
  2  3  2  0  0  0  0
  2 26  1  0  0  0  0
  3  4  1  0  0  0  0
  3 24  1  0  0  0  0
  4  5  2  0  0  0  0
  4 27  1  0  0  0  0
  5  6  1  0  0  0  0
  5  7  1  0  0  0  0
  6 28  1  0  0  0  0
  7  8  1  0  0  0  0
  7 29  1  0  0  0  0
  8  9  2  0  0  0  0
  8 30  1  0  0  0  0
  9 16  1  0  0  0  0
  9 10  1  0  0  0  0
 10 11  2  0  0  0  0
 10 12  1  0  0  0  0
 12 13  1  0  0  0  0
 12 31  1  0  0  0  0
 13 14  2  0  0  0  0
 13 15  1  0  0  0  0
 15 16  1  0  0  0  0
 15 18  1  0  0  0  0
 16 17  2  0  0  0  0
 18 23  1  0  0  0  0
 18 19  1  0  0  0  0
 18 32  1  0  0  0  0
 19 20  1  0  0  0  0
 19 33  1  0  0  0  0
 19 34  1  0  0  0  0
 20 21  1  0  0  0  0
 20 35  1  0  0  0  0
 20 36  1  0  0  0  0
 21 22  1  0  0  0  0
 21 37  1  0  0  0  0
 21 38  1  0  0  0  0
 22 23  1  0  0  0  0
 22 39  1  0  0  0  0
 22 40  1  0  0  0  0
 23 41  1  0  0  0  0
 23 42  1  0  0  0  0
 24 43  1  0  0  0  0
 24 44  1  0  0  0  0
M  END
$$$$
ZINC00539474
  -OEChem-08230709453D

 44 47  0     0  0  0  0  0  0999 V2000
   -3.6557   -0.5389    2.4703 C   0  0  0  0  0  0  0  0  0  0  0  0
   -3.9648    0.2550    3.5664 C   0  0  0  0  0  0  0  0  0  0  0  0
   -3.2284    1.3853    3.8453 C   0  0  0  0  0  0  0  0  0  0  0  0
   -2.1708    1.7431    3.0152 C   0  0  0  0  0  0  0  0  0  0  0  0
   -1.8635    0.9369    1.9043 C   0  0  0  0  0  0  0  0  0  0  0  0
   -2.6186   -0.2085    1.6445 C   0  0  0  0  0  0  0  0  0  0  0  0
   -0.7181    1.5718    1.2479 C   0  0  0  0  0  0  0  0  0  0  0  0
   -0.4197    2.6719    1.9570 C   0  0  0  0  0  0  0  0  0  0  0  0
   -1.2771    2.7905    3.0167 N   0  0  0  0  0  0  0  0  0  0  0  0
   -1.2580    3.5058    3.6716 H   0  0  0  0  0  0  0  0  0  0  0  0
   -0.0127    1.0858    0.0080 C   0  0  0  0  0  0  0  0  0  0  0  0
   -0.7416    1.5850   -1.2129 C   0  0  0  0  0  0  0  0  0  0  0  0
   -0.5825    2.7010   -1.8959 N   0  0  0  0  0  0  0  0  0  0  0  0
   -1.2964    2.9431   -2.9084 N   0  0  0  0  0  0  0  0  0  0  0  0
   -2.2333    2.1054   -3.3189 C   0  0  0  0  0  0  0  0  0  0  0  0
   -2.0736    0.8348   -2.1419 S   0  0  0  0  0  0  0  0  0  0  0  0
   -3.1068    2.2113   -4.3958 N   0  0  0  0  0  0  0  0  0  0  0  0
   -3.0628    3.2956   -5.1952 C   0  0  0  0  0  0  0  0  0  0  0  0
   -2.2614    4.1789   -4.9753 O   0  0  0  0  0  0  0  0  0  0  0  0
   -4.0094    3.4103   -6.3621 C   0  0  0  0  0  0  0  0  0  0  0  0
   -3.7851    2.2370   -7.3181 C   0  0  0  0  0  0  0  0  0  0  0  0
   -4.7461    2.3535   -8.5029 C   0  0  0  0  0  0  0  0  0  0  0  0
   -4.4889    3.6690   -9.2408 C   0  0  0  0  0  0  0  0  0  0  0  0
   -4.7133    4.8423   -8.2848 C   0  0  0  0  0  0  0  0  0  0  0  0
   -3.7522    4.7258   -7.1000 C   0  0  0  0  0  0  0  0  0  0  0  0
   -4.2395   -1.4249    2.2689 H   0  0  0  0  0  0  0  0  0  0  0  0
   -4.7874   -0.0194    4.2102 H   0  0  0  0  0  0  0  0  0  0  0  0
   -3.4780    1.9975    4.6993 H   0  0  0  0  0  0  0  0  0  0  0  0
   -2.3835   -0.8313    0.7940 H   0  0  0  0  0  0  0  0  0  0  0  0
    0.3792    3.3608    1.7257 H   0  0  0  0  0  0  0  0  0  0  0  0
    0.0021   -0.0041    0.0020 H   0  0  0  0  0  0  0  0  0  0  0  0
    1.0099    1.4631    0.0003 H   0  0  0  0  0  0  0  0  0  0  0  0
   -3.7478    1.5048   -4.5717 H   0  0  0  0  0  0  0  0  0  0  0  0
   -5.0372    3.3921   -5.9995 H   0  0  0  0  0  0  0  0  0  0  0  0
   -2.7573    2.2553   -7.6808 H   0  0  0  0  0  0  0  0  0  0  0  0
   -3.9683    1.2999   -6.7924 H   0  0  0  0  0  0  0  0  0  0  0  0
   -5.7739    2.3353   -8.1402 H   0  0  0  0  0  0  0  0  0  0  0  0
   -4.5863    1.5176   -9.1839 H   0  0  0  0  0  0  0  0  0  0  0  0
   -5.1736    3.7520  -10.0848 H   0  0  0  0  0  0  0  0  0  0  0  0
   -3.4612    3.6872   -9.6034 H   0  0  0  0  0  0  0  0  0  0  0  0
   -5.7410    4.8240   -7.9221 H   0  0  0  0  0  0  0  0  0  0  0  0
   -4.5301    5.7794   -8.8104 H   0  0  0  0  0  0  0  0  0  0  0  0
   -3.9121    5.5616   -6.4189 H   0  0  0  0  0  0  0  0  0  0  0  0
   -2.7245    4.7440   -7.4627 H   0  0  0  0  0  0  0  0  0  0  0  0
  1  6  2  0  0  0  0
  1  2  1  0  0  0  0
  1 26  1  0  0  0  0
  2  3  2  0  0  0  0
  2 27  1  0  0  0  0
  3  4  1  0  0  0  0
  3 28  1  0  0  0  0
  4  9  1  0  0  0  0
  4  5  2  0  0  0  0
  5  6  1  0  0  0  0
  5  7  1  0  0  0  0
  6 29  1  0  0  0  0
  7  8  2  0  0  0  0
  7 11  1  0  0  0  0
  8  9  1  0  0  0  0
  8 30  1  0  0  0  0
  9 10  1  0  0  0  0
 11 12  1  0  0  0  0
 11 31  1  0  0  0  0
 11 32  1  0  0  0  0
 12 16  1  0  0  0  0
 12 13  2  0  0  0  0
 13 14  1  0  0  0  0
 14 15  2  0  0  0  0
 15 16  1  0  0  0  0
 15 17  1  0  0  0  0
 17 18  1  0  0  0  0
 17 33  1  0  0  0  0
 18 19  2  0  0  0  0
 18 20  1  0  0  0  0
 20 25  1  0  0  0  0
 20 21  1  0  0  0  0
 20 34  1  0  0  0  0
 21 22  1  0  0  0  0
 21 35  1  0  0  0  0
 21 36  1  0  0  0  0
 22 23  1  0  0  0  0
 22 37  1  0  0  0  0
 22 38  1  0  0  0  0
 23 24  1  0  0  0  0
 23 39  1  0  0  0  0
 23 40  1  0  0  0  0
 24 25  1  0  0  0  0
 24 41  1  0  0  0  0
 24 42  1  0  0  0  0
 25 43  1  0  0  0  0
 25 44  1  0  0  0  0
M  END
$$$$
ZINC00542446
  -OEChem-08230709453D

 41 43  0     0  0  0  0  0  0999 V2000
    3.4877   11.0953   -3.1334 C   0  0  0  0  0  0  0  0  0  0  0  0
    3.4358   11.1866   -1.6722 N   0  0  0  0  0  0  0  0  0  0  0  0
    3.3909   12.3421   -0.9249 C   0  0  0  0  0  0  0  0  0  0  0  0
    3.3529   11.9725    0.3666 C   0  0  0  0  0  0  0  0  0  0  0  0
    3.3677   10.6301    0.4228 N   0  0  0  0  0  0  0  0  0  0  0  0
    3.4232   10.1453   -0.7958 C   0  0  0  0  0  0  0  0  0  0  0  0
    3.4664    8.4367   -1.2244 S   0  0  0  0  0  0  0  0  0  0  0  0
    3.4223    7.6972    0.4270 C   0  0  0  0  0  0  0  0  0  0  0  0
    3.4515    6.1954    0.3058 C   0  0  0  0  0  0  0  0  0  0  0  0
    4.6092    5.5577    0.2920 N   0  0  0  0  0  0  0  0  0  0  0  0
    4.6391    4.2313    0.1851 C   0  0  0  0  0  0  0  0  0  0  0  0
    3.5033    3.5483    0.0922 N   0  0  0  0  0  0  0  0  0  0  0  0
    2.3416    4.1928    0.1065 C   0  0  0  0  0  0  0  0  0  0  0  0
    2.3200    5.5200    0.2086 N   0  0  0  0  0  0  0  0  0  0  0  0
    1.1584    3.4874    0.0097 N   0  0  0  0  0  0  0  0  0  0  0  0
    1.1756    2.0869    0.0128 C   0  0  0  0  0  0  0  0  0  0  0  0
    2.1324    1.4057    0.7536 C   0  0  0  0  0  0  0  0  0  0  0  0
    2.1488    0.0248    0.7561 C   0  0  0  0  0  0  0  0  0  0  0  0
    1.2095   -0.6817    0.0193 C   0  0  0  0  0  0  0  0  0  0  0  0
    0.2535   -0.0018   -0.7210 C   0  0  0  0  0  0  0  0  0  0  0  0
    0.2361    1.3790   -0.7249 C   0  0  0  0  0  0  0  0  0  0  0  0
    1.2263   -2.0414    0.0223 O   0  0  0  0  0  0  0  0  0  0  0  0
    0.2300   -2.7042   -0.7587 C   0  0  0  0  0  0  0  0  0  0  0  0
    5.8483    3.5664    0.1711 N   0  0  0  0  0  0  0  0  0  0  0  0
    2.4737   11.0552   -3.5312 H   0  0  0  0  0  0  0  0  0  0  0  0
    4.0009   11.9694   -3.5341 H   0  0  0  0  0  0  0  0  0  0  0  0
    4.0271   10.1932   -3.4221 H   0  0  0  0  0  0  0  0  0  0  0  0
    3.3867   13.3532   -1.3044 H   0  0  0  0  0  0  0  0  0  0  0  0
    3.3124   12.6403    1.2144 H   0  0  0  0  0  0  0  0  0  0  0  0
    2.5091    8.0028    0.9377 H   0  0  0  0  0  0  0  0  0  0  0  0
    4.2878    8.0325    0.9985 H   0  0  0  0  0  0  0  0  0  0  0  0
    0.3152    3.9619   -0.0604 H   0  0  0  0  0  0  0  0  0  0  0  0
    2.8607    1.9556    1.3311 H   0  0  0  0  0  0  0  0  0  0  0  0
    2.8928   -0.5052    1.3322 H   0  0  0  0  0  0  0  0  0  0  0  0
   -0.4772   -0.5526   -1.2947 H   0  0  0  0  0  0  0  0  0  0  0  0
   -0.5081    1.9082   -1.3015 H   0  0  0  0  0  0  0  0  0  0  0  0
    0.3339   -2.4123   -1.8038 H   0  0  0  0  0  0  0  0  0  0  0  0
    0.3560   -3.7832   -0.6686 H   0  0  0  0  0  0  0  0  0  0  0  0
   -0.7599   -2.4228   -0.3996 H   0  0  0  0  0  0  0  0  0  0  0  0
    5.8694    2.5998    0.0935 H   0  0  0  0  0  0  0  0  0  0  0  0
    6.6771    4.0657    0.2390 H   0  0  0  0  0  0  0  0  0  0  0  0
  1  2  1  0  0  0  0
  1 25  1  0  0  0  0
  1 26  1  0  0  0  0
  1 27  1  0  0  0  0
  2  6  1  0  0  0  0
  2  3  1  0  0  0  0
  3  4  2  0  0  0  0
  3 28  1  0  0  0  0
  4  5  1  0  0  0  0
  4 29  1  0  0  0  0
  5  6  2  0  0  0  0
  6  7  1  0  0  0  0
  7  8  1  0  0  0  0
  8  9  1  0  0  0  0
  8 30  1  0  0  0  0
  8 31  1  0  0  0  0
  9 14  2  0  0  0  0
  9 10  1  0  0  0  0
 10 11  2  0  0  0  0
 11 12  1  0  0  0  0
 11 24  1  0  0  0  0
 12 13  2  0  0  0  0
 13 14  1  0  0  0  0
 13 15  1  0  0  0  0
 15 16  1  0  0  0  0
 15 32  1  0  0  0  0
 16 21  2  0  0  0  0
 16 17  1  0  0  0  0
 17 18  2  0  0  0  0
 17 33  1  0  0  0  0
 18 19  1  0  0  0  0
 18 34  1  0  0  0  0
 19 20  2  0  0  0  0
 19 22  1  0  0  0  0
 20 21  1  0  0  0  0
 20 35  1  0  0  0  0
 21 36  1  0  0  0  0
 22 23  1  0  0  0  0
 23 37  1  0  0  0  0
 23 38  1  0  0  0  0
 23 39  1  0  0  0  0
 24 40  1  0  0  0  0
 24 41  1  0  0  0  0
M  END
$$$$
ZINC00546324
  -OEChem-08230709453D

 39 41  0     0  0  0  0  0  0999 V2000
    5.7303    6.5659    0.1313 C   0  0  0  0  0  0  0  0  0  0  0  0
    5.4673    5.4973    1.1942 C   0  0  0  0  0  0  0  0  0  0  0  0
    4.8008    4.3063    0.5550 C   0  0  0  0  0  0  0  0  0  0  0  0
    3.4271    4.1982    0.5695 C   0  0  0  0  0  0  0  0  0  0  0  0
    2.8087    3.0935   -0.0167 C   0  0  0  0  0  0  0  0  0  0  0  0
    3.5881    2.1031   -0.6281 C   0  0  0  0  0  0  0  0  0  0  0  0
    4.9668    2.2241   -0.6423 C   0  0  0  0  0  0  0  0  0  0  0  0
    5.5732    3.3235   -0.0522 C   0  0  0  0  0  0  0  0  0  0  0  0
    6.9263    3.4394   -0.0676 O   0  0  0  0  0  0  0  0  0  0  0  0
    7.6598    2.3935   -0.7079 C   0  0  0  0  0  0  0  0  0  0  0  0
    2.9929    1.0280   -1.2056 O   0  0  0  0  0  0  0  0  0  0  0  0
    1.3347    2.9715    0.0019 C   0  0  0  0  0  0  0  0  0  0  0  0
    0.6892    2.2295    1.0113 C   0  0  0  0  0  0  0  0  0  0  0  0
   -0.7020    2.1426    0.9776 C   0  0  0  0  0  0  0  0  0  0  0  0
   -1.3630    2.7621    0.0137 N   0  0  0  0  0  0  0  0  0  0  0  0
   -0.7248    3.4524   -0.9205 C   0  0  0  0  0  0  0  0  0  0  0  0
    0.5943    3.5603   -0.9346 N   0  0  0  0  0  0  0  0  0  0  0  0
   -1.4603    4.0794   -1.9121 N   0  0  0  0  0  0  0  0  0  0  0  0
    1.4686    1.5545    2.0766 C   0  0  0  0  0  0  0  0  0  0  0  0
    1.1290    1.6931    3.3959 C   0  0  0  0  0  0  0  0  0  0  0  0
    2.3864    0.6845    4.1669 S   0  0  0  0  0  0  0  0  0  0  0  0
    3.2134    0.2029    2.7184 C   0  0  0  0  0  0  0  0  0  0  0  0
    2.5183    0.8030    1.7829 N   0  0  0  0  0  0  0  0  0  0  0  0
    6.2124    7.4273    0.5936 H   0  0  0  0  0  0  0  0  0  0  0  0
    6.3808    6.1571   -0.6418 H   0  0  0  0  0  0  0  0  0  0  0  0
    4.7851    6.8747   -0.3151 H   0  0  0  0  0  0  0  0  0  0  0  0
    4.8168    5.9061    1.9674 H   0  0  0  0  0  0  0  0  0  0  0  0
    6.4126    5.1885    1.6406 H   0  0  0  0  0  0  0  0  0  0  0  0
    2.8296    4.9662    1.0380 H   0  0  0  0  0  0  0  0  0  0  0  0
    5.5707    1.4625   -1.1131 H   0  0  0  0  0  0  0  0  0  0  0  0
    7.4526    1.4466   -0.2093 H   0  0  0  0  0  0  0  0  0  0  0  0
    7.3596    2.3267   -1.7537 H   0  0  0  0  0  0  0  0  0  0  0  0
    8.7266    2.6092   -0.6492 H   0  0  0  0  0  0  0  0  0  0  0  0
    2.8442    1.1241   -2.1562 H   0  0  0  0  0  0  0  0  0  0  0  0
   -1.2333    1.5796    1.7307 H   0  0  0  0  0  0  0  0  0  0  0  0
   -1.0080    4.5882   -2.6031 H   0  0  0  0  0  0  0  0  0  0  0  0
   -2.4278    4.0099   -1.9157 H   0  0  0  0  0  0  0  0  0  0  0  0
    0.3237    2.2550    3.8456 H   0  0  0  0  0  0  0  0  0  0  0  0
    4.0817   -0.4309    2.6143 H   0  0  0  0  0  0  0  0  0  0  0  0
  1  2  1  0  0  0  0
  1 24  1  0  0  0  0
  1 25  1  0  0  0  0
  1 26  1  0  0  0  0
  2  3  1  0  0  0  0
  2 27  1  0  0  0  0
  2 28  1  0  0  0  0
  3  8  2  0  0  0  0
  3  4  1  0  0  0  0
  4  5  2  0  0  0  0
  4 29  1  0  0  0  0
  5  6  1  0  0  0  0
  5 12  1  0  0  0  0
  6  7  2  0  0  0  0
  6 11  1  0  0  0  0
  7  8  1  0  0  0  0
  7 30  1  0  0  0  0
  8  9  1  0  0  0  0
  9 10  1  0  0  0  0
 10 31  1  0  0  0  0
 10 32  1  0  0  0  0
 10 33  1  0  0  0  0
 11 34  1  0  0  0  0
 12 17  2  0  0  0  0
 12 13  1  0  0  0  0
 13 14  2  0  0  0  0
 13 19  1  0  0  0  0
 14 15  1  0  0  0  0
 14 35  1  0  0  0  0
 15 16  2  0  0  0  0
 16 17  1  0  0  0  0
 16 18  1  0  0  0  0
 18 36  1  0  0  0  0
 18 37  1  0  0  0  0
 19 23  1  0  0  0  0
 19 20  2  0  0  0  0
 20 21  1  0  0  0  0
 20 38  1  0  0  0  0
 21 22  1  0  0  0  0
 22 23  2  0  0  0  0
 22 39  1  0  0  0  0
M  END
$$$$
ZINC00552477
  -OEChem-08230709453D

 39 41  0     0  0  0  0  0  0999 V2000
   -0.0127    1.0858    0.0080 C   0  0  0  0  0  0  0  0  0  0  0  0
   -0.6816    1.5467    1.1837 O   0  0  0  0  0  0  0  0  0  0  0  0
   -0.7874    2.8925    1.3463 C   0  0  0  0  0  0  0  0  0  0  0  0
   -0.2578    3.7496    0.3926 C   0  0  0  0  0  0  0  0  0  0  0  0
   -0.3641    5.1181    0.5546 C   0  0  0  0  0  0  0  0  0  0  0  0
   -1.0003    5.6376    1.6704 C   0  0  0  0  0  0  0  0  0  0  0  0
   -1.5329    4.7798    2.6292 C   0  0  0  0  0  0  0  0  0  0  0  0
   -1.4295    3.4070    2.4618 C   0  0  0  0  0  0  0  0  0  0  0  0
   -2.1776    5.3034    3.7602 N   0  0  0  0  0  0  0  0  0  0  0  0
   -1.6054    5.6245    4.9713 C   0  0  0  0  0  0  0  0  0  0  0  0
   -2.5662    6.0810    5.7417 N   0  0  0  0  0  0  0  0  0  0  0  0
   -3.6831    6.0681    5.1065 N   0  0  0  0  0  0  0  0  0  0  0  0
   -3.5061    5.6077    3.8891 C   0  0  0  0  0  0  0  0  0  0  0  0
   -4.7477    5.4140    2.6539 S   0  0  0  0  0  0  0  0  0  0  0  0
   -0.1806    5.4831    5.3346 C   0  0  0  0  0  0  0  0  0  0  0  0
    0.7314    4.9751    4.4080 C   0  0  0  0  0  0  0  0  0  0  0  0
    2.0612    4.8499    4.7485 C   0  0  0  0  0  0  0  0  0  0  0  0
    2.4957    5.2172    6.0161 C   0  0  0  0  0  0  0  0  0  0  0  0
    1.5956    5.7177    6.9454 C   0  0  0  0  0  0  0  0  0  0  0  0
    0.2591    5.8530    6.6121 C   0  0  0  0  0  0  0  0  0  0  0  0
   -0.6235    6.3424    7.5212 O   0  0  0  0  0  0  0  0  0  0  0  0
    3.8069    5.0853    6.3467 O   0  0  0  0  0  0  0  0  0  0  0  0
   -1.1049    6.9846    1.8288 O   0  0  0  0  0  0  0  0  0  0  0  0
   -0.5361    7.8043    0.8058 C   0  0  0  0  0  0  0  0  0  0  0  0
    0.0021   -0.0041    0.0020 H   0  0  0  0  0  0  0  0  0  0  0  0
    1.0099    1.4631    0.0003 H   0  0  0  0  0  0  0  0  0  0  0  0
   -0.5399    1.4469   -0.8751 H   0  0  0  0  0  0  0  0  0  0  0  0
    0.2382    3.3468   -0.4781 H   0  0  0  0  0  0  0  0  0  0  0  0
    0.0488    5.7831   -0.1895 H   0  0  0  0  0  0  0  0  0  0  0  0
   -1.8457    2.7394    3.2018 H   0  0  0  0  0  0  0  0  0  0  0  0
   -5.1711    4.0991    2.9363 H   0  0  0  0  0  0  0  0  0  0  0  0
    0.3961    4.6844    3.4233 H   0  0  0  0  0  0  0  0  0  0  0  0
    2.7668    4.4612    4.0291 H   0  0  0  0  0  0  0  0  0  0  0  0
    1.9379    6.0016    7.9296 H   0  0  0  0  0  0  0  0  0  0  0  0
   -1.0342    5.6645    8.0751 H   0  0  0  0  0  0  0  0  0  0  0  0
    4.0308    4.2276    6.7330 H   0  0  0  0  0  0  0  0  0  0  0  0
   -0.6886    8.8544    1.0549 H   0  0  0  0  0  0  0  0  0  0  0  0
    0.5319    7.6005    0.7288 H   0  0  0  0  0  0  0  0  0  0  0  0
   -1.0178    7.5831   -0.1467 H   0  0  0  0  0  0  0  0  0  0  0  0
  1  2  1  0  0  0  0
  1 25  1  0  0  0  0
  1 26  1  0  0  0  0
  1 27  1  0  0  0  0
  2  3  1  0  0  0  0
  3  8  2  0  0  0  0
  3  4  1  0  0  0  0
  4  5  2  0  0  0  0
  4 28  1  0  0  0  0
  5  6  1  0  0  0  0
  5 29  1  0  0  0  0
  6  7  2  0  0  0  0
  6 23  1  0  0  0  0
  7  8  1  0  0  0  0
  7  9  1  0  0  0  0
  8 30  1  0  0  0  0
  9 13  1  0  0  0  0
  9 10  1  0  0  0  0
 10 11  2  0  0  0  0
 10 15  1  0  0  0  0
 11 12  1  0  0  0  0
 12 13  2  0  0  0  0
 13 14  1  0  0  0  0
 14 31  1  0  0  0  0
 15 20  2  0  0  0  0
 15 16  1  0  0  0  0
 16 17  2  0  0  0  0
 16 32  1  0  0  0  0
 17 18  1  0  0  0  0
 17 33  1  0  0  0  0
 18 19  2  0  0  0  0
 18 22  1  0  0  0  0
 19 20  1  0  0  0  0
 19 34  1  0  0  0  0
 20 21  1  0  0  0  0
 21 35  1  0  0  0  0
 22 36  1  0  0  0  0
 23 24  1  0  0  0  0
 24 37  1  0  0  0  0
 24 38  1  0  0  0  0
 24 39  1  0  0  0  0
M  END
$$$$
ZINC00554738
  -OEChem-08230709453D

 44 47  0     1  0  0  0  0  0999 V2000
    1.7605   -5.3134   -0.1767 C   0  0  0  0  0  0  0  0  0  0  0  0
    1.1503   -3.9519    0.1621 C   0  0  0  0  0  0  0  0  0  0  0  0
    0.7359   -3.9309    1.6347 C   0  0  0  0  0  0  0  0  0  0  0  0
    2.1834   -2.8524   -0.0927 C   0  0  1  0  0  0  0  0  0  0  0  0
    2.4809   -2.8720   -1.1411 H   0  0  0  0  0  0  0  0  0  0  0  0
    1.5629   -1.4909    0.2337 C   0  0  0  0  0  0  0  0  0  0  0  0
    2.6742   -0.4444    0.2006 C   0  0  0  0  0  0  0  0  0  0  0  0
    3.9643   -0.8395    0.2740 C   0  0  0  0  0  0  0  0  0  0  0  0
    4.9098    0.6554    0.2036 S   0  0  0  0  0  0  0  0  0  0  0  0
    3.5703    1.8124    0.0753 C   0  0  0  0  0  0  0  0  0  0  0  0
    2.4226    0.9905    0.0973 C   0  0  0  0  0  0  0  0  0  0  0  0
    1.1774    1.6738   -0.0002 C   0  0  0  0  0  0  0  0  0  0  0  0
    1.1691    2.9918   -0.0924 N   0  0  0  0  0  0  0  0  0  0  0  0
    2.2899    3.7062   -0.1023 C   0  0  0  0  0  0  0  0  0  0  0  0
    3.4788    3.1224   -0.0192 N   0  0  0  0  0  0  0  0  0  0  0  0
    2.2104    5.1829   -0.2085 C   0  0  0  0  0  0  0  0  0  0  0  0
    0.9699    5.8118   -0.3029 C   0  0  0  0  0  0  0  0  0  0  0  0
    0.9019    7.1870   -0.3967 C   0  0  0  0  0  0  0  0  0  0  0  0
    2.0620    7.9404   -0.4079 C   0  0  0  0  0  0  0  0  0  0  0  0
    3.2960    7.3214   -0.3199 C   0  0  0  0  0  0  0  0  0  0  0  0
    3.3761    5.9473   -0.2203 C   0  0  0  0  0  0  0  0  0  0  0  0
   -0.0111    0.9658    0.0074 N   0  0  0  0  0  0  0  0  0  0  0  0
   -1.1835    1.5962   -0.2991 N   0  0  0  0  0  0  0  0  0  0  0  0
    4.4529   -2.2502    0.3906 C   0  0  0  0  0  0  0  0  0  0  0  0
    3.3308   -3.0801    0.7300 O   0  0  0  0  0  0  0  0  0  0  0  0
    2.6359   -5.4852    0.4495 H   0  0  0  0  0  0  0  0  0  0  0  0
    1.0245   -6.0967    0.0048 H   0  0  0  0  0  0  0  0  0  0  0  0
    2.0557   -5.3283   -1.2259 H   0  0  0  0  0  0  0  0  0  0  0  0
    0.2749   -3.7800   -0.4642 H   0  0  0  0  0  0  0  0  0  0  0  0
   -0.0000   -4.7142    1.8162 H   0  0  0  0  0  0  0  0  0  0  0  0
    1.6114   -4.1028    2.2610 H   0  0  0  0  0  0  0  0  0  0  0  0
    0.3013   -2.9609    1.8761 H   0  0  0  0  0  0  0  0  0  0  0  0
    0.8033   -1.2450   -0.5084 H   0  0  0  0  0  0  0  0  0  0  0  0
    1.1133   -1.5194    1.2263 H   0  0  0  0  0  0  0  0  0  0  0  0
    0.0637    5.2243   -0.2987 H   0  0  0  0  0  0  0  0  0  0  0  0
   -0.0588    7.6756   -0.4657 H   0  0  0  0  0  0  0  0  0  0  0  0
    2.0041    9.0160   -0.4853 H   0  0  0  0  0  0  0  0  0  0  0  0
    4.1984    7.9146   -0.3287 H   0  0  0  0  0  0  0  0  0  0  0  0
    4.3400    5.4651   -0.1513 H   0  0  0  0  0  0  0  0  0  0  0  0
   -0.0114    0.0209    0.2264 H   0  0  0  0  0  0  0  0  0  0  0  0
   -1.9610    0.9545   -0.2567 H   0  0  0  0  0  0  0  0  0  0  0  0
   -1.3362    2.3897    0.3053 H   0  0  0  0  0  0  0  0  0  0  0  0
    4.8763   -2.5735   -0.5603 H   0  0  0  0  0  0  0  0  0  0  0  0
    5.2093   -2.3150    1.1728 H   0  0  0  0  0  0  0  0  0  0  0  0
  1  2  1  0  0  0  0
  1 26  1  0  0  0  0
  1 27  1  0  0  0  0
  1 28  1  0  0  0  0
  2  3  1  0  0  0  0
  2  4  1  0  0  0  0
  2 29  1  0  0  0  0
  3 30  1  0  0  0  0
  3 31  1  0  0  0  0
  3 32  1  0  0  0  0
  4  5  1  0  0  0  0
  4 25  1  0  0  0  0
  4  6  1  0  0  0  0
  6  7  1  0  0  0  0
  6 33  1  0  0  0  0
  6 34  1  0  0  0  0
  7 11  1  0  0  0  0
  7  8  2  0  0  0  0
  8  9  1  0  0  0  0
  8 24  1  0  0  0  0
  9 10  1  0  0  0  0
 10 15  2  0  0  0  0
 10 11  1  0  0  0  0
 11 12  2  0  0  0  0
 12 13  1  0  0  0  0
 12 22  1  0  0  0  0
 13 14  2  0  0  0  0
 14 15  1  0  0  0  0
 14 16  1  0  0  0  0
 16 21  2  0  0  0  0
 16 17  1  0  0  0  0
 17 18  2  0  0  0  0
 17 35  1  0  0  0  0
 18 19  1  0  0  0  0
 18 36  1  0  0  0  0
 19 20  2  0  0  0  0
 19 37  1  0  0  0  0
 20 21  1  0  0  0  0
 20 38  1  0  0  0  0
 21 39  1  0  0  0  0
 22 23  1  0  0  0  0
 22 40  1  0  0  0  0
 23 41  1  0  0  0  0
 23 42  1  0  0  0  0
 24 25  1  0  0  0  0
 24 43  1  0  0  0  0
 24 44  1  0  0  0  0
M  END
$$$$
ZINC00557513
  -OEChem-08230709453D

 45 47  0     0  0  0  0  0  0999 V2000
   -1.9260    3.2778    3.6060 C   0  0  0  0  0  0  0  0  0  0  0  0
   -2.0740    3.9485    2.2389 C   0  0  0  0  0  0  0  0  0  0  0  0
   -1.0145    3.4237    1.3045 C   0  0  0  0  0  0  0  0  0  0  0  0
    0.1675    4.1144    1.1495 C   0  0  0  0  0  0  0  0  0  0  0  0
    1.1507    3.6290    0.2837 C   0  0  0  0  0  0  0  0  0  0  0  0
    0.9282    2.4388   -0.4244 C   0  0  0  0  0  0  0  0  0  0  0  0
   -0.2628    1.7541   -0.2604 C   0  0  0  0  0  0  0  0  0  0  0  0
   -1.2307    2.2415    0.6064 C   0  0  0  0  0  0  0  0  0  0  0  0
   -2.3963    1.5635    0.7689 O   0  0  0  0  0  0  0  0  0  0  0  0
   -2.5540    0.3558    0.0215 C   0  0  0  0  0  0  0  0  0  0  0  0
    1.8786    1.9599   -1.2676 O   0  0  0  0  0  0  0  0  0  0  0  0
    2.4164    4.3650    0.1145 C   0  0  0  0  0  0  0  0  0  0  0  0
    2.5675    5.7309   -0.0986 C   0  0  0  0  0  0  0  0  0  0  0  0
    4.0278    5.8863   -0.1885 C   0  0  0  0  0  0  0  0  0  0  0  0
    4.5174    4.6835   -0.0292 N   0  0  0  0  0  0  0  0  0  0  0  0
    3.6598    3.8524    0.1408 O   0  0  0  0  0  0  0  0  0  0  0  0
    4.7376    7.0629   -0.3991 N   0  0  0  0  0  0  0  0  0  0  0  0
    1.5184    6.7712   -0.2083 C   0  0  0  0  0  0  0  0  0  0  0  0
    0.6366    6.7635   -1.2890 C   0  0  0  0  0  0  0  0  0  0  0  0
   -0.3424    7.7302   -1.3848 C   0  0  0  0  0  0  0  0  0  0  0  0
   -0.4436    8.7167   -0.4135 C   0  0  0  0  0  0  0  0  0  0  0  0
    0.4359    8.7308    0.6604 C   0  0  0  0  0  0  0  0  0  0  0  0
    1.4138    7.7640    0.7658 C   0  0  0  0  0  0  0  0  0  0  0  0
   -1.4058    9.6714   -0.5144 O   0  0  0  0  0  0  0  0  0  0  0  0
   -2.2771    9.5974   -1.6446 C   0  0  0  0  0  0  0  0  0  0  0  0
   -0.9398    3.4986    4.0142 H   0  0  0  0  0  0  0  0  0  0  0  0
   -2.6924    3.6574    4.2818 H   0  0  0  0  0  0  0  0  0  0  0  0
   -2.0405    2.1994    3.4959 H   0  0  0  0  0  0  0  0  0  0  0  0
   -1.9595    5.0269    2.3490 H   0  0  0  0  0  0  0  0  0  0  0  0
   -3.0602    3.7277    1.8306 H   0  0  0  0  0  0  0  0  0  0  0  0
    0.3341    5.0302    1.6973 H   0  0  0  0  0  0  0  0  0  0  0  0
   -0.4376    0.8373   -0.8039 H   0  0  0  0  0  0  0  0  0  0  0  0
   -3.5261   -0.0845    0.2434 H   0  0  0  0  0  0  0  0  0  0  0  0
   -2.4898    0.5768   -1.0439 H   0  0  0  0  0  0  0  0  0  0  0  0
   -1.7663   -0.3462    0.2951 H   0  0  0  0  0  0  0  0  0  0  0  0
    2.4632    1.3014   -0.8680 H   0  0  0  0  0  0  0  0  0  0  0  0
    4.2639    7.9028   -0.5049 H   0  0  0  0  0  0  0  0  0  0  0  0
    5.7065    7.0440   -0.4403 H   0  0  0  0  0  0  0  0  0  0  0  0
    0.7176    5.9989   -2.0474 H   0  0  0  0  0  0  0  0  0  0  0  0
   -1.0282    7.7225   -2.2191 H   0  0  0  0  0  0  0  0  0  0  0  0
    0.3541    9.4996    1.4145 H   0  0  0  0  0  0  0  0  0  0  0  0
    2.0979    7.7758    1.6014 H   0  0  0  0  0  0  0  0  0  0  0  0
   -1.6913    9.6741   -2.5606 H   0  0  0  0  0  0  0  0  0  0  0  0
   -2.8087    8.6460   -1.6319 H   0  0  0  0  0  0  0  0  0  0  0  0
   -2.9959   10.4158   -1.6034 H   0  0  0  0  0  0  0  0  0  0  0  0
  1  2  1  0  0  0  0
  1 26  1  0  0  0  0
  1 27  1  0  0  0  0
  1 28  1  0  0  0  0
  2  3  1  0  0  0  0
  2 29  1  0  0  0  0
  2 30  1  0  0  0  0
  3  8  2  0  0  0  0
  3  4  1  0  0  0  0
  4  5  2  0  0  0  0
  4 31  1  0  0  0  0
  5  6  1  0  0  0  0
  5 12  1  0  0  0  0
  6  7  2  0  0  0  0
  6 11  1  0  0  0  0
  7  8  1  0  0  0  0
  7 32  1  0  0  0  0
  8  9  1  0  0  0  0
  9 10  1  0  0  0  0
 10 33  1  0  0  0  0
 10 34  1  0  0  0  0
 10 35  1  0  0  0  0
 11 36  1  0  0  0  0
 12 16  1  0  0  0  0
 12 13  2  0  0  0  0
 13 14  1  0  0  0  0
 13 18  1  0  0  0  0
 14 15  2  0  0  0  0
 14 17  1  0  0  0  0
 15 16  1  0  0  0  0
 17 37  1  0  0  0  0
 17 38  1  0  0  0  0
 18 23  2  0  0  0  0
 18 19  1  0  0  0  0
 19 20  2  0  0  0  0
 19 39  1  0  0  0  0
 20 21  1  0  0  0  0
 20 40  1  0  0  0  0
 21 22  2  0  0  0  0
 21 24  1  0  0  0  0
 22 23  1  0  0  0  0
 22 41  1  0  0  0  0
 23 42  1  0  0  0  0
 24 25  1  0  0  0  0
 25 43  1  0  0  0  0
 25 44  1  0  0  0  0
 25 45  1  0  0  0  0
M  END
$$$$
ZINC00557867
  -OEChem-08230709453D

 40 42  0     0  0  0  0  0  0999 V2000
   -2.7799    0.0946   -0.1344 C   0  0  0  0  0  0  0  0  0  0  0  0
   -2.5311    1.5790   -0.2087 C   0  0  0  0  0  0  0  0  0  0  0  0
   -1.3950    2.2265   -0.1167 N   0  0  0  0  0  0  0  0  0  0  0  0
   -1.3435    3.5470   -0.1983 C   0  0  0  0  0  0  0  0  0  0  0  0
   -2.5184    4.2229   -0.3938 C   0  0  0  0  0  0  0  0  0  0  0  0
   -3.6761    2.8628   -0.4432 S   0  0  0  0  0  0  0  0  0  0  0  0
   -0.0542    4.2704   -0.0879 C   0  0  0  0  0  0  0  0  0  0  0  0
    0.0131    5.6489   -0.2886 C   0  0  0  0  0  0  0  0  0  0  0  0
    1.1823    6.2583   -0.1864 N   0  0  0  0  0  0  0  0  0  0  0  0
    2.2841    5.5822    0.1073 C   0  0  0  0  0  0  0  0  0  0  0  0
    2.2710    4.2748    0.3112 N   0  0  0  0  0  0  0  0  0  0  0  0
    1.1354    3.5847    0.2275 C   0  0  0  0  0  0  0  0  0  0  0  0
    1.1241    2.1232    0.4554 C   0  0  0  0  0  0  0  0  0  0  0  0
    0.7548    1.6118    1.7006 C   0  0  0  0  0  0  0  0  0  0  0  0
    0.7442    0.2499    1.9117 C   0  0  0  0  0  0  0  0  0  0  0  0
    1.1002   -0.6194    0.8885 C   0  0  0  0  0  0  0  0  0  0  0  0
    1.4697   -0.1210   -0.3555 C   0  0  0  0  0  0  0  0  0  0  0  0
    1.4832    1.2492   -0.5769 C   0  0  0  0  0  0  0  0  0  0  0  0
    1.8442    1.7401   -1.7914 O   0  0  0  0  0  0  0  0  0  0  0  0
    1.8184   -0.9759   -1.3555 O   0  0  0  0  0  0  0  0  0  0  0  0
    0.7706   -1.4333   -2.2128 C   0  0  0  0  0  0  0  0  0  0  0  0
    1.0878   -1.9613    1.1044 O   0  0  0  0  0  0  0  0  0  0  0  0
    0.6987   -2.4055    2.4057 C   0  0  0  0  0  0  0  0  0  0  0  0
    3.4851    6.2646    0.2034 N   0  0  0  0  0  0  0  0  0  0  0  0
   -3.8304   -0.1086   -0.3428 H   0  0  0  0  0  0  0  0  0  0  0  0
   -2.1582   -0.4153   -0.8703 H   0  0  0  0  0  0  0  0  0  0  0  0
   -2.5312   -0.2660    0.8637 H   0  0  0  0  0  0  0  0  0  0  0  0
   -2.6959    5.2838   -0.4910 H   0  0  0  0  0  0  0  0  0  0  0  0
   -0.8775    6.2109   -0.5285 H   0  0  0  0  0  0  0  0  0  0  0  0
    0.4729    2.2836    2.4979 H   0  0  0  0  0  0  0  0  0  0  0  0
    0.4577   -0.1429    2.8761 H   0  0  0  0  0  0  0  0  0  0  0  0
    1.1065    1.8479   -2.4072 H   0  0  0  0  0  0  0  0  0  0  0  0
    1.1835   -2.1065   -2.9640 H   0  0  0  0  0  0  0  0  0  0  0  0
    0.0230   -1.9628   -1.6221 H   0  0  0  0  0  0  0  0  0  0  0  0
    0.3059   -0.5796   -2.7060 H   0  0  0  0  0  0  0  0  0  0  0  0
    0.7317   -3.4943    2.4429 H   0  0  0  0  0  0  0  0  0  0  0  0
    1.3824   -1.9956    3.1491 H   0  0  0  0  0  0  0  0  0  0  0  0
   -0.3150   -2.0653    2.6177 H   0  0  0  0  0  0  0  0  0  0  0  0
    4.3001    5.7842    0.4173 H   0  0  0  0  0  0  0  0  0  0  0  0
    3.5113    7.2231    0.0567 H   0  0  0  0  0  0  0  0  0  0  0  0
  1  2  1  0  0  0  0
  1 25  1  0  0  0  0
  1 26  1  0  0  0  0
  1 27  1  0  0  0  0
  2  6  1  0  0  0  0
  2  3  2  0  0  0  0
  3  4  1  0  0  0  0
  4  5  2  0  0  0  0
  4  7  1  0  0  0  0
  5  6  1  0  0  0  0
  5 28  1  0  0  0  0
  7 12  2  0  0  0  0
  7  8  1  0  0  0  0
  8  9  2  0  0  0  0
  8 29  1  0  0  0  0
  9 10  1  0  0  0  0
 10 11  2  0  0  0  0
 10 24  1  0  0  0  0
 11 12  1  0  0  0  0
 12 13  1  0  0  0  0
 13 18  2  0  0  0  0
 13 14  1  0  0  0  0
 14 15  2  0  0  0  0
 14 30  1  0  0  0  0
 15 16  1  0  0  0  0
 15 31  1  0  0  0  0
 16 17  2  0  0  0  0
 16 22  1  0  0  0  0
 17 18  1  0  0  0  0
 17 20  1  0  0  0  0
 18 19  1  0  0  0  0
 19 32  1  0  0  0  0
 20 21  1  0  0  0  0
 21 33  1  0  0  0  0
 21 34  1  0  0  0  0
 21 35  1  0  0  0  0
 22 23  1  0  0  0  0
 23 36  1  0  0  0  0
 23 37  1  0  0  0  0
 23 38  1  0  0  0  0
 24 39  1  0  0  0  0
 24 40  1  0  0  0  0
M  END
$$$$
ZINC00580098
  -OEChem-08230709453D

 48 50  0     0  0  0  0  0  0999 V2000
   -2.0226   -5.9813    4.1530 C   0  0  0  0  0  0  0  0  0  0  0  0
   -0.7328   -6.5698    3.9736 O   0  0  0  0  0  0  0  0  0  0  0  0
    0.1544   -5.8891    3.1992 C   0  0  0  0  0  0  0  0  0  0  0  0
   -0.2123   -4.6810    2.6266 C   0  0  0  0  0  0  0  0  0  0  0  0
    0.6853   -3.9831    1.8447 C   0  0  0  0  0  0  0  0  0  0  0  0
    1.9641   -4.4985    1.6194 C   0  0  0  0  0  0  0  0  0  0  0  0
    2.3345   -5.7157    2.1960 C   0  0  0  0  0  0  0  0  0  0  0  0
    1.4305   -6.4078    2.9836 C   0  0  0  0  0  0  0  0  0  0  0  0
    1.7974   -7.6280    3.5629 N   0  0  0  0  0  0  0  0  0  0  0  0
    2.9234   -3.7557    0.7793 C   0  0  0  0  0  0  0  0  0  0  0  0
    3.1605   -2.3883    0.6996 C   0  0  0  0  0  0  0  0  0  0  0  0
    4.0889   -1.9513   -0.1357 N   0  0  0  0  0  0  0  0  0  0  0  0
    4.7840   -2.7820   -0.8913 C   0  0  0  0  0  0  0  0  0  0  0  0
    4.1020   -4.3651   -0.4194 S   0  0  0  0  0  0  0  0  0  0  0  0
    5.7804   -2.5001   -1.8094 N   0  0  0  0  0  0  0  0  0  0  0  0
    2.3929   -1.4393    1.5382 C   0  0  0  0  0  0  0  0  0  0  0  0
    1.9847   -1.8114    2.8190 C   0  0  0  0  0  0  0  0  0  0  0  0
    1.2669   -0.9229    3.6009 C   0  0  0  0  0  0  0  0  0  0  0  0
    0.9577    0.3421    3.1125 C   0  0  0  0  0  0  0  0  0  0  0  0
    1.3588    0.7131    1.8335 C   0  0  0  0  0  0  0  0  0  0  0  0
    2.0767   -0.1722    1.0482 C   0  0  0  0  0  0  0  0  0  0  0  0
    1.0502    1.9487    1.3563 O   0  0  0  0  0  0  0  0  0  0  0  0
    1.4988    2.2652    0.0369 C   0  0  0  0  0  0  0  0  0  0  0  0
    0.2571    1.2162    3.8852 O   0  0  0  0  0  0  0  0  0  0  0  0
   -1.1675    1.1779    3.7796 C   0  0  0  0  0  0  0  0  0  0  0  0
    0.8691   -1.2851    4.8500 O   0  0  0  0  0  0  0  0  0  0  0  0
    1.3291   -2.5473    5.3369 C   0  0  0  0  0  0  0  0  0  0  0  0
   -2.6301   -6.6245    4.7895 H   0  0  0  0  0  0  0  0  0  0  0  0
   -1.9137   -5.0037    4.6226 H   0  0  0  0  0  0  0  0  0  0  0  0
   -2.5076   -5.8667    3.1836 H   0  0  0  0  0  0  0  0  0  0  0  0
   -1.2017   -4.2828    2.7965 H   0  0  0  0  0  0  0  0  0  0  0  0
    0.3979   -3.0401    1.4038 H   0  0  0  0  0  0  0  0  0  0  0  0
    3.3234   -6.1159    2.0274 H   0  0  0  0  0  0  0  0  0  0  0  0
    2.6851   -7.9889    3.4125 H   0  0  0  0  0  0  0  0  0  0  0  0
    1.1638   -8.1128    4.1147 H   0  0  0  0  0  0  0  0  0  0  0  0
    6.0512   -1.5817   -1.9646 H   0  0  0  0  0  0  0  0  0  0  0  0
    6.2080   -3.2210   -2.2977 H   0  0  0  0  0  0  0  0  0  0  0  0
    2.2281   -2.7921    3.2002 H   0  0  0  0  0  0  0  0  0  0  0  0
    2.3921    0.1181    0.0569 H   0  0  0  0  0  0  0  0  0  0  0  0
    2.5861    2.1990   -0.0028 H   0  0  0  0  0  0  0  0  0  0  0  0
    1.0657    1.5604   -0.6729 H   0  0  0  0  0  0  0  0  0  0  0  0
    1.1868    3.2775   -0.2198 H   0  0  0  0  0  0  0  0  0  0  0  0
   -1.5261    0.1873    4.0592 H   0  0  0  0  0  0  0  0  0  0  0  0
   -1.6015    1.9230    4.4463 H   0  0  0  0  0  0  0  0  0  0  0  0
   -1.4616    1.3942    2.7525 H   0  0  0  0  0  0  0  0  0  0  0  0
    0.9966   -3.3389    4.6654 H   0  0  0  0  0  0  0  0  0  0  0  0
    2.4181   -2.5439    5.3834 H   0  0  0  0  0  0  0  0  0  0  0  0
    0.9234   -2.7220    6.3335 H   0  0  0  0  0  0  0  0  0  0  0  0
  1  2  1  0  0  0  0
  1 28  1  0  0  0  0
  1 29  1  0  0  0  0
  1 30  1  0  0  0  0
  2  3  1  0  0  0  0
  3  8  2  0  0  0  0
  3  4  1  0  0  0  0
  4  5  2  0  0  0  0
  4 31  1  0  0  0  0
  5  6  1  0  0  0  0
  5 32  1  0  0  0  0
  6  7  2  0  0  0  0
  6 10  1  0  0  0  0
  7  8  1  0  0  0  0
  7 33  1  0  0  0  0
  8  9  1  0  0  0  0
  9 34  1  0  0  0  0
  9 35  1  0  0  0  0
 10 14  1  0  0  0  0
 10 11  2  0  0  0  0
 11 12  1  0  0  0  0
 11 16  1  0  0  0  0
 12 13  2  0  0  0  0
 13 14  1  0  0  0  0
 13 15  1  0  0  0  0
 15 36  1  0  0  0  0
 15 37  1  0  0  0  0
 16 21  2  0  0  0  0
 16 17  1  0  0  0  0
 17 18  2  0  0  0  0
 17 38  1  0  0  0  0
 18 19  1  0  0  0  0
 18 26  1  0  0  0  0
 19 20  2  0  0  0  0
 19 24  1  0  0  0  0
 20 21  1  0  0  0  0
 20 22  1  0  0  0  0
 21 39  1  0  0  0  0
 22 23  1  0  0  0  0
 23 40  1  0  0  0  0
 23 41  1  0  0  0  0
 23 42  1  0  0  0  0
 24 25  1  0  0  0  0
 25 43  1  0  0  0  0
 25 44  1  0  0  0  0
 25 45  1  0  0  0  0
 26 27  1  0  0  0  0
 27 46  1  0  0  0  0
 27 47  1  0  0  0  0
 27 48  1  0  0  0  0
M  END
$$$$
ZINC00589466
  -OEChem-08230709453D

 43 46  0     0  0  0  0  0  0999 V2000
    1.3817    5.0539   -1.3573 C   0  0  0  0  0  0  0  0  0  0  0  0
    1.5160    4.5090    0.0660 C   0  0  0  0  0  0  0  0  0  0  0  0
    2.1628    3.1486    0.0242 C   0  0  0  0  0  0  0  0  0  0  0  0
    1.3865    1.9918    0.0288 C   0  0  0  0  0  0  0  0  0  0  0  0
    2.0310    0.7404   -0.0107 C   0  0  0  0  0  0  0  0  0  0  0  0
    3.4248    0.7079   -0.0535 C   0  0  0  0  0  0  0  0  0  0  0  0
    4.1216    1.8202   -0.0561 N   0  0  0  0  0  0  0  0  0  0  0  0
    3.5480    3.0218   -0.0195 C   0  0  0  0  0  0  0  0  0  0  0  0
    4.3923    4.2342   -0.0258 C   0  0  0  0  0  0  0  0  0  0  0  0
    3.8818    5.3304    0.0896 O   0  0  0  0  0  0  0  0  0  0  0  0
    5.7284    4.1241   -0.1597 O   0  0  0  0  0  0  0  0  0  0  0  0
    6.4950    5.3572   -0.1573 C   0  0  0  0  0  0  0  0  0  0  0  0
    6.9006    5.7028    1.2769 C   0  0  0  0  0  0  0  0  0  0  0  0
    7.7504    5.1788   -1.0135 C   0  0  0  0  0  0  0  0  0  0  0  0
    1.0655   -0.2406    0.0025 N   0  0  0  0  0  0  0  0  0  0  0  0
    1.2437   -1.1938   -0.0179 H   0  0  0  0  0  0  0  0  0  0  0  0
   -0.1984    0.3286    0.0496 C   0  0  0  0  0  0  0  0  0  0  0  0
   -0.0551    1.7156    0.0677 C   0  0  0  0  0  0  0  0  0  0  0  0
   -1.1936    2.5690    0.1209 C   0  0  0  0  0  0  0  0  0  0  0  0
   -2.4491    1.9263    0.1439 C   0  0  0  0  0  0  0  0  0  0  0  0
   -2.5851    0.5582    0.1259 C   0  0  0  0  0  0  0  0  0  0  0  0
   -1.4692   -0.2510    0.0789 C   0  0  0  0  0  0  0  0  0  0  0  0
   -3.5765    3.2987    0.2009 S   0  0  0  0  0  0  0  0  0  0  0  0
   -2.3489    4.5975    0.1848 C   0  0  0  0  0  0  0  0  0  0  0  0
   -1.2249    3.9172    0.1393 N   0  0  0  0  0  0  0  0  0  0  0  0
   -2.5337    5.9651    0.2130 N   0  0  0  0  0  0  0  0  0  0  0  0
    0.7657    4.3768   -1.9490 H   0  0  0  0  0  0  0  0  0  0  0  0
    0.9139    6.0380   -1.3270 H   0  0  0  0  0  0  0  0  0  0  0  0
    2.3699    5.1353   -1.8100 H   0  0  0  0  0  0  0  0  0  0  0  0
    0.5277    4.4277    0.5187 H   0  0  0  0  0  0  0  0  0  0  0  0
    2.1320    5.1862    0.6577 H   0  0  0  0  0  0  0  0  0  0  0  0
    3.9362   -0.2428   -0.0842 H   0  0  0  0  0  0  0  0  0  0  0  0
    5.8871    6.1637   -0.5674 H   0  0  0  0  0  0  0  0  0  0  0  0
    6.0063    5.8299    1.8868 H   0  0  0  0  0  0  0  0  0  0  0  0
    7.5085    4.8963    1.6869 H   0  0  0  0  0  0  0  0  0  0  0  0
    7.4761    6.6285    1.2786 H   0  0  0  0  0  0  0  0  0  0  0  0
    7.4614    4.9326   -2.0352 H   0  0  0  0  0  0  0  0  0  0  0  0
    8.3259    6.1045   -1.0117 H   0  0  0  0  0  0  0  0  0  0  0  0
    8.3583    4.3723   -0.6034 H   0  0  0  0  0  0  0  0  0  0  0  0
   -3.5699    0.1154    0.1483 H   0  0  0  0  0  0  0  0  0  0  0  0
   -1.5770   -1.3255    0.0652 H   0  0  0  0  0  0  0  0  0  0  0  0
   -3.4307    6.3327    0.2461 H   0  0  0  0  0  0  0  0  0  0  0  0
   -1.7665    6.5585    0.1997 H   0  0  0  0  0  0  0  0  0  0  0  0
  1  2  1  0  0  0  0
  1 27  1  0  0  0  0
  1 28  1  0  0  0  0
  1 29  1  0  0  0  0
  2  3  1  0  0  0  0
  2 30  1  0  0  0  0
  2 31  1  0  0  0  0
  3  8  2  0  0  0  0
  3  4  1  0  0  0  0
  4 18  1  0  0  0  0
  4  5  2  0  0  0  0
  5  6  1  0  0  0  0
  5 15  1  0  0  0  0
  6  7  2  0  0  0  0
  6 32  1  0  0  0  0
  7  8  1  0  0  0  0
  8  9  1  0  0  0  0
  9 10  2  0  0  0  0
  9 11  1  0  0  0  0
 11 12  1  0  0  0  0
 12 13  1  0  0  0  0
 12 14  1  0  0  0  0
 12 33  1  0  0  0  0
 13 34  1  0  0  0  0
 13 35  1  0  0  0  0
 13 36  1  0  0  0  0
 14 37  1  0  0  0  0
 14 38  1  0  0  0  0
 14 39  1  0  0  0  0
 15 16  1  0  0  0  0
 15 17  1  0  0  0  0
 17 22  2  0  0  0  0
 17 18  1  0  0  0  0
 18 19  2  0  0  0  0
 19 25  1  0  0  0  0
 19 20  1  0  0  0  0
 20 21  2  0  0  0  0
 20 23  1  0  0  0  0
 21 22  1  0  0  0  0
 21 40  1  0  0  0  0
 22 41  1  0  0  0  0
 23 24  1  0  0  0  0
 24 25  2  0  0  0  0
 24 26  1  0  0  0  0
 26 42  1  0  0  0  0
 26 43  1  0  0  0  0
M  END
$$$$
ZINC00590361
  -OEChem-08230709453D

 45 48  0     0  0  0  0  0  0999 V2000
    4.9105    1.9719   -1.5592 C   0  0  0  0  0  0  0  0  0  0  0  0
    4.1040    0.9723   -1.3012 C   0  0  0  0  0  0  0  0  0  0  0  0
    3.5585    0.7841    0.0909 C   0  0  0  0  0  0  0  0  0  0  0  0
    2.0953    0.7320    0.0391 N   0  0  0  0  0  0  0  0  0  0  0  0
    1.2412    1.8072    0.0383 C   0  0  0  0  0  0  0  0  0  0  0  0
   -0.0602    1.2733   -0.0212 C   0  0  0  0  0  0  0  0  0  0  0  0
   -1.1482    2.1678   -0.0298 C   0  0  0  0  0  0  0  0  0  0  0  0
   -0.8996    3.4703    0.0093 N   0  0  0  0  0  0  0  0  0  0  0  0
    0.3470    3.9309    0.0648 C   0  0  0  0  0  0  0  0  0  0  0  0
    1.3994    3.1236    0.0793 N   0  0  0  0  0  0  0  0  0  0  0  0
    0.5602    5.3462    0.1100 C   0  0  0  0  0  0  0  0  0  0  0  0
    0.7350    6.5065    0.1470 C   0  0  0  0  0  0  0  0  0  0  0  0
    0.9542    7.9614    0.1934 C   0  0  0  0  0  0  0  0  0  0  0  0
    1.1797    8.5054    1.6140 C   0  0  0  0  0  0  0  0  0  0  0  0
    0.3118    9.7077    1.2066 C   0  0  0  0  0  0  0  0  0  0  0  0
   -0.3466    8.7813    0.1707 C   0  0  0  0  0  0  0  0  0  0  0  0
    1.9279    8.4063   -0.7531 O   0  0  0  0  0  0  0  0  0  0  0  0
   -2.4489    1.6979   -0.0812 N   0  0  0  0  0  0  0  0  0  0  0  0
    0.0551   -0.0670   -0.0531 N   0  0  0  0  0  0  0  0  0  0  0  0
    1.3225   -0.4000   -0.0180 C   0  0  0  0  0  0  0  0  0  0  0  0
    1.8403   -1.7850   -0.0375 C   0  0  0  0  0  0  0  0  0  0  0  0
    1.0316   -2.8414    0.3847 C   0  0  0  0  0  0  0  0  0  0  0  0
    1.5176   -4.1323    0.3595 C   0  0  0  0  0  0  0  0  0  0  0  0
    2.8078   -4.3811   -0.0731 C   0  0  0  0  0  0  0  0  0  0  0  0
    3.6186   -3.3371   -0.4883 C   0  0  0  0  0  0  0  0  0  0  0  0
    3.1410   -2.0403   -0.4726 C   0  0  0  0  0  0  0  0  0  0  0  0
    4.8780   -3.5872   -0.9087 F   0  0  0  0  0  0  0  0  0  0  0  0
    5.3014    2.1067   -2.5569 H   0  0  0  0  0  0  0  0  0  0  0  0
    5.1843    2.6612   -0.7742 H   0  0  0  0  0  0  0  0  0  0  0  0
    3.8301    0.2830   -2.0863 H   0  0  0  0  0  0  0  0  0  0  0  0
    3.8704    1.6185    0.7192 H   0  0  0  0  0  0  0  0  0  0  0  0
    3.9407   -0.1475    0.5081 H   0  0  0  0  0  0  0  0  0  0  0  0
    0.7328    7.8886    2.3938 H   0  0  0  0  0  0  0  0  0  0  0  0
    2.2173    8.7664    1.8220 H   0  0  0  0  0  0  0  0  0  0  0  0
    0.8795   10.5255    0.7626 H   0  0  0  0  0  0  0  0  0  0  0  0
   -0.3690   10.0403    1.9901 H   0  0  0  0  0  0  0  0  0  0  0  0
   -0.5412    9.2651   -0.7865 H   0  0  0  0  0  0  0  0  0  0  0  0
   -1.2108    8.2400    0.5559 H   0  0  0  0  0  0  0  0  0  0  0  0
    2.7570    7.9094   -0.7276 H   0  0  0  0  0  0  0  0  0  0  0  0
   -2.5774    1.1632   -0.9164 H   0  0  0  0  0  0  0  0  0  0  0  0
   -3.1905    2.3231   -0.0867 H   0  0  0  0  0  0  0  0  0  0  0  0
    0.0255   -2.6490    0.7270 H   0  0  0  0  0  0  0  0  0  0  0  0
    0.8906   -4.9502    0.6823 H   0  0  0  0  0  0  0  0  0  0  0  0
    3.1847   -5.3931   -0.0868 H   0  0  0  0  0  0  0  0  0  0  0  0
    3.7732   -1.2265   -0.7959 H   0  0  0  0  0  0  0  0  0  0  0  0
  1  2  2  0  0  0  0
  1 28  1  0  0  0  0
  1 29  1  0  0  0  0
  2  3  1  0  0  0  0
  2 30  1  0  0  0  0
  3  4  1  0  0  0  0
  3 31  1  0  0  0  0
  3 32  1  0  0  0  0
  4 20  1  0  0  0  0
  4  5  1  0  0  0  0
  5 10  2  0  0  0  0
  5  6  1  0  0  0  0
  6  7  2  0  0  0  0
  6 19  1  0  0  0  0
  7  8  1  0  0  0  0
  7 18  1  0  0  0  0
  8  9  2  0  0  0  0
  9 10  1  0  0  0  0
  9 11  1  0  0  0  0
 11 12  3  0  0  0  0
 12 13  1  0  0  0  0
 13 16  1  0  0  0  0
 13 14  1  0  0  0  0
 13 17  1  0  0  0  0
 14 15  1  0  0  0  0
 14 33  1  0  0  0  0
 14 34  1  0  0  0  0
 15 16  1  0  0  0  0
 15 35  1  0  0  0  0
 15 36  1  0  0  0  0
 16 37  1  0  0  0  0
 16 38  1  0  0  0  0
 17 39  1  0  0  0  0
 18 40  1  0  0  0  0
 18 41  1  0  0  0  0
 19 20  2  0  0  0  0
 20 21  1  0  0  0  0
 21 26  2  0  0  0  0
 21 22  1  0  0  0  0
 22 23  2  0  0  0  0
 22 42  1  0  0  0  0
 23 24  1  0  0  0  0
 23 43  1  0  0  0  0
 24 25  2  0  0  0  0
 24 44  1  0  0  0  0
 25 26  1  0  0  0  0
 25 27  1  0  0  0  0
 26 45  1  0  0  0  0
M  END
$$$$
ZINC00593300
  -OEChem-08230709453D

 47 49  0     0  0  0  0  0  0999 V2000
   -3.2718    3.3112   -2.1756 C   0  0  0  0  0  0  0  0  0  0  0  0
   -3.5163    3.1830   -0.6707 C   0  0  0  0  0  0  0  0  0  0  0  0
   -3.6219    1.7253   -0.3070 C   0  0  0  0  0  0  0  0  0  0  0  0
   -2.5187    1.0366    0.0185 C   0  0  0  0  0  0  0  0  0  0  0  0
   -1.2239    1.7583    0.0174 C   0  0  0  0  0  0  0  0  0  0  0  0
   -0.0126    1.0758    0.0080 C   0  0  0  0  0  0  0  0  0  0  0  0
    1.1720    1.7863    0.0005 C   0  0  0  0  0  0  0  0  0  0  0  0
    1.1571    3.1702    0.0080 C   0  0  0  0  0  0  0  0  0  0  0  0
   -0.0458    3.8603    0.0234 C   0  0  0  0  0  0  0  0  0  0  0  0
   -1.2420    3.1575    0.0309 C   0  0  0  0  0  0  0  0  0  0  0  0
   -2.4389    3.7993    0.0457 O   0  0  0  0  0  0  0  0  0  0  0  0
   -0.0529    5.2203    0.0316 O   0  0  0  0  0  0  0  0  0  0  0  0
    1.2170    5.8757    0.0236 C   0  0  0  0  0  0  0  0  0  0  0  0
    2.4872    1.0508   -0.0165 C   0  0  0  0  0  0  0  0  0  0  0  0
    2.9118    0.8136   -1.4429 C   0  0  0  0  0  0  0  0  0  0  0  0
    2.6191   -0.3774   -2.0783 C   0  0  0  0  0  0  0  0  0  0  0  0
    3.0059   -0.5548   -3.3329 N   0  0  0  0  0  0  0  0  0  0  0  0
    3.6670    0.3923   -3.9822 C   0  0  0  0  0  0  0  0  0  0  0  0
    3.9667    1.5480   -3.4092 N   0  0  0  0  0  0  0  0  0  0  0  0
    3.6050    1.7952   -2.1541 C   0  0  0  0  0  0  0  0  0  0  0  0
    3.9155    3.0070   -1.5590 N   0  0  0  0  0  0  0  0  0  0  0  0
    4.0536    0.1683   -5.2921 N   0  0  0  0  0  0  0  0  0  0  0  0
   -2.6052   -0.6733    0.4352 S   0  0  0  0  0  0  0  0  0  0  0  0
   -4.3690   -1.0716    0.2901 C   0  0  0  0  0  0  0  0  0  0  0  0
   -4.8247    3.8893   -0.3101 C   0  0  0  0  0  0  0  0  0  0  0  0
   -4.1016    2.8586   -2.7184 H   0  0  0  0  0  0  0  0  0  0  0  0
   -3.1947    4.3652   -2.4427 H   0  0  0  0  0  0  0  0  0  0  0  0
   -2.3448    2.8012   -2.4378 H   0  0  0  0  0  0  0  0  0  0  0  0
   -4.5846    1.2357   -0.3086 H   0  0  0  0  0  0  0  0  0  0  0  0
    0.0021   -0.0041    0.0020 H   0  0  0  0  0  0  0  0  0  0  0  0
    2.0887    3.7165    0.0014 H   0  0  0  0  0  0  0  0  0  0  0  0
    1.0686    6.9555    0.0314 H   0  0  0  0  0  0  0  0  0  0  0  0
    1.7838    5.5804    0.9065 H   0  0  0  0  0  0  0  0  0  0  0  0
    1.7671    5.5910   -0.8733 H   0  0  0  0  0  0  0  0  0  0  0  0
    3.2437    1.6473    0.4934 H   0  0  0  0  0  0  0  0  0  0  0  0
    2.3749    0.0938    0.4930 H   0  0  0  0  0  0  0  0  0  0  0  0
    2.0804   -1.1555   -1.5580 H   0  0  0  0  0  0  0  0  0  0  0  0
    3.6511    3.1787   -0.6416 H   0  0  0  0  0  0  0  0  0  0  0  0
    4.3973    3.6839   -2.0596 H   0  0  0  0  0  0  0  0  0  0  0  0
    3.8400   -0.6738   -5.7236 H   0  0  0  0  0  0  0  0  0  0  0  0
    4.5381    0.8534   -5.7787 H   0  0  0  0  0  0  0  0  0  0  0  0
   -4.7020   -0.8801   -0.7300 H   0  0  0  0  0  0  0  0  0  0  0  0
   -4.5252   -2.1229    0.5320 H   0  0  0  0  0  0  0  0  0  0  0  0
   -4.9397   -0.4511    0.9811 H   0  0  0  0  0  0  0  0  0  0  0  0
   -5.0071    3.7922    0.7601 H   0  0  0  0  0  0  0  0  0  0  0  0
   -4.7520    4.9448   -0.5720 H   0  0  0  0  0  0  0  0  0  0  0  0
   -5.6473    3.4339   -0.8616 H   0  0  0  0  0  0  0  0  0  0  0  0
  1  2  1  0  0  0  0
  1 26  1  0  0  0  0
  1 27  1  0  0  0  0
  1 28  1  0  0  0  0
  2 11  1  0  0  0  0
  2  3  1  0  0  0  0
  2 25  1  0  0  0  0
  3  4  2  0  0  0  0
  3 29  1  0  0  0  0
  4  5  1  0  0  0  0
  4 23  1  0  0  0  0
  5 10  2  0  0  0  0
  5  6  1  0  0  0  0
  6  7  2  0  0  0  0
  6 30  1  0  0  0  0
  7  8  1  0  0  0  0
  7 14  1  0  0  0  0
  8  9  2  0  0  0  0
  8 31  1  0  0  0  0
  9 10  1  0  0  0  0
  9 12  1  0  0  0  0
 10 11  1  0  0  0  0
 12 13  1  0  0  0  0
 13 32  1  0  0  0  0
 13 33  1  0  0  0  0
 13 34  1  0  0  0  0
 14 15  1  0  0  0  0
 14 35  1  0  0  0  0
 14 36  1  0  0  0  0
 15 20  2  0  0  0  0
 15 16  1  0  0  0  0
 16 17  2  0  0  0  0
 16 37  1  0  0  0  0
 17 18  1  0  0  0  0
 18 19  2  0  0  0  0
 18 22  1  0  0  0  0
 19 20  1  0  0  0  0
 20 21  1  0  0  0  0
 21 38  1  0  0  0  0
 21 39  1  0  0  0  0
 22 40  1  0  0  0  0
 22 41  1  0  0  0  0
 23 24  1  0  0  0  0
 24 42  1  0  0  0  0
 24 43  1  0  0  0  0
 24 44  1  0  0  0  0
 25 45  1  0  0  0  0
 25 46  1  0  0  0  0
 25 47  1  0  0  0  0
M  END
$$$$
ZINC00593300
  -OEChem-08230709453D

 48 50  0     0  0  0  0  0  0999 V2000
   -3.2717    3.3099   -2.1731 C   0  0  0  0  0  0  0  0  0  0  0  0
   -3.5157    3.1815   -0.6681 C   0  0  0  0  0  0  0  0  0  0  0  0
   -3.6209    1.7238   -0.3045 C   0  0  0  0  0  0  0  0  0  0  0  0
   -2.5175    1.0352    0.0206 C   0  0  0  0  0  0  0  0  0  0  0  0
   -1.2228    1.7572    0.0191 C   0  0  0  0  0  0  0  0  0  0  0  0
   -0.0114    1.0749    0.0093 C   0  0  0  0  0  0  0  0  0  0  0  0
    1.1731    1.7856    0.0014 C   0  0  0  0  0  0  0  0  0  0  0  0
    1.1580    3.1694    0.0091 C   0  0  0  0  0  0  0  0  0  0  0  0
   -0.0450    3.8594    0.0249 C   0  0  0  0  0  0  0  0  0  0  0  0
   -1.2411    3.1564    0.0328 C   0  0  0  0  0  0  0  0  0  0  0  0
   -2.4381    3.7980    0.0480 O   0  0  0  0  0  0  0  0  0  0  0  0
   -0.0524    5.2193    0.0332 O   0  0  0  0  0  0  0  0  0  0  0  0
    1.2174    5.8750    0.0249 C   0  0  0  0  0  0  0  0  0  0  0  0
    2.4884    1.0503   -0.0161 C   0  0  0  0  0  0  0  0  0  0  0  0
    2.9126    0.8133   -1.4426 C   0  0  0  0  0  0  0  0  0  0  0  0
    2.6253   -0.3801   -2.0760 C   0  0  0  0  0  0  0  0  0  0  0  0
    3.6773    0.3878   -3.9784 C   0  0  0  0  0  0  0  0  0  0  0  0
    3.9719    1.5458   -3.4072 N   0  3  0  0  0  0  0  0  0  0  0  0
    3.6050    1.7952   -2.1541 C   0  0  0  0  0  0  0  0  0  0  0  0
    3.9155    3.0070   -1.5590 N   0  0  0  0  0  0  0  0  0  0  0  0
    4.0692    0.1615   -5.2863 N   0  0  0  0  0  0  0  0  0  0  0  0
   -2.6036   -0.6747    0.4372 S   0  0  0  0  0  0  0  0  0  0  0  0
   -4.3674   -1.0733    0.2926 C   0  0  0  0  0  0  0  0  0  0  0  0
   -4.8241    3.8876   -0.3070 C   0  0  0  0  0  0  0  0  0  0  0  0
   -4.1016    2.8572   -2.7156 H   0  0  0  0  0  0  0  0  0  0  0  0
   -3.1948    4.3639   -2.4401 H   0  0  0  0  0  0  0  0  0  0  0  0
   -2.3447    2.8001   -2.4356 H   0  0  0  0  0  0  0  0  0  0  0  0
   -4.5835    1.2340   -0.3058 H   0  0  0  0  0  0  0  0  0  0  0  0
    0.0035   -0.0050    0.0032 H   0  0  0  0  0  0  0  0  0  0  0  0
    2.0895    3.7159    0.0022 H   0  0  0  0  0  0  0  0  0  0  0  0
    1.0689    6.9547    0.0328 H   0  0  0  0  0  0  0  0  0  0  0  0
    1.7846    5.5797    0.9076 H   0  0  0  0  0  0  0  0  0  0  0  0
    1.7673    5.5904   -0.8722 H   0  0  0  0  0  0  0  0  0  0  0  0
    3.2450    1.6468    0.4936 H   0  0  0  0  0  0  0  0  0  0  0  0
    2.3764    0.0932    0.4934 H   0  0  0  0  0  0  0  0  0  0  0  0
    2.0873   -1.1586   -1.5555 H   0  0  0  0  0  0  0  0  0  0  0  0
    3.6511    3.1787   -0.6416 H   0  0  0  0  0  0  0  0  0  0  0  0
    4.3973    3.6839   -2.0596 H   0  0  0  0  0  0  0  0  0  0  0  0
    3.8594   -0.6823   -5.7164 H   0  0  0  0  0  0  0  0  0  0  0  0
    4.5537    0.8466   -5.7729 H   0  0  0  0  0  0  0  0  0  0  0  0
   -4.7007   -0.8817   -0.7274 H   0  0  0  0  0  0  0  0  0  0  0  0
   -4.5233   -2.1246    0.5345 H   0  0  0  0  0  0  0  0  0  0  0  0
   -4.9379   -0.4529    0.9839 H   0  0  0  0  0  0  0  0  0  0  0  0
   -5.0061    3.7904    0.7632 H   0  0  0  0  0  0  0  0  0  0  0  0
   -4.7516    4.9431   -0.5688 H   0  0  0  0  0  0  0  0  0  0  0  0
   -5.6468    3.4321   -0.8583 H   0  0  0  0  0  0  0  0  0  0  0  0
    3.0013   -0.6238   -3.3634 N   0  0  0  0  0  0  0  0  0  0  0  0
    4.4748    2.2422   -3.9192 H   0  0  0  0  0  0  0  0  0  0  0  0
  1  2  1  0  0  0  0
  1 25  1  0  0  0  0
  1 26  1  0  0  0  0
  1 27  1  0  0  0  0
  2 11  1  0  0  0  0
  2  3  1  0  0  0  0
  2 24  1  0  0  0  0
  3  4  2  0  0  0  0
  3 28  1  0  0  0  0
  4  5  1  0  0  0  0
  4 22  1  0  0  0  0
  5 10  2  0  0  0  0
  5  6  1  0  0  0  0
  6  7  2  0  0  0  0
  6 29  1  0  0  0  0
  7  8  1  0  0  0  0
  7 14  1  0  0  0  0
  8  9  2  0  0  0  0
  8 30  1  0  0  0  0
  9 10  1  0  0  0  0
  9 12  1  0  0  0  0
 10 11  1  0  0  0  0
 12 13  1  0  0  0  0
 13 31  1  0  0  0  0
 13 32  1  0  0  0  0
 13 33  1  0  0  0  0
 14 15  1  0  0  0  0
 14 34  1  0  0  0  0
 14 35  1  0  0  0  0
 15 16  2  0  0  0  0
 15 19  1  0  0  0  0
 16 36  1  0  0  0  0
 16 47  1  0  0  0  0
 17 21  1  0  0  0  0
 17 18  1  0  0  0  0
 17 47  2  0  0  0  0
 18 48  1  0  0  0  0
 18 19  2  0  0  0  0
 19 20  1  0  0  0  0
 20 37  1  0  0  0  0
 20 38  1  0  0  0  0
 21 39  1  0  0  0  0
 21 40  1  0  0  0  0
 22 23  1  0  0  0  0
 23 41  1  0  0  0  0
 23 42  1  0  0  0  0
 23 43  1  0  0  0  0
 24 44  1  0  0  0  0
 24 45  1  0  0  0  0
 24 46  1  0  0  0  0
M  CHG  1  18   1
M  END
$$$$
ZINC00593300
  -OEChem-08230709453D

 48 50  0     0  0  0  0  0  0999 V2000
   -3.2718    3.3112   -2.1756 C   0  0  0  0  0  0  0  0  0  0  0  0
   -3.5163    3.1830   -0.6707 C   0  0  0  0  0  0  0  0  0  0  0  0
   -3.6219    1.7253   -0.3070 C   0  0  0  0  0  0  0  0  0  0  0  0
   -2.5187    1.0366    0.0185 C   0  0  0  0  0  0  0  0  0  0  0  0
   -1.2239    1.7583    0.0174 C   0  0  0  0  0  0  0  0  0  0  0  0
   -0.0126    1.0758    0.0080 C   0  0  0  0  0  0  0  0  0  0  0  0
    1.1720    1.7863    0.0005 C   0  0  0  0  0  0  0  0  0  0  0  0
    1.1571    3.1702    0.0080 C   0  0  0  0  0  0  0  0  0  0  0  0
   -0.0458    3.8603    0.0234 C   0  0  0  0  0  0  0  0  0  0  0  0
   -1.2420    3.1575    0.0309 C   0  0  0  0  0  0  0  0  0  0  0  0
   -2.4389    3.7993    0.0457 O   0  0  0  0  0  0  0  0  0  0  0  0
   -0.0529    5.2203    0.0316 O   0  0  0  0  0  0  0  0  0  0  0  0
    1.2170    5.8757    0.0236 C   0  0  0  0  0  0  0  0  0  0  0  0
    2.4872    1.0508   -0.0165 C   0  0  0  0  0  0  0  0  0  0  0  0
    2.9118    0.8136   -1.4429 C   0  0  0  0  0  0  0  0  0  0  0  0
    2.6191   -0.3774   -2.0783 C   0  0  0  0  0  0  0  0  0  0  0  0
    3.6670    0.3923   -3.9822 C   0  0  0  0  0  0  0  0  0  0  0  0
    3.9667    1.5480   -3.4092 N   0  0  0  0  0  0  0  0  0  0  0  0
    3.6050    1.7952   -2.1541 C   0  0  0  0  0  0  0  0  0  0  0  0
    3.9155    3.0070   -1.5590 N   0  0  0  0  0  0  0  0  0  0  0  0
    4.0536    0.1683   -5.2921 N   0  0  0  0  0  0  0  0  0  0  0  0
   -2.6052   -0.6733    0.4352 S   0  0  0  0  0  0  0  0  0  0  0  0
   -4.3690   -1.0716    0.2901 C   0  0  0  0  0  0  0  0  0  0  0  0
   -4.8247    3.8893   -0.3101 C   0  0  0  0  0  0  0  0  0  0  0  0
   -4.1016    2.8586   -2.7184 H   0  0  0  0  0  0  0  0  0  0  0  0
   -3.1947    4.3652   -2.4427 H   0  0  0  0  0  0  0  0  0  0  0  0
   -2.3448    2.8012   -2.4378 H   0  0  0  0  0  0  0  0  0  0  0  0
   -4.5846    1.2357   -0.3086 H   0  0  0  0  0  0  0  0  0  0  0  0
    0.0021   -0.0041    0.0020 H   0  0  0  0  0  0  0  0  0  0  0  0
    2.0887    3.7165    0.0014 H   0  0  0  0  0  0  0  0  0  0  0  0
    1.0686    6.9555    0.0314 H   0  0  0  0  0  0  0  0  0  0  0  0
    1.7838    5.5804    0.9065 H   0  0  0  0  0  0  0  0  0  0  0  0
    1.7671    5.5910   -0.8733 H   0  0  0  0  0  0  0  0  0  0  0  0
    3.2437    1.6473    0.4934 H   0  0  0  0  0  0  0  0  0  0  0  0
    2.3749    0.0938    0.4930 H   0  0  0  0  0  0  0  0  0  0  0  0
    2.0804   -1.1555   -1.5580 H   0  0  0  0  0  0  0  0  0  0  0  0
    3.6511    3.1787   -0.6416 H   0  0  0  0  0  0  0  0  0  0  0  0
    4.3973    3.6839   -2.0596 H   0  0  0  0  0  0  0  0  0  0  0  0
    3.8400   -0.6738   -5.7236 H   0  0  0  0  0  0  0  0  0  0  0  0
    4.5381    0.8534   -5.7787 H   0  0  0  0  0  0  0  0  0  0  0  0
   -4.7020   -0.8801   -0.7300 H   0  0  0  0  0  0  0  0  0  0  0  0
   -4.5252   -2.1229    0.5320 H   0  0  0  0  0  0  0  0  0  0  0  0
   -4.9397   -0.4511    0.9811 H   0  0  0  0  0  0  0  0  0  0  0  0
   -5.0071    3.7922    0.7601 H   0  0  0  0  0  0  0  0  0  0  0  0
   -4.7520    4.9448   -0.5720 H   0  0  0  0  0  0  0  0  0  0  0  0
   -5.6473    3.4339   -0.8616 H   0  0  0  0  0  0  0  0  0  0  0  0
    2.9902   -0.6190   -3.3675 N   0  3  0  0  0  0  0  0  0  0  0  0
    2.7625   -1.4923   -3.7980 H   0  0  0  0  0  0  0  0  0  0  0  0
  1  2  1  0  0  0  0
  1 25  1  0  0  0  0
  1 26  1  0  0  0  0
  1 27  1  0  0  0  0
  2 11  1  0  0  0  0
  2  3  1  0  0  0  0
  2 24  1  0  0  0  0
  3  4  2  0  0  0  0
  3 28  1  0  0  0  0
  4  5  1  0  0  0  0
  4 22  1  0  0  0  0
  5 10  2  0  0  0  0
  5  6  1  0  0  0  0
  6  7  2  0  0  0  0
  6 29  1  0  0  0  0
  7  8  1  0  0  0  0
  7 14  1  0  0  0  0
  8  9  2  0  0  0  0
  8 30  1  0  0  0  0
  9 10  1  0  0  0  0
  9 12  1  0  0  0  0
 10 11  1  0  0  0  0
 12 13  1  0  0  0  0
 13 31  1  0  0  0  0
 13 32  1  0  0  0  0
 13 33  1  0  0  0  0
 14 15  1  0  0  0  0
 14 34  1  0  0  0  0
 14 35  1  0  0  0  0
 15 19  2  0  0  0  0
 15 16  1  0  0  0  0
 16 36  1  0  0  0  0
 16 47  2  0  0  0  0
 17 18  2  0  0  0  0
 17 21  1  0  0  0  0
 17 47  1  0  0  0  0
 18 19  1  0  0  0  0
 19 20  1  0  0  0  0
 20 37  1  0  0  0  0
 20 38  1  0  0  0  0
 21 39  1  0  0  0  0
 21 40  1  0  0  0  0
 22 23  1  0  0  0  0
 23 41  1  0  0  0  0
 23 42  1  0  0  0  0
 23 43  1  0  0  0  0
 24 44  1  0  0  0  0
 24 45  1  0  0  0  0
 24 46  1  0  0  0  0
 47 48  1  0  0  0  0
M  CHG  1  47   1
M  END
$$$$
ZINC00596539
  -OEChem-08230709453D

 43 45  0     0  0  0  0  0  0999 V2000
   -5.6639    5.0661   -1.6367 C   0  0  0  0  0  0  0  0  0  0  0  0
   -4.6507    3.9586   -1.5027 C   0  0  0  0  0  0  0  0  0  0  0  0
   -4.8905    2.6410   -1.5989 C   0  0  0  0  0  0  0  0  0  0  0  0
   -3.7284    1.9421   -1.4227 N   0  0  0  0  0  0  0  0  0  0  0  0
   -3.6498    0.9756   -1.4486 H   0  0  0  0  0  0  0  0  0  0  0  0
   -2.6855    2.8162   -1.2031 C   0  0  0  0  0  0  0  0  0  0  0  0
   -3.2176    4.1157   -1.2437 C   0  0  0  0  0  0  0  0  0  0  0  0
   -2.3813    5.2192   -1.0519 C   0  0  0  0  0  0  0  0  0  0  0  0
   -1.0470    5.0313   -0.8251 C   0  0  0  0  0  0  0  0  0  0  0  0
   -0.5125    3.7519   -0.7760 C   0  0  0  0  0  0  0  0  0  0  0  0
   -1.3192    2.6439   -0.9694 C   0  0  0  0  0  0  0  0  0  0  0  0
   -0.7704    1.3586   -0.9253 N   0  0  0  0  0  0  0  0  0  0  0  0
    0.4638    1.0208    0.1260 S   0  0  0  0  0  0  0  0  0  0  0  0
    0.0780    1.5479    1.3879 O   0  0  0  0  0  0  0  0  0  0  0  0
    0.7917   -0.3493   -0.0594 O   0  0  0  0  0  0  0  0  0  0  0  0
    1.8655    1.9497   -0.4005 C   0  0  0  0  0  0  0  0  0  0  0  0
    2.4112    2.9084    0.4335 C   0  0  0  0  0  0  0  0  0  0  0  0
    3.5099    3.6379    0.0231 C   0  0  0  0  0  0  0  0  0  0  0  0
    4.0661    3.4081   -1.2271 C   0  0  0  0  0  0  0  0  0  0  0  0
    3.5169    2.4460   -2.0618 C   0  0  0  0  0  0  0  0  0  0  0  0
    2.4212    1.7150   -1.6444 C   0  0  0  0  0  0  0  0  0  0  0  0
    1.8387    0.6838   -2.5319 N   0  3  0  0  0  0  0  0  0  0  0  0
    2.3976    0.3904   -3.5735 O   0  0  0  0  0  0  0  0  0  0  0  0
    0.8003    0.1284   -2.2206 O   0  5  0  0  0  0  0  0  0  0  0  0
    5.1474    4.1243   -1.6330 O   0  0  0  0  0  0  0  0  0  0  0  0
    5.6602    5.0979   -0.7213 C   0  0  0  0  0  0  0  0  0  0  0  0
   -6.2399    2.0241   -1.8627 C   0  0  0  0  0  0  0  0  0  0  0  0
   -6.0867    5.2921   -0.6578 H   0  0  0  0  0  0  0  0  0  0  0  0
   -5.1785    5.9561   -2.0372 H   0  0  0  0  0  0  0  0  0  0  0  0
   -6.4593    4.7510   -2.3121 H   0  0  0  0  0  0  0  0  0  0  0  0
   -2.7890    6.2188   -1.0832 H   0  0  0  0  0  0  0  0  0  0  0  0
   -0.4037    5.8861   -0.6773 H   0  0  0  0  0  0  0  0  0  0  0  0
    0.5432    3.6195   -0.5904 H   0  0  0  0  0  0  0  0  0  0  0  0
   -1.1125    0.6647   -1.5105 H   0  0  0  0  0  0  0  0  0  0  0  0
    1.9781    3.0866    1.4067 H   0  0  0  0  0  0  0  0  0  0  0  0
    3.9359    4.3862    0.6750 H   0  0  0  0  0  0  0  0  0  0  0  0
    3.9480    2.2654   -3.0354 H   0  0  0  0  0  0  0  0  0  0  0  0
    6.5204    5.5965   -1.1681 H   0  0  0  0  0  0  0  0  0  0  0  0
    4.8866    5.8341   -0.5029 H   0  0  0  0  0  0  0  0  0  0  0  0
    5.9647    4.6059    0.2024 H   0  0  0  0  0  0  0  0  0  0  0  0
   -6.7440    1.8338   -0.9152 H   0  0  0  0  0  0  0  0  0  0  0  0
   -6.8407    2.7073   -2.4631 H   0  0  0  0  0  0  0  0  0  0  0  0
   -6.1111    1.0849   -2.4007 H   0  0  0  0  0  0  0  0  0  0  0  0
  1  2  1  0  0  0  0
  1 28  1  0  0  0  0
  1 29  1  0  0  0  0
  1 30  1  0  0  0  0
  2  7  1  0  0  0  0
  2  3  2  0  0  0  0
  3  4  1  0  0  0  0
  3 27  1  0  0  0  0
  4  5  1  0  0  0  0
  4  6  1  0  0  0  0
  6 11  2  0  0  0  0
  6  7  1  0  0  0  0
  7  8  2  0  0  0  0
  8  9  1  0  0  0  0
  8 31  1  0  0  0  0
  9 10  2  0  0  0  0
  9 32  1  0  0  0  0
 10 11  1  0  0  0  0
 10 33  1  0  0  0  0
 11 12  1  0  0  0  0
 12 13  1  0  0  0  0
 12 34  1  0  0  0  0
 13 14  2  0  0  0  0
 13 15  2  0  0  0  0
 13 16  1  0  0  0  0
 16 21  2  0  0  0  0
 16 17  1  0  0  0  0
 17 18  2  0  0  0  0
 17 35  1  0  0  0  0
 18 19  1  0  0  0  0
 18 36  1  0  0  0  0
 19 20  2  0  0  0  0
 19 25  1  0  0  0  0
 20 21  1  0  0  0  0
 20 37  1  0  0  0  0
 21 22  1  0  0  0  0
 22 23  2  0  0  0  0
 22 24  1  0  0  0  0
 25 26  1  0  0  0  0
 26 38  1  0  0  0  0
 26 39  1  0  0  0  0
 26 40  1  0  0  0  0
 27 41  1  0  0  0  0
 27 42  1  0  0  0  0
 27 43  1  0  0  0  0
M  CHG  2  22   1  24  -1
M  END
$$$$
ZINC00602916
  -OEChem-08230709453D

 44 47  0     0  0  0  0  0  0999 V2000
    3.5227    0.7904    0.4397 C   0  0  0  0  0  0  0  0  0  0  0  0
    2.0794    0.7349    0.1949 N   0  0  0  0  0  0  0  0  0  0  0  0
    1.1954    1.7810    0.2926 C   0  0  0  0  0  0  0  0  0  0  0  0
   -0.0701    1.2560   -0.0317 C   0  0  0  0  0  0  0  0  0  0  0  0
   -1.1789    2.1242   -0.0056 C   0  0  0  0  0  0  0  0  0  0  0  0
   -0.9817    3.3966    0.3137 N   0  0  0  0  0  0  0  0  0  0  0  0
    0.2325    3.8500    0.6133 C   0  0  0  0  0  0  0  0  0  0  0  0
    1.3022    3.0658    0.6051 N   0  0  0  0  0  0  0  0  0  0  0  0
    0.3900    5.2315    0.9557 C   0  0  0  0  0  0  0  0  0  0  0  0
    0.5192    6.3641    1.2364 C   0  0  0  0  0  0  0  0  0  0  0  0
    0.6811    7.7842    1.5883 C   0  0  0  0  0  0  0  0  0  0  0  0
    1.6719    8.4595    0.6177 C   0  0  0  0  0  0  0  0  0  0  0  0
    2.4623    9.4492    1.5105 C   0  0  0  0  0  0  0  0  0  0  0  0
    2.6266    8.6608    2.8336 C   0  0  0  0  0  0  0  0  0  0  0  0
    1.2875    7.9123    2.9967 C   0  0  0  0  0  0  0  0  0  0  0  0
   -0.5833    8.4480    1.5375 O   0  0  0  0  0  0  0  0  0  0  0  0
   -2.4468    1.6604   -0.3097 N   0  0  0  0  0  0  0  0  0  0  0  0
    0.0940   -0.0513   -0.3054 N   0  0  0  0  0  0  0  0  0  0  0  0
    1.3584   -0.3721   -0.1753 C   0  0  0  0  0  0  0  0  0  0  0  0
    1.9219   -1.7215   -0.3948 C   0  0  0  0  0  0  0  0  0  0  0  0
    3.2407   -1.8682   -0.8278 C   0  0  0  0  0  0  0  0  0  0  0  0
    3.7633   -3.1295   -1.0259 C   0  0  0  0  0  0  0  0  0  0  0  0
    2.9804   -4.2488   -0.8068 C   0  0  0  0  0  0  0  0  0  0  0  0
    1.6686   -4.1112   -0.3825 C   0  0  0  0  0  0  0  0  0  0  0  0
    1.1356   -2.8529   -0.1755 C   0  0  0  0  0  0  0  0  0  0  0  0
    0.9094   -5.2085   -0.1713 F   0  0  0  0  0  0  0  0  0  0  0  0
    4.0461    0.9362   -0.5052 H   0  0  0  0  0  0  0  0  0  0  0  0
    3.7458    1.6202    1.1104 H   0  0  0  0  0  0  0  0  0  0  0  0
    3.8500   -0.1438    0.8960 H   0  0  0  0  0  0  0  0  0  0  0  0
    2.3431    7.7196    0.1817 H   0  0  0  0  0  0  0  0  0  0  0  0
    1.1342    8.9958   -0.1643 H   0  0  0  0  0  0  0  0  0  0  0  0
    1.8903   10.3626    1.6737 H   0  0  0  0  0  0  0  0  0  0  0  0
    3.4344    9.6768    1.0732 H   0  0  0  0  0  0  0  0  0  0  0  0
    2.7857    9.3442    3.6677 H   0  0  0  0  0  0  0  0  0  0  0  0
    3.4521    7.9532    2.7560 H   0  0  0  0  0  0  0  0  0  0  0  0
    0.6177    8.4816    3.6412 H   0  0  0  0  0  0  0  0  0  0  0  0
    1.4619    6.9229    3.4196 H   0  0  0  0  0  0  0  0  0  0  0  0
   -1.0120    8.4118    0.6715 H   0  0  0  0  0  0  0  0  0  0  0  0
   -2.4543    1.2973   -1.2414 H   0  0  0  0  0  0  0  0  0  0  0  0
   -3.2032    2.2673   -0.2886 H   0  0  0  0  0  0  0  0  0  0  0  0
    3.8523   -0.9957   -1.0037 H   0  0  0  0  0  0  0  0  0  0  0  0
    4.7850   -3.2432   -1.3570 H   0  0  0  0  0  0  0  0  0  0  0  0
    3.3932   -5.2337   -0.9675 H   0  0  0  0  0  0  0  0  0  0  0  0
    0.1130   -2.7458    0.1549 H   0  0  0  0  0  0  0  0  0  0  0  0
  1  2  1  0  0  0  0
  1 27  1  0  0  0  0
  1 28  1  0  0  0  0
  1 29  1  0  0  0  0
  2 19  1  0  0  0  0
  2  3  1  0  0  0  0
  3  8  2  0  0  0  0
  3  4  1  0  0  0  0
  4  5  2  0  0  0  0
  4 18  1  0  0  0  0
  5  6  1  0  0  0  0
  5 17  1  0  0  0  0
  6  7  2  0  0  0  0
  7  8  1  0  0  0  0
  7  9  1  0  0  0  0
  9 10  3  0  0  0  0
 10 11  1  0  0  0  0
 11 15  1  0  0  0  0
 11 12  1  0  0  0  0
 11 16  1  0  0  0  0
 12 13  1  0  0  0  0
 12 30  1  0  0  0  0
 12 31  1  0  0  0  0
 13 14  1  0  0  0  0
 13 32  1  0  0  0  0
 13 33  1  0  0  0  0
 14 15  1  0  0  0  0
 14 34  1  0  0  0  0
 14 35  1  0  0  0  0
 15 36  1  0  0  0  0
 15 37  1  0  0  0  0
 16 38  1  0  0  0  0
 17 39  1  0  0  0  0
 17 40  1  0  0  0  0
 18 19  2  0  0  0  0
 19 20  1  0  0  0  0
 20 25  2  0  0  0  0
 20 21  1  0  0  0  0
 21 22  2  0  0  0  0
 21 41  1  0  0  0  0
 22 23  1  0  0  0  0
 22 42  1  0  0  0  0
 23 24  2  0  0  0  0
 23 43  1  0  0  0  0
 24 25  1  0  0  0  0
 24 26  1  0  0  0  0
 25 44  1  0  0  0  0
M  END
$$$$
ZINC00606142
  -OEChem-08230709453D

 48 50  0     1  0  0  0  0  0999 V2000
   -0.2445   -0.3525    2.8502 C   0  0  0  0  0  0  0  0  0  0  0  0
    0.2488   -0.7344    1.4531 C   0  0  2  0  0  0  0  0  0  0  0  0
    0.6444   -1.7499    1.4724 H   0  0  0  0  0  0  0  0  0  0  0  0
    1.3342    0.2195    1.0255 C   0  0  0  0  0  0  0  0  0  0  0  0
    1.0025    1.4650    0.5243 C   0  0  0  0  0  0  0  0  0  0  0  0
    1.9973    2.3400    0.1392 C   0  0  0  0  0  0  0  0  0  0  0  0
    3.3345    1.9698    0.2438 C   0  0  0  0  0  0  0  0  0  0  0  0
    3.6632    0.7200    0.7383 C   0  0  0  0  0  0  0  0  0  0  0  0
    2.6603   -0.1520    1.1287 C   0  0  0  0  0  0  0  0  0  0  0  0
    5.0988    0.2764    0.8615 C   0  0  2  0  0  0  0  0  0  0  0  0
    5.2386   -0.2402    1.8111 H   0  0  0  0  0  0  0  0  0  0  0  0
    6.0219    1.4962    0.8055 C   0  0  1  0  0  0  0  0  0  0  0  0
    7.0543    1.1702    0.6791 H   0  0  0  0  0  0  0  0  0  0  0  0
    5.6026    2.3631   -0.3886 C   0  0  0  0  0  0  0  0  0  0  0  0
    4.2855    2.8588   -0.1448 O   0  0  0  0  0  0  0  0  0  0  0  0
    6.5742    3.5351   -0.5409 C   0  0  0  0  0  0  0  0  0  0  0  0
    5.6086    1.5197   -1.6651 C   0  0  0  0  0  0  0  0  0  0  0  0
    5.8991    2.2490    2.0140 O   0  0  0  0  0  0  0  0  0  0  0  0
    5.4245   -0.6324   -0.2404 N   0  0  0  0  0  0  0  0  0  0  0  0
    6.5327   -1.3971   -0.1781 C   0  0  0  0  0  0  0  0  0  0  0  0
    7.2619   -1.3326    0.7924 O   0  0  0  0  0  0  0  0  0  0  0  0
    6.8611   -2.3135   -1.2892 C   0  0  0  0  0  0  0  0  0  0  0  0
    6.0221   -2.3936   -2.4027 C   0  0  0  0  0  0  0  0  0  0  0  0
    6.3361   -3.2465   -3.4391 C   0  0  0  0  0  0  0  0  0  0  0  0
    7.4770   -4.0317   -3.3726 C   0  0  0  0  0  0  0  0  0  0  0  0
    8.3104   -3.9602   -2.2668 C   0  0  0  0  0  0  0  0  0  0  0  0
    8.0087   -3.1069   -1.2273 C   0  0  0  0  0  0  0  0  0  0  0  0
    7.7774   -4.8697   -4.3888 F   0  0  0  0  0  0  0  0  0  0  0  0
   -0.8384   -0.6643    0.5284 O   0  0  0  0  0  0  0  0  0  0  0  0
    0.5848   -0.4060    3.5555 H   0  0  0  0  0  0  0  0  0  0  0  0
   -0.6401    0.6630    2.8308 H   0  0  0  0  0  0  0  0  0  0  0  0
   -1.0296   -1.0425    3.1594 H   0  0  0  0  0  0  0  0  0  0  0  0
   -0.0345    1.7541    0.4383 H   0  0  0  0  0  0  0  0  0  0  0  0
    1.7371    3.3137   -0.2489 H   0  0  0  0  0  0  0  0  0  0  0  0
    2.9167   -1.1270    1.5160 H   0  0  0  0  0  0  0  0  0  0  0  0
    7.5813    3.1529   -0.7077 H   0  0  0  0  0  0  0  0  0  0  0  0
    6.2732    4.1487   -1.3901 H   0  0  0  0  0  0  0  0  0  0  0  0
    6.5604    4.1388    0.3665 H   0  0  0  0  0  0  0  0  0  0  0  0
    4.7783    0.8140   -1.6382 H   0  0  0  0  0  0  0  0  0  0  0  0
    5.5031    2.1719   -2.5320 H   0  0  0  0  0  0  0  0  0  0  0  0
    6.5486    0.9722   -1.7344 H   0  0  0  0  0  0  0  0  0  0  0  0
    6.1321    1.7538    2.8112 H   0  0  0  0  0  0  0  0  0  0  0  0
    4.8427   -0.6838   -1.0148 H   0  0  0  0  0  0  0  0  0  0  0  0
    5.1309   -1.7858   -2.4535 H   0  0  0  0  0  0  0  0  0  0  0  0
    5.6901   -3.3063   -4.3025 H   0  0  0  0  0  0  0  0  0  0  0  0
    9.1975   -4.5745   -2.2198 H   0  0  0  0  0  0  0  0  0  0  0  0
    8.6587   -3.0517   -0.3666 H   0  0  0  0  0  0  0  0  0  0  0  0
   -1.5749   -1.2534    0.7419 H   0  0  0  0  0  0  0  0  0  0  0  0
  1  2  1  0  0  0  0
  1 30  1  0  0  0  0
  1 31  1  0  0  0  0
  1 32  1  0  0  0  0
  2  3  1  0  0  0  0
  2  4  1  0  0  0  0
  2 29  1  0  0  0  0
  4  9  2  0  0  0  0
  4  5  1  0  0  0  0
  5  6  2  0  0  0  0
  5 33  1  0  0  0  0
  6  7  1  0  0  0  0
  6 34  1  0  0  0  0
  7 15  1  0  0  0  0
  7  8  2  0  0  0  0
  8  9  1  0  0  0  0
  8 10  1  0  0  0  0
  9 35  1  0  0  0  0
 10 11  1  0  0  0  0
 10 12  1  0  0  0  0
 10 19  1  0  0  0  0
 12 13  1  0  0  0  0
 12 14  1  0  0  0  0
 12 18  1  0  0  0  0
 14 15  1  0  0  0  0
 14 16  1  0  0  0  0
 14 17  1  0  0  0  0
 16 36  1  0  0  0  0
 16 37  1  0  0  0  0
 16 38  1  0  0  0  0
 17 39  1  0  0  0  0
 17 40  1  0  0  0  0
 17 41  1  0  0  0  0
 18 42  1  0  0  0  0
 19 20  1  0  0  0  0
 19 43  1  0  0  0  0
 20 21  2  0  0  0  0
 20 22  1  0  0  0  0
 22 27  2  0  0  0  0
 22 23  1  0  0  0  0
 23 24  2  0  0  0  0
 23 44  1  0  0  0  0
 24 25  1  0  0  0  0
 24 45  1  0  0  0  0
 25 26  2  0  0  0  0
 25 28  1  0  0  0  0
 26 27  1  0  0  0  0
 26 46  1  0  0  0  0
 27 47  1  0  0  0  0
 29 48  1  0  0  0  0
M  END
$$$$
ZINC00609680
  -OEChem-08230709453D

 43 44  0     0  0  0  0  0  0999 V2000
   -9.7031    1.7251   -2.0840 C   0  0  0  0  0  0  0  0  0  0  0  0
   -9.5170    2.4676   -0.7592 C   0  0  0  0  0  0  0  0  0  0  0  0
   -8.0979    2.4692   -0.3956 N   0  0  0  0  0  0  0  0  0  0  0  0
   -7.2122    3.4792   -0.6743 C   0  0  0  0  0  0  0  0  0  0  0  0
   -5.9875    3.0707   -0.1544 C   0  0  0  0  0  0  0  0  0  0  0  0
   -6.2306    1.8079    0.4093 C   0  0  0  0  0  0  0  0  0  0  0  0
   -7.4946    1.5259    0.2327 N   0  0  0  0  0  0  0  0  0  0  0  0
   -4.7767    3.7643   -0.1909 N   0  0  0  0  0  0  0  0  0  0  0  0
   -3.6123    3.0933   -0.0888 C   0  0  0  0  0  0  0  0  0  0  0  0
   -3.6099    1.3815   -0.0667 S   0  0  0  0  0  0  0  0  0  0  0  0
   -2.4498    3.7700   -0.0040 N   0  0  0  0  0  0  0  0  0  0  0  0
   -1.2331    3.0761   -0.0158 C   0  0  0  0  0  0  0  0  0  0  0  0
   -1.0529    2.0054   -0.8814 C   0  0  0  0  0  0  0  0  0  0  0  0
    0.1452    1.3168   -0.8909 C   0  0  0  0  0  0  0  0  0  0  0  0
    1.1728    1.6998   -0.0442 C   0  0  0  0  0  0  0  0  0  0  0  0
    0.9972    2.7757    0.8206 C   0  0  0  0  0  0  0  0  0  0  0  0
   -0.2055    3.4625    0.8338 C   0  0  0  0  0  0  0  0  0  0  0  0
    2.0052    3.1521    1.6523 O   0  0  0  0  0  0  0  0  0  0  0  0
    1.7547    4.2651    2.5129 C   0  0  0  0  0  0  0  0  0  0  0  0
    2.3539    1.0243   -0.0587 O   0  0  0  0  0  0  0  0  0  0  0  0
    2.4646   -0.0693   -0.9719 C   0  0  0  0  0  0  0  0  0  0  0  0
   -7.4977    4.7336   -1.3763 C   0  0  0  0  0  0  0  0  0  0  0  0
   -7.3541    4.8019   -2.5830 O   0  0  0  0  0  0  0  0  0  0  0  0
   -7.9193    5.8115   -0.6858 N   0  0  0  0  0  0  0  0  0  0  0  0
  -10.7590    1.7239   -2.3546 H   0  0  0  0  0  0  0  0  0  0  0  0
   -9.1287    2.2245   -2.8642 H   0  0  0  0  0  0  0  0  0  0  0  0
   -9.3543    0.6980   -1.9770 H   0  0  0  0  0  0  0  0  0  0  0  0
  -10.0914    1.9682    0.0210 H   0  0  0  0  0  0  0  0  0  0  0  0
   -9.8658    3.4947   -0.8662 H   0  0  0  0  0  0  0  0  0  0  0  0
   -5.5026    1.1816    0.9034 H   0  0  0  0  0  0  0  0  0  0  0  0
   -4.7734    4.7293   -0.2897 H   0  0  0  0  0  0  0  0  0  0  0  0
   -2.4557    4.7375    0.0651 H   0  0  0  0  0  0  0  0  0  0  0  0
   -1.8512    1.7082   -1.5452 H   0  0  0  0  0  0  0  0  0  0  0  0
    0.2821    0.4819   -1.5621 H   0  0  0  0  0  0  0  0  0  0  0  0
   -0.3435    4.2981    1.5040 H   0  0  0  0  0  0  0  0  0  0  0  0
    2.6377    4.4595    3.1217 H   0  0  0  0  0  0  0  0  0  0  0  0
    1.5270    5.1453    1.9116 H   0  0  0  0  0  0  0  0  0  0  0  0
    0.9085    4.0395    3.1617 H   0  0  0  0  0  0  0  0  0  0  0  0
    3.4533   -0.5192   -0.8818 H   0  0  0  0  0  0  0  0  0  0  0  0
    1.7037   -0.8146   -0.7402 H   0  0  0  0  0  0  0  0  0  0  0  0
    2.3212    0.2918   -1.9903 H   0  0  0  0  0  0  0  0  0  0  0  0
   -7.9642    5.7799    0.2827 H   0  0  0  0  0  0  0  0  0  0  0  0
   -8.1778    6.6189   -1.1572 H   0  0  0  0  0  0  0  0  0  0  0  0
  1  2  1  0  0  0  0
  1 25  1  0  0  0  0
  1 26  1  0  0  0  0
  1 27  1  0  0  0  0
  2  3  1  0  0  0  0
  2 28  1  0  0  0  0
  2 29  1  0  0  0  0
  3  7  1  0  0  0  0
  3  4  1  0  0  0  0
  4  5  2  0  0  0  0
  4 22  1  0  0  0  0
  5  6  1  0  0  0  0
  5  8  1  0  0  0  0
  6  7  2  0  0  0  0
  6 30  1  0  0  0  0
  8  9  1  0  0  0  0
  8 31  1  0  0  0  0
  9 10  2  0  0  0  0
  9 11  1  0  0  0  0
 11 12  1  0  0  0  0
 11 32  1  0  0  0  0
 12 17  2  0  0  0  0
 12 13  1  0  0  0  0
 13 14  2  0  0  0  0
 13 33  1  0  0  0  0
 14 15  1  0  0  0  0
 14 34  1  0  0  0  0
 15 16  2  0  0  0  0
 15 20  1  0  0  0  0
 16 17  1  0  0  0  0
 16 18  1  0  0  0  0
 17 35  1  0  0  0  0
 18 19  1  0  0  0  0
 19 36  1  0  0  0  0
 19 37  1  0  0  0  0
 19 38  1  0  0  0  0
 20 21  1  0  0  0  0
 21 39  1  0  0  0  0
 21 40  1  0  0  0  0
 21 41  1  0  0  0  0
 22 23  2  0  0  0  0
 22 24  1  0  0  0  0
 24 42  1  0  0  0  0
 24 43  1  0  0  0  0
M  END
$$$$
ZINC00609862
  -OEChem-08230709453D

 43 44  0     0  0  0  0  0  0999 V2000
    4.1831    0.0120    0.0780 C   0  0  0  0  0  0  0  0  0  0  0  0
    3.2166   -1.1440    0.0494 C   0  0  0  0  0  0  0  0  0  0  0  0
    3.0618   -1.8296    1.0378 O   0  0  0  0  0  0  0  0  0  0  0  0
    2.5244   -1.4160   -1.0746 N   0  0  0  0  0  0  0  0  0  0  0  0
    1.6944   -2.5411   -1.1301 C   0  0  0  0  0  0  0  0  0  0  0  0
    0.9896   -2.9417   -0.0016 C   0  0  0  0  0  0  0  0  0  0  0  0
    0.1696   -4.0521   -0.0557 C   0  0  0  0  0  0  0  0  0  0  0  0
    0.0478   -4.7681   -1.2312 C   0  0  0  0  0  0  0  0  0  0  0  0
    0.7500   -4.3730   -2.3627 C   0  0  0  0  0  0  0  0  0  0  0  0
    1.5698   -3.2543   -2.3134 C   0  0  0  0  0  0  0  0  0  0  0  0
    0.6262   -5.0984   -3.5523 N   0  0  0  0  0  0  0  0  0  0  0  0
    0.6050   -6.4456   -3.5211 C   0  0  0  0  0  0  0  0  0  0  0  0
    0.8752   -7.2720   -2.0463 S   0  0  0  0  0  0  0  0  0  0  0  0
    0.3712   -7.1423   -4.6509 N   0  0  0  0  0  0  0  0  0  0  0  0
    0.2669   -8.5383   -4.6039 C   0  0  0  0  0  0  0  0  0  0  0  0
    1.1751   -9.2776   -3.8579 C   0  0  0  0  0  0  0  0  0  0  0  0
    1.0707  -10.6546   -3.8066 C   0  0  0  0  0  0  0  0  0  0  0  0
    0.0659  -11.3013   -4.5079 C   0  0  0  0  0  0  0  0  0  0  0  0
   -0.8427  -10.5636   -5.2606 C   0  0  0  0  0  0  0  0  0  0  0  0
   -0.7411   -9.1831   -5.3077 C   0  0  0  0  0  0  0  0  0  0  0  0
   -1.8295  -11.1974   -5.9489 O   0  0  0  0  0  0  0  0  0  0  0  0
   -2.7267  -10.3769   -6.6999 C   0  0  0  0  0  0  0  0  0  0  0  0
   -0.0327  -12.6576   -4.4602 O   0  0  0  0  0  0  0  0  0  0  0  0
    0.9335  -13.3508   -3.6679 C   0  0  0  0  0  0  0  0  0  0  0  0
    5.1706   -0.3324   -0.2291 H   0  0  0  0  0  0  0  0  0  0  0  0
    3.8405    0.7890   -0.6054 H   0  0  0  0  0  0  0  0  0  0  0  0
    4.2371    0.4154    1.0891 H   0  0  0  0  0  0  0  0  0  0  0  0
    2.6015   -0.8317   -1.8450 H   0  0  0  0  0  0  0  0  0  0  0  0
    1.0833   -2.3846    0.9189 H   0  0  0  0  0  0  0  0  0  0  0  0
   -0.3771   -4.3615    0.8228 H   0  0  0  0  0  0  0  0  0  0  0  0
   -0.5939   -5.6360   -1.2701 H   0  0  0  0  0  0  0  0  0  0  0  0
    2.1134   -2.9425   -3.1929 H   0  0  0  0  0  0  0  0  0  0  0  0
    0.5556   -4.6317   -4.3998 H   0  0  0  0  0  0  0  0  0  0  0  0
    0.2751   -6.6769   -5.4965 H   0  0  0  0  0  0  0  0  0  0  0  0
    1.9616   -8.7756   -3.3139 H   0  0  0  0  0  0  0  0  0  0  0  0
    1.7757  -11.2277   -3.2225 H   0  0  0  0  0  0  0  0  0  0  0  0
   -1.4451   -8.6089   -5.8916 H   0  0  0  0  0  0  0  0  0  0  0  0
   -3.4631  -11.0065   -7.1994 H   0  0  0  0  0  0  0  0  0  0  0  0
   -3.2356   -9.6857   -6.0281 H   0  0  0  0  0  0  0  0  0  0  0  0
   -2.1658   -9.8127   -7.4450 H   0  0  0  0  0  0  0  0  0  0  0  0
    1.9331  -13.1431   -4.0498 H   0  0  0  0  0  0  0  0  0  0  0  0
    0.8630  -13.0155   -2.6332 H   0  0  0  0  0  0  0  0  0  0  0  0
    0.7415  -14.4227   -3.7163 H   0  0  0  0  0  0  0  0  0  0  0  0
  1  2  1  0  0  0  0
  1 25  1  0  0  0  0
  1 26  1  0  0  0  0
  1 27  1  0  0  0  0
  2  3  2  0  0  0  0
  2  4  1  0  0  0  0
  4  5  1  0  0  0  0
  4 28  1  0  0  0  0
  5 10  2  0  0  0  0
  5  6  1  0  0  0  0
  6  7  2  0  0  0  0
  6 29  1  0  0  0  0
  7  8  1  0  0  0  0
  7 30  1  0  0  0  0
  8  9  2  0  0  0  0
  8 31  1  0  0  0  0
  9 10  1  0  0  0  0
  9 11  1  0  0  0  0
 10 32  1  0  0  0  0
 11 12  1  0  0  0  0
 11 33  1  0  0  0  0
 12 13  2  0  0  0  0
 12 14  1  0  0  0  0
 14 15  1  0  0  0  0
 14 34  1  0  0  0  0
 15 20  2  0  0  0  0
 15 16  1  0  0  0  0
 16 17  2  0  0  0  0
 16 35  1  0  0  0  0
 17 18  1  0  0  0  0
 17 36  1  0  0  0  0
 18 19  2  0  0  0  0
 18 23  1  0  0  0  0
 19 20  1  0  0  0  0
 19 21  1  0  0  0  0
 20 37  1  0  0  0  0
 21 22  1  0  0  0  0
 22 38  1  0  0  0  0
 22 39  1  0  0  0  0
 22 40  1  0  0  0  0
 23 24  1  0  0  0  0
 24 41  1  0  0  0  0
 24 42  1  0  0  0  0
 24 43  1  0  0  0  0
M  END
$$$$
ZINC00610242
  -OEChem-08230709453D

 40 41  0     0  0  0  0  0  0999 V2000
    5.9089    5.3639    7.6163 C   0  0  0  0  0  0  0  0  0  0  0  0
    6.2025    4.3485    8.5076 C   0  0  0  0  0  0  0  0  0  0  0  0
    6.0239    3.0294    8.1357 C   0  0  0  0  0  0  0  0  0  0  0  0
    5.5516    2.7252    6.8724 C   0  0  0  0  0  0  0  0  0  0  0  0
    5.2581    3.7403    5.9814 C   0  0  0  0  0  0  0  0  0  0  0  0
    5.4417    5.0596    6.3516 C   0  0  0  0  0  0  0  0  0  0  0  0
    4.7437    3.4087    4.6042 C   0  0  0  0  0  0  0  0  0  0  0  0
    3.2440    3.2682    4.6485 C   0  0  0  0  0  0  0  0  0  0  0  0
    2.6511    3.4222    5.6953 O   0  0  0  0  0  0  0  0  0  0  0  0
    2.5614    2.9715    3.5249 N   0  0  0  0  0  0  0  0  0  0  0  0
    1.1671    2.8409    3.5661 N   0  0  0  0  0  0  0  0  0  0  0  0
    0.4846    2.5441    2.4424 C   0  0  0  0  0  0  0  0  0  0  0  0
   -1.2192    2.3845    2.4927 S   0  0  0  0  0  0  0  0  0  0  0  0
    1.1434    2.3730    1.2792 N   0  0  0  0  0  0  0  0  0  0  0  0
    0.4015    2.0505    0.0578 C   0  0  0  0  0  0  0  0  0  0  0  0
    1.3096    1.3105   -0.9460 C   0  0  0  0  0  0  0  0  0  0  0  0
    0.9295    1.8241   -2.3458 C   0  0  0  0  0  0  0  0  0  0  0  0
   -0.1972    2.8585   -2.1447 C   0  0  0  0  0  0  0  0  0  0  0  0
   -0.0095    3.3460   -0.6866 C   0  0  0  0  0  0  0  0  0  0  0  0
    5.3608    1.3125    6.4739 N   0  3  0  0  0  0  0  0  0  0  0  0
    4.4139    0.9996    5.7746 O   0  0  0  0  0  0  0  0  0  0  0  0
    6.1506    0.4630    6.8453 O   0  5  0  0  0  0  0  0  0  0  0  0
    6.0488    6.3946    7.9068 H   0  0  0  0  0  0  0  0  0  0  0  0
    6.5718    4.5861    9.4943 H   0  0  0  0  0  0  0  0  0  0  0  0
    6.2536    2.2363    8.8318 H   0  0  0  0  0  0  0  0  0  0  0  0
    5.2166    5.8526    5.6538 H   0  0  0  0  0  0  0  0  0  0  0  0
    5.1866    2.4716    4.2668 H   0  0  0  0  0  0  0  0  0  0  0  0
    5.0136    4.2075    3.9135 H   0  0  0  0  0  0  0  0  0  0  0  0
    3.0356    2.8483    2.6877 H   0  0  0  0  0  0  0  0  0  0  0  0
    0.6930    2.9640    4.4033 H   0  0  0  0  0  0  0  0  0  0  0  0
    2.1088    2.4634    1.2506 H   0  0  0  0  0  0  0  0  0  0  0  0
   -0.4775    1.4498    0.2916 H   0  0  0  0  0  0  0  0  0  0  0  0
    1.1377    0.2359   -0.8832 H   0  0  0  0  0  0  0  0  0  0  0  0
    2.3560    1.5337   -0.7378 H   0  0  0  0  0  0  0  0  0  0  0  0
    1.7912    2.2975   -2.8165 H   0  0  0  0  0  0  0  0  0  0  0  0
    0.5732    0.9989   -2.9623 H   0  0  0  0  0  0  0  0  0  0  0  0
   -0.0823    3.6882   -2.8421 H   0  0  0  0  0  0  0  0  0  0  0  0
   -1.1730    2.3883   -2.2671 H   0  0  0  0  0  0  0  0  0  0  0  0
    0.7827    4.0924   -0.6278 H   0  0  0  0  0  0  0  0  0  0  0  0
   -0.9432    3.7438   -0.2890 H   0  0  0  0  0  0  0  0  0  0  0  0
  1  6  2  0  0  0  0
  1  2  1  0  0  0  0
  1 23  1  0  0  0  0
  2  3  2  0  0  0  0
  2 24  1  0  0  0  0
  3  4  1  0  0  0  0
  3 25  1  0  0  0  0
  4  5  2  0  0  0  0
  4 20  1  0  0  0  0
  5  6  1  0  0  0  0
  5  7  1  0  0  0  0
  6 26  1  0  0  0  0
  7  8  1  0  0  0  0
  7 27  1  0  0  0  0
  7 28  1  0  0  0  0
  8  9  2  0  0  0  0
  8 10  1  0  0  0  0
 10 11  1  0  0  0  0
 10 29  1  0  0  0  0
 11 12  1  0  0  0  0
 11 30  1  0  0  0  0
 12 13  2  0  0  0  0
 12 14  1  0  0  0  0
 14 15  1  0  0  0  0
 14 31  1  0  0  0  0
 15 19  1  0  0  0  0
 15 16  1  0  0  0  0
 15 32  1  0  0  0  0
 16 17  1  0  0  0  0
 16 33  1  0  0  0  0
 16 34  1  0  0  0  0
 17 18  1  0  0  0  0
 17 35  1  0  0  0  0
 17 36  1  0  0  0  0
 18 19  1  0  0  0  0
 18 37  1  0  0  0  0
 18 38  1  0  0  0  0
 19 39  1  0  0  0  0
 19 40  1  0  0  0  0
 20 21  2  0  0  0  0
 20 22  1  0  0  0  0
M  CHG  2  20   1  22  -1
M  END
$$$$
ZINC00610403
  -OEChem-08230709453D

 43 44  0     0  0  0  0  0  0999 V2000
    5.6376   -5.2729    4.5709 C   0  0  0  0  0  0  0  0  0  0  0  0
    4.8667   -4.5846    3.4742 C   0  0  0  0  0  0  0  0  0  0  0  0
    4.2055   -3.5990    3.7243 O   0  0  0  0  0  0  0  0  0  0  0  0
    4.9119   -5.0641    2.2155 N   0  0  0  0  0  0  0  0  0  0  0  0
    4.2781   -4.3698    1.1791 C   0  0  0  0  0  0  0  0  0  0  0  0
    3.7137   -5.0672    0.1181 C   0  0  0  0  0  0  0  0  0  0  0  0
    3.0881   -4.3825   -0.9057 C   0  0  0  0  0  0  0  0  0  0  0  0
    3.0214   -3.0026   -0.8783 C   0  0  0  0  0  0  0  0  0  0  0  0
    3.5833   -2.2995    0.1798 C   0  0  0  0  0  0  0  0  0  0  0  0
    4.2175   -2.9842    1.2069 C   0  0  0  0  0  0  0  0  0  0  0  0
    3.5150   -0.9027    0.2070 N   0  0  0  0  0  0  0  0  0  0  0  0
    2.3784   -0.2763   -0.1567 C   0  0  0  0  0  0  0  0  0  0  0  0
    0.9766   -1.1894   -0.5204 S   0  0  0  0  0  0  0  0  0  0  0  0
    2.3454    1.0688   -0.2342 N   0  0  0  0  0  0  0  0  0  0  0  0
    1.1486    1.7234   -0.5623 C   0  0  0  0  0  0  0  0  0  0  0  0
   -0.0543    1.2754   -0.0369 C   0  0  0  0  0  0  0  0  0  0  0  0
   -1.2337    1.9166   -0.3645 C   0  0  0  0  0  0  0  0  0  0  0  0
   -1.2164    3.0156   -1.2109 C   0  0  0  0  0  0  0  0  0  0  0  0
   -0.0162    3.4672   -1.7387 C   0  0  0  0  0  0  0  0  0  0  0  0
    1.1671    2.8235   -1.4164 C   0  0  0  0  0  0  0  0  0  0  0  0
    2.3451    3.2650   -1.9326 O   0  0  0  0  0  0  0  0  0  0  0  0
    2.2885    4.3983   -2.8012 C   0  0  0  0  0  0  0  0  0  0  0  0
   -2.3780    3.6476   -1.5273 O   0  0  0  0  0  0  0  0  0  0  0  0
   -3.5771    3.1293   -0.9480 C   0  0  0  0  0  0  0  0  0  0  0  0
    6.6997   -5.2694    4.3258 H   0  0  0  0  0  0  0  0  0  0  0  0
    5.4801   -4.7457    5.5118 H   0  0  0  0  0  0  0  0  0  0  0  0
    5.2906   -6.3016    4.6684 H   0  0  0  0  0  0  0  0  0  0  0  0
    5.3838   -5.8906    2.0280 H   0  0  0  0  0  0  0  0  0  0  0  0
    3.7638   -6.1458    0.0940 H   0  0  0  0  0  0  0  0  0  0  0  0
    2.6498   -4.9270   -1.7291 H   0  0  0  0  0  0  0  0  0  0  0  0
    2.5317   -2.4702   -1.6803 H   0  0  0  0  0  0  0  0  0  0  0  0
    4.6591   -2.4396    2.0285 H   0  0  0  0  0  0  0  0  0  0  0  0
    4.2857   -0.3848    0.4877 H   0  0  0  0  0  0  0  0  0  0  0  0
    3.1490    1.5843   -0.0631 H   0  0  0  0  0  0  0  0  0  0  0  0
   -0.0697    0.4223    0.6252 H   0  0  0  0  0  0  0  0  0  0  0  0
   -2.1701    1.5638    0.0419 H   0  0  0  0  0  0  0  0  0  0  0  0
   -0.0041    4.3202   -2.4010 H   0  0  0  0  0  0  0  0  0  0  0  0
    1.8678    5.2478   -2.2632 H   0  0  0  0  0  0  0  0  0  0  0  0
    3.2940    4.6457   -3.1416 H   0  0  0  0  0  0  0  0  0  0  0  0
    1.6607    4.1658   -3.6613 H   0  0  0  0  0  0  0  0  0  0  0  0
   -3.7129    2.0936   -1.2594 H   0  0  0  0  0  0  0  0  0  0  0  0
   -3.5051    3.1755    0.1387 H   0  0  0  0  0  0  0  0  0  0  0  0
   -4.4280    3.7234   -1.2813 H   0  0  0  0  0  0  0  0  0  0  0  0
  1  2  1  0  0  0  0
  1 25  1  0  0  0  0
  1 26  1  0  0  0  0
  1 27  1  0  0  0  0
  2  3  2  0  0  0  0
  2  4  1  0  0  0  0
  4  5  1  0  0  0  0
  4 28  1  0  0  0  0
  5 10  2  0  0  0  0
  5  6  1  0  0  0  0
  6  7  2  0  0  0  0
  6 29  1  0  0  0  0
  7  8  1  0  0  0  0
  7 30  1  0  0  0  0
  8  9  2  0  0  0  0
  8 31  1  0  0  0  0
  9 10  1  0  0  0  0
  9 11  1  0  0  0  0
 10 32  1  0  0  0  0
 11 12  1  0  0  0  0
 11 33  1  0  0  0  0
 12 13  2  0  0  0  0
 12 14  1  0  0  0  0
 14 15  1  0  0  0  0
 14 34  1  0  0  0  0
 15 20  2  0  0  0  0
 15 16  1  0  0  0  0
 16 17  2  0  0  0  0
 16 35  1  0  0  0  0
 17 18  1  0  0  0  0
 17 36  1  0  0  0  0
 18 19  2  0  0  0  0
 18 23  1  0  0  0  0
 19 20  1  0  0  0  0
 19 37  1  0  0  0  0
 20 21  1  0  0  0  0
 21 22  1  0  0  0  0
 22 38  1  0  0  0  0
 22 39  1  0  0  0  0
 22 40  1  0  0  0  0
 23 24  1  0  0  0  0
 24 41  1  0  0  0  0
 24 42  1  0  0  0  0
 24 43  1  0  0  0  0
M  END
$$$$
ZINC00610659
  -OEChem-08230709453D

 41 42  0     0  0  0  0  0  0999 V2000
    1.5167   -1.6021   -1.7804 C   0  0  0  0  0  0  0  0  0  0  0  0
    1.4737   -0.4801   -0.7411 C   0  0  0  0  0  0  0  0  0  0  0  0
    0.1857    0.1874   -0.8025 O   0  0  0  0  0  0  0  0  0  0  0  0
   -0.0162    1.2074    0.0547 C   0  0  0  0  0  0  0  0  0  0  0  0
    0.8600    1.5301    0.8322 O   0  0  0  0  0  0  0  0  0  0  0  0
   -1.3026    1.9278    0.0533 C   0  0  0  0  0  0  0  0  0  0  0  0
   -2.3099    1.5615   -0.8446 C   0  0  0  0  0  0  0  0  0  0  0  0
   -3.5114    2.2328   -0.8395 C   0  0  0  0  0  0  0  0  0  0  0  0
   -3.7201    3.2825    0.0501 C   0  0  0  0  0  0  0  0  0  0  0  0
   -2.7178    3.6532    0.9416 C   0  0  0  0  0  0  0  0  0  0  0  0
   -1.5159    2.9827    0.9460 C   0  0  0  0  0  0  0  0  0  0  0  0
   -4.9356    3.9637    0.0484 N   0  0  0  0  0  0  0  0  0  0  0  0
   -4.9556    5.3068    0.1580 C   0  0  0  0  0  0  0  0  0  0  0  0
   -3.4876    6.1877    0.1561 S   0  0  0  0  0  0  0  0  0  0  0  0
   -6.1312    5.9565    0.2692 N   0  0  0  0  0  0  0  0  0  0  0  0
   -7.3325    5.2356    0.2707 N   0  0  0  0  0  0  0  0  0  0  0  0
   -8.5081    5.8853    0.3818 C   0  0  0  0  0  0  0  0  0  0  0  0
   -8.5261    7.0973    0.4807 O   0  0  0  0  0  0  0  0  0  0  0  0
   -9.7718    5.1270    0.3835 C   0  0  0  0  0  0  0  0  0  0  0  0
   -9.9344    3.6704    0.2673 C   0  0  0  0  0  0  0  0  0  0  0  0
  -11.2554    3.4414    0.3203 C   0  0  0  0  0  0  0  0  0  0  0  0
  -11.8998    4.6118    0.4474 O   0  0  0  0  0  0  0  0  0  0  0  0
  -11.0354    5.6304    0.4872 C   0  0  0  0  0  0  0  0  0  0  0  0
  -11.3955    7.0874    0.6229 C   0  0  0  0  0  0  0  0  0  0  0  0
    0.7245   -2.3212   -1.5718 H   0  0  0  0  0  0  0  0  0  0  0  0
    1.3727   -1.1813   -2.7755 H   0  0  0  0  0  0  0  0  0  0  0  0
    2.4836   -2.1032   -1.7343 H   0  0  0  0  0  0  0  0  0  0  0  0
    2.2659    0.2389   -0.9496 H   0  0  0  0  0  0  0  0  0  0  0  0
    1.6177   -0.9010    0.2540 H   0  0  0  0  0  0  0  0  0  0  0  0
   -2.1470    0.7499   -1.5382 H   0  0  0  0  0  0  0  0  0  0  0  0
   -4.2915    1.9475   -1.5297 H   0  0  0  0  0  0  0  0  0  0  0  0
   -2.8834    4.4679    1.6311 H   0  0  0  0  0  0  0  0  0  0  0  0
   -0.7387    3.2706    1.6383 H   0  0  0  0  0  0  0  0  0  0  0  0
   -5.7674    3.4712   -0.0316 H   0  0  0  0  0  0  0  0  0  0  0  0
   -6.1455    6.9232    0.3480 H   0  0  0  0  0  0  0  0  0  0  0  0
   -7.3181    4.2690    0.1919 H   0  0  0  0  0  0  0  0  0  0  0  0
   -9.1505    2.9348    0.1633 H   0  0  0  0  0  0  0  0  0  0  0  0
  -11.7253    2.4705    0.2648 H   0  0  0  0  0  0  0  0  0  0  0  0
  -11.5333    7.5214   -0.3674 H   0  0  0  0  0  0  0  0  0  0  0  0
  -12.3200    7.1816    1.1928 H   0  0  0  0  0  0  0  0  0  0  0  0
  -10.5938    7.6130    1.1416 H   0  0  0  0  0  0  0  0  0  0  0  0
  1  2  1  0  0  0  0
  1 25  1  0  0  0  0
  1 26  1  0  0  0  0
  1 27  1  0  0  0  0
  2  3  1  0  0  0  0
  2 28  1  0  0  0  0
  2 29  1  0  0  0  0
  3  4  1  0  0  0  0
  4  5  2  0  0  0  0
  4  6  1  0  0  0  0
  6 11  2  0  0  0  0
  6  7  1  0  0  0  0
  7  8  2  0  0  0  0
  7 30  1  0  0  0  0
  8  9  1  0  0  0  0
  8 31  1  0  0  0  0
  9 10  2  0  0  0  0
  9 12  1  0  0  0  0
 10 11  1  0  0  0  0
 10 32  1  0  0  0  0
 11 33  1  0  0  0  0
 12 13  1  0  0  0  0
 12 34  1  0  0  0  0
 13 14  2  0  0  0  0
 13 15  1  0  0  0  0
 15 16  1  0  0  0  0
 15 35  1  0  0  0  0
 16 17  1  0  0  0  0
 16 36  1  0  0  0  0
 17 18  2  0  0  0  0
 17 19  1  0  0  0  0
 19 23  2  0  0  0  0
 19 20  1  0  0  0  0
 20 21  2  0  0  0  0
 20 37  1  0  0  0  0
 21 22  1  0  0  0  0
 21 38  1  0  0  0  0
 22 23  1  0  0  0  0
 23 24  1  0  0  0  0
 24 39  1  0  0  0  0
 24 40  1  0  0  0  0
 24 41  1  0  0  0  0
M  END
$$$$
ZINC00610814
  -OEChem-08230709453D

 42 43  0     1  0  0  0  0  0999 V2000
   -0.7274   -1.6975   -1.6529 C   0  0  0  0  0  0  0  0  0  0  0  0
   -0.6037   -0.8496   -0.3854 C   0  0  0  0  0  0  0  0  0  0  0  0
    0.3817    0.2125   -0.6026 N   0  0  0  0  0  0  0  0  0  0  0  0
    0.1731    1.5352   -0.4354 C   0  0  0  0  0  0  0  0  0  0  0  0
    1.3264    2.1759   -0.7363 C   0  0  0  0  0  0  0  0  0  0  0  0
    2.2721    1.2117   -1.0999 C   0  0  0  0  0  0  0  0  0  0  0  0
    1.7069    0.0344   -1.0202 N   0  0  0  0  0  0  0  0  0  0  0  0
    3.6961    1.4821   -1.5124 C   0  0  0  0  0  0  0  0  0  0  0  0
    1.5519    3.6652   -0.6882 C   0  0  1  0  0  0  0  0  0  0  0  0
    2.5733    3.8677   -0.3658 H   0  0  0  0  0  0  0  0  0  0  0  0
    1.3290    4.2600   -2.0801 C   0  0  0  0  0  0  0  0  0  0  0  0
    0.6119    4.2711    0.2581 N   0  0  0  0  0  0  0  0  0  0  0  0
    0.9145    5.4426    0.8517 C   0  0  0  0  0  0  0  0  0  0  0  0
    2.3973    6.2227    0.5000 S   0  0  0  0  0  0  0  0  0  0  0  0
    0.0497    6.0001    1.7223 N   0  0  0  0  0  0  0  0  0  0  0  0
    0.4008    7.1695    2.4051 C   0  0  0  0  0  0  0  0  0  0  0  0
    0.1579    7.2789    3.7684 C   0  0  0  0  0  0  0  0  0  0  0  0
    0.5101    8.4327    4.4404 C   0  0  0  0  0  0  0  0  0  0  0  0
    1.0949    9.4825    3.7557 C   0  0  0  0  0  0  0  0  0  0  0  0
    1.3332    9.3787    2.3977 C   0  0  0  0  0  0  0  0  0  0  0  0
    0.9877    8.2254    1.7205 C   0  0  0  0  0  0  0  0  0  0  0  0
    1.9588   10.5048    1.6688 N   0  3  0  0  0  0  0  0  0  0  0  0
    2.1687   10.4142    0.4724 O   0  0  0  0  0  0  0  0  0  0  0  0
    2.2638   11.5220    2.2653 O   0  5  0  0  0  0  0  0  0  0  0  0
    0.2397   -2.1418   -1.8887 H   0  0  0  0  0  0  0  0  0  0  0  0
   -1.4605   -2.4878   -1.4913 H   0  0  0  0  0  0  0  0  0  0  0  0
   -1.0494   -1.0671   -2.4818 H   0  0  0  0  0  0  0  0  0  0  0  0
   -0.2816   -1.4800    0.4434 H   0  0  0  0  0  0  0  0  0  0  0  0
   -1.5707   -0.4054   -0.1496 H   0  0  0  0  0  0  0  0  0  0  0  0
   -0.7502    1.9996   -0.1220 H   0  0  0  0  0  0  0  0  0  0  0  0
    3.7408    1.6247   -2.5921 H   0  0  0  0  0  0  0  0  0  0  0  0
    4.0547    2.3817   -1.0120 H   0  0  0  0  0  0  0  0  0  0  0  0
    4.3228    0.6357   -1.2314 H   0  0  0  0  0  0  0  0  0  0  0  0
    1.4922    5.3371   -2.0453 H   0  0  0  0  0  0  0  0  0  0  0  0
    2.0284    3.8091   -2.7842 H   0  0  0  0  0  0  0  0  0  0  0  0
    0.3077    4.0574   -2.4025 H   0  0  0  0  0  0  0  0  0  0  0  0
   -0.2283    3.8292    0.4573 H   0  0  0  0  0  0  0  0  0  0  0  0
   -0.8162    5.5905    1.8753 H   0  0  0  0  0  0  0  0  0  0  0  0
   -0.3025    6.4611    4.3028 H   0  0  0  0  0  0  0  0  0  0  0  0
    0.3249    8.5170    5.5011 H   0  0  0  0  0  0  0  0  0  0  0  0
    1.3656   10.3853    4.2828 H   0  0  0  0  0  0  0  0  0  0  0  0
    1.1741    8.1450    0.6598 H   0  0  0  0  0  0  0  0  0  0  0  0
  1  2  1  0  0  0  0
  1 25  1  0  0  0  0
  1 26  1  0  0  0  0
  1 27  1  0  0  0  0
  2  3  1  0  0  0  0
  2 28  1  0  0  0  0
  2 29  1  0  0  0  0
  3  7  1  0  0  0  0
  3  4  1  0  0  0  0
  4  5  2  0  0  0  0
  4 30  1  0  0  0  0
  5  6  1  0  0  0  0
  5  9  1  0  0  0  0
  6  7  2  0  0  0  0
  6  8  1  0  0  0  0
  8 31  1  0  0  0  0
  8 32  1  0  0  0  0
  8 33  1  0  0  0  0
  9 10  1  0  0  0  0
  9 11  1  0  0  0  0
  9 12  1  0  0  0  0
 11 34  1  0  0  0  0
 11 35  1  0  0  0  0
 11 36  1  0  0  0  0
 12 13  1  0  0  0  0
 12 37  1  0  0  0  0
 13 14  2  0  0  0  0
 13 15  1  0  0  0  0
 15 16  1  0  0  0  0
 15 38  1  0  0  0  0
 16 21  2  0  0  0  0
 16 17  1  0  0  0  0
 17 18  2  0  0  0  0
 17 39  1  0  0  0  0
 18 19  1  0  0  0  0
 18 40  1  0  0  0  0
 19 20  2  0  0  0  0
 19 41  1  0  0  0  0
 20 21  1  0  0  0  0
 20 22  1  0  0  0  0
 21 42  1  0  0  0  0
 22 23  2  0  0  0  0
 22 24  1  0  0  0  0
M  CHG  2  22   1  24  -1
M  END
$$$$
ZINC00610899
  -OEChem-08230709453D

 41 42  0     0  0  0  0  0  0999 V2000
    2.7198   -7.1127    6.4241 C   0  0  0  0  0  0  0  0  0  0  0  0
    1.2789   -7.3941    5.9932 C   0  0  0  0  0  0  0  0  0  0  0  0
    0.7288   -6.2114    5.3261 N   0  0  0  0  0  0  0  0  0  0  0  0
    0.8848   -5.9102    3.9968 C   0  0  0  0  0  0  0  0  0  0  0  0
    0.2071   -4.7120    3.7922 C   0  0  0  0  0  0  0  0  0  0  0  0
   -0.3164   -4.3670    5.0485 C   0  0  0  0  0  0  0  0  0  0  0  0
    0.0277   -5.2997    5.8970 N   0  0  0  0  0  0  0  0  0  0  0  0
    0.0803   -4.0026    2.5965 N   0  0  0  0  0  0  0  0  0  0  0  0
    0.0634   -2.6550    2.6110 C   0  0  0  0  0  0  0  0  0  0  0  0
    0.0838   -1.8147    4.1024 S   0  0  0  0  0  0  0  0  0  0  0  0
    0.0304   -1.9690    1.4514 N   0  0  0  0  0  0  0  0  0  0  0  0
    0.0120   -0.5042    1.4671 C   0  0  0  0  0  0  0  0  0  0  0  0
   -0.0247    0.0208    0.0305 C   0  0  0  0  0  0  0  0  0  0  0  0
   -0.0436    1.5276    0.0466 C   0  0  0  0  0  0  0  0  0  0  0  0
   -1.2492    2.2034    0.0733 C   0  0  0  0  0  0  0  0  0  0  0  0
   -1.2664    3.5856    0.0931 C   0  0  0  0  0  0  0  0  0  0  0  0
   -0.0783    4.2919    0.0760 C   0  0  0  0  0  0  0  0  0  0  0  0
    1.1272    3.6161    0.0435 C   0  0  0  0  0  0  0  0  0  0  0  0
    1.1445    2.2340    0.0291 C   0  0  0  0  0  0  0  0  0  0  0  0
    1.6157   -6.6919    2.9954 C   0  0  0  0  0  0  0  0  0  0  0  0
    2.7981   -6.4785    2.8012 O   0  0  0  0  0  0  0  0  0  0  0  0
    0.9786   -7.6471    2.2897 N   0  0  0  0  0  0  0  0  0  0  0  0
    3.3220   -6.8774    5.5466 H   0  0  0  0  0  0  0  0  0  0  0  0
    2.7347   -6.2675    7.1122 H   0  0  0  0  0  0  0  0  0  0  0  0
    3.1290   -7.9926    6.9204 H   0  0  0  0  0  0  0  0  0  0  0  0
    0.6766   -7.6293    6.8708 H   0  0  0  0  0  0  0  0  0  0  0  0
    1.2639   -8.2393    5.3051 H   0  0  0  0  0  0  0  0  0  0  0  0
   -0.9023   -3.4880    5.2733 H   0  0  0  0  0  0  0  0  0  0  0  0
    0.0044   -4.4796    1.7553 H   0  0  0  0  0  0  0  0  0  0  0  0
    0.0189   -2.4452    0.6063 H   0  0  0  0  0  0  0  0  0  0  0  0
    0.9080   -0.1350    1.9661 H   0  0  0  0  0  0  0  0  0  0  0  0
   -0.8715   -0.1577    2.0033 H   0  0  0  0  0  0  0  0  0  0  0  0
   -0.9206   -0.3485   -0.4686 H   0  0  0  0  0  0  0  0  0  0  0  0
    0.8588   -0.3257   -0.5057 H   0  0  0  0  0  0  0  0  0  0  0  0
   -2.1775    1.6516    0.0825 H   0  0  0  0  0  0  0  0  0  0  0  0
   -2.2082    4.1135    0.1180 H   0  0  0  0  0  0  0  0  0  0  0  0
   -0.0919    5.3718    0.0876 H   0  0  0  0  0  0  0  0  0  0  0  0
    2.0554    4.1680    0.0298 H   0  0  0  0  0  0  0  0  0  0  0  0
    2.0863    1.7060    0.0037 H   0  0  0  0  0  0  0  0  0  0  0  0
    0.0217   -7.7685    2.3917 H   0  0  0  0  0  0  0  0  0  0  0  0
    1.4770   -8.2132    1.6797 H   0  0  0  0  0  0  0  0  0  0  0  0
  1  2  1  0  0  0  0
  1 23  1  0  0  0  0
  1 24  1  0  0  0  0
  1 25  1  0  0  0  0
  2  3  1  0  0  0  0
  2 26  1  0  0  0  0
  2 27  1  0  0  0  0
  3  7  1  0  0  0  0
  3  4  1  0  0  0  0
  4  5  2  0  0  0  0
  4 20  1  0  0  0  0
  5  6  1  0  0  0  0
  5  8  1  0  0  0  0
  6  7  2  0  0  0  0
  6 28  1  0  0  0  0
  8  9  1  0  0  0  0
  8 29  1  0  0  0  0
  9 10  2  0  0  0  0
  9 11  1  0  0  0  0
 11 12  1  0  0  0  0
 11 30  1  0  0  0  0
 12 13  1  0  0  0  0
 12 31  1  0  0  0  0
 12 32  1  0  0  0  0
 13 14  1  0  0  0  0
 13 33  1  0  0  0  0
 13 34  1  0  0  0  0
 14 19  2  0  0  0  0
 14 15  1  0  0  0  0
 15 16  2  0  0  0  0
 15 35  1  0  0  0  0
 16 17  1  0  0  0  0
 16 36  1  0  0  0  0
 17 18  2  0  0  0  0
 17 37  1  0  0  0  0
 18 19  1  0  0  0  0
 18 38  1  0  0  0  0
 19 39  1  0  0  0  0
 20 21  2  0  0  0  0
 20 22  1  0  0  0  0
 22 40  1  0  0  0  0
 22 41  1  0  0  0  0
M  END
$$$$
ZINC00610933
  -OEChem-08230709453D

 47 48  0     1  0  0  0  0  0999 V2000
   -2.2741    0.5629   -1.1573 C   0  0  0  0  0  0  0  0  0  0  0  0
   -2.9813    1.2534    0.0107 C   0  0  0  0  0  0  0  0  0  0  0  0
   -2.1212    1.1337    1.2703 C   0  0  1  0  0  0  0  0  0  0  0  0
   -1.8958    0.0839    1.4580 H   0  0  0  0  0  0  0  0  0  0  0  0
   -0.8165    1.9080    1.0724 C   0  0  0  0  0  0  0  0  0  0  0  0
   -2.8707    1.7046    2.4465 C   0  0  0  0  0  0  0  0  0  0  0  0
   -3.2609    3.0313    2.4378 C   0  0  0  0  0  0  0  0  0  0  0  0
   -3.9521    3.5563    3.5120 C   0  0  0  0  0  0  0  0  0  0  0  0
   -4.2456    2.7533    4.6065 C   0  0  0  0  0  0  0  0  0  0  0  0
   -3.8476    1.4227    4.6144 C   0  0  0  0  0  0  0  0  0  0  0  0
   -3.1617    0.9023    3.5345 C   0  0  0  0  0  0  0  0  0  0  0  0
   -4.9400    3.2836    5.6988 N   0  0  0  0  0  0  0  0  0  0  0  0
   -4.5696    2.9610    6.9539 C   0  0  0  0  0  0  0  0  0  0  0  0
   -3.1644    2.0190    7.2163 S   0  0  0  0  0  0  0  0  0  0  0  0
   -5.3055    3.3801    8.0024 N   0  0  0  0  0  0  0  0  0  0  0  0
   -4.8554    3.1510    9.3118 C   0  0  0  0  0  0  0  0  0  0  0  0
   -3.5738    2.9515    9.7192 C   0  0  0  0  0  0  0  0  0  0  0  0
   -3.6070    2.7717   11.0648 N   0  0  0  0  0  0  0  0  0  0  0  0
   -4.8154    2.8489   11.4932 N   0  0  0  0  0  0  0  0  0  0  0  0
   -5.6409    3.0846   10.4915 C   0  0  0  0  0  0  0  0  0  0  0  0
   -7.1044    3.2454   10.5806 C   0  0  0  0  0  0  0  0  0  0  0  0
   -7.7550    3.4578    9.5756 O   0  0  0  0  0  0  0  0  0  0  0  0
   -7.7205    3.1569   11.7761 N   0  0  0  0  0  0  0  0  0  0  0  0
   -2.4336    2.5252   11.9066 C   0  0  0  0  0  0  0  0  0  0  0  0
   -2.3813    3.5665   13.0263 C   0  0  0  0  0  0  0  0  0  0  0  0
   -1.3088    1.0387   -1.3300 H   0  0  0  0  0  0  0  0  0  0  0  0
   -2.8869    0.6482   -2.0547 H   0  0  0  0  0  0  0  0  0  0  0  0
   -2.1229   -0.4899   -0.9193 H   0  0  0  0  0  0  0  0  0  0  0  0
   -3.1326    2.3062   -0.2273 H   0  0  0  0  0  0  0  0  0  0  0  0
   -3.9467    0.7776    0.1834 H   0  0  0  0  0  0  0  0  0  0  0  0
   -0.2037    1.8227    1.9698 H   0  0  0  0  0  0  0  0  0  0  0  0
   -0.2744    1.4950    0.2217 H   0  0  0  0  0  0  0  0  0  0  0  0
   -1.0419    2.9578    0.8847 H   0  0  0  0  0  0  0  0  0  0  0  0
   -3.0282    3.6564    1.5885 H   0  0  0  0  0  0  0  0  0  0  0  0
   -4.2599    4.5915    3.5030 H   0  0  0  0  0  0  0  0  0  0  0  0
   -4.0746    0.7956    5.4638 H   0  0  0  0  0  0  0  0  0  0  0  0
   -2.8519   -0.1323    3.5400 H   0  0  0  0  0  0  0  0  0  0  0  0
   -5.6882    3.8835    5.5530 H   0  0  0  0  0  0  0  0  0  0  0  0
   -6.1462    3.8400    7.8520 H   0  0  0  0  0  0  0  0  0  0  0  0
   -2.6952    2.9388    9.0913 H   0  0  0  0  0  0  0  0  0  0  0  0
   -7.2014    2.9874   12.5778 H   0  0  0  0  0  0  0  0  0  0  0  0
   -8.6829    3.2626   11.8347 H   0  0  0  0  0  0  0  0  0  0  0  0
   -2.5011    1.5277   12.3409 H   0  0  0  0  0  0  0  0  0  0  0  0
   -1.5303    2.5973   11.3009 H   0  0  0  0  0  0  0  0  0  0  0  0
   -1.5083    3.3831   13.6526 H   0  0  0  0  0  0  0  0  0  0  0  0
   -2.3138    4.5640   12.5920 H   0  0  0  0  0  0  0  0  0  0  0  0
   -3.2846    3.4943   13.6321 H   0  0  0  0  0  0  0  0  0  0  0  0
  1  2  1  0  0  0  0
  1 26  1  0  0  0  0
  1 27  1  0  0  0  0
  1 28  1  0  0  0  0
  2  3  1  0  0  0  0
  2 29  1  0  0  0  0
  2 30  1  0  0  0  0
  3  4  1  0  0  0  0
  3  5  1  0  0  0  0
  3  6  1  0  0  0  0
  5 31  1  0  0  0  0
  5 32  1  0  0  0  0
  5 33  1  0  0  0  0
  6 11  2  0  0  0  0
  6  7  1  0  0  0  0
  7  8  2  0  0  0  0
  7 34  1  0  0  0  0
  8  9  1  0  0  0  0
  8 35  1  0  0  0  0
  9 10  2  0  0  0  0
  9 12  1  0  0  0  0
 10 11  1  0  0  0  0
 10 36  1  0  0  0  0
 11 37  1  0  0  0  0
 12 13  1  0  0  0  0
 12 38  1  0  0  0  0
 13 14  2  0  0  0  0
 13 15  1  0  0  0  0
 15 16  1  0  0  0  0
 15 39  1  0  0  0  0
 16 20  1  0  0  0  0
 16 17  2  0  0  0  0
 17 18  1  0  0  0  0
 17 40  1  0  0  0  0
 18 19  1  0  0  0  0
 18 24  1  0  0  0  0
 19 20  2  0  0  0  0
 20 21  1  0  0  0  0
 21 22  2  0  0  0  0
 21 23  1  0  0  0  0
 23 41  1  0  0  0  0
 23 42  1  0  0  0  0
 24 25  1  0  0  0  0
 24 43  1  0  0  0  0
 24 44  1  0  0  0  0
 25 45  1  0  0  0  0
 25 46  1  0  0  0  0
 25 47  1  0  0  0  0
M  END
$$$$
ZINC00611298
  -OEChem-08230709453D

 43 44  0     0  0  0  0  0  0999 V2000
    8.0151    4.4470    0.0912 C   0  0  0  0  0  0  0  0  0  0  0  0
    6.8601    4.9690   -0.7239 C   0  0  0  0  0  0  0  0  0  0  0  0
    5.6640    4.2515   -0.7819 C   0  0  0  0  0  0  0  0  0  0  0  0
    4.5973    4.7449   -1.5344 C   0  0  0  0  0  0  0  0  0  0  0  0
    4.7328    5.9344   -2.2204 C   0  0  0  0  0  0  0  0  0  0  0  0
    5.9227    6.6376   -2.1633 C   0  0  0  0  0  0  0  0  0  0  0  0
    6.9842    6.1542   -1.4186 C   0  0  0  0  0  0  0  0  0  0  0  0
    8.2535    6.9135   -1.3629 N   0  3  0  0  0  0  0  0  0  0  0  0
    8.3241    8.0198   -1.8674 O   0  0  0  0  0  0  0  0  0  0  0  0
    9.2275    6.4319   -0.8124 O   0  5  0  0  0  0  0  0  0  0  0  0
    5.5260    2.9776   -0.0444 C   0  0  0  0  0  0  0  0  0  0  0  0
    6.4896    2.4915    0.5147 O   0  0  0  0  0  0  0  0  0  0  0  0
    4.3316    2.3553    0.0079 N   0  0  0  0  0  0  0  0  0  0  0  0
    4.2008    1.1481    0.7068 N   0  0  0  0  0  0  0  0  0  0  0  0
    3.0064    0.5258    0.7591 C   0  0  0  0  0  0  0  0  0  0  0  0
    2.8465   -0.9494    1.6131 S   0  0  0  0  0  0  0  0  0  0  0  0
    1.9380    1.0648    0.1392 N   0  0  0  0  0  0  0  0  0  0  0  0
    0.6397    0.3883    0.1960 C   0  0  0  0  0  0  0  0  0  0  0  0
   -0.0881    0.7887    1.4809 C   0  0  0  0  0  0  0  0  0  0  0  0
   -1.4439    0.0823    1.5403 C   0  0  0  0  0  0  0  0  0  0  0  0
   -2.2852    0.4904    0.3293 C   0  0  0  0  0  0  0  0  0  0  0  0
   -1.5573    0.0900   -0.9556 C   0  0  0  0  0  0  0  0  0  0  0  0
   -0.2015    0.7965   -1.0150 C   0  0  0  0  0  0  0  0  0  0  0  0
    8.6495    3.8213   -0.5367 H   0  0  0  0  0  0  0  0  0  0  0  0
    8.5971    5.2849    0.4749 H   0  0  0  0  0  0  0  0  0  0  0  0
    7.6342    3.8571    0.9249 H   0  0  0  0  0  0  0  0  0  0  0  0
    3.6679    4.1966   -1.5800 H   0  0  0  0  0  0  0  0  0  0  0  0
    3.9081    6.3171   -2.8034 H   0  0  0  0  0  0  0  0  0  0  0  0
    6.0236    7.5682   -2.7021 H   0  0  0  0  0  0  0  0  0  0  0  0
    3.5626    2.7432   -0.4383 H   0  0  0  0  0  0  0  0  0  0  0  0
    4.9698    0.7602    1.1529 H   0  0  0  0  0  0  0  0  0  0  0  0
    2.0286    1.9006   -0.3447 H   0  0  0  0  0  0  0  0  0  0  0  0
    0.7917   -0.6910    0.1858 H   0  0  0  0  0  0  0  0  0  0  0  0
    0.5112    0.4980    2.3437 H   0  0  0  0  0  0  0  0  0  0  0  0
   -0.2400    1.8680    1.4911 H   0  0  0  0  0  0  0  0  0  0  0  0
   -1.9624    0.3675    2.4557 H   0  0  0  0  0  0  0  0  0  0  0  0
   -1.2920   -0.9971    1.5301 H   0  0  0  0  0  0  0  0  0  0  0  0
   -2.4371    1.5697    0.3395 H   0  0  0  0  0  0  0  0  0  0  0  0
   -3.2511   -0.0129    0.3716 H   0  0  0  0  0  0  0  0  0  0  0  0
   -2.1567    0.3808   -1.8183 H   0  0  0  0  0  0  0  0  0  0  0  0
   -1.4054   -0.9893   -0.9658 H   0  0  0  0  0  0  0  0  0  0  0  0
   -0.3534    1.8758   -1.0047 H   0  0  0  0  0  0  0  0  0  0  0  0
    0.3170    0.5112   -1.9303 H   0  0  0  0  0  0  0  0  0  0  0  0
  1  2  1  0  0  0  0
  1 24  1  0  0  0  0
  1 25  1  0  0  0  0
  1 26  1  0  0  0  0
  2  7  2  0  0  0  0
  2  3  1  0  0  0  0
  3  4  2  0  0  0  0
  3 11  1  0  0  0  0
  4  5  1  0  0  0  0
  4 27  1  0  0  0  0
  5  6  2  0  0  0  0
  5 28  1  0  0  0  0
  6  7  1  0  0  0  0
  6 29  1  0  0  0  0
  7  8  1  0  0  0  0
  8  9  2  0  0  0  0
  8 10  1  0  0  0  0
 11 12  2  0  0  0  0
 11 13  1  0  0  0  0
 13 14  1  0  0  0  0
 13 30  1  0  0  0  0
 14 15  1  0  0  0  0
 14 31  1  0  0  0  0
 15 16  2  0  0  0  0
 15 17  1  0  0  0  0
 17 18  1  0  0  0  0
 17 32  1  0  0  0  0
 18 23  1  0  0  0  0
 18 19  1  0  0  0  0
 18 33  1  0  0  0  0
 19 20  1  0  0  0  0
 19 34  1  0  0  0  0
 19 35  1  0  0  0  0
 20 21  1  0  0  0  0
 20 36  1  0  0  0  0
 20 37  1  0  0  0  0
 21 22  1  0  0  0  0
 21 38  1  0  0  0  0
 21 39  1  0  0  0  0
 22 23  1  0  0  0  0
 22 40  1  0  0  0  0
 22 41  1  0  0  0  0
 23 42  1  0  0  0  0
 23 43  1  0  0  0  0
M  CHG  2   8   1  10  -1
M  END
$$$$
ZINC00613669
  -OEChem-08230709453D

 39 41  0     0  0  0  0  0  0999 V2000
    4.2684   -1.0388    0.8089 C   0  0  0  0  0  0  0  0  0  0  0  0
    3.1224   -2.0170    0.8363 C   0  0  0  0  0  0  0  0  0  0  0  0
    1.8406   -1.5817    0.6395 C   0  0  0  0  0  0  0  0  0  0  0  0
    0.9437   -3.1223    0.7826 S   0  0  0  0  0  0  0  0  0  0  0  0
    2.3586   -4.1743    1.0776 C   0  0  0  0  0  0  0  0  0  0  0  0
    3.3478   -3.2961    1.0494 N   0  0  0  0  0  0  0  0  0  0  0  0
    2.4062   -5.5434    1.2857 N   0  0  0  0  0  0  0  0  0  0  0  0
    1.3357   -0.2150    0.3854 C   0  0  0  0  0  0  0  0  0  0  0  0
   -0.0029    0.0072    0.2142 C   0  0  0  0  0  0  0  0  0  0  0  0
   -0.0172    1.7756   -0.0479 S   0  0  0  0  0  0  0  0  0  0  0  0
    1.7445    2.0399    0.0953 C   0  0  0  0  0  0  0  0  0  0  0  0
    2.1793    0.8133    0.3211 N   0  0  0  0  0  0  0  0  0  0  0  0
    2.4641    3.2197   -0.0048 N   0  0  0  0  0  0  0  0  0  0  0  0
    1.7905    4.4461   -0.0980 C   0  0  0  0  0  0  0  0  0  0  0  0
    0.5519    4.6056    0.5059 C   0  0  0  0  0  0  0  0  0  0  0  0
   -0.1098    5.8157    0.4178 C   0  0  0  0  0  0  0  0  0  0  0  0
    0.4580    6.8699   -0.2824 C   0  0  0  0  0  0  0  0  0  0  0  0
    1.6937    6.7136   -0.8924 C   0  0  0  0  0  0  0  0  0  0  0  0
    2.3618    5.5038   -0.8019 C   0  0  0  0  0  0  0  0  0  0  0  0
    3.5738    5.3487   -1.3989 O   0  0  0  0  0  0  0  0  0  0  0  0
    4.0987    6.4756   -2.1036 C   0  0  0  0  0  0  0  0  0  0  0  0
   -0.1979    8.0578   -0.3713 O   0  0  0  0  0  0  0  0  0  0  0  0
   -1.4663    8.1489    0.2806 C   0  0  0  0  0  0  0  0  0  0  0  0
    4.4406   -0.6526    1.8135 H   0  0  0  0  0  0  0  0  0  0  0  0
    5.1677   -1.5426    0.4543 H   0  0  0  0  0  0  0  0  0  0  0  0
    4.0260   -0.2138    0.1390 H   0  0  0  0  0  0  0  0  0  0  0  0
    3.2581   -5.9815    1.4382 H   0  0  0  0  0  0  0  0  0  0  0  0
    1.5876   -6.0638    1.2788 H   0  0  0  0  0  0  0  0  0  0  0  0
   -0.8249   -0.6930    0.2324 H   0  0  0  0  0  0  0  0  0  0  0  0
    3.4338    3.1973   -0.0105 H   0  0  0  0  0  0  0  0  0  0  0  0
    0.1063    3.7850    1.0484 H   0  0  0  0  0  0  0  0  0  0  0  0
   -1.0725    5.9394    0.8913 H   0  0  0  0  0  0  0  0  0  0  0  0
    2.1346    7.5348   -1.4379 H   0  0  0  0  0  0  0  0  0  0  0  0
    4.2163    7.3123   -1.4149 H   0  0  0  0  0  0  0  0  0  0  0  0
    5.0677    6.2177   -2.5309 H   0  0  0  0  0  0  0  0  0  0  0  0
    3.4124    6.7564   -2.9025 H   0  0  0  0  0  0  0  0  0  0  0  0
   -2.1452    7.4072   -0.1403 H   0  0  0  0  0  0  0  0  0  0  0  0
   -1.3408    7.9627    1.3472 H   0  0  0  0  0  0  0  0  0  0  0  0
   -1.8803    9.1462    0.1321 H   0  0  0  0  0  0  0  0  0  0  0  0
  1  2  1  0  0  0  0
  1 24  1  0  0  0  0
  1 25  1  0  0  0  0
  1 26  1  0  0  0  0
  2  6  1  0  0  0  0
  2  3  2  0  0  0  0
  3  4  1  0  0  0  0
  3  8  1  0  0  0  0
  4  5  1  0  0  0  0
  5  6  2  0  0  0  0
  5  7  1  0  0  0  0
  7 27  1  0  0  0  0
  7 28  1  0  0  0  0
  8 12  1  0  0  0  0
  8  9  2  0  0  0  0
  9 10  1  0  0  0  0
  9 29  1  0  0  0  0
 10 11  1  0  0  0  0
 11 12  2  0  0  0  0
 11 13  1  0  0  0  0
 13 14  1  0  0  0  0
 13 30  1  0  0  0  0
 14 19  2  0  0  0  0
 14 15  1  0  0  0  0
 15 16  2  0  0  0  0
 15 31  1  0  0  0  0
 16 17  1  0  0  0  0
 16 32  1  0  0  0  0
 17 18  2  0  0  0  0
 17 22  1  0  0  0  0
 18 19  1  0  0  0  0
 18 33  1  0  0  0  0
 19 20  1  0  0  0  0
 20 21  1  0  0  0  0
 21 34  1  0  0  0  0
 21 35  1  0  0  0  0
 21 36  1  0  0  0  0
 22 23  1  0  0  0  0
 23 37  1  0  0  0  0
 23 38  1  0  0  0  0
 23 39  1  0  0  0  0
M  END
$$$$
ZINC00615926
  -OEChem-08230709453D

 49 51  0     0  0  0  0  0  0999 V2000
    6.8727   -3.7574    5.6222 C   0  0  0  0  0  0  0  0  0  0  0  0
    6.2107   -2.7937    4.8005 O   0  0  0  0  0  0  0  0  0  0  0  0
    5.6597   -3.2444    3.6428 C   0  0  0  0  0  0  0  0  0  0  0  0
    5.0017   -2.3631    2.7972 C   0  0  0  0  0  0  0  0  0  0  0  0
    4.4430   -2.8236    1.6208 C   0  0  0  0  0  0  0  0  0  0  0  0
    4.5391   -4.1616    1.2857 C   0  0  0  0  0  0  0  0  0  0  0  0
    5.1895   -5.0430    2.1295 C   0  0  0  0  0  0  0  0  0  0  0  0
    5.7548   -4.5864    3.3044 C   0  0  0  0  0  0  0  0  0  0  0  0
    3.9286   -4.6613    0.0017 C   0  0  0  0  0  0  0  0  0  0  0  0
    4.5909   -3.9592   -1.1878 C   0  0  0  0  0  0  0  0  0  0  0  0
    4.0182   -4.5316   -2.4892 C   0  0  0  0  0  0  0  0  0  0  0  0
    4.2335   -5.9439   -2.5235 O   0  0  0  0  0  0  0  0  0  0  0  0
    3.5981   -6.6569   -1.4604 C   0  0  0  0  0  0  0  0  0  0  0  0
    4.1535   -6.1716   -0.1189 C   0  0  0  0  0  0  0  0  0  0  0  0
    2.4275   -4.3655   -0.0004 C   0  0  0  0  0  0  0  0  0  0  0  0
    1.8027   -5.0021    1.1618 N   0  0  0  0  0  0  0  0  0  0  0  0
    0.4960   -4.7976    1.4208 C   0  0  0  0  0  0  0  0  0  0  0  0
   -0.1644   -4.0848    0.6899 O   0  0  0  0  0  0  0  0  0  0  0  0
   -0.1331   -5.4386    2.5911 C   0  0  0  0  0  0  0  0  0  0  0  0
   -1.4884   -5.2275    2.8611 C   0  0  0  0  0  0  0  0  0  0  0  0
   -2.0724   -5.8272    3.9533 C   0  0  0  0  0  0  0  0  0  0  0  0
   -1.3151   -6.6434    4.7890 C   0  0  0  0  0  0  0  0  0  0  0  0
    0.0349   -6.8556    4.5228 C   0  0  0  0  0  0  0  0  0  0  0  0
    0.6247   -6.2588    3.4322 C   0  0  0  0  0  0  0  0  0  0  0  0
   -1.9081   -7.2480    5.8918 N   0  0  0  0  0  0  0  0  0  0  0  0
    6.1643   -4.5316    5.9168 H   0  0  0  0  0  0  0  0  0  0  0  0
    7.6928   -4.2088    5.0638 H   0  0  0  0  0  0  0  0  0  0  0  0
    7.2660   -3.2668    6.5125 H   0  0  0  0  0  0  0  0  0  0  0  0
    4.9267   -1.3178    3.0584 H   0  0  0  0  0  0  0  0  0  0  0  0
    3.9309   -2.1379    0.9620 H   0  0  0  0  0  0  0  0  0  0  0  0
    5.2591   -6.0885    1.8678 H   0  0  0  0  0  0  0  0  0  0  0  0
    6.2666   -5.2745    3.9609 H   0  0  0  0  0  0  0  0  0  0  0  0
    4.3886   -2.8892   -1.1379 H   0  0  0  0  0  0  0  0  0  0  0  0
    5.6671   -4.1291   -1.1580 H   0  0  0  0  0  0  0  0  0  0  0  0
    4.5163   -4.0673   -3.3403 H   0  0  0  0  0  0  0  0  0  0  0  0
    2.9489   -4.3256   -2.5372 H   0  0  0  0  0  0  0  0  0  0  0  0
    3.7935   -7.7236   -1.5703 H   0  0  0  0  0  0  0  0  0  0  0  0
    2.5233   -6.4787   -1.4947 H   0  0  0  0  0  0  0  0  0  0  0  0
    5.2209   -6.3862   -0.0675 H   0  0  0  0  0  0  0  0  0  0  0  0
    3.6397   -6.6826    0.6954 H   0  0  0  0  0  0  0  0  0  0  0  0
    1.9810   -4.7586   -0.9137 H   0  0  0  0  0  0  0  0  0  0  0  0
    2.2694   -3.2881    0.0468 H   0  0  0  0  0  0  0  0  0  0  0  0
    2.3296   -5.5707    1.7449 H   0  0  0  0  0  0  0  0  0  0  0  0
   -2.0765   -4.5947    2.2130 H   0  0  0  0  0  0  0  0  0  0  0  0
   -3.1184   -5.6610    4.1649 H   0  0  0  0  0  0  0  0  0  0  0  0
    0.6199   -7.4891    5.1731 H   0  0  0  0  0  0  0  0  0  0  0  0
    1.6719   -6.4240    3.2260 H   0  0  0  0  0  0  0  0  0  0  0  0
   -2.8486   -7.1008    6.0782 H   0  0  0  0  0  0  0  0  0  0  0  0
   -1.3814   -7.8168    6.4747 H   0  0  0  0  0  0  0  0  0  0  0  0
  1  2  1  0  0  0  0
  1 26  1  0  0  0  0
  1 27  1  0  0  0  0
  1 28  1  0  0  0  0
  2  3  1  0  0  0  0
  3  8  2  0  0  0  0
  3  4  1  0  0  0  0
  4  5  2  0  0  0  0
  4 29  1  0  0  0  0
  5  6  1  0  0  0  0
  5 30  1  0  0  0  0
  6  7  2  0  0  0  0
  6  9  1  0  0  0  0
  7  8  1  0  0  0  0
  7 31  1  0  0  0  0
  8 32  1  0  0  0  0
  9 14  1  0  0  0  0
  9 10  1  0  0  0  0
  9 15  1  0  0  0  0
 10 11  1  0  0  0  0
 10 33  1  0  0  0  0
 10 34  1  0  0  0  0
 11 12  1  0  0  0  0
 11 35  1  0  0  0  0
 11 36  1  0  0  0  0
 12 13  1  0  0  0  0
 13 14  1  0  0  0  0
 13 37  1  0  0  0  0
 13 38  1  0  0  0  0
 14 39  1  0  0  0  0
 14 40  1  0  0  0  0
 15 16  1  0  0  0  0
 15 41  1  0  0  0  0
 15 42  1  0  0  0  0
 16 17  1  0  0  0  0
 16 43  1  0  0  0  0
 17 18  2  0  0  0  0
 17 19  1  0  0  0  0
 19 24  2  0  0  0  0
 19 20  1  0  0  0  0
 20 21  2  0  0  0  0
 20 44  1  0  0  0  0
 21 22  1  0  0  0  0
 21 45  1  0  0  0  0
 22 23  2  0  0  0  0
 22 25  1  0  0  0  0
 23 24  1  0  0  0  0
 23 46  1  0  0  0  0
 24 47  1  0  0  0  0
 25 48  1  0  0  0  0
 25 49  1  0  0  0  0
M  END
$$$$
ZINC00620845
  -OEChem-08230709453D

 40 42  0     0  0  0  0  0  0999 V2000
   -1.3634   -3.1495   10.0510 C   0  0  0  0  0  0  0  0  0  0  0  0
    0.0499   -2.8733    9.6070 C   0  0  0  0  0  0  0  0  0  0  0  0
    1.1226   -3.3149   10.3660 C   0  0  0  0  0  0  0  0  0  0  0  0
    2.4067   -3.0399    9.9220 C   0  0  0  0  0  0  0  0  0  0  0  0
    2.5695   -2.3683    8.7943 N   0  0  0  0  0  0  0  0  0  0  0  0
    1.5223   -1.9599    8.0917 C   0  0  0  0  0  0  0  0  0  0  0  0
    0.2818   -2.2019    8.4913 N   0  0  0  0  0  0  0  0  0  0  0  0
    1.7854   -1.0681    6.5950 S   0  0  0  0  0  0  0  0  0  0  0  0
    0.0698   -0.7845    6.0924 C   0  0  0  0  0  0  0  0  0  0  0  0
    0.0466   -0.0148    4.7970 C   0  0  0  0  0  0  0  0  0  0  0  0
    0.0450   -0.6631    3.6455 N   0  0  0  0  0  0  0  0  0  0  0  0
    0.0249    0.0138    2.4984 C   0  0  0  0  0  0  0  0  0  0  0  0
    0.0120    1.3436    2.5140 N   0  0  0  0  0  0  0  0  0  0  0  0
    0.0081    1.9904    3.6742 C   0  0  0  0  0  0  0  0  0  0  0  0
    0.0283    1.3062    4.8159 N   0  0  0  0  0  0  0  0  0  0  0  0
   -0.0106    3.3701    3.6960 N   0  0  0  0  0  0  0  0  0  0  0  0
    0.0232   -0.7129    1.2082 C   0  0  0  0  0  0  0  0  0  0  0  0
    0.0420   -2.1072    1.1892 C   0  0  0  0  0  0  0  0  0  0  0  0
    0.0398   -2.7789   -0.0151 C   0  0  0  0  0  0  0  0  0  0  0  0
    0.0184   -2.0746   -1.2070 C   0  0  0  0  0  0  0  0  0  0  0  0
   -0.0057   -0.6937   -1.2009 C   0  0  0  0  0  0  0  0  0  0  0  0
    0.0021   -0.0041    0.0020 C   0  0  0  0  0  0  0  0  0  0  0  0
   -0.0163    1.3532    0.0095 O   0  0  0  0  0  0  0  0  0  0  0  0
    3.6026   -3.5010   10.7145 C   0  0  0  0  0  0  0  0  0  0  0  0
   -1.7119   -2.3327   10.6831 H   0  0  0  0  0  0  0  0  0  0  0  0
   -2.0091   -3.2334    9.1768 H   0  0  0  0  0  0  0  0  0  0  0  0
   -1.3916   -4.0822   10.6143 H   0  0  0  0  0  0  0  0  0  0  0  0
    0.9613   -3.8612   11.2835 H   0  0  0  0  0  0  0  0  0  0  0  0
   -0.4450   -0.2124    6.8643 H   0  0  0  0  0  0  0  0  0  0  0  0
   -0.4316   -1.7425    5.9550 H   0  0  0  0  0  0  0  0  0  0  0  0
   -0.0091    3.8419    4.5435 H   0  0  0  0  0  0  0  0  0  0  0  0
   -0.0253    3.8681    2.8637 H   0  0  0  0  0  0  0  0  0  0  0  0
    0.0580   -2.6603    2.1167 H   0  0  0  0  0  0  0  0  0  0  0  0
    0.0544   -3.8588   -0.0287 H   0  0  0  0  0  0  0  0  0  0  0  0
    0.0161   -2.6078   -2.1462 H   0  0  0  0  0  0  0  0  0  0  0  0
   -0.0264   -0.1504   -2.1341 H   0  0  0  0  0  0  0  0  0  0  0  0
    0.8616    1.7585    0.0033 H   0  0  0  0  0  0  0  0  0  0  0  0
    3.8836   -2.7288   11.4306 H   0  0  0  0  0  0  0  0  0  0  0  0
    3.3532   -4.4180   11.2483 H   0  0  0  0  0  0  0  0  0  0  0  0
    4.4361   -3.6896   10.0379 H   0  0  0  0  0  0  0  0  0  0  0  0
  1  2  1  0  0  0  0
  1 25  1  0  0  0  0
  1 26  1  0  0  0  0
  1 27  1  0  0  0  0
  2  7  2  0  0  0  0
  2  3  1  0  0  0  0
  3  4  2  0  0  0  0
  3 28  1  0  0  0  0
  4  5  1  0  0  0  0
  4 24  1  0  0  0  0
  5  6  2  0  0  0  0
  6  7  1  0  0  0  0
  6  8  1  0  0  0  0
  8  9  1  0  0  0  0
  9 10  1  0  0  0  0
  9 29  1  0  0  0  0
  9 30  1  0  0  0  0
 10 15  2  0  0  0  0
 10 11  1  0  0  0  0
 11 12  2  0  0  0  0
 12 13  1  0  0  0  0
 12 17  1  0  0  0  0
 13 14  2  0  0  0  0
 14 15  1  0  0  0  0
 14 16  1  0  0  0  0
 16 31  1  0  0  0  0
 16 32  1  0  0  0  0
 17 22  2  0  0  0  0
 17 18  1  0  0  0  0
 18 19  2  0  0  0  0
 18 33  1  0  0  0  0
 19 20  1  0  0  0  0
 19 34  1  0  0  0  0
 20 21  2  0  0  0  0
 20 35  1  0  0  0  0
 21 22  1  0  0  0  0
 21 36  1  0  0  0  0
 22 23  1  0  0  0  0
 23 37  1  0  0  0  0
 24 38  1  0  0  0  0
 24 39  1  0  0  0  0
 24 40  1  0  0  0  0
M  END
$$$$
ZINC00632664
  -OEChem-08230709453D

 44 46  0     0  0  0  0  0  0999 V2000
   -3.9216    5.9172   -0.3651 C   0  0  0  0  0  0  0  0  0  0  0  0
   -2.5808    5.2366   -0.2647 C   0  0  0  0  0  0  0  0  0  0  0  0
   -2.1966    4.6400    0.9222 C   0  0  0  0  0  0  0  0  0  0  0  0
   -0.9706    4.0107    1.0151 C   0  0  0  0  0  0  0  0  0  0  0  0
   -0.1198    3.9865   -0.0809 C   0  0  0  0  0  0  0  0  0  0  0  0
   -0.5075    4.5857   -1.2704 C   0  0  0  0  0  0  0  0  0  0  0  0
   -1.7371    5.2094   -1.3596 C   0  0  0  0  0  0  0  0  0  0  0  0
   -2.1588    5.8609   -2.6514 C   0  0  0  0  0  0  0  0  0  0  0  0
    1.0890    3.3719    0.0093 O   0  0  0  0  0  0  0  0  0  0  0  0
    1.1194    2.0177   -0.0377 C   0  0  0  0  0  0  0  0  0  0  0  0
    2.3347    1.3401   -0.0503 C   0  0  0  0  0  0  0  0  0  0  0  0
    2.3179   -0.0495   -0.0990 C   0  0  0  0  0  0  0  0  0  0  0  0
    1.1489   -0.6820   -0.1321 N   0  0  0  0  0  0  0  0  0  0  0  0
    0.0106   -0.0044   -0.1191 C   0  0  0  0  0  0  0  0  0  0  0  0
   -0.0107    1.3201   -0.0726 N   0  0  0  0  0  0  0  0  0  0  0  0
   -1.5141   -0.8864   -0.1642 S   0  0  0  0  0  0  0  0  0  0  0  0
   -2.6793    0.4981   -0.1262 C   0  0  0  0  0  0  0  0  0  0  0  0
    3.5120   -0.7704   -0.1125 N   0  0  0  0  0  0  0  0  0  0  0  0
    3.6724   -2.0512    0.3105 C   0  0  0  0  0  0  0  0  0  0  0  0
    5.0131   -2.3771    0.1210 C   0  0  0  0  0  0  0  0  0  0  0  0
    5.6424   -1.2364   -0.4323 C   0  0  0  0  0  0  0  0  0  0  0  0
    4.7477   -0.2998   -0.5696 N   0  0  0  0  0  0  0  0  0  0  0  0
    5.6523   -3.6604    0.4349 C   0  0  0  0  0  0  0  0  0  0  0  0
    4.9948   -4.5674    0.9103 O   0  0  0  0  0  0  0  0  0  0  0  0
    6.9674   -3.8344    0.1968 N   0  0  0  0  0  0  0  0  0  0  0  0
    2.6938   -2.8726    0.8295 N   0  0  0  0  0  0  0  0  0  0  0  0
   -4.6706    5.1974   -0.6953 H   0  0  0  0  0  0  0  0  0  0  0  0
   -4.2026    6.3119    0.6113 H   0  0  0  0  0  0  0  0  0  0  0  0
   -3.8613    6.7345   -1.0838 H   0  0  0  0  0  0  0  0  0  0  0  0
   -2.8576    4.6624    1.7760 H   0  0  0  0  0  0  0  0  0  0  0  0
   -0.6727    3.5414    1.9410 H   0  0  0  0  0  0  0  0  0  0  0  0
    0.1510    4.5643   -2.1261 H   0  0  0  0  0  0  0  0  0  0  0  0
   -2.6864    5.1345   -3.2695 H   0  0  0  0  0  0  0  0  0  0  0  0
   -2.8182    6.7017   -2.4359 H   0  0  0  0  0  0  0  0  0  0  0  0
   -1.2768    6.2179   -3.1831 H   0  0  0  0  0  0  0  0  0  0  0  0
    3.2691    1.8809   -0.0223 H   0  0  0  0  0  0  0  0  0  0  0  0
   -2.5119    1.1378   -0.9927 H   0  0  0  0  0  0  0  0  0  0  0  0
   -3.6996    0.1150   -0.1491 H   0  0  0  0  0  0  0  0  0  0  0  0
   -2.5283    1.0752    0.7861 H   0  0  0  0  0  0  0  0  0  0  0  0
    6.6860   -1.1576   -0.6991 H   0  0  0  0  0  0  0  0  0  0  0  0
    7.4914   -3.1114   -0.1821 H   0  0  0  0  0  0  0  0  0  0  0  0
    7.3898   -4.6825    0.4043 H   0  0  0  0  0  0  0  0  0  0  0  0
    1.7849   -2.5463    0.9205 H   0  0  0  0  0  0  0  0  0  0  0  0
    2.9144   -3.7766    1.1034 H   0  0  0  0  0  0  0  0  0  0  0  0
  1  2  1  0  0  0  0
  1 27  1  0  0  0  0
  1 28  1  0  0  0  0
  1 29  1  0  0  0  0
  2  7  2  0  0  0  0
  2  3  1  0  0  0  0
  3  4  2  0  0  0  0
  3 30  1  0  0  0  0
  4  5  1  0  0  0  0
  4 31  1  0  0  0  0
  5  6  2  0  0  0  0
  5  9  1  0  0  0  0
  6  7  1  0  0  0  0
  6 32  1  0  0  0  0
  7  8  1  0  0  0  0
  8 33  1  0  0  0  0
  8 34  1  0  0  0  0
  8 35  1  0  0  0  0
  9 10  1  0  0  0  0
 10 15  2  0  0  0  0
 10 11  1  0  0  0  0
 11 12  2  0  0  0  0
 11 36  1  0  0  0  0
 12 13  1  0  0  0  0
 12 18  1  0  0  0  0
 13 14  2  0  0  0  0
 14 15  1  0  0  0  0
 14 16  1  0  0  0  0
 16 17  1  0  0  0  0
 17 37  1  0  0  0  0
 17 38  1  0  0  0  0
 17 39  1  0  0  0  0
 18 22  1  0  0  0  0
 18 19  1  0  0  0  0
 19 20  2  0  0  0  0
 19 26  1  0  0  0  0
 20 21  1  0  0  0  0
 20 23  1  0  0  0  0
 21 22  2  0  0  0  0
 21 40  1  0  0  0  0
 23 24  2  0  0  0  0
 23 25  1  0  0  0  0
 25 41  1  0  0  0  0
 25 42  1  0  0  0  0
 26 43  1  0  0  0  0
 26 44  1  0  0  0  0
M  END
$$$$
ZINC00632673
  -OEChem-08230709453D

 41 43  0     0  0  0  0  0  0999 V2000
   -3.5947    2.7408    2.4473 C   0  0  0  0  0  0  0  0  0  0  0  0
   -4.1711    2.4228    1.0917 C   0  0  0  0  0  0  0  0  0  0  0  0
   -5.3134    1.6524    0.9894 C   0  0  0  0  0  0  0  0  0  0  0  0
   -5.8431    1.3611   -0.2539 C   0  0  0  0  0  0  0  0  0  0  0  0
   -5.2315    1.8397   -1.3981 C   0  0  0  0  0  0  0  0  0  0  0  0
   -4.0922    2.6144   -1.3011 C   0  0  0  0  0  0  0  0  0  0  0  0
   -3.5554    2.9038   -0.0546 C   0  0  0  0  0  0  0  0  0  0  0  0
   -2.4317    3.6618    0.0432 O   0  0  0  0  0  0  0  0  0  0  0  0
   -1.2377    3.0239    0.1113 C   0  0  0  0  0  0  0  0  0  0  0  0
   -0.0651    3.7421    0.3193 C   0  0  0  0  0  0  0  0  0  0  0  0
    1.1347    3.0415    0.3811 C   0  0  0  0  0  0  0  0  0  0  0  0
    1.1179    1.7183    0.2399 N   0  0  0  0  0  0  0  0  0  0  0  0
   -0.0142    1.0741    0.0443 C   0  0  0  0  0  0  0  0  0  0  0  0
   -1.1702    1.7030   -0.0252 N   0  0  0  0  0  0  0  0  0  0  0  0
    2.3369    3.7151    0.5882 N   0  0  0  0  0  0  0  0  0  0  0  0
    3.4533    3.1740    1.1363 C   0  0  0  0  0  0  0  0  0  0  0  0
    4.4275    4.1701    1.1643 C   0  0  0  0  0  0  0  0  0  0  0  0
    3.8058    5.3682    0.5936 C   0  0  0  0  0  0  0  0  0  0  0  0
    2.5767    5.0542    0.2688 N   0  0  0  0  0  0  0  0  0  0  0  0
    4.5712    6.9412    0.3827 S   0  0  0  0  0  0  0  0  0  0  0  0
    3.2733    7.9639   -0.3657 C   0  0  0  0  0  0  0  0  0  0  0  0
    5.7978    4.0459    1.6685 C   0  0  0  0  0  0  0  0  0  0  0  0
    6.0398    4.2823    2.8377 O   0  0  0  0  0  0  0  0  0  0  0  0
    6.7901    3.6699    0.8376 N   0  0  0  0  0  0  0  0  0  0  0  0
    3.5984    1.8771    1.5813 N   0  0  0  0  0  0  0  0  0  0  0  0
   -4.0329    3.6664    2.8204 H   0  0  0  0  0  0  0  0  0  0  0  0
   -3.8201    1.9279    3.1377 H   0  0  0  0  0  0  0  0  0  0  0  0
   -2.5142    2.8579    2.3643 H   0  0  0  0  0  0  0  0  0  0  0  0
   -5.7931    1.2776    1.8816 H   0  0  0  0  0  0  0  0  0  0  0  0
   -6.7363    0.7589   -0.3316 H   0  0  0  0  0  0  0  0  0  0  0  0
   -5.6478    1.6114   -2.3682 H   0  0  0  0  0  0  0  0  0  0  0  0
   -3.6174    2.9916   -2.1948 H   0  0  0  0  0  0  0  0  0  0  0  0
   -0.0856    4.8163    0.4297 H   0  0  0  0  0  0  0  0  0  0  0  0
    0.0061    0.0000   -0.0669 H   0  0  0  0  0  0  0  0  0  0  0  0
    2.4158    8.0112    0.3054 H   0  0  0  0  0  0  0  0  0  0  0  0
    3.6568    8.9698   -0.5367 H   0  0  0  0  0  0  0  0  0  0  0  0
    2.9676    7.5253   -1.3156 H   0  0  0  0  0  0  0  0  0  0  0  0
    6.5972    3.4815   -0.0942 H   0  0  0  0  0  0  0  0  0  0  0  0
    7.6972    3.5877    1.1714 H   0  0  0  0  0  0  0  0  0  0  0  0
    2.8563    1.2559    1.5155 H   0  0  0  0  0  0  0  0  0  0  0  0
    4.4425    1.5859    1.9602 H   0  0  0  0  0  0  0  0  0  0  0  0
  1  2  1  0  0  0  0
  1 26  1  0  0  0  0
  1 27  1  0  0  0  0
  1 28  1  0  0  0  0
  2  7  2  0  0  0  0
  2  3  1  0  0  0  0
  3  4  2  0  0  0  0
  3 29  1  0  0  0  0
  4  5  1  0  0  0  0
  4 30  1  0  0  0  0
  5  6  2  0  0  0  0
  5 31  1  0  0  0  0
  6  7  1  0  0  0  0
  6 32  1  0  0  0  0
  7  8  1  0  0  0  0
  8  9  1  0  0  0  0
  9 14  2  0  0  0  0
  9 10  1  0  0  0  0
 10 11  2  0  0  0  0
 10 33  1  0  0  0  0
 11 12  1  0  0  0  0
 11 15  1  0  0  0  0
 12 13  2  0  0  0  0
 13 14  1  0  0  0  0
 13 34  1  0  0  0  0
 15 19  1  0  0  0  0
 15 16  1  0  0  0  0
 16 17  2  0  0  0  0
 16 25  1  0  0  0  0
 17 18  1  0  0  0  0
 17 22  1  0  0  0  0
 18 19  2  0  0  0  0
 18 20  1  0  0  0  0
 20 21  1  0  0  0  0
 21 35  1  0  0  0  0
 21 36  1  0  0  0  0
 21 37  1  0  0  0  0
 22 23  2  0  0  0  0
 22 24  1  0  0  0  0
 24 38  1  0  0  0  0
 24 39  1  0  0  0  0
 25 40  1  0  0  0  0
 25 41  1  0  0  0  0
M  END
$$$$
ZINC00635292
  -OEChem-08230709453D

 46 48  0     1  0  0  0  0  0999 V2000
   -2.4940    1.0305    0.0040 C   0  0  0  0  0  0  0  0  0  0  0  0
   -1.1930    1.7911    0.0032 C   0  0  0  0  0  0  0  0  0  0  0  0
    0.0083    1.1039   -0.0028 C   0  0  0  0  0  0  0  0  0  0  0  0
    1.2006    1.8056   -0.0065 C   0  0  0  0  0  0  0  0  0  0  0  0
    1.1937    3.2013    0.0044 C   0  0  0  0  0  0  0  0  0  0  0  0
   -0.0138    3.8808    0.0112 C   0  0  0  0  0  0  0  0  0  0  0  0
   -1.2025    3.1734    0.0142 C   0  0  0  0  0  0  0  0  0  0  0  0
   -2.5151    3.9138    0.0235 C   0  0  0  0  0  0  0  0  0  0  0  0
    2.4053    3.9018    0.0152 N   0  0  0  0  0  0  0  0  0  0  0  0
    3.5716    3.2603    0.2122 C   0  0  0  0  0  0  0  0  0  0  0  0
    4.6163    3.8651    0.0939 O   0  0  0  0  0  0  0  0  0  0  0  0
    3.5938    1.7978    0.5780 C   0  0  2  0  0  0  0  0  0  0  0  0
    4.5106    1.3422    0.2038 H   0  0  0  0  0  0  0  0  0  0  0  0
    2.4313    1.1341   -0.0298 N   0  0  0  0  0  0  0  0  0  0  0  0
    3.5315    1.6477    2.0993 C   0  0  0  0  0  0  0  0  0  0  0  0
    3.6673    0.1924    2.4665 C   0  0  0  0  0  0  0  0  0  0  0  0
    3.8008   -0.6426    1.5968 O   0  0  0  0  0  0  0  0  0  0  0  0
    3.6404   -0.1813    3.7611 N   0  0  0  0  0  0  0  0  0  0  0  0
    3.6723   -1.5411    4.0987 C   0  0  0  0  0  0  0  0  0  0  0  0
    4.4055   -2.4315    3.3293 C   0  0  0  0  0  0  0  0  0  0  0  0
    4.4394   -3.7718    3.6669 C   0  0  0  0  0  0  0  0  0  0  0  0
    3.7351   -4.2309    4.7650 C   0  0  0  0  0  0  0  0  0  0  0  0
    2.9973   -3.3518    5.5348 C   0  0  0  0  0  0  0  0  0  0  0  0
    2.9616   -2.0038    5.2066 C   0  0  0  0  0  0  0  0  0  0  0  0
    2.0214   -0.8803    6.1856 S   0  0  0  0  0  0  0  0  0  0  0  0
    1.2955   -1.9259    7.4780 C   0  0  0  0  0  0  0  0  0  0  0  0
   -2.8048    0.8433    1.0318 H   0  0  0  0  0  0  0  0  0  0  0  0
   -3.2583    1.6173   -0.5055 H   0  0  0  0  0  0  0  0  0  0  0  0
   -2.3599    0.0807   -0.5138 H   0  0  0  0  0  0  0  0  0  0  0  0
    0.0150    0.0240   -0.0090 H   0  0  0  0  0  0  0  0  0  0  0  0
   -0.0269    4.9607    0.0139 H   0  0  0  0  0  0  0  0  0  0  0  0
   -2.8365    4.0964   -1.0019 H   0  0  0  0  0  0  0  0  0  0  0  0
   -3.2663    3.3150    0.5386 H   0  0  0  0  0  0  0  0  0  0  0  0
   -2.3918    4.8654    0.5406 H   0  0  0  0  0  0  0  0  0  0  0  0
    2.4043    4.8621   -0.1212 H   0  0  0  0  0  0  0  0  0  0  0  0
    2.5132    0.2566   -0.4350 H   0  0  0  0  0  0  0  0  0  0  0  0
    4.3440    2.2144    2.5539 H   0  0  0  0  0  0  0  0  0  0  0  0
    2.5763    2.0265    2.4630 H   0  0  0  0  0  0  0  0  0  0  0  0
    3.5991    0.4909    4.4592 H   0  0  0  0  0  0  0  0  0  0  0  0
    4.9531   -2.0775    2.4685 H   0  0  0  0  0  0  0  0  0  0  0  0
    5.0144   -4.4631    3.0687 H   0  0  0  0  0  0  0  0  0  0  0  0
    3.7616   -5.2796    5.0215 H   0  0  0  0  0  0  0  0  0  0  0  0
    2.4482   -3.7137    6.3915 H   0  0  0  0  0  0  0  0  0  0  0  0
    0.6709   -2.6916    7.0178 H   0  0  0  0  0  0  0  0  0  0  0  0
    2.0918   -2.4020    8.0501 H   0  0  0  0  0  0  0  0  0  0  0  0
    0.6874   -1.3123    8.1428 H   0  0  0  0  0  0  0  0  0  0  0  0
  1  2  1  0  0  0  0
  1 27  1  0  0  0  0
  1 28  1  0  0  0  0
  1 29  1  0  0  0  0
  2  7  2  0  0  0  0
  2  3  1  0  0  0  0
  3  4  2  0  0  0  0
  3 30  1  0  0  0  0
  4 14  1  0  0  0  0
  4  5  1  0  0  0  0
  5  6  2  0  0  0  0
  5  9  1  0  0  0  0
  6  7  1  0  0  0  0
  6 31  1  0  0  0  0
  7  8  1  0  0  0  0
  8 32  1  0  0  0  0
  8 33  1  0  0  0  0
  8 34  1  0  0  0  0
  9 10  1  0  0  0  0
  9 35  1  0  0  0  0
 10 11  2  0  0  0  0
 10 12  1  0  0  0  0
 12 13  1  0  0  0  0
 12 14  1  0  0  0  0
 12 15  1  0  0  0  0
 14 36  1  0  0  0  0
 15 16  1  0  0  0  0
 15 37  1  0  0  0  0
 15 38  1  0  0  0  0
 16 17  2  0  0  0  0
 16 18  1  0  0  0  0
 18 19  1  0  0  0  0
 18 39  1  0  0  0  0
 19 24  2  0  0  0  0
 19 20  1  0  0  0  0
 20 21  2  0  0  0  0
 20 40  1  0  0  0  0
 21 22  1  0  0  0  0
 21 41  1  0  0  0  0
 22 23  2  0  0  0  0
 22 42  1  0  0  0  0
 23 24  1  0  0  0  0
 23 43  1  0  0  0  0
 24 25  1  0  0  0  0
 25 26  1  0  0  0  0
 26 44  1  0  0  0  0
 26 45  1  0  0  0  0
 26 46  1  0  0  0  0
M  END
$$$$
ZINC00636887
  -OEChem-08230709453D

 45 47  0     0  0  0  0  0  0999 V2000
   -1.2622   -0.6701    0.0105 C   0  0  0  0  0  0  0  0  0  0  0  0
    0.0021   -0.0041    0.0020 O   0  0  0  0  0  0  0  0  0  0  0  0
   -0.0164    1.3557    0.0095 C   0  0  0  0  0  0  0  0  0  0  0  0
   -1.2248    2.0337    0.0189 C   0  0  0  0  0  0  0  0  0  0  0  0
   -1.2417    3.4160    0.0319 C   0  0  0  0  0  0  0  0  0  0  0  0
   -0.0548    4.1250    0.0248 C   0  0  0  0  0  0  0  0  0  0  0  0
    1.1542    3.4548    0.0096 C   0  0  0  0  0  0  0  0  0  0  0  0
    1.1782    2.0694    0.0019 C   0  0  0  0  0  0  0  0  0  0  0  0
    2.3667    1.4085   -0.0135 O   0  0  0  0  0  0  0  0  0  0  0  0
    3.5524    2.2061   -0.0205 C   0  0  0  0  0  0  0  0  0  0  0  0
    4.7621    1.3075   -0.0374 C   0  0  0  0  0  0  0  0  0  0  0  0
    4.6226    0.1028   -0.0430 O   0  0  0  0  0  0  0  0  0  0  0  0
    5.9990    1.8427   -0.0464 N   0  0  0  0  0  0  0  0  0  0  0  0
    7.1121    1.0159   -0.0621 C   0  0  0  0  0  0  0  0  0  0  0  0
    8.4525    1.3747   -0.0787 C   0  0  0  0  0  0  0  0  0  0  0  0
    9.4343    0.3036   -0.0883 C   0  0  0  0  0  0  0  0  0  0  0  0
    8.9221   -0.9462   -0.0913 C   0  0  0  0  0  0  0  0  0  0  0  0
    7.1668   -0.7158   -0.0731 S   0  0  0  0  0  0  0  0  0  0  0  0
    9.6848   -2.2349   -0.1071 C   0  0  0  0  0  0  0  0  0  0  0  0
   11.1387   -1.9317   -0.4973 C   0  0  0  0  0  0  0  0  0  0  0  0
   11.6391   -0.7525    0.3420 C   0  0  0  0  0  0  0  0  0  0  0  0
   10.9404    0.5344   -0.1004 C   0  0  0  0  0  0  0  0  0  0  0  0
    8.8628    2.7823   -0.0820 C   0  0  0  0  0  0  0  0  0  0  0  0
    9.0471    3.3649    0.9706 O   0  0  0  0  0  0  0  0  0  0  0  0
    9.0360    3.4311   -1.2506 N   0  0  0  0  0  0  0  0  0  0  0  0
   -1.8146   -0.3896    0.9073 H   0  0  0  0  0  0  0  0  0  0  0  0
   -1.8316   -0.3800   -0.8725 H   0  0  0  0  0  0  0  0  0  0  0  0
   -1.1047   -1.7486    0.0032 H   0  0  0  0  0  0  0  0  0  0  0  0
   -2.1534    1.4823    0.0199 H   0  0  0  0  0  0  0  0  0  0  0  0
   -2.1842    3.9432    0.0430 H   0  0  0  0  0  0  0  0  0  0  0  0
   -0.0722    5.2048    0.0308 H   0  0  0  0  0  0  0  0  0  0  0  0
    2.0799    4.0110    0.0034 H   0  0  0  0  0  0  0  0  0  0  0  0
    3.5585    2.8403   -0.9069 H   0  0  0  0  0  0  0  0  0  0  0  0
    3.5759    2.8301    0.8729 H   0  0  0  0  0  0  0  0  0  0  0  0
    6.1106    2.8062   -0.0420 H   0  0  0  0  0  0  0  0  0  0  0  0
    9.6576   -2.6899    0.8830 H   0  0  0  0  0  0  0  0  0  0  0  0
    9.2426   -2.9144   -0.8357 H   0  0  0  0  0  0  0  0  0  0  0  0
   11.7590   -2.8069   -0.3040 H   0  0  0  0  0  0  0  0  0  0  0  0
   11.1873   -1.6761   -1.5557 H   0  0  0  0  0  0  0  0  0  0  0  0
   11.4224   -0.9390    1.3939 H   0  0  0  0  0  0  0  0  0  0  0  0
   12.7153   -0.6434    0.2078 H   0  0  0  0  0  0  0  0  0  0  0  0
   11.1919    1.3418    0.5873 H   0  0  0  0  0  0  0  0  0  0  0  0
   11.2637    0.7981   -1.1074 H   0  0  0  0  0  0  0  0  0  0  0  0
    8.8891    2.9668   -2.0895 H   0  0  0  0  0  0  0  0  0  0  0  0
    9.3075    4.3623   -1.2527 H   0  0  0  0  0  0  0  0  0  0  0  0
  1  2  1  0  0  0  0
  1 26  1  0  0  0  0
  1 27  1  0  0  0  0
  1 28  1  0  0  0  0
  2  3  1  0  0  0  0
  3  8  2  0  0  0  0
  3  4  1  0  0  0  0
  4  5  2  0  0  0  0
  4 29  1  0  0  0  0
  5  6  1  0  0  0  0
  5 30  1  0  0  0  0
  6  7  2  0  0  0  0
  6 31  1  0  0  0  0
  7  8  1  0  0  0  0
  7 32  1  0  0  0  0
  8  9  1  0  0  0  0
  9 10  1  0  0  0  0
 10 11  1  0  0  0  0
 10 33  1  0  0  0  0
 10 34  1  0  0  0  0
 11 12  2  0  0  0  0
 11 13  1  0  0  0  0
 13 14  1  0  0  0  0
 13 35  1  0  0  0  0
 14 18  1  0  0  0  0
 14 15  2  0  0  0  0
 15 16  1  0  0  0  0
 15 23  1  0  0  0  0
 16 22  1  0  0  0  0
 16 17  2  0  0  0  0
 17 18  1  0  0  0  0
 17 19  1  0  0  0  0
 19 20  1  0  0  0  0
 19 36  1  0  0  0  0
 19 37  1  0  0  0  0
 20 21  1  0  0  0  0
 20 38  1  0  0  0  0
 20 39  1  0  0  0  0
 21 22  1  0  0  0  0
 21 40  1  0  0  0  0
 21 41  1  0  0  0  0
 22 42  1  0  0  0  0
 22 43  1  0  0  0  0
 23 24  2  0  0  0  0
 23 25  1  0  0  0  0
 25 44  1  0  0  0  0
 25 45  1  0  0  0  0
M  END
$$$$
ZINC00642493
  -OEChem-08230709453D

 41 43  0     1  0  0  0  0  0999 V2000
    3.0657    6.2482    3.0569 C   0  0  0  0  0  0  0  0  0  0  0  0
    2.8331    5.7446    1.6557 C   0  0  0  0  0  0  0  0  0  0  0  0
    2.9428    4.3960    1.3851 C   0  0  0  0  0  0  0  0  0  0  0  0
    2.7013    3.9368   -0.0352 C   0  0  2  0  0  0  0  0  0  0  0  0
    3.5989    3.4229   -0.3789 H   0  0  0  0  0  0  0  0  0  0  0  0
    2.3616    4.9830   -1.0370 N   0  0  0  0  0  0  0  0  0  0  0  0
    2.1063    4.7951   -2.3630 C   0  0  0  0  0  0  0  0  0  0  0  0
    1.8091    5.8804   -3.1398 C   0  0  0  0  0  0  0  0  0  0  0  0
    1.8943    7.2095   -1.9529 S   0  0  0  0  0  0  0  0  0  0  0  0
    2.3033    6.2678   -0.5590 C   0  0  0  0  0  0  0  0  0  0  0  0
    2.5250    6.5996    0.6916 N   0  0  0  0  0  0  0  0  0  0  0  0
    1.5091    5.9357   -4.5390 C   0  0  0  0  0  0  0  0  0  0  0  0
    1.2711    5.9795   -5.6489 N   0  0  0  0  0  0  0  0  0  0  0  0
    2.1476    3.5302   -2.9124 N   0  0  0  0  0  0  0  0  0  0  0  0
    1.5772    2.9333   -0.0134 C   0  0  0  0  0  0  0  0  0  0  0  0
    1.8588    1.5804   -0.0608 C   0  0  0  0  0  0  0  0  0  0  0  0
    0.8301    0.6585   -0.0413 C   0  0  0  0  0  0  0  0  0  0  0  0
   -0.4865    1.0913    0.0205 C   0  0  0  0  0  0  0  0  0  0  0  0
   -0.7662    2.4491    0.0728 C   0  0  0  0  0  0  0  0  0  0  0  0
    0.2660    3.3670    0.0536 C   0  0  0  0  0  0  0  0  0  0  0  0
   -1.5004    0.1864    0.0345 O   0  0  0  0  0  0  0  0  0  0  0  0
   -2.8309    0.7039    0.0992 C   0  0  0  0  0  0  0  0  0  0  0  0
    3.2685    3.4804    2.3951 C   0  0  0  0  0  0  0  0  0  0  0  0
    3.5766    3.8806    3.5040 O   0  0  0  0  0  0  0  0  0  0  0  0
    3.2408    2.1540    2.1391 O   0  0  0  0  0  0  0  0  0  0  0  0
    3.5842    1.2783    3.2149 C   0  0  0  0  0  0  0  0  0  0  0  0
    4.1332    6.4008    3.2156 H   0  0  0  0  0  0  0  0  0  0  0  0
    2.5392    7.1925    3.1957 H   0  0  0  0  0  0  0  0  0  0  0  0
    2.6929    5.5157    3.7729 H   0  0  0  0  0  0  0  0  0  0  0  0
    1.9646    3.4054   -3.8567 H   0  0  0  0  0  0  0  0  0  0  0  0
    2.3596    2.7657   -2.3542 H   0  0  0  0  0  0  0  0  0  0  0  0
    2.8837    1.2442   -0.1134 H   0  0  0  0  0  0  0  0  0  0  0  0
    1.0505   -0.3981   -0.0788 H   0  0  0  0  0  0  0  0  0  0  0  0
   -1.7902    2.7884    0.1244 H   0  0  0  0  0  0  0  0  0  0  0  0
    0.0487    4.4242    0.0905 H   0  0  0  0  0  0  0  0  0  0  0  0
   -3.5422   -0.1221    0.1039 H   0  0  0  0  0  0  0  0  0  0  0  0
   -2.9489    1.2901    1.0105 H   0  0  0  0  0  0  0  0  0  0  0  0
   -3.0165    1.3383   -0.7675 H   0  0  0  0  0  0  0  0  0  0  0  0
    3.5220    0.2443    2.8758 H   0  0  0  0  0  0  0  0  0  0  0  0
    4.6004    1.4914    3.5466 H   0  0  0  0  0  0  0  0  0  0  0  0
    2.8921    1.4313    4.0430 H   0  0  0  0  0  0  0  0  0  0  0  0
  1  2  1  0  0  0  0
  1 27  1  0  0  0  0
  1 28  1  0  0  0  0
  1 29  1  0  0  0  0
  2 11  1  0  0  0  0
  2  3  2  0  0  0  0
  3  4  1  0  0  0  0
  3 23  1  0  0  0  0
  4  5  1  0  0  0  0
  4  6  1  0  0  0  0
  4 15  1  0  0  0  0
  6 10  1  0  0  0  0
  6  7  1  0  0  0  0
  7  8  2  0  0  0  0
  7 14  1  0  0  0  0
  8  9  1  0  0  0  0
  8 12  1  0  0  0  0
  9 10  1  0  0  0  0
 10 11  2  0  0  0  0
 12 13  3  0  0  0  0
 14 30  1  0  0  0  0
 14 31  1  0  0  0  0
 15 20  2  0  0  0  0
 15 16  1  0  0  0  0
 16 17  2  0  0  0  0
 16 32  1  0  0  0  0
 17 18  1  0  0  0  0
 17 33  1  0  0  0  0
 18 19  2  0  0  0  0
 18 21  1  0  0  0  0
 19 20  1  0  0  0  0
 19 34  1  0  0  0  0
 20 35  1  0  0  0  0
 21 22  1  0  0  0  0
 22 36  1  0  0  0  0
 22 37  1  0  0  0  0
 22 38  1  0  0  0  0
 23 24  2  0  0  0  0
 23 25  1  0  0  0  0
 25 26  1  0  0  0  0
 26 39  1  0  0  0  0
 26 40  1  0  0  0  0
 26 41  1  0  0  0  0
M  END
$$$$
ZINC00642494
  -OEChem-08230709453D

 41 43  0     1  0  0  0  0  0999 V2000
   -2.1102    4.7464    0.0858 C   0  0  0  0  0  0  0  0  0  0  0  0
   -0.8758    3.8827    0.0493 C   0  0  0  0  0  0  0  0  0  0  0  0
    0.3698    4.4705   -0.0337 C   0  0  0  0  0  0  0  0  0  0  0  0
    1.5798    3.5641   -0.0676 C   0  0  1  0  0  0  0  0  0  0  0  0
    2.2213    3.8295    0.7726 H   0  0  0  0  0  0  0  0  0  0  0  0
    1.3304    2.0986   -0.0083 N   0  0  0  0  0  0  0  0  0  0  0  0
    2.2661    1.1071   -0.0253 C   0  0  0  0  0  0  0  0  0  0  0  0
    1.8520   -0.1945    0.0374 C   0  0  0  0  0  0  0  0  0  0  0  0
    0.0800   -0.0071    0.1231 S   0  0  0  0  0  0  0  0  0  0  0  0
    0.0134    1.7220    0.0718 C   0  0  0  0  0  0  0  0  0  0  0  0
   -0.9934    2.5640    0.1019 N   0  0  0  0  0  0  0  0  0  0  0  0
    2.6352   -1.3933    0.0344 C   0  0  0  0  0  0  0  0  0  0  0  0
    3.2565   -2.3444    0.0321 N   0  0  0  0  0  0  0  0  0  0  0  0
    3.6092    1.4123   -0.1040 N   0  0  0  0  0  0  0  0  0  0  0  0
    2.3411    3.8541   -1.3355 C   0  0  0  0  0  0  0  0  0  0  0  0
    2.0172    3.1875   -2.5027 C   0  0  0  0  0  0  0  0  0  0  0  0
    2.7098    3.4556   -3.6676 C   0  0  0  0  0  0  0  0  0  0  0  0
    3.7386    4.3863   -3.6628 C   0  0  0  0  0  0  0  0  0  0  0  0
    4.0654    5.0496   -2.4890 C   0  0  0  0  0  0  0  0  0  0  0  0
    3.3660    4.7821   -1.3281 C   0  0  0  0  0  0  0  0  0  0  0  0
    4.4249    4.6481   -4.8063 O   0  0  0  0  0  0  0  0  0  0  0  0
    4.0339    3.9278   -5.9769 C   0  0  0  0  0  0  0  0  0  0  0  0
    0.5092    5.8642   -0.0846 C   0  0  0  0  0  0  0  0  0  0  0  0
   -0.4788    6.5728   -0.1656 O   0  0  0  0  0  0  0  0  0  0  0  0
    1.7392    6.4220   -0.0439 O   0  0  0  0  0  0  0  0  0  0  0  0
    1.8069    7.8483   -0.0999 C   0  0  0  0  0  0  0  0  0  0  0  0
   -2.1834    5.3149   -0.8413 H   0  0  0  0  0  0  0  0  0  0  0  0
   -2.9921    4.1153    0.1956 H   0  0  0  0  0  0  0  0  0  0  0  0
   -2.0479    5.4337    0.9296 H   0  0  0  0  0  0  0  0  0  0  0  0
    4.2684    0.7008   -0.1156 H   0  0  0  0  0  0  0  0  0  0  0  0
    3.8944    2.3384   -0.1477 H   0  0  0  0  0  0  0  0  0  0  0  0
    1.2191    2.4599   -2.5049 H   0  0  0  0  0  0  0  0  0  0  0  0
    2.4535    2.9379   -4.5801 H   0  0  0  0  0  0  0  0  0  0  0  0
    4.8657    5.7748   -2.4829 H   0  0  0  0  0  0  0  0  0  0  0  0
    3.6203    5.2979   -0.4140 H   0  0  0  0  0  0  0  0  0  0  0  0
    4.6602    4.2308   -6.8160 H   0  0  0  0  0  0  0  0  0  0  0  0
    4.1529    2.8585   -5.8022 H   0  0  0  0  0  0  0  0  0  0  0  0
    2.9904    4.1447   -6.2054 H   0  0  0  0  0  0  0  0  0  0  0  0
    1.3577    8.1971   -1.0298 H   0  0  0  0  0  0  0  0  0  0  0  0
    1.2654    8.2712    0.7462 H   0  0  0  0  0  0  0  0  0  0  0  0
    2.8492    8.1645   -0.0589 H   0  0  0  0  0  0  0  0  0  0  0  0
  1  2  1  0  0  0  0
  1 27  1  0  0  0  0
  1 28  1  0  0  0  0
  1 29  1  0  0  0  0
  2 11  1  0  0  0  0
  2  3  2  0  0  0  0
  3  4  1  0  0  0  0
  3 23  1  0  0  0  0
  4  5  1  0  0  0  0
  4  6  1  0  0  0  0
  4 15  1  0  0  0  0
  6 10  1  0  0  0  0
  6  7  1  0  0  0  0
  7  8  2  0  0  0  0
  7 14  1  0  0  0  0
  8  9  1  0  0  0  0
  8 12  1  0  0  0  0
  9 10  1  0  0  0  0
 10 11  2  0  0  0  0
 12 13  3  0  0  0  0
 14 30  1  0  0  0  0
 14 31  1  0  0  0  0
 15 20  2  0  0  0  0
 15 16  1  0  0  0  0
 16 17  2  0  0  0  0
 16 32  1  0  0  0  0
 17 18  1  0  0  0  0
 17 33  1  0  0  0  0
 18 19  2  0  0  0  0
 18 21  1  0  0  0  0
 19 20  1  0  0  0  0
 19 34  1  0  0  0  0
 20 35  1  0  0  0  0
 21 22  1  0  0  0  0
 22 36  1  0  0  0  0
 22 37  1  0  0  0  0
 22 38  1  0  0  0  0
 23 24  2  0  0  0  0
 23 25  1  0  0  0  0
 25 26  1  0  0  0  0
 26 39  1  0  0  0  0
 26 40  1  0  0  0  0
 26 41  1  0  0  0  0
M  END
$$$$
ZINC00642598
  -OEChem-08230709453D

 42 45  0     0  0  0  0  0  0999 V2000
   10.6562    2.4955   -0.0852 C   0  0  0  0  0  0  0  0  0  0  0  0
   11.1349    1.1969   -0.0971 C   0  0  0  0  0  0  0  0  0  0  0  0
   10.2562    0.1343   -0.0944 C   0  0  0  0  0  0  0  0  0  0  0  0
    8.8780    0.3715   -0.0802 C   0  0  0  0  0  0  0  0  0  0  0  0
    8.4022    1.6865   -0.0746 C   0  0  0  0  0  0  0  0  0  0  0  0
    9.2937    2.7384   -0.0711 C   0  0  0  0  0  0  0  0  0  0  0  0
    7.9333   -0.7569   -0.0772 C   0  0  0  0  0  0  0  0  0  0  0  0
    8.3492   -1.8959   -0.0871 O   0  0  0  0  0  0  0  0  0  0  0  0
    6.4490   -0.4969   -0.0618 C   0  0  0  0  0  0  0  0  0  0  0  0
    5.5602   -2.0737   -0.0617 S   0  0  0  0  0  0  0  0  0  0  0  0
    3.8984   -1.4883   -0.0429 C   0  0  0  0  0  0  0  0  0  0  0  0
    3.6854   -0.1791   -0.0345 N   0  0  0  0  0  0  0  0  0  0  0  0
    2.4237    0.2318   -0.0200 C   0  0  0  0  0  0  0  0  0  0  0  0
    1.3098   -0.6387   -0.0141 C   0  0  0  0  0  0  0  0  0  0  0  0
    0.0021   -0.0041    0.0020 C   0  0  0  0  0  0  0  0  0  0  0  0
   -0.0163    1.3482    0.0095 C   0  0  0  0  0  0  0  0  0  0  0  0
    1.6902    1.8370   -0.0042 S   0  0  0  0  0  0  0  0  0  0  0  0
   -1.2200    2.2390    0.0203 C   0  0  0  0  0  0  0  0  0  0  0  0
   -2.4520    1.3992   -0.3406 C   0  0  0  0  0  0  0  0  0  0  0  0
   -2.4325    0.1129    0.4906 C   0  0  0  0  0  0  0  0  0  0  0  0
   -1.3020   -0.7975    0.0109 C   0  0  0  0  0  0  0  0  0  0  0  0
    1.5784   -2.0463   -0.0240 C   0  0  0  0  0  0  0  0  0  0  0  0
    0.6849   -2.8756   -0.0203 O   0  0  0  0  0  0  0  0  0  0  0  0
    2.8855   -2.3984   -0.0382 N   0  0  0  0  0  0  0  0  0  0  0  0
    3.2028   -3.7270   -0.0486 N   0  0  0  0  0  0  0  0  0  0  0  0
   11.3495    3.3236   -0.0867 H   0  0  0  0  0  0  0  0  0  0  0  0
   12.1995    1.0154   -0.1081 H   0  0  0  0  0  0  0  0  0  0  0  0
   10.6312   -0.8785   -0.1036 H   0  0  0  0  0  0  0  0  0  0  0  0
    7.3392    1.8777   -0.0685 H   0  0  0  0  0  0  0  0  0  0  0  0
    8.9279    3.7545   -0.0619 H   0  0  0  0  0  0  0  0  0  0  0  0
    6.1943    0.0292   -0.8732 H   0  0  0  0  0  0  0  0  0  0  0  0
    6.1882    0.0672    0.8336 H   0  0  0  0  0  0  0  0  0  0  0  0
   -1.3529    2.6631    1.0155 H   0  0  0  0  0  0  0  0  0  0  0  0
   -1.0897    3.0397   -0.7078 H   0  0  0  0  0  0  0  0  0  0  0  0
   -2.4227    1.1498   -1.4012 H   0  0  0  0  0  0  0  0  0  0  0  0
   -3.3595    1.9621   -0.1222 H   0  0  0  0  0  0  0  0  0  0  0  0
   -3.3857   -0.4042    0.3801 H   0  0  0  0  0  0  0  0  0  0  0  0
   -2.2757    0.3632    1.5398 H   0  0  0  0  0  0  0  0  0  0  0  0
   -1.5208   -1.1514   -0.9965 H   0  0  0  0  0  0  0  0  0  0  0  0
   -1.2071   -1.6481    0.6858 H   0  0  0  0  0  0  0  0  0  0  0  0
    4.2030   -3.8599   -0.0587 H   0  0  0  0  0  0  0  0  0  0  0  0
    2.7824   -4.2053    0.7340 H   0  0  0  0  0  0  0  0  0  0  0  0
  1  6  2  0  0  0  0
  1  2  1  0  0  0  0
  1 26  1  0  0  0  0
  2  3  2  0  0  0  0
  2 27  1  0  0  0  0
  3  4  1  0  0  0  0
  3 28  1  0  0  0  0
  4  5  2  0  0  0  0
  4  7  1  0  0  0  0
  5  6  1  0  0  0  0
  5 29  1  0  0  0  0
  6 30  1  0  0  0  0
  7  8  2  0  0  0  0
  7  9  1  0  0  0  0
  9 10  1  0  0  0  0
  9 31  1  0  0  0  0
  9 32  1  0  0  0  0
 10 11  1  0  0  0  0
 11 24  1  0  0  0  0
 11 12  2  0  0  0  0
 12 13  1  0  0  0  0
 13 17  1  0  0  0  0
 13 14  2  0  0  0  0
 14 15  1  0  0  0  0
 14 22  1  0  0  0  0
 15 21  1  0  0  0  0
 15 16  2  0  0  0  0
 16 17  1  0  0  0  0
 16 18  1  0  0  0  0
 18 19  1  0  0  0  0
 18 33  1  0  0  0  0
 18 34  1  0  0  0  0
 19 20  1  0  0  0  0
 19 35  1  0  0  0  0
 19 36  1  0  0  0  0
 20 21  1  0  0  0  0
 20 37  1  0  0  0  0
 20 38  1  0  0  0  0
 21 39  1  0  0  0  0
 21 40  1  0  0  0  0
 22 23  2  0  0  0  0
 22 24  1  0  0  0  0
 24 25  1  0  0  0  0
 25 41  1  0  0  0  0
 25 42  1  0  0  0  0
M  END
$$$$
ZINC00642632
  -OEChem-08230709453D

 41 43  0     1  0  0  0  0  0999 V2000
   -1.2955   -0.7704    0.0108 C   0  0  0  0  0  0  0  0  0  0  0  0
    0.0021   -0.0041    0.0020 C   0  0  0  0  0  0  0  0  0  0  0  0
    1.2011   -0.6866   -0.0131 C   0  0  0  0  0  0  0  0  0  0  0  0
    2.4776    0.1242   -0.0209 C   0  0  2  0  0  0  0  0  0  0  0  0
    3.0631   -0.1636    0.8522 H   0  0  0  0  0  0  0  0  0  0  0  0
    2.3393    1.6054   -0.0117 N   0  0  0  0  0  0  0  0  0  0  0  0
    3.3484    2.5223   -0.0168 C   0  0  0  0  0  0  0  0  0  0  0  0
    3.0335    3.8528   -0.0062 C   0  0  0  0  0  0  0  0  0  0  0  0
    1.2503    3.8027    0.0105 S   0  0  0  0  0  0  0  0  0  0  0  0
    1.0531    2.0828    0.0032 C   0  0  0  0  0  0  0  0  0  0  0  0
   -0.0159    1.3207    0.0093 N   0  0  0  0  0  0  0  0  0  0  0  0
    3.9059    4.9883   -0.0085 C   0  0  0  0  0  0  0  0  0  0  0  0
    4.5980    5.8891   -0.0103 N   0  0  0  0  0  0  0  0  0  0  0  0
    4.6662    2.1141   -0.0314 N   0  0  0  0  0  0  0  0  0  0  0  0
    3.2639   -0.2606   -1.2476 C   0  0  0  0  0  0  0  0  0  0  0  0
    2.9286    0.2728   -2.4786 C   0  0  0  0  0  0  0  0  0  0  0  0
    3.6515   -0.0738   -3.6048 C   0  0  0  0  0  0  0  0  0  0  0  0
    4.7042   -0.9631   -3.5048 C   0  0  0  0  0  0  0  0  0  0  0  0
    5.0389   -1.5039   -2.2721 C   0  0  0  0  0  0  0  0  0  0  0  0
    4.3153   -1.1501   -1.1423 C   0  0  0  0  0  0  0  0  0  0  0  0
    6.0736   -2.3792   -2.1712 O   0  0  0  0  0  0  0  0  0  0  0  0
    6.7738   -2.6977   -3.3755 C   0  0  0  0  0  0  0  0  0  0  0  0
    1.2350   -2.0878   -0.0214 C   0  0  0  0  0  0  0  0  0  0  0  0
    0.1948   -2.7224   -0.0153 O   0  0  0  0  0  0  0  0  0  0  0  0
    2.4211   -2.7348   -0.0362 O   0  0  0  0  0  0  0  0  0  0  0  0
    2.3808   -4.1632   -0.0440 C   0  0  0  0  0  0  0  0  0  0  0  0
   -2.1309   -0.0703    0.0228 H   0  0  0  0  0  0  0  0  0  0  0  0
   -1.3559   -1.3928   -0.8820 H   0  0  0  0  0  0  0  0  0  0  0  0
   -1.3382   -1.4024    0.8979 H   0  0  0  0  0  0  0  0  0  0  0  0
    4.8809    1.1682   -0.0382 H   0  0  0  0  0  0  0  0  0  0  0  0
    5.3780    2.7731   -0.0350 H   0  0  0  0  0  0  0  0  0  0  0  0
    2.1031    0.9645   -2.5596 H   0  0  0  0  0  0  0  0  0  0  0  0
    3.3903    0.3473   -4.5644 H   0  0  0  0  0  0  0  0  0  0  0  0
    5.2657   -1.2373   -4.3857 H   0  0  0  0  0  0  0  0  0  0  0  0
    4.5742   -1.5695   -0.1814 H   0  0  0  0  0  0  0  0  0  0  0  0
    7.1997   -1.7884   -3.7995 H   0  0  0  0  0  0  0  0  0  0  0  0
    7.5733   -3.4049   -3.1548 H   0  0  0  0  0  0  0  0  0  0  0  0
    6.0823   -3.1428   -4.0909 H   0  0  0  0  0  0  0  0  0  0  0  0
    3.3978   -4.5553   -0.0557 H   0  0  0  0  0  0  0  0  0  0  0  0
    1.8653   -4.5170    0.8489 H   0  0  0  0  0  0  0  0  0  0  0  0
    1.8486   -4.5069   -0.9310 H   0  0  0  0  0  0  0  0  0  0  0  0
  1  2  1  0  0  0  0
  1 27  1  0  0  0  0
  1 28  1  0  0  0  0
  1 29  1  0  0  0  0
  2 11  1  0  0  0  0
  2  3  2  0  0  0  0
  3  4  1  0  0  0  0
  3 23  1  0  0  0  0
  4  5  1  0  0  0  0
  4  6  1  0  0  0  0
  4 15  1  0  0  0  0
  6 10  1  0  0  0  0
  6  7  1  0  0  0  0
  7  8  2  0  0  0  0
  7 14  1  0  0  0  0
  8  9  1  0  0  0  0
  8 12  1  0  0  0  0
  9 10  1  0  0  0  0
 10 11  2  0  0  0  0
 12 13  3  0  0  0  0
 14 30  1  0  0  0  0
 14 31  1  0  0  0  0
 15 20  2  0  0  0  0
 15 16  1  0  0  0  0
 16 17  2  0  0  0  0
 16 32  1  0  0  0  0
 17 18  1  0  0  0  0
 17 33  1  0  0  0  0
 18 19  2  0  0  0  0
 18 34  1  0  0  0  0
 19 20  1  0  0  0  0
 19 21  1  0  0  0  0
 20 35  1  0  0  0  0
 21 22  1  0  0  0  0
 22 36  1  0  0  0  0
 22 37  1  0  0  0  0
 22 38  1  0  0  0  0
 23 24  2  0  0  0  0
 23 25  1  0  0  0  0
 25 26  1  0  0  0  0
 26 39  1  0  0  0  0
 26 40  1  0  0  0  0
 26 41  1  0  0  0  0
M  END
$$$$
ZINC00642633
  -OEChem-08230709453D

 41 43  0     1  0  0  0  0  0999 V2000
   -0.7796    7.6953    0.0908 C   0  0  0  0  0  0  0  0  0  0  0  0
   -0.1666    6.3191    0.0565 C   0  0  0  0  0  0  0  0  0  0  0  0
    1.2035    6.1809   -0.0311 C   0  0  0  0  0  0  0  0  0  0  0  0
    1.7736    4.7807   -0.0620 C   0  0  1  0  0  0  0  0  0  0  0  0
    2.4634    4.6808    0.7761 H   0  0  0  0  0  0  0  0  0  0  0  0
    0.8053    3.6533    0.0050 N   0  0  0  0  0  0  0  0  0  0  0  0
    1.0965    2.3214   -0.0078 C   0  0  0  0  0  0  0  0  0  0  0  0
    0.0715    1.4193    0.0623 C   0  0  0  0  0  0  0  0  0  0  0  0
   -1.3510    2.4929    0.1413 S   0  0  0  0  0  0  0  0  0  0  0  0
   -0.5172    4.0091    0.0886 C   0  0  0  0  0  0  0  0  0  0  0  0
   -0.9467    5.2495    0.1112 N   0  0  0  0  0  0  0  0  0  0  0  0
    0.1253   -0.0117    0.0652 C   0  0  0  0  0  0  0  0  0  0  0  0
    0.1680   -1.1469    0.0676 N   0  0  0  0  0  0  0  0  0  0  0  0
    2.4047    1.8909   -0.0898 N   0  0  0  0  0  0  0  0  0  0  0  0
    2.5708    4.6325   -1.3323 C   0  0  0  0  0  0  0  0  0  0  0  0
    1.9461    4.2237   -2.4963 C   0  0  0  0  0  0  0  0  0  0  0  0
    2.6737    4.0914   -3.6643 C   0  0  0  0  0  0  0  0  0  0  0  0
    4.0295    4.3573   -3.6689 C   0  0  0  0  0  0  0  0  0  0  0  0
    4.6595    4.7625   -2.5014 C   0  0  0  0  0  0  0  0  0  0  0  0
    3.9260    4.8996   -1.3316 C   0  0  0  0  0  0  0  0  0  0  0  0
    5.9929    5.0251   -2.5034 O   0  0  0  0  0  0  0  0  0  0  0  0
    6.6842    4.8627   -3.7435 C   0  0  0  0  0  0  0  0  0  0  0  0
    2.0407    7.3035   -0.0892 C   0  0  0  0  0  0  0  0  0  0  0  0
    1.5586    8.4195   -0.1724 O   0  0  0  0  0  0  0  0  0  0  0  0
    3.3825    7.1482   -0.0529 O   0  0  0  0  0  0  0  0  0  0  0  0
    4.1749    8.3357   -0.1161 C   0  0  0  0  0  0  0  0  0  0  0  0
   -0.5531    8.2172   -0.8390 H   0  0  0  0  0  0  0  0  0  0  0  0
   -1.8601    7.6090    0.2052 H   0  0  0  0  0  0  0  0  0  0  0  0
   -0.3688    8.2552    0.9310 H   0  0  0  0  0  0  0  0  0  0  0  0
    2.6032    0.9414   -0.0984 H   0  0  0  0  0  0  0  0  0  0  0  0
    3.1260    2.5376   -0.1388 H   0  0  0  0  0  0  0  0  0  0  0  0
    0.8871    4.0114   -2.4938 H   0  0  0  0  0  0  0  0  0  0  0  0
    2.1827    3.7760   -4.5731 H   0  0  0  0  0  0  0  0  0  0  0  0
    4.5983    4.2495   -4.5806 H   0  0  0  0  0  0  0  0  0  0  0  0
    4.4142    5.2152   -0.4214 H   0  0  0  0  0  0  0  0  0  0  0  0
    6.5885    3.8305   -4.0804 H   0  0  0  0  0  0  0  0  0  0  0  0
    6.2532    5.5300   -4.4898 H   0  0  0  0  0  0  0  0  0  0  0  0
    7.7383    5.1038   -3.6061 H   0  0  0  0  0  0  0  0  0  0  0  0
    3.9317    8.9802    0.7286 H   0  0  0  0  0  0  0  0  0  0  0  0
    5.2314    8.0699   -0.0780 H   0  0  0  0  0  0  0  0  0  0  0  0
    3.9662    8.8627   -1.0471 H   0  0  0  0  0  0  0  0  0  0  0  0
  1  2  1  0  0  0  0
  1 27  1  0  0  0  0
  1 28  1  0  0  0  0
  1 29  1  0  0  0  0
  2 11  1  0  0  0  0
  2  3  2  0  0  0  0
  3  4  1  0  0  0  0
  3 23  1  0  0  0  0
  4  5  1  0  0  0  0
  4  6  1  0  0  0  0
  4 15  1  0  0  0  0
  6 10  1  0  0  0  0
  6  7  1  0  0  0  0
  7  8  2  0  0  0  0
  7 14  1  0  0  0  0
  8  9  1  0  0  0  0
  8 12  1  0  0  0  0
  9 10  1  0  0  0  0
 10 11  2  0  0  0  0
 12 13  3  0  0  0  0
 14 30  1  0  0  0  0
 14 31  1  0  0  0  0
 15 20  2  0  0  0  0
 15 16  1  0  0  0  0
 16 17  2  0  0  0  0
 16 32  1  0  0  0  0
 17 18  1  0  0  0  0
 17 33  1  0  0  0  0
 18 19  2  0  0  0  0
 18 34  1  0  0  0  0
 19 20  1  0  0  0  0
 19 21  1  0  0  0  0
 20 35  1  0  0  0  0
 21 22  1  0  0  0  0
 22 36  1  0  0  0  0
 22 37  1  0  0  0  0
 22 38  1  0  0  0  0
 23 24  2  0  0  0  0
 23 25  1  0  0  0  0
 25 26  1  0  0  0  0
 26 39  1  0  0  0  0
 26 40  1  0  0  0  0
 26 41  1  0  0  0  0
M  END
$$$$
ZINC00644449
  -OEChem-08230709453D

 41 43  0     0  0  0  0  0  0999 V2000
   -5.7089   -5.5190    1.6396 C   0  0  0  0  0  0  0  0  0  0  0  0
   -4.8128   -5.7286    0.4462 C   0  0  0  0  0  0  0  0  0  0  0  0
   -4.9001   -6.8981   -0.2862 C   0  0  0  0  0  0  0  0  0  0  0  0
   -4.0793   -7.0935   -1.3817 C   0  0  0  0  0  0  0  0  0  0  0  0
   -3.1700   -6.1200   -1.7474 C   0  0  0  0  0  0  0  0  0  0  0  0
   -3.0804   -4.9455   -1.0141 C   0  0  0  0  0  0  0  0  0  0  0  0
   -3.9012   -4.7544    0.0881 C   0  0  0  0  0  0  0  0  0  0  0  0
   -2.1864   -3.9864   -1.3715 O   0  0  0  0  0  0  0  0  0  0  0  0
   -2.2133   -2.8094   -0.7000 C   0  0  0  0  0  0  0  0  0  0  0  0
   -1.0284   -2.1588   -0.3705 C   0  0  0  0  0  0  0  0  0  0  0  0
   -1.1038   -0.9557    0.3228 C   0  0  0  0  0  0  0  0  0  0  0  0
   -2.2983   -0.4640    0.6379 N   0  0  0  0  0  0  0  0  0  0  0  0
   -3.4066   -1.1083    0.3036 C   0  0  0  0  0  0  0  0  0  0  0  0
   -3.3717   -2.2592   -0.3527 N   0  0  0  0  0  0  0  0  0  0  0  0
   -4.9669   -0.4171    0.7423 S   0  0  0  0  0  0  0  0  0  0  0  0
   -6.0649   -1.7490    0.1979 C   0  0  0  0  0  0  0  0  0  0  0  0
    0.0583   -0.2709    0.6781 N   0  0  0  0  0  0  0  0  0  0  0  0
    0.1577    1.0664    0.9000 C   0  0  0  0  0  0  0  0  0  0  0  0
    1.4852    1.3263    1.2280 C   0  0  0  0  0  0  0  0  0  0  0  0
    2.1712    0.0896    1.1922 C   0  0  0  0  0  0  0  0  0  0  0  0
    1.3210   -0.8431    0.8674 N   0  0  0  0  0  0  0  0  0  0  0  0
    2.0499    2.6042    1.5424 C   0  0  0  0  0  0  0  0  0  0  0  0
    2.4978    3.6179    1.7917 N   0  0  0  0  0  0  0  0  0  0  0  0
   -0.8629    1.9920    0.8111 N   0  0  0  0  0  0  0  0  0  0  0  0
   -4.1772   -8.3693   -2.1777 C   0  0  0  0  0  0  0  0  0  0  0  0
   -5.1845   -5.8229    2.5455 H   0  0  0  0  0  0  0  0  0  0  0  0
   -5.9776   -4.4651    1.7115 H   0  0  0  0  0  0  0  0  0  0  0  0
   -6.6127   -6.1174    1.5248 H   0  0  0  0  0  0  0  0  0  0  0  0
   -5.6103   -7.6604   -0.0020 H   0  0  0  0  0  0  0  0  0  0  0  0
   -2.5297   -6.2728   -2.6035 H   0  0  0  0  0  0  0  0  0  0  0  0
   -3.8305   -3.8428    0.6630 H   0  0  0  0  0  0  0  0  0  0  0  0
   -0.0722   -2.5802   -0.6434 H   0  0  0  0  0  0  0  0  0  0  0  0
   -7.1022   -1.4359    0.3159 H   0  0  0  0  0  0  0  0  0  0  0  0
   -5.8704   -1.9745   -0.8507 H   0  0  0  0  0  0  0  0  0  0  0  0
   -5.8832   -2.6389    0.8005 H   0  0  0  0  0  0  0  0  0  0  0  0
    3.2210   -0.0568    1.3995 H   0  0  0  0  0  0  0  0  0  0  0  0
   -1.7575    1.7058    0.5691 H   0  0  0  0  0  0  0  0  0  0  0  0
   -0.6852    2.9286    0.9905 H   0  0  0  0  0  0  0  0  0  0  0  0
   -3.4933   -9.1098   -1.7628 H   0  0  0  0  0  0  0  0  0  0  0  0
   -5.1974   -8.7500   -2.1300 H   0  0  0  0  0  0  0  0  0  0  0  0
   -3.9116   -8.1710   -3.2161 H   0  0  0  0  0  0  0  0  0  0  0  0
  1  2  1  0  0  0  0
  1 26  1  0  0  0  0
  1 27  1  0  0  0  0
  1 28  1  0  0  0  0
  2  7  2  0  0  0  0
  2  3  1  0  0  0  0
  3  4  2  0  0  0  0
  3 29  1  0  0  0  0
  4  5  1  0  0  0  0
  4 25  1  0  0  0  0
  5  6  2  0  0  0  0
  5 30  1  0  0  0  0
  6  7  1  0  0  0  0
  6  8  1  0  0  0  0
  7 31  1  0  0  0  0
  8  9  1  0  0  0  0
  9 14  2  0  0  0  0
  9 10  1  0  0  0  0
 10 11  2  0  0  0  0
 10 32  1  0  0  0  0
 11 12  1  0  0  0  0
 11 17  1  0  0  0  0
 12 13  2  0  0  0  0
 13 14  1  0  0  0  0
 13 15  1  0  0  0  0
 15 16  1  0  0  0  0
 16 33  1  0  0  0  0
 16 34  1  0  0  0  0
 16 35  1  0  0  0  0
 17 21  1  0  0  0  0
 17 18  1  0  0  0  0
 18 19  2  0  0  0  0
 18 24  1  0  0  0  0
 19 20  1  0  0  0  0
 19 22  1  0  0  0  0
 20 21  2  0  0  0  0
 20 36  1  0  0  0  0
 22 23  3  0  0  0  0
 24 37  1  0  0  0  0
 24 38  1  0  0  0  0
 25 39  1  0  0  0  0
 25 40  1  0  0  0  0
 25 41  1  0  0  0  0
M  END
$$$$
ZINC00657085
  -OEChem-08230709453D

 46 49  0     1  0  0  0  0  0999 V2000
    1.6805   -6.7502   -1.0740 C   0  0  0  0  0  0  0  0  0  0  0  0
    0.5189   -6.4213   -0.1340 C   0  0  0  0  0  0  0  0  0  0  0  0
    0.0315   -4.9965   -0.4048 C   0  0  1  0  0  0  0  0  0  0  0  0
   -0.2166   -4.8897   -1.4608 H   0  0  0  0  0  0  0  0  0  0  0  0
   -1.2089   -4.7079    0.4457 C   0  0  0  0  0  0  0  0  0  0  0  0
   -1.8482   -3.3905    0.0034 C   0  0  0  0  0  0  0  0  0  0  0  0
   -0.7797   -2.3042   -0.0018 C   0  0  0  0  0  0  0  0  0  0  0  0
    0.5335   -2.6202   -0.0162 C   0  0  0  0  0  0  0  0  0  0  0  0
    1.3740   -1.0621   -0.0162 S   0  0  0  0  0  0  0  0  0  0  0  0
    0.0021   -0.0041    0.0020 C   0  0  0  0  0  0  0  0  0  0  0  0
   -1.0736   -0.8813    0.0133 C   0  0  0  0  0  0  0  0  0  0  0  0
   -2.4548   -0.3904    0.0359 C   0  0  0  0  0  0  0  0  0  0  0  0
   -3.0437   -0.1818   -1.0087 O   0  0  0  0  0  0  0  0  0  0  0  0
   -3.0725   -0.1702    1.2133 N   0  0  0  0  0  0  0  0  0  0  0  0
   -0.0167    1.3812    0.0096 N   0  0  0  0  0  0  0  0  0  0  0  0
    1.1412    2.0709    0.0023 C   0  0  0  0  0  0  0  0  0  0  0  0
    2.2023    1.4774   -0.0110 O   0  0  0  0  0  0  0  0  0  0  0  0
    1.1212    3.5463    0.0104 C   0  0  0  0  0  0  0  0  0  0  0  0
   -0.0972    4.2302    0.0257 C   0  0  0  0  0  0  0  0  0  0  0  0
   -0.1139    5.6077    0.0337 C   0  0  0  0  0  0  0  0  0  0  0  0
    1.0774    6.3212    0.0262 C   0  0  0  0  0  0  0  0  0  0  0  0
    2.2976    5.6442    0.0104 C   0  0  0  0  0  0  0  0  0  0  0  0
    2.3207    4.2632    0.0086 C   0  0  0  0  0  0  0  0  0  0  0  0
    3.3061    6.5646    0.0060 O   0  0  0  0  0  0  0  0  0  0  0  0
    2.7004    7.7993    0.4321 C   0  0  0  0  0  0  0  0  0  0  0  0
    1.3244    7.6623    0.0314 O   0  0  0  0  0  0  0  0  0  0  0  0
    1.1321   -3.9930   -0.0302 C   0  0  0  0  0  0  0  0  0  0  0  0
    2.0277   -7.7652   -0.8811 H   0  0  0  0  0  0  0  0  0  0  0  0
    1.3447   -6.6713   -2.1080 H   0  0  0  0  0  0  0  0  0  0  0  0
    2.4966   -6.0482   -0.9025 H   0  0  0  0  0  0  0  0  0  0  0  0
    0.8547   -6.5001    0.8999 H   0  0  0  0  0  0  0  0  0  0  0  0
   -0.2972   -7.1232   -0.3055 H   0  0  0  0  0  0  0  0  0  0  0  0
   -0.9202   -4.6362    1.4944 H   0  0  0  0  0  0  0  0  0  0  0  0
   -1.9278   -5.5181    0.3240 H   0  0  0  0  0  0  0  0  0  0  0  0
   -2.6425   -3.1184    0.6984 H   0  0  0  0  0  0  0  0  0  0  0  0
   -2.2617   -3.5011   -0.9990 H   0  0  0  0  0  0  0  0  0  0  0  0
   -2.6032   -0.3366    2.0458 H   0  0  0  0  0  0  0  0  0  0  0  0
   -3.9864    0.1545    1.2283 H   0  0  0  0  0  0  0  0  0  0  0  0
   -0.8632    1.8548    0.0162 H   0  0  0  0  0  0  0  0  0  0  0  0
   -1.0259    3.6789    0.0316 H   0  0  0  0  0  0  0  0  0  0  0  0
   -1.0566    6.1344    0.0463 H   0  0  0  0  0  0  0  0  0  0  0  0
    3.2645    3.7381    0.0016 H   0  0  0  0  0  0  0  0  0  0  0  0
    2.7750    7.9090    1.5140 H   0  0  0  0  0  0  0  0  0  0  0  0
    3.1635    8.6472   -0.0726 H   0  0  0  0  0  0  0  0  0  0  0  0
    1.9343   -4.0363   -0.7669 H   0  0  0  0  0  0  0  0  0  0  0  0
    1.5266   -4.2317    0.9575 H   0  0  0  0  0  0  0  0  0  0  0  0
  1  2  1  0  0  0  0
  1 28  1  0  0  0  0
  1 29  1  0  0  0  0
  1 30  1  0  0  0  0
  2  3  1  0  0  0  0
  2 31  1  0  0  0  0
  2 32  1  0  0  0  0
  3  4  1  0  0  0  0
  3 27  1  0  0  0  0
  3  5  1  0  0  0  0
  5  6  1  0  0  0  0
  5 33  1  0  0  0  0
  5 34  1  0  0  0  0
  6  7  1  0  0  0  0
  6 35  1  0  0  0  0
  6 36  1  0  0  0  0
  7 11  1  0  0  0  0
  7  8  2  0  0  0  0
  8  9  1  0  0  0  0
  8 27  1  0  0  0  0
  9 10  1  0  0  0  0
 10 11  2  0  0  0  0
 10 15  1  0  0  0  0
 11 12  1  0  0  0  0
 12 13  2  0  0  0  0
 12 14  1  0  0  0  0
 14 37  1  0  0  0  0
 14 38  1  0  0  0  0
 15 16  1  0  0  0  0
 15 39  1  0  0  0  0
 16 17  2  0  0  0  0
 16 18  1  0  0  0  0
 18 23  2  0  0  0  0
 18 19  1  0  0  0  0
 19 20  2  0  0  0  0
 19 40  1  0  0  0  0
 20 21  1  0  0  0  0
 20 41  1  0  0  0  0
 21 26  1  0  0  0  0
 21 22  2  0  0  0  0
 22 23  1  0  0  0  0
 22 24  1  0  0  0  0
 23 42  1  0  0  0  0
 24 25  1  0  0  0  0
 25 26  1  0  0  0  0
 25 43  1  0  0  0  0
 25 44  1  0  0  0  0
 27 45  1  0  0  0  0
 27 46  1  0  0  0  0
M  END
$$$$
ZINC00662824
  -OEChem-08230709453D

 39 40  0     0  0  0  0  0  0999 V2000
   -3.2902    3.9947    3.7590 C   0  0  0  0  0  0  0  0  0  0  0  0
   -2.5702    5.0098    3.0566 O   0  0  0  0  0  0  0  0  0  0  0  0
   -1.3266    4.6897    2.6143 C   0  0  0  0  0  0  0  0  0  0  0  0
   -0.8534    3.3962    2.7495 C   0  0  0  0  0  0  0  0  0  0  0  0
    0.4188    3.0717    2.3022 C   0  0  0  0  0  0  0  0  0  0  0  0
    1.2203    4.0394    1.7063 C   0  0  0  0  0  0  0  0  0  0  0  0
    0.7578    5.3295    1.5611 C   0  0  0  0  0  0  0  0  0  0  0  0
   -0.5205    5.6673    2.0139 C   0  0  0  0  0  0  0  0  0  0  0  0
   -1.0192    7.0447    1.8604 C   0  0  0  0  0  0  0  0  0  0  0  0
   -0.4633    7.8447    1.0017 N   0  0  0  0  0  0  0  0  0  0  0  0
    0.2352    7.3204   -0.0938 N   0  0  0  0  0  0  0  0  0  0  0  0
    0.9319    8.1415   -0.9043 C   0  0  0  0  0  0  0  0  0  0  0  0
    0.8733    9.3458   -0.7458 O   0  0  0  0  0  0  0  0  0  0  0  0
    1.7671    7.5782   -1.9860 C   0  0  0  0  0  0  0  0  0  0  0  0
    1.7467    6.2070   -2.2439 C   0  0  0  0  0  0  0  0  0  0  0  0
    2.5258    5.6844   -3.2628 C   0  0  0  0  0  0  0  0  0  0  0  0
    3.3355    6.5203   -4.0181 C   0  0  0  0  0  0  0  0  0  0  0  0
    3.3635    7.8834   -3.7611 C   0  0  0  0  0  0  0  0  0  0  0  0
    2.5826    8.4154   -2.7485 C   0  0  0  0  0  0  0  0  0  0  0  0
    4.1581    8.6978   -4.5043 O   0  0  0  0  0  0  0  0  0  0  0  0
    2.5018    4.3499   -3.5191 O   0  0  0  0  0  0  0  0  0  0  0  0
    2.9500    3.5835    1.0927 Br  0  0  0  0  0  0  0  0  0  0  0  0
    0.8816    1.8020    2.4418 O   0  0  0  0  0  0  0  0  0  0  0  0
    0.0073    0.8574    3.0625 C   0  0  0  0  0  0  0  0  0  0  0  0
   -3.3963    3.1172    3.1212 H   0  0  0  0  0  0  0  0  0  0  0  0
   -2.7458    3.7229    4.6633 H   0  0  0  0  0  0  0  0  0  0  0  0
   -4.2776    4.3698    4.0282 H   0  0  0  0  0  0  0  0  0  0  0  0
   -1.4735    2.6399    3.2076 H   0  0  0  0  0  0  0  0  0  0  0  0
    1.3825    6.0787    1.0976 H   0  0  0  0  0  0  0  0  0  0  0  0
   -1.8473    7.3894    2.4620 H   0  0  0  0  0  0  0  0  0  0  0  0
    0.2175    6.3665   -0.2689 H   0  0  0  0  0  0  0  0  0  0  0  0
    1.1203    5.5549   -1.6532 H   0  0  0  0  0  0  0  0  0  0  0  0
    3.9454    6.1088   -4.8087 H   0  0  0  0  0  0  0  0  0  0  0  0
    2.6044    9.4767   -2.5495 H   0  0  0  0  0  0  0  0  0  0  0  0
    5.0489    8.8121   -4.1459 H   0  0  0  0  0  0  0  0  0  0  0  0
    3.1557    3.8417   -3.0198 H   0  0  0  0  0  0  0  0  0  0  0  0
    0.4983   -0.1145    3.1114 H   0  0  0  0  0  0  0  0  0  0  0  0
   -0.9092    0.7725    2.4787 H   0  0  0  0  0  0  0  0  0  0  0  0
   -0.2341    1.1937    4.0709 H   0  0  0  0  0  0  0  0  0  0  0  0
  1  2  1  0  0  0  0
  1 25  1  0  0  0  0
  1 26  1  0  0  0  0
  1 27  1  0  0  0  0
  2  3  1  0  0  0  0
  3  8  2  0  0  0  0
  3  4  1  0  0  0  0
  4  5  2  0  0  0  0
  4 28  1  0  0  0  0
  5  6  1  0  0  0  0
  5 23  1  0  0  0  0
  6  7  2  0  0  0  0
  6 22  1  0  0  0  0
  7  8  1  0  0  0  0
  7 29  1  0  0  0  0
  8  9  1  0  0  0  0
  9 10  2  3  0  0  0
  9 30  1  0  0  0  0
 10 11  1  0  0  0  0
 11 12  1  0  0  0  0
 11 31  1  0  0  0  0
 12 13  2  0  0  0  0
 12 14  1  0  0  0  0
 14 19  2  0  0  0  0
 14 15  1  0  0  0  0
 15 16  2  0  0  0  0
 15 32  1  0  0  0  0
 16 17  1  0  0  0  0
 16 21  1  0  0  0  0
 17 18  2  0  0  0  0
 17 33  1  0  0  0  0
 18 19  1  0  0  0  0
 18 20  1  0  0  0  0
 19 34  1  0  0  0  0
 20 35  1  0  0  0  0
 21 36  1  0  0  0  0
 23 24  1  0  0  0  0
 24 37  1  0  0  0  0
 24 38  1  0  0  0  0
 24 39  1  0  0  0  0
M  END
$$$$
ZINC00663785
  -OEChem-08230709453D

 49 52  0     1  0  0  0  0  0999 V2000
    1.6675   -6.9741    0.3183 C   0  0  0  0  0  0  0  0  0  0  0  0
    1.3871   -5.5153    0.5717 C   0  0  0  0  0  0  0  0  0  0  0  0
    1.3194   -5.0410    1.8691 C   0  0  0  0  0  0  0  0  0  0  0  0
    1.0631   -3.7049    2.1051 C   0  0  0  0  0  0  0  0  0  0  0  0
    0.8727   -2.8364    1.0369 C   0  0  0  0  0  0  0  0  0  0  0  0
    0.9353   -3.3178   -0.2653 C   0  0  0  0  0  0  0  0  0  0  0  0
    1.1986   -4.6539   -0.4937 C   0  0  0  0  0  0  0  0  0  0  0  0
    0.5454   -1.1306    1.3332 S   0  0  0  0  0  0  0  0  0  0  0  0
    0.3745   -0.4217   -0.3278 C   0  0  0  0  0  0  0  0  0  0  0  0
    0.0886    1.0538   -0.2172 C   0  0  0  0  0  0  0  0  0  0  0  0
    0.9921    2.0429   -0.2875 C   0  0  0  0  0  0  0  0  0  0  0  0
    0.3110    3.2710   -0.1380 C   0  0  0  0  0  0  0  0  0  0  0  0
   -0.9551    3.0128    0.0171 N   0  0  0  0  0  0  0  0  0  0  0  0
   -1.1266    1.6205   -0.0348 N   0  0  0  0  0  0  0  0  0  0  0  0
   -1.9954    1.1325    0.0485 H   0  0  0  0  0  0  0  0  0  0  0  0
    0.9621    4.4650   -0.1670 O   0  0  0  0  0  0  0  0  0  0  0  0
    2.2346    4.4673   -0.6113 C   0  0  0  0  0  0  0  0  0  0  0  0
    2.9873    3.3605   -0.7824 C   0  0  0  0  0  0  0  0  0  0  0  0
    2.4846    1.9701   -0.4864 C   0  0  1  0  0  0  0  0  0  0  0  0
    2.7124    1.3105   -1.3238 H   0  0  0  0  0  0  0  0  0  0  0  0
    3.1497    1.4392    0.7850 C   0  0  1  0  0  0  0  0  0  0  0  0
    2.6788    0.4995    1.0737 H   0  0  0  0  0  0  0  0  0  0  0  0
    4.6365    1.1966    0.5163 C   0  0  0  0  0  0  0  0  0  0  0  0
    5.3324    0.9180    1.8547 C   0  0  0  0  0  0  0  0  0  0  0  0
    5.3062    2.2002    2.6896 C   0  0  0  0  0  0  0  0  0  0  0  0
    3.9176    2.7682    2.7211 C   0  0  0  0  0  0  0  0  0  0  0  0
    2.9808    2.4403    1.8901 C   0  0  0  0  0  0  0  0  0  0  0  0
    4.3260    3.5137   -1.2671 C   0  0  0  0  0  0  0  0  0  0  0  0
    5.3880    3.6352   -1.6517 N   0  0  0  0  0  0  0  0  0  0  0  0
    2.8045    5.6797   -0.9100 N   0  0  0  0  0  0  0  0  0  0  0  0
    0.7268   -7.5231    0.2767 H   0  0  0  0  0  0  0  0  0  0  0  0
    2.1943   -7.0836   -0.6296 H   0  0  0  0  0  0  0  0  0  0  0  0
    2.2844   -7.3709    1.1247 H   0  0  0  0  0  0  0  0  0  0  0  0
    1.4675   -5.7165    2.6987 H   0  0  0  0  0  0  0  0  0  0  0  0
    1.0111   -3.3351    3.1185 H   0  0  0  0  0  0  0  0  0  0  0  0
    0.7834   -2.6466   -1.0977 H   0  0  0  0  0  0  0  0  0  0  0  0
    1.2525   -5.0277   -1.5056 H   0  0  0  0  0  0  0  0  0  0  0  0
   -0.4468   -0.9128   -0.8497 H   0  0  0  0  0  0  0  0  0  0  0  0
    1.2999   -0.5718   -0.8839 H   0  0  0  0  0  0  0  0  0  0  0  0
    4.7541    0.3372   -0.1438 H   0  0  0  0  0  0  0  0  0  0  0  0
    5.0742    2.0809    0.0529 H   0  0  0  0  0  0  0  0  0  0  0  0
    6.3650    0.6185    1.6754 H   0  0  0  0  0  0  0  0  0  0  0  0
    4.8076    0.1240    2.3861 H   0  0  0  0  0  0  0  0  0  0  0  0
    5.9857    2.9309    2.2509 H   0  0  0  0  0  0  0  0  0  0  0  0
    5.6279    1.9757    3.7066 H   0  0  0  0  0  0  0  0  0  0  0  0
    3.6852    3.4957    3.4848 H   0  0  0  0  0  0  0  0  0  0  0  0
    2.0179    2.9172    1.9985 H   0  0  0  0  0  0  0  0  0  0  0  0
    3.7186    5.7197   -1.2320 H   0  0  0  0  0  0  0  0  0  0  0  0
    2.2931    6.4965   -0.7992 H   0  0  0  0  0  0  0  0  0  0  0  0
  1  2  1  0  0  0  0
  1 31  1  0  0  0  0
  1 32  1  0  0  0  0
  1 33  1  0  0  0  0
  2  7  2  0  0  0  0
  2  3  1  0  0  0  0
  3  4  2  0  0  0  0
  3 34  1  0  0  0  0
  4  5  1  0  0  0  0
  4 35  1  0  0  0  0
  5  6  2  0  0  0  0
  5  8  1  0  0  0  0
  6  7  1  0  0  0  0
  6 36  1  0  0  0  0
  7 37  1  0  0  0  0
  8  9  1  0  0  0  0
  9 10  1  0  0  0  0
  9 38  1  0  0  0  0
  9 39  1  0  0  0  0
 10 14  1  0  0  0  0
 10 11  2  0  0  0  0
 11 19  1  0  0  0  0
 11 12  1  0  0  0  0
 12 13  2  0  0  0  0
 12 16  1  0  0  0  0
 13 14  1  0  0  0  0
 14 15  1  0  0  0  0
 16 17  1  0  0  0  0
 17 18  2  0  0  0  0
 17 30  1  0  0  0  0
 18 19  1  0  0  0  0
 18 28  1  0  0  0  0
 19 20  1  0  0  0  0
 19 21  1  0  0  0  0
 21 22  1  0  0  0  0
 21 27  1  0  0  0  0
 21 23  1  0  0  0  0
 23 24  1  0  0  0  0
 23 40  1  0  0  0  0
 23 41  1  0  0  0  0
 24 25  1  0  0  0  0
 24 42  1  0  0  0  0
 24 43  1  0  0  0  0
 25 26  1  0  0  0  0
 25 44  1  0  0  0  0
 25 45  1  0  0  0  0
 26 27  2  0  0  0  0
 26 46  1  0  0  0  0
 27 47  1  0  0  0  0
 28 29  3  0  0  0  0
 30 48  1  0  0  0  0
 30 49  1  0  0  0  0
M  END
$$$$
ZINC00668601
  -OEChem-08230709453D

 47 49  0     0  0  0  0  0  0999 V2000
   -6.0709   -2.9402    5.4725 C   0  0  0  0  0  0  0  0  0  0  0  0
   -5.3451   -1.7491    5.1617 O   0  0  0  0  0  0  0  0  0  0  0  0
   -5.5850   -0.6619    5.9366 C   0  0  0  0  0  0  0  0  0  0  0  0
   -6.4996   -0.7358    6.9767 C   0  0  0  0  0  0  0  0  0  0  0  0
   -6.7424    0.3715    7.7649 C   0  0  0  0  0  0  0  0  0  0  0  0
   -6.0767    1.5626    7.5246 C   0  0  0  0  0  0  0  0  0  0  0  0
   -5.1610    1.6526    6.4990 C   0  0  0  0  0  0  0  0  0  0  0  0
   -4.9094    0.5413    5.6902 C   0  0  0  0  0  0  0  0  0  0  0  0
   -3.9343    0.6320    4.5874 C   0  0  0  0  0  0  0  0  0  0  0  0
   -3.7144   -0.3388    3.8889 O   0  0  0  0  0  0  0  0  0  0  0  0
   -3.2869    1.7908    4.3539 N   0  0  0  0  0  0  0  0  0  0  0  0
   -2.3709    1.8760    3.3180 C   0  0  0  0  0  0  0  0  0  0  0  0
   -1.6202    2.9640    2.9217 C   0  0  0  0  0  0  0  0  0  0  0  0
   -0.6906    2.7961    1.7979 C   0  0  0  0  0  0  0  0  0  0  0  0
   -0.7424    1.5836    1.2240 C   0  0  0  0  0  0  0  0  0  0  0  0
   -1.8919    0.6461    2.1988 S   0  0  0  0  0  0  0  0  0  0  0  0
   -0.0127    1.0858    0.0080 C   0  0  0  0  0  0  0  0  0  0  0  0
   -0.7836    1.6088   -1.2173 C   0  0  0  0  0  0  0  0  0  0  0  0
   -0.9344    3.1291   -1.0767 C   0  0  0  0  0  0  0  0  0  0  0  0
    0.4770    3.6749   -1.0769 C   0  0  0  0  0  0  0  0  0  0  0  0
    1.1641    3.6174    0.2767 C   0  0  0  0  0  0  0  0  0  0  0  0
    0.2251    3.9630    1.4257 C   0  0  0  0  0  0  0  0  0  0  0  0
   -1.7427    4.2525    3.6102 C   0  0  0  0  0  0  0  0  0  0  0  0
   -2.5538    5.0739    3.2243 O   0  0  0  0  0  0  0  0  0  0  0  0
   -0.9573    4.5275    4.6703 N   0  0  0  0  0  0  0  0  0  0  0  0
   -5.8407   -3.2505    6.4917 H   0  0  0  0  0  0  0  0  0  0  0  0
   -7.1401   -2.7477    5.3840 H   0  0  0  0  0  0  0  0  0  0  0  0
   -5.7855   -3.7310    4.7787 H   0  0  0  0  0  0  0  0  0  0  0  0
   -7.0222   -1.6608    7.1706 H   0  0  0  0  0  0  0  0  0  0  0  0
   -7.4552    0.3087    8.5738 H   0  0  0  0  0  0  0  0  0  0  0  0
   -6.2732    2.4232    8.1468 H   0  0  0  0  0  0  0  0  0  0  0  0
   -4.6411    2.5818    6.3182 H   0  0  0  0  0  0  0  0  0  0  0  0
   -3.4623    2.5651    4.9112 H   0  0  0  0  0  0  0  0  0  0  0  0
    0.0021   -0.0041    0.0020 H   0  0  0  0  0  0  0  0  0  0  0  0
    1.0064    1.4724    0.0004 H   0  0  0  0  0  0  0  0  0  0  0  0
   -0.2294    1.3769   -2.1268 H   0  0  0  0  0  0  0  0  0  0  0  0
   -1.7687    1.1439   -1.2578 H   0  0  0  0  0  0  0  0  0  0  0  0
   -1.4949    3.5323   -1.9202 H   0  0  0  0  0  0  0  0  0  0  0  0
   -1.4334    3.3737   -0.1390 H   0  0  0  0  0  0  0  0  0  0  0  0
    1.0698    3.1038   -1.7914 H   0  0  0  0  0  0  0  0  0  0  0  0
    0.4475    4.7133   -1.4071 H   0  0  0  0  0  0  0  0  0  0  0  0
    1.5543    2.6114    0.4312 H   0  0  0  0  0  0  0  0  0  0  0  0
    1.9972    4.3203    0.2791 H   0  0  0  0  0  0  0  0  0  0  0  0
    0.8193    4.2377    2.2972 H   0  0  0  0  0  0  0  0  0  0  0  0
   -0.3902    4.8145    1.1353 H   0  0  0  0  0  0  0  0  0  0  0  0
   -0.3109    3.8729    4.9778 H   0  0  0  0  0  0  0  0  0  0  0  0
   -1.0384    5.3801    5.1258 H   0  0  0  0  0  0  0  0  0  0  0  0
  1  2  1  0  0  0  0
  1 26  1  0  0  0  0
  1 27  1  0  0  0  0
  1 28  1  0  0  0  0
  2  3  1  0  0  0  0
  3  8  2  0  0  0  0
  3  4  1  0  0  0  0
  4  5  2  0  0  0  0
  4 29  1  0  0  0  0
  5  6  1  0  0  0  0
  5 30  1  0  0  0  0
  6  7  2  0  0  0  0
  6 31  1  0  0  0  0
  7  8  1  0  0  0  0
  7 32  1  0  0  0  0
  8  9  1  0  0  0  0
  9 10  2  0  0  0  0
  9 11  1  0  0  0  0
 11 12  1  0  0  0  0
 11 33  1  0  0  0  0
 12 16  1  0  0  0  0
 12 13  2  0  0  0  0
 13 14  1  0  0  0  0
 13 23  1  0  0  0  0
 14 22  1  0  0  0  0
 14 15  2  0  0  0  0
 15 16  1  0  0  0  0
 15 17  1  0  0  0  0
 17 18  1  0  0  0  0
 17 34  1  0  0  0  0
 17 35  1  0  0  0  0
 18 19  1  0  0  0  0
 18 36  1  0  0  0  0
 18 37  1  0  0  0  0
 19 20  1  0  0  0  0
 19 38  1  0  0  0  0
 19 39  1  0  0  0  0
 20 21  1  0  0  0  0
 20 40  1  0  0  0  0
 20 41  1  0  0  0  0
 21 22  1  0  0  0  0
 21 42  1  0  0  0  0
 21 43  1  0  0  0  0
 22 44  1  0  0  0  0
 22 45  1  0  0  0  0
 23 24  2  0  0  0  0
 23 25  1  0  0  0  0
 25 46  1  0  0  0  0
 25 47  1  0  0  0  0
M  END
$$$$
ZINC00668724
  -OEChem-08230709453D

 47 50  0     0  0  0  0  0  0999 V2000
    9.6075   -4.9502    3.3396 C   0  0  0  0  0  0  0  0  0  0  0  0
   10.5786   -5.7585    3.8888 C   0  0  0  0  0  0  0  0  0  0  0  0
   11.8959   -5.6583    3.4616 C   0  0  0  0  0  0  0  0  0  0  0  0
   12.2428   -4.7367    2.4716 C   0  0  0  0  0  0  0  0  0  0  0  0
   11.2747   -3.9272    1.9122 C   0  0  0  0  0  0  0  0  0  0  0  0
    9.9476   -4.0244    2.3471 C   0  0  0  0  0  0  0  0  0  0  0  0
    8.9138   -3.1610    1.7587 C   0  0  0  0  0  0  0  0  0  0  0  0
    7.6334   -3.2605    2.1759 C   0  0  0  0  0  0  0  0  0  0  0  0
    6.6052   -2.4018    1.5908 C   0  0  0  0  0  0  0  0  0  0  0  0
    6.9033   -1.5970    0.7275 O   0  0  0  0  0  0  0  0  0  0  0  0
    5.3272   -2.5011    2.0072 N   0  0  0  0  0  0  0  0  0  0  0  0
    4.3532   -1.6876    1.4529 C   0  0  0  0  0  0  0  0  0  0  0  0
    2.9988   -1.6419    1.7463 C   0  0  0  0  0  0  0  0  0  0  0  0
    2.1793   -0.6844    1.0159 C   0  0  0  0  0  0  0  0  0  0  0  0
    2.8465    0.0613    0.1095 C   0  0  0  0  0  0  0  0  0  0  0  0
    4.5302   -0.4796    0.2245 S   0  0  0  0  0  0  0  0  0  0  0  0
    2.2879    1.1046   -0.8070 C   0  0  0  0  0  0  0  0  0  0  0  0
    1.4064    2.0675   -0.0003 C   0  0  0  0  0  0  0  0  0  0  0  0
   -0.0186    1.5231    0.0104 C   0  0  0  0  0  0  0  0  0  0  0  0
    0.0021   -0.0041    0.0020 C   0  0  0  0  0  0  0  0  0  0  0  0
    0.6827   -0.5346    1.2590 C   0  0  0  0  0  0  0  0  0  0  0  0
    2.4117   -2.5272    2.7564 C   0  0  0  0  0  0  0  0  0  0  0  0
    1.9830   -3.6195    2.4331 O   0  0  0  0  0  0  0  0  0  0  0  0
    2.3466   -2.1316    4.0432 N   0  0  0  0  0  0  0  0  0  0  0  0
   13.5838   -4.8367    2.2346 O   0  0  0  0  0  0  0  0  0  0  0  0
   13.9782   -6.1046    2.7911 C   0  0  0  0  0  0  0  0  0  0  0  0
   13.0197   -6.3316    3.8411 O   0  0  0  0  0  0  0  0  0  0  0  0
    8.5842   -5.0309    3.6753 H   0  0  0  0  0  0  0  0  0  0  0  0
   10.3142   -6.4726    4.6547 H   0  0  0  0  0  0  0  0  0  0  0  0
   11.5414   -3.2170    1.1435 H   0  0  0  0  0  0  0  0  0  0  0  0
    9.1782   -2.4470    0.9928 H   0  0  0  0  0  0  0  0  0  0  0  0
    7.3689   -3.9744    2.9419 H   0  0  0  0  0  0  0  0  0  0  0  0
    5.0897   -3.1423    2.6952 H   0  0  0  0  0  0  0  0  0  0  0  0
    3.1051    1.6591   -1.2683 H   0  0  0  0  0  0  0  0  0  0  0  0
    1.6893    0.6256   -1.5818 H   0  0  0  0  0  0  0  0  0  0  0  0
    1.4186    3.0529   -0.4660 H   0  0  0  0  0  0  0  0  0  0  0  0
    1.7796    2.1372    1.0215 H   0  0  0  0  0  0  0  0  0  0  0  0
   -0.5493    1.8822   -0.8714 H   0  0  0  0  0  0  0  0  0  0  0  0
   -0.5323    1.8726    0.9060 H   0  0  0  0  0  0  0  0  0  0  0  0
   -1.0209   -0.3781   -0.0391 H   0  0  0  0  0  0  0  0  0  0  0  0
    0.5455   -0.3523   -0.8763 H   0  0  0  0  0  0  0  0  0  0  0  0
    0.5175    0.1616    2.0813 H   0  0  0  0  0  0  0  0  0  0  0  0
    0.2603   -1.5058    1.5168 H   0  0  0  0  0  0  0  0  0  0  0  0
    2.6882   -1.2611    4.3008 H   0  0  0  0  0  0  0  0  0  0  0  0
    1.9581   -2.7174    4.7116 H   0  0  0  0  0  0  0  0  0  0  0  0
   13.9141   -6.8899    2.0379 H   0  0  0  0  0  0  0  0  0  0  0  0
   14.9870   -6.0462    3.1997 H   0  0  0  0  0  0  0  0  0  0  0  0
  1  6  2  0  0  0  0
  1  2  1  0  0  0  0
  1 28  1  0  0  0  0
  2  3  2  0  0  0  0
  2 29  1  0  0  0  0
  3 27  1  0  0  0  0
  3  4  1  0  0  0  0
  4  5  2  0  0  0  0
  4 25  1  0  0  0  0
  5  6  1  0  0  0  0
  5 30  1  0  0  0  0
  6  7  1  0  0  0  0
  7  8  2  0  0  0  0
  7 31  1  0  0  0  0
  8  9  1  0  0  0  0
  8 32  1  0  0  0  0
  9 10  2  0  0  0  0
  9 11  1  0  0  0  0
 11 12  1  0  0  0  0
 11 33  1  0  0  0  0
 12 16  1  0  0  0  0
 12 13  2  0  0  0  0
 13 14  1  0  0  0  0
 13 22  1  0  0  0  0
 14 21  1  0  0  0  0
 14 15  2  0  0  0  0
 15 16  1  0  0  0  0
 15 17  1  0  0  0  0
 17 18  1  0  0  0  0
 17 34  1  0  0  0  0
 17 35  1  0  0  0  0
 18 19  1  0  0  0  0
 18 36  1  0  0  0  0
 18 37  1  0  0  0  0
 19 20  1  0  0  0  0
 19 38  1  0  0  0  0
 19 39  1  0  0  0  0
 20 21  1  0  0  0  0
 20 40  1  0  0  0  0
 20 41  1  0  0  0  0
 21 42  1  0  0  0  0
 21 43  1  0  0  0  0
 22 23  2  0  0  0  0
 22 24  1  0  0  0  0
 24 44  1  0  0  0  0
 24 45  1  0  0  0  0
 25 26  1  0  0  0  0
 26 27  1  0  0  0  0
 26 46  1  0  0  0  0
 26 47  1  0  0  0  0
M  END
$$$$
ZINC00668872
  -OEChem-08230709453D

 45 46  0     0  0  0  0  0  0999 V2000
   -5.0535   -0.5188    5.7660 C   0  0  0  0  0  0  0  0  0  0  0  0
   -3.7232    0.1452    6.0114 C   0  0  0  0  0  0  0  0  0  0  0  0
   -3.3986    0.5974    7.2738 C   0  0  0  0  0  0  0  0  0  0  0  0
   -2.1776    1.2069    7.5010 C   0  0  0  0  0  0  0  0  0  0  0  0
   -1.2740    1.3673    6.4652 C   0  0  0  0  0  0  0  0  0  0  0  0
   -1.5834    0.9147    5.1996 C   0  0  0  0  0  0  0  0  0  0  0  0
   -2.8164    0.3039    4.9621 C   0  0  0  0  0  0  0  0  0  0  0  0
   -3.1573   -0.1780    3.6073 C   0  0  0  0  0  0  0  0  0  0  0  0
   -4.1799   -0.8096    3.4263 O   0  0  0  0  0  0  0  0  0  0  0  0
   -2.3343    0.0829    2.5724 N   0  0  0  0  0  0  0  0  0  0  0  0
   -2.6527   -0.3670    1.3071 C   0  0  0  0  0  0  0  0  0  0  0  0
   -1.9366   -0.2007    0.1170 C   0  0  0  0  0  0  0  0  0  0  0  0
   -2.4649   -0.7561   -1.0371 C   0  0  0  0  0  0  0  0  0  0  0  0
   -3.6553   -1.4256   -0.9334 C   0  0  0  0  0  0  0  0  0  0  0  0
   -4.0394   -1.2755    0.8011 S   0  0  0  0  0  0  0  0  0  0  0  0
   -4.4202   -2.0967   -1.9834 C   0  0  0  0  0  0  0  0  0  0  0  0
   -4.0067   -2.1031   -3.1275 O   0  0  0  0  0  0  0  0  0  0  0  0
   -5.5847   -2.7087   -1.6834 O   0  0  0  0  0  0  0  0  0  0  0  0
   -6.2793   -3.3443   -2.7584 C   0  0  0  0  0  0  0  0  0  0  0  0
   -5.8146   -4.7971   -2.8777 C   0  0  0  0  0  0  0  0  0  0  0  0
   -7.7841   -3.3110   -2.4838 C   0  0  0  0  0  0  0  0  0  0  0  0
   -1.7550   -0.6278   -2.3602 C   0  0  0  0  0  0  0  0  0  0  0  0
   -0.6642    0.5330    0.0928 C   0  0  0  0  0  0  0  0  0  0  0  0
   -0.6574    1.7326   -0.1102 O   0  0  0  0  0  0  0  0  0  0  0  0
    0.4957   -0.1228    0.2955 N   0  0  0  0  0  0  0  0  0  0  0  0
   -4.9334   -1.6012    5.8126 H   0  0  0  0  0  0  0  0  0  0  0  0
   -5.7652   -0.1991    6.5272 H   0  0  0  0  0  0  0  0  0  0  0  0
   -5.4243   -0.2365    4.7806 H   0  0  0  0  0  0  0  0  0  0  0  0
   -4.0991    0.4750    8.0866 H   0  0  0  0  0  0  0  0  0  0  0  0
   -1.9283    1.5587    8.4911 H   0  0  0  0  0  0  0  0  0  0  0  0
   -0.3223    1.8436    6.6493 H   0  0  0  0  0  0  0  0  0  0  0  0
   -0.8754    1.0361    4.3931 H   0  0  0  0  0  0  0  0  0  0  0  0
   -1.5182    0.5870    2.7168 H   0  0  0  0  0  0  0  0  0  0  0  0
   -6.0681   -2.8177   -3.6892 H   0  0  0  0  0  0  0  0  0  0  0  0
   -6.3445   -5.2819   -3.6977 H   0  0  0  0  0  0  0  0  0  0  0  0
   -4.7426   -4.8208   -3.0733 H   0  0  0  0  0  0  0  0  0  0  0  0
   -6.0258   -5.3237   -1.9469 H   0  0  0  0  0  0  0  0  0  0  0  0
   -8.1151   -2.2759   -2.3989 H   0  0  0  0  0  0  0  0  0  0  0  0
   -8.3139   -3.7958   -3.3038 H   0  0  0  0  0  0  0  0  0  0  0  0
   -7.9953   -3.8375   -1.5531 H   0  0  0  0  0  0  0  0  0  0  0  0
   -1.0759   -1.4702   -2.4913 H   0  0  0  0  0  0  0  0  0  0  0  0
   -2.4880   -0.6230   -3.1669 H   0  0  0  0  0  0  0  0  0  0  0  0
   -1.1875    0.3027   -2.3793 H   0  0  0  0  0  0  0  0  0  0  0  0
    0.4903   -1.0792    0.4574 H   0  0  0  0  0  0  0  0  0  0  0  0
    1.3362    0.3610    0.2756 H   0  0  0  0  0  0  0  0  0  0  0  0
  1  2  1  0  0  0  0
  1 26  1  0  0  0  0
  1 27  1  0  0  0  0
  1 28  1  0  0  0  0
  2  7  2  0  0  0  0
  2  3  1  0  0  0  0
  3  4  2  0  0  0  0
  3 29  1  0  0  0  0
  4  5  1  0  0  0  0
  4 30  1  0  0  0  0
  5  6  2  0  0  0  0
  5 31  1  0  0  0  0
  6  7  1  0  0  0  0
  6 32  1  0  0  0  0
  7  8  1  0  0  0  0
  8  9  2  0  0  0  0
  8 10  1  0  0  0  0
 10 11  1  0  0  0  0
 10 33  1  0  0  0  0
 11 15  1  0  0  0  0
 11 12  2  0  0  0  0
 12 13  1  0  0  0  0
 12 23  1  0  0  0  0
 13 14  2  0  0  0  0
 13 22  1  0  0  0  0
 14 15  1  0  0  0  0
 14 16  1  0  0  0  0
 16 17  2  0  0  0  0
 16 18  1  0  0  0  0
 18 19  1  0  0  0  0
 19 20  1  0  0  0  0
 19 21  1  0  0  0  0
 19 34  1  0  0  0  0
 20 35  1  0  0  0  0
 20 36  1  0  0  0  0
 20 37  1  0  0  0  0
 21 38  1  0  0  0  0
 21 39  1  0  0  0  0
 21 40  1  0  0  0  0
 22 41  1  0  0  0  0
 22 42  1  0  0  0  0
 22 43  1  0  0  0  0
 23 24  2  0  0  0  0
 23 25  1  0  0  0  0
 25 44  1  0  0  0  0
 25 45  1  0  0  0  0
M  END
$$$$
ZINC00669214
  -OEChem-08230709453D

 48 50  0     1  0  0  0  0  0999 V2000
    1.4167    2.0553   -0.0004 C   0  0  0  0  0  0  0  0  0  0  0  0
   -0.0187    1.5258    0.0104 C   0  0  0  0  0  0  0  0  0  0  0  0
   -0.7587    2.0326   -1.2291 C   0  0  0  0  0  0  0  0  0  0  0  0
   -0.7348    2.0192    1.2692 C   0  0  0  0  0  0  0  0  0  0  0  0
    0.0021   -0.0041    0.0020 C   0  0  1  0  0  0  0  0  0  0  0  0
    0.5076   -0.3577   -0.8966 H   0  0  0  0  0  0  0  0  0  0  0  0
    0.7423   -0.5142    1.2418 C   0  0  0  0  0  0  0  0  0  0  0  0
    0.9843   -2.0198    1.1203 C   0  0  0  0  0  0  0  0  0  0  0  0
   -0.3403   -2.7058    0.8096 C   0  0  0  0  0  0  0  0  0  0  0  0
   -1.3898   -2.0058    0.3269 C   0  0  0  0  0  0  0  0  0  0  0  0
   -2.6784   -3.2030    0.1258 S   0  0  0  0  0  0  0  0  0  0  0  0
   -1.8367   -4.6147    0.6740 C   0  0  0  0  0  0  0  0  0  0  0  0
   -0.5789   -4.1264    0.9998 C   0  0  0  0  0  0  0  0  0  0  0  0
    0.4699   -5.0111    1.5161 C   0  0  0  0  0  0  0  0  0  0  0  0
    0.5782   -5.1916    2.7148 O   0  0  0  0  0  0  0  0  0  0  0  0
    1.3142   -5.6246    0.6632 N   0  0  0  0  0  0  0  0  0  0  0  0
   -2.3051   -5.9155    0.7645 N   0  0  0  0  0  0  0  0  0  0  0  0
   -3.5699   -6.2032    0.3984 C   0  0  0  0  0  0  0  0  0  0  0  0
   -4.2997   -5.3215   -0.0112 O   0  0  0  0  0  0  0  0  0  0  0  0
   -4.0696   -7.5907    0.4949 C   0  0  0  0  0  0  0  0  0  0  0  0
   -5.3817   -7.9029    0.1177 C   0  0  0  0  0  0  0  0  0  0  0  0
   -5.8003   -9.2169    0.2273 C   0  0  0  0  0  0  0  0  0  0  0  0
   -4.9181  -10.1715    0.7014 C   0  0  0  0  0  0  0  0  0  0  0  0
   -3.6874   -9.8482    1.0499 N   0  0  0  0  0  0  0  0  0  0  0  0
   -3.2402   -8.6130    0.9580 C   0  0  0  0  0  0  0  0  0  0  0  0
   -1.4373   -0.5385    0.0304 C   0  0  0  0  0  0  0  0  0  0  0  0
    1.9269    1.7038   -0.8972 H   0  0  0  0  0  0  0  0  0  0  0  0
    1.4019    3.1452    0.0056 H   0  0  0  0  0  0  0  0  0  0  0  0
    1.9439    1.6943    0.8826 H   0  0  0  0  0  0  0  0  0  0  0  0
   -1.7813    1.6553   -1.2214 H   0  0  0  0  0  0  0  0  0  0  0  0
   -0.7734    3.1225   -1.2231 H   0  0  0  0  0  0  0  0  0  0  0  0
   -0.2485    1.6811   -2.1259 H   0  0  0  0  0  0  0  0  0  0  0  0
   -0.2076    1.6581    2.1523 H   0  0  0  0  0  0  0  0  0  0  0  0
   -0.7496    3.1091    1.2752 H   0  0  0  0  0  0  0  0  0  0  0  0
   -1.7574    1.6419    1.2770 H   0  0  0  0  0  0  0  0  0  0  0  0
    1.6991    0.0004    1.3296 H   0  0  0  0  0  0  0  0  0  0  0  0
    0.1422   -0.3144    2.1296 H   0  0  0  0  0  0  0  0  0  0  0  0
    1.6932   -2.2121    0.3149 H   0  0  0  0  0  0  0  0  0  0  0  0
    1.3851   -2.4024    2.0589 H   0  0  0  0  0  0  0  0  0  0  0  0
    1.2279   -5.4807   -0.2921 H   0  0  0  0  0  0  0  0  0  0  0  0
    2.0082   -6.2099    1.0048 H   0  0  0  0  0  0  0  0  0  0  0  0
   -1.7228   -6.6190    1.0913 H   0  0  0  0  0  0  0  0  0  0  0  0
   -6.0494   -7.1376   -0.2496 H   0  0  0  0  0  0  0  0  0  0  0  0
   -6.8052   -9.4948   -0.0546 H   0  0  0  0  0  0  0  0  0  0  0  0
   -5.2423  -11.1980    0.7880 H   0  0  0  0  0  0  0  0  0  0  0  0
   -2.2245   -8.3882    1.2483 H   0  0  0  0  0  0  0  0  0  0  0  0
   -2.0043   -0.0252    0.8070 H   0  0  0  0  0  0  0  0  0  0  0  0
   -1.9090   -0.3747   -0.9384 H   0  0  0  0  0  0  0  0  0  0  0  0
  1  2  1  0  0  0  0
  1 27  1  0  0  0  0
  1 28  1  0  0  0  0
  1 29  1  0  0  0  0
  2  3  1  0  0  0  0
  2  4  1  0  0  0  0
  2  5  1  0  0  0  0
  3 30  1  0  0  0  0
  3 31  1  0  0  0  0
  3 32  1  0  0  0  0
  4 33  1  0  0  0  0
  4 34  1  0  0  0  0
  4 35  1  0  0  0  0
  5  6  1  0  0  0  0
  5 26  1  0  0  0  0
  5  7  1  0  0  0  0
  7  8  1  0  0  0  0
  7 36  1  0  0  0  0
  7 37  1  0  0  0  0
  8  9  1  0  0  0  0
  8 38  1  0  0  0  0
  8 39  1  0  0  0  0
  9 13  1  0  0  0  0
  9 10  2  0  0  0  0
 10 11  1  0  0  0  0
 10 26  1  0  0  0  0
 11 12  1  0  0  0  0
 12 13  2  0  0  0  0
 12 17  1  0  0  0  0
 13 14  1  0  0  0  0
 14 15  2  0  0  0  0
 14 16  1  0  0  0  0
 16 40  1  0  0  0  0
 16 41  1  0  0  0  0
 17 18  1  0  0  0  0
 17 42  1  0  0  0  0
 18 19  2  0  0  0  0
 18 20  1  0  0  0  0
 20 25  2  0  0  0  0
 20 21  1  0  0  0  0
 21 22  2  0  0  0  0
 21 43  1  0  0  0  0
 22 23  1  0  0  0  0
 22 44  1  0  0  0  0
 23 24  2  0  0  0  0
 23 45  1  0  0  0  0
 24 25  1  0  0  0  0
 25 46  1  0  0  0  0
 26 47  1  0  0  0  0
 26 48  1  0  0  0  0
M  END
$$$$
ZINC00669215
  -OEChem-08230709453D

 48 50  0     1  0  0  0  0  0999 V2000
    0.0021   -0.0041    0.0020 C   0  0  0  0  0  0  0  0  0  0  0  0
   -0.0187    1.5258    0.0104 C   0  0  0  0  0  0  0  0  0  0  0  0
    1.4167    2.0553   -0.0004 C   0  0  0  0  0  0  0  0  0  0  0  0
   -0.7587    2.0326   -1.2291 C   0  0  0  0  0  0  0  0  0  0  0  0
   -0.7348    2.0192    1.2692 C   0  0  2  0  0  0  0  0  0  0  0  0
   -1.7578    1.6429    1.2788 H   0  0  0  0  0  0  0  0  0  0  0  0
   -0.7510    3.5505    1.2837 C   0  0  0  0  0  0  0  0  0  0  0  0
   -1.6679    4.0511    2.4004 C   0  0  0  0  0  0  0  0  0  0  0  0
   -1.2664    3.3773    3.7068 C   0  0  0  0  0  0  0  0  0  0  0  0
   -0.5189    2.2522    3.7082 C   0  0  0  0  0  0  0  0  0  0  0  0
   -0.3099    1.8499    5.4196 S   0  0  0  0  0  0  0  0  0  0  0  0
   -1.2025    3.1566    6.1252 C   0  0  0  0  0  0  0  0  0  0  0  0
   -1.6409    3.8731    5.0202 C   0  0  0  0  0  0  0  0  0  0  0  0
   -2.4513    5.0853    5.1727 C   0  0  0  0  0  0  0  0  0  0  0  0
   -1.9101    6.1714    5.2663 O   0  0  0  0  0  0  0  0  0  0  0  0
   -3.7957    4.9969    5.2093 N   0  0  0  0  0  0  0  0  0  0  0  0
   -1.4252    3.4215    7.4668 N   0  0  0  0  0  0  0  0  0  0  0  0
   -0.9145    2.6041    8.4089 C   0  0  0  0  0  0  0  0  0  0  0  0
   -0.2585    1.6345    8.0816 O   0  0  0  0  0  0  0  0  0  0  0  0
   -1.1521    2.8867    9.8399 C   0  0  0  0  0  0  0  0  0  0  0  0
   -0.6319    2.0420   10.8285 C   0  0  0  0  0  0  0  0  0  0  0  0
   -0.8791    2.3536   12.1536 C   0  0  0  0  0  0  0  0  0  0  0  0
   -1.6338    3.4729   12.4566 C   0  0  0  0  0  0  0  0  0  0  0  0
   -2.1155    4.2481   11.5039 N   0  0  0  0  0  0  0  0  0  0  0  0
   -1.9034    3.9965   10.2288 C   0  0  0  0  0  0  0  0  0  0  0  0
    0.0098    1.5176    2.5151 C   0  0  0  0  0  0  0  0  0  0  0  0
    0.5293   -0.3651    0.8851 H   0  0  0  0  0  0  0  0  0  0  0  0
   -1.0205   -0.3814    0.0098 H   0  0  0  0  0  0  0  0  0  0  0  0
    0.5123   -0.3556   -0.8948 H   0  0  0  0  0  0  0  0  0  0  0  0
    1.9269    1.7038   -0.8972 H   0  0  0  0  0  0  0  0  0  0  0  0
    1.4019    3.1452    0.0056 H   0  0  0  0  0  0  0  0  0  0  0  0
    1.9439    1.6943    0.8826 H   0  0  0  0  0  0  0  0  0  0  0  0
   -1.7813    1.6553   -1.2214 H   0  0  0  0  0  0  0  0  0  0  0  0
   -0.7734    3.1225   -1.2231 H   0  0  0  0  0  0  0  0  0  0  0  0
   -0.2485    1.6811   -2.1259 H   0  0  0  0  0  0  0  0  0  0  0  0
    0.2595    3.9217    1.4543 H   0  0  0  0  0  0  0  0  0  0  0  0
   -1.1131    3.9178    0.3235 H   0  0  0  0  0  0  0  0  0  0  0  0
   -2.7013    3.7994    2.1620 H   0  0  0  0  0  0  0  0  0  0  0  0
   -1.5689    5.1319    2.5011 H   0  0  0  0  0  0  0  0  0  0  0  0
   -4.2271    4.1313    5.1347 H   0  0  0  0  0  0  0  0  0  0  0  0
   -4.3319    5.7989    5.3102 H   0  0  0  0  0  0  0  0  0  0  0  0
   -1.9487    4.1952    7.7279 H   0  0  0  0  0  0  0  0  0  0  0  0
   -0.0497    1.1719   10.5633 H   0  0  0  0  0  0  0  0  0  0  0  0
   -0.4903    1.7275   12.9430 H   0  0  0  0  0  0  0  0  0  0  0  0
   -1.8321    3.7159   13.4901 H   0  0  0  0  0  0  0  0  0  0  0  0
   -2.3142    4.6549    9.4777 H   0  0  0  0  0  0  0  0  0  0  0  0
   -0.1591    0.4478    2.6380 H   0  0  0  0  0  0  0  0  0  0  0  0
    1.0772    1.7108    2.4075 H   0  0  0  0  0  0  0  0  0  0  0  0
  1  2  1  0  0  0  0
  1 27  1  0  0  0  0
  1 28  1  0  0  0  0
  1 29  1  0  0  0  0
  2  3  1  0  0  0  0
  2  4  1  0  0  0  0
  2  5  1  0  0  0  0
  3 30  1  0  0  0  0
  3 31  1  0  0  0  0
  3 32  1  0  0  0  0
  4 33  1  0  0  0  0
  4 34  1  0  0  0  0
  4 35  1  0  0  0  0
  5  6  1  0  0  0  0
  5 26  1  0  0  0  0
  5  7  1  0  0  0  0
  7  8  1  0  0  0  0
  7 36  1  0  0  0  0
  7 37  1  0  0  0  0
  8  9  1  0  0  0  0
  8 38  1  0  0  0  0
  8 39  1  0  0  0  0
  9 13  1  0  0  0  0
  9 10  2  0  0  0  0
 10 11  1  0  0  0  0
 10 26  1  0  0  0  0
 11 12  1  0  0  0  0
 12 13  2  0  0  0  0
 12 17  1  0  0  0  0
 13 14  1  0  0  0  0
 14 15  2  0  0  0  0
 14 16  1  0  0  0  0
 16 40  1  0  0  0  0
 16 41  1  0  0  0  0
 17 18  1  0  0  0  0
 17 42  1  0  0  0  0
 18 19  2  0  0  0  0
 18 20  1  0  0  0  0
 20 25  2  0  0  0  0
 20 21  1  0  0  0  0
 21 22  2  0  0  0  0
 21 43  1  0  0  0  0
 22 23  1  0  0  0  0
 22 44  1  0  0  0  0
 23 24  2  0  0  0  0
 23 45  1  0  0  0  0
 24 25  1  0  0  0  0
 25 46  1  0  0  0  0
 26 47  1  0  0  0  0
 26 48  1  0  0  0  0
M  END
$$$$
ZINC00672787
  -OEChem-08230709453D

 44 47  0     0  0  0  0  0  0999 V2000
    3.7159    8.2080    0.0110 C   0  0  0  0  0  0  0  0  0  0  0  0
    4.3671    9.4219    0.0107 C   0  0  0  0  0  0  0  0  0  0  0  0
    3.6409   10.6053    0.0240 C   0  0  0  0  0  0  0  0  0  0  0  0
    2.2451   10.5701    0.0377 C   0  0  0  0  0  0  0  0  0  0  0  0
    1.5850    9.3578    0.0326 C   0  0  0  0  0  0  0  0  0  0  0  0
    2.3174    8.1648    0.0246 C   0  0  0  0  0  0  0  0  0  0  0  0
    1.6195    6.8712    0.0244 C   0  0  0  0  0  0  0  0  0  0  0  0
    2.3281    5.7218    0.0110 C   0  0  0  0  0  0  0  0  0  0  0  0
    1.6342    4.4353    0.0107 C   0  0  0  0  0  0  0  0  0  0  0  0
    0.4174    4.4001    0.0226 O   0  0  0  0  0  0  0  0  0  0  0  0
    2.3414    3.2881   -0.0027 N   0  0  0  0  0  0  0  0  0  0  0  0
    1.6839    2.0692   -0.0029 C   0  0  0  0  0  0  0  0  0  0  0  0
    2.2316    0.7936   -0.0149 C   0  0  0  0  0  0  0  0  0  0  0  0
    1.3124   -0.3317   -0.0120 C   0  0  0  0  0  0  0  0  0  0  0  0
    0.0021   -0.0041    0.0020 C   0  0  0  0  0  0  0  0  0  0  0  0
   -0.0219    1.7661    0.0118 S   0  0  0  0  0  0  0  0  0  0  0  0
   -1.1639   -0.9440    0.0074 C   0  0  0  0  0  0  0  0  0  0  0  0
   -0.6606   -2.3412   -0.3830 C   0  0  0  0  0  0  0  0  0  0  0  0
    0.5900   -2.6630    0.4402 C   0  0  0  0  0  0  0  0  0  0  0  0
    1.7568   -1.7891   -0.0232 C   0  0  0  0  0  0  0  0  0  0  0  0
    3.6832    0.5896   -0.0296 C   0  0  0  0  0  0  0  0  0  0  0  0
    4.2759    0.5102   -1.0897 O   0  0  0  0  0  0  0  0  0  0  0  0
    4.3614    0.4899    1.1308 N   0  0  0  0  0  0  0  0  0  0  0  0
    1.7776   11.8529    0.0488 O   0  0  0  0  0  0  0  0  0  0  0  0
    2.8867   12.6691   -0.3714 C   0  0  0  0  0  0  0  0  0  0  0  0
    4.0425   11.9087    0.0267 O   0  0  0  0  0  0  0  0  0  0  0  0
    4.2846    7.2899    0.0010 H   0  0  0  0  0  0  0  0  0  0  0  0
    5.4466    9.4533    0.0004 H   0  0  0  0  0  0  0  0  0  0  0  0
    0.5053    9.3297    0.0387 H   0  0  0  0  0  0  0  0  0  0  0  0
    0.5400    6.8399    0.0349 H   0  0  0  0  0  0  0  0  0  0  0  0
    3.4076    5.7530    0.0004 H   0  0  0  0  0  0  0  0  0  0  0  0
    3.3110    3.3161   -0.0121 H   0  0  0  0  0  0  0  0  0  0  0  0
   -1.6039   -0.9774    1.0041 H   0  0  0  0  0  0  0  0  0  0  0  0
   -1.9101   -0.6075   -0.7123 H   0  0  0  0  0  0  0  0  0  0  0  0
   -1.4349   -3.0797   -0.1751 H   0  0  0  0  0  0  0  0  0  0  0  0
   -0.4157   -2.3578   -1.4450 H   0  0  0  0  0  0  0  0  0  0  0  0
    0.3893   -2.4702    1.4941 H   0  0  0  0  0  0  0  0  0  0  0  0
    0.8506   -3.7131    0.3075 H   0  0  0  0  0  0  0  0  0  0  0  0
    2.6016   -1.9188    0.6533 H   0  0  0  0  0  0  0  0  0  0  0  0
    2.0499   -2.0763   -1.0330 H   0  0  0  0  0  0  0  0  0  0  0  0
    3.8891    0.5532    1.9756 H   0  0  0  0  0  0  0  0  0  0  0  0
    5.3220    0.3548    1.1211 H   0  0  0  0  0  0  0  0  0  0  0  0
    2.8728   12.8067   -1.4526 H   0  0  0  0  0  0  0  0  0  0  0  0
    2.8679   13.6324    0.1384 H   0  0  0  0  0  0  0  0  0  0  0  0
  1  6  2  0  0  0  0
  1  2  1  0  0  0  0
  1 27  1  0  0  0  0
  2  3  2  0  0  0  0
  2 28  1  0  0  0  0
  3 26  1  0  0  0  0
  3  4  1  0  0  0  0
  4  5  2  0  0  0  0
  4 24  1  0  0  0  0
  5  6  1  0  0  0  0
  5 29  1  0  0  0  0
  6  7  1  0  0  0  0
  7  8  2  0  0  0  0
  7 30  1  0  0  0  0
  8  9  1  0  0  0  0
  8 31  1  0  0  0  0
  9 10  2  0  0  0  0
  9 11  1  0  0  0  0
 11 12  1  0  0  0  0
 11 32  1  0  0  0  0
 12 16  1  0  0  0  0
 12 13  2  0  0  0  0
 13 14  1  0  0  0  0
 13 21  1  0  0  0  0
 14 20  1  0  0  0  0
 14 15  2  0  0  0  0
 15 16  1  0  0  0  0
 15 17  1  0  0  0  0
 17 18  1  0  0  0  0
 17 33  1  0  0  0  0
 17 34  1  0  0  0  0
 18 19  1  0  0  0  0
 18 35  1  0  0  0  0
 18 36  1  0  0  0  0
 19 20  1  0  0  0  0
 19 37  1  0  0  0  0
 19 38  1  0  0  0  0
 20 39  1  0  0  0  0
 20 40  1  0  0  0  0
 21 22  2  0  0  0  0
 21 23  1  0  0  0  0
 23 41  1  0  0  0  0
 23 42  1  0  0  0  0
 24 25  1  0  0  0  0
 25 26  1  0  0  0  0
 25 43  1  0  0  0  0
 25 44  1  0  0  0  0
M  END
$$$$
ZINC00676471
  -OEChem-08230709453D

 44 46  0     0  0  0  0  0  0999 V2000
   -4.1897   -4.2045   -1.3040 C   0  0  0  0  0  0  0  0  0  0  0  0
   -2.8894   -3.7722   -1.3842 C   0  0  0  0  0  0  0  0  0  0  0  0
   -2.5802   -2.5801   -0.7477 C   0  0  0  0  0  0  0  0  0  0  0  0
   -4.1556   -2.1183   -0.0492 S   0  0  0  0  0  0  0  0  0  0  0  0
   -5.0957   -3.4592   -0.6183 C   0  0  0  0  0  0  0  0  0  0  0  0
   -1.2933   -1.8840   -0.6647 C   0  0  0  0  0  0  0  0  0  0  0  0
   -0.3102   -2.3559   -1.2052 O   0  0  0  0  0  0  0  0  0  0  0  0
   -1.1984   -0.7212    0.0101 N   0  0  0  0  0  0  0  0  0  0  0  0
    0.0045   -0.0081    0.0086 C   0  0  0  0  0  0  0  0  0  0  0  0
   -0.0098    1.3808    0.0135 C   0  0  0  0  0  0  0  0  0  0  0  0
    1.1800    2.0821    0.0124 C   0  0  0  0  0  0  0  0  0  0  0  0
    2.3846    1.4030    0.0069 C   0  0  0  0  0  0  0  0  0  0  0  0
    2.4023    0.0202    0.0016 C   0  0  0  0  0  0  0  0  0  0  0  0
    1.2161   -0.6871    0.0026 C   0  0  0  0  0  0  0  0  0  0  0  0
    3.9003    2.3015    0.0062 S   0  0  0  0  0  0  0  0  0  0  0  0
    3.6161    3.5778    0.5627 O   0  0  0  0  0  0  0  0  0  0  0  0
    4.8862    1.4353    0.5509 O   0  0  0  0  0  0  0  0  0  0  0  0
    4.3170    2.5573   -1.5760 N   0  0  0  0  0  0  0  0  0  0  0  0
    3.4740    3.3989   -2.4287 C   0  0  0  0  0  0  0  0  0  0  0  0
    2.4972    2.5172   -3.2094 C   0  0  0  0  0  0  0  0  0  0  0  0
    1.6167    3.3962   -4.1000 C   0  0  0  0  0  0  0  0  0  0  0  0
    2.4977    4.1732   -5.0803 C   0  0  0  0  0  0  0  0  0  0  0  0
    3.4745    5.0549   -4.2996 C   0  0  0  0  0  0  0  0  0  0  0  0
    4.3550    4.1760   -3.4090 C   0  0  0  0  0  0  0  0  0  0  0  0
   -4.4892   -5.1265   -1.7801 H   0  0  0  0  0  0  0  0  0  0  0  0
   -2.1399   -4.3362   -1.9194 H   0  0  0  0  0  0  0  0  0  0  0  0
   -6.1459   -3.6565   -0.4621 H   0  0  0  0  0  0  0  0  0  0  0  0
   -1.9645   -0.3790    0.4968 H   0  0  0  0  0  0  0  0  0  0  0  0
   -0.9503    1.9118    0.0136 H   0  0  0  0  0  0  0  0  0  0  0  0
    1.1696    3.1620    0.0159 H   0  0  0  0  0  0  0  0  0  0  0  0
    3.3448   -0.5071   -0.0031 H   0  0  0  0  0  0  0  0  0  0  0  0
    1.2306   -1.7670   -0.0009 H   0  0  0  0  0  0  0  0  0  0  0  0
    5.1194    2.1499   -1.9381 H   0  0  0  0  0  0  0  0  0  0  0  0
    2.9149    4.0997   -1.8086 H   0  0  0  0  0  0  0  0  0  0  0  0
    3.0563    1.8165   -3.8295 H   0  0  0  0  0  0  0  0  0  0  0  0
    1.8696    1.9637   -2.5110 H   0  0  0  0  0  0  0  0  0  0  0  0
    1.0577    4.0970   -3.4799 H   0  0  0  0  0  0  0  0  0  0  0  0
    0.9209    2.7681   -4.6562 H   0  0  0  0  0  0  0  0  0  0  0  0
    1.8705    4.7994   -5.7147 H   0  0  0  0  0  0  0  0  0  0  0  0
    3.0568    3.4725   -5.7004 H   0  0  0  0  0  0  0  0  0  0  0  0
    2.9155    5.7557   -3.6795 H   0  0  0  0  0  0  0  0  0  0  0  0
    4.1021    5.6085   -4.9979 H   0  0  0  0  0  0  0  0  0  0  0  0
    5.0508    4.8041   -2.8528 H   0  0  0  0  0  0  0  0  0  0  0  0
    4.9140    3.4752   -4.0291 H   0  0  0  0  0  0  0  0  0  0  0  0
  1  5  2  0  0  0  0
  1  2  1  0  0  0  0
  1 25  1  0  0  0  0
  2  3  2  0  0  0  0
  2 26  1  0  0  0  0
  3  4  1  0  0  0  0
  3  6  1  0  0  0  0
  4  5  1  0  0  0  0
  5 27  1  0  0  0  0
  6  7  2  0  0  0  0
  6  8  1  0  0  0  0
  8  9  1  0  0  0  0
  8 28  1  0  0  0  0
  9 14  2  0  0  0  0
  9 10  1  0  0  0  0
 10 11  2  0  0  0  0
 10 29  1  0  0  0  0
 11 12  1  0  0  0  0
 11 30  1  0  0  0  0
 12 13  2  0  0  0  0
 12 15  1  0  0  0  0
 13 14  1  0  0  0  0
 13 31  1  0  0  0  0
 14 32  1  0  0  0  0
 15 16  2  0  0  0  0
 15 17  2  0  0  0  0
 15 18  1  0  0  0  0
 18 19  1  0  0  0  0
 18 33  1  0  0  0  0
 19 24  1  0  0  0  0
 19 20  1  0  0  0  0
 19 34  1  0  0  0  0
 20 21  1  0  0  0  0
 20 35  1  0  0  0  0
 20 36  1  0  0  0  0
 21 22  1  0  0  0  0
 21 37  1  0  0  0  0
 21 38  1  0  0  0  0
 22 23  1  0  0  0  0
 22 39  1  0  0  0  0
 22 40  1  0  0  0  0
 23 24  1  0  0  0  0
 23 41  1  0  0  0  0
 23 42  1  0  0  0  0
 24 43  1  0  0  0  0
 24 44  1  0  0  0  0
M  END
$$$$
ZINC00687822
  -OEChem-08230709453D

 43 44  0     0  0  0  0  0  0999 V2000
   -5.7865    1.2088   -0.2964 C   0  0  0  0  0  0  0  0  0  0  0  0
   -4.8356    2.4073   -0.3143 C   0  0  0  0  0  0  0  0  0  0  0  0
   -3.4527    1.9351   -0.2103 N   0  0  0  0  0  0  0  0  0  0  0  0
   -2.4367    2.8207   -0.2062 C   0  0  0  0  0  0  0  0  0  0  0  0
   -2.6679    4.0113   -0.2888 O   0  0  0  0  0  0  0  0  0  0  0  0
   -1.0417    2.3444   -0.1012 C   0  0  0  0  0  0  0  0  0  0  0  0
   -0.7728    0.9771   -0.0114 C   0  0  0  0  0  0  0  0  0  0  0  0
    0.5305    0.5391    0.0916 C   0  0  0  0  0  0  0  0  0  0  0  0
    1.5726    1.4517    0.0955 C   0  0  0  0  0  0  0  0  0  0  0  0
    1.3124    2.8087    0.0015 C   0  0  0  0  0  0  0  0  0  0  0  0
    0.0127    3.2593   -0.0967 C   0  0  0  0  0  0  0  0  0  0  0  0
    2.6446    3.9620    0.0079 S   0  0  0  0  0  0  0  0  0  0  0  0
    3.5761    3.5118   -0.9662 O   0  0  0  0  0  0  0  0  0  0  0  0
    2.0611    5.2568   -0.0372 O   0  0  0  0  0  0  0  0  0  0  0  0
    3.3970    3.8328    1.4775 N   0  0  0  0  0  0  0  0  0  0  0  0
    2.7355    4.2388    2.6387 C   0  0  0  0  0  0  0  0  0  0  0  0
    1.3643    4.0512    2.7607 C   0  0  0  0  0  0  0  0  0  0  0  0
    0.7143    4.4498    3.9119 C   0  0  0  0  0  0  0  0  0  0  0  0
    1.4249    5.0443    4.9387 C   0  0  0  0  0  0  0  0  0  0  0  0
    2.7888    5.2369    4.8186 C   0  0  0  0  0  0  0  0  0  0  0  0
    3.4461    4.8361    3.6718 C   0  0  0  0  0  0  0  0  0  0  0  0
    4.9326    5.0473    3.5414 C   0  0  0  0  0  0  0  0  0  0  0  0
   -0.7723    4.2424    4.0470 C   0  0  0  0  0  0  0  0  0  0  0  0
    3.2113    0.8923    0.2194 Cl  0  0  0  0  0  0  0  0  0  0  0  0
   -5.5617    0.5541   -1.1384 H   0  0  0  0  0  0  0  0  0  0  0  0
   -5.6597    0.6583    0.6358 H   0  0  0  0  0  0  0  0  0  0  0  0
   -6.8154    1.5601   -0.3738 H   0  0  0  0  0  0  0  0  0  0  0  0
   -5.0603    3.0620    0.5277 H   0  0  0  0  0  0  0  0  0  0  0  0
   -4.9624    2.9578   -1.2465 H   0  0  0  0  0  0  0  0  0  0  0  0
   -3.2682    0.9851   -0.1443 H   0  0  0  0  0  0  0  0  0  0  0  0
   -1.5842    0.2644   -0.0189 H   0  0  0  0  0  0  0  0  0  0  0  0
    0.7395   -0.5180    0.1648 H   0  0  0  0  0  0  0  0  0  0  0  0
   -0.1890    4.3177   -0.1704 H   0  0  0  0  0  0  0  0  0  0  0  0
    4.2970    3.4752    1.5318 H   0  0  0  0  0  0  0  0  0  0  0  0
    0.8081    3.5910    1.9574 H   0  0  0  0  0  0  0  0  0  0  0  0
    0.9133    5.3592    5.8362 H   0  0  0  0  0  0  0  0  0  0  0  0
    3.3408    5.7014    5.6223 H   0  0  0  0  0  0  0  0  0  0  0  0
    5.1230    6.0216    3.0915 H   0  0  0  0  0  0  0  0  0  0  0  0
    5.3933    5.0065    4.5284 H   0  0  0  0  0  0  0  0  0  0  0  0
    5.3565    4.2664    2.9100 H   0  0  0  0  0  0  0  0  0  0  0  0
   -1.2976    5.1158    3.6605 H   0  0  0  0  0  0  0  0  0  0  0  0
   -1.0690    3.3598    3.4805 H   0  0  0  0  0  0  0  0  0  0  0  0
   -1.0255    4.1018    5.0979 H   0  0  0  0  0  0  0  0  0  0  0  0
  1  2  1  0  0  0  0
  1 25  1  0  0  0  0
  1 26  1  0  0  0  0
  1 27  1  0  0  0  0
  2  3  1  0  0  0  0
  2 28  1  0  0  0  0
  2 29  1  0  0  0  0
  3  4  1  0  0  0  0
  3 30  1  0  0  0  0
  4  5  2  0  0  0  0
  4  6  1  0  0  0  0
  6 11  2  0  0  0  0
  6  7  1  0  0  0  0
  7  8  2  0  0  0  0
  7 31  1  0  0  0  0
  8  9  1  0  0  0  0
  8 32  1  0  0  0  0
  9 10  2  0  0  0  0
  9 24  1  0  0  0  0
 10 11  1  0  0  0  0
 10 12  1  0  0  0  0
 11 33  1  0  0  0  0
 12 13  2  0  0  0  0
 12 14  2  0  0  0  0
 12 15  1  0  0  0  0
 15 16  1  0  0  0  0
 15 34  1  0  0  0  0
 16 21  2  0  0  0  0
 16 17  1  0  0  0  0
 17 18  2  0  0  0  0
 17 35  1  0  0  0  0
 18 19  1  0  0  0  0
 18 23  1  0  0  0  0
 19 20  2  0  0  0  0
 19 36  1  0  0  0  0
 20 21  1  0  0  0  0
 20 37  1  0  0  0  0
 21 22  1  0  0  0  0
 22 38  1  0  0  0  0
 22 39  1  0  0  0  0
 22 40  1  0  0  0  0
 23 41  1  0  0  0  0
 23 42  1  0  0  0  0
 23 43  1  0  0  0  0
M  END
$$$$
ZINC00687824
  -OEChem-08230709453D

 43 44  0     0  0  0  0  0  0999 V2000
   -5.7793    1.1708   -0.2757 C   0  0  0  0  0  0  0  0  0  0  0  0
   -4.8329    2.3728   -0.2978 C   0  0  0  0  0  0  0  0  0  0  0  0
   -3.4481    1.9059   -0.1950 N   0  0  0  0  0  0  0  0  0  0  0  0
   -2.4354    2.7953   -0.1945 C   0  0  0  0  0  0  0  0  0  0  0  0
   -2.6711    3.9848   -0.2793 O   0  0  0  0  0  0  0  0  0  0  0  0
   -1.0385    2.3243   -0.0908 C   0  0  0  0  0  0  0  0  0  0  0  0
   -0.7643    0.9582    0.0015 C   0  0  0  0  0  0  0  0  0  0  0  0
    0.5407    0.5252    0.1032 C   0  0  0  0  0  0  0  0  0  0  0  0
    1.5795    1.4417    0.1035 C   0  0  0  0  0  0  0  0  0  0  0  0
    1.3141    2.7975    0.0069 C   0  0  0  0  0  0  0  0  0  0  0  0
    0.0125    3.2430   -0.0901 C   0  0  0  0  0  0  0  0  0  0  0  0
    2.6421    3.9556    0.0087 S   0  0  0  0  0  0  0  0  0  0  0  0
    3.5738    3.5065   -0.9657 O   0  0  0  0  0  0  0  0  0  0  0  0
    2.0537    5.2482   -0.0387 O   0  0  0  0  0  0  0  0  0  0  0  0
    3.3970    3.8328    1.4775 N   0  0  0  0  0  0  0  0  0  0  0  0
    2.7355    4.2388    2.6387 C   0  0  0  0  0  0  0  0  0  0  0  0
    1.3653    4.0460    2.7631 C   0  0  0  0  0  0  0  0  0  0  0  0
    0.7146    4.4481    3.9127 C   0  0  0  0  0  0  0  0  0  0  0  0
    1.4253    5.0426    4.9395 C   0  0  0  0  0  0  0  0  0  0  0  0
    2.7890    5.2360    4.8190 C   0  0  0  0  0  0  0  0  0  0  0  0
    3.4471    4.8309    3.6742 C   0  0  0  0  0  0  0  0  0  0  0  0
    4.9345    5.0365    3.5463 C   0  0  0  0  0  0  0  0  0  0  0  0
    3.5592    5.8842    5.9405 C   0  0  0  0  0  0  0  0  0  0  0  0
    3.2204    0.8885    0.2259 Cl  0  0  0  0  0  0  0  0  0  0  0  0
   -5.5536    0.5152   -1.1167 H   0  0  0  0  0  0  0  0  0  0  0  0
   -5.6489    0.6228    0.6574 H   0  0  0  0  0  0  0  0  0  0  0  0
   -6.8097    1.5182   -0.3522 H   0  0  0  0  0  0  0  0  0  0  0  0
   -5.0587    3.0284    0.5432 H   0  0  0  0  0  0  0  0  0  0  0  0
   -4.9633    2.9208   -1.2309 H   0  0  0  0  0  0  0  0  0  0  0  0
   -3.2601    0.9567   -0.1273 H   0  0  0  0  0  0  0  0  0  0  0  0
   -1.5731    0.2425   -0.0031 H   0  0  0  0  0  0  0  0  0  0  0  0
    0.7537   -0.5309    0.1784 H   0  0  0  0  0  0  0  0  0  0  0  0
   -0.1932    4.3006   -0.1657 H   0  0  0  0  0  0  0  0  0  0  0  0
    4.2985    3.4789    1.5313 H   0  0  0  0  0  0  0  0  0  0  0  0
    0.8096    3.5824    1.9613 H   0  0  0  0  0  0  0  0  0  0  0  0
   -0.3506    4.2985    4.0100 H   0  0  0  0  0  0  0  0  0  0  0  0
    0.9139    5.3562    5.8376 H   0  0  0  0  0  0  0  0  0  0  0  0
    5.1295    6.0111    3.0989 H   0  0  0  0  0  0  0  0  0  0  0  0
    5.3937    4.9916    4.5338 H   0  0  0  0  0  0  0  0  0  0  0  0
    5.3562    4.2554    2.9137 H   0  0  0  0  0  0  0  0  0  0  0  0
    3.9128    5.1170    6.6293 H   0  0  0  0  0  0  0  0  0  0  0  0
    4.4120    6.4252    5.5303 H   0  0  0  0  0  0  0  0  0  0  0  0
    2.9099    6.5792    6.4729 H   0  0  0  0  0  0  0  0  0  0  0  0
  1  2  1  0  0  0  0
  1 25  1  0  0  0  0
  1 26  1  0  0  0  0
  1 27  1  0  0  0  0
  2  3  1  0  0  0  0
  2 28  1  0  0  0  0
  2 29  1  0  0  0  0
  3  4  1  0  0  0  0
  3 30  1  0  0  0  0
  4  5  2  0  0  0  0
  4  6  1  0  0  0  0
  6 11  2  0  0  0  0
  6  7  1  0  0  0  0
  7  8  2  0  0  0  0
  7 31  1  0  0  0  0
  8  9  1  0  0  0  0
  8 32  1  0  0  0  0
  9 10  2  0  0  0  0
  9 24  1  0  0  0  0
 10 11  1  0  0  0  0
 10 12  1  0  0  0  0
 11 33  1  0  0  0  0
 12 13  2  0  0  0  0
 12 14  2  0  0  0  0
 12 15  1  0  0  0  0
 15 16  1  0  0  0  0
 15 34  1  0  0  0  0
 16 21  2  0  0  0  0
 16 17  1  0  0  0  0
 17 18  2  0  0  0  0
 17 35  1  0  0  0  0
 18 19  1  0  0  0  0
 18 36  1  0  0  0  0
 19 20  2  0  0  0  0
 19 37  1  0  0  0  0
 20 21  1  0  0  0  0
 20 23  1  0  0  0  0
 21 22  1  0  0  0  0
 22 38  1  0  0  0  0
 22 39  1  0  0  0  0
 22 40  1  0  0  0  0
 23 41  1  0  0  0  0
 23 42  1  0  0  0  0
 23 43  1  0  0  0  0
M  END
$$$$
ZINC00695996
  -OEChem-08230709453D

 46 48  0     1  0  0  0  0  0999 V2000
    4.9658    0.6559   -2.5750 C   0  0  0  0  0  0  0  0  0  0  0  0
    4.4417    0.4378   -1.1542 C   0  0  0  0  0  0  0  0  0  0  0  0
    3.0878   -0.0837   -1.2125 O   0  0  0  0  0  0  0  0  0  0  0  0
    2.4765   -0.3327   -0.0367 C   0  0  0  0  0  0  0  0  0  0  0  0
    3.0597   -0.1195    1.0088 O   0  0  0  0  0  0  0  0  0  0  0  0
    1.1078   -0.8608   -0.0188 C   0  0  0  0  0  0  0  0  0  0  0  0
    0.8658   -2.2264   -0.0178 C   0  0  0  0  0  0  0  0  0  0  0  0
   -0.4381   -2.6409   -0.0081 C   0  0  0  0  0  0  0  0  0  0  0  0
   -1.3387   -1.1025    0.0083 S   0  0  0  0  0  0  0  0  0  0  0  0
    0.0021   -0.0041    0.0020 C   0  0  0  0  0  0  0  0  0  0  0  0
   -0.0167    1.3770    0.0096 N   0  0  0  0  0  0  0  0  0  0  0  0
   -1.1929    2.0350    0.0188 C   0  0  0  0  0  0  0  0  0  0  0  0
   -2.2347    1.4145    0.0203 O   0  0  0  0  0  0  0  0  0  0  0  0
   -1.2133    3.5418    0.0271 C   0  0  1  0  0  0  0  0  0  0  0  0
   -0.4050    4.0199    0.5804 H   0  0  0  0  0  0  0  0  0  0  0  0
   -1.7235    4.2483   -1.2305 C   0  0  0  0  0  0  0  0  0  0  0  0
   -2.5799    4.2298    0.0373 C   0  0  1  0  0  0  0  0  0  0  0  0
   -2.6706    5.1606    0.5971 H   0  0  0  0  0  0  0  0  0  0  0  0
   -3.8025    3.3486    0.0388 C   0  0  0  0  0  0  0  0  0  0  0  0
   -4.0212    2.4682   -1.0042 C   0  0  0  0  0  0  0  0  0  0  0  0
   -5.1402    1.6565   -1.0004 C   0  0  0  0  0  0  0  0  0  0  0  0
   -6.0455    1.7324    0.0415 C   0  0  0  0  0  0  0  0  0  0  0  0
   -5.8297    2.6169    1.0817 C   0  0  0  0  0  0  0  0  0  0  0  0
   -4.7081    3.4248    1.0805 C   0  0  0  0  0  0  0  0  0  0  0  0
   -0.9631   -4.0079   -0.0114 C   0  0  0  0  0  0  0  0  0  0  0  0
   -0.1973   -4.9540   -0.0238 O   0  0  0  0  0  0  0  0  0  0  0  0
   -2.2943   -4.2185   -0.0007 N   0  0  0  0  0  0  0  0  0  0  0  0
    1.9995   -3.2192   -0.0334 C   0  0  0  0  0  0  0  0  0  0  0  0
    5.9822    1.0473   -2.5312 H   0  0  0  0  0  0  0  0  0  0  0  0
    4.9646   -0.2925   -3.1123 H   0  0  0  0  0  0  0  0  0  0  0  0
    4.3242    1.3682   -3.0936 H   0  0  0  0  0  0  0  0  0  0  0  0
    4.4429    1.3861   -0.6169 H   0  0  0  0  0  0  0  0  0  0  0  0
    5.0834   -0.2745   -0.6355 H   0  0  0  0  0  0  0  0  0  0  0  0
    0.8167    1.8734    0.0043 H   0  0  0  0  0  0  0  0  0  0  0  0
   -1.2509    5.1914   -1.5047 H   0  0  0  0  0  0  0  0  0  0  0  0
   -2.0444    3.6233   -2.0638 H   0  0  0  0  0  0  0  0  0  0  0  0
   -3.3160    2.4118   -1.8202 H   0  0  0  0  0  0  0  0  0  0  0  0
   -5.3090    0.9658   -1.8132 H   0  0  0  0  0  0  0  0  0  0  0  0
   -6.9217    1.1009    0.0426 H   0  0  0  0  0  0  0  0  0  0  0  0
   -6.5372    2.6764    1.8955 H   0  0  0  0  0  0  0  0  0  0  0  0
   -4.5394    4.1159    1.8931 H   0  0  0  0  0  0  0  0  0  0  0  0
   -2.9045   -3.4646    0.0092 H   0  0  0  0  0  0  0  0  0  0  0  0
   -2.6421   -5.1240   -0.0028 H   0  0  0  0  0  0  0  0  0  0  0  0
    2.2632   -3.4534   -1.0648 H   0  0  0  0  0  0  0  0  0  0  0  0
    2.8640   -2.7916    0.4745 H   0  0  0  0  0  0  0  0  0  0  0  0
    1.6913   -4.1307    0.4788 H   0  0  0  0  0  0  0  0  0  0  0  0
  1  2  1  0  0  0  0
  1 29  1  0  0  0  0
  1 30  1  0  0  0  0
  1 31  1  0  0  0  0
  2  3  1  0  0  0  0
  2 32  1  0  0  0  0
  2 33  1  0  0  0  0
  3  4  1  0  0  0  0
  4  5  2  0  0  0  0
  4  6  1  0  0  0  0
  6 10  2  0  0  0  0
  6  7  1  0  0  0  0
  7  8  2  0  0  0  0
  7 28  1  0  0  0  0
  8  9  1  0  0  0  0
  8 25  1  0  0  0  0
  9 10  1  0  0  0  0
 10 11  1  0  0  0  0
 11 12  1  0  0  0  0
 11 34  1  0  0  0  0
 12 13  2  0  0  0  0
 12 14  1  0  0  0  0
 14 15  1  0  0  0  0
 14 17  1  0  0  0  0
 14 16  1  0  0  0  0
 16 17  1  0  0  0  0
 16 35  1  0  0  0  0
 16 36  1  0  0  0  0
 17 18  1  0  0  0  0
 17 19  1  0  0  0  0
 19 24  2  0  0  0  0
 19 20  1  0  0  0  0
 20 21  2  0  0  0  0
 20 37  1  0  0  0  0
 21 22  1  0  0  0  0
 21 38  1  0  0  0  0
 22 23  2  0  0  0  0
 22 39  1  0  0  0  0
 23 24  1  0  0  0  0
 23 40  1  0  0  0  0
 24 41  1  0  0  0  0
 25 26  2  0  0  0  0
 25 27  1  0  0  0  0
 27 42  1  0  0  0  0
 27 43  1  0  0  0  0
 28 44  1  0  0  0  0
 28 45  1  0  0  0  0
 28 46  1  0  0  0  0
M  END
$$$$
ZINC00695999
  -OEChem-08230709453D

 46 48  0     1  0  0  0  0  0999 V2000
    4.2589    5.8813   -2.5388 C   0  0  0  0  0  0  0  0  0  0  0  0
    4.1860    5.3023   -1.1245 C   0  0  0  0  0  0  0  0  0  0  0  0
    3.9606    3.8698   -1.1989 O   0  0  0  0  0  0  0  0  0  0  0  0
    3.8709    3.2027   -0.0306 C   0  0  0  0  0  0  0  0  0  0  0  0
    3.9782    3.8025    1.0218 O   0  0  0  0  0  0  0  0  0  0  0  0
    3.6437    1.7533   -0.0290 C   0  0  0  0  0  0  0  0  0  0  0  0
    4.7054    0.8609   -0.0379 C   0  0  0  0  0  0  0  0  0  0  0  0
    4.4123   -0.4756   -0.0428 C   0  0  0  0  0  0  0  0  0  0  0  0
    2.6297   -0.4864   -0.0262 S   0  0  0  0  0  0  0  0  0  0  0  0
    2.3489    1.2239   -0.0138 C   0  0  0  0  0  0  0  0  0  0  0  0
    1.1435    1.8982    0.0013 N   0  0  0  0  0  0  0  0  0  0  0  0
   -0.0144    1.2085    0.0087 C   0  0  0  0  0  0  0  0  0  0  0  0
    0.0021   -0.0041    0.0020 O   0  0  0  0  0  0  0  0  0  0  0  0
   -1.3296    1.9441    0.0189 C   0  0  2  0  0  0  0  0  0  0  0  0
   -1.3458    2.8858   -0.5298 H   0  0  0  0  0  0  0  0  0  0  0  0
   -2.1818    1.8501    1.2861 C   0  0  0  0  0  0  0  0  0  0  0  0
   -2.6086    1.1046    0.0201 C   0  0  2  0  0  0  0  0  0  0  0  0
   -3.4666    1.4938   -0.5280 H   0  0  0  0  0  0  0  0  0  0  0  0
   -2.4569   -0.3947    0.0109 C   0  0  0  0  0  0  0  0  0  0  0  0
   -1.7821   -1.0274    1.0382 C   0  0  0  0  0  0  0  0  0  0  0  0
   -1.6467   -2.4031    1.0320 C   0  0  0  0  0  0  0  0  0  0  0  0
   -2.1782   -3.1453   -0.0061 C   0  0  0  0  0  0  0  0  0  0  0  0
   -2.8484   -2.5121   -1.0360 C   0  0  0  0  0  0  0  0  0  0  0  0
   -2.9876   -1.1368   -1.0276 C   0  0  0  0  0  0  0  0  0  0  0  0
    5.3336   -1.6137   -0.0579 C   0  0  0  0  0  0  0  0  0  0  0  0
    6.5358   -1.4235   -0.0685 O   0  0  0  0  0  0  0  0  0  0  0  0
    4.8504   -2.8719   -0.0602 N   0  0  0  0  0  0  0  0  0  0  0  0
    6.1320    1.3463   -0.0489 C   0  0  0  0  0  0  0  0  0  0  0  0
    4.4281    6.9566   -2.4829 H   0  0  0  0  0  0  0  0  0  0  0  0
    5.0794    5.4121   -3.0817 H   0  0  0  0  0  0  0  0  0  0  0  0
    3.3210    5.6877   -3.0595 H   0  0  0  0  0  0  0  0  0  0  0  0
    3.3655    5.7715   -0.5816 H   0  0  0  0  0  0  0  0  0  0  0  0
    5.1239    5.4959   -0.6039 H   0  0  0  0  0  0  0  0  0  0  0  0
    1.1304    2.8681    0.0067 H   0  0  0  0  0  0  0  0  0  0  0  0
   -1.7911    1.2562    2.1124 H   0  0  0  0  0  0  0  0  0  0  0  0
   -2.7586    2.7300    1.5711 H   0  0  0  0  0  0  0  0  0  0  0  0
   -1.3636   -0.4472    1.8473 H   0  0  0  0  0  0  0  0  0  0  0  0
   -1.1233   -2.8978    1.8368 H   0  0  0  0  0  0  0  0  0  0  0  0
   -2.0700   -4.2198   -0.0122 H   0  0  0  0  0  0  0  0  0  0  0  0
   -3.2637   -3.0920   -1.8470 H   0  0  0  0  0  0  0  0  0  0  0  0
   -3.5113   -0.6421   -1.8322 H   0  0  0  0  0  0  0  0  0  0  0  0
    3.8923   -3.0235   -0.0517 H   0  0  0  0  0  0  0  0  0  0  0  0
    5.4606   -3.6258   -0.0702 H   0  0  0  0  0  0  0  0  0  0  0  0
    6.4662    1.4689   -1.0791 H   0  0  0  0  0  0  0  0  0  0  0  0
    6.1943    2.3031    0.4696 H   0  0  0  0  0  0  0  0  0  0  0  0
    6.7675    0.6180    0.4550 H   0  0  0  0  0  0  0  0  0  0  0  0
  1  2  1  0  0  0  0
  1 29  1  0  0  0  0
  1 30  1  0  0  0  0
  1 31  1  0  0  0  0
  2  3  1  0  0  0  0
  2 32  1  0  0  0  0
  2 33  1  0  0  0  0
  3  4  1  0  0  0  0
  4  5  2  0  0  0  0
  4  6  1  0  0  0  0
  6 10  2  0  0  0  0
  6  7  1  0  0  0  0
  7  8  2  0  0  0  0
  7 28  1  0  0  0  0
  8  9  1  0  0  0  0
  8 25  1  0  0  0  0
  9 10  1  0  0  0  0
 10 11  1  0  0  0  0
 11 12  1  0  0  0  0
 11 34  1  0  0  0  0
 12 13  2  0  0  0  0
 12 14  1  0  0  0  0
 14 15  1  0  0  0  0
 14 17  1  0  0  0  0
 14 16  1  0  0  0  0
 16 17  1  0  0  0  0
 16 35  1  0  0  0  0
 16 36  1  0  0  0  0
 17 18  1  0  0  0  0
 17 19  1  0  0  0  0
 19 24  2  0  0  0  0
 19 20  1  0  0  0  0
 20 21  2  0  0  0  0
 20 37  1  0  0  0  0
 21 22  1  0  0  0  0
 21 38  1  0  0  0  0
 22 23  2  0  0  0  0
 22 39  1  0  0  0  0
 23 24  1  0  0  0  0
 23 40  1  0  0  0  0
 24 41  1  0  0  0  0
 25 26  2  0  0  0  0
 25 27  1  0  0  0  0
 27 42  1  0  0  0  0
 27 43  1  0  0  0  0
 28 44  1  0  0  0  0
 28 45  1  0  0  0  0
 28 46  1  0  0  0  0
M  END
$$$$
ZINC00716753
  -OEChem-08230709453D

 44 46  0     1  0  0  0  0  0999 V2000
   -7.8689   -0.3619    1.9446 C   0  0  0  0  0  0  0  0  0  0  0  0
   -7.2313    0.2008    3.0929 O   0  0  0  0  0  0  0  0  0  0  0  0
   -6.0399    0.8257    2.8935 C   0  0  0  0  0  0  0  0  0  0  0  0
   -5.4971    0.8952    1.6194 C   0  0  0  0  0  0  0  0  0  0  0  0
   -4.2863    1.5301    1.4156 C   0  0  0  0  0  0  0  0  0  0  0  0
   -3.6088    2.0928    2.4811 C   0  0  0  0  0  0  0  0  0  0  0  0
   -4.1473    2.0321    3.7575 C   0  0  0  0  0  0  0  0  0  0  0  0
   -5.3646    1.3951    3.9665 C   0  0  0  0  0  0  0  0  0  0  0  0
   -5.8938    1.3286    5.2186 O   0  0  0  0  0  0  0  0  0  0  0  0
   -5.5359    0.1974    6.0149 C   0  0  0  0  0  0  0  0  0  0  0  0
   -3.4826    2.5909    4.8042 O   0  0  0  0  0  0  0  0  0  0  0  0
   -2.2370    3.2291    4.5155 C   0  0  0  0  0  0  0  0  0  0  0  0
   -3.7003    1.6037    0.0292 C   0  0  1  0  0  0  0  0  0  0  0  0
   -4.3674    1.0988   -0.6695 H   0  0  0  0  0  0  0  0  0  0  0  0
   -3.5545    3.0470   -0.3748 C   0  0  0  0  0  0  0  0  0  0  0  0
   -4.6736    3.7603   -0.7666 C   0  0  0  0  0  0  0  0  0  0  0  0
   -4.5588    5.0844   -1.1410 C   0  0  0  0  0  0  0  0  0  0  0  0
   -3.3173    5.7048   -1.1245 C   0  0  0  0  0  0  0  0  0  0  0  0
   -2.1953    4.9937   -0.7320 C   0  0  0  0  0  0  0  0  0  0  0  0
   -2.3124    3.6617   -0.3559 C   0  0  0  0  0  0  0  0  0  0  0  0
   -1.2043    2.9792    0.0295 O   0  0  0  0  0  0  0  0  0  0  0  0
   -1.2090    1.6359    0.0167 C   0  0  0  0  0  0  0  0  0  0  0  0
   -2.3604    0.9233    0.0183 C   0  0  0  0  0  0  0  0  0  0  0  0
   -2.3001   -0.5074    0.0089 C   0  0  0  0  0  0  0  0  0  0  0  0
   -2.2522   -1.6424    0.0014 N   0  0  0  0  0  0  0  0  0  0  0  0
   -0.0111    0.9658    0.0074 N   0  0  0  0  0  0  0  0  0  0  0  0
   -3.2028    7.0080   -1.4924 O   0  0  0  0  0  0  0  0  0  0  0  0
   -8.8077   -0.8287    2.2425 H   0  0  0  0  0  0  0  0  0  0  0  0
   -8.0692    0.4254    1.2178 H   0  0  0  0  0  0  0  0  0  0  0  0
   -7.2162   -1.1117    1.4974 H   0  0  0  0  0  0  0  0  0  0  0  0
   -6.0213    0.4530    0.7850 H   0  0  0  0  0  0  0  0  0  0  0  0
   -2.6608    2.5841    2.3184 H   0  0  0  0  0  0  0  0  0  0  0  0
   -5.8554   -0.7160    5.5131 H   0  0  0  0  0  0  0  0  0  0  0  0
   -4.4548    0.1772    6.1524 H   0  0  0  0  0  0  0  0  0  0  0  0
   -6.0245    0.2679    6.9867 H   0  0  0  0  0  0  0  0  0  0  0  0
   -2.4002    4.0400    3.8056 H   0  0  0  0  0  0  0  0  0  0  0  0
   -1.8131    3.6314    5.4355 H   0  0  0  0  0  0  0  0  0  0  0  0
   -1.5478    2.5027    4.0850 H   0  0  0  0  0  0  0  0  0  0  0  0
   -5.6405    3.2794   -0.7801 H   0  0  0  0  0  0  0  0  0  0  0  0
   -5.4349    5.6373   -1.4462 H   0  0  0  0  0  0  0  0  0  0  0  0
   -1.2286    5.4752   -0.7186 H   0  0  0  0  0  0  0  0  0  0  0  0
    0.0021   -0.0041    0.0020 H   0  0  0  0  0  0  0  0  0  0  0  0
    0.8223    1.4622    0.0021 H   0  0  0  0  0  0  0  0  0  0  0  0
   -3.3048    7.6333   -0.7619 H   0  0  0  0  0  0  0  0  0  0  0  0
  1  2  1  0  0  0  0
  1 28  1  0  0  0  0
  1 29  1  0  0  0  0
  1 30  1  0  0  0  0
  2  3  1  0  0  0  0
  3  8  2  0  0  0  0
  3  4  1  0  0  0  0
  4  5  2  0  0  0  0
  4 31  1  0  0  0  0
  5  6  1  0  0  0  0
  5 13  1  0  0  0  0
  6  7  2  0  0  0  0
  6 32  1  0  0  0  0
  7  8  1  0  0  0  0
  7 11  1  0  0  0  0
  8  9  1  0  0  0  0
  9 10  1  0  0  0  0
 10 33  1  0  0  0  0
 10 34  1  0  0  0  0
 10 35  1  0  0  0  0
 11 12  1  0  0  0  0
 12 36  1  0  0  0  0
 12 37  1  0  0  0  0
 12 38  1  0  0  0  0
 13 14  1  0  0  0  0
 13 23  1  0  0  0  0
 13 15  1  0  0  0  0
 15 20  2  0  0  0  0
 15 16  1  0  0  0  0
 16 17  2  0  0  0  0
 16 39  1  0  0  0  0
 17 18  1  0  0  0  0
 17 40  1  0  0  0  0
 18 19  2  0  0  0  0
 18 27  1  0  0  0  0
 19 20  1  0  0  0  0
 19 41  1  0  0  0  0
 20 21  1  0  0  0  0
 21 22  1  0  0  0  0
 22 23  2  0  0  0  0
 22 26  1  0  0  0  0
 23 24  1  0  0  0  0
 24 25  3  0  0  0  0
 26 42  1  0  0  0  0
 26 43  1  0  0  0  0
 27 44  1  0  0  0  0
M  END
$$$$
ZINC00716754
  -OEChem-08230709453D

 44 46  0     1  0  0  0  0  0999 V2000
   -3.6054    2.1086    0.0301 C   0  0  0  0  0  0  0  0  0  0  0  0
   -2.3983    1.3439    0.0202 O   0  0  0  0  0  0  0  0  0  0  0  0
   -1.2282    2.0371    0.0189 C   0  0  0  0  0  0  0  0  0  0  0  0
   -1.2426    3.4236    0.0324 C   0  0  0  0  0  0  0  0  0  0  0  0
   -0.0540    4.1291    0.0244 C   0  0  0  0  0  0  0  0  0  0  0  0
    1.1534    3.4562    0.0097 C   0  0  0  0  0  0  0  0  0  0  0  0
    1.1765    2.0698    0.0019 C   0  0  0  0  0  0  0  0  0  0  0  0
   -0.0164    1.3567    0.0095 C   0  0  0  0  0  0  0  0  0  0  0  0
    0.0021   -0.0041    0.0020 O   0  0  0  0  0  0  0  0  0  0  0  0
    0.0230   -0.6596    1.2716 C   0  0  0  0  0  0  0  0  0  0  0  0
    2.3649    1.4087   -0.0126 O   0  0  0  0  0  0  0  0  0  0  0  0
    3.5508    2.2060   -0.0196 C   0  0  0  0  0  0  0  0  0  0  0  0
   -0.0744    5.6360    0.0322 C   0  0  2  0  0  0  0  0  0  0  0  0
    0.9490    6.0110    0.0245 H   0  0  0  0  0  0  0  0  0  0  0  0
   -0.7733    6.1189    1.2755 C   0  0  0  0  0  0  0  0  0  0  0  0
   -0.1078    6.0818    2.4881 C   0  0  0  0  0  0  0  0  0  0  0  0
   -0.7327    6.5211    3.6385 C   0  0  0  0  0  0  0  0  0  0  0  0
   -2.0335    7.0018    3.5809 C   0  0  0  0  0  0  0  0  0  0  0  0
   -2.7026    7.0395    2.3686 C   0  0  0  0  0  0  0  0  0  0  0  0
   -2.0726    6.5973    1.2124 C   0  0  0  0  0  0  0  0  0  0  0  0
   -2.7411    6.6415    0.0336 O   0  0  0  0  0  0  0  0  0  0  0  0
   -2.0612    6.5968   -1.1243 C   0  0  0  0  0  0  0  0  0  0  0  0
   -0.7950    6.1304   -1.1904 C   0  0  0  0  0  0  0  0  0  0  0  0
   -0.1258    6.1082   -2.4562 C   0  0  0  0  0  0  0  0  0  0  0  0
    0.4051    6.0905   -3.4604 N   0  0  0  0  0  0  0  0  0  0  0  0
   -2.6717    7.0362   -2.2724 N   0  0  0  0  0  0  0  0  0  0  0  0
   -2.6495    7.4351    4.7121 O   0  0  0  0  0  0  0  0  0  0  0  0
   -4.4623    1.4350    0.0301 H   0  0  0  0  0  0  0  0  0  0  0  0
   -3.6333    2.7319    0.9239 H   0  0  0  0  0  0  0  0  0  0  0  0
   -3.6413    2.7423   -0.8561 H   0  0  0  0  0  0  0  0  0  0  0  0
   -2.1839    3.9530    0.0443 H   0  0  0  0  0  0  0  0  0  0  0  0
    2.0800    4.0111    0.0038 H   0  0  0  0  0  0  0  0  0  0  0  0
    0.9142   -0.3576    1.8218 H   0  0  0  0  0  0  0  0  0  0  0  0
   -0.8655   -0.3818    1.8386 H   0  0  0  0  0  0  0  0  0  0  0  0
    0.0363   -1.7393    1.1229 H   0  0  0  0  0  0  0  0  0  0  0  0
    3.5573    2.8396   -0.9065 H   0  0  0  0  0  0  0  0  0  0  0  0
    3.5740    2.8306    0.8734 H   0  0  0  0  0  0  0  0  0  0  0  0
    4.4256    1.5559   -0.0311 H   0  0  0  0  0  0  0  0  0  0  0  0
    0.9044    5.7081    2.5350 H   0  0  0  0  0  0  0  0  0  0  0  0
   -0.2092    6.4911    4.5826 H   0  0  0  0  0  0  0  0  0  0  0  0
   -3.7148    7.4134    2.3224 H   0  0  0  0  0  0  0  0  0  0  0  0
   -3.5809    7.3726   -2.2401 H   0  0  0  0  0  0  0  0  0  0  0  0
   -2.1939    7.0102   -3.1162 H   0  0  0  0  0  0  0  0  0  0  0  0
   -2.5202    8.3758    4.8947 H   0  0  0  0  0  0  0  0  0  0  0  0
  1  2  1  0  0  0  0
  1 28  1  0  0  0  0
  1 29  1  0  0  0  0
  1 30  1  0  0  0  0
  2  3  1  0  0  0  0
  3  8  2  0  0  0  0
  3  4  1  0  0  0  0
  4  5  2  0  0  0  0
  4 31  1  0  0  0  0
  5  6  1  0  0  0  0
  5 13  1  0  0  0  0
  6  7  2  0  0  0  0
  6 32  1  0  0  0  0
  7  8  1  0  0  0  0
  7 11  1  0  0  0  0
  8  9  1  0  0  0  0
  9 10  1  0  0  0  0
 10 33  1  0  0  0  0
 10 34  1  0  0  0  0
 10 35  1  0  0  0  0
 11 12  1  0  0  0  0
 12 36  1  0  0  0  0
 12 37  1  0  0  0  0
 12 38  1  0  0  0  0
 13 14  1  0  0  0  0
 13 23  1  0  0  0  0
 13 15  1  0  0  0  0
 15 20  2  0  0  0  0
 15 16  1  0  0  0  0
 16 17  2  0  0  0  0
 16 39  1  0  0  0  0
 17 18  1  0  0  0  0
 17 40  1  0  0  0  0
 18 19  2  0  0  0  0
 18 27  1  0  0  0  0
 19 20  1  0  0  0  0
 19 41  1  0  0  0  0
 20 21  1  0  0  0  0
 21 22  1  0  0  0  0
 22 23  2  0  0  0  0
 22 26  1  0  0  0  0
 23 24  1  0  0  0  0
 24 25  3  0  0  0  0
 26 42  1  0  0  0  0
 26 43  1  0  0  0  0
 27 44  1  0  0  0  0
M  END
$$$$
ZINC00719145
  -OEChem-08230709453D

 45 48  0     1  0  0  0  0  0999 V2000
   -3.7142    3.2697    1.9547 C   0  0  0  0  0  0  0  0  0  0  0  0
   -2.3657    3.1995    2.6237 C   0  0  0  0  0  0  0  0  0  0  0  0
   -1.1875    3.7239    2.2164 C   0  0  0  0  0  0  0  0  0  0  0  0
   -0.0548    3.5285    3.0003 C   0  0  0  0  0  0  0  0  0  0  0  0
   -0.1796    2.8198    4.1617 C   0  0  0  0  0  0  0  0  0  0  0  0
   -1.9166    2.4085    4.1592 S   0  0  0  0  0  0  0  0  0  0  0  0
    0.8755    2.4754    5.1811 C   0  0  0  0  0  0  0  0  0  0  0  0
    1.2589    4.0828    2.5870 C   0  0  0  0  0  0  0  0  0  0  0  0
    1.8334    3.9771    1.3170 C   0  0  0  0  0  0  0  0  0  0  0  0
    3.0403    4.6165    1.3427 C   0  0  0  0  0  0  0  0  0  0  0  0
    3.2187    5.1054    2.5873 N   0  0  0  0  0  0  0  0  0  0  0  0
    4.0130    5.6213    2.9083 H   0  0  0  0  0  0  0  0  0  0  0  0
    2.0908    4.7617    3.3538 N   0  0  0  0  0  0  0  0  0  0  0  0
    3.8506    4.6957    0.2577 O   0  0  0  0  0  0  0  0  0  0  0  0
    3.3251    4.3660   -0.9397 C   0  0  0  0  0  0  0  0  0  0  0  0
    2.1466    3.7224   -1.0922 C   0  0  0  0  0  0  0  0  0  0  0  0
    1.2977    3.3013    0.0814 C   0  0  1  0  0  0  0  0  0  0  0  0
    0.2640    3.6045   -0.0848 H   0  0  0  0  0  0  0  0  0  0  0  0
    1.3680    1.8053    0.2491 C   0  0  0  0  0  0  0  0  0  0  0  0
    2.5788    1.1973    0.5261 C   0  0  0  0  0  0  0  0  0  0  0  0
    2.6467   -0.1748    0.6800 C   0  0  0  0  0  0  0  0  0  0  0  0
    1.5043   -0.9423    0.5574 C   0  0  0  0  0  0  0  0  0  0  0  0
    0.2886   -0.3349    0.2796 C   0  0  0  0  0  0  0  0  0  0  0  0
    0.2231    1.0425    0.1255 C   0  0  0  0  0  0  0  0  0  0  0  0
   -0.8363   -1.0876    0.1580 O   0  0  0  0  0  0  0  0  0  0  0  0
   -0.6941   -2.4991    0.3292 C   0  0  0  0  0  0  0  0  0  0  0  0
    1.6871    3.4290   -2.4164 C   0  0  0  0  0  0  0  0  0  0  0  0
    1.3227    3.1962   -3.4669 N   0  0  0  0  0  0  0  0  0  0  0  0
    4.0285    4.7033   -2.0693 N   0  0  0  0  0  0  0  0  0  0  0  0
   -4.4489    2.7405    2.5615 H   0  0  0  0  0  0  0  0  0  0  0  0
   -4.0135    4.3125    1.8490 H   0  0  0  0  0  0  0  0  0  0  0  0
   -3.6556    2.8070    0.9695 H   0  0  0  0  0  0  0  0  0  0  0  0
   -1.1261    4.2830    1.2945 H   0  0  0  0  0  0  0  0  0  0  0  0
    0.9227    3.2613    5.9348 H   0  0  0  0  0  0  0  0  0  0  0  0
    0.6239    1.5285    5.6588 H   0  0  0  0  0  0  0  0  0  0  0  0
    1.8430    2.3872    4.6869 H   0  0  0  0  0  0  0  0  0  0  0  0
    3.4728    1.7955    0.6223 H   0  0  0  0  0  0  0  0  0  0  0  0
    3.5935   -0.6474    0.8959 H   0  0  0  0  0  0  0  0  0  0  0  0
    1.5579   -2.0143    0.6773 H   0  0  0  0  0  0  0  0  0  0  0  0
   -0.7214    1.5174   -0.0952 H   0  0  0  0  0  0  0  0  0  0  0  0
   -1.6648   -2.9796    0.2069 H   0  0  0  0  0  0  0  0  0  0  0  0
    0.0001   -2.8874   -0.4161 H   0  0  0  0  0  0  0  0  0  0  0  0
   -0.3090   -2.7071    1.3275 H   0  0  0  0  0  0  0  0  0  0  0  0
    3.6763    4.4792   -2.9449 H   0  0  0  0  0  0  0  0  0  0  0  0
    4.8776    5.1658   -1.9919 H   0  0  0  0  0  0  0  0  0  0  0  0
  1  2  1  0  0  0  0
  1 30  1  0  0  0  0
  1 31  1  0  0  0  0
  1 32  1  0  0  0  0
  2  6  1  0  0  0  0
  2  3  2  0  0  0  0
  3  4  1  0  0  0  0
  3 33  1  0  0  0  0
  4  5  2  0  0  0  0
  4  8  1  0  0  0  0
  5  6  1  0  0  0  0
  5  7  1  0  0  0  0
  7 34  1  0  0  0  0
  7 35  1  0  0  0  0
  7 36  1  0  0  0  0
  8 13  2  0  0  0  0
  8  9  1  0  0  0  0
  9 17  1  0  0  0  0
  9 10  2  0  0  0  0
 10 11  1  0  0  0  0
 10 14  1  0  0  0  0
 11 12  1  0  0  0  0
 11 13  1  0  0  0  0
 14 15  1  0  0  0  0
 15 16  2  0  0  0  0
 15 29  1  0  0  0  0
 16 17  1  0  0  0  0
 16 27  1  0  0  0  0
 17 18  1  0  0  0  0
 17 19  1  0  0  0  0
 19 24  2  0  0  0  0
 19 20  1  0  0  0  0
 20 21  2  0  0  0  0
 20 37  1  0  0  0  0
 21 22  1  0  0  0  0
 21 38  1  0  0  0  0
 22 23  2  0  0  0  0
 22 39  1  0  0  0  0
 23 24  1  0  0  0  0
 23 25  1  0  0  0  0
 24 40  1  0  0  0  0
 25 26  1  0  0  0  0
 26 41  1  0  0  0  0
 26 42  1  0  0  0  0
 26 43  1  0  0  0  0
 27 28  3  0  0  0  0
 29 44  1  0  0  0  0
 29 45  1  0  0  0  0
M  END
$$$$
ZINC00719145
  -OEChem-08230709453D

 45 48  0     1  0  0  0  0  0999 V2000
   -3.7139    3.2683    1.9552 C   0  0  0  0  0  0  0  0  0  0  0  0
   -2.3653    3.1984    2.6241 C   0  0  0  0  0  0  0  0  0  0  0  0
   -1.1873    3.7230    2.2167 C   0  0  0  0  0  0  0  0  0  0  0  0
   -0.0545    3.5278    3.0005 C   0  0  0  0  0  0  0  0  0  0  0  0
   -0.1790    2.8191    4.1619 C   0  0  0  0  0  0  0  0  0  0  0  0
   -1.9159    2.4074    4.1595 S   0  0  0  0  0  0  0  0  0  0  0  0
    0.8762    2.4749    5.1812 C   0  0  0  0  0  0  0  0  0  0  0  0
    1.2591    4.0824    2.5871 C   0  0  0  0  0  0  0  0  0  0  0  0
    1.8335    3.9769    1.3171 C   0  0  0  0  0  0  0  0  0  0  0  0
    3.0401    4.6169    1.3426 C   0  0  0  0  0  0  0  0  0  0  0  0
    3.2184    5.1060    2.5871 N   0  0  0  0  0  0  0  0  0  0  0  0
    1.9439    4.9932    4.3155 H   0  0  0  0  0  0  0  0  0  0  0  0
    2.0906    4.7621    3.3537 N   0  0  0  0  0  0  0  0  0  0  0  0
    3.8503    4.6962    0.2575 O   0  0  0  0  0  0  0  0  0  0  0  0
    3.3248    4.3663   -0.9398 C   0  0  0  0  0  0  0  0  0  0  0  0
    2.1466    3.7220   -1.0921 C   0  0  0  0  0  0  0  0  0  0  0  0
    1.2979    3.3010    0.0815 C   0  0  1  0  0  0  0  0  0  0  0  0
    0.2641    3.6040   -0.0846 H   0  0  0  0  0  0  0  0  0  0  0  0
    1.3685    1.8050    0.2492 C   0  0  0  0  0  0  0  0  0  0  0  0
    2.5794    1.1972    0.5260 C   0  0  0  0  0  0  0  0  0  0  0  0
    2.6476   -0.1749    0.6799 C   0  0  0  0  0  0  0  0  0  0  0  0
    1.5053   -0.9426    0.5574 C   0  0  0  0  0  0  0  0  0  0  0  0
    0.2895   -0.3354    0.2797 C   0  0  0  0  0  0  0  0  0  0  0  0
    0.2237    1.0420    0.1256 C   0  0  0  0  0  0  0  0  0  0  0  0
   -0.8353   -1.0883    0.1581 O   0  0  0  0  0  0  0  0  0  0  0  0
   -0.6928   -2.4998    0.3293 C   0  0  0  0  0  0  0  0  0  0  0  0
    1.6871    3.4282   -2.4162 C   0  0  0  0  0  0  0  0  0  0  0  0
    1.3227    3.1951   -3.4667 N   0  0  0  0  0  0  0  0  0  0  0  0
    4.0279    4.7038   -2.0695 N   0  0  0  0  0  0  0  0  0  0  0  0
   -4.4484    2.7390    2.5620 H   0  0  0  0  0  0  0  0  0  0  0  0
   -4.0134    4.3111    1.8495 H   0  0  0  0  0  0  0  0  0  0  0  0
   -3.6553    2.8057    0.9700 H   0  0  0  0  0  0  0  0  0  0  0  0
   -1.1260    4.2822    1.2948 H   0  0  0  0  0  0  0  0  0  0  0  0
    0.9233    3.2608    5.9349 H   0  0  0  0  0  0  0  0  0  0  0  0
    0.6248    1.5279    5.6589 H   0  0  0  0  0  0  0  0  0  0  0  0
    1.8437    2.3869    4.6869 H   0  0  0  0  0  0  0  0  0  0  0  0
    3.4733    1.7956    0.6222 H   0  0  0  0  0  0  0  0  0  0  0  0
    3.5945   -0.6473    0.8957 H   0  0  0  0  0  0  0  0  0  0  0  0
    1.5592   -2.0146    0.6772 H   0  0  0  0  0  0  0  0  0  0  0  0
   -0.7209    1.5167   -0.0950 H   0  0  0  0  0  0  0  0  0  0  0  0
   -1.6634   -2.9805    0.2071 H   0  0  0  0  0  0  0  0  0  0  0  0
    0.0014   -2.8880   -0.4161 H   0  0  0  0  0  0  0  0  0  0  0  0
   -0.3076   -2.7078    1.3276 H   0  0  0  0  0  0  0  0  0  0  0  0
    3.6757    4.4794   -2.9451 H   0  0  0  0  0  0  0  0  0  0  0  0
    4.8768    5.1668   -1.9923 H   0  0  0  0  0  0  0  0  0  0  0  0
  1  2  1  0  0  0  0
  1 30  1  0  0  0  0
  1 31  1  0  0  0  0
  1 32  1  0  0  0  0
  2  6  1  0  0  0  0
  2  3  2  0  0  0  0
  3  4  1  0  0  0  0
  3 33  1  0  0  0  0
  4  5  2  0  0  0  0
  4  8  1  0  0  0  0
  5  6  1  0  0  0  0
  5  7  1  0  0  0  0
  7 34  1  0  0  0  0
  7 35  1  0  0  0  0
  7 36  1  0  0  0  0
  8  9  2  0  0  0  0
  8 13  1  0  0  0  0
  9 17  1  0  0  0  0
  9 10  1  0  0  0  0
 10 14  1  0  0  0  0
 10 11  2  0  0  0  0
 11 13  1  0  0  0  0
 12 13  1  0  0  0  0
 14 15  1  0  0  0  0
 15 16  2  0  0  0  0
 15 29  1  0  0  0  0
 16 17  1  0  0  0  0
 16 27  1  0  0  0  0
 17 18  1  0  0  0  0
 17 19  1  0  0  0  0
 19 24  2  0  0  0  0
 19 20  1  0  0  0  0
 20 21  2  0  0  0  0
 20 37  1  0  0  0  0
 21 22  1  0  0  0  0
 21 38  1  0  0  0  0
 22 23  2  0  0  0  0
 22 39  1  0  0  0  0
 23 24  1  0  0  0  0
 23 25  1  0  0  0  0
 24 40  1  0  0  0  0
 25 26  1  0  0  0  0
 26 41  1  0  0  0  0
 26 42  1  0  0  0  0
 26 43  1  0  0  0  0
 27 28  3  0  0  0  0
 29 44  1  0  0  0  0
 29 45  1  0  0  0  0
M  END
$$$$
ZINC00721641
  -OEChem-08230709453D

 45 48  0     0  0  0  0  0  0999 V2000
   -7.8657    2.8727    4.5620 C   0  0  0  0  0  0  0  0  0  0  0  0
   -6.7040    3.8425    4.7876 C   0  0  0  0  0  0  0  0  0  0  0  0
   -5.5663    3.5059    3.8191 C   0  0  0  0  0  0  0  0  0  0  0  0
   -4.9539    2.1760    4.2521 C   0  0  0  0  0  0  0  0  0  0  0  0
   -5.1876    1.7092    5.4978 C   0  0  0  0  0  0  0  0  0  0  0  0
   -4.3140    0.1723    5.5837 S   0  0  0  0  0  0  0  0  0  0  0  0
   -3.6351    0.1602    3.9429 C   0  0  0  0  0  0  0  0  0  0  0  0
   -4.1134    1.3571    3.3813 C   0  0  0  0  0  0  0  0  0  0  0  0
   -3.7128    1.6139    2.0317 C   0  0  0  0  0  0  0  0  0  0  0  0
   -4.0792    2.6267    1.4607 O   0  0  0  0  0  0  0  0  0  0  0  0
   -2.9267    0.7221    1.4011 N   0  0  0  0  0  0  0  0  0  0  0  0
   -2.5116   -0.4192    2.0214 C   0  0  0  0  0  0  0  0  0  0  0  0
   -2.8609   -0.6785    3.2643 N   0  0  0  0  0  0  0  0  0  0  0  0
   -1.7144   -1.3070    1.3427 N   0  0  0  0  0  0  0  0  0  0  0  0
   -1.2933   -2.4531    1.9553 N   0  0  0  0  0  0  0  0  0  0  0  0
   -2.5137    0.9795    0.0193 C   0  0  0  0  0  0  0  0  0  0  0  0
   -1.2190    1.7506    0.0173 C   0  0  0  0  0  0  0  0  0  0  0  0
   -0.0126    1.0758    0.0080 C   0  0  0  0  0  0  0  0  0  0  0  0
    1.1750    1.7832    0.0004 C   0  0  0  0  0  0  0  0  0  0  0  0
    1.1563    3.1654    0.0076 C   0  0  0  0  0  0  0  0  0  0  0  0
   -0.0501    3.8402    0.0223 C   0  0  0  0  0  0  0  0  0  0  0  0
   -1.2377    3.1328    0.0299 C   0  0  0  0  0  0  0  0  0  0  0  0
   -6.0131    2.3767    6.5539 C   0  0  0  0  0  0  0  0  0  0  0  0
   -6.2493    3.7314    6.1390 O   0  0  0  0  0  0  0  0  0  0  0  0
   -7.1801    5.2732    4.5287 C   0  0  0  0  0  0  0  0  0  0  0  0
   -8.6813    3.1183    5.2421 H   0  0  0  0  0  0  0  0  0  0  0  0
   -8.2137    2.9559    3.5324 H   0  0  0  0  0  0  0  0  0  0  0  0
   -7.5297    1.8531    4.7507 H   0  0  0  0  0  0  0  0  0  0  0  0
   -5.9588    3.4183    2.8061 H   0  0  0  0  0  0  0  0  0  0  0  0
   -4.8091    4.2892    3.8540 H   0  0  0  0  0  0  0  0  0  0  0  0
   -1.4501   -1.1206    0.4282 H   0  0  0  0  0  0  0  0  0  0  0  0
   -2.0769   -2.9908    2.2942 H   0  0  0  0  0  0  0  0  0  0  0  0
   -0.7179   -3.0037    1.3358 H   0  0  0  0  0  0  0  0  0  0  0  0
   -3.2837    1.5610   -0.4877 H   0  0  0  0  0  0  0  0  0  0  0  0
   -2.3729    0.0317   -0.5003 H   0  0  0  0  0  0  0  0  0  0  0  0
    0.0021   -0.0041    0.0020 H   0  0  0  0  0  0  0  0  0  0  0  0
    2.1175    1.2560   -0.0115 H   0  0  0  0  0  0  0  0  0  0  0  0
    2.0841    3.7181    0.0014 H   0  0  0  0  0  0  0  0  0  0  0  0
   -0.0647    4.9201    0.0276 H   0  0  0  0  0  0  0  0  0  0  0  0
   -2.1802    3.6600    0.0410 H   0  0  0  0  0  0  0  0  0  0  0  0
   -6.9631    1.8539    6.6647 H   0  0  0  0  0  0  0  0  0  0  0  0
   -5.4753    2.3690    7.5020 H   0  0  0  0  0  0  0  0  0  0  0  0
   -6.3551    5.9662    4.6936 H   0  0  0  0  0  0  0  0  0  0  0  0
   -7.5271    5.3599    3.4990 H   0  0  0  0  0  0  0  0  0  0  0  0
   -7.9974    5.5129    5.2089 H   0  0  0  0  0  0  0  0  0  0  0  0
  1  2  1  0  0  0  0
  1 26  1  0  0  0  0
  1 27  1  0  0  0  0
  1 28  1  0  0  0  0
  2 24  1  0  0  0  0
  2  3  1  0  0  0  0
  2 25  1  0  0  0  0
  3  4  1  0  0  0  0
  3 29  1  0  0  0  0
  3 30  1  0  0  0  0
  4  8  1  0  0  0  0
  4  5  2  0  0  0  0
  5  6  1  0  0  0  0
  5 23  1  0  0  0  0
  6  7  1  0  0  0  0
  7 13  1  0  0  0  0
  7  8  2  0  0  0  0
  8  9  1  0  0  0  0
  9 10  2  0  0  0  0
  9 11  1  0  0  0  0
 11 12  1  0  0  0  0
 11 16  1  0  0  0  0
 12 13  2  0  0  0  0
 12 14  1  0  0  0  0
 14 15  1  0  0  0  0
 14 31  1  0  0  0  0
 15 32  1  0  0  0  0
 15 33  1  0  0  0  0
 16 17  1  0  0  0  0
 16 34  1  0  0  0  0
 16 35  1  0  0  0  0
 17 22  2  0  0  0  0
 17 18  1  0  0  0  0
 18 19  2  0  0  0  0
 18 36  1  0  0  0  0
 19 20  1  0  0  0  0
 19 37  1  0  0  0  0
 20 21  2  0  0  0  0
 20 38  1  0  0  0  0
 21 22  1  0  0  0  0
 21 39  1  0  0  0  0
 22 40  1  0  0  0  0
 23 24  1  0  0  0  0
 23 41  1  0  0  0  0
 23 42  1  0  0  0  0
 25 43  1  0  0  0  0
 25 44  1  0  0  0  0
 25 45  1  0  0  0  0
M  END
$$$$
ZINC00722719
  -OEChem-08230709453D

 46 48  0     0  0  0  0  0  0999 V2000
    2.4707   -5.6408   -2.3348 C   0  0  0  0  0  0  0  0  0  0  0  0
    1.1465   -5.4460   -1.8341 O   0  0  0  0  0  0  0  0  0  0  0  0
    0.8641   -4.2315   -1.2914 C   0  0  0  0  0  0  0  0  0  0  0  0
    1.8381   -3.2549   -1.2436 C   0  0  0  0  0  0  0  0  0  0  0  0
    1.5455   -2.0023   -0.6830 C   0  0  0  0  0  0  0  0  0  0  0  0
    0.2646   -1.7508   -0.1685 C   0  0  0  0  0  0  0  0  0  0  0  0
   -0.7044   -2.7319   -0.2256 C   0  0  0  0  0  0  0  0  0  0  0  0
   -0.4089   -3.9750   -0.7837 C   0  0  0  0  0  0  0  0  0  0  0  0
   -1.3642   -4.9390   -0.8333 O   0  0  0  0  0  0  0  0  0  0  0  0
   -1.9479   -2.4875    0.2676 O   0  0  0  0  0  0  0  0  0  0  0  0
   -2.1474   -1.2399    0.9352 C   0  0  0  0  0  0  0  0  0  0  0  0
    2.5744   -0.9642   -0.6295 C   0  0  0  0  0  0  0  0  0  0  0  0
    2.2833    0.3194   -1.0506 C   0  0  0  0  0  0  0  0  0  0  0  0
    3.2215    1.4365   -0.8241 C   0  0  0  0  0  0  0  0  0  0  0  0
    4.2826    1.2563   -0.2574 O   0  0  0  0  0  0  0  0  0  0  0  0
    2.8694    2.6627   -1.2626 N   0  0  0  0  0  0  0  0  0  0  0  0
    1.7033    2.8755   -1.8881 C   0  0  0  0  0  0  0  0  0  0  0  0
    1.4471    4.0044   -2.2580 O   0  0  0  0  0  0  0  0  0  0  0  0
    0.8044    1.9107   -2.1277 N   0  0  0  0  0  0  0  0  0  0  0  0
    1.0200    0.6348   -1.7464 C   0  0  0  0  0  0  0  0  0  0  0  0
    0.1961   -0.2319   -1.9693 O   0  0  0  0  0  0  0  0  0  0  0  0
   -0.4388    2.2484   -2.8253 C   0  0  0  0  0  0  0  0  0  0  0  0
   -1.4983    2.6109   -1.8168 C   0  0  0  0  0  0  0  0  0  0  0  0
   -2.2958    1.6241   -1.2679 C   0  0  0  0  0  0  0  0  0  0  0  0
   -3.2645    1.9547   -0.3394 C   0  0  0  0  0  0  0  0  0  0  0  0
   -3.4431    3.2762    0.0333 C   0  0  0  0  0  0  0  0  0  0  0  0
   -2.6473    4.2643   -0.5211 C   0  0  0  0  0  0  0  0  0  0  0  0
   -1.6757    3.9307   -1.4455 C   0  0  0  0  0  0  0  0  0  0  0  0
   -4.3929    3.6012    0.9374 F   0  0  0  0  0  0  0  0  0  0  0  0
    3.1885   -5.5076   -1.5254 H   0  0  0  0  0  0  0  0  0  0  0  0
    2.5617   -6.6490   -2.7389 H   0  0  0  0  0  0  0  0  0  0  0  0
    2.6719   -4.9143   -3.1221 H   0  0  0  0  0  0  0  0  0  0  0  0
    2.8239   -3.4546   -1.6368 H   0  0  0  0  0  0  0  0  0  0  0  0
    0.0360   -0.7896    0.2676 H   0  0  0  0  0  0  0  0  0  0  0  0
   -1.3844   -5.5131   -0.0554 H   0  0  0  0  0  0  0  0  0  0  0  0
   -1.4221   -1.1399    1.7427 H   0  0  0  0  0  0  0  0  0  0  0  0
   -2.0159   -0.4230    0.2256 H   0  0  0  0  0  0  0  0  0  0  0  0
   -3.1562   -1.2051    1.3465 H   0  0  0  0  0  0  0  0  0  0  0  0
    3.5616   -1.2008   -0.2610 H   0  0  0  0  0  0  0  0  0  0  0  0
    3.4742    3.4079   -1.1217 H   0  0  0  0  0  0  0  0  0  0  0  0
   -0.2643    3.0951   -3.4893 H   0  0  0  0  0  0  0  0  0  0  0  0
   -0.7719    1.3908   -3.4099 H   0  0  0  0  0  0  0  0  0  0  0  0
   -2.1590    0.5939   -1.5618 H   0  0  0  0  0  0  0  0  0  0  0  0
   -3.8847    1.1831    0.0924 H   0  0  0  0  0  0  0  0  0  0  0  0
   -2.7855    5.2954   -0.2309 H   0  0  0  0  0  0  0  0  0  0  0  0
   -1.0546    4.7012   -1.8778 H   0  0  0  0  0  0  0  0  0  0  0  0
  1  2  1  0  0  0  0
  1 30  1  0  0  0  0
  1 31  1  0  0  0  0
  1 32  1  0  0  0  0
  2  3  1  0  0  0  0
  3  8  2  0  0  0  0
  3  4  1  0  0  0  0
  4  5  2  0  0  0  0
  4 33  1  0  0  0  0
  5  6  1  0  0  0  0
  5 12  1  0  0  0  0
  6  7  2  0  0  0  0
  6 34  1  0  0  0  0
  7  8  1  0  0  0  0
  7 10  1  0  0  0  0
  8  9  1  0  0  0  0
  9 35  1  0  0  0  0
 10 11  1  0  0  0  0
 11 36  1  0  0  0  0
 11 37  1  0  0  0  0
 11 38  1  0  0  0  0
 12 13  2  0  0  0  0
 12 39  1  0  0  0  0
 13 20  1  0  0  0  0
 13 14  1  0  0  0  0
 14 15  2  0  0  0  0
 14 16  1  0  0  0  0
 16 17  1  0  0  0  0
 16 40  1  0  0  0  0
 17 18  2  0  0  0  0
 17 19  1  0  0  0  0
 19 20  1  0  0  0  0
 19 22  1  0  0  0  0
 20 21  2  0  0  0  0
 22 23  1  0  0  0  0
 22 41  1  0  0  0  0
 22 42  1  0  0  0  0
 23 28  2  0  0  0  0
 23 24  1  0  0  0  0
 24 25  2  0  0  0  0
 24 43  1  0  0  0  0
 25 26  1  0  0  0  0
 25 44  1  0  0  0  0
 26 27  2  0  0  0  0
 26 29  1  0  0  0  0
 27 28  1  0  0  0  0
 27 45  1  0  0  0  0
 28 46  1  0  0  0  0
M  END
$$$$
ZINC00724051
  -OEChem-08230709453D

 48 50  0     1  0  0  0  0  0999 V2000
   -0.7513    1.0244   -1.3305 C   0  0  0  0  0  0  0  0  0  0  0  0
   -0.0822    0.5770   -0.0293 C   0  0  0  0  0  0  0  0  0  0  0  0
   -0.6639    1.2790    1.0712 O   0  0  0  0  0  0  0  0  0  0  0  0
   -0.1787    0.9960    2.3098 C   0  0  0  0  0  0  0  0  0  0  0  0
    0.8346    0.0634    2.4622 C   0  0  0  0  0  0  0  0  0  0  0  0
    1.3267   -0.2230    3.7219 C   0  0  0  0  0  0  0  0  0  0  0  0
    0.8097    0.4192    4.8319 C   0  0  0  0  0  0  0  0  0  0  0  0
   -0.2014    1.3507    4.6867 C   0  0  0  0  0  0  0  0  0  0  0  0
   -0.6951    1.6467    3.4263 C   0  0  0  0  0  0  0  0  0  0  0  0
   -1.6859    2.5668    3.2812 O   0  0  0  0  0  0  0  0  0  0  0  0
   -2.9957    2.0706    2.9979 C   0  0  0  0  0  0  0  0  0  0  0  0
   -3.9365    3.2445    2.7191 C   0  0  0  0  0  0  0  0  0  0  0  0
   -0.7625    2.0487    5.8987 C   0  0  1  0  0  0  0  0  0  0  0  0
   -0.4218    1.5384    6.7996 H   0  0  0  0  0  0  0  0  0  0  0  0
   -0.2784    3.4723    5.9226 C   0  0  0  0  0  0  0  0  0  0  0  0
   -1.1238    4.5116    5.5652 C   0  0  0  0  0  0  0  0  0  0  0  0
   -0.6294    5.8146    5.6028 C   0  0  0  0  0  0  0  0  0  0  0  0
    0.6771    6.0245    5.9927 C   0  0  0  0  0  0  0  0  0  0  0  0
    1.4559    5.0123    6.3269 N   0  0  0  0  0  0  0  0  0  0  0  0
    1.0234    3.7611    6.3037 C   0  0  0  0  0  0  0  0  0  0  0  0
    1.8607    2.7532    6.6562 O   0  0  0  0  0  0  0  0  0  0  0  0
    1.2226    7.4284    6.0379 C   0  0  0  0  0  0  0  0  0  0  0  0
   -2.4003    4.2771    5.1888 O   0  0  0  0  0  0  0  0  0  0  0  0
   -2.9844    3.1064    5.4985 C   0  0  0  0  0  0  0  0  0  0  0  0
   -2.2644    2.0132    5.8436 C   0  0  0  0  0  0  0  0  0  0  0  0
   -2.9482    0.7962    6.1625 C   0  0  0  0  0  0  0  0  0  0  0  0
   -3.4908   -0.1694    6.4156 N   0  0  0  0  0  0  0  0  0  0  0  0
   -4.3536    3.0167    5.4633 N   0  0  0  0  0  0  0  0  0  0  0  0
   -1.8184    0.8067   -1.2839 H   0  0  0  0  0  0  0  0  0  0  0  0
   -0.6046    2.0961   -1.4647 H   0  0  0  0  0  0  0  0  0  0  0  0
   -0.3076    0.4889   -2.1699 H   0  0  0  0  0  0  0  0  0  0  0  0
   -0.2289   -0.4947    0.1050 H   0  0  0  0  0  0  0  0  0  0  0  0
    0.9848    0.7947   -0.0759 H   0  0  0  0  0  0  0  0  0  0  0  0
    1.2404   -0.4394    1.5969 H   0  0  0  0  0  0  0  0  0  0  0  0
    2.1168   -0.9498    3.8394 H   0  0  0  0  0  0  0  0  0  0  0  0
    1.1965    0.1925    5.8144 H   0  0  0  0  0  0  0  0  0  0  0  0
   -2.9568    1.4206    2.1238 H   0  0  0  0  0  0  0  0  0  0  0  0
   -3.3634    1.5059    3.8546 H   0  0  0  0  0  0  0  0  0  0  0  0
   -4.9569    2.8755    2.6146 H   0  0  0  0  0  0  0  0  0  0  0  0
   -3.8891    3.9526    3.5465 H   0  0  0  0  0  0  0  0  0  0  0  0
   -3.6338    3.7417    1.7975 H   0  0  0  0  0  0  0  0  0  0  0  0
   -1.2603    6.6477    5.3305 H   0  0  0  0  0  0  0  0  0  0  0  0
    2.3987    5.1956    6.6052 H   0  0  0  0  0  0  0  0  0  0  0  0
    1.6597    7.6797    5.0716 H   0  0  0  0  0  0  0  0  0  0  0  0
    0.4150    8.1250    6.2636 H   0  0  0  0  0  0  0  0  0  0  0  0
    1.9876    7.4963    6.8114 H   0  0  0  0  0  0  0  0  0  0  0  0
   -4.7935    2.1999    5.7466 H   0  0  0  0  0  0  0  0  0  0  0  0
   -4.8813    3.7701    5.1552 H   0  0  0  0  0  0  0  0  0  0  0  0
  1  2  1  0  0  0  0
  1 29  1  0  0  0  0
  1 30  1  0  0  0  0
  1 31  1  0  0  0  0
  2  3  1  0  0  0  0
  2 32  1  0  0  0  0
  2 33  1  0  0  0  0
  3  4  1  0  0  0  0
  4  9  2  0  0  0  0
  4  5  1  0  0  0  0
  5  6  2  0  0  0  0
  5 34  1  0  0  0  0
  6  7  1  0  0  0  0
  6 35  1  0  0  0  0
  7  8  2  0  0  0  0
  7 36  1  0  0  0  0
  8  9  1  0  0  0  0
  8 13  1  0  0  0  0
  9 10  1  0  0  0  0
 10 11  1  0  0  0  0
 11 12  1  0  0  0  0
 11 37  1  0  0  0  0
 11 38  1  0  0  0  0
 12 39  1  0  0  0  0
 12 40  1  0  0  0  0
 12 41  1  0  0  0  0
 13 14  1  0  0  0  0
 13 25  1  0  0  0  0
 13 15  1  0  0  0  0
 15 20  1  0  0  0  0
 15 16  2  0  0  0  0
 16 23  1  0  0  0  0
 16 17  1  0  0  0  0
 17 42  1  0  0  0  0
 17 18  2  0  0  0  0
 18 22  1  0  0  0  0
 18 19  1  0  0  0  0
 19 43  1  0  0  0  0
 19 20  1  0  0  0  0
 20 21  2  0  0  0  0
 22 44  1  0  0  0  0
 22 45  1  0  0  0  0
 22 46  1  0  0  0  0
 23 24  1  0  0  0  0
 24 25  2  0  0  0  0
 24 28  1  0  0  0  0
 25 26  1  0  0  0  0
 26 27  3  0  0  0  0
 28 47  1  0  0  0  0
 28 48  1  0  0  0  0
M  END
$$$$
ZINC00724051
  -OEChem-08230709453D

 48 50  0     1  0  0  0  0  0999 V2000
   -0.7127    1.1478   -1.0511 C   0  0  0  0  0  0  0  0  0  0  0  0
   -0.0711    0.6615    0.2499 C   0  0  0  0  0  0  0  0  0  0  0  0
   -0.5783    1.4257    1.3457 O   0  0  0  0  0  0  0  0  0  0  0  0
   -0.1064    1.1184    2.5836 C   0  0  0  0  0  0  0  0  0  0  0  0
    0.8243    0.1037    2.7397 C   0  0  0  0  0  0  0  0  0  0  0  0
    1.3029   -0.2074    3.9988 C   0  0  0  0  0  0  0  0  0  0  0  0
    0.8551    0.4918    5.1042 C   0  0  0  0  0  0  0  0  0  0  0  0
   -0.0732    1.5053    4.9554 C   0  0  0  0  0  0  0  0  0  0  0  0
   -0.5528    1.8260    3.6955 C   0  0  0  0  0  0  0  0  0  0  0  0
   -1.4618    2.8265    3.5468 O   0  0  0  0  0  0  0  0  0  0  0  0
   -2.8385    2.4483    3.4849 C   0  0  0  0  0  0  0  0  0  0  0  0
   -3.7051    3.7002    3.3358 C   0  0  0  0  0  0  0  0  0  0  0  0
   -0.5590    2.2653    6.1625 C   0  0  1  0  0  0  0  0  0  0  0  0
   -1.3978    2.9000    5.8765 H   0  0  0  0  0  0  0  0  0  0  0  0
   -1.0107    1.2917    7.2162 C   0  0  0  0  0  0  0  0  0  0  0  0
   -0.2245    1.0316    8.3188 C   0  0  0  0  0  0  0  0  0  0  0  0
   -0.6833    0.1099    9.2827 C   0  0  0  0  0  0  0  0  0  0  0  0
   -1.8773   -0.4978    9.1143 C   0  0  0  0  0  0  0  0  0  0  0  0
   -2.6474   -0.2341    8.0262 N   0  0  0  0  0  0  0  0  0  0  0  0
   -2.4999    1.5254    5.5186 H   0  0  0  0  0  0  0  0  0  0  0  0
   -2.2424    0.6378    7.0842 C   0  0  0  0  0  0  0  0  0  0  0  0
   -2.9491    0.8584    6.1130 O   0  0  0  0  0  0  0  0  0  0  0  0
   -2.3624   -1.4820   10.1474 C   0  0  0  0  0  0  0  0  0  0  0  0
    0.9675    1.6426    8.4852 O   0  0  0  0  0  0  0  0  0  0  0  0
    1.2442    2.7694    7.8057 C   0  0  0  0  0  0  0  0  0  0  0  0
    0.5557    3.1231    6.6950 C   0  0  0  0  0  0  0  0  0  0  0  0
    0.8964    4.3356    6.0134 C   0  0  0  0  0  0  0  0  0  0  0  0
    1.1667    5.2974    5.4727 N   0  0  0  0  0  0  0  0  0  0  0  0
    2.2546    3.5848    8.2510 N   0  0  0  0  0  0  0  0  0  0  0  0
   -1.7940    1.0239   -0.9915 H   0  0  0  0  0  0  0  0  0  0  0  0
   -0.4754    2.2009   -1.2019 H   0  0  0  0  0  0  0  0  0  0  0  0
   -0.3258    0.5649   -1.8871 H   0  0  0  0  0  0  0  0  0  0  0  0
   -0.3084   -0.3916    0.4007 H   0  0  0  0  0  0  0  0  0  0  0  0
    1.0102    0.7854    0.1902 H   0  0  0  0  0  0  0  0  0  0  0  0
    1.1759   -0.4438    1.8778 H   0  0  0  0  0  0  0  0  0  0  0  0
    2.0279   -0.9989    4.1191 H   0  0  0  0  0  0  0  0  0  0  0  0
    1.2317    0.2460    6.0861 H   0  0  0  0  0  0  0  0  0  0  0  0
   -2.9971    1.7925    2.6288 H   0  0  0  0  0  0  0  0  0  0  0  0
   -3.1126    1.9236    4.4002 H   0  0  0  0  0  0  0  0  0  0  0  0
   -4.7552    3.4117    3.2886 H   0  0  0  0  0  0  0  0  0  0  0  0
   -3.5466    4.3560    4.1919 H   0  0  0  0  0  0  0  0  0  0  0  0
   -3.4311    4.2249    2.4205 H   0  0  0  0  0  0  0  0  0  0  0  0
   -0.0817   -0.1090   10.1524 H   0  0  0  0  0  0  0  0  0  0  0  0
   -2.9403   -0.9559   10.9071 H   0  0  0  0  0  0  0  0  0  0  0  0
   -2.9909   -2.2322    9.6675 H   0  0  0  0  0  0  0  0  0  0  0  0
   -1.5068   -1.9697   10.6145 H   0  0  0  0  0  0  0  0  0  0  0  0
    2.4664    4.4008    7.7713 H   0  0  0  0  0  0  0  0  0  0  0  0
    2.7570    3.3448    9.0454 H   0  0  0  0  0  0  0  0  0  0  0  0
  1  2  1  0  0  0  0
  1 30  1  0  0  0  0
  1 31  1  0  0  0  0
  1 32  1  0  0  0  0
  2  3  1  0  0  0  0
  2 33  1  0  0  0  0
  2 34  1  0  0  0  0
  3  4  1  0  0  0  0
  4  9  2  0  0  0  0
  4  5  1  0  0  0  0
  5  6  2  0  0  0  0
  5 35  1  0  0  0  0
  6  7  1  0  0  0  0
  6 36  1  0  0  0  0
  7  8  2  0  0  0  0
  7 37  1  0  0  0  0
  8  9  1  0  0  0  0
  8 13  1  0  0  0  0
  9 10  1  0  0  0  0
 10 11  1  0  0  0  0
 11 12  1  0  0  0  0
 11 38  1  0  0  0  0
 11 39  1  0  0  0  0
 12 40  1  0  0  0  0
 12 41  1  0  0  0  0
 12 42  1  0  0  0  0
 13 14  1  0  0  0  0
 13 26  1  0  0  0  0
 13 15  1  0  0  0  0
 15 21  2  0  0  0  0
 15 16  1  0  0  0  0
 16 24  1  0  0  0  0
 16 17  2  0  0  0  0
 17 43  1  0  0  0  0
 17 18  1  0  0  0  0
 18 23  1  0  0  0  0
 18 19  2  0  0  0  0
 19 21  1  0  0  0  0
 20 22  1  0  0  0  0
 21 22  1  0  0  0  0
 23 44  1  0  0  0  0
 23 45  1  0  0  0  0
 23 46  1  0  0  0  0
 24 25  1  0  0  0  0
 25 26  2  0  0  0  0
 25 29  1  0  0  0  0
 26 27  1  0  0  0  0
 27 28  3  0  0  0  0
 29 47  1  0  0  0  0
 29 48  1  0  0  0  0
M  END
$$$$
ZINC00725532
  -OEChem-08230709453D

 39 40  0     0  0  0  0  0  0999 V2000
    5.6916   -9.9097    1.2910 C   0  0  0  0  0  0  0  0  0  0  0  0
    5.0855   -9.6836   -0.0955 C   0  0  0  0  0  0  0  0  0  0  0  0
    4.2010  -10.8758   -0.4661 C   0  0  0  0  0  0  0  0  0  0  0  0
    6.2078   -9.5414   -1.1257 C   0  0  0  0  0  0  0  0  0  0  0  0
    4.2543   -8.4266   -0.0814 C   0  0  0  0  0  0  0  0  0  0  0  0
    4.7424   -7.1180   -0.0854 C   0  0  0  0  0  0  0  0  0  0  0  0
    3.6198   -6.3080   -0.0649 C   0  0  0  0  0  0  0  0  0  0  0  0
    2.5429   -7.1484   -0.0591 N   0  0  0  0  0  0  0  0  0  0  0  0
    1.5859   -6.8587   -0.0487 H   0  0  0  0  0  0  0  0  0  0  0  0
    2.9471   -8.3675   -0.0690 N   0  0  0  0  0  0  0  0  0  0  0  0
    3.5922   -4.8372   -0.0572 C   0  0  0  0  0  0  0  0  0  0  0  0
    4.6343   -4.2091   -0.0642 O   0  0  0  0  0  0  0  0  0  0  0  0
    2.4127   -4.1854   -0.0425 N   0  0  0  0  0  0  0  0  0  0  0  0
    2.3864   -2.7847   -0.0352 N   0  0  0  0  0  0  0  0  0  0  0  0
    1.2501   -2.1568   -0.0210 C   0  0  0  0  0  0  0  0  0  0  0  0
    1.2224   -0.6835   -0.0133 C   0  0  0  0  0  0  0  0  0  0  0  0
    0.0021   -0.0041    0.0020 C   0  0  0  0  0  0  0  0  0  0  0  0
   -0.0166    1.3756    0.0096 C   0  0  0  0  0  0  0  0  0  0  0  0
    1.1703    2.0898    0.0021 C   0  0  0  0  0  0  0  0  0  0  0  0
    2.3838    1.4285   -0.0130 C   0  0  0  0  0  0  0  0  0  0  0  0
    2.4205    0.0438   -0.0208 C   0  0  0  0  0  0  0  0  0  0  0  0
    3.6128   -0.6065   -0.0361 O   0  0  0  0  0  0  0  0  0  0  0  0
   -1.6690    2.2950    0.0224 Br  0  0  0  0  0  0  0  0  0  0  0  0
    4.8921  -10.0110    2.0249 H   0  0  0  0  0  0  0  0  0  0  0  0
    6.2928  -10.8189    1.2808 H   0  0  0  0  0  0  0  0  0  0  0  0
    6.3218   -9.0604    1.5550 H   0  0  0  0  0  0  0  0  0  0  0  0
    3.7692  -10.7146   -1.4538 H   0  0  0  0  0  0  0  0  0  0  0  0
    4.8022  -11.7849   -0.4762 H   0  0  0  0  0  0  0  0  0  0  0  0
    3.4015  -10.9770    0.2679 H   0  0  0  0  0  0  0  0  0  0  0  0
    6.8379   -8.6921   -0.8617 H   0  0  0  0  0  0  0  0  0  0  0  0
    6.8089  -10.4506   -1.1359 H   0  0  0  0  0  0  0  0  0  0  0  0
    5.7759   -9.3803   -2.1135 H   0  0  0  0  0  0  0  0  0  0  0  0
    5.7759   -6.8046   -0.0992 H   0  0  0  0  0  0  0  0  0  0  0  0
    1.5819   -4.6862   -0.0369 H   0  0  0  0  0  0  0  0  0  0  0  0
    0.3251   -2.7143   -0.0148 H   0  0  0  0  0  0  0  0  0  0  0  0
   -0.9252   -0.5577    0.0082 H   0  0  0  0  0  0  0  0  0  0  0  0
    1.1472    3.1696    0.0077 H   0  0  0  0  0  0  0  0  0  0  0  0
    3.3049    1.9923   -0.0187 H   0  0  0  0  0  0  0  0  0  0  0  0
    3.9495   -0.7898   -0.9239 H   0  0  0  0  0  0  0  0  0  0  0  0
  1  2  1  0  0  0  0
  1 24  1  0  0  0  0
  1 25  1  0  0  0  0
  1 26  1  0  0  0  0
  2  3  1  0  0  0  0
  2  4  1  0  0  0  0
  2  5  1  0  0  0  0
  3 27  1  0  0  0  0
  3 28  1  0  0  0  0
  3 29  1  0  0  0  0
  4 30  1  0  0  0  0
  4 31  1  0  0  0  0
  4 32  1  0  0  0  0
  5 10  2  0  0  0  0
  5  6  1  0  0  0  0
  6  7  2  0  0  0  0
  6 33  1  0  0  0  0
  7  8  1  0  0  0  0
  7 11  1  0  0  0  0
  8  9  1  0  0  0  0
  8 10  1  0  0  0  0
 11 12  2  0  0  0  0
 11 13  1  0  0  0  0
 13 14  1  0  0  0  0
 13 34  1  0  0  0  0
 14 15  2  0  0  0  0
 15 16  1  0  0  0  0
 15 35  1  0  0  0  0
 16 21  2  0  0  0  0
 16 17  1  0  0  0  0
 17 18  2  0  0  0  0
 17 36  1  0  0  0  0
 18 19  1  0  0  0  0
 18 23  1  0  0  0  0
 19 20  2  0  0  0  0
 19 37  1  0  0  0  0
 20 21  1  0  0  0  0
 20 38  1  0  0  0  0
 21 22  1  0  0  0  0
 22 39  1  0  0  0  0
M  END
$$$$
ZINC00725532
  -OEChem-08230709453D

 39 40  0     0  0  0  0  0  0999 V2000
    5.6938   -9.9127    1.2796 C   0  0  0  0  0  0  0  0  0  0  0  0
    5.0853   -9.6836   -0.1054 C   0  0  0  0  0  0  0  0  0  0  0  0
    4.2002  -10.8749   -0.4771 C   0  0  0  0  0  0  0  0  0  0  0  0
    6.2059   -9.5391   -1.1372 C   0  0  0  0  0  0  0  0  0  0  0  0
    4.2542   -8.4266   -0.0871 C   0  0  0  0  0  0  0  0  0  0  0  0
    4.7423   -7.1180   -0.0891 C   0  0  0  0  0  0  0  0  0  0  0  0
    3.6198   -6.3080   -0.0649 C   0  0  0  0  0  0  0  0  0  0  0  0
    2.5430   -7.1484   -0.0496 N   0  0  0  0  0  0  0  0  0  0  0  0
    2.3437   -9.1649   -0.0565 H   0  0  0  0  0  0  0  0  0  0  0  0
    2.9472   -8.3675   -0.0632 N   0  0  0  0  0  0  0  0  0  0  0  0
    3.5922   -4.8372   -0.0572 C   0  0  0  0  0  0  0  0  0  0  0  0
    4.6343   -4.2091   -0.0642 O   0  0  0  0  0  0  0  0  0  0  0  0
    2.4127   -4.1854   -0.0425 N   0  0  0  0  0  0  0  0  0  0  0  0
    2.3864   -2.7847   -0.0352 N   0  0  0  0  0  0  0  0  0  0  0  0
    1.2501   -2.1568   -0.0210 C   0  0  0  0  0  0  0  0  0  0  0  0
    1.2224   -0.6835   -0.0133 C   0  0  0  0  0  0  0  0  0  0  0  0
    0.0021   -0.0041    0.0020 C   0  0  0  0  0  0  0  0  0  0  0  0
   -0.0166    1.3756    0.0096 C   0  0  0  0  0  0  0  0  0  0  0  0
    1.1703    2.0898    0.0021 C   0  0  0  0  0  0  0  0  0  0  0  0
    2.3838    1.4285   -0.0130 C   0  0  0  0  0  0  0  0  0  0  0  0
    2.4205    0.0438   -0.0208 C   0  0  0  0  0  0  0  0  0  0  0  0
    3.6128   -0.6065   -0.0361 O   0  0  0  0  0  0  0  0  0  0  0  0
   -1.6690    2.2950    0.0224 Br  0  0  0  0  0  0  0  0  0  0  0  0
    4.8956  -10.0156    2.0146 H   0  0  0  0  0  0  0  0  0  0  0  0
    6.2949  -10.8219    1.2663 H   0  0  0  0  0  0  0  0  0  0  0  0
    6.3245   -9.0640    1.5443 H   0  0  0  0  0  0  0  0  0  0  0  0
    3.7667  -10.7116   -1.4637 H   0  0  0  0  0  0  0  0  0  0  0  0
    4.8013  -11.7840   -0.4902 H   0  0  0  0  0  0  0  0  0  0  0  0
    3.4019  -10.9777    0.2580 H   0  0  0  0  0  0  0  0  0  0  0  0
    6.8365   -8.6904   -0.8724 H   0  0  0  0  0  0  0  0  0  0  0  0
    6.8069  -10.4483   -1.1504 H   0  0  0  0  0  0  0  0  0  0  0  0
    5.7723   -9.3759   -2.1239 H   0  0  0  0  0  0  0  0  0  0  0  0
    5.7758   -6.8046   -0.1059 H   0  0  0  0  0  0  0  0  0  0  0  0
    1.5819   -4.6862   -0.0369 H   0  0  0  0  0  0  0  0  0  0  0  0
    0.3251   -2.7143   -0.0148 H   0  0  0  0  0  0  0  0  0  0  0  0
   -0.9252   -0.5577    0.0082 H   0  0  0  0  0  0  0  0  0  0  0  0
    1.1472    3.1696    0.0077 H   0  0  0  0  0  0  0  0  0  0  0  0
    3.3049    1.9923   -0.0187 H   0  0  0  0  0  0  0  0  0  0  0  0
    3.9495   -0.7898   -0.9239 H   0  0  0  0  0  0  0  0  0  0  0  0
  1  2  1  0  0  0  0
  1 24  1  0  0  0  0
  1 25  1  0  0  0  0
  1 26  1  0  0  0  0
  2  3  1  0  0  0  0
  2  4  1  0  0  0  0
  2  5  1  0  0  0  0
  3 27  1  0  0  0  0
  3 28  1  0  0  0  0
  3 29  1  0  0  0  0
  4 30  1  0  0  0  0
  4 31  1  0  0  0  0
  4 32  1  0  0  0  0
  5  6  2  0  0  0  0
  5 10  1  0  0  0  0
  6 33  1  0  0  0  0
  6  7  1  0  0  0  0
  7 11  1  0  0  0  0
  7  8  2  0  0  0  0
  8 10  1  0  0  0  0
  9 10  1  0  0  0  0
 11 12  2  0  0  0  0
 11 13  1  0  0  0  0
 13 14  1  0  0  0  0
 13 34  1  0  0  0  0
 14 15  2  0  0  0  0
 15 16  1  0  0  0  0
 15 35  1  0  0  0  0
 16 21  2  0  0  0  0
 16 17  1  0  0  0  0
 17 18  2  0  0  0  0
 17 36  1  0  0  0  0
 18 19  1  0  0  0  0
 18 23  1  0  0  0  0
 19 20  2  0  0  0  0
 19 37  1  0  0  0  0
 20 21  1  0  0  0  0
 20 38  1  0  0  0  0
 21 22  1  0  0  0  0
 22 39  1  0  0  0  0
M  END
$$$$
ZINC00753986
  -OEChem-08230709453D

 43 46  0     0  0  0  0  0  0999 V2000
   -2.4352    3.2653    5.6229 C   0  0  0  0  0  0  0  0  0  0  0  0
   -3.7547    3.2045    5.0777 O   0  0  0  0  0  0  0  0  0  0  0  0
   -3.9742    2.2938    4.0944 C   0  0  0  0  0  0  0  0  0  0  0  0
   -2.9363    1.4749    3.6644 C   0  0  0  0  0  0  0  0  0  0  0  0
   -3.1517    0.5486    2.6678 C   0  0  0  0  0  0  0  0  0  0  0  0
   -4.4151    0.4307    2.0866 C   0  0  0  0  0  0  0  0  0  0  0  0
   -5.4585    1.2601    2.5165 C   0  0  0  0  0  0  0  0  0  0  0  0
   -5.2331    2.1835    3.5230 C   0  0  0  0  0  0  0  0  0  0  0  0
   -6.6888    1.1546    1.9521 O   0  0  0  0  0  0  0  0  0  0  0  0
   -4.6496   -0.5624    1.0161 C   0  0  0  0  0  0  0  0  0  0  0  0
   -3.7843   -0.6385   -0.0940 C   0  0  0  0  0  0  0  0  0  0  0  0
   -4.0551   -1.5903   -1.0765 C   0  0  0  0  0  0  0  0  0  0  0  0
   -5.0994   -2.3885   -0.9297 N   0  0  0  0  0  0  0  0  0  0  0  0
   -5.8932   -2.2908    0.1274 C   0  0  0  0  0  0  0  0  0  0  0  0
   -5.6813   -1.4007    1.0839 N   0  0  0  0  0  0  0  0  0  0  0  0
   -6.9768   -3.1452    0.2339 N   0  0  0  0  0  0  0  0  0  0  0  0
   -2.6218    0.2726   -0.2167 C   0  0  0  0  0  0  0  0  0  0  0  0
   -2.8081    1.6536   -0.1696 C   0  0  0  0  0  0  0  0  0  0  0  0
   -1.7252    2.4997   -0.2883 C   0  0  0  0  0  0  0  0  0  0  0  0
   -0.4471    1.9815   -0.4478 C   0  0  0  0  0  0  0  0  0  0  0  0
   -0.2550    0.6046   -0.4933 C   0  0  0  0  0  0  0  0  0  0  0  0
   -1.3396   -0.2489   -0.3791 C   0  0  0  0  0  0  0  0  0  0  0  0
    0.9915    0.0799   -0.6486 O   0  0  0  0  0  0  0  0  0  0  0  0
    2.0062    0.9650   -1.1351 C   0  0  0  0  0  0  0  0  0  0  0  0
    1.9103    2.2815   -0.3520 C   0  0  0  0  0  0  0  0  0  0  0  0
    0.6072    2.8351   -0.5639 O   0  0  0  0  0  0  0  0  0  0  0  0
   -2.1760    2.2990    6.0556 H   0  0  0  0  0  0  0  0  0  0  0  0
   -1.7263    3.5113    4.8323 H   0  0  0  0  0  0  0  0  0  0  0  0
   -2.3968    4.0319    6.3968 H   0  0  0  0  0  0  0  0  0  0  0  0
   -1.9582    1.5651    4.1133 H   0  0  0  0  0  0  0  0  0  0  0  0
   -2.3432   -0.0860    2.3362 H   0  0  0  0  0  0  0  0  0  0  0  0
   -6.0366    2.8216    3.8600 H   0  0  0  0  0  0  0  0  0  0  0  0
   -7.2722    0.5238    2.3956 H   0  0  0  0  0  0  0  0  0  0  0  0
   -3.4180   -1.6771   -1.9443 H   0  0  0  0  0  0  0  0  0  0  0  0
   -7.5674   -3.0861    1.0012 H   0  0  0  0  0  0  0  0  0  0  0  0
   -7.1458   -3.8030   -0.4586 H   0  0  0  0  0  0  0  0  0  0  0  0
   -3.8004    2.0608   -0.0430 H   0  0  0  0  0  0  0  0  0  0  0  0
   -1.8715    3.5691   -0.2515 H   0  0  0  0  0  0  0  0  0  0  0  0
   -1.1920   -1.3181   -0.4161 H   0  0  0  0  0  0  0  0  0  0  0  0
    2.9884    0.5174   -0.9830 H   0  0  0  0  0  0  0  0  0  0  0  0
    1.8496    1.1557   -2.1968 H   0  0  0  0  0  0  0  0  0  0  0  0
    2.0597    2.0889    0.7104 H   0  0  0  0  0  0  0  0  0  0  0  0
    2.6683    2.9782   -0.7100 H   0  0  0  0  0  0  0  0  0  0  0  0
  1  2  1  0  0  0  0
  1 27  1  0  0  0  0
  1 28  1  0  0  0  0
  1 29  1  0  0  0  0
  2  3  1  0  0  0  0
  3  8  2  0  0  0  0
  3  4  1  0  0  0  0
  4  5  2  0  0  0  0
  4 30  1  0  0  0  0
  5  6  1  0  0  0  0
  5 31  1  0  0  0  0
  6  7  2  0  0  0  0
  6 10  1  0  0  0  0
  7  8  1  0  0  0  0
  7  9  1  0  0  0  0
  8 32  1  0  0  0  0
  9 33  1  0  0  0  0
 10 15  2  0  0  0  0
 10 11  1  0  0  0  0
 11 12  2  0  0  0  0
 11 17  1  0  0  0  0
 12 13  1  0  0  0  0
 12 34  1  0  0  0  0
 13 14  2  0  0  0  0
 14 15  1  0  0  0  0
 14 16  1  0  0  0  0
 16 35  1  0  0  0  0
 16 36  1  0  0  0  0
 17 22  2  0  0  0  0
 17 18  1  0  0  0  0
 18 19  2  0  0  0  0
 18 37  1  0  0  0  0
 19 20  1  0  0  0  0
 19 38  1  0  0  0  0
 20 26  1  0  0  0  0
 20 21  2  0  0  0  0
 21 22  1  0  0  0  0
 21 23  1  0  0  0  0
 22 39  1  0  0  0  0
 23 24  1  0  0  0  0
 24 25  1  0  0  0  0
 24 40  1  0  0  0  0
 24 41  1  0  0  0  0
 25 26  1  0  0  0  0
 25 42  1  0  0  0  0
 25 43  1  0  0  0  0
M  END
$$$$
ZINC00754012
  -OEChem-08230709453D

 45 47  0     0  0  0  0  0  0999 V2000
    0.7338   10.9460    0.2017 C   0  0  0  0  0  0  0  0  0  0  0  0
    0.8014    9.4724   -0.2041 C   0  0  0  0  0  0  0  0  0  0  0  0
    0.9763    8.6068    1.0453 C   0  0  0  0  0  0  0  0  0  0  0  0
    1.0429    7.1553    0.6456 C   0  0  0  0  0  0  0  0  0  0  0  0
   -0.0927    6.3762    0.6956 C   0  0  0  0  0  0  0  0  0  0  0  0
   -0.0316    5.0308    0.3314 C   0  0  0  0  0  0  0  0  0  0  0  0
    1.1838    4.4801   -0.0949 C   0  0  0  0  0  0  0  0  0  0  0  0
    2.3173    5.2726   -0.1470 C   0  0  0  0  0  0  0  0  0  0  0  0
    2.2481    6.6081    0.2221 C   0  0  0  0  0  0  0  0  0  0  0  0
    3.3621    7.3833    0.1699 O   0  0  0  0  0  0  0  0  0  0  0  0
    4.5677    6.7575   -0.2740 C   0  0  0  0  0  0  0  0  0  0  0  0
    1.2496    3.1729   -0.4562 O   0  0  0  0  0  0  0  0  0  0  0  0
   -1.2473    4.1904    0.3893 C   0  0  0  0  0  0  0  0  0  0  0  0
   -1.5497    3.4452    1.5467 C   0  0  0  0  0  0  0  0  0  0  0  0
   -2.7055    2.6654    1.5449 C   0  0  0  0  0  0  0  0  0  0  0  0
   -3.4771    2.6597    0.4705 N   0  0  0  0  0  0  0  0  0  0  0  0
   -3.1636    3.3725   -0.6019 C   0  0  0  0  0  0  0  0  0  0  0  0
   -2.0753    4.1240   -0.6509 N   0  0  0  0  0  0  0  0  0  0  0  0
   -3.9999    3.3293   -1.7047 N   0  0  0  0  0  0  0  0  0  0  0  0
   -0.6596    3.4846    2.7316 C   0  0  0  0  0  0  0  0  0  0  0  0
   -1.1654    3.6827    3.9887 C   0  0  0  0  0  0  0  0  0  0  0  0
    0.3336    3.6236    4.9594 S   0  0  0  0  0  0  0  0  0  0  0  0
    1.4426    3.3520    3.6516 C   0  0  0  0  0  0  0  0  0  0  0  0
    0.6488    3.3239    2.6087 N   0  0  0  0  0  0  0  0  0  0  0  0
    2.9400    3.1896    3.7023 C   0  0  0  0  0  0  0  0  0  0  0  0
    0.6092   11.5627   -0.6884 H   0  0  0  0  0  0  0  0  0  0  0  0
   -0.1122   11.0999    0.8717 H   0  0  0  0  0  0  0  0  0  0  0  0
    1.6561   11.2253    0.7111 H   0  0  0  0  0  0  0  0  0  0  0  0
    1.6474    9.3185   -0.8740 H   0  0  0  0  0  0  0  0  0  0  0  0
   -0.1209    9.1931   -0.7134 H   0  0  0  0  0  0  0  0  0  0  0  0
    0.1303    8.7607    1.7152 H   0  0  0  0  0  0  0  0  0  0  0  0
    1.8986    8.8861    1.5547 H   0  0  0  0  0  0  0  0  0  0  0  0
   -1.0287    6.8059    1.0206 H   0  0  0  0  0  0  0  0  0  0  0  0
    3.2560    4.8510   -0.4749 H   0  0  0  0  0  0  0  0  0  0  0  0
    5.3785    7.4859   -0.2686 H   0  0  0  0  0  0  0  0  0  0  0  0
    4.8160    5.9325    0.3938 H   0  0  0  0  0  0  0  0  0  0  0  0
    4.4282    6.3766   -1.2857 H   0  0  0  0  0  0  0  0  0  0  0  0
    1.0092    3.0071   -1.3781 H   0  0  0  0  0  0  0  0  0  0  0  0
   -2.9693    2.0766    2.4110 H   0  0  0  0  0  0  0  0  0  0  0  0
   -3.7842    3.8450   -2.4975 H   0  0  0  0  0  0  0  0  0  0  0  0
   -4.8014    2.7833   -1.6846 H   0  0  0  0  0  0  0  0  0  0  0  0
   -2.1869    3.8326    4.3056 H   0  0  0  0  0  0  0  0  0  0  0  0
    3.2890    3.3554    4.7215 H   0  0  0  0  0  0  0  0  0  0  0  0
    3.2070    2.1812    3.3863 H   0  0  0  0  0  0  0  0  0  0  0  0
    3.4069    3.9148    3.0359 H   0  0  0  0  0  0  0  0  0  0  0  0
  1  2  1  0  0  0  0
  1 26  1  0  0  0  0
  1 27  1  0  0  0  0
  1 28  1  0  0  0  0
  2  3  1  0  0  0  0
  2 29  1  0  0  0  0
  2 30  1  0  0  0  0
  3  4  1  0  0  0  0
  3 31  1  0  0  0  0
  3 32  1  0  0  0  0
  4  9  2  0  0  0  0
  4  5  1  0  0  0  0
  5  6  2  0  0  0  0
  5 33  1  0  0  0  0
  6  7  1  0  0  0  0
  6 13  1  0  0  0  0
  7  8  2  0  0  0  0
  7 12  1  0  0  0  0
  8  9  1  0  0  0  0
  8 34  1  0  0  0  0
  9 10  1  0  0  0  0
 10 11  1  0  0  0  0
 11 35  1  0  0  0  0
 11 36  1  0  0  0  0
 11 37  1  0  0  0  0
 12 38  1  0  0  0  0
 13 18  2  0  0  0  0
 13 14  1  0  0  0  0
 14 15  2  0  0  0  0
 14 20  1  0  0  0  0
 15 16  1  0  0  0  0
 15 39  1  0  0  0  0
 16 17  2  0  0  0  0
 17 18  1  0  0  0  0
 17 19  1  0  0  0  0
 19 40  1  0  0  0  0
 19 41  1  0  0  0  0
 20 24  1  0  0  0  0
 20 21  2  0  0  0  0
 21 22  1  0  0  0  0
 21 42  1  0  0  0  0
 22 23  1  0  0  0  0
 23 24  2  0  0  0  0
 23 25  1  0  0  0  0
 25 43  1  0  0  0  0
 25 44  1  0  0  0  0
 25 45  1  0  0  0  0
M  END
$$$$
ZINC00759645
  -OEChem-08230709453D

 40 42  0     1  0  0  0  0  0999 V2000
    0.6281   -2.9614   -6.0785 C   0  0  0  0  0  0  0  0  0  0  0  0
    0.2515   -2.4713   -4.7900 O   0  0  0  0  0  0  0  0  0  0  0  0
    1.0652   -2.7872   -3.7473 C   0  0  0  0  0  0  0  0  0  0  0  0
    2.2021   -3.5526   -3.9619 C   0  0  0  0  0  0  0  0  0  0  0  0
    3.0286   -3.8734   -2.9029 C   0  0  0  0  0  0  0  0  0  0  0  0
    2.7250   -3.4251   -1.6256 C   0  0  0  0  0  0  0  0  0  0  0  0
    1.5857   -2.6644   -1.4103 C   0  0  0  0  0  0  0  0  0  0  0  0
    0.7587   -2.3439   -2.4696 C   0  0  0  0  0  0  0  0  0  0  0  0
    1.2529   -2.1822   -0.0219 C   0  0  1  0  0  0  0  0  0  0  0  0
    2.0199   -2.5275    0.6713 H   0  0  0  0  0  0  0  0  0  0  0  0
    1.2135   -0.6770   -0.0127 C   0  0  0  0  0  0  0  0  0  0  0  0
    2.4004    0.0346   -0.0196 C   0  0  0  0  0  0  0  0  0  0  0  0
    2.3837    1.4161   -0.0121 C   0  0  0  0  0  0  0  0  0  0  0  0
    1.1722    2.0950    0.0021 C   0  0  0  0  0  0  0  0  0  0  0  0
   -0.0168    1.3850    0.0097 C   0  0  0  0  0  0  0  0  0  0  0  0
    0.0021   -0.0041    0.0020 C   0  0  0  0  0  0  0  0  0  0  0  0
   -1.1713   -0.6839    0.0096 O   0  0  0  0  0  0  0  0  0  0  0  0
   -1.1965   -1.9736    0.3844 C   0  0  0  0  0  0  0  0  0  0  0  0
   -0.0798   -2.7395    0.3925 C   0  0  0  0  0  0  0  0  0  0  0  0
   -0.1708   -4.1081    0.8039 C   0  0  0  0  0  0  0  0  0  0  0  0
   -0.2429   -5.1938    1.1302 N   0  0  0  0  0  0  0  0  0  0  0  0
   -2.3894   -2.5313    0.7718 N   0  0  0  0  0  0  0  0  0  0  0  0
    1.1535    3.4541    0.0097 O   0  0  0  0  0  0  0  0  0  0  0  0
    3.8762    2.3028   -0.0218 Cl  0  0  0  0  0  0  0  0  0  0  0  0
    3.5419   -3.7360   -0.5839 O   0  0  0  0  0  0  0  0  0  0  0  0
    4.6980   -4.5227   -0.8784 C   0  0  0  0  0  0  0  0  0  0  0  0
    0.6661   -4.0505   -6.0561 H   0  0  0  0  0  0  0  0  0  0  0  0
   -0.1043   -2.6385   -6.8183 H   0  0  0  0  0  0  0  0  0  0  0  0
    1.6098   -2.5690   -6.3437 H   0  0  0  0  0  0  0  0  0  0  0  0
    2.4408   -3.8978   -4.9570 H   0  0  0  0  0  0  0  0  0  0  0  0
    3.9135   -4.4695   -3.0698 H   0  0  0  0  0  0  0  0  0  0  0  0
   -0.1266   -1.7483   -2.3025 H   0  0  0  0  0  0  0  0  0  0  0  0
    3.3433   -0.4919   -0.0312 H   0  0  0  0  0  0  0  0  0  0  0  0
   -0.9596    1.9116    0.0170 H   0  0  0  0  0  0  0  0  0  0  0  0
   -2.4237   -3.4611    1.0460 H   0  0  0  0  0  0  0  0  0  0  0  0
   -3.1980   -1.9956    0.7713 H   0  0  0  0  0  0  0  0  0  0  0  0
    1.1566    3.8426    0.8952 H   0  0  0  0  0  0  0  0  0  0  0  0
    4.3890   -5.4777   -1.3033 H   0  0  0  0  0  0  0  0  0  0  0  0
    5.3256   -3.9923   -1.5946 H   0  0  0  0  0  0  0  0  0  0  0  0
    5.2612   -4.6981    0.0382 H   0  0  0  0  0  0  0  0  0  0  0  0
  1  2  1  0  0  0  0
  1 27  1  0  0  0  0
  1 28  1  0  0  0  0
  1 29  1  0  0  0  0
  2  3  1  0  0  0  0
  3  8  2  0  0  0  0
  3  4  1  0  0  0  0
  4  5  2  0  0  0  0
  4 30  1  0  0  0  0
  5  6  1  0  0  0  0
  5 31  1  0  0  0  0
  6  7  2  0  0  0  0
  6 25  1  0  0  0  0
  7  8  1  0  0  0  0
  7  9  1  0  0  0  0
  8 32  1  0  0  0  0
  9 10  1  0  0  0  0
  9 19  1  0  0  0  0
  9 11  1  0  0  0  0
 11 16  2  0  0  0  0
 11 12  1  0  0  0  0
 12 13  2  0  0  0  0
 12 33  1  0  0  0  0
 13 14  1  0  0  0  0
 13 24  1  0  0  0  0
 14 15  2  0  0  0  0
 14 23  1  0  0  0  0
 15 16  1  0  0  0  0
 15 34  1  0  0  0  0
 16 17  1  0  0  0  0
 17 18  1  0  0  0  0
 18 19  2  0  0  0  0
 18 22  1  0  0  0  0
 19 20  1  0  0  0  0
 20 21  3  0  0  0  0
 22 35  1  0  0  0  0
 22 36  1  0  0  0  0
 23 37  1  0  0  0  0
 25 26  1  0  0  0  0
 26 38  1  0  0  0  0
 26 39  1  0  0  0  0
 26 40  1  0  0  0  0
M  END
$$$$
ZINC00759646
  -OEChem-08230709453D

 40 42  0     1  0  0  0  0  0999 V2000
   -3.6000    1.8189    0.0290 C   0  0  0  0  0  0  0  0  0  0  0  0
   -2.3911    1.0570    0.0192 O   0  0  0  0  0  0  0  0  0  0  0  0
   -1.2228    1.7528    0.0174 C   0  0  0  0  0  0  0  0  0  0  0  0
   -1.2416    3.1398    0.0303 C   0  0  0  0  0  0  0  0  0  0  0  0
   -0.0551    3.8466    0.0223 C   0  0  0  0  0  0  0  0  0  0  0  0
    1.1555    3.1694    0.0076 C   0  0  0  0  0  0  0  0  0  0  0  0
    1.1743    1.7828    0.0004 C   0  0  0  0  0  0  0  0  0  0  0  0
   -0.0126    1.0758    0.0080 C   0  0  0  0  0  0  0  0  0  0  0  0
    2.4895    1.0471   -0.0161 C   0  0  2  0  0  0  0  0  0  0  0  0
    3.3066    1.7685   -0.0200 H   0  0  0  0  0  0  0  0  0  0  0  0
    2.5694    0.1961   -1.2557 C   0  0  0  0  0  0  0  0  0  0  0  0
    2.8424    0.7927   -2.4742 C   0  0  0  0  0  0  0  0  0  0  0  0
    2.9198    0.0276   -3.6220 C   0  0  0  0  0  0  0  0  0  0  0  0
    2.7231   -1.3456   -3.5547 C   0  0  0  0  0  0  0  0  0  0  0  0
    2.4496   -1.9448   -2.3365 C   0  0  0  0  0  0  0  0  0  0  0  0
    2.3719   -1.1737   -1.1836 C   0  0  0  0  0  0  0  0  0  0  0  0
    2.1029   -1.7763    0.0012 O   0  0  0  0  0  0  0  0  0  0  0  0
    2.3985   -1.1513    1.1530 C   0  0  0  0  0  0  0  0  0  0  0  0
    2.5928    0.1846    1.2102 C   0  0  0  0  0  0  0  0  0  0  0  0
    2.9042    0.7903    2.4699 C   0  0  0  0  0  0  0  0  0  0  0  0
    3.1512    1.2708    3.4692 N   0  0  0  0  0  0  0  0  0  0  0  0
    2.5054   -1.8916    2.3040 N   0  0  0  0  0  0  0  0  0  0  0  0
    2.7994   -2.1003   -4.6826 O   0  0  0  0  0  0  0  0  0  0  0  0
    3.2620    0.7823   -5.1474 Cl  0  0  0  0  0  0  0  0  0  0  0  0
    2.3238    3.8653   -0.0003 O   0  0  0  0  0  0  0  0  0  0  0  0
    2.2296    5.2912    0.0078 C   0  0  0  0  0  0  0  0  0  0  0  0
   -3.6376    2.4521   -0.8574 H   0  0  0  0  0  0  0  0  0  0  0  0
   -4.4553    1.1432    0.0294 H   0  0  0  0  0  0  0  0  0  0  0  0
   -3.6292    2.4425    0.9225 H   0  0  0  0  0  0  0  0  0  0  0  0
   -2.1841    3.6670    0.0421 H   0  0  0  0  0  0  0  0  0  0  0  0
   -0.0697    4.9265    0.0278 H   0  0  0  0  0  0  0  0  0  0  0  0
    0.0021   -0.0041    0.0020 H   0  0  0  0  0  0  0  0  0  0  0  0
    2.9951    1.8605   -2.5281 H   0  0  0  0  0  0  0  0  0  0  0  0
    2.2967   -3.0125   -2.2827 H   0  0  0  0  0  0  0  0  0  0  0  0
    2.3681   -2.8515    2.2778 H   0  0  0  0  0  0  0  0  0  0  0  0
    2.7183   -1.4548    3.1435 H   0  0  0  0  0  0  0  0  0  0  0  0
    3.6864   -2.4358   -4.8721 H   0  0  0  0  0  0  0  0  0  0  0  0
    1.7017    5.6154    0.9046 H   0  0  0  0  0  0  0  0  0  0  0  0
    3.2311    5.7215    0.0002 H   0  0  0  0  0  0  0  0  0  0  0  0
    1.6844    5.6243   -0.8753 H   0  0  0  0  0  0  0  0  0  0  0  0
  1  2  1  0  0  0  0
  1 27  1  0  0  0  0
  1 28  1  0  0  0  0
  1 29  1  0  0  0  0
  2  3  1  0  0  0  0
  3  8  2  0  0  0  0
  3  4  1  0  0  0  0
  4  5  2  0  0  0  0
  4 30  1  0  0  0  0
  5  6  1  0  0  0  0
  5 31  1  0  0  0  0
  6  7  2  0  0  0  0
  6 25  1  0  0  0  0
  7  8  1  0  0  0  0
  7  9  1  0  0  0  0
  8 32  1  0  0  0  0
  9 10  1  0  0  0  0
  9 19  1  0  0  0  0
  9 11  1  0  0  0  0
 11 16  2  0  0  0  0
 11 12  1  0  0  0  0
 12 13  2  0  0  0  0
 12 33  1  0  0  0  0
 13 14  1  0  0  0  0
 13 24  1  0  0  0  0
 14 15  2  0  0  0  0
 14 23  1  0  0  0  0
 15 16  1  0  0  0  0
 15 34  1  0  0  0  0
 16 17  1  0  0  0  0
 17 18  1  0  0  0  0
 18 19  2  0  0  0  0
 18 22  1  0  0  0  0
 19 20  1  0  0  0  0
 20 21  3  0  0  0  0
 22 35  1  0  0  0  0
 22 36  1  0  0  0  0
 23 37  1  0  0  0  0
 25 26  1  0  0  0  0
 26 38  1  0  0  0  0
 26 39  1  0  0  0  0
 26 40  1  0  0  0  0
M  END
$$$$
ZINC00761983
  -OEChem-08230709453D

 48 51  0     0  0  0  0  0  0999 V2000
   -3.6592    0.5303    0.0411 C   0  0  0  0  0  0  0  0  0  0  0  0
   -2.1551    0.6225    0.0267 C   0  0  0  0  0  0  0  0  0  0  0  0
   -1.4402    1.7841    0.0313 C   0  0  0  0  0  0  0  0  0  0  0  0
   -0.0170    1.3995    0.0097 C   0  0  0  0  0  0  0  0  0  0  0  0
    1.1777    2.1154    0.0022 C   0  0  0  0  0  0  0  0  0  0  0  0
    2.3812    1.4361   -0.0125 C   0  0  0  0  0  0  0  0  0  0  0  0
    2.3991    0.0444   -0.0206 C   0  0  0  0  0  0  0  0  0  0  0  0
    1.2226   -0.6716   -0.0132 C   0  0  0  0  0  0  0  0  0  0  0  0
    0.0021   -0.0041    0.0020 C   0  0  0  0  0  0  0  0  0  0  0  0
   -1.3100   -0.4357    0.0127 N   0  0  0  0  0  0  0  0  0  0  0  0
   -1.7283   -1.8397    0.0093 C   0  0  0  0  0  0  0  0  0  0  0  0
   -1.8582   -2.3285    1.4289 C   0  0  0  0  0  0  0  0  0  0  0  0
   -2.9394   -2.2998    2.2459 C   0  0  0  0  0  0  0  0  0  0  0  0
   -2.8276   -2.8146    3.5239 C   0  0  0  0  0  0  0  0  0  0  0  0
   -1.6372   -3.3233    3.9259 C   0  0  0  0  0  0  0  0  0  0  0  0
   -0.6260   -3.0886    2.4734 S   0  0  0  0  0  0  0  0  0  0  0  0
    3.5510    2.1292   -0.0191 O   0  0  0  0  0  0  0  0  0  0  0  0
   -1.9817    3.1495    0.0465 C   0  0  0  0  0  0  0  0  0  0  0  0
   -2.2208    3.7208   -1.0009 O   0  0  0  0  0  0  0  0  0  0  0  0
   -2.2138    3.7694    1.2205 N   0  0  0  0  0  0  0  0  0  0  0  0
   -1.9359    3.0903    2.4934 C   0  0  0  0  0  0  0  0  0  0  0  0
   -3.1915    3.1293    3.3626 C   0  0  0  0  0  0  0  0  0  0  0  0
   -3.6609    4.5783    3.5122 C   0  0  0  0  0  0  0  0  0  0  0  0
   -4.0067    5.1490    2.1349 C   0  0  0  0  0  0  0  0  0  0  0  0
   -2.7551    5.1350    1.2518 C   0  0  0  0  0  0  0  0  0  0  0  0
   -4.8184    4.6198    4.3491 O   0  0  0  0  0  0  0  0  0  0  0  0
   -4.0117    0.5026    1.0722 H   0  0  0  0  0  0  0  0  0  0  0  0
   -4.0813    1.3992   -0.4639 H   0  0  0  0  0  0  0  0  0  0  0  0
   -3.9726   -0.3774   -0.4745 H   0  0  0  0  0  0  0  0  0  0  0  0
    1.1637    3.1953    0.0085 H   0  0  0  0  0  0  0  0  0  0  0  0
    3.3439   -0.4787   -0.0325 H   0  0  0  0  0  0  0  0  0  0  0  0
    1.2475   -1.7512   -0.0196 H   0  0  0  0  0  0  0  0  0  0  0  0
   -2.6898   -1.9311   -0.4959 H   0  0  0  0  0  0  0  0  0  0  0  0
   -0.9840   -2.4393   -0.5148 H   0  0  0  0  0  0  0  0  0  0  0  0
   -3.8749   -1.8836    1.9026 H   0  0  0  0  0  0  0  0  0  0  0  0
   -3.6748   -2.8075    4.1937 H   0  0  0  0  0  0  0  0  0  0  0  0
   -1.3699   -3.7580    4.8777 H   0  0  0  0  0  0  0  0  0  0  0  0
    3.8814    2.3347   -0.9043 H   0  0  0  0  0  0  0  0  0  0  0  0
   -1.6581    2.0539    2.3015 H   0  0  0  0  0  0  0  0  0  0  0  0
   -1.1218    3.5996    3.0092 H   0  0  0  0  0  0  0  0  0  0  0  0
   -2.9677    2.7161    4.3460 H   0  0  0  0  0  0  0  0  0  0  0  0
   -3.9768    2.5396    2.8897 H   0  0  0  0  0  0  0  0  0  0  0  0
   -2.8658    5.1727    3.9623 H   0  0  0  0  0  0  0  0  0  0  0  0
   -4.3631    6.1733    2.2446 H   0  0  0  0  0  0  0  0  0  0  0  0
   -4.7843    4.5402    1.6736 H   0  0  0  0  0  0  0  0  0  0  0  0
   -2.0092    5.8144    1.6642 H   0  0  0  0  0  0  0  0  0  0  0  0
   -3.0176    5.4472    0.2410 H   0  0  0  0  0  0  0  0  0  0  0  0
   -4.6724    4.2727    5.2398 H   0  0  0  0  0  0  0  0  0  0  0  0
  1  2  1  0  0  0  0
  1 27  1  0  0  0  0
  1 28  1  0  0  0  0
  1 29  1  0  0  0  0
  2 10  1  0  0  0  0
  2  3  2  0  0  0  0
  3  4  1  0  0  0  0
  3 18  1  0  0  0  0
  4  9  2  0  0  0  0
  4  5  1  0  0  0  0
  5  6  2  0  0  0  0
  5 30  1  0  0  0  0
  6  7  1  0  0  0  0
  6 17  1  0  0  0  0
  7  8  2  0  0  0  0
  7 31  1  0  0  0  0
  8  9  1  0  0  0  0
  8 32  1  0  0  0  0
  9 10  1  0  0  0  0
 10 11  1  0  0  0  0
 11 12  1  0  0  0  0
 11 33  1  0  0  0  0
 11 34  1  0  0  0  0
 12 16  1  0  0  0  0
 12 13  2  0  0  0  0
 13 14  1  0  0  0  0
 13 35  1  0  0  0  0
 14 15  2  0  0  0  0
 14 36  1  0  0  0  0
 15 16  1  0  0  0  0
 15 37  1  0  0  0  0
 17 38  1  0  0  0  0
 18 19  2  0  0  0  0
 18 20  1  0  0  0  0
 20 25  1  0  0  0  0
 20 21  1  0  0  0  0
 21 22  1  0  0  0  0
 21 39  1  0  0  0  0
 21 40  1  0  0  0  0
 22 23  1  0  0  0  0
 22 41  1  0  0  0  0
 22 42  1  0  0  0  0
 23 24  1  0  0  0  0
 23 26  1  0  0  0  0
 23 43  1  0  0  0  0
 24 25  1  0  0  0  0
 24 44  1  0  0  0  0
 24 45  1  0  0  0  0
 25 46  1  0  0  0  0
 25 47  1  0  0  0  0
 26 48  1  0  0  0  0
M  END
$$$$
ZINC00762712
  -OEChem-08230709453D

 48 51  0     1  0  0  0  0  0999 V2000
   -2.5484    1.6815    0.0223 C   0  0  0  0  0  0  0  0  0  0  0  0
   -1.1403    2.2184    0.0190 C   0  0  0  0  0  0  0  0  0  0  0  0
   -0.8048    3.5405    0.0274 C   0  0  0  0  0  0  0  0  0  0  0  0
    0.6685    3.5982    0.0141 C   0  0  0  0  0  0  0  0  0  0  0  0
    1.5951    4.6381    0.0107 C   0  0  0  0  0  0  0  0  0  0  0  0
    2.9465    4.3489   -0.0031 C   0  0  0  0  0  0  0  0  0  0  0  0
    3.3790    3.0260   -0.0130 C   0  0  0  0  0  0  0  0  0  0  0  0
    2.4698    1.9916   -0.0102 C   0  0  0  0  0  0  0  0  0  0  0  0
    1.1057    2.2644    0.0037 C   0  0  0  0  0  0  0  0  0  0  0  0
   -0.0178    1.4608    0.0101 N   0  0  0  0  0  0  0  0  0  0  0  0
    0.0021   -0.0041    0.0020 C   0  0  0  0  0  0  0  0  0  0  0  0
    0.0218   -0.5140    1.4200 C   0  0  0  0  0  0  0  0  0  0  0  0
   -1.0589   -0.7899    2.1719 C   0  0  0  0  0  0  0  0  0  0  0  0
   -0.5823   -1.2407    3.4243 C   0  0  0  0  0  0  0  0  0  0  0  0
    0.7611   -1.2054    3.3657 C   0  0  0  0  0  0  0  0  0  0  0  0
    1.1214   -0.7645    2.1493 O   0  0  0  0  0  0  0  0  0  0  0  0
    3.8561    5.3596   -0.0066 O   0  0  0  0  0  0  0  0  0  0  0  0
   -1.7292    4.6819    0.0407 C   0  0  0  0  0  0  0  0  0  0  0  0
   -2.1213    5.1594   -1.0075 O   0  0  0  0  0  0  0  0  0  0  0  0
   -2.1430    5.2004    1.2139 N   0  0  0  0  0  0  0  0  0  0  0  0
   -1.7536    4.7179    2.5514 C   0  0  0  0  0  0  0  0  0  0  0  0
   -2.8979    5.1722    3.4880 C   0  0  0  0  0  0  0  0  0  0  0  0
   -3.2667    6.5538    2.8860 C   0  0  0  0  0  0  0  0  0  0  0  0
   -3.0624    6.3367    1.3718 C   0  0  1  0  0  0  0  0  0  0  0  0
   -4.0173    6.1096    0.8977 H   0  0  0  0  0  0  0  0  0  0  0  0
   -2.4535    7.5904    0.7406 C   0  0  0  0  0  0  0  0  0  0  0  0
   -1.2750    7.9609    1.4588 O   0  0  0  0  0  0  0  0  0  0  0  0
   -2.8834    1.5467    1.0508 H   0  0  0  0  0  0  0  0  0  0  0  0
   -3.2072    2.3863   -0.4849 H   0  0  0  0  0  0  0  0  0  0  0  0
   -2.5731    0.7232   -0.4964 H   0  0  0  0  0  0  0  0  0  0  0  0
    1.2595    5.6646    0.0184 H   0  0  0  0  0  0  0  0  0  0  0  0
    4.4369    2.8088   -0.0234 H   0  0  0  0  0  0  0  0  0  0  0  0
    2.8158    0.9685   -0.0183 H   0  0  0  0  0  0  0  0  0  0  0  0
   -0.8875   -0.3767   -0.5057 H   0  0  0  0  0  0  0  0  0  0  0  0
    0.8922   -0.3525   -0.5218 H   0  0  0  0  0  0  0  0  0  0  0  0
   -2.0923   -0.6888    1.8750 H   0  0  0  0  0  0  0  0  0  0  0  0
   -1.1818   -1.5499    4.2677 H   0  0  0  0  0  0  0  0  0  0  0  0
    1.4356   -1.4841    4.1618 H   0  0  0  0  0  0  0  0  0  0  0  0
    4.1273    5.6477    0.8758 H   0  0  0  0  0  0  0  0  0  0  0  0
   -1.6701    3.6311    2.5532 H   0  0  0  0  0  0  0  0  0  0  0  0
   -0.8117    5.1721    2.8592 H   0  0  0  0  0  0  0  0  0  0  0  0
   -2.5472    5.2745    4.5150 H   0  0  0  0  0  0  0  0  0  0  0  0
   -3.7413    4.4839    3.4321 H   0  0  0  0  0  0  0  0  0  0  0  0
   -2.5961    7.3282    3.2585 H   0  0  0  0  0  0  0  0  0  0  0  0
   -4.3044    6.8073    3.1027 H   0  0  0  0  0  0  0  0  0  0  0  0
   -2.1963    7.3856   -0.2987 H   0  0  0  0  0  0  0  0  0  0  0  0
   -3.1758    8.4056    0.7823 H   0  0  0  0  0  0  0  0  0  0  0  0
   -0.8353    8.7497    1.1130 H   0  0  0  0  0  0  0  0  0  0  0  0
  1  2  1  0  0  0  0
  1 28  1  0  0  0  0
  1 29  1  0  0  0  0
  1 30  1  0  0  0  0
  2 10  1  0  0  0  0
  2  3  2  0  0  0  0
  3  4  1  0  0  0  0
  3 18  1  0  0  0  0
  4  9  2  0  0  0  0
  4  5  1  0  0  0  0
  5  6  2  0  0  0  0
  5 31  1  0  0  0  0
  6  7  1  0  0  0  0
  6 17  1  0  0  0  0
  7  8  2  0  0  0  0
  7 32  1  0  0  0  0
  8  9  1  0  0  0  0
  8 33  1  0  0  0  0
  9 10  1  0  0  0  0
 10 11  1  0  0  0  0
 11 12  1  0  0  0  0
 11 34  1  0  0  0  0
 11 35  1  0  0  0  0
 12 16  1  0  0  0  0
 12 13  2  0  0  0  0
 13 14  1  0  0  0  0
 13 36  1  0  0  0  0
 14 15  2  0  0  0  0
 14 37  1  0  0  0  0
 15 16  1  0  0  0  0
 15 38  1  0  0  0  0
 17 39  1  0  0  0  0
 18 19  2  0  0  0  0
 18 20  1  0  0  0  0
 20 24  1  0  0  0  0
 20 21  1  0  0  0  0
 21 22  1  0  0  0  0
 21 40  1  0  0  0  0
 21 41  1  0  0  0  0
 22 23  1  0  0  0  0
 22 42  1  0  0  0  0
 22 43  1  0  0  0  0
 23 24  1  0  0  0  0
 23 44  1  0  0  0  0
 23 45  1  0  0  0  0
 24 25  1  0  0  0  0
 24 26  1  0  0  0  0
 26 27  1  0  0  0  0
 26 46  1  0  0  0  0
 26 47  1  0  0  0  0
 27 48  1  0  0  0  0
M  END
$$$$
ZINC00762883
  -OEChem-08230709453D

 48 51  0     1  0  0  0  0  0999 V2000
   -3.6624    0.7656    0.0411 C   0  0  0  0  0  0  0  0  0  0  0  0
   -2.1564    0.7144    0.0265 C   0  0  0  0  0  0  0  0  0  0  0  0
   -1.4103   -0.4273    0.0132 C   0  0  0  0  0  0  0  0  0  0  0  0
    0.0021   -0.0041    0.0020 C   0  0  0  0  0  0  0  0  0  0  0  0
    1.2158   -0.6871   -0.0128 C   0  0  0  0  0  0  0  0  0  0  0  0
    2.4003    0.0249   -0.0199 C   0  0  0  0  0  0  0  0  0  0  0  0
    2.3804    1.4166   -0.0127 C   0  0  0  0  0  0  0  0  0  0  0  0
    1.1849    2.1001    0.0020 C   0  0  0  0  0  0  0  0  0  0  0  0
   -0.0170    1.3995    0.0097 C   0  0  0  0  0  0  0  0  0  0  0  0
   -1.3402    1.7952    0.0300 N   0  0  0  0  0  0  0  0  0  0  0  0
   -1.7964    3.1873    0.0444 C   0  0  0  0  0  0  0  0  0  0  0  0
   -1.9726    3.6728   -1.3713 C   0  0  0  0  0  0  0  0  0  0  0  0
   -3.0713    3.6149   -2.1630 C   0  0  0  0  0  0  0  0  0  0  0  0
   -3.0034    4.1329   -3.4427 C   0  0  0  0  0  0  0  0  0  0  0  0
   -1.8370    4.6739   -3.8718 C   0  0  0  0  0  0  0  0  0  0  0  0
   -0.7862    4.4665   -2.4435 S   0  0  0  0  0  0  0  0  0  0  0  0
    3.5885   -0.6361   -0.0344 O   0  0  0  0  0  0  0  0  0  0  0  0
   -1.9146   -1.8070    0.0110 C   0  0  0  0  0  0  0  0  0  0  0  0
   -2.1131   -2.3838    1.0638 O   0  0  0  0  0  0  0  0  0  0  0  0
   -2.1574   -2.4339   -1.1571 N   0  0  0  0  0  0  0  0  0  0  0  0
   -1.9680   -1.8538   -2.4991 C   0  0  0  0  0  0  0  0  0  0  0  0
   -2.9186   -2.6564   -3.4184 C   0  0  0  0  0  0  0  0  0  0  0  0
   -2.8092   -4.0818   -2.8153 C   0  0  0  0  0  0  0  0  0  0  0  0
   -2.6611   -3.8073   -1.3039 C   0  0  1  0  0  0  0  0  0  0  0  0
   -3.6300   -3.9012   -0.8134 H   0  0  0  0  0  0  0  0  0  0  0  0
   -1.6681   -4.7944   -0.6873 C   0  0  0  0  0  0  0  0  0  0  0  0
   -0.4453   -4.7641   -1.4262 O   0  0  0  0  0  0  0  0  0  0  0  0
   -4.0158    0.7720    1.0723 H   0  0  0  0  0  0  0  0  0  0  0  0
   -4.0002    1.6704   -0.4643 H   0  0  0  0  0  0  0  0  0  0  0  0
   -4.0607   -0.1085   -0.4740 H   0  0  0  0  0  0  0  0  0  0  0  0
    1.2312   -1.7670   -0.0184 H   0  0  0  0  0  0  0  0  0  0  0  0
    3.3107    1.9652   -0.0190 H   0  0  0  0  0  0  0  0  0  0  0  0
    1.1805    3.1801    0.0079 H   0  0  0  0  0  0  0  0  0  0  0  0
   -2.7480    3.2523    0.5720 H   0  0  0  0  0  0  0  0  0  0  0  0
   -1.0567    3.8068    0.5516 H   0  0  0  0  0  0  0  0  0  0  0  0
   -3.9869    3.1732   -1.7984 H   0  0  0  0  0  0  0  0  0  0  0  0
   -3.8655    4.1029   -4.0926 H   0  0  0  0  0  0  0  0  0  0  0  0
   -1.6039    5.1160   -4.8292 H   0  0  0  0  0  0  0  0  0  0  0  0
    3.9241   -0.8225   -0.9219 H   0  0  0  0  0  0  0  0  0  0  0  0
   -2.2416   -0.7987   -2.4984 H   0  0  0  0  0  0  0  0  0  0  0  0
   -0.9350   -1.9785   -2.8239 H   0  0  0  0  0  0  0  0  0  0  0  0
   -2.5709   -2.6415   -4.4513 H   0  0  0  0  0  0  0  0  0  0  0  0
   -3.9385   -2.2789   -3.3461 H   0  0  0  0  0  0  0  0  0  0  0  0
   -1.9300   -4.5976   -3.2015 H   0  0  0  0  0  0  0  0  0  0  0  0
   -3.7121   -4.6587   -3.0158 H   0  0  0  0  0  0  0  0  0  0  0  0
   -1.4738   -4.5153    0.3483 H   0  0  0  0  0  0  0  0  0  0  0  0
   -2.0875   -5.8000   -0.7200 H   0  0  0  0  0  0  0  0  0  0  0  0
    0.2322   -5.3669   -1.0904 H   0  0  0  0  0  0  0  0  0  0  0  0
  1  2  1  0  0  0  0
  1 28  1  0  0  0  0
  1 29  1  0  0  0  0
  1 30  1  0  0  0  0
  2 10  1  0  0  0  0
  2  3  2  0  0  0  0
  3  4  1  0  0  0  0
  3 18  1  0  0  0  0
  4  9  2  0  0  0  0
  4  5  1  0  0  0  0
  5  6  2  0  0  0  0
  5 31  1  0  0  0  0
  6  7  1  0  0  0  0
  6 17  1  0  0  0  0
  7  8  2  0  0  0  0
  7 32  1  0  0  0  0
  8  9  1  0  0  0  0
  8 33  1  0  0  0  0
  9 10  1  0  0  0  0
 10 11  1  0  0  0  0
 11 12  1  0  0  0  0
 11 34  1  0  0  0  0
 11 35  1  0  0  0  0
 12 16  1  0  0  0  0
 12 13  2  0  0  0  0
 13 14  1  0  0  0  0
 13 36  1  0  0  0  0
 14 15  2  0  0  0  0
 14 37  1  0  0  0  0
 15 16  1  0  0  0  0
 15 38  1  0  0  0  0
 17 39  1  0  0  0  0
 18 19  2  0  0  0  0
 18 20  1  0  0  0  0
 20 24  1  0  0  0  0
 20 21  1  0  0  0  0
 21 22  1  0  0  0  0
 21 40  1  0  0  0  0
 21 41  1  0  0  0  0
 22 23  1  0  0  0  0
 22 42  1  0  0  0  0
 22 43  1  0  0  0  0
 23 24  1  0  0  0  0
 23 44  1  0  0  0  0
 23 45  1  0  0  0  0
 24 25  1  0  0  0  0
 24 26  1  0  0  0  0
 26 27  1  0  0  0  0
 26 46  1  0  0  0  0
 26 47  1  0  0  0  0
 27 48  1  0  0  0  0
M  END
$$$$
ZINC00763640
  -OEChem-08230709453D

 50 53  0     1  0  0  0  0  0999 V2000
    1.9198    4.5006   -4.5503 C   0  0  0  0  0  0  0  0  0  0  0  0
    0.5835    5.1048   -4.2036 C   0  0  0  0  0  0  0  0  0  0  0  0
    0.0753    5.2138   -2.9425 C   0  0  0  0  0  0  0  0  0  0  0  0
   -1.2458    5.8545   -3.0778 C   0  0  0  0  0  0  0  0  0  0  0  0
   -2.2316    6.2377   -2.1715 C   0  0  0  0  0  0  0  0  0  0  0  0
   -3.3868    6.8400   -2.6327 C   0  0  0  0  0  0  0  0  0  0  0  0
   -3.5610    7.0686   -3.9946 C   0  0  0  0  0  0  0  0  0  0  0  0
   -2.5884    6.6995   -4.8971 C   0  0  0  0  0  0  0  0  0  0  0  0
   -1.4195    6.0917   -4.4504 C   0  0  0  0  0  0  0  0  0  0  0  0
   -0.2935    5.6209   -5.0972 N   0  0  0  0  0  0  0  0  0  0  0  0
   -0.0784    5.6725   -6.5455 C   0  0  0  0  0  0  0  0  0  0  0  0
   -0.6162    4.4150   -7.1783 C   0  0  0  0  0  0  0  0  0  0  0  0
   -1.9294    4.3660   -7.6077 C   0  0  0  0  0  0  0  0  0  0  0  0
   -2.4272    3.2149   -8.1893 C   0  0  0  0  0  0  0  0  0  0  0  0
   -1.6102    2.1065   -8.3427 C   0  0  0  0  0  0  0  0  0  0  0  0
   -0.2874    2.1558   -7.9101 C   0  0  0  0  0  0  0  0  0  0  0  0
    0.2063    3.3148   -7.3334 C   0  0  0  0  0  0  0  0  0  0  0  0
    0.3019    0.9524   -8.1704 O   0  0  0  0  0  0  0  0  0  0  0  0
   -0.5512    0.3071   -9.1343 C   0  0  0  0  0  0  0  0  0  0  0  0
   -1.8497    0.8722   -8.8741 O   0  0  0  0  0  0  0  0  0  0  0  0
   -4.3556    7.2107   -1.7536 O   0  0  0  0  0  0  0  0  0  0  0  0
    0.7153    4.7736   -1.6958 C   0  0  0  0  0  0  0  0  0  0  0  0
    1.4339    5.5371   -1.0783 O   0  0  0  0  0  0  0  0  0  0  0  0
    0.5066    3.5241   -1.2357 N   0  0  0  0  0  0  0  0  0  0  0  0
    1.1449    3.0852    0.0077 C   0  0  1  0  0  0  0  0  0  0  0  0
    2.1315    3.5412    0.0903 H   0  0  0  0  0  0  0  0  0  0  0  0
    0.2852    3.5101    1.1999 C   0  0  0  0  0  0  0  0  0  0  0  0
    1.2864    1.5618   -0.0018 C   0  0  0  0  0  0  0  0  0  0  0  0
   -0.0110    0.9628    0.0073 O   0  0  0  0  0  0  0  0  0  0  0  0
    1.7994    3.4326   -4.7322 H   0  0  0  0  0  0  0  0  0  0  0  0
    2.3136    4.9797   -5.4467 H   0  0  0  0  0  0  0  0  0  0  0  0
    2.6129    4.6524   -3.7229 H   0  0  0  0  0  0  0  0  0  0  0  0
   -2.0962    6.0606   -1.1147 H   0  0  0  0  0  0  0  0  0  0  0  0
   -4.4668    7.5398   -4.3467 H   0  0  0  0  0  0  0  0  0  0  0  0
   -2.7333    6.8817   -5.9517 H   0  0  0  0  0  0  0  0  0  0  0  0
   -0.5965    6.5376   -6.9591 H   0  0  0  0  0  0  0  0  0  0  0  0
    0.9887    5.7553   -6.7515 H   0  0  0  0  0  0  0  0  0  0  0  0
   -2.5679    5.2288   -7.4882 H   0  0  0  0  0  0  0  0  0  0  0  0
   -3.4534    3.1795   -8.5238 H   0  0  0  0  0  0  0  0  0  0  0  0
    1.2331    3.3573   -7.0011 H   0  0  0  0  0  0  0  0  0  0  0  0
   -0.2281    0.5407  -10.1488 H   0  0  0  0  0  0  0  0  0  0  0  0
   -0.5635   -0.7709   -8.9739 H   0  0  0  0  0  0  0  0  0  0  0  0
   -5.0159    6.5250   -1.5838 H   0  0  0  0  0  0  0  0  0  0  0  0
   -0.0663    2.9155   -1.7279 H   0  0  0  0  0  0  0  0  0  0  0  0
    0.1844    4.5954    1.2067 H   0  0  0  0  0  0  0  0  0  0  0  0
   -0.7014    3.0541    1.1173 H   0  0  0  0  0  0  0  0  0  0  0  0
    0.7601    3.1835    2.1250 H   0  0  0  0  0  0  0  0  0  0  0  0
    1.8401    1.2428    0.8812 H   0  0  0  0  0  0  0  0  0  0  0  0
    1.8231    1.2523   -0.8987 H   0  0  0  0  0  0  0  0  0  0  0  0
    0.0021   -0.0041    0.0020 H   0  0  0  0  0  0  0  0  0  0  0  0
  1  2  1  0  0  0  0
  1 30  1  0  0  0  0
  1 31  1  0  0  0  0
  1 32  1  0  0  0  0
  2 10  1  0  0  0  0
  2  3  2  0  0  0  0
  3  4  1  0  0  0  0
  3 22  1  0  0  0  0
  4  9  2  0  0  0  0
  4  5  1  0  0  0  0
  5  6  2  0  0  0  0
  5 33  1  0  0  0  0
  6  7  1  0  0  0  0
  6 21  1  0  0  0  0
  7  8  2  0  0  0  0
  7 34  1  0  0  0  0
  8  9  1  0  0  0  0
  8 35  1  0  0  0  0
  9 10  1  0  0  0  0
 10 11  1  0  0  0  0
 11 12  1  0  0  0  0
 11 36  1  0  0  0  0
 11 37  1  0  0  0  0
 12 17  2  0  0  0  0
 12 13  1  0  0  0  0
 13 14  2  0  0  0  0
 13 38  1  0  0  0  0
 14 15  1  0  0  0  0
 14 39  1  0  0  0  0
 15 20  1  0  0  0  0
 15 16  2  0  0  0  0
 16 17  1  0  0  0  0
 16 18  1  0  0  0  0
 17 40  1  0  0  0  0
 18 19  1  0  0  0  0
 19 20  1  0  0  0  0
 19 41  1  0  0  0  0
 19 42  1  0  0  0  0
 21 43  1  0  0  0  0
 22 23  2  0  0  0  0
 22 24  1  0  0  0  0
 24 25  1  0  0  0  0
 24 44  1  0  0  0  0
 25 26  1  0  0  0  0
 25 27  1  0  0  0  0
 25 28  1  0  0  0  0
 27 45  1  0  0  0  0
 27 46  1  0  0  0  0
 27 47  1  0  0  0  0
 28 29  1  0  0  0  0
 28 48  1  0  0  0  0
 28 49  1  0  0  0  0
 29 50  1  0  0  0  0
M  END
$$$$
ZINC00765697
  -OEChem-08230709453D

 48 51  0     1  0  0  0  0  0999 V2000
    6.9432   -2.7077    7.0031 C   0  0  0  0  0  0  0  0  0  0  0  0
    7.3026   -2.7065    8.3441 C   0  0  0  0  0  0  0  0  0  0  0  0
    7.0990   -1.5902    9.1250 C   0  0  0  0  0  0  0  0  0  0  0  0
    6.5170   -0.4551    8.5695 C   0  0  0  0  0  0  0  0  0  0  0  0
    6.1522   -0.4624    7.2110 C   0  0  0  0  0  0  0  0  0  0  0  0
    6.3744   -1.6025    6.4361 C   0  0  0  0  0  0  0  0  0  0  0  0
    5.5801    0.8583    6.9385 C   0  0  0  0  0  0  0  0  0  0  0  0
    5.6219    1.5490    8.0888 C   0  0  0  0  0  0  0  0  0  0  0  0
    6.1785    0.7803    9.0744 N   0  0  0  0  0  0  0  0  0  0  0  0
    6.3146    1.0635    9.9921 H   0  0  0  0  0  0  0  0  0  0  0  0
    5.0410    1.3468    5.6187 C   0  0  0  0  0  0  0  0  0  0  0  0
    3.5848    0.9027    5.4668 C   0  0  0  0  0  0  0  0  0  0  0  0
    3.0607    1.3775    4.1838 N   0  0  0  0  0  0  0  0  0  0  0  0
    1.7451    1.0933    3.8200 C   0  0  0  0  0  0  0  0  0  0  0  0
    1.2715    1.5132    2.6656 N   0  0  0  0  0  0  0  0  0  0  0  0
    0.0144    1.2292    2.3537 C   0  0  0  0  0  0  0  0  0  0  0  0
   -0.4960    0.3279    3.7455 S   0  0  0  0  0  0  0  0  0  0  0  0
    0.9701    0.3992    4.6263 N   0  0  0  0  0  0  0  0  0  0  0  0
   -0.6996    1.5592    1.2165 N   0  0  0  0  0  0  0  0  0  0  0  0
   -0.0127    1.0858    0.0080 C   0  0  0  0  0  0  0  0  0  0  0  0
   -0.7525    1.5926   -1.2322 C   0  0  0  0  0  0  0  0  0  0  0  0
   -2.1941    1.0772   -1.2067 C   0  0  0  0  0  0  0  0  0  0  0  0
   -2.8718    1.5436    0.0848 C   0  0  2  0  0  0  0  0  0  0  0  0
   -2.9083    2.6328    0.1037 H   0  0  0  0  0  0  0  0  0  0  0  0
   -2.0706    1.0383    1.2868 C   0  0  0  0  0  0  0  0  0  0  0  0
   -4.2943    0.9836    0.1461 C   0  0  0  0  0  0  0  0  0  0  0  0
   -4.9653    1.5124    1.2916 O   0  0  0  0  0  0  0  0  0  0  0  0
    7.1149   -3.5893    6.4033 H   0  0  0  0  0  0  0  0  0  0  0  0
    7.7516   -3.5878    8.7780 H   0  0  0  0  0  0  0  0  0  0  0  0
    7.3802   -1.5998   10.1678 H   0  0  0  0  0  0  0  0  0  0  0  0
    6.0974   -1.6107    5.3922 H   0  0  0  0  0  0  0  0  0  0  0  0
    5.2690    2.5616    8.2171 H   0  0  0  0  0  0  0  0  0  0  0  0
    5.6351    0.9283    4.8063 H   0  0  0  0  0  0  0  0  0  0  0  0
    5.0945    2.4349    5.5847 H   0  0  0  0  0  0  0  0  0  0  0  0
    2.9907    1.3212    6.2792 H   0  0  0  0  0  0  0  0  0  0  0  0
    3.5314   -0.1855    5.5008 H   0  0  0  0  0  0  0  0  0  0  0  0
    3.6291    1.8896    3.5874 H   0  0  0  0  0  0  0  0  0  0  0  0
    0.0021   -0.0041    0.0020 H   0  0  0  0  0  0  0  0  0  0  0  0
    1.0099    1.4629    0.0003 H   0  0  0  0  0  0  0  0  0  0  0  0
   -0.7556    2.6826   -1.2339 H   0  0  0  0  0  0  0  0  0  0  0  0
   -0.2515    1.2281   -2.1290 H   0  0  0  0  0  0  0  0  0  0  0  0
   -2.7370    1.4712   -2.0658 H   0  0  0  0  0  0  0  0  0  0  0  0
   -2.1922   -0.0122   -1.2441 H   0  0  0  0  0  0  0  0  0  0  0  0
   -2.5425    1.3807    2.2077 H   0  0  0  0  0  0  0  0  0  0  0  0
   -2.0462   -0.0514    1.2748 H   0  0  0  0  0  0  0  0  0  0  0  0
   -4.8360    1.2682   -0.7559 H   0  0  0  0  0  0  0  0  0  0  0  0
   -4.2541   -0.1032    0.2182 H   0  0  0  0  0  0  0  0  0  0  0  0
   -5.8745    1.1995    1.3941 H   0  0  0  0  0  0  0  0  0  0  0  0
  1  6  2  0  0  0  0
  1  2  1  0  0  0  0
  1 28  1  0  0  0  0
  2  3  2  0  0  0  0
  2 29  1  0  0  0  0
  3  4  1  0  0  0  0
  3 30  1  0  0  0  0
  4  9  1  0  0  0  0
  4  5  2  0  0  0  0
  5  6  1  0  0  0  0
  5  7  1  0  0  0  0
  6 31  1  0  0  0  0
  7  8  2  0  0  0  0
  7 11  1  0  0  0  0
  8  9  1  0  0  0  0
  8 32  1  0  0  0  0
  9 10  1  0  0  0  0
 11 12  1  0  0  0  0
 11 33  1  0  0  0  0
 11 34  1  0  0  0  0
 12 13  1  0  0  0  0
 12 35  1  0  0  0  0
 12 36  1  0  0  0  0
 13 14  1  0  0  0  0
 13 37  1  0  0  0  0
 14 18  2  0  0  0  0
 14 15  1  0  0  0  0
 15 16  2  0  0  0  0
 16 17  1  0  0  0  0
 16 19  1  0  0  0  0
 17 18  1  0  0  0  0
 19 25  1  0  0  0  0
 19 20  1  0  0  0  0
 20 21  1  0  0  0  0
 20 38  1  0  0  0  0
 20 39  1  0  0  0  0
 21 22  1  0  0  0  0
 21 40  1  0  0  0  0
 21 41  1  0  0  0  0
 22 23  1  0  0  0  0
 22 42  1  0  0  0  0
 22 43  1  0  0  0  0
 23 24  1  0  0  0  0
 23 25  1  0  0  0  0
 23 26  1  0  0  0  0
 25 44  1  0  0  0  0
 25 45  1  0  0  0  0
 26 27  1  0  0  0  0
 26 46  1  0  0  0  0
 26 47  1  0  0  0  0
 27 48  1  0  0  0  0
M  END
$$$$
ZINC00778548
  -OEChem-08230709453D

 47 49  0     1  0  0  0  0  0999 V2000
    7.8867    4.8813   -0.5049 C   0  0  0  0  0  0  0  0  0  0  0  0
    6.4750    5.3337   -0.1262 C   0  0  0  0  0  0  0  0  0  0  0  0
    6.0946    6.5636   -0.9530 C   0  0  0  0  0  0  0  0  0  0  0  0
    6.4347    5.6871    1.3619 C   0  0  0  0  0  0  0  0  0  0  0  0
    5.4840    4.2028   -0.4087 C   0  0  1  0  0  0  0  0  0  0  0  0
    5.5077    3.9528   -1.4694 H   0  0  0  0  0  0  0  0  0  0  0  0
    5.8625    2.9703    0.4176 C   0  0  0  0  0  0  0  0  0  0  0  0
    5.0367    1.7655   -0.0369 C   0  0  0  0  0  0  0  0  0  0  0  0
    3.5618    2.1477   -0.0208 C   0  0  0  0  0  0  0  0  0  0  0  0
    3.1789    3.4431   -0.0100 C   0  0  0  0  0  0  0  0  0  0  0  0
    1.4094    3.3920    0.0074 S   0  0  0  0  0  0  0  0  0  0  0  0
    1.1790    1.6747   -0.0002 C   0  0  0  0  0  0  0  0  0  0  0  0
    2.4766    1.1817   -0.0096 C   0  0  0  0  0  0  0  0  0  0  0  0
    2.7421   -0.2602   -0.0127 C   0  0  0  0  0  0  0  0  0  0  0  0
    2.8455   -0.8577   -1.0681 O   0  0  0  0  0  0  0  0  0  0  0  0
    2.8717   -0.9241    1.1530 N   0  0  0  0  0  0  0  0  0  0  0  0
   -0.0111    0.9658    0.0074 N   0  0  0  0  0  0  0  0  0  0  0  0
   -1.1873    1.6238    0.0165 C   0  0  0  0  0  0  0  0  0  0  0  0
   -1.2038    2.8389    0.0232 O   0  0  0  0  0  0  0  0  0  0  0  0
   -2.4596    0.8660    0.0184 C   0  0  0  0  0  0  0  0  0  0  0  0
   -3.6780    1.5448    0.0279 C   0  0  0  0  0  0  0  0  0  0  0  0
   -4.8100    0.8644    0.0291 N   0  0  0  0  0  0  0  0  0  0  0  0
   -4.7884   -0.4569    0.0214 C   0  0  0  0  0  0  0  0  0  0  0  0
   -3.5783   -1.1351    0.0124 C   0  0  0  0  0  0  0  0  0  0  0  0
   -2.4439   -0.4641    0.0056 N   0  0  0  0  0  0  0  0  0  0  0  0
    4.0685    4.6479   -0.0134 C   0  0  0  0  0  0  0  0  0  0  0  0
    7.9154    4.6295   -1.5650 H   0  0  0  0  0  0  0  0  0  0  0  0
    8.5927    5.6870   -0.3036 H   0  0  0  0  0  0  0  0  0  0  0  0
    8.1577    4.0051    0.0841 H   0  0  0  0  0  0  0  0  0  0  0  0
    5.0889    6.8859   -0.6832 H   0  0  0  0  0  0  0  0  0  0  0  0
    6.8006    7.3693   -0.7517 H   0  0  0  0  0  0  0  0  0  0  0  0
    6.1233    6.3118   -2.0131 H   0  0  0  0  0  0  0  0  0  0  0  0
    6.7058    4.8110    1.9509 H   0  0  0  0  0  0  0  0  0  0  0  0
    7.1407    6.4929    1.5632 H   0  0  0  0  0  0  0  0  0  0  0  0
    5.4290    6.0094    1.6317 H   0  0  0  0  0  0  0  0  0  0  0  0
    5.6663    3.1668    1.4717 H   0  0  0  0  0  0  0  0  0  0  0  0
    6.9223    2.7548    0.2819 H   0  0  0  0  0  0  0  0  0  0  0  0
    5.2051    0.9298    0.6424 H   0  0  0  0  0  0  0  0  0  0  0  0
    5.3297    1.4821   -1.0478 H   0  0  0  0  0  0  0  0  0  0  0  0
    2.7893   -0.4479    1.9941 H   0  0  0  0  0  0  0  0  0  0  0  0
    3.0474   -1.8780    1.1509 H   0  0  0  0  0  0  0  0  0  0  0  0
    0.0021   -0.0041    0.0020 H   0  0  0  0  0  0  0  0  0  0  0  0
   -3.6958    2.6246    0.0346 H   0  0  0  0  0  0  0  0  0  0  0  0
   -5.7158   -1.0104    0.0224 H   0  0  0  0  0  0  0  0  0  0  0  0
   -3.5657   -2.2150    0.0068 H   0  0  0  0  0  0  0  0  0  0  0  0
    3.6976    5.3762   -0.7345 H   0  0  0  0  0  0  0  0  0  0  0  0
    4.0881    5.0927    0.9815 H   0  0  0  0  0  0  0  0  0  0  0  0
  1  2  1  0  0  0  0
  1 27  1  0  0  0  0
  1 28  1  0  0  0  0
  1 29  1  0  0  0  0
  2  3  1  0  0  0  0
  2  4  1  0  0  0  0
  2  5  1  0  0  0  0
  3 30  1  0  0  0  0
  3 31  1  0  0  0  0
  3 32  1  0  0  0  0
  4 33  1  0  0  0  0
  4 34  1  0  0  0  0
  4 35  1  0  0  0  0
  5  6  1  0  0  0  0
  5 26  1  0  0  0  0
  5  7  1  0  0  0  0
  7  8  1  0  0  0  0
  7 36  1  0  0  0  0
  7 37  1  0  0  0  0
  8  9  1  0  0  0  0
  8 38  1  0  0  0  0
  8 39  1  0  0  0  0
  9 13  1  0  0  0  0
  9 10  2  0  0  0  0
 10 11  1  0  0  0  0
 10 26  1  0  0  0  0
 11 12  1  0  0  0  0
 12 13  2  0  0  0  0
 12 17  1  0  0  0  0
 13 14  1  0  0  0  0
 14 15  2  0  0  0  0
 14 16  1  0  0  0  0
 16 40  1  0  0  0  0
 16 41  1  0  0  0  0
 17 18  1  0  0  0  0
 17 42  1  0  0  0  0
 18 19  2  0  0  0  0
 18 20  1  0  0  0  0
 20 25  2  0  0  0  0
 20 21  1  0  0  0  0
 21 22  2  0  0  0  0
 21 43  1  0  0  0  0
 22 23  1  0  0  0  0
 23 24  2  0  0  0  0
 23 44  1  0  0  0  0
 24 25  1  0  0  0  0
 24 45  1  0  0  0  0
 26 46  1  0  0  0  0
 26 47  1  0  0  0  0
M  END
$$$$
ZINC00778549
  -OEChem-08230709453D

 47 49  0     1  0  0  0  0  0999 V2000
    0.8746  -10.9484   -0.9884 C   0  0  0  0  0  0  0  0  0  0  0  0
    2.1298  -10.6299   -0.1736 C   0  0  0  0  0  0  0  0  0  0  0  0
    3.2517  -11.5925   -0.5681 C   0  0  0  0  0  0  0  0  0  0  0  0
    1.8237  -10.7870    1.3172 C   0  0  0  0  0  0  0  0  0  0  0  0
    2.5693   -9.1917   -0.4552 C   0  0  2  0  0  0  0  0  0  0  0  0
    2.7926   -9.0790   -1.5161 H   0  0  0  0  0  0  0  0  0  0  0  0
    3.8156   -8.8644    0.3723 C   0  0  0  0  0  0  0  0  0  0  0  0
    4.4051   -7.5277   -0.0813 C   0  0  0  0  0  0  0  0  0  0  0  0
    3.3032   -6.4754   -0.0658 C   0  0  0  0  0  0  0  0  0  0  0  0
    2.0004   -6.8324   -0.0560 C   0  0  0  0  0  0  0  0  0  0  0  0
    1.1118   -5.3014   -0.0310 S   0  0  0  0  0  0  0  0  0  0  0  0
    2.4501   -4.2009   -0.0448 C   0  0  0  0  0  0  0  0  0  0  0  0
    3.5526   -5.0441   -0.0600 C   0  0  0  0  0  0  0  0  0  0  0  0
    4.9181   -4.5102   -0.0692 C   0  0  0  0  0  0  0  0  0  0  0  0
    5.4943   -4.2945    0.9809 O   0  0  0  0  0  0  0  0  0  0  0  0
    5.5352   -4.2583   -1.2406 N   0  0  0  0  0  0  0  0  0  0  0  0
    2.4257   -2.8159   -0.0367 N   0  0  0  0  0  0  0  0  0  0  0  0
    1.2469   -2.1627   -0.0220 C   0  0  0  0  0  0  0  0  0  0  0  0
    0.2053   -2.7888   -0.0158 O   0  0  0  0  0  0  0  0  0  0  0  0
    1.2208   -0.6821   -0.0133 C   0  0  0  0  0  0  0  0  0  0  0  0
    0.0021   -0.0041    0.0020 C   0  0  0  0  0  0  0  0  0  0  0  0
   -0.0158    1.3165    0.0093 N   0  0  0  0  0  0  0  0  0  0  0  0
    1.1185    1.9942    0.0021 C   0  0  0  0  0  0  0  0  0  0  0  0
    2.3325    1.3229   -0.0131 C   0  0  0  0  0  0  0  0  0  0  0  0
    2.3597    0.0052   -0.0204 N   0  0  0  0  0  0  0  0  0  0  0  0
    1.4449   -8.2232   -0.0602 C   0  0  0  0  0  0  0  0  0  0  0  0
    1.0927  -10.8365   -2.0505 H   0  0  0  0  0  0  0  0  0  0  0  0
    0.5615  -11.9730   -0.7878 H   0  0  0  0  0  0  0  0  0  0  0  0
    0.0753  -10.2627   -0.7074 H   0  0  0  0  0  0  0  0  0  0  0  0
    4.1460  -11.3656    0.0123 H   0  0  0  0  0  0  0  0  0  0  0  0
    2.9386  -12.6171   -0.3675 H   0  0  0  0  0  0  0  0  0  0  0  0
    3.4698  -11.4806   -1.6302 H   0  0  0  0  0  0  0  0  0  0  0  0
    1.0244  -10.1012    1.5982 H   0  0  0  0  0  0  0  0  0  0  0  0
    1.5106  -11.8116    1.5178 H   0  0  0  0  0  0  0  0  0  0  0  0
    2.7179  -10.5601    1.8976 H   0  0  0  0  0  0  0  0  0  0  0  0
    3.5443   -8.8015    1.4261 H   0  0  0  0  0  0  0  0  0  0  0  0
    4.5577   -9.6510    0.2358 H   0  0  0  0  0  0  0  0  0  0  0  0
    4.8012   -7.6272   -1.0919 H   0  0  0  0  0  0  0  0  0  0  0  0
    5.2035   -7.2309    0.5987 H   0  0  0  0  0  0  0  0  0  0  0  0
    5.0760   -4.4302   -2.0775 H   0  0  0  0  0  0  0  0  0  0  0  0
    6.4386   -3.9050   -1.2467 H   0  0  0  0  0  0  0  0  0  0  0  0
    3.2570   -2.3162   -0.0416 H   0  0  0  0  0  0  0  0  0  0  0  0
   -0.9252   -0.5578    0.0075 H   0  0  0  0  0  0  0  0  0  0  0  0
    1.1006    3.0741    0.0081 H   0  0  0  0  0  0  0  0  0  0  0  0
    3.2570    1.8811   -0.0193 H   0  0  0  0  0  0  0  0  0  0  0  0
    1.0764   -8.4744    0.9344 H   0  0  0  0  0  0  0  0  0  0  0  0
    0.6306   -8.2912   -0.7815 H   0  0  0  0  0  0  0  0  0  0  0  0
  1  2  1  0  0  0  0
  1 27  1  0  0  0  0
  1 28  1  0  0  0  0
  1 29  1  0  0  0  0
  2  3  1  0  0  0  0
  2  4  1  0  0  0  0
  2  5  1  0  0  0  0
  3 30  1  0  0  0  0
  3 31  1  0  0  0  0
  3 32  1  0  0  0  0
  4 33  1  0  0  0  0
  4 34  1  0  0  0  0
  4 35  1  0  0  0  0
  5  6  1  0  0  0  0
  5 26  1  0  0  0  0
  5  7  1  0  0  0  0
  7  8  1  0  0  0  0
  7 36  1  0  0  0  0
  7 37  1  0  0  0  0
  8  9  1  0  0  0  0
  8 38  1  0  0  0  0
  8 39  1  0  0  0  0
  9 13  1  0  0  0  0
  9 10  2  0  0  0  0
 10 11  1  0  0  0  0
 10 26  1  0  0  0  0
 11 12  1  0  0  0  0
 12 13  2  0  0  0  0
 12 17  1  0  0  0  0
 13 14  1  0  0  0  0
 14 15  2  0  0  0  0
 14 16  1  0  0  0  0
 16 40  1  0  0  0  0
 16 41  1  0  0  0  0
 17 18  1  0  0  0  0
 17 42  1  0  0  0  0
 18 19  2  0  0  0  0
 18 20  1  0  0  0  0
 20 25  2  0  0  0  0
 20 21  1  0  0  0  0
 21 22  2  0  0  0  0
 21 43  1  0  0  0  0
 22 23  1  0  0  0  0
 23 24  2  0  0  0  0
 23 44  1  0  0  0  0
 24 25  1  0  0  0  0
 24 45  1  0  0  0  0
 26 46  1  0  0  0  0
 26 47  1  0  0  0  0
M  END
$$$$
ZINC00784488
  -OEChem-08230709453D

 40 42  0     0  0  0  0  0  0999 V2000
   -6.6021    0.2648    0.0405 C   0  0  0  0  0  0  0  0  0  0  0  0
   -6.0307    1.0743    1.0702 O   0  0  0  0  0  0  0  0  0  0  0  0
   -4.6886    0.9714    1.2631 C   0  0  0  0  0  0  0  0  0  0  0  0
   -3.9395    0.1091    0.4761 C   0  0  0  0  0  0  0  0  0  0  0  0
   -2.5738    0.0059    0.6660 C   0  0  0  0  0  0  0  0  0  0  0  0
   -1.9514    0.7558    1.6500 C   0  0  0  0  0  0  0  0  0  0  0  0
   -2.7008    1.6231    2.4417 C   0  0  0  0  0  0  0  0  0  0  0  0
   -4.0701    1.7288    2.2457 C   0  0  0  0  0  0  0  0  0  0  0  0
   -2.0733    2.3862    3.4335 N   0  0  0  0  0  0  0  0  0  0  0  0
   -2.8110    2.8819    4.4970 C   0  0  0  0  0  0  0  0  0  0  0  0
   -2.4445    3.7197    5.4501 N   0  0  0  0  0  0  0  0  0  0  0  0
   -3.2909    4.0941    6.3988 C   0  0  0  0  0  0  0  0  0  0  0  0
   -4.5632    3.5964    6.3971 C   0  0  0  0  0  0  0  0  0  0  0  0
   -4.5088    2.5510    4.9476 S   0  0  0  0  0  0  0  0  0  0  0  0
   -2.8592    5.0411    7.4557 C   0  0  0  0  0  0  0  0  0  0  0  0
   -3.7164    5.3471    8.5113 C   0  0  0  0  0  0  0  0  0  0  0  0
   -3.3140    6.2283    9.4945 C   0  0  0  0  0  0  0  0  0  0  0  0
   -2.0573    6.8109    9.4348 C   0  0  0  0  0  0  0  0  0  0  0  0
   -1.1970    6.5093    8.3825 C   0  0  0  0  0  0  0  0  0  0  0  0
   -1.5935    5.6218    7.3980 C   0  0  0  0  0  0  0  0  0  0  0  0
    0.0351    7.0822    8.3257 O   0  0  0  0  0  0  0  0  0  0  0  0
   -1.6646    7.6788   10.4055 O   0  0  0  0  0  0  0  0  0  0  0  0
   -0.6081    0.6496    1.8395 O   0  0  0  0  0  0  0  0  0  0  0  0
    0.0969   -0.2592    0.9916 C   0  0  0  0  0  0  0  0  0  0  0  0
   -7.6764    0.4429   -0.0076 H   0  0  0  0  0  0  0  0  0  0  0  0
   -6.1481    0.5208   -0.9168 H   0  0  0  0  0  0  0  0  0  0  0  0
   -6.4175   -0.7867    0.2605 H   0  0  0  0  0  0  0  0  0  0  0  0
   -4.4233   -0.4801   -0.2889 H   0  0  0  0  0  0  0  0  0  0  0  0
   -1.9924   -0.6630    0.0489 H   0  0  0  0  0  0  0  0  0  0  0  0
   -4.6535    2.4006    2.8578 H   0  0  0  0  0  0  0  0  0  0  0  0
   -1.1222    2.5681    3.3764 H   0  0  0  0  0  0  0  0  0  0  0  0
   -5.3770    3.7829    7.0821 H   0  0  0  0  0  0  0  0  0  0  0  0
   -4.6957    4.8943    8.5602 H   0  0  0  0  0  0  0  0  0  0  0  0
   -3.9792    6.4642   10.3119 H   0  0  0  0  0  0  0  0  0  0  0  0
   -0.9252    5.3829    6.5839 H   0  0  0  0  0  0  0  0  0  0  0  0
    0.7255    6.5757    8.7751 H   0  0  0  0  0  0  0  0  0  0  0  0
   -1.2172    7.2575   11.1522 H   0  0  0  0  0  0  0  0  0  0  0  0
   -0.2987   -1.2656    1.1289 H   0  0  0  0  0  0  0  0  0  0  0  0
    1.1564   -0.2472    1.2474 H   0  0  0  0  0  0  0  0  0  0  0  0
   -0.0292    0.0420   -0.0484 H   0  0  0  0  0  0  0  0  0  0  0  0
  1  2  1  0  0  0  0
  1 25  1  0  0  0  0
  1 26  1  0  0  0  0
  1 27  1  0  0  0  0
  2  3  1  0  0  0  0
  3  8  2  0  0  0  0
  3  4  1  0  0  0  0
  4  5  2  0  0  0  0
  4 28  1  0  0  0  0
  5  6  1  0  0  0  0
  5 29  1  0  0  0  0
  6  7  2  0  0  0  0
  6 23  1  0  0  0  0
  7  8  1  0  0  0  0
  7  9  1  0  0  0  0
  8 30  1  0  0  0  0
  9 10  1  0  0  0  0
  9 31  1  0  0  0  0
 10 14  1  0  0  0  0
 10 11  2  0  0  0  0
 11 12  1  0  0  0  0
 12 13  2  0  0  0  0
 12 15  1  0  0  0  0
 13 14  1  0  0  0  0
 13 32  1  0  0  0  0
 15 20  2  0  0  0  0
 15 16  1  0  0  0  0
 16 17  2  0  0  0  0
 16 33  1  0  0  0  0
 17 18  1  0  0  0  0
 17 34  1  0  0  0  0
 18 19  2  0  0  0  0
 18 22  1  0  0  0  0
 19 20  1  0  0  0  0
 19 21  1  0  0  0  0
 20 35  1  0  0  0  0
 21 36  1  0  0  0  0
 22 37  1  0  0  0  0
 23 24  1  0  0  0  0
 24 38  1  0  0  0  0
 24 39  1  0  0  0  0
 24 40  1  0  0  0  0
M  END
$$$$
ZINC00790654
  -OEChem-08230709453D

 46 49  0     1  0  0  0  0  0999 V2000
   10.9449   -4.6949    1.6513 C   0  0  0  0  0  0  0  0  0  0  0  0
    9.6699   -4.4121    0.8542 C   0  0  1  0  0  0  0  0  0  0  0  0
    9.9226   -4.2499   -0.1936 H   0  0  0  0  0  0  0  0  0  0  0  0
    8.7151   -5.6034    0.9735 C   0  0  0  0  0  0  0  0  0  0  0  0
    7.5547   -5.4406   -0.0099 C   0  0  0  0  0  0  0  0  0  0  0  0
    6.9292   -4.0661    0.1929 C   0  0  0  0  0  0  0  0  0  0  0  0
    7.5994   -3.0847    0.8349 C   0  0  0  0  0  0  0  0  0  0  0  0
    6.4939   -1.7019    0.8271 S   0  0  0  0  0  0  0  0  0  0  0  0
    5.1597   -2.4152   -0.0174 C   0  0  0  0  0  0  0  0  0  0  0  0
    5.5985   -3.7077   -0.2676 C   0  0  0  0  0  0  0  0  0  0  0  0
    4.7525   -4.6744   -0.9744 C   0  0  0  0  0  0  0  0  0  0  0  0
    4.8087   -4.7598   -2.1872 O   0  0  0  0  0  0  0  0  0  0  0  0
    3.9127   -5.4684   -0.2811 N   0  0  0  0  0  0  0  0  0  0  0  0
    3.9458   -1.8368   -0.3558 N   0  0  0  0  0  0  0  0  0  0  0  0
    3.6927   -0.5561   -0.0205 C   0  0  0  0  0  0  0  0  0  0  0  0
    4.5268    0.0904    0.5772 O   0  0  0  0  0  0  0  0  0  0  0  0
    2.3734    0.0725   -0.3883 C   0  0  1  0  0  0  0  0  0  0  0  0
    2.2124   -0.0131   -1.4630 H   0  0  0  0  0  0  0  0  0  0  0  0
    1.2365   -0.6330    0.3633 C   0  0  0  0  0  0  0  0  0  0  0  0
    0.0021   -0.0041    0.0020 O   0  0  0  0  0  0  0  0  0  0  0  0
   -0.0164    1.3568    0.0095 C   0  0  0  0  0  0  0  0  0  0  0  0
   -1.2339    2.0212    0.0189 C   0  0  0  0  0  0  0  0  0  0  0  0
   -1.2688    3.4027    0.0296 C   0  0  0  0  0  0  0  0  0  0  0  0
   -0.0909    4.1264    0.0189 C   0  0  0  0  0  0  0  0  0  0  0  0
    1.1256    3.4707    0.0057 C   0  0  0  0  0  0  0  0  0  0  0  0
    1.1677    2.0843    0.0021 C   0  0  0  0  0  0  0  0  0  0  0  0
    2.3733    1.4527   -0.0076 O   0  0  0  0  0  0  0  0  0  0  0  0
    8.9762   -3.1638    1.4188 C   0  0  0  0  0  0  0  0  0  0  0  0
   11.4292   -5.5883    1.2571 H   0  0  0  0  0  0  0  0  0  0  0  0
   11.6231   -3.8460    1.5652 H   0  0  0  0  0  0  0  0  0  0  0  0
   10.6907   -4.8520    2.6996 H   0  0  0  0  0  0  0  0  0  0  0  0
    8.3241   -5.6537    1.9897 H   0  0  0  0  0  0  0  0  0  0  0  0
    9.2551   -6.5228    0.7474 H   0  0  0  0  0  0  0  0  0  0  0  0
    6.8080   -6.2128    0.1750 H   0  0  0  0  0  0  0  0  0  0  0  0
    7.9242   -5.5268   -1.0317 H   0  0  0  0  0  0  0  0  0  0  0  0
    3.8680   -5.4004    0.6855 H   0  0  0  0  0  0  0  0  0  0  0  0
    3.3530   -6.1080   -0.7487 H   0  0  0  0  0  0  0  0  0  0  0  0
    3.2787   -2.3538   -0.8339 H   0  0  0  0  0  0  0  0  0  0  0  0
    1.3945   -0.5424    1.4379 H   0  0  0  0  0  0  0  0  0  0  0  0
    1.2081   -1.6862    0.0835 H   0  0  0  0  0  0  0  0  0  0  0  0
   -2.1556    1.4583    0.0224 H   0  0  0  0  0  0  0  0  0  0  0  0
   -2.2179    3.9179    0.0410 H   0  0  0  0  0  0  0  0  0  0  0  0
   -0.1214    5.2059    0.0213 H   0  0  0  0  0  0  0  0  0  0  0  0
    2.0443    4.0384   -0.0022 H   0  0  0  0  0  0  0  0  0  0  0  0
    9.5428   -2.2737    1.1453 H   0  0  0  0  0  0  0  0  0  0  0  0
    8.9110   -3.2389    2.5043 H   0  0  0  0  0  0  0  0  0  0  0  0
  1  2  1  0  0  0  0
  1 29  1  0  0  0  0
  1 30  1  0  0  0  0
  1 31  1  0  0  0  0
  2  3  1  0  0  0  0
  2 28  1  0  0  0  0
  2  4  1  0  0  0  0
  4  5  1  0  0  0  0
  4 32  1  0  0  0  0
  4 33  1  0  0  0  0
  5  6  1  0  0  0  0
  5 34  1  0  0  0  0
  5 35  1  0  0  0  0
  6 10  1  0  0  0  0
  6  7  2  0  0  0  0
  7  8  1  0  0  0  0
  7 28  1  0  0  0  0
  8  9  1  0  0  0  0
  9 10  2  0  0  0  0
  9 14  1  0  0  0  0
 10 11  1  0  0  0  0
 11 12  2  0  0  0  0
 11 13  1  0  0  0  0
 13 36  1  0  0  0  0
 13 37  1  0  0  0  0
 14 15  1  0  0  0  0
 14 38  1  0  0  0  0
 15 16  2  0  0  0  0
 15 17  1  0  0  0  0
 17 18  1  0  0  0  0
 17 27  1  0  0  0  0
 17 19  1  0  0  0  0
 19 20  1  0  0  0  0
 19 39  1  0  0  0  0
 19 40  1  0  0  0  0
 20 21  1  0  0  0  0
 21 26  2  0  0  0  0
 21 22  1  0  0  0  0
 22 23  2  0  0  0  0
 22 41  1  0  0  0  0
 23 24  1  0  0  0  0
 23 42  1  0  0  0  0
 24 25  2  0  0  0  0
 24 43  1  0  0  0  0
 25 26  1  0  0  0  0
 25 44  1  0  0  0  0
 26 27  1  0  0  0  0
 28 45  1  0  0  0  0
 28 46  1  0  0  0  0
M  END
$$$$
ZINC00800372
  -OEChem-08230709453D

 40 42  0     1  0  0  0  0  0999 V2000
    2.5249   -2.6675   -0.0368 C   0  0  0  0  0  0  0  0  0  0  0  0
    1.2410   -2.0405   -0.0212 O   0  0  0  0  0  0  0  0  0  0  0  0
    1.2180   -0.6805   -0.0132 C   0  0  0  0  0  0  0  0  0  0  0  0
    2.4052    0.0338   -0.0207 C   0  0  0  0  0  0  0  0  0  0  0  0
    2.3806    1.4159   -0.0131 C   0  0  0  0  0  0  0  0  0  0  0  0
    1.1720    2.0891    0.0021 C   0  0  0  0  0  0  0  0  0  0  0  0
   -0.0167    1.3814    0.0096 C   0  0  0  0  0  0  0  0  0  0  0  0
    0.0021   -0.0041    0.0020 C   0  0  0  0  0  0  0  0  0  0  0  0
   -1.1655   -0.7013    0.0099 O   0  0  0  0  0  0  0  0  0  0  0  0
   -2.3752    0.0591    0.0260 C   0  0  0  0  0  0  0  0  0  0  0  0
    1.1470    3.8249    0.0111 Cl  0  0  0  0  0  0  0  0  0  0  0  0
    3.6730    2.1910   -0.0207 C   0  0  1  0  0  0  0  0  0  0  0  0
    3.4536    3.2587   -0.0186 H   0  0  0  0  0  0  0  0  0  0  0  0
    4.4689    1.8460    1.2101 C   0  0  0  0  0  0  0  0  0  0  0  0
    4.1039    2.3872    2.4301 C   0  0  0  0  0  0  0  0  0  0  0  0
    4.8219    2.0822    3.5694 C   0  0  0  0  0  0  0  0  0  0  0  0
    5.9142    1.2292    3.4933 C   0  0  0  0  0  0  0  0  0  0  0  0
    6.2822    0.6867    2.2736 C   0  0  0  0  0  0  0  0  0  0  0  0
    5.5590    0.9944    1.1283 C   0  0  0  0  0  0  0  0  0  0  0  0
    5.9327    0.4545   -0.0580 O   0  0  0  0  0  0  0  0  0  0  0  0
    5.5192    1.0122   -1.2081 C   0  0  0  0  0  0  0  0  0  0  0  0
    4.4532    1.8457   -1.2578 C   0  0  0  0  0  0  0  0  0  0  0  0
    4.0618    2.4098   -2.5145 C   0  0  0  0  0  0  0  0  0  0  0  0
    3.7512    2.8573   -3.5114 N   0  0  0  0  0  0  0  0  0  0  0  0
    6.1979    0.7291   -2.3671 N   0  0  0  0  0  0  0  0  0  0  0  0
    6.6215    0.9276    4.6138 O   0  0  0  0  0  0  0  0  0  0  0  0
    3.0852   -2.3703    0.8497 H   0  0  0  0  0  0  0  0  0  0  0  0
    2.4004   -3.7504   -0.0418 H   0  0  0  0  0  0  0  0  0  0  0  0
    3.0686   -2.3601   -0.9302 H   0  0  0  0  0  0  0  0  0  0  0  0
    3.3499   -0.4894   -0.0329 H   0  0  0  0  0  0  0  0  0  0  0  0
   -0.9592    1.9087    0.0170 H   0  0  0  0  0  0  0  0  0  0  0  0
   -2.4181    0.6923   -0.8602 H   0  0  0  0  0  0  0  0  0  0  0  0
   -3.2297   -0.6175    0.0308 H   0  0  0  0  0  0  0  0  0  0  0  0
   -2.4005    0.6828    0.9196 H   0  0  0  0  0  0  0  0  0  0  0  0
    3.2542    3.0511    2.4915 H   0  0  0  0  0  0  0  0  0  0  0  0
    4.5338    2.5074    4.5195 H   0  0  0  0  0  0  0  0  0  0  0  0
    7.1322    0.0231    2.2131 H   0  0  0  0  0  0  0  0  0  0  0  0
    5.9118    1.1243   -3.2055 H   0  0  0  0  0  0  0  0  0  0  0  0
    6.9635    0.1339   -2.3478 H   0  0  0  0  0  0  0  0  0  0  0  0
    6.2967    0.1489    5.0862 H   0  0  0  0  0  0  0  0  0  0  0  0
  1  2  1  0  0  0  0
  1 27  1  0  0  0  0
  1 28  1  0  0  0  0
  1 29  1  0  0  0  0
  2  3  1  0  0  0  0
  3  8  2  0  0  0  0
  3  4  1  0  0  0  0
  4  5  2  0  0  0  0
  4 30  1  0  0  0  0
  5  6  1  0  0  0  0
  5 12  1  0  0  0  0
  6  7  2  0  0  0  0
  6 11  1  0  0  0  0
  7  8  1  0  0  0  0
  7 31  1  0  0  0  0
  8  9  1  0  0  0  0
  9 10  1  0  0  0  0
 10 32  1  0  0  0  0
 10 33  1  0  0  0  0
 10 34  1  0  0  0  0
 12 13  1  0  0  0  0
 12 22  1  0  0  0  0
 12 14  1  0  0  0  0
 14 19  2  0  0  0  0
 14 15  1  0  0  0  0
 15 16  2  0  0  0  0
 15 35  1  0  0  0  0
 16 17  1  0  0  0  0
 16 36  1  0  0  0  0
 17 18  2  0  0  0  0
 17 26  1  0  0  0  0
 18 19  1  0  0  0  0
 18 37  1  0  0  0  0
 19 20  1  0  0  0  0
 20 21  1  0  0  0  0
 21 22  2  0  0  0  0
 21 25  1  0  0  0  0
 22 23  1  0  0  0  0
 23 24  3  0  0  0  0
 25 38  1  0  0  0  0
 25 39  1  0  0  0  0
 26 40  1  0  0  0  0
M  END
$$$$
ZINC00803112
  -OEChem-08230709453D

 47 50  0     1  0  0  0  0  0999 V2000
    0.2266    5.5998    0.0129 C   0  0  0  0  0  0  0  0  0  0  0  0
    0.0929    4.1771    0.0122 O   0  0  0  0  0  0  0  0  0  0  0  0
    1.2416    3.4490    0.0030 C   0  0  0  0  0  0  0  0  0  0  0  0
    2.4700    4.0901    0.0005 C   0  0  0  0  0  0  0  0  0  0  0  0
    3.6366    3.3486   -0.0146 C   0  0  0  0  0  0  0  0  0  0  0  0
    3.5812    1.9672   -0.0215 C   0  0  0  0  0  0  0  0  0  0  0  0
    2.3590    1.3213   -0.0134 C   0  0  0  0  0  0  0  0  0  0  0  0
    1.1859    2.0586    0.0018 C   0  0  0  0  0  0  0  0  0  0  0  0
   -0.0173    1.4248    0.0099 O   0  0  0  0  0  0  0  0  0  0  0  0
    0.0021   -0.0041    0.0020 C   0  0  0  0  0  0  0  0  0  0  0  0
    4.8561    1.1637   -0.0385 C   0  0  1  0  0  0  0  0  0  0  0  0
    4.6175    0.1002   -0.0423 H   0  0  0  0  0  0  0  0  0  0  0  0
    5.6670    1.5130   -1.2925 C   0  0  0  0  0  0  0  0  0  0  0  0
    7.0759    0.9176   -1.1791 C   0  0  2  0  0  0  0  0  0  0  0  0
    7.0080   -0.1614   -1.0408 H   0  0  0  0  0  0  0  0  0  0  0  0
    7.7543    1.5243   -0.0175 N   0  0  0  0  0  0  0  0  0  0  0  0
    6.9968    1.6498    1.1394 C   0  0  0  0  0  0  0  0  0  0  0  0
    5.6526    1.4832    1.1459 N   0  0  0  0  0  0  0  0  0  0  0  0
    5.2334    1.6768    2.4628 N   0  0  0  0  0  0  0  0  0  0  0  0
    6.3100    1.9449    3.1678 C   0  0  0  0  0  0  0  0  0  0  0  0
    7.3786    1.9273    2.3576 N   0  0  0  0  0  0  0  0  0  0  0  0
    6.3368    2.2050    4.5387 N   0  0  0  0  0  0  0  0  0  0  0  0
    7.8544    1.2188   -2.4338 C   0  0  0  0  0  0  0  0  0  0  0  0
    8.4148    2.4694   -2.6155 C   0  0  0  0  0  0  0  0  0  0  0  0
    9.1338    2.7449   -3.7631 C   0  0  0  0  0  0  0  0  0  0  0  0
    9.2827    1.7716   -4.7365 C   0  0  0  0  0  0  0  0  0  0  0  0
    8.7162    0.5211   -4.5560 C   0  0  0  0  0  0  0  0  0  0  0  0
    8.0028    0.2460   -3.4048 C   0  0  0  0  0  0  0  0  0  0  0  0
    9.9799    2.0418   -5.8617 F   0  0  0  0  0  0  0  0  0  0  0  0
    0.7656    5.9145   -0.8807 H   0  0  0  0  0  0  0  0  0  0  0  0
   -0.7626    6.0576    0.0206 H   0  0  0  0  0  0  0  0  0  0  0  0
    0.7786    5.9125    0.8992 H   0  0  0  0  0  0  0  0  0  0  0  0
    2.5160    5.1691    0.0059 H   0  0  0  0  0  0  0  0  0  0  0  0
    4.5934    3.8495   -0.0214 H   0  0  0  0  0  0  0  0  0  0  0  0
    2.3185    0.2421   -0.0192 H   0  0  0  0  0  0  0  0  0  0  0  0
   -1.0205   -0.3814    0.0098 H   0  0  0  0  0  0  0  0  0  0  0  0
    0.5123   -0.3556   -0.8948 H   0  0  0  0  0  0  0  0  0  0  0  0
    0.5293   -0.3651    0.8851 H   0  0  0  0  0  0  0  0  0  0  0  0
    5.1685    1.1054   -2.1719 H   0  0  0  0  0  0  0  0  0  0  0  0
    5.7395    2.5965   -1.3873 H   0  0  0  0  0  0  0  0  0  0  0  0
    8.6776    1.8186   -0.0597 H   0  0  0  0  0  0  0  0  0  0  0  0
    5.5126    2.1967    5.0501 H   0  0  0  0  0  0  0  0  0  0  0  0
    7.1796    2.3942    4.9801 H   0  0  0  0  0  0  0  0  0  0  0  0
    8.2942    3.2301   -1.8584 H   0  0  0  0  0  0  0  0  0  0  0  0
    9.5750    3.7207   -3.9030 H   0  0  0  0  0  0  0  0  0  0  0  0
    8.8320   -0.2390   -5.3144 H   0  0  0  0  0  0  0  0  0  0  0  0
    7.5609   -0.7293   -3.2638 H   0  0  0  0  0  0  0  0  0  0  0  0
  1  2  1  0  0  0  0
  1 30  1  0  0  0  0
  1 31  1  0  0  0  0
  1 32  1  0  0  0  0
  2  3  1  0  0  0  0
  3  8  2  0  0  0  0
  3  4  1  0  0  0  0
  4  5  2  0  0  0  0
  4 33  1  0  0  0  0
  5  6  1  0  0  0  0
  5 34  1  0  0  0  0
  6  7  2  0  0  0  0
  6 11  1  0  0  0  0
  7  8  1  0  0  0  0
  7 35  1  0  0  0  0
  8  9  1  0  0  0  0
  9 10  1  0  0  0  0
 10 36  1  0  0  0  0
 10 37  1  0  0  0  0
 10 38  1  0  0  0  0
 11 12  1  0  0  0  0
 11 18  1  0  0  0  0
 11 13  1  0  0  0  0
 13 14  1  0  0  0  0
 13 39  1  0  0  0  0
 13 40  1  0  0  0  0
 14 15  1  0  0  0  0
 14 16  1  0  0  0  0
 14 23  1  0  0  0  0
 16 17  1  0  0  0  0
 16 41  1  0  0  0  0
 17 21  2  0  0  0  0
 17 18  1  0  0  0  0
 18 19  1  0  0  0  0
 19 20  2  0  0  0  0
 20 21  1  0  0  0  0
 20 22  1  0  0  0  0
 22 42  1  0  0  0  0
 22 43  1  0  0  0  0
 23 28  2  0  0  0  0
 23 24  1  0  0  0  0
 24 25  2  0  0  0  0
 24 44  1  0  0  0  0
 25 26  1  0  0  0  0
 25 45  1  0  0  0  0
 26 27  2  0  0  0  0
 26 29  1  0  0  0  0
 27 28  1  0  0  0  0
 27 46  1  0  0  0  0
 28 47  1  0  0  0  0
M  END
$$$$
ZINC00803113
  -OEChem-08230709453D

 47 50  0     1  0  0  0  0  0999 V2000
   -0.0127    1.0858    0.0080 C   0  0  0  0  0  0  0  0  0  0  0  0
   -0.6816    1.5467    1.1837 O   0  0  0  0  0  0  0  0  0  0  0  0
   -1.9758    1.1628    1.3483 C   0  0  0  0  0  0  0  0  0  0  0  0
   -2.5881    0.3602    0.3991 C   0  0  0  0  0  0  0  0  0  0  0  0
   -3.9038   -0.0291    0.5679 C   0  0  0  0  0  0  0  0  0  0  0  0
   -4.6114    0.3805    1.6827 C   0  0  0  0  0  0  0  0  0  0  0  0
   -4.0065    1.1812    2.6336 C   0  0  0  0  0  0  0  0  0  0  0  0
   -2.6863    1.5703    2.4733 C   0  0  0  0  0  0  0  0  0  0  0  0
   -2.0880    2.3533    3.4105 O   0  0  0  0  0  0  0  0  0  0  0  0
   -2.8782    2.7333    4.5389 C   0  0  0  0  0  0  0  0  0  0  0  0
   -6.0453   -0.0472    1.8621 C   0  0  2  0  0  0  0  0  0  0  0  0
   -6.4383    0.3718    2.7884 H   0  0  0  0  0  0  0  0  0  0  0  0
   -6.1219   -1.5780    1.9173 C   0  0  0  0  0  0  0  0  0  0  0  0
   -7.5846   -2.0267    1.8222 C   0  0  2  0  0  0  0  0  0  0  0  0
   -7.6404   -3.1122    1.9037 H   0  0  0  0  0  0  0  0  0  0  0  0
   -8.1255   -1.5957    0.5186 N   0  0  0  0  0  0  0  0  0  0  0  0
   -7.8034   -0.3064    0.1161 C   0  0  0  0  0  0  0  0  0  0  0  0
   -6.8428    0.4247    0.7303 N   0  0  0  0  0  0  0  0  0  0  0  0
   -6.7949    1.6538    0.0713 N   0  0  0  0  0  0  0  0  0  0  0  0
   -7.6989    1.6082   -0.8819 C   0  0  0  0  0  0  0  0  0  0  0  0
   -8.3083    0.4140   -0.8497 N   0  0  0  0  0  0  0  0  0  0  0  0
   -7.9800    2.6373   -1.7819 N   0  0  0  0  0  0  0  0  0  0  0  0
   -8.3811   -1.3943    2.9344 C   0  0  0  0  0  0  0  0  0  0  0  0
   -8.8076   -0.0843    2.8199 C   0  0  0  0  0  0  0  0  0  0  0  0
   -9.5429    0.4949    3.8367 C   0  0  0  0  0  0  0  0  0  0  0  0
   -9.8422   -0.2337    4.9755 C   0  0  0  0  0  0  0  0  0  0  0  0
   -9.4096   -1.5439    5.0914 C   0  0  0  0  0  0  0  0  0  0  0  0
   -8.6797   -2.1228    4.0707 C   0  0  0  0  0  0  0  0  0  0  0  0
  -10.5554    0.3335    5.9728 F   0  0  0  0  0  0  0  0  0  0  0  0
    0.0021   -0.0041    0.0020 H   0  0  0  0  0  0  0  0  0  0  0  0
    1.0099    1.4631    0.0003 H   0  0  0  0  0  0  0  0  0  0  0  0
   -0.5399    1.4469   -0.8751 H   0  0  0  0  0  0  0  0  0  0  0  0
   -2.0376    0.0392   -0.4729 H   0  0  0  0  0  0  0  0  0  0  0  0
   -4.3800   -0.6543   -0.1728 H   0  0  0  0  0  0  0  0  0  0  0  0
   -4.5616    1.4998    3.5035 H   0  0  0  0  0  0  0  0  0  0  0  0
   -2.2822    3.3548    5.2071 H   0  0  0  0  0  0  0  0  0  0  0  0
   -3.7487    3.2951    4.2002 H   0  0  0  0  0  0  0  0  0  0  0  0
   -3.2065    1.8398    5.0699 H   0  0  0  0  0  0  0  0  0  0  0  0
   -5.5585   -1.9995    1.0848 H   0  0  0  0  0  0  0  0  0  0  0  0
   -5.6963   -1.9286    2.8575 H   0  0  0  0  0  0  0  0  0  0  0  0
   -8.6754   -2.1802   -0.0263 H   0  0  0  0  0  0  0  0  0  0  0  0
   -7.4888    3.4723   -1.7327 H   0  0  0  0  0  0  0  0  0  0  0  0
   -8.6666    2.5175   -2.4565 H   0  0  0  0  0  0  0  0  0  0  0  0
   -8.5696    0.4854    1.9338 H   0  0  0  0  0  0  0  0  0  0  0  0
   -9.8795    1.5170    3.7453 H   0  0  0  0  0  0  0  0  0  0  0  0
   -9.6422   -2.1130    5.9793 H   0  0  0  0  0  0  0  0  0  0  0  0
   -8.3422   -3.1448    4.1609 H   0  0  0  0  0  0  0  0  0  0  0  0
  1  2  1  0  0  0  0
  1 30  1  0  0  0  0
  1 31  1  0  0  0  0
  1 32  1  0  0  0  0
  2  3  1  0  0  0  0
  3  8  2  0  0  0  0
  3  4  1  0  0  0  0
  4  5  2  0  0  0  0
  4 33  1  0  0  0  0
  5  6  1  0  0  0  0
  5 34  1  0  0  0  0
  6  7  2  0  0  0  0
  6 11  1  0  0  0  0
  7  8  1  0  0  0  0
  7 35  1  0  0  0  0
  8  9  1  0  0  0  0
  9 10  1  0  0  0  0
 10 36  1  0  0  0  0
 10 37  1  0  0  0  0
 10 38  1  0  0  0  0
 11 12  1  0  0  0  0
 11 18  1  0  0  0  0
 11 13  1  0  0  0  0
 13 14  1  0  0  0  0
 13 39  1  0  0  0  0
 13 40  1  0  0  0  0
 14 15  1  0  0  0  0
 14 16  1  0  0  0  0
 14 23  1  0  0  0  0
 16 17  1  0  0  0  0
 16 41  1  0  0  0  0
 17 21  2  0  0  0  0
 17 18  1  0  0  0  0
 18 19  1  0  0  0  0
 19 20  2  0  0  0  0
 20 21  1  0  0  0  0
 20 22  1  0  0  0  0
 22 42  1  0  0  0  0
 22 43  1  0  0  0  0
 23 28  2  0  0  0  0
 23 24  1  0  0  0  0
 24 25  2  0  0  0  0
 24 44  1  0  0  0  0
 25 26  1  0  0  0  0
 25 45  1  0  0  0  0
 26 27  2  0  0  0  0
 26 29  1  0  0  0  0
 27 28  1  0  0  0  0
 27 46  1  0  0  0  0
 28 47  1  0  0  0  0
M  END
$$$$
ZINC00803466
  -OEChem-08230709453D

 45 47  0     0  0  0  0  0  0999 V2000
    2.5128   -2.6722   -0.0362 C   0  0  0  0  0  0  0  0  0  0  0  0
    1.2309   -2.0408   -0.0206 O   0  0  0  0  0  0  0  0  0  0  0  0
    1.2125   -0.6811   -0.0132 C   0  0  0  0  0  0  0  0  0  0  0  0
    0.0021   -0.0041    0.0020 C   0  0  0  0  0  0  0  0  0  0  0  0
   -0.0167    1.3771    0.0096 C   0  0  0  0  0  0  0  0  0  0  0  0
    1.1749    2.0869    0.0020 C   0  0  0  0  0  0  0  0  0  0  0  0
    2.3853    1.4098   -0.0126 C   0  0  0  0  0  0  0  0  0  0  0  0
    2.4041    0.0286   -0.0202 C   0  0  0  0  0  0  0  0  0  0  0  0
    1.1565    3.4465    0.0091 O   0  0  0  0  0  0  0  0  0  0  0  0
    2.4208    4.1126    0.0006 C   0  0  0  0  0  0  0  0  0  0  0  0
    2.2031    5.6037    0.0101 C   0  0  0  0  0  0  0  0  0  0  0  0
    1.0762    6.0520    0.0229 O   0  0  0  0  0  0  0  0  0  0  0  0
    3.2606    6.4392    0.0044 N   0  0  0  0  0  0  0  0  0  0  0  0
    3.0603    7.8112    0.0132 C   0  0  0  0  0  0  0  0  0  0  0  0
    4.0116    8.8215    0.0151 C   0  0  0  0  0  0  0  0  0  0  0  0
    3.5340   10.1937    0.0217 C   0  0  0  0  0  0  0  0  0  0  0  0
    2.1908   10.3351    0.0354 C   0  0  0  0  0  0  0  0  0  0  0  0
    1.5615    8.6804    0.0322 S   0  0  0  0  0  0  0  0  0  0  0  0
    1.4177   11.6177    0.0508 C   0  0  0  0  0  0  0  0  0  0  0  0
    2.3772   12.7563    0.4265 C   0  0  0  0  0  0  0  0  0  0  0  0
    3.6454   12.6333   -0.4230 C   0  0  0  0  0  0  0  0  0  0  0  0
    4.4512   11.4105    0.0193 C   0  0  0  0  0  0  0  0  0  0  0  0
    5.4456    8.5156    0.0066 C   0  0  0  0  0  0  0  0  0  0  0  0
    6.0360    8.3956   -1.0509 O   0  0  0  0  0  0  0  0  0  0  0  0
    6.1099    8.3673    1.1698 N   0  0  0  0  0  0  0  0  0  0  0  0
    3.0573   -2.3670   -0.9298 H   0  0  0  0  0  0  0  0  0  0  0  0
    3.0742   -2.3765    0.8500 H   0  0  0  0  0  0  0  0  0  0  0  0
    2.3846   -3.7546   -0.0408 H   0  0  0  0  0  0  0  0  0  0  0  0
   -0.9258   -0.5567    0.0075 H   0  0  0  0  0  0  0  0  0  0  0  0
   -0.9592    1.9043    0.0169 H   0  0  0  0  0  0  0  0  0  0  0  0
    3.3132    1.9625   -0.0185 H   0  0  0  0  0  0  0  0  0  0  0  0
    3.3466   -0.4986   -0.0313 H   0  0  0  0  0  0  0  0  0  0  0  0
    2.9900    3.8228    0.8838 H   0  0  0  0  0  0  0  0  0  0  0  0
    2.9734    3.8318   -0.8960 H   0  0  0  0  0  0  0  0  0  0  0  0
    4.1619    6.0807   -0.0058 H   0  0  0  0  0  0  0  0  0  0  0  0
    0.9957   11.8040   -0.9368 H   0  0  0  0  0  0  0  0  0  0  0  0
    0.6160   11.5544    0.7867 H   0  0  0  0  0  0  0  0  0  0  0  0
    1.8989   13.7163    0.2321 H   0  0  0  0  0  0  0  0  0  0  0  0
    2.6343   12.6836    1.4833 H   0  0  0  0  0  0  0  0  0  0  0  0
    3.3695   12.5251   -1.4719 H   0  0  0  0  0  0  0  0  0  0  0  0
    4.2527   13.5299   -0.2989 H   0  0  0  0  0  0  0  0  0  0  0  0
    5.2754   11.2455   -0.6747 H   0  0  0  0  0  0  0  0  0  0  0  0
    4.8452   11.5757    1.0220 H   0  0  0  0  0  0  0  0  0  0  0  0
    5.6394    8.4629    2.0127 H   0  0  0  0  0  0  0  0  0  0  0  0
    7.0585    8.1649    1.1642 H   0  0  0  0  0  0  0  0  0  0  0  0
  1  2  1  0  0  0  0
  1 26  1  0  0  0  0
  1 27  1  0  0  0  0
  1 28  1  0  0  0  0
  2  3  1  0  0  0  0
  3  8  2  0  0  0  0
  3  4  1  0  0  0  0
  4  5  2  0  0  0  0
  4 29  1  0  0  0  0
  5  6  1  0  0  0  0
  5 30  1  0  0  0  0
  6  7  2  0  0  0  0
  6  9  1  0  0  0  0
  7  8  1  0  0  0  0
  7 31  1  0  0  0  0
  8 32  1  0  0  0  0
  9 10  1  0  0  0  0
 10 11  1  0  0  0  0
 10 33  1  0  0  0  0
 10 34  1  0  0  0  0
 11 12  2  0  0  0  0
 11 13  1  0  0  0  0
 13 14  1  0  0  0  0
 13 35  1  0  0  0  0
 14 18  1  0  0  0  0
 14 15  2  0  0  0  0
 15 16  1  0  0  0  0
 15 23  1  0  0  0  0
 16 22  1  0  0  0  0
 16 17  2  0  0  0  0
 17 18  1  0  0  0  0
 17 19  1  0  0  0  0
 19 20  1  0  0  0  0
 19 36  1  0  0  0  0
 19 37  1  0  0  0  0
 20 21  1  0  0  0  0
 20 38  1  0  0  0  0
 20 39  1  0  0  0  0
 21 22  1  0  0  0  0
 21 40  1  0  0  0  0
 21 41  1  0  0  0  0
 22 42  1  0  0  0  0
 22 43  1  0  0  0  0
 23 24  2  0  0  0  0
 23 25  1  0  0  0  0
 25 44  1  0  0  0  0
 25 45  1  0  0  0  0
M  END
$$$$
ZINC00803982
  -OEChem-08230709453D

 44 47  0     0  0  0  0  0  0999 V2000
    2.0240    5.5046   -1.3846 C   0  0  0  0  0  0  0  0  0  0  0  0
    1.9198    4.5047   -0.3690 O   0  0  0  0  0  0  0  0  0  0  0  0
    0.7759    3.7731   -0.3389 C   0  0  0  0  0  0  0  0  0  0  0  0
    0.6105    2.7850    0.6231 C   0  0  0  0  0  0  0  0  0  0  0  0
   -0.5489    2.0403    0.6562 C   0  0  0  0  0  0  0  0  0  0  0  0
   -1.5547    2.2762   -0.2817 C   0  0  0  0  0  0  0  0  0  0  0  0
   -1.3876    3.2736   -1.2432 C   0  0  0  0  0  0  0  0  0  0  0  0
   -0.2256    4.0145   -1.2705 C   0  0  0  0  0  0  0  0  0  0  0  0
   -2.7987    1.4739   -0.2534 C   0  0  0  0  0  0  0  0  0  0  0  0
   -3.7312    1.6555    0.7688 C   0  0  0  0  0  0  0  0  0  0  0  0
   -4.8890    0.9080    0.7835 C   0  0  0  0  0  0  0  0  0  0  0  0
   -5.1137    0.0099   -0.1681 N   0  0  0  0  0  0  0  0  0  0  0  0
   -4.2699   -0.2031   -1.1505 C   0  0  0  0  0  0  0  0  0  0  0  0
   -3.0584    0.5129   -1.2725 C   0  0  0  0  0  0  0  0  0  0  0  0
   -2.2446    0.1612   -2.4226 C   0  0  0  0  0  0  0  0  0  0  0  0
   -2.7096   -0.8135   -3.2797 C   0  0  0  0  0  0  0  0  0  0  0  0
   -4.2615   -1.2974   -2.5491 S   0  0  0  0  0  0  0  0  0  0  0  0
   -2.0960   -1.3172   -4.4531 C   0  0  0  0  0  0  0  0  0  0  0  0
   -1.0177   -0.8796   -4.8123 O   0  0  0  0  0  0  0  0  0  0  0  0
   -2.7056   -2.2805   -5.1720 N   0  0  0  0  0  0  0  0  0  0  0  0
   -1.0285    0.7902   -2.6530 N   0  0  0  0  0  0  0  0  0  0  0  0
   -5.9432    1.0691    1.8485 C   0  0  0  0  0  0  0  0  0  0  0  0
   -5.3688    1.7838    3.0696 C   0  0  0  0  0  0  0  0  0  0  0  0
   -4.6743    3.0664    2.5971 C   0  0  0  0  0  0  0  0  0  0  0  0
   -3.4126    2.6764    1.8303 C   0  0  0  0  0  0  0  0  0  0  0  0
    2.9837    6.0137   -1.2963 H   0  0  0  0  0  0  0  0  0  0  0  0
    1.9507    5.0350   -2.3656 H   0  0  0  0  0  0  0  0  0  0  0  0
    1.2169    6.2276   -1.2667 H   0  0  0  0  0  0  0  0  0  0  0  0
    1.3914    2.5997    1.3457 H   0  0  0  0  0  0  0  0  0  0  0  0
   -0.6769    1.2722    1.4046 H   0  0  0  0  0  0  0  0  0  0  0  0
   -2.1658    3.4616   -1.9681 H   0  0  0  0  0  0  0  0  0  0  0  0
   -0.0939    4.7838   -2.0169 H   0  0  0  0  0  0  0  0  0  0  0  0
   -3.5645   -2.6290   -4.8860 H   0  0  0  0  0  0  0  0  0  0  0  0
   -2.2855   -2.6254   -5.9754 H   0  0  0  0  0  0  0  0  0  0  0  0
   -0.5814    1.2605   -1.9319 H   0  0  0  0  0  0  0  0  0  0  0  0
   -0.6260    0.7595   -3.5350 H   0  0  0  0  0  0  0  0  0  0  0  0
   -6.7725    1.6522    1.4479 H   0  0  0  0  0  0  0  0  0  0  0  0
   -6.3069    0.0855    2.1458 H   0  0  0  0  0  0  0  0  0  0  0  0
   -6.1738    2.0352    3.7602 H   0  0  0  0  0  0  0  0  0  0  0  0
   -4.6462    1.1370    3.5673 H   0  0  0  0  0  0  0  0  0  0  0  0
   -5.3429    3.6264    1.9433 H   0  0  0  0  0  0  0  0  0  0  0  0
   -4.4066    3.6778    3.4589 H   0  0  0  0  0  0  0  0  0  0  0  0
   -2.6849    2.2572    2.5252 H   0  0  0  0  0  0  0  0  0  0  0  0
   -2.9893    3.5639    1.3598 H   0  0  0  0  0  0  0  0  0  0  0  0
  1  2  1  0  0  0  0
  1 26  1  0  0  0  0
  1 27  1  0  0  0  0
  1 28  1  0  0  0  0
  2  3  1  0  0  0  0
  3  8  2  0  0  0  0
  3  4  1  0  0  0  0
  4  5  2  0  0  0  0
  4 29  1  0  0  0  0
  5  6  1  0  0  0  0
  5 30  1  0  0  0  0
  6  7  2  0  0  0  0
  6  9  1  0  0  0  0
  7  8  1  0  0  0  0
  7 31  1  0  0  0  0
  8 32  1  0  0  0  0
  9 14  2  0  0  0  0
  9 10  1  0  0  0  0
 10 25  1  0  0  0  0
 10 11  2  0  0  0  0
 11 12  1  0  0  0  0
 11 22  1  0  0  0  0
 12 13  2  0  0  0  0
 13 17  1  0  0  0  0
 13 14  1  0  0  0  0
 14 15  1  0  0  0  0
 15 16  2  0  0  0  0
 15 21  1  0  0  0  0
 16 17  1  0  0  0  0
 16 18  1  0  0  0  0
 18 19  2  0  0  0  0
 18 20  1  0  0  0  0
 20 33  1  0  0  0  0
 20 34  1  0  0  0  0
 21 35  1  0  0  0  0
 21 36  1  0  0  0  0
 22 23  1  0  0  0  0
 22 37  1  0  0  0  0
 22 38  1  0  0  0  0
 23 24  1  0  0  0  0
 23 39  1  0  0  0  0
 23 40  1  0  0  0  0
 24 25  1  0  0  0  0
 24 41  1  0  0  0  0
 24 42  1  0  0  0  0
 25 43  1  0  0  0  0
 25 44  1  0  0  0  0
M  END
$$$$
ZINC00806335
  -OEChem-08230709453D

 43 46  0     1  0  0  0  0  0999 V2000
   -0.2773   -0.8522    7.2738 C   0  0  0  0  0  0  0  0  0  0  0  0
   -0.1089    0.3105    6.4603 O   0  0  0  0  0  0  0  0  0  0  0  0
   -0.7615    0.3291    5.2673 C   0  0  0  0  0  0  0  0  0  0  0  0
   -1.5464   -0.7481    4.8884 C   0  0  0  0  0  0  0  0  0  0  0  0
   -2.2095   -0.7274    3.6755 C   0  0  0  0  0  0  0  0  0  0  0  0
   -2.0919    0.3667    2.8385 C   0  0  0  0  0  0  0  0  0  0  0  0
   -1.3062    1.4423    3.2082 C   0  0  0  0  0  0  0  0  0  0  0  0
   -0.6428    1.4301    4.4246 C   0  0  0  0  0  0  0  0  0  0  0  0
    0.1265    2.4897    4.7921 O   0  0  0  0  0  0  0  0  0  0  0  0
    0.2019    3.5848    3.8772 C   0  0  0  0  0  0  0  0  0  0  0  0
   -2.8169    0.3840    1.5175 C   0  0  1  0  0  0  0  0  0  0  0  0
   -2.6184    1.3229    1.0006 H   0  0  0  0  0  0  0  0  0  0  0  0
   -2.3542   -0.7715    0.6684 C   0  0  0  0  0  0  0  0  0  0  0  0
   -1.1337   -0.9517    0.0071 C   0  0  0  0  0  0  0  0  0  0  0  0
   -1.1784   -2.1155   -0.6165 N   0  0  0  0  0  0  0  0  0  0  0  0
   -2.4253   -2.7063   -0.3597 N   0  0  0  0  0  0  0  0  0  0  0  0
   -2.7359   -3.5942   -0.6990 H   0  0  0  0  0  0  0  0  0  0  0  0
   -3.1316   -1.8661    0.4254 C   0  0  0  0  0  0  0  0  0  0  0  0
   -4.3849   -2.0000    0.9272 O   0  0  0  0  0  0  0  0  0  0  0  0
   -4.9672   -0.9038    1.4541 C   0  0  0  0  0  0  0  0  0  0  0  0
   -4.2997    0.2337    1.7495 C   0  0  0  0  0  0  0  0  0  0  0  0
   -5.0268    1.3365    2.3026 C   0  0  0  0  0  0  0  0  0  0  0  0
   -5.6035    2.2113    2.7414 N   0  0  0  0  0  0  0  0  0  0  0  0
   -6.3161   -0.9457    1.7052 N   0  0  0  0  0  0  0  0  0  0  0  0
    0.0021   -0.0041    0.0020 C   0  0  0  0  0  0  0  0  0  0  0  0
    1.3451   -0.2677   -0.0122 C   0  0  0  0  0  0  0  0  0  0  0  0
    2.2280    0.7907   -0.0150 C   0  0  0  0  0  0  0  0  0  0  0  0
    1.7414    2.0577   -0.0035 C   0  0  0  0  0  0  0  0  0  0  0  0
   -0.0221    1.7811    0.0118 S   0  0  0  0  0  0  0  0  0  0  0  0
   -1.3328   -0.9769    7.5154 H   0  0  0  0  0  0  0  0  0  0  0  0
    0.0775   -1.7291    6.7322 H   0  0  0  0  0  0  0  0  0  0  0  0
    0.2951   -0.7376    8.1943 H   0  0  0  0  0  0  0  0  0  0  0  0
   -1.6400   -1.6040    5.5404 H   0  0  0  0  0  0  0  0  0  0  0  0
   -2.8210   -1.5676    3.3814 H   0  0  0  0  0  0  0  0  0  0  0  0
   -1.2127    2.2940    2.5507 H   0  0  0  0  0  0  0  0  0  0  0  0
    0.6138    3.2386    2.9292 H   0  0  0  0  0  0  0  0  0  0  0  0
   -0.7964    3.9905    3.7130 H   0  0  0  0  0  0  0  0  0  0  0  0
    0.8458    4.3606    4.2914 H   0  0  0  0  0  0  0  0  0  0  0  0
   -6.8222   -1.7484    1.5040 H   0  0  0  0  0  0  0  0  0  0  0  0
   -6.7632   -0.1727    2.0840 H   0  0  0  0  0  0  0  0  0  0  0  0
    1.7060   -1.2855   -0.0208 H   0  0  0  0  0  0  0  0  0  0  0  0
    3.2934    0.6141   -0.0264 H   0  0  0  0  0  0  0  0  0  0  0  0
    2.2820    2.9927   -0.0037 H   0  0  0  0  0  0  0  0  0  0  0  0
  1  2  1  0  0  0  0
  1 30  1  0  0  0  0
  1 31  1  0  0  0  0
  1 32  1  0  0  0  0
  2  3  1  0  0  0  0
  3  8  2  0  0  0  0
  3  4  1  0  0  0  0
  4  5  2  0  0  0  0
  4 33  1  0  0  0  0
  5  6  1  0  0  0  0
  5 34  1  0  0  0  0
  6  7  2  0  0  0  0
  6 11  1  0  0  0  0
  7  8  1  0  0  0  0
  7 35  1  0  0  0  0
  8  9  1  0  0  0  0
  9 10  1  0  0  0  0
 10 36  1  0  0  0  0
 10 37  1  0  0  0  0
 10 38  1  0  0  0  0
 11 12  1  0  0  0  0
 11 21  1  0  0  0  0
 11 13  1  0  0  0  0
 13 18  2  0  0  0  0
 13 14  1  0  0  0  0
 14 15  2  0  0  0  0
 14 25  1  0  0  0  0
 15 16  1  0  0  0  0
 16 17  1  0  0  0  0
 16 18  1  0  0  0  0
 18 19  1  0  0  0  0
 19 20  1  0  0  0  0
 20 21  2  0  0  0  0
 20 24  1  0  0  0  0
 21 22  1  0  0  0  0
 22 23  3  0  0  0  0
 24 39  1  0  0  0  0
 24 40  1  0  0  0  0
 25 29  1  0  0  0  0
 25 26  2  0  0  0  0
 26 27  1  0  0  0  0
 26 41  1  0  0  0  0
 27 28  2  0  0  0  0
 27 42  1  0  0  0  0
 28 29  1  0  0  0  0
 28 43  1  0  0  0  0
M  END
$$$$
ZINC00806335
  -OEChem-08230709453D

 43 46  0     1  0  0  0  0  0999 V2000
   -0.2788   -0.8543    7.2747 C   0  0  0  0  0  0  0  0  0  0  0  0
   -0.1099    0.3085    6.4615 O   0  0  0  0  0  0  0  0  0  0  0  0
   -0.7622    0.3275    5.2684 C   0  0  0  0  0  0  0  0  0  0  0  0
   -1.5473   -0.7494    4.8890 C   0  0  0  0  0  0  0  0  0  0  0  0
   -2.2101   -0.7283    3.6760 C   0  0  0  0  0  0  0  0  0  0  0  0
   -2.0920    0.3659    2.8392 C   0  0  0  0  0  0  0  0  0  0  0  0
   -1.3061    1.4413    3.2094 C   0  0  0  0  0  0  0  0  0  0  0  0
   -0.6430    1.4287    4.4259 C   0  0  0  0  0  0  0  0  0  0  0  0
    0.1264    2.4880    4.7939 O   0  0  0  0  0  0  0  0  0  0  0  0
    0.2023    3.5833    3.8792 C   0  0  0  0  0  0  0  0  0  0  0  0
   -2.8166    0.3837    1.5181 C   0  0  1  0  0  0  0  0  0  0  0  0
   -2.6178    1.3227    1.0014 H   0  0  0  0  0  0  0  0  0  0  0  0
   -2.3540   -0.7717    0.6688 C   0  0  0  0  0  0  0  0  0  0  0  0
   -1.1334   -0.9521    0.0078 C   0  0  0  0  0  0  0  0  0  0  0  0
   -1.1788   -2.1150   -0.6174 N   0  0  0  0  0  0  0  0  0  0  0  0
   -2.4260   -2.7055   -0.3612 N   0  0  0  0  0  0  0  0  0  0  0  0
   -0.4493   -2.5075   -1.1775 H   0  0  0  0  0  0  0  0  0  0  0  0
   -3.1320   -1.8656    0.4245 C   0  0  0  0  0  0  0  0  0  0  0  0
   -4.3855   -1.9993    0.9260 O   0  0  0  0  0  0  0  0  0  0  0  0
   -4.9674   -0.9031    1.4534 C   0  0  0  0  0  0  0  0  0  0  0  0
   -4.2992    0.2337    1.7502 C   0  0  0  0  0  0  0  0  0  0  0  0
   -5.0258    1.3364    2.3041 C   0  0  0  0  0  0  0  0  0  0  0  0
   -5.6021    2.2111    2.7436 N   0  0  0  0  0  0  0  0  0  0  0  0
   -6.3164   -0.9443    1.7040 N   0  0  0  0  0  0  0  0  0  0  0  0
    0.0026   -0.0048    0.0032 C   0  0  0  0  0  0  0  0  0  0  0  0
    1.3456   -0.2687   -0.0107 C   0  0  0  0  0  0  0  0  0  0  0  0
    2.2287    0.7895   -0.0131 C   0  0  0  0  0  0  0  0  0  0  0  0
    1.7424    2.0566   -0.0014 C   0  0  0  0  0  0  0  0  0  0  0  0
   -0.0211    1.7804    0.0134 S   0  0  0  0  0  0  0  0  0  0  0  0
   -1.3344   -0.9788    7.5160 H   0  0  0  0  0  0  0  0  0  0  0  0
    0.0759   -1.7312    6.7330 H   0  0  0  0  0  0  0  0  0  0  0  0
    0.2934   -0.7401    8.1954 H   0  0  0  0  0  0  0  0  0  0  0  0
   -1.6412   -1.6054    5.5408 H   0  0  0  0  0  0  0  0  0  0  0  0
   -2.8217   -1.5683    3.3815 H   0  0  0  0  0  0  0  0  0  0  0  0
   -1.2123    2.2931    2.5521 H   0  0  0  0  0  0  0  0  0  0  0  0
    0.6144    3.2372    2.9312 H   0  0  0  0  0  0  0  0  0  0  0  0
   -0.7958    3.9892    3.7148 H   0  0  0  0  0  0  0  0  0  0  0  0
    0.8463    4.3588    4.2937 H   0  0  0  0  0  0  0  0  0  0  0  0
   -6.8230   -1.7465    1.5018 H   0  0  0  0  0  0  0  0  0  0  0  0
   -6.7631   -0.1714    2.0834 H   0  0  0  0  0  0  0  0  0  0  0  0
    1.7063   -1.2866   -0.0194 H   0  0  0  0  0  0  0  0  0  0  0  0
    3.2941    0.6127   -0.0242 H   0  0  0  0  0  0  0  0  0  0  0  0
    2.2833    2.9915   -0.0013 H   0  0  0  0  0  0  0  0  0  0  0  0
  1  2  1  0  0  0  0
  1 30  1  0  0  0  0
  1 31  1  0  0  0  0
  1 32  1  0  0  0  0
  2  3  1  0  0  0  0
  3  8  2  0  0  0  0
  3  4  1  0  0  0  0
  4  5  2  0  0  0  0
  4 33  1  0  0  0  0
  5  6  1  0  0  0  0
  5 34  1  0  0  0  0
  6  7  2  0  0  0  0
  6 11  1  0  0  0  0
  7  8  1  0  0  0  0
  7 35  1  0  0  0  0
  8  9  1  0  0  0  0
  9 10  1  0  0  0  0
 10 36  1  0  0  0  0
 10 37  1  0  0  0  0
 10 38  1  0  0  0  0
 11 12  1  0  0  0  0
 11 21  1  0  0  0  0
 11 13  1  0  0  0  0
 13 18  1  0  0  0  0
 13 14  2  0  0  0  0
 14 25  1  0  0  0  0
 14 15  1  0  0  0  0
 15 17  1  0  0  0  0
 15 16  1  0  0  0  0
 16 18  2  0  0  0  0
 18 19  1  0  0  0  0
 19 20  1  0  0  0  0
 20 21  2  0  0  0  0
 20 24  1  0  0  0  0
 21 22  1  0  0  0  0
 22 23  3  0  0  0  0
 24 39  1  0  0  0  0
 24 40  1  0  0  0  0
 25 29  1  0  0  0  0
 25 26  2  0  0  0  0
 26 27  1  0  0  0  0
 26 41  1  0  0  0  0
 27 28  2  0  0  0  0
 27 42  1  0  0  0  0
 28 29  1  0  0  0  0
 28 43  1  0  0  0  0
M  END
$$$$
ZINC00809406
  -OEChem-08230709453D

 47 50  0     1  0  0  0  0  0999 V2000
    1.9385    1.0805   -3.6151 C   0  0  0  0  0  0  0  0  0  0  0  0
    1.7125    2.5330   -3.1908 C   0  0  0  0  0  0  0  0  0  0  0  0
    3.0632    3.2096   -2.9485 C   0  0  0  0  0  0  0  0  0  0  0  0
    2.8406    4.6403   -2.5306 C   0  0  0  0  0  0  0  0  0  0  0  0
    2.5986    5.0726   -1.2839 C   0  0  0  0  0  0  0  0  0  0  0  0
    2.4529    6.4767   -1.3268 C   0  0  0  0  0  0  0  0  0  0  0  0
    2.6030    6.8594   -2.5616 N   0  0  0  0  0  0  0  0  0  0  0  0
    2.8496    5.7209   -3.3450 N   0  0  0  0  0  0  0  0  0  0  0  0
    3.0049    5.7103   -4.3328 H   0  0  0  0  0  0  0  0  0  0  0  0
    2.2017    7.2101   -0.2093 O   0  0  0  0  0  0  0  0  0  0  0  0
    2.3619    6.6005    0.9820 C   0  0  0  0  0  0  0  0  0  0  0  0
    2.4982    5.2683    1.1477 C   0  0  0  0  0  0  0  0  0  0  0  0
    2.4821    4.2909   -0.0003 C   0  0  1  0  0  0  0  0  0  0  0  0
    3.3230    3.6032    0.0892 H   0  0  0  0  0  0  0  0  0  0  0  0
    1.1890    3.5171    0.0084 C   0  0  0  0  0  0  0  0  0  0  0  0
    0.0066    4.1600   -0.1988 C   0  0  0  0  0  0  0  0  0  0  0  0
   -1.1992    3.4647   -0.1952 C   0  0  0  0  0  0  0  0  0  0  0  0
   -1.2305    2.1141    0.0119 C   0  0  0  0  0  0  0  0  0  0  0  0
   -0.0257    1.4170    0.2346 C   0  0  0  0  0  0  0  0  0  0  0  0
    1.1992    2.1295    0.2301 C   0  0  0  0  0  0  0  0  0  0  0  0
    2.4012    1.4341    0.4469 C   0  0  0  0  0  0  0  0  0  0  0  0
    2.3729    0.0897    0.6567 C   0  0  0  0  0  0  0  0  0  0  0  0
    1.1679   -0.6104    0.6609 C   0  0  0  0  0  0  0  0  0  0  0  0
   -0.0154    0.0303    0.4549 C   0  0  0  0  0  0  0  0  0  0  0  0
   -2.4144    1.4488    0.0068 O   0  0  0  0  0  0  0  0  0  0  0  0
   -3.5927    2.2232   -0.2257 C   0  0  0  0  0  0  0  0  0  0  0  0
    2.6655    4.7590    2.4756 C   0  0  0  0  0  0  0  0  0  0  0  0
    2.7983    4.3550    3.5290 N   0  0  0  0  0  0  0  0  0  0  0  0
    2.3880    7.3897    2.1048 N   0  0  0  0  0  0  0  0  0  0  0  0
    2.5264    1.0572   -4.5327 H   0  0  0  0  0  0  0  0  0  0  0  0
    2.4740    0.5509   -2.8270 H   0  0  0  0  0  0  0  0  0  0  0  0
    0.9763    0.5985   -3.7877 H   0  0  0  0  0  0  0  0  0  0  0  0
    1.1247    2.5563   -2.2732 H   0  0  0  0  0  0  0  0  0  0  0  0
    1.1771    3.0626   -3.9788 H   0  0  0  0  0  0  0  0  0  0  0  0
    3.6511    3.1864   -3.8661 H   0  0  0  0  0  0  0  0  0  0  0  0
    3.5987    2.6800   -2.1604 H   0  0  0  0  0  0  0  0  0  0  0  0
    0.0044    5.2265   -0.3690 H   0  0  0  0  0  0  0  0  0  0  0  0
   -2.1226    3.9992   -0.3622 H   0  0  0  0  0  0  0  0  0  0  0  0
    3.3425    1.9637    0.4463 H   0  0  0  0  0  0  0  0  0  0  0  0
    3.2979   -0.4425    0.8227 H   0  0  0  0  0  0  0  0  0  0  0  0
    1.1730   -1.6771    0.8297 H   0  0  0  0  0  0  0  0  0  0  0  0
   -0.9416   -0.5252    0.4605 H   0  0  0  0  0  0  0  0  0  0  0  0
   -3.6870    2.9830    0.5501 H   0  0  0  0  0  0  0  0  0  0  0  0
   -3.5238    2.7059   -1.2006 H   0  0  0  0  0  0  0  0  0  0  0  0
   -4.4660    1.5713   -0.2040 H   0  0  0  0  0  0  0  0  0  0  0  0
    2.2929    8.3516    2.0239 H   0  0  0  0  0  0  0  0  0  0  0  0
    2.5015    6.9854    2.9793 H   0  0  0  0  0  0  0  0  0  0  0  0
  1  2  1  0  0  0  0
  1 30  1  0  0  0  0
  1 31  1  0  0  0  0
  1 32  1  0  0  0  0
  2  3  1  0  0  0  0
  2 33  1  0  0  0  0
  2 34  1  0  0  0  0
  3  4  1  0  0  0  0
  3 35  1  0  0  0  0
  3 36  1  0  0  0  0
  4  8  1  0  0  0  0
  4  5  2  0  0  0  0
  5 13  1  0  0  0  0
  5  6  1  0  0  0  0
  6  7  2  0  0  0  0
  6 10  1  0  0  0  0
  7  8  1  0  0  0  0
  8  9  1  0  0  0  0
 10 11  1  0  0  0  0
 11 12  2  0  0  0  0
 11 29  1  0  0  0  0
 12 13  1  0  0  0  0
 12 27  1  0  0  0  0
 13 14  1  0  0  0  0
 13 15  1  0  0  0  0
 15 20  2  0  0  0  0
 15 16  1  0  0  0  0
 16 17  2  0  0  0  0
 16 37  1  0  0  0  0
 17 18  1  0  0  0  0
 17 38  1  0  0  0  0
 18 19  2  0  0  0  0
 18 25  1  0  0  0  0
 19 24  1  0  0  0  0
 19 20  1  0  0  0  0
 20 21  1  0  0  0  0
 21 22  2  0  0  0  0
 21 39  1  0  0  0  0
 22 23  1  0  0  0  0
 22 40  1  0  0  0  0
 23 24  2  0  0  0  0
 23 41  1  0  0  0  0
 24 42  1  0  0  0  0
 25 26  1  0  0  0  0
 26 43  1  0  0  0  0
 26 44  1  0  0  0  0
 26 45  1  0  0  0  0
 27 28  3  0  0  0  0
 29 46  1  0  0  0  0
 29 47  1  0  0  0  0
M  END
$$$$
ZINC00809406
  -OEChem-08230709453D

 47 50  0     1  0  0  0  0  0999 V2000
    1.9394    1.0806   -3.6155 C   0  0  0  0  0  0  0  0  0  0  0  0
    1.7133    2.5331   -3.1912 C   0  0  0  0  0  0  0  0  0  0  0  0
    3.0639    3.2097   -2.9484 C   0  0  0  0  0  0  0  0  0  0  0  0
    2.8411    4.6404   -2.5305 C   0  0  0  0  0  0  0  0  0  0  0  0
    2.5977    5.0725   -1.2840 C   0  0  0  0  0  0  0  0  0  0  0  0
    2.4515    6.4765   -1.3270 C   0  0  0  0  0  0  0  0  0  0  0  0
    2.6035    6.8595   -2.5615 N   0  0  0  0  0  0  0  0  0  0  0  0
    2.8504    5.7210   -3.3449 N   0  0  0  0  0  0  0  0  0  0  0  0
    2.5531    7.8011   -2.8943 H   0  0  0  0  0  0  0  0  0  0  0  0
    2.1994    7.2098   -0.2097 O   0  0  0  0  0  0  0  0  0  0  0  0
    2.3592    6.6003    0.9817 C   0  0  0  0  0  0  0  0  0  0  0  0
    2.4960    5.2682    1.1475 C   0  0  0  0  0  0  0  0  0  0  0  0
    2.4809    4.2908   -0.0005 C   0  0  1  0  0  0  0  0  0  0  0  0
    3.3220    3.6034    0.0895 H   0  0  0  0  0  0  0  0  0  0  0  0
    1.1881    3.5164    0.0075 C   0  0  0  0  0  0  0  0  0  0  0  0
    0.0055    4.1589   -0.2003 C   0  0  0  0  0  0  0  0  0  0  0  0
   -1.2000    3.4631   -0.1974 C   0  0  0  0  0  0  0  0  0  0  0  0
   -1.2308    2.1124    0.0097 C   0  0  0  0  0  0  0  0  0  0  0  0
   -0.0259    1.4158    0.2331 C   0  0  0  0  0  0  0  0  0  0  0  0
    1.1987    2.1288    0.2292 C   0  0  0  0  0  0  0  0  0  0  0  0
    2.4009    1.4339    0.4467 C   0  0  0  0  0  0  0  0  0  0  0  0
    2.3730    0.0895    0.6565 C   0  0  0  0  0  0  0  0  0  0  0  0
    1.1683   -0.6111    0.6600 C   0  0  0  0  0  0  0  0  0  0  0  0
   -0.0151    0.0291    0.4534 C   0  0  0  0  0  0  0  0  0  0  0  0
   -2.4145    1.4467    0.0040 O   0  0  0  0  0  0  0  0  0  0  0  0
   -3.5930    2.2206   -0.2292 C   0  0  0  0  0  0  0  0  0  0  0  0
    2.6627    4.7590    2.4755 C   0  0  0  0  0  0  0  0  0  0  0  0
    2.7951    4.3550    3.5290 N   0  0  0  0  0  0  0  0  0  0  0  0
    2.3844    7.3895    2.1045 N   0  0  0  0  0  0  0  0  0  0  0  0
    2.5277    1.0573   -4.5329 H   0  0  0  0  0  0  0  0  0  0  0  0
    2.4746    0.5510   -2.8272 H   0  0  0  0  0  0  0  0  0  0  0  0
    0.9773    0.5986   -3.7885 H   0  0  0  0  0  0  0  0  0  0  0  0
    1.1251    2.5563   -2.2739 H   0  0  0  0  0  0  0  0  0  0  0  0
    1.1782    3.0627   -3.9794 H   0  0  0  0  0  0  0  0  0  0  0  0
    3.6521    3.1865   -3.8658 H   0  0  0  0  0  0  0  0  0  0  0  0
    3.5991    2.6800   -2.1601 H   0  0  0  0  0  0  0  0  0  0  0  0
    0.0030    5.2254   -0.3705 H   0  0  0  0  0  0  0  0  0  0  0  0
   -2.1235    3.9972   -0.3649 H   0  0  0  0  0  0  0  0  0  0  0  0
    3.3420    1.9639    0.4466 H   0  0  0  0  0  0  0  0  0  0  0  0
    3.2982   -0.4423    0.8230 H   0  0  0  0  0  0  0  0  0  0  0  0
    1.1738   -1.6778    0.8288 H   0  0  0  0  0  0  0  0  0  0  0  0
   -0.9411   -0.5267    0.4585 H   0  0  0  0  0  0  0  0  0  0  0  0
   -3.6880    2.9803    0.5466 H   0  0  0  0  0  0  0  0  0  0  0  0
   -3.5237    2.7033   -1.2040 H   0  0  0  0  0  0  0  0  0  0  0  0
   -4.4660    1.5683   -0.2079 H   0  0  0  0  0  0  0  0  0  0  0  0
    2.2889    8.3514    2.0236 H   0  0  0  0  0  0  0  0  0  0  0  0
    2.4976    6.9853    2.9791 H   0  0  0  0  0  0  0  0  0  0  0  0
  1  2  1  0  0  0  0
  1 30  1  0  0  0  0
  1 31  1  0  0  0  0
  1 32  1  0  0  0  0
  2  3  1  0  0  0  0
  2 33  1  0  0  0  0
  2 34  1  0  0  0  0
  3  4  1  0  0  0  0
  3 35  1  0  0  0  0
  3 36  1  0  0  0  0
  4  5  1  0  0  0  0
  4  8  2  0  0  0  0
  5 13  1  0  0  0  0
  5  6  2  0  0  0  0
  6 10  1  0  0  0  0
  6  7  1  0  0  0  0
  7  9  1  0  0  0  0
  7  8  1  0  0  0  0
 10 11  1  0  0  0  0
 11 12  2  0  0  0  0
 11 29  1  0  0  0  0
 12 13  1  0  0  0  0
 12 27  1  0  0  0  0
 13 14  1  0  0  0  0
 13 15  1  0  0  0  0
 15 20  2  0  0  0  0
 15 16  1  0  0  0  0
 16 17  2  0  0  0  0
 16 37  1  0  0  0  0
 17 18  1  0  0  0  0
 17 38  1  0  0  0  0
 18 19  2  0  0  0  0
 18 25  1  0  0  0  0
 19 24  1  0  0  0  0
 19 20  1  0  0  0  0
 20 21  1  0  0  0  0
 21 22  2  0  0  0  0
 21 39  1  0  0  0  0
 22 23  1  0  0  0  0
 22 40  1  0  0  0  0
 23 24  2  0  0  0  0
 23 41  1  0  0  0  0
 24 42  1  0  0  0  0
 25 26  1  0  0  0  0
 26 43  1  0  0  0  0
 26 44  1  0  0  0  0
 26 45  1  0  0  0  0
 27 28  3  0  0  0  0
 29 46  1  0  0  0  0
 29 47  1  0  0  0  0
M  END
$$$$
ZINC00809407
  -OEChem-08230709453D

 47 50  0     1  0  0  0  0  0999 V2000
    1.4322    6.7459   -3.7793 C   0  0  0  0  0  0  0  0  0  0  0  0
    2.5353    5.9172   -3.1180 C   0  0  0  0  0  0  0  0  0  0  0  0
    2.1353    4.4404   -3.1213 C   0  0  0  0  0  0  0  0  0  0  0  0
    3.2218    3.6242   -2.4699 C   0  0  0  0  0  0  0  0  0  0  0  0
    3.3650    3.4025   -1.1546 C   0  0  0  0  0  0  0  0  0  0  0  0
    4.5070    2.5929   -0.9678 C   0  0  0  0  0  0  0  0  0  0  0  0
    5.0200    2.3444   -2.1377 N   0  0  0  0  0  0  0  0  0  0  0  0
    4.2295    2.9833   -3.1061 N   0  0  0  0  0  0  0  0  0  0  0  0
    4.3842    2.9675   -4.0939 H   0  0  0  0  0  0  0  0  0  0  0  0
    4.9158    2.1966    0.2673 O   0  0  0  0  0  0  0  0  0  0  0  0
    4.3647    2.8139    1.3312 C   0  0  0  0  0  0  0  0  0  0  0  0
    3.2691    3.5998    1.2771 C   0  0  0  0  0  0  0  0  0  0  0  0
    2.5198    3.8793   -0.0011 C   0  0  2  0  0  0  0  0  0  0  0  0
    2.3387    4.9500   -0.0948 H   0  0  0  0  0  0  0  0  0  0  0  0
    1.2066    3.1401    0.0070 C   0  0  0  0  0  0  0  0  0  0  0  0
    1.1888    1.7785   -0.0096 C   0  0  0  0  0  0  0  0  0  0  0  0
   -0.0127    1.0759   -0.0021 C   0  0  0  0  0  0  0  0  0  0  0  0
   -1.2107    1.7334    0.0169 C   0  0  0  0  0  0  0  0  0  0  0  0
   -1.2297    3.1427    0.0398 C   0  0  0  0  0  0  0  0  0  0  0  0
   -0.0038    3.8534    0.0321 C   0  0  0  0  0  0  0  0  0  0  0  0
   -0.0223    5.2587    0.0501 C   0  0  0  0  0  0  0  0  0  0  0  0
   -1.2137    5.9161    0.0751 C   0  0  0  0  0  0  0  0  0  0  0  0
   -2.4190    5.2165    0.0823 C   0  0  0  0  0  0  0  0  0  0  0  0
   -2.4393    3.8554    0.0653 C   0  0  0  0  0  0  0  0  0  0  0  0
   -2.3746    1.0338    0.0183 O   0  0  0  0  0  0  0  0  0  0  0  0
   -2.2748   -0.3916   -0.0007 C   0  0  0  0  0  0  0  0  0  0  0  0
    2.7963    4.1963    2.4901 C   0  0  0  0  0  0  0  0  0  0  0  0
    2.4212    4.6696    3.4523 N   0  0  0  0  0  0  0  0  0  0  0  0
    4.9590    2.6301    2.5548 N   0  0  0  0  0  0  0  0  0  0  0  0
    1.7172    7.7980   -3.7770 H   0  0  0  0  0  0  0  0  0  0  0  0
    1.2917    6.4098   -4.8066 H   0  0  0  0  0  0  0  0  0  0  0  0
    0.5019    6.6203   -3.2255 H   0  0  0  0  0  0  0  0  0  0  0  0
    2.6758    6.2533   -2.0907 H   0  0  0  0  0  0  0  0  0  0  0  0
    3.4657    6.0428   -3.6718 H   0  0  0  0  0  0  0  0  0  0  0  0
    1.9947    4.1044   -4.1486 H   0  0  0  0  0  0  0  0  0  0  0  0
    1.2049    4.3148   -2.5674 H   0  0  0  0  0  0  0  0  0  0  0  0
    2.1220    1.2352   -0.0285 H   0  0  0  0  0  0  0  0  0  0  0  0
    0.0019   -0.0039   -0.0160 H   0  0  0  0  0  0  0  0  0  0  0  0
    0.9041    5.8138    0.0449 H   0  0  0  0  0  0  0  0  0  0  0  0
   -1.2253    6.9959    0.0893 H   0  0  0  0  0  0  0  0  0  0  0  0
   -3.3508    5.7623    0.1019 H   0  0  0  0  0  0  0  0  0  0  0  0
   -3.3809    3.3265    0.0718 H   0  0  0  0  0  0  0  0  0  0  0  0
   -1.7448   -0.7067   -0.8995 H   0  0  0  0  0  0  0  0  0  0  0  0
   -1.7290   -0.7294    0.8802 H   0  0  0  0  0  0  0  0  0  0  0  0
   -3.2745   -0.8259    0.0026 H   0  0  0  0  0  0  0  0  0  0  0  0
    4.5896    3.0587    3.3427 H   0  0  0  0  0  0  0  0  0  0  0  0
    5.7484    2.0716    2.6316 H   0  0  0  0  0  0  0  0  0  0  0  0
  1  2  1  0  0  0  0
  1 30  1  0  0  0  0
  1 31  1  0  0  0  0
  1 32  1  0  0  0  0
  2  3  1  0  0  0  0
  2 33  1  0  0  0  0
  2 34  1  0  0  0  0
  3  4  1  0  0  0  0
  3 35  1  0  0  0  0
  3 36  1  0  0  0  0
  4  8  1  0  0  0  0
  4  5  2  0  0  0  0
  5 13  1  0  0  0  0
  5  6  1  0  0  0  0
  6  7  2  0  0  0  0
  6 10  1  0  0  0  0
  7  8  1  0  0  0  0
  8  9  1  0  0  0  0
 10 11  1  0  0  0  0
 11 12  2  0  0  0  0
 11 29  1  0  0  0  0
 12 13  1  0  0  0  0
 12 27  1  0  0  0  0
 13 14  1  0  0  0  0
 13 15  1  0  0  0  0
 15 20  2  0  0  0  0
 15 16  1  0  0  0  0
 16 17  2  0  0  0  0
 16 37  1  0  0  0  0
 17 18  1  0  0  0  0
 17 38  1  0  0  0  0
 18 19  2  0  0  0  0
 18 25  1  0  0  0  0
 19 24  1  0  0  0  0
 19 20  1  0  0  0  0
 20 21  1  0  0  0  0
 21 22  2  0  0  0  0
 21 39  1  0  0  0  0
 22 23  1  0  0  0  0
 22 40  1  0  0  0  0
 23 24  2  0  0  0  0
 23 41  1  0  0  0  0
 24 42  1  0  0  0  0
 25 26  1  0  0  0  0
 26 43  1  0  0  0  0
 26 44  1  0  0  0  0
 26 45  1  0  0  0  0
 27 28  3  0  0  0  0
 29 46  1  0  0  0  0
 29 47  1  0  0  0  0
M  END
$$$$
ZINC00809407
  -OEChem-08230709453D

 47 50  0     1  0  0  0  0  0999 V2000
    1.4337    6.7486   -3.7770 C   0  0  0  0  0  0  0  0  0  0  0  0
    2.5364    5.9193   -3.1158 C   0  0  0  0  0  0  0  0  0  0  0  0
    2.1367    4.4424   -3.1211 C   0  0  0  0  0  0  0  0  0  0  0  0
    3.2228    3.6257   -2.4698 C   0  0  0  0  0  0  0  0  0  0  0  0
    3.3646    3.4019   -1.1547 C   0  0  0  0  0  0  0  0  0  0  0  0
    4.5063    2.5918   -0.9679 C   0  0  0  0  0  0  0  0  0  0  0  0
    5.0210    2.3458   -2.1376 N   0  0  0  0  0  0  0  0  0  0  0  0
    4.2312    2.9857   -3.1059 N   0  0  0  0  0  0  0  0  0  0  0  0
    5.8374    1.7964   -2.3157 H   0  0  0  0  0  0  0  0  0  0  0  0
    4.9146    2.1949    0.2671 O   0  0  0  0  0  0  0  0  0  0  0  0
    4.3634    2.8118    1.3312 C   0  0  0  0  0  0  0  0  0  0  0  0
    3.2680    3.5981    1.2771 C   0  0  0  0  0  0  0  0  0  0  0  0
    2.5192    3.8784   -0.0012 C   0  0  2  0  0  0  0  0  0  0  0  0
    2.3384    4.9492   -0.0945 H   0  0  0  0  0  0  0  0  0  0  0  0
    1.2057    3.1395    0.0062 C   0  0  0  0  0  0  0  0  0  0  0  0
    1.1876    1.7780   -0.0110 C   0  0  0  0  0  0  0  0  0  0  0  0
   -0.0141    1.0757   -0.0042 C   0  0  0  0  0  0  0  0  0  0  0  0
   -1.2120    1.7335    0.0147 C   0  0  0  0  0  0  0  0  0  0  0  0
   -1.2306    3.1428    0.0383 C   0  0  0  0  0  0  0  0  0  0  0  0
   -0.0045    3.8532    0.0313 C   0  0  0  0  0  0  0  0  0  0  0  0
   -0.0226    5.2585    0.0499 C   0  0  0  0  0  0  0  0  0  0  0  0
   -1.2138    5.9162    0.0749 C   0  0  0  0  0  0  0  0  0  0  0  0
   -2.4193    5.2170    0.0814 C   0  0  0  0  0  0  0  0  0  0  0  0
   -2.4400    3.8559    0.0638 C   0  0  0  0  0  0  0  0  0  0  0  0
   -2.3761    1.0343    0.0155 O   0  0  0  0  0  0  0  0  0  0  0  0
   -2.2767   -0.3911   -0.0041 C   0  0  0  0  0  0  0  0  0  0  0  0
    2.7950    4.1942    2.4902 C   0  0  0  0  0  0  0  0  0  0  0  0
    2.4198    4.6671    3.4525 N   0  0  0  0  0  0  0  0  0  0  0  0
    4.9573    2.6273    2.5548 N   0  0  0  0  0  0  0  0  0  0  0  0
    1.7185    7.8007   -3.7733 H   0  0  0  0  0  0  0  0  0  0  0  0
    1.2941    6.4136   -4.8048 H   0  0  0  0  0  0  0  0  0  0  0  0
    0.5030    6.6221   -3.2241 H   0  0  0  0  0  0  0  0  0  0  0  0
    2.6760    6.2542   -2.0880 H   0  0  0  0  0  0  0  0  0  0  0  0
    3.4673    6.0457   -3.6687 H   0  0  0  0  0  0  0  0  0  0  0  0
    1.9970    4.1076   -4.1489 H   0  0  0  0  0  0  0  0  0  0  0  0
    1.2059    4.3160   -2.5681 H   0  0  0  0  0  0  0  0  0  0  0  0
    2.1206    1.2344   -0.0299 H   0  0  0  0  0  0  0  0  0  0  0  0
    0.0001   -0.0041   -0.0186 H   0  0  0  0  0  0  0  0  0  0  0  0
    0.9040    5.8133    0.0452 H   0  0  0  0  0  0  0  0  0  0  0  0
   -1.2251    6.9960    0.0896 H   0  0  0  0  0  0  0  0  0  0  0  0
   -3.3509    5.7630    0.1010 H   0  0  0  0  0  0  0  0  0  0  0  0
   -3.3817    3.3272    0.0697 H   0  0  0  0  0  0  0  0  0  0  0  0
   -1.7465   -0.7060   -0.9029 H   0  0  0  0  0  0  0  0  0  0  0  0
   -1.7312   -0.7295    0.8768 H   0  0  0  0  0  0  0  0  0  0  0  0
   -3.2765   -0.8252   -0.0013 H   0  0  0  0  0  0  0  0  0  0  0  0
    4.5878    3.0557    3.3428 H   0  0  0  0  0  0  0  0  0  0  0  0
    5.7465    2.0685    2.6316 H   0  0  0  0  0  0  0  0  0  0  0  0
  1  2  1  0  0  0  0
  1 30  1  0  0  0  0
  1 31  1  0  0  0  0
  1 32  1  0  0  0  0
  2  3  1  0  0  0  0
  2 33  1  0  0  0  0
  2 34  1  0  0  0  0
  3  4  1  0  0  0  0
  3 35  1  0  0  0  0
  3 36  1  0  0  0  0
  4  5  1  0  0  0  0
  4  8  2  0  0  0  0
  5 13  1  0  0  0  0
  5  6  2  0  0  0  0
  6 10  1  0  0  0  0
  6  7  1  0  0  0  0
  7  9  1  0  0  0  0
  7  8  1  0  0  0  0
 10 11  1  0  0  0  0
 11 12  2  0  0  0  0
 11 29  1  0  0  0  0
 12 13  1  0  0  0  0
 12 27  1  0  0  0  0
 13 14  1  0  0  0  0
 13 15  1  0  0  0  0
 15 20  2  0  0  0  0
 15 16  1  0  0  0  0
 16 17  2  0  0  0  0
 16 37  1  0  0  0  0
 17 18  1  0  0  0  0
 17 38  1  0  0  0  0
 18 19  2  0  0  0  0
 18 25  1  0  0  0  0
 19 24  1  0  0  0  0
 19 20  1  0  0  0  0
 20 21  1  0  0  0  0
 21 22  2  0  0  0  0
 21 39  1  0  0  0  0
 22 23  1  0  0  0  0
 22 40  1  0  0  0  0
 23 24  2  0  0  0  0
 23 41  1  0  0  0  0
 24 42  1  0  0  0  0
 25 26  1  0  0  0  0
 26 43  1  0  0  0  0
 26 44  1  0  0  0  0
 26 45  1  0  0  0  0
 27 28  3  0  0  0  0
 29 46  1  0  0  0  0
 29 47  1  0  0  0  0
M  END
$$$$
ZINC00809456
  -OEChem-08230709453D

 42 44  0     1  0  0  0  0  0999 V2000
    8.6759    4.0439    5.6257 C   0  0  0  0  0  0  0  0  0  0  0  0
    7.3162    4.6202    5.2258 C   0  0  0  0  0  0  0  0  0  0  0  0
    6.8401    3.9502    4.0568 O   0  0  0  0  0  0  0  0  0  0  0  0
    5.6431    4.3430    3.5695 C   0  0  0  0  0  0  0  0  0  0  0  0
    5.0214    5.2316    4.1245 O   0  0  0  0  0  0  0  0  0  0  0  0
    5.1161    3.7280    2.4250 C   0  0  0  0  0  0  0  0  0  0  0  0
    5.5829    4.0827    1.1985 C   0  0  0  0  0  0  0  0  0  0  0  0
    5.0999    3.5149    0.0816 O   0  0  0  0  0  0  0  0  0  0  0  0
    3.8941    2.8956    0.1046 C   0  0  0  0  0  0  0  0  0  0  0  0
    3.2011    2.6831   -1.1218 C   0  0  0  0  0  0  0  0  0  0  0  0
    3.6760    3.0481   -2.1865 O   0  0  0  0  0  0  0  0  0  0  0  0
    1.9423    2.0337   -1.0656 C   0  0  0  0  0  0  0  0  0  0  0  0
    1.4667    1.6520    0.1352 C   0  0  0  0  0  0  0  0  0  0  0  0
    2.1363    1.8693    1.2646 O   0  0  0  0  0  0  0  0  0  0  0  0
    3.3331    2.4758    1.2568 C   0  0  0  0  0  0  0  0  0  0  0  0
    4.0437    2.6860    2.5713 C   0  0  1  0  0  0  0  0  0  0  0  0
    3.3240    3.0122    3.3221 H   0  0  0  0  0  0  0  0  0  0  0  0
    4.6673    1.3877    3.0148 C   0  0  0  0  0  0  0  0  0  0  0  0
    5.6208    0.7739    2.2241 C   0  0  0  0  0  0  0  0  0  0  0  0
    6.1974   -0.4138    2.6324 C   0  0  0  0  0  0  0  0  0  0  0  0
    5.8112   -0.9950    3.8283 C   0  0  0  0  0  0  0  0  0  0  0  0
    4.8520   -0.3822    4.6167 C   0  0  0  0  0  0  0  0  0  0  0  0
    4.2812    0.8086    4.2092 C   0  0  0  0  0  0  0  0  0  0  0  0
    6.3696   -2.1594    4.2254 F   0  0  0  0  0  0  0  0  0  0  0  0
    0.1289    0.9615    0.2028 C   0  0  0  0  0  0  0  0  0  0  0  0
    0.3152   -0.4505    0.0861 O   0  0  0  0  0  0  0  0  0  0  0  0
    6.5624    5.0345    1.1005 N   0  0  0  0  0  0  0  0  0  0  0  0
    8.5721    2.9790    5.8341 H   0  0  0  0  0  0  0  0  0  0  0  0
    9.3852    4.1871    4.8106 H   0  0  0  0  0  0  0  0  0  0  0  0
    9.0390    4.5549    6.5174 H   0  0  0  0  0  0  0  0  0  0  0  0
    7.4200    5.6850    5.0174 H   0  0  0  0  0  0  0  0  0  0  0  0
    6.6069    4.4769    6.0409 H   0  0  0  0  0  0  0  0  0  0  0  0
    1.3768    1.8486   -1.9668 H   0  0  0  0  0  0  0  0  0  0  0  0
    5.9182    1.2248    1.2888 H   0  0  0  0  0  0  0  0  0  0  0  0
    6.9458   -0.8907    2.0169 H   0  0  0  0  0  0  0  0  0  0  0  0
    4.5498   -0.8348    5.5495 H   0  0  0  0  0  0  0  0  0  0  0  0
    3.5330    1.2868    4.8240 H   0  0  0  0  0  0  0  0  0  0  0  0
   -0.5032    1.3132   -0.6126 H   0  0  0  0  0  0  0  0  0  0  0  0
   -0.3488    1.1873    1.1562 H   0  0  0  0  0  0  0  0  0  0  0  0
   -0.5060   -0.9599    0.1215 H   0  0  0  0  0  0  0  0  0  0  0  0
    6.9615    5.2328    0.2389 H   0  0  0  0  0  0  0  0  0  0  0  0
    6.8571    5.5106    1.8926 H   0  0  0  0  0  0  0  0  0  0  0  0
  1  2  1  0  0  0  0
  1 28  1  0  0  0  0
  1 29  1  0  0  0  0
  1 30  1  0  0  0  0
  2  3  1  0  0  0  0
  2 31  1  0  0  0  0
  2 32  1  0  0  0  0
  3  4  1  0  0  0  0
  4  5  2  0  0  0  0
  4  6  1  0  0  0  0
  6 16  1  0  0  0  0
  6  7  2  0  0  0  0
  7  8  1  0  0  0  0
  7 27  1  0  0  0  0
  8  9  1  0  0  0  0
  9 15  2  0  0  0  0
  9 10  1  0  0  0  0
 10 11  2  0  0  0  0
 10 12  1  0  0  0  0
 12 13  2  0  0  0  0
 12 33  1  0  0  0  0
 13 14  1  0  0  0  0
 13 25  1  0  0  0  0
 14 15  1  0  0  0  0
 15 16  1  0  0  0  0
 16 17  1  0  0  0  0
 16 18  1  0  0  0  0
 18 23  2  0  0  0  0
 18 19  1  0  0  0  0
 19 20  2  0  0  0  0
 19 34  1  0  0  0  0
 20 21  1  0  0  0  0
 20 35  1  0  0  0  0
 21 22  2  0  0  0  0
 21 24  1  0  0  0  0
 22 23  1  0  0  0  0
 22 36  1  0  0  0  0
 23 37  1  0  0  0  0
 25 26  1  0  0  0  0
 25 38  1  0  0  0  0
 25 39  1  0  0  0  0
 26 40  1  0  0  0  0
 27 41  1  0  0  0  0
 27 42  1  0  0  0  0
M  END
$$$$
ZINC00809496
  -OEChem-08230709453D

 43 46  0     1  0  0  0  0  0999 V2000
    6.9304   -2.2546    4.0598 C   0  0  0  0  0  0  0  0  0  0  0  0
    6.4401   -1.9418    2.7545 O   0  0  0  0  0  0  0  0  0  0  0  0
    5.5527   -0.9170    2.6580 C   0  0  0  0  0  0  0  0  0  0  0  0
    5.0363   -0.5598    1.4204 C   0  0  0  0  0  0  0  0  0  0  0  0
    4.1347    0.4826    1.3215 C   0  0  0  0  0  0  0  0  0  0  0  0
    3.7487    1.1749    2.4533 C   0  0  0  0  0  0  0  0  0  0  0  0
    4.2579    0.8178    3.6939 C   0  0  0  0  0  0  0  0  0  0  0  0
    5.1630   -0.2274    3.7957 C   0  0  0  0  0  0  0  0  0  0  0  0
    3.8742    1.4961    4.8073 O   0  0  0  0  0  0  0  0  0  0  0  0
    4.4434    1.0784    6.0497 C   0  0  0  0  0  0  0  0  0  0  0  0
    3.5763    0.8690   -0.0238 C   0  0  1  0  0  0  0  0  0  0  0  0
    4.0021    0.2297   -0.7971 H   0  0  0  0  0  0  0  0  0  0  0  0
    2.0765    0.7241   -0.0127 C   0  0  0  0  0  0  0  0  0  0  0  0
    1.3093   -0.4078   -0.0119 C   0  0  0  0  0  0  0  0  0  0  0  0
    0.0021   -0.0041    0.0020 N   0  0  0  0  0  0  0  0  0  0  0  0
   -0.7985   -0.6033    0.0060 H   0  0  0  0  0  0  0  0  0  0  0  0
   -0.0170    1.3990    0.0097 N   0  0  0  0  0  0  0  0  0  0  0  0
    1.2108    1.8345    0.0003 C   0  0  0  0  0  0  0  0  0  0  0  0
    1.6794    3.1122   -0.0002 O   0  0  0  0  0  0  0  0  0  0  0  0
    2.9835    3.2956   -0.2866 C   0  0  0  0  0  0  0  0  0  0  0  0
    3.9060    2.3111   -0.3167 C   0  0  0  0  0  0  0  0  0  0  0  0
    5.2588    2.6512   -0.6410 C   0  0  0  0  0  0  0  0  0  0  0  0
    6.3319    2.9209   -0.8982 N   0  0  0  0  0  0  0  0  0  0  0  0
    3.4024    4.5724   -0.5666 N   0  0  0  0  0  0  0  0  0  0  0  0
    1.7976   -1.7980   -0.0243 C   0  0  0  0  0  0  0  0  0  0  0  0
    1.3629   -2.8598   -0.7751 C   0  0  0  0  0  0  0  0  0  0  0  0
    1.9819   -4.0796   -0.6156 C   0  0  0  0  0  0  0  0  0  0  0  0
    2.9928   -4.1966    0.2836 C   0  0  0  0  0  0  0  0  0  0  0  0
    3.1039   -2.5402    0.9401 S   0  0  0  0  0  0  0  0  0  0  0  0
    7.6285   -3.0892    3.9953 H   0  0  0  0  0  0  0  0  0  0  0  0
    7.4408   -1.3852    4.4742 H   0  0  0  0  0  0  0  0  0  0  0  0
    6.0959   -2.5280    4.7055 H   0  0  0  0  0  0  0  0  0  0  0  0
    5.3397   -1.0968    0.5339 H   0  0  0  0  0  0  0  0  0  0  0  0
    3.0473    1.9922    2.3728 H   0  0  0  0  0  0  0  0  0  0  0  0
    5.5640   -0.5036    4.7597 H   0  0  0  0  0  0  0  0  0  0  0  0
    4.0540    1.7009    6.8553 H   0  0  0  0  0  0  0  0  0  0  0  0
    4.1826    0.0367    6.2369 H   0  0  0  0  0  0  0  0  0  0  0  0
    5.5278    1.1790    6.0046 H   0  0  0  0  0  0  0  0  0  0  0  0
    2.7669    5.3052   -0.5539 H   0  0  0  0  0  0  0  0  0  0  0  0
    4.3340    4.7420   -0.7771 H   0  0  0  0  0  0  0  0  0  0  0  0
    0.5533   -2.7411   -1.4800 H   0  0  0  0  0  0  0  0  0  0  0  0
    1.6645   -4.9337   -1.1956 H   0  0  0  0  0  0  0  0  0  0  0  0
    3.5786   -5.0678    0.5368 H   0  0  0  0  0  0  0  0  0  0  0  0
  1  2  1  0  0  0  0
  1 30  1  0  0  0  0
  1 31  1  0  0  0  0
  1 32  1  0  0  0  0
  2  3  1  0  0  0  0
  3  8  2  0  0  0  0
  3  4  1  0  0  0  0
  4  5  2  0  0  0  0
  4 33  1  0  0  0  0
  5  6  1  0  0  0  0
  5 11  1  0  0  0  0
  6  7  2  0  0  0  0
  6 34  1  0  0  0  0
  7  8  1  0  0  0  0
  7  9  1  0  0  0  0
  8 35  1  0  0  0  0
  9 10  1  0  0  0  0
 10 36  1  0  0  0  0
 10 37  1  0  0  0  0
 10 38  1  0  0  0  0
 11 12  1  0  0  0  0
 11 21  1  0  0  0  0
 11 13  1  0  0  0  0
 13 18  1  0  0  0  0
 13 14  2  0  0  0  0
 14 15  1  0  0  0  0
 14 25  1  0  0  0  0
 15 16  1  0  0  0  0
 15 17  1  0  0  0  0
 17 18  2  0  0  0  0
 18 19  1  0  0  0  0
 19 20  1  0  0  0  0
 20 21  2  0  0  0  0
 20 24  1  0  0  0  0
 21 22  1  0  0  0  0
 22 23  3  0  0  0  0
 24 39  1  0  0  0  0
 24 40  1  0  0  0  0
 25 29  1  0  0  0  0
 25 26  2  0  0  0  0
 26 27  1  0  0  0  0
 26 41  1  0  0  0  0
 27 28  2  0  0  0  0
 27 42  1  0  0  0  0
 28 29  1  0  0  0  0
 28 43  1  0  0  0  0
M  END
$$$$
ZINC00809496
  -OEChem-08230709453D

 43 46  0     1  0  0  0  0  0999 V2000
    6.9298   -2.2564    4.0598 C   0  0  0  0  0  0  0  0  0  0  0  0
    6.4397   -1.9430    2.7545 O   0  0  0  0  0  0  0  0  0  0  0  0
    5.5523   -0.9182    2.6584 C   0  0  0  0  0  0  0  0  0  0  0  0
    5.0361   -0.5604    1.4208 C   0  0  0  0  0  0  0  0  0  0  0  0
    4.1345    0.4820    1.3223 C   0  0  0  0  0  0  0  0  0  0  0  0
    3.7484    1.1738    2.4543 C   0  0  0  0  0  0  0  0  0  0  0  0
    4.2574    0.8162    3.6948 C   0  0  0  0  0  0  0  0  0  0  0  0
    5.1625   -0.2291    3.7963 C   0  0  0  0  0  0  0  0  0  0  0  0
    3.8736    1.4940    4.8085 O   0  0  0  0  0  0  0  0  0  0  0  0
    4.4426    1.0757    6.0508 C   0  0  0  0  0  0  0  0  0  0  0  0
    3.5763    0.8690   -0.0229 C   0  0  1  0  0  0  0  0  0  0  0  0
    4.0022    0.2300   -0.7965 H   0  0  0  0  0  0  0  0  0  0  0  0
    2.0765    0.7241   -0.0121 C   0  0  0  0  0  0  0  0  0  0  0  0
    1.3093   -0.4078   -0.0129 C   0  0  0  0  0  0  0  0  0  0  0  0
    0.0021   -0.0041    0.0005 N   0  0  0  0  0  0  0  0  0  0  0  0
   -0.8377    1.9703    0.0188 H   0  0  0  0  0  0  0  0  0  0  0  0
   -0.0170    1.3990    0.0088 N   0  0  0  0  0  0  0  0  0  0  0  0
    1.2108    1.8345    0.0013 C   0  0  0  0  0  0  0  0  0  0  0  0
    1.6794    3.1122    0.0014 O   0  0  0  0  0  0  0  0  0  0  0  0
    2.9836    3.2957   -0.2847 C   0  0  0  0  0  0  0  0  0  0  0  0
    3.9061    2.3112   -0.3152 C   0  0  0  0  0  0  0  0  0  0  0  0
    5.2589    2.6515   -0.6391 C   0  0  0  0  0  0  0  0  0  0  0  0
    6.3320    2.9213   -0.8961 N   0  0  0  0  0  0  0  0  0  0  0  0
    3.4025    4.5726   -0.5641 N   0  0  0  0  0  0  0  0  0  0  0  0
    1.7976   -1.7980   -0.0256 C   0  0  0  0  0  0  0  0  0  0  0  0
    1.3633   -2.8594   -0.7771 C   0  0  0  0  0  0  0  0  0  0  0  0
    1.9822   -4.0793   -0.6178 C   0  0  0  0  0  0  0  0  0  0  0  0
    2.9926   -4.1967    0.2819 C   0  0  0  0  0  0  0  0  0  0  0  0
    3.1033   -2.5406    0.9392 S   0  0  0  0  0  0  0  0  0  0  0  0
    7.6279   -3.0910    3.9950 H   0  0  0  0  0  0  0  0  0  0  0  0
    7.4402   -1.3872    4.4746 H   0  0  0  0  0  0  0  0  0  0  0  0
    6.0952   -2.5301    4.7052 H   0  0  0  0  0  0  0  0  0  0  0  0
    5.3396   -1.0971    0.5341 H   0  0  0  0  0  0  0  0  0  0  0  0
    3.0470    1.9911    2.3741 H   0  0  0  0  0  0  0  0  0  0  0  0
    5.5634   -0.5057    4.7602 H   0  0  0  0  0  0  0  0  0  0  0  0
    4.0531    1.6979    6.8566 H   0  0  0  0  0  0  0  0  0  0  0  0
    4.1818    0.0339    6.2375 H   0  0  0  0  0  0  0  0  0  0  0  0
    5.5270    1.1763    6.0059 H   0  0  0  0  0  0  0  0  0  0  0  0
    2.7670    5.3054   -0.5512 H   0  0  0  0  0  0  0  0  0  0  0  0
    4.3341    4.7423   -0.7744 H   0  0  0  0  0  0  0  0  0  0  0  0
    0.5541   -2.7404   -1.4825 H   0  0  0  0  0  0  0  0  0  0  0  0
    1.6652   -4.9332   -1.1984 H   0  0  0  0  0  0  0  0  0  0  0  0
    3.5782   -5.0681    0.5350 H   0  0  0  0  0  0  0  0  0  0  0  0
  1  2  1  0  0  0  0
  1 30  1  0  0  0  0
  1 31  1  0  0  0  0
  1 32  1  0  0  0  0
  2  3  1  0  0  0  0
  3  8  2  0  0  0  0
  3  4  1  0  0  0  0
  4  5  2  0  0  0  0
  4 33  1  0  0  0  0
  5  6  1  0  0  0  0
  5 11  1  0  0  0  0
  6  7  2  0  0  0  0
  6 34  1  0  0  0  0
  7  8  1  0  0  0  0
  7  9  1  0  0  0  0
  8 35  1  0  0  0  0
  9 10  1  0  0  0  0
 10 36  1  0  0  0  0
 10 37  1  0  0  0  0
 10 38  1  0  0  0  0
 11 12  1  0  0  0  0
 11 21  1  0  0  0  0
 11 13  1  0  0  0  0
 13 14  1  0  0  0  0
 13 18  2  0  0  0  0
 14 25  1  0  0  0  0
 14 15  2  0  0  0  0
 15 17  1  0  0  0  0
 16 17  1  0  0  0  0
 17 18  1  0  0  0  0
 18 19  1  0  0  0  0
 19 20  1  0  0  0  0
 20 21  2  0  0  0  0
 20 24  1  0  0  0  0
 21 22  1  0  0  0  0
 22 23  3  0  0  0  0
 24 39  1  0  0  0  0
 24 40  1  0  0  0  0
 25 29  1  0  0  0  0
 25 26  2  0  0  0  0
 26 27  1  0  0  0  0
 26 41  1  0  0  0  0
 27 28  2  0  0  0  0
 27 42  1  0  0  0  0
 28 29  1  0  0  0  0
 28 43  1  0  0  0  0
M  END
$$$$
ZINC00809497
  -OEChem-08230709453D

 43 46  0     1  0  0  0  0  0999 V2000
    5.6369    5.3850   -4.1468 C   0  0  0  0  0  0  0  0  0  0  0  0
    5.2016    5.0262   -2.8339 O   0  0  0  0  0  0  0  0  0  0  0  0
    3.9469    4.5173   -2.7175 C   0  0  0  0  0  0  0  0  0  0  0  0
    3.4601    4.1479   -1.4715 C   0  0  0  0  0  0  0  0  0  0  0  0
    2.1848    3.6295   -1.3527 C   0  0  0  0  0  0  0  0  0  0  0  0
    1.3929    3.4731   -2.4741 C   0  0  0  0  0  0  0  0  0  0  0  0
    1.8729    3.8464   -3.7216 C   0  0  0  0  0  0  0  0  0  0  0  0
    3.1523    4.3663   -3.8435 C   0  0  0  0  0  0  0  0  0  0  0  0
    1.0915    3.6975   -4.8234 O   0  0  0  0  0  0  0  0  0  0  0  0
    1.6525    4.0974   -6.0754 C   0  0  0  0  0  0  0  0  0  0  0  0
    1.6591    3.2283    0.0014 C   0  0  2  0  0  0  0  0  0  0  0  0
    2.4132    3.4277    0.7627 H   0  0  0  0  0  0  0  0  0  0  0  0
    1.3141    1.7615   -0.0010 C   0  0  0  0  0  0  0  0  0  0  0  0
    2.1393    0.6712   -0.0139 C   0  0  0  0  0  0  0  0  0  0  0  0
    1.3367   -0.4370   -0.0124 N   0  0  0  0  0  0  0  0  0  0  0  0
    1.6466   -1.3877   -0.0202 H   0  0  0  0  0  0  0  0  0  0  0  0
    0.0021   -0.0041    0.0020 N   0  0  0  0  0  0  0  0  0  0  0  0
   -0.0156    1.2986    0.0092 C   0  0  0  0  0  0  0  0  0  0  0  0
   -1.0748    2.1528    0.0289 O   0  0  0  0  0  0  0  0  0  0  0  0
   -0.8249    3.4477    0.3029 C   0  0  0  0  0  0  0  0  0  0  0  0
    0.4042    4.0049    0.3120 C   0  0  0  0  0  0  0  0  0  0  0  0
    0.5221    5.3960    0.6304 C   0  0  0  0  0  0  0  0  0  0  0  0
    0.6157    6.4996    0.8830 N   0  0  0  0  0  0  0  0  0  0  0  0
   -1.8947    4.2559    0.5971 N   0  0  0  0  0  0  0  0  0  0  0  0
    3.6126    0.6868   -0.0261 C   0  0  0  0  0  0  0  0  0  0  0  0
    4.4783   -0.0570   -0.7861 C   0  0  0  0  0  0  0  0  0  0  0  0
    5.8324    0.1350   -0.6244 C   0  0  0  0  0  0  0  0  0  0  0  0
    6.2681    1.0437    0.2859 C   0  0  0  0  0  0  0  0  0  0  0  0
    4.7355    1.6734    0.9502 S   0  0  0  0  0  0  0  0  0  0  0  0
    6.6530    5.7767   -4.0983 H   0  0  0  0  0  0  0  0  0  0  0  0
    5.6172    4.5048   -4.7894 H   0  0  0  0  0  0  0  0  0  0  0  0
    4.9728    6.1472   -4.5542 H   0  0  0  0  0  0  0  0  0  0  0  0
    4.0787    4.2653   -0.5941 H   0  0  0  0  0  0  0  0  0  0  0  0
    0.3980    3.0636   -2.3793 H   0  0  0  0  0  0  0  0  0  0  0  0
    3.5295    4.6528   -4.8140 H   0  0  0  0  0  0  0  0  0  0  0  0
    1.9070    5.1566   -6.0377 H   0  0  0  0  0  0  0  0  0  0  0  0
    2.5519    3.5144   -6.2733 H   0  0  0  0  0  0  0  0  0  0  0  0
    0.9263    3.9263   -6.8701 H   0  0  0  0  0  0  0  0  0  0  0  0
   -1.7525    5.1932    0.8022 H   0  0  0  0  0  0  0  0  0  0  0  0
   -2.7929    3.8896    0.6000 H   0  0  0  0  0  0  0  0  0  0  0  0
    4.1056   -0.7769   -1.4997 H   0  0  0  0  0  0  0  0  0  0  0  0
    6.5390   -0.4330   -1.2113 H   0  0  0  0  0  0  0  0  0  0  0  0
    7.2815    1.3156    0.5420 H   0  0  0  0  0  0  0  0  0  0  0  0
  1  2  1  0  0  0  0
  1 30  1  0  0  0  0
  1 31  1  0  0  0  0
  1 32  1  0  0  0  0
  2  3  1  0  0  0  0
  3  8  2  0  0  0  0
  3  4  1  0  0  0  0
  4  5  2  0  0  0  0
  4 33  1  0  0  0  0
  5  6  1  0  0  0  0
  5 11  1  0  0  0  0
  6  7  2  0  0  0  0
  6 34  1  0  0  0  0
  7  8  1  0  0  0  0
  7  9  1  0  0  0  0
  8 35  1  0  0  0  0
  9 10  1  0  0  0  0
 10 36  1  0  0  0  0
 10 37  1  0  0  0  0
 10 38  1  0  0  0  0
 11 12  1  0  0  0  0
 11 21  1  0  0  0  0
 11 13  1  0  0  0  0
 13 18  1  0  0  0  0
 13 14  2  0  0  0  0
 14 15  1  0  0  0  0
 14 25  1  0  0  0  0
 15 16  1  0  0  0  0
 15 17  1  0  0  0  0
 17 18  2  0  0  0  0
 18 19  1  0  0  0  0
 19 20  1  0  0  0  0
 20 21  2  0  0  0  0
 20 24  1  0  0  0  0
 21 22  1  0  0  0  0
 22 23  3  0  0  0  0
 24 39  1  0  0  0  0
 24 40  1  0  0  0  0
 25 29  1  0  0  0  0
 25 26  2  0  0  0  0
 26 27  1  0  0  0  0
 26 41  1  0  0  0  0
 27 28  2  0  0  0  0
 27 42  1  0  0  0  0
 28 29  1  0  0  0  0
 28 43  1  0  0  0  0
M  END
$$$$
ZINC00809497
  -OEChem-08230709453D

 43 46  0     1  0  0  0  0  0999 V2000
    5.6393    5.3833   -4.1468 C   0  0  0  0  0  0  0  0  0  0  0  0
    5.2032    5.0250   -2.8340 O   0  0  0  0  0  0  0  0  0  0  0  0
    3.9484    4.5162   -2.7181 C   0  0  0  0  0  0  0  0  0  0  0  0
    3.4609    4.1473   -1.4722 C   0  0  0  0  0  0  0  0  0  0  0  0
    2.1856    3.6289   -1.3539 C   0  0  0  0  0  0  0  0  0  0  0  0
    1.3943    3.4721   -2.4757 C   0  0  0  0  0  0  0  0  0  0  0  0
    1.8750    3.8449   -3.7231 C   0  0  0  0  0  0  0  0  0  0  0  0
    3.1545    4.3647   -3.8445 C   0  0  0  0  0  0  0  0  0  0  0  0
    1.0942    3.6955   -4.8253 O   0  0  0  0  0  0  0  0  0  0  0  0
    1.6560    4.0949   -6.0771 C   0  0  0  0  0  0  0  0  0  0  0  0
    1.6591    3.2283    0.0001 C   0  0  2  0  0  0  0  0  0  0  0  0
    2.4128    3.4280    0.7617 H   0  0  0  0  0  0  0  0  0  0  0  0
    1.3141    1.7615   -0.0019 C   0  0  0  0  0  0  0  0  0  0  0  0
    2.1393    0.6712   -0.0125 C   0  0  0  0  0  0  0  0  0  0  0  0
    1.3367   -0.4370   -0.0101 N   0  0  0  0  0  0  0  0  0  0  0  0
   -0.8027   -0.5976    0.0087 H   0  0  0  0  0  0  0  0  0  0  0  0
    0.0021   -0.0041    0.0033 N   0  0  0  0  0  0  0  0  0  0  0  0
   -0.0156    1.2986    0.0077 C   0  0  0  0  0  0  0  0  0  0  0  0
   -1.0748    2.1528    0.0264 O   0  0  0  0  0  0  0  0  0  0  0  0
   -0.8251    3.4478    0.3001 C   0  0  0  0  0  0  0  0  0  0  0  0
    0.4040    4.0050    0.3096 C   0  0  0  0  0  0  0  0  0  0  0  0
    0.5217    5.3963    0.6275 C   0  0  0  0  0  0  0  0  0  0  0  0
    0.6152    6.5000    0.8797 N   0  0  0  0  0  0  0  0  0  0  0  0
   -1.8951    4.2561    0.5933 N   0  0  0  0  0  0  0  0  0  0  0  0
    3.6126    0.6868   -0.0242 C   0  0  0  0  0  0  0  0  0  0  0  0
    4.4786   -0.0578   -0.7831 C   0  0  0  0  0  0  0  0  0  0  0  0
    5.8326    0.1344   -0.6211 C   0  0  0  0  0  0  0  0  0  0  0  0
    6.2680    1.0440    0.2884 C   0  0  0  0  0  0  0  0  0  0  0  0
    4.7352    1.6744    0.9515 S   0  0  0  0  0  0  0  0  0  0  0  0
    6.6553    5.7750   -4.0978 H   0  0  0  0  0  0  0  0  0  0  0  0
    5.6199    4.5028   -4.7890 H   0  0  0  0  0  0  0  0  0  0  0  0
    4.9754    6.1453   -4.5548 H   0  0  0  0  0  0  0  0  0  0  0  0
    4.0790    4.2651   -0.5945 H   0  0  0  0  0  0  0  0  0  0  0  0
    0.3994    3.0626   -2.3813 H   0  0  0  0  0  0  0  0  0  0  0  0
    3.5322    4.6508   -4.8149 H   0  0  0  0  0  0  0  0  0  0  0  0
    1.9104    5.1541   -6.0397 H   0  0  0  0  0  0  0  0  0  0  0  0
    2.5555    3.5118   -6.2742 H   0  0  0  0  0  0  0  0  0  0  0  0
    0.9302    3.9235   -6.8721 H   0  0  0  0  0  0  0  0  0  0  0  0
   -1.7530    5.1935    0.7981 H   0  0  0  0  0  0  0  0  0  0  0  0
   -2.7933    3.8898    0.5958 H   0  0  0  0  0  0  0  0  0  0  0  0
    4.1062   -0.7784   -1.4961 H   0  0  0  0  0  0  0  0  0  0  0  0
    6.5394   -0.4342   -1.2072 H   0  0  0  0  0  0  0  0  0  0  0  0
    7.2813    1.3162    0.5446 H   0  0  0  0  0  0  0  0  0  0  0  0
  1  2  1  0  0  0  0
  1 30  1  0  0  0  0
  1 31  1  0  0  0  0
  1 32  1  0  0  0  0
  2  3  1  0  0  0  0
  3  8  2  0  0  0  0
  3  4  1  0  0  0  0
  4  5  2  0  0  0  0
  4 33  1  0  0  0  0
  5  6  1  0  0  0  0
  5 11  1  0  0  0  0
  6  7  2  0  0  0  0
  6 34  1  0  0  0  0
  7  8  1  0  0  0  0
  7  9  1  0  0  0  0
  8 35  1  0  0  0  0
  9 10  1  0  0  0  0
 10 36  1  0  0  0  0
 10 37  1  0  0  0  0
 10 38  1  0  0  0  0
 11 12  1  0  0  0  0
 11 21  1  0  0  0  0
 11 13  1  0  0  0  0
 13 14  1  0  0  0  0
 13 18  2  0  0  0  0
 14 25  1  0  0  0  0
 14 15  2  0  0  0  0
 15 17  1  0  0  0  0
 16 17  1  0  0  0  0
 17 18  1  0  0  0  0
 18 19  1  0  0  0  0
 19 20  1  0  0  0  0
 20 21  2  0  0  0  0
 20 24  1  0  0  0  0
 21 22  1  0  0  0  0
 22 23  3  0  0  0  0
 24 39  1  0  0  0  0
 24 40  1  0  0  0  0
 25 29  1  0  0  0  0
 25 26  2  0  0  0  0
 26 27  1  0  0  0  0
 26 41  1  0  0  0  0
 27 28  2  0  0  0  0
 27 42  1  0  0  0  0
 28 29  1  0  0  0  0
 28 43  1  0  0  0  0
M  END
$$$$
ZINC00844921
  -OEChem-08230709453D

 48 49  0     0  0  0  0  0  0999 V2000
    2.6596   -0.0069    1.4505 C   0  0  0  0  0  0  0  0  0  0  0  0
    2.6895    0.5624    0.0306 C   0  0  0  0  0  0  0  0  0  0  0  0
    2.6329   -0.5849   -0.9801 C   0  0  0  0  0  0  0  0  0  0  0  0
    1.5032    1.4693   -0.1720 C   0  0  0  0  0  0  0  0  0  0  0  0
    0.2222    0.9705   -0.0393 C   0  0  0  0  0  0  0  0  0  0  0  0
   -0.8708    1.8053   -0.2309 C   0  0  0  0  0  0  0  0  0  0  0  0
   -0.6747    3.1437   -0.5449 C   0  0  0  0  0  0  0  0  0  0  0  0
    0.6070    3.6408   -0.6772 C   0  0  0  0  0  0  0  0  0  0  0  0
    1.6981    2.8049   -0.4913 C   0  0  0  0  0  0  0  0  0  0  0  0
    2.9599    3.2953   -0.6218 O   0  0  0  0  0  0  0  0  0  0  0  0
    0.8201    5.0920   -1.0231 C   0  0  0  0  0  0  0  0  0  0  0  0
    0.2692    5.3687   -2.4234 C   0  0  0  0  0  0  0  0  0  0  0  0
    0.0909    5.9713   -0.0052 C   0  0  0  0  0  0  0  0  0  0  0  0
   -2.1692    1.2993   -0.1023 N   0  0  0  0  0  0  0  0  0  0  0  0
   -3.3016    2.1366    0.7690 S   0  0  0  0  0  0  0  0  0  0  0  0
   -3.3189    3.4585    0.2481 O   0  0  0  0  0  0  0  0  0  0  0  0
   -4.4639    1.3204    0.8145 O   0  0  0  0  0  0  0  0  0  0  0  0
   -2.7041    2.2546    2.4224 C   0  0  0  0  0  0  0  0  0  0  0  0
   -2.4293    3.4934    2.9713 C   0  0  0  0  0  0  0  0  0  0  0  0
   -1.9652    3.5862    4.2699 C   0  0  0  0  0  0  0  0  0  0  0  0
   -1.7658    2.4397    5.0164 C   0  0  0  0  0  0  0  0  0  0  0  0
   -2.0355    1.2010    4.4658 C   0  0  0  0  0  0  0  0  0  0  0  0
   -2.5048    1.1084    3.1686 C   0  0  0  0  0  0  0  0  0  0  0  0
   -2.7932   -0.2182    2.5788 N   0  3  0  0  0  0  0  0  0  0  0  0
   -2.7361   -1.2182    3.2718 O   0  0  0  0  0  0  0  0  0  0  0  0
   -3.0875   -0.3099    1.4004 O   0  5  0  0  0  0  0  0  0  0  0  0
    2.6999    0.8105    2.1705 H   0  0  0  0  0  0  0  0  0  0  0  0
    1.7399   -0.5737    1.5954 H   0  0  0  0  0  0  0  0  0  0  0  0
    3.5176   -0.6629    1.5971 H   0  0  0  0  0  0  0  0  0  0  0  0
    3.6092    1.1292   -0.1143 H   0  0  0  0  0  0  0  0  0  0  0  0
    2.6542   -0.1794   -1.9916 H   0  0  0  0  0  0  0  0  0  0  0  0
    3.4910   -1.2409   -0.8335 H   0  0  0  0  0  0  0  0  0  0  0  0
    1.7132   -1.1517   -0.8352 H   0  0  0  0  0  0  0  0  0  0  0  0
    0.0705   -0.0696    0.2089 H   0  0  0  0  0  0  0  0  0  0  0  0
   -1.5242    3.7946   -0.6896 H   0  0  0  0  0  0  0  0  0  0  0  0
    3.3153    3.2331   -1.5190 H   0  0  0  0  0  0  0  0  0  0  0  0
    1.8862    5.3181   -1.0009 H   0  0  0  0  0  0  0  0  0  0  0  0
   -0.7969    5.1427   -2.4456 H   0  0  0  0  0  0  0  0  0  0  0  0
    0.4233    6.4184   -2.6736 H   0  0  0  0  0  0  0  0  0  0  0  0
    0.7886    4.7423   -3.1485 H   0  0  0  0  0  0  0  0  0  0  0  0
    0.1729    7.0166   -0.3033 H   0  0  0  0  0  0  0  0  0  0  0  0
   -0.9603    5.6861    0.0342 H   0  0  0  0  0  0  0  0  0  0  0  0
    0.5408    5.8377    0.9786 H   0  0  0  0  0  0  0  0  0  0  0  0
   -2.4059    0.4583   -0.5235 H   0  0  0  0  0  0  0  0  0  0  0  0
   -2.5809    4.3887    2.3867 H   0  0  0  0  0  0  0  0  0  0  0  0
   -1.7541    4.5541    4.7000 H   0  0  0  0  0  0  0  0  0  0  0  0
   -1.3989    2.5119    6.0296 H   0  0  0  0  0  0  0  0  0  0  0  0
   -1.8794    0.3053    5.0488 H   0  0  0  0  0  0  0  0  0  0  0  0
  1  2  1  0  0  0  0
  1 27  1  0  0  0  0
  1 28  1  0  0  0  0
  1 29  1  0  0  0  0
  2  3  1  0  0  0  0
  2  4  1  0  0  0  0
  2 30  1  0  0  0  0
  3 31  1  0  0  0  0
  3 32  1  0  0  0  0
  3 33  1  0  0  0  0
  4  9  2  0  0  0  0
  4  5  1  0  0  0  0
  5  6  2  0  0  0  0
  5 34  1  0  0  0  0
  6  7  1  0  0  0  0
  6 14  1  0  0  0  0
  7  8  2  0  0  0  0
  7 35  1  0  0  0  0
  8  9  1  0  0  0  0
  8 11  1  0  0  0  0
  9 10  1  0  0  0  0
 10 36  1  0  0  0  0
 11 12  1  0  0  0  0
 11 13  1  0  0  0  0
 11 37  1  0  0  0  0
 12 38  1  0  0  0  0
 12 39  1  0  0  0  0
 12 40  1  0  0  0  0
 13 41  1  0  0  0  0
 13 42  1  0  0  0  0
 13 43  1  0  0  0  0
 14 15  1  0  0  0  0
 14 44  1  0  0  0  0
 15 16  2  0  0  0  0
 15 17  2  0  0  0  0
 15 18  1  0  0  0  0
 18 23  2  0  0  0  0
 18 19  1  0  0  0  0
 19 20  2  0  0  0  0
 19 45  1  0  0  0  0
 20 21  1  0  0  0  0
 20 46  1  0  0  0  0
 21 22  2  0  0  0  0
 21 47  1  0  0  0  0
 22 23  1  0  0  0  0
 22 48  1  0  0  0  0
 23 24  1  0  0  0  0
 24 25  2  0  0  0  0
 24 26  1  0  0  0  0
M  CHG  2  24   1  26  -1
M  END
$$$$
ZINC00847775
  -OEChem-08230709453D

 42 45  0     0  0  0  0  0  0999 V2000
   -5.8578    1.5459    0.1982 C   0  0  0  0  0  0  0  0  0  0  0  0
   -6.0074    3.0454    0.1819 C   0  0  0  0  0  0  0  0  0  0  0  0
   -7.2021    3.5724    0.2418 N   0  0  0  0  0  0  0  0  0  0  0  0
   -7.3685    4.8912    0.2238 C   0  0  0  0  0  0  0  0  0  0  0  0
   -6.2825    5.7781    0.1465 C   0  0  0  0  0  0  0  0  0  0  0  0
   -6.6181    7.2015    0.1355 C   0  0  0  0  0  0  0  0  0  0  0  0
   -7.9275    7.5222    0.1998 C   0  0  0  0  0  0  0  0  0  0  0  0
   -8.7778    5.9688    0.2779 S   0  0  0  0  0  0  0  0  0  0  0  0
   -8.5263    8.8956    0.2039 C   0  0  0  0  0  0  0  0  0  0  0  0
   -7.4111    9.9093    0.4979 C   0  0  0  0  0  0  0  0  0  0  0  0
   -6.2108    9.5933   -0.3993 C   0  0  0  0  0  0  0  0  0  0  0  0
   -5.5517    8.2904    0.0542 C   0  0  0  0  0  0  0  0  0  0  0  0
   -4.9869    5.1694    0.0882 C   0  0  0  0  0  0  0  0  0  0  0  0
   -3.9820    5.8564    0.0191 O   0  0  0  0  0  0  0  0  0  0  0  0
   -4.8974    3.8265    0.1105 N   0  0  0  0  0  0  0  0  0  0  0  0
   -3.6350    3.2217    0.0531 N   0  0  0  0  0  0  0  0  0  0  0  0
   -2.7978    3.3710    1.0355 C   0  0  0  0  0  0  0  0  0  0  0  0
   -1.4321    2.8327    0.9268 C   0  0  0  0  0  0  0  0  0  0  0  0
   -0.5290    2.9917    1.9821 C   0  0  0  0  0  0  0  0  0  0  0  0
    0.7478    2.4870    1.8761 C   0  0  0  0  0  0  0  0  0  0  0  0
    1.1430    1.8186    0.7226 C   0  0  0  0  0  0  0  0  0  0  0  0
    0.2546    1.6554   -0.3302 C   0  0  0  0  0  0  0  0  0  0  0  0
   -1.0296    2.1630   -0.2383 C   0  0  0  0  0  0  0  0  0  0  0  0
   -1.8986    2.0086   -1.2700 O   0  0  0  0  0  0  0  0  0  0  0  0
    2.4040    1.3239    0.6261 O   0  0  0  0  0  0  0  0  0  0  0  0
   -5.7674    1.2010    1.2282 H   0  0  0  0  0  0  0  0  0  0  0  0
   -6.7333    1.0885   -0.2626 H   0  0  0  0  0  0  0  0  0  0  0  0
   -4.9646    1.2638   -0.3592 H   0  0  0  0  0  0  0  0  0  0  0  0
   -8.9668    9.1069   -0.7705 H   0  0  0  0  0  0  0  0  0  0  0  0
   -9.2937    8.9592    0.9753 H   0  0  0  0  0  0  0  0  0  0  0  0
   -7.7688   10.9174    0.2884 H   0  0  0  0  0  0  0  0  0  0  0  0
   -7.1171    9.8359    1.5450 H   0  0  0  0  0  0  0  0  0  0  0  0
   -6.5473    9.4889   -1.4308 H   0  0  0  0  0  0  0  0  0  0  0  0
   -5.4868   10.4056   -0.3349 H   0  0  0  0  0  0  0  0  0  0  0  0
   -5.0993    8.4325    1.0357 H   0  0  0  0  0  0  0  0  0  0  0  0
   -4.7859    7.9988   -0.6644 H   0  0  0  0  0  0  0  0  0  0  0  0
   -3.1039    3.8900    1.9317 H   0  0  0  0  0  0  0  0  0  0  0  0
   -0.8326    3.5097    2.8799 H   0  0  0  0  0  0  0  0  0  0  0  0
    1.4447    2.6104    2.6920 H   0  0  0  0  0  0  0  0  0  0  0  0
    0.5667    1.1358   -1.2241 H   0  0  0  0  0  0  0  0  0  0  0  0
   -2.4272    1.2004   -1.2213 H   0  0  0  0  0  0  0  0  0  0  0  0
    3.0424    1.9448    0.2493 H   0  0  0  0  0  0  0  0  0  0  0  0
  1  2  1  0  0  0  0
  1 26  1  0  0  0  0
  1 27  1  0  0  0  0
  1 28  1  0  0  0  0
  2 15  1  0  0  0  0
  2  3  2  0  0  0  0
  3  4  1  0  0  0  0
  4  8  1  0  0  0  0
  4  5  2  0  0  0  0
  5  6  1  0  0  0  0
  5 13  1  0  0  0  0
  6 12  1  0  0  0  0
  6  7  2  0  0  0  0
  7  8  1  0  0  0  0
  7  9  1  0  0  0  0
  9 10  1  0  0  0  0
  9 29  1  0  0  0  0
  9 30  1  0  0  0  0
 10 11  1  0  0  0  0
 10 31  1  0  0  0  0
 10 32  1  0  0  0  0
 11 12  1  0  0  0  0
 11 33  1  0  0  0  0
 11 34  1  0  0  0  0
 12 35  1  0  0  0  0
 12 36  1  0  0  0  0
 13 14  2  0  0  0  0
 13 15  1  0  0  0  0
 15 16  1  0  0  0  0
 16 17  2  0  0  0  0
 17 18  1  0  0  0  0
 17 37  1  0  0  0  0
 18 23  2  0  0  0  0
 18 19  1  0  0  0  0
 19 20  2  0  0  0  0
 19 38  1  0  0  0  0
 20 21  1  0  0  0  0
 20 39  1  0  0  0  0
 21 22  2  0  0  0  0
 21 25  1  0  0  0  0
 22 23  1  0  0  0  0
 22 40  1  0  0  0  0
 23 24  1  0  0  0  0
 24 41  1  0  0  0  0
 25 42  1  0  0  0  0
M  END
$$$$
ZINC00867970
  -OEChem-08230709453D

 41 43  0     0  0  0  0  0  0999 V2000
    3.7558   -5.2463   -2.5238 C   0  0  0  0  0  0  0  0  0  0  0  0
    2.8971   -4.0094   -2.4623 C   0  0  0  0  0  0  0  0  0  0  0  0
    1.6222   -3.8335   -2.8932 C   0  0  0  0  0  0  0  0  0  0  0  0
    1.0213   -2.6039   -2.7284 C   0  0  0  0  0  0  0  0  0  0  0  0
    1.7375   -1.5947   -2.1442 C   0  0  0  0  0  0  0  0  0  0  0  0
    3.2948   -2.3986   -1.8034 S   0  0  0  0  0  0  0  0  0  0  0  0
    1.3261   -0.2017   -1.8624 C   0  0  0  0  0  0  0  0  0  0  0  0
    2.1147    0.7916   -1.2494 C   0  0  0  0  0  0  0  0  0  0  0  0
    1.3124    1.9156   -1.2018 C   0  0  0  0  0  0  0  0  0  0  0  0
    0.1186    1.5645   -1.7673 N   0  0  0  0  0  0  0  0  0  0  0  0
   -0.6669    2.1739   -1.8751 H   0  0  0  0  0  0  0  0  0  0  0  0
    0.1554    0.3360   -2.1396 N   0  0  0  0  0  0  0  0  0  0  0  0
    1.6725    3.2317   -0.6510 C   0  0  0  0  0  0  0  0  0  0  0  0
    2.7776    3.4099   -0.1741 O   0  0  0  0  0  0  0  0  0  0  0  0
    0.7783    4.2398   -0.6748 N   0  0  0  0  0  0  0  0  0  0  0  0
    1.1212    5.4929   -0.1504 N   0  0  0  0  0  0  0  0  0  0  0  0
    0.2247    6.4278   -0.0643 C   0  0  0  0  0  0  0  0  0  0  0  0
   -1.2071    6.0773   -0.0522 C   0  0  0  0  0  0  0  0  0  0  0  0
   -1.6021    4.7521    0.1489 C   0  0  0  0  0  0  0  0  0  0  0  0
   -2.9421    4.4274    0.1661 C   0  0  0  0  0  0  0  0  0  0  0  0
   -3.9003    5.4117   -0.0280 C   0  0  0  0  0  0  0  0  0  0  0  0
   -3.5137    6.7340   -0.2353 C   0  0  0  0  0  0  0  0  0  0  0  0
   -2.1726    7.0683   -0.2476 C   0  0  0  0  0  0  0  0  0  0  0  0
   -4.4560    7.6961   -0.4251 O   0  0  0  0  0  0  0  0  0  0  0  0
   -3.9883    9.0305   -0.6314 C   0  0  0  0  0  0  0  0  0  0  0  0
   -5.2198    5.0851   -0.0162 O   0  0  0  0  0  0  0  0  0  0  0  0
    4.7308   -5.0339   -2.0852 H   0  0  0  0  0  0  0  0  0  0  0  0
    3.2746   -6.0507   -1.9676 H   0  0  0  0  0  0  0  0  0  0  0  0
    3.8832   -5.5488   -3.5632 H   0  0  0  0  0  0  0  0  0  0  0  0
    1.0837   -4.6478   -3.3551 H   0  0  0  0  0  0  0  0  0  0  0  0
    0.0059   -2.4391   -3.0574 H   0  0  0  0  0  0  0  0  0  0  0  0
    3.1294    0.6951   -0.8926 H   0  0  0  0  0  0  0  0  0  0  0  0
   -0.1027    4.0977   -1.0550 H   0  0  0  0  0  0  0  0  0  0  0  0
    0.5278    7.4625   -0.0015 H   0  0  0  0  0  0  0  0  0  0  0  0
   -0.8581    3.9832    0.2957 H   0  0  0  0  0  0  0  0  0  0  0  0
   -3.2463    3.4036    0.3261 H   0  0  0  0  0  0  0  0  0  0  0  0
   -1.8716    8.0932   -0.4075 H   0  0  0  0  0  0  0  0  0  0  0  0
   -3.4123    9.3519    0.2365 H   0  0  0  0  0  0  0  0  0  0  0  0
   -3.3559    9.0609   -1.5186 H   0  0  0  0  0  0  0  0  0  0  0  0
   -4.8399    9.6968   -0.7692 H   0  0  0  0  0  0  0  0  0  0  0  0
   -5.5735    4.8458   -0.8838 H   0  0  0  0  0  0  0  0  0  0  0  0
  1  2  1  0  0  0  0
  1 27  1  0  0  0  0
  1 28  1  0  0  0  0
  1 29  1  0  0  0  0
  2  6  1  0  0  0  0
  2  3  2  0  0  0  0
  3  4  1  0  0  0  0
  3 30  1  0  0  0  0
  4  5  2  0  0  0  0
  4 31  1  0  0  0  0
  5  6  1  0  0  0  0
  5  7  1  0  0  0  0
  7 12  2  0  0  0  0
  7  8  1  0  0  0  0
  8  9  2  0  0  0  0
  8 32  1  0  0  0  0
  9 10  1  0  0  0  0
  9 13  1  0  0  0  0
 10 11  1  0  0  0  0
 10 12  1  0  0  0  0
 13 14  2  0  0  0  0
 13 15  1  0  0  0  0
 15 16  1  0  0  0  0
 15 33  1  0  0  0  0
 16 17  2  3  0  0  0
 17 18  1  0  0  0  0
 17 34  1  0  0  0  0
 18 23  2  0  0  0  0
 18 19  1  0  0  0  0
 19 20  2  0  0  0  0
 19 35  1  0  0  0  0
 20 21  1  0  0  0  0
 20 36  1  0  0  0  0
 21 22  2  0  0  0  0
 21 26  1  0  0  0  0
 22 23  1  0  0  0  0
 22 24  1  0  0  0  0
 23 37  1  0  0  0  0
 24 25  1  0  0  0  0
 25 38  1  0  0  0  0
 25 39  1  0  0  0  0
 25 40  1  0  0  0  0
 26 41  1  0  0  0  0
M  END
$$$$
ZINC00867970
  -OEChem-08230709453D

 41 43  0     0  0  0  0  0  0999 V2000
    3.7569   -5.2454   -2.5267 C   0  0  0  0  0  0  0  0  0  0  0  0
    2.8980   -4.0087   -2.4646 C   0  0  0  0  0  0  0  0  0  0  0  0
    1.6230   -3.8328   -2.8953 C   0  0  0  0  0  0  0  0  0  0  0  0
    1.0219   -2.6034   -2.7300 C   0  0  0  0  0  0  0  0  0  0  0  0
    1.7380   -1.5943   -2.1455 C   0  0  0  0  0  0  0  0  0  0  0  0
    3.2955   -2.3980   -1.8052 S   0  0  0  0  0  0  0  0  0  0  0  0
    1.3264   -0.2015   -1.8632 C   0  0  0  0  0  0  0  0  0  0  0  0
    2.1149    0.7918   -1.2499 C   0  0  0  0  0  0  0  0  0  0  0  0
    1.3124    1.9156   -1.2018 C   0  0  0  0  0  0  0  0  0  0  0  0
    0.1183    1.5643   -1.7665 N   0  0  0  0  0  0  0  0  0  0  0  0
   -0.6019   -0.1473   -2.5789 H   0  0  0  0  0  0  0  0  0  0  0  0
    0.1552    0.3358   -2.1391 N   0  0  0  0  0  0  0  0  0  0  0  0
    1.6725    3.2317   -0.6510 C   0  0  0  0  0  0  0  0  0  0  0  0
    2.7776    3.4099   -0.1741 O   0  0  0  0  0  0  0  0  0  0  0  0
    0.7783    4.2398   -0.6748 N   0  0  0  0  0  0  0  0  0  0  0  0
    1.1212    5.4929   -0.1504 N   0  0  0  0  0  0  0  0  0  0  0  0
    0.2247    6.4278   -0.0643 C   0  0  0  0  0  0  0  0  0  0  0  0
   -1.2071    6.0773   -0.0522 C   0  0  0  0  0  0  0  0  0  0  0  0
   -1.6021    4.7521    0.1489 C   0  0  0  0  0  0  0  0  0  0  0  0
   -2.9421    4.4274    0.1661 C   0  0  0  0  0  0  0  0  0  0  0  0
   -3.9003    5.4117   -0.0280 C   0  0  0  0  0  0  0  0  0  0  0  0
   -3.5137    6.7340   -0.2353 C   0  0  0  0  0  0  0  0  0  0  0  0
   -2.1726    7.0683   -0.2476 C   0  0  0  0  0  0  0  0  0  0  0  0
   -4.4560    7.6961   -0.4251 O   0  0  0  0  0  0  0  0  0  0  0  0
   -3.9883    9.0305   -0.6314 C   0  0  0  0  0  0  0  0  0  0  0  0
   -5.2198    5.0851   -0.0162 O   0  0  0  0  0  0  0  0  0  0  0  0
    4.7319   -5.0330   -2.0881 H   0  0  0  0  0  0  0  0  0  0  0  0
    3.2759   -6.0501   -1.9707 H   0  0  0  0  0  0  0  0  0  0  0  0
    3.8842   -5.5475   -3.5662 H   0  0  0  0  0  0  0  0  0  0  0  0
    1.0846   -4.6471   -3.3575 H   0  0  0  0  0  0  0  0  0  0  0  0
    0.0065   -2.4386   -3.0588 H   0  0  0  0  0  0  0  0  0  0  0  0
    3.1297    0.6954   -0.8935 H   0  0  0  0  0  0  0  0  0  0  0  0
   -0.1027    4.0977   -1.0550 H   0  0  0  0  0  0  0  0  0  0  0  0
    0.5278    7.4625   -0.0015 H   0  0  0  0  0  0  0  0  0  0  0  0
   -0.8581    3.9832    0.2957 H   0  0  0  0  0  0  0  0  0  0  0  0
   -3.2463    3.4036    0.3261 H   0  0  0  0  0  0  0  0  0  0  0  0
   -1.8716    8.0932   -0.4075 H   0  0  0  0  0  0  0  0  0  0  0  0
   -3.4123    9.3519    0.2365 H   0  0  0  0  0  0  0  0  0  0  0  0
   -3.3559    9.0609   -1.5186 H   0  0  0  0  0  0  0  0  0  0  0  0
   -4.8399    9.6968   -0.7692 H   0  0  0  0  0  0  0  0  0  0  0  0
   -5.5735    4.8458   -0.8838 H   0  0  0  0  0  0  0  0  0  0  0  0
  1  2  1  0  0  0  0
  1 27  1  0  0  0  0
  1 28  1  0  0  0  0
  1 29  1  0  0  0  0
  2  6  1  0  0  0  0
  2  3  2  0  0  0  0
  3  4  1  0  0  0  0
  3 30  1  0  0  0  0
  4  5  2  0  0  0  0
  4 31  1  0  0  0  0
  5  6  1  0  0  0  0
  5  7  1  0  0  0  0
  7  8  2  0  0  0  0
  7 12  1  0  0  0  0
  8 32  1  0  0  0  0
  8  9  1  0  0  0  0
  9 13  1  0  0  0  0
  9 10  2  0  0  0  0
 10 12  1  0  0  0  0
 11 12  1  0  0  0  0
 13 14  2  0  0  0  0
 13 15  1  0  0  0  0
 15 16  1  0  0  0  0
 15 33  1  0  0  0  0
 16 17  2  3  0  0  0
 17 18  1  0  0  0  0
 17 34  1  0  0  0  0
 18 23  2  0  0  0  0
 18 19  1  0  0  0  0
 19 20  2  0  0  0  0
 19 35  1  0  0  0  0
 20 21  1  0  0  0  0
 20 36  1  0  0  0  0
 21 22  2  0  0  0  0
 21 26  1  0  0  0  0
 22 23  1  0  0  0  0
 22 24  1  0  0  0  0
 23 37  1  0  0  0  0
 24 25  1  0  0  0  0
 25 38  1  0  0  0  0
 25 39  1  0  0  0  0
 25 40  1  0  0  0  0
 26 41  1  0  0  0  0
M  END
$$$$
ZINC00870401
  -OEChem-08230709453D

 43 45  0     1  0  0  0  0  0999 V2000
   -0.2744    5.5088   -1.0089 C   0  0  0  0  0  0  0  0  0  0  0  0
   -0.1453    4.1067   -0.4719 C   0  0  0  0  0  0  0  0  0  0  0  0
    1.0407    3.4905   -0.5522 C   0  0  0  0  0  0  0  0  0  0  0  0
    1.2258    2.0903   -0.0339 C   0  0  2  0  0  0  0  0  0  0  0  0
    1.8089    1.5125   -0.7510 H   0  0  0  0  0  0  0  0  0  0  0  0
   -0.1164    1.4381    0.1610 C   0  0  0  0  0  0  0  0  0  0  0  0
   -1.2489    2.1811    0.1946 C   0  0  0  0  0  0  0  0  0  0  0  0
   -1.2223    3.5192    0.0694 O   0  0  0  0  0  0  0  0  0  0  0  0
   -2.4561    1.5506    0.3658 N   0  0  0  0  0  0  0  0  0  0  0  0
   -0.1982    0.0158    0.3065 C   0  0  0  0  0  0  0  0  0  0  0  0
   -0.2630   -1.1124    0.4220 N   0  0  0  0  0  0  0  0  0  0  0  0
    1.9566    2.1361    1.2833 C   0  0  0  0  0  0  0  0  0  0  0  0
    1.4148    2.8058    2.3426 C   0  0  0  0  0  0  0  0  0  0  0  0
    2.1308    2.8230    3.5549 C   0  0  0  0  0  0  0  0  0  0  0  0
    1.6350    3.4909    4.6854 C   0  0  0  0  0  0  0  0  0  0  0  0
    2.3588    3.4846    5.8439 C   0  0  0  0  0  0  0  0  0  0  0  0
    3.5875    2.8211    5.9156 C   0  0  0  0  0  0  0  0  0  0  0  0
    4.0938    2.1658    4.8369 C   0  0  0  0  0  0  0  0  0  0  0  0
    3.3758    2.1501    3.6277 C   0  0  0  0  0  0  0  0  0  0  0  0
    3.8508    1.5119    2.5533 N   0  0  0  0  0  0  0  0  0  0  0  0
    3.1844    1.4895    1.4233 C   0  0  0  0  0  0  0  0  0  0  0  0
    3.8511    0.6380    0.0653 Cl  0  0  0  0  0  0  0  0  0  0  0  0
    1.8795    4.1311    6.9390 O   0  0  0  0  0  0  0  0  0  0  0  0
    2.6822    4.0886    8.1205 C   0  0  0  0  0  0  0  0  0  0  0  0
    2.1394    4.1681   -1.1354 C   0  0  0  0  0  0  0  0  0  0  0  0
    2.4490    3.9437   -2.2903 O   0  0  0  0  0  0  0  0  0  0  0  0
    2.8427    5.0623   -0.4100 O   0  0  0  0  0  0  0  0  0  0  0  0
    3.9381    5.7084   -1.0618 C   0  0  0  0  0  0  0  0  0  0  0  0
   -0.4725    5.4709   -2.0800 H   0  0  0  0  0  0  0  0  0  0  0  0
   -1.0968    6.0166   -0.5050 H   0  0  0  0  0  0  0  0  0  0  0  0
    0.6529    6.0532   -0.8299 H   0  0  0  0  0  0  0  0  0  0  0  0
   -2.4903    0.5858    0.4607 H   0  0  0  0  0  0  0  0  0  0  0  0
   -3.2751    2.0697    0.3918 H   0  0  0  0  0  0  0  0  0  0  0  0
    0.4630    3.3082    2.2532 H   0  0  0  0  0  0  0  0  0  0  0  0
    0.6870    4.0062    4.6398 H   0  0  0  0  0  0  0  0  0  0  0  0
    4.1432    2.8295    6.8416 H   0  0  0  0  0  0  0  0  0  0  0  0
    5.0443    1.6582    4.9089 H   0  0  0  0  0  0  0  0  0  0  0  0
    3.6535    4.5391    7.9163 H   0  0  0  0  0  0  0  0  0  0  0  0
    2.1854    4.6419    8.9174 H   0  0  0  0  0  0  0  0  0  0  0  0
    2.8200    3.0523    8.4291 H   0  0  0  0  0  0  0  0  0  0  0  0
    4.6614    4.9597   -1.3848 H   0  0  0  0  0  0  0  0  0  0  0  0
    3.5720    6.2579   -1.9290 H   0  0  0  0  0  0  0  0  0  0  0  0
    4.4163    6.4004   -0.3686 H   0  0  0  0  0  0  0  0  0  0  0  0
  1  2  1  0  0  0  0
  1 29  1  0  0  0  0
  1 30  1  0  0  0  0
  1 31  1  0  0  0  0
  2  8  1  0  0  0  0
  2  3  2  0  0  0  0
  3  4  1  0  0  0  0
  3 25  1  0  0  0  0
  4  5  1  0  0  0  0
  4  6  1  0  0  0  0
  4 12  1  0  0  0  0
  6  7  2  0  0  0  0
  6 10  1  0  0  0  0
  7  8  1  0  0  0  0
  7  9  1  0  0  0  0
  9 32  1  0  0  0  0
  9 33  1  0  0  0  0
 10 11  3  0  0  0  0
 12 21  2  0  0  0  0
 12 13  1  0  0  0  0
 13 14  2  0  0  0  0
 13 34  1  0  0  0  0
 14 19  1  0  0  0  0
 14 15  1  0  0  0  0
 15 16  2  0  0  0  0
 15 35  1  0  0  0  0
 16 17  1  0  0  0  0
 16 23  1  0  0  0  0
 17 18  2  0  0  0  0
 17 36  1  0  0  0  0
 18 19  1  0  0  0  0
 18 37  1  0  0  0  0
 19 20  2  0  0  0  0
 20 21  1  0  0  0  0
 21 22  1  0  0  0  0
 23 24  1  0  0  0  0
 24 38  1  0  0  0  0
 24 39  1  0  0  0  0
 24 40  1  0  0  0  0
 25 26  2  0  0  0  0
 25 27  1  0  0  0  0
 27 28  1  0  0  0  0
 28 41  1  0  0  0  0
 28 42  1  0  0  0  0
 28 43  1  0  0  0  0
M  END
$$$$
ZINC00883050
  -OEChem-08230709453D

 41 43  0     1  0  0  0  0  0999 V2000
   -0.2393    5.3015    0.0041 C   0  0  0  0  0  0  0  0  0  0  0  0
   -0.1542    3.7973   -0.0328 C   0  0  0  0  0  0  0  0  0  0  0  0
   -1.2911    3.0493   -0.0648 C   0  0  0  0  0  0  0  0  0  0  0  0
   -1.2351    1.6580   -0.1039 C   0  0  0  0  0  0  0  0  0  0  0  0
   -0.0391    1.0066   -0.1021 C   0  0  0  0  0  0  0  0  0  0  0  0
    1.1536    1.7461   -0.0701 C   0  0  0  0  0  0  0  0  0  0  0  0
    1.0991    3.1616   -0.0347 C   0  0  0  0  0  0  0  0  0  0  0  0
    2.2324    3.8706   -0.0032 N   0  0  0  0  0  0  0  0  0  0  0  0
    3.4049    3.2822   -0.0044 C   0  0  0  0  0  0  0  0  0  0  0  0
    3.5283    1.8930   -0.0379 C   0  0  0  0  0  0  0  0  0  0  0  0
    2.4103    1.1106   -0.0719 C   0  0  0  0  0  0  0  0  0  0  0  0
    4.8944    1.2568   -0.0381 C   0  0  1  0  0  0  0  0  0  0  0  0
    5.6554    2.0324   -0.1235 H   0  0  0  0  0  0  0  0  0  0  0  0
    5.0939    0.4993    1.2469 C   0  0  0  0  0  0  0  0  0  0  0  0
    5.0078   -0.8523    1.2753 C   0  0  0  0  0  0  0  0  0  0  0  0
    4.7405   -1.5699    0.1703 O   0  0  0  0  0  0  0  0  0  0  0  0
    4.9262   -1.0150   -1.0349 C   0  0  0  0  0  0  0  0  0  0  0  0
    5.0078    0.3155   -1.2064 C   0  0  0  0  0  0  0  0  0  0  0  0
    5.2019    0.8364   -2.4988 C   0  0  0  0  0  0  0  0  0  0  0  0
    5.1878    0.0949   -3.4609 O   0  0  0  0  0  0  0  0  0  0  0  0
    5.4271    2.3142   -2.6897 C   0  0  0  0  0  0  0  0  0  0  0  0
    5.0483   -1.9131   -2.2389 C   0  0  0  0  0  0  0  0  0  0  0  0
    5.1985   -1.5078    2.4662 N   0  0  0  0  0  0  0  0  0  0  0  0
    5.3785    1.2157    2.4537 C   0  0  0  0  0  0  0  0  0  0  0  0
    5.6043    1.7840    3.4111 N   0  0  0  0  0  0  0  0  0  0  0  0
    4.8404    4.2576    0.0374 Cl  0  0  0  0  0  0  0  0  0  0  0  0
   -0.2483    5.6899   -1.0143 H   0  0  0  0  0  0  0  0  0  0  0  0
   -1.1541    5.6012    0.5153 H   0  0  0  0  0  0  0  0  0  0  0  0
    0.6229    5.7012    0.5378 H   0  0  0  0  0  0  0  0  0  0  0  0
   -2.2519    3.5426   -0.0635 H   0  0  0  0  0  0  0  0  0  0  0  0
   -2.1522    1.0883   -0.1327 H   0  0  0  0  0  0  0  0  0  0  0  0
   -0.0084   -0.0726   -0.1296 H   0  0  0  0  0  0  0  0  0  0  0  0
    2.4873    0.0336   -0.0981 H   0  0  0  0  0  0  0  0  0  0  0  0
    5.4932    2.7594   -1.7967 H   0  0  0  0  0  0  0  0  0  0  0  0
    6.3524    2.4721   -3.2437 H   0  0  0  0  0  0  0  0  0  0  0  0
    4.5927    2.7399   -3.2470 H   0  0  0  0  0  0  0  0  0  0  0  0
    4.9610   -2.9537   -1.9263 H   0  0  0  0  0  0  0  0  0  0  0  0
    4.2549   -1.6791   -2.9487 H   0  0  0  0  0  0  0  0  0  0  0  0
    6.0174   -1.7561   -2.7125 H   0  0  0  0  0  0  0  0  0  0  0  0
    5.3919   -1.0034    3.2719 H   0  0  0  0  0  0  0  0  0  0  0  0
    5.1400   -2.4754    2.5021 H   0  0  0  0  0  0  0  0  0  0  0  0
  1  2  1  0  0  0  0
  1 27  1  0  0  0  0
  1 28  1  0  0  0  0
  1 29  1  0  0  0  0
  2  7  2  0  0  0  0
  2  3  1  0  0  0  0
  3  4  2  0  0  0  0
  3 30  1  0  0  0  0
  4  5  1  0  0  0  0
  4 31  1  0  0  0  0
  5  6  2  0  0  0  0
  5 32  1  0  0  0  0
  6 11  1  0  0  0  0
  6  7  1  0  0  0  0
  7  8  1  0  0  0  0
  8  9  2  0  0  0  0
  9 10  1  0  0  0  0
  9 26  1  0  0  0  0
 10 11  2  0  0  0  0
 10 12  1  0  0  0  0
 11 33  1  0  0  0  0
 12 13  1  0  0  0  0
 12 18  1  0  0  0  0
 12 14  1  0  0  0  0
 14 15  2  0  0  0  0
 14 24  1  0  0  0  0
 15 16  1  0  0  0  0
 15 23  1  0  0  0  0
 16 17  1  0  0  0  0
 17 18  2  0  0  0  0
 17 22  1  0  0  0  0
 18 19  1  0  0  0  0
 19 20  2  0  0  0  0
 19 21  1  0  0  0  0
 21 34  1  0  0  0  0
 21 35  1  0  0  0  0
 21 36  1  0  0  0  0
 22 37  1  0  0  0  0
 22 38  1  0  0  0  0
 22 39  1  0  0  0  0
 23 40  1  0  0  0  0
 23 41  1  0  0  0  0
 24 25  3  0  0  0  0
M  END
$$$$
ZINC00883069
  -OEChem-08230709453D

 42 44  0     1  0  0  0  0  0999 V2000
    2.5483   -2.1602    2.2322 C   0  0  0  0  0  0  0  0  0  0  0  0
    2.4246   -1.2240    1.0578 C   0  0  0  0  0  0  0  0  0  0  0  0
    2.5597    0.0973    1.2637 C   0  0  0  0  0  0  0  0  0  0  0  0
    2.4477    1.0753    0.1258 C   0  0  1  0  0  0  0  0  0  0  0  0
    3.2393    1.8200    0.2088 H   0  0  0  0  0  0  0  0  0  0  0  0
    2.5817    0.3483   -1.1850 C   0  0  0  0  0  0  0  0  0  0  0  0
    2.4443   -0.9977   -1.2483 C   0  0  0  0  0  0  0  0  0  0  0  0
    2.1833   -1.7368   -0.1561 O   0  0  0  0  0  0  0  0  0  0  0  0
    2.5756   -1.6250   -2.4623 N   0  0  0  0  0  0  0  0  0  0  0  0
    2.8574    1.0883   -2.3796 C   0  0  0  0  0  0  0  0  0  0  0  0
    3.0761    1.6754   -3.3273 N   0  0  0  0  0  0  0  0  0  0  0  0
    1.1068    1.7605    0.1841 C   0  0  0  0  0  0  0  0  0  0  0  0
   -0.0411    1.0246    0.1013 C   0  0  0  0  0  0  0  0  0  0  0  0
   -1.2718    1.7043    0.1548 C   0  0  0  0  0  0  0  0  0  0  0  0
   -2.4918    1.0126    0.0699 C   0  0  0  0  0  0  0  0  0  0  0  0
   -3.6627    1.7025    0.1247 C   0  0  0  0  0  0  0  0  0  0  0  0
   -3.6683    3.0941    0.2653 C   0  0  0  0  0  0  0  0  0  0  0  0
   -2.4996    3.7949    0.3617 C   0  0  0  0  0  0  0  0  0  0  0  0
   -1.2727    3.1141    0.3026 C   0  0  0  0  0  0  0  0  0  0  0  0
   -0.1132    3.7762    0.3780 N   0  0  0  0  0  0  0  0  0  0  0  0
    1.0367    3.1458    0.3229 C   0  0  0  0  0  0  0  0  0  0  0  0
    2.5083    4.0608    0.4261 Cl  0  0  0  0  0  0  0  0  0  0  0  0
   -4.8527    3.7570    0.3181 O   0  0  0  0  0  0  0  0  0  0  0  0
   -6.0415    2.9696    0.2243 C   0  0  0  0  0  0  0  0  0  0  0  0
    2.8102    0.5734    2.5637 C   0  0  0  0  0  0  0  0  0  0  0  0
    1.9641    0.4554    3.4273 O   0  0  0  0  0  0  0  0  0  0  0  0
    4.1282    1.2297    2.8848 C   0  0  0  0  0  0  0  0  0  0  0  0
    1.5579   -2.3676    2.6375 H   0  0  0  0  0  0  0  0  0  0  0  0
    3.0102   -3.0923    1.9067 H   0  0  0  0  0  0  0  0  0  0  0  0
    3.1663   -1.6979    3.0019 H   0  0  0  0  0  0  0  0  0  0  0  0
    2.4801   -2.5884   -2.5232 H   0  0  0  0  0  0  0  0  0  0  0  0
    2.7640   -1.1049   -3.2591 H   0  0  0  0  0  0  0  0  0  0  0  0
   -0.0048   -0.0493   -0.0068 H   0  0  0  0  0  0  0  0  0  0  0  0
   -2.4999   -0.0620   -0.0381 H   0  0  0  0  0  0  0  0  0  0  0  0
   -4.5996    1.1693    0.0592 H   0  0  0  0  0  0  0  0  0  0  0  0
   -2.5189    4.8692    0.4703 H   0  0  0  0  0  0  0  0  0  0  0  0
   -6.0693    2.2543    1.0462 H   0  0  0  0  0  0  0  0  0  0  0  0
   -6.9139    3.6208    0.2797 H   0  0  0  0  0  0  0  0  0  0  0  0
   -6.0481    2.4333   -0.7246 H   0  0  0  0  0  0  0  0  0  0  0  0
    4.0601    2.2133    2.7180 H   0  0  0  0  0  0  0  0  0  0  0  0
    4.3755    1.0550    3.9319 H   0  0  0  0  0  0  0  0  0  0  0  0
    4.9084    0.8070    2.2517 H   0  0  0  0  0  0  0  0  0  0  0  0
  1  2  1  0  0  0  0
  1 28  1  0  0  0  0
  1 29  1  0  0  0  0
  1 30  1  0  0  0  0
  2  8  1  0  0  0  0
  2  3  2  0  0  0  0
  3  4  1  0  0  0  0
  3 25  1  0  0  0  0
  4  5  1  0  0  0  0
  4  6  1  0  0  0  0
  4 12  1  0  0  0  0
  6  7  2  0  0  0  0
  6 10  1  0  0  0  0
  7  8  1  0  0  0  0
  7  9  1  0  0  0  0
  9 31  1  0  0  0  0
  9 32  1  0  0  0  0
 10 11  3  0  0  0  0
 12 21  2  0  0  0  0
 12 13  1  0  0  0  0
 13 14  2  0  0  0  0
 13 33  1  0  0  0  0
 14 19  1  0  0  0  0
 14 15  1  0  0  0  0
 15 16  2  0  0  0  0
 15 34  1  0  0  0  0
 16 17  1  0  0  0  0
 16 35  1  0  0  0  0
 17 18  2  0  0  0  0
 17 23  1  0  0  0  0
 18 19  1  0  0  0  0
 18 36  1  0  0  0  0
 19 20  2  0  0  0  0
 20 21  1  0  0  0  0
 21 22  1  0  0  0  0
 23 24  1  0  0  0  0
 24 37  1  0  0  0  0
 24 38  1  0  0  0  0
 24 39  1  0  0  0  0
 25 26  2  0  0  0  0
 25 27  1  0  0  0  0
 27 40  1  0  0  0  0
 27 41  1  0  0  0  0
 27 42  1  0  0  0  0
M  END
$$$$
ZINC00900145
  -OEChem-08230709453D

 50 52  0     1  0  0  0  0  0999 V2000
   -2.3915    1.2538    0.0202 C   0  0  0  0  0  0  0  0  0  0  0  0
   -1.2027    2.0468    0.0189 O   0  0  0  0  0  0  0  0  0  0  0  0
   -0.0167    1.3814    0.0096 C   0  0  0  0  0  0  0  0  0  0  0  0
    0.0021   -0.0041    0.0020 C   0  0  0  0  0  0  0  0  0  0  0  0
    1.2085   -0.6789   -0.0131 C   0  0  0  0  0  0  0  0  0  0  0  0
    2.3981    0.0256   -0.0202 C   0  0  0  0  0  0  0  0  0  0  0  0
    2.3864    1.4079   -0.0132 C   0  0  0  0  0  0  0  0  0  0  0  0
    1.1806    2.0905    0.0020 C   0  0  0  0  0  0  0  0  0  0  0  0
    1.1674    3.4503    0.0090 O   0  0  0  0  0  0  0  0  0  0  0  0
    1.2270   -2.1858   -0.0214 C   0  0  0  0  0  0  0  0  0  0  0  0
    1.2195   -2.6880   -1.4666 C   0  0  2  0  0  0  0  0  0  0  0  0
    2.0381   -2.2399   -2.0299 H   0  0  0  0  0  0  0  0  0  0  0  0
   -0.1352   -2.3771   -2.1406 C   0  0  0  0  0  0  0  0  0  0  0  0
   -0.4015   -3.5269   -2.9768 O   0  0  0  0  0  0  0  0  0  0  0  0
    0.0073   -4.6710   -2.1959 C   0  0  2  0  0  0  0  0  0  0  0  0
   -0.7516   -4.9134   -1.4520 H   0  0  0  0  0  0  0  0  0  0  0  0
    1.3164   -4.2296   -1.5046 C   0  0  2  0  0  0  0  0  0  0  0  0
    2.1814   -4.5436   -2.0886 H   0  0  0  0  0  0  0  0  0  0  0  0
    1.3911   -4.7971   -0.0857 C   0  0  0  0  0  0  0  0  0  0  0  0
    1.5968   -6.2099   -0.1480 O   0  0  0  0  0  0  0  0  0  0  0  0
    0.2613   -5.8549   -3.0931 C   0  0  0  0  0  0  0  0  0  0  0  0
    0.8070   -5.6641   -4.3489 C   0  0  0  0  0  0  0  0  0  0  0  0
    1.0418   -6.7469   -5.1757 C   0  0  0  0  0  0  0  0  0  0  0  0
    0.7302   -8.0269   -4.7462 C   0  0  0  0  0  0  0  0  0  0  0  0
    0.1809   -8.2189   -3.4822 C   0  0  0  0  0  0  0  0  0  0  0  0
   -0.0467   -7.1298   -2.6563 C   0  0  0  0  0  0  0  0  0  0  0  0
   -0.1272   -9.4732   -3.0564 O   0  0  0  0  0  0  0  0  0  0  0  0
   -0.6879   -9.5946   -1.7476 C   0  0  0  0  0  0  0  0  0  0  0  0
    0.9602   -9.0931   -5.5584 O   0  0  0  0  0  0  0  0  0  0  0  0
   -2.4128    0.6296   -0.8731 H   0  0  0  0  0  0  0  0  0  0  0  0
   -2.4044    0.6199    0.9068 H   0  0  0  0  0  0  0  0  0  0  0  0
   -3.2640    1.9071    0.0278 H   0  0  0  0  0  0  0  0  0  0  0  0
   -0.9258   -0.5567    0.0083 H   0  0  0  0  0  0  0  0  0  0  0  0
    3.3385   -0.5053   -0.0317 H   0  0  0  0  0  0  0  0  0  0  0  0
    3.3170    1.9558   -0.0195 H   0  0  0  0  0  0  0  0  0  0  0  0
    1.1718    3.8392    0.8944 H   0  0  0  0  0  0  0  0  0  0  0  0
    2.1263   -2.5408    0.4820 H   0  0  0  0  0  0  0  0  0  0  0  0
    0.3465   -2.5628    0.4988 H   0  0  0  0  0  0  0  0  0  0  0  0
   -0.9166   -2.2663   -1.3888 H   0  0  0  0  0  0  0  0  0  0  0  0
   -0.0594   -1.4739   -2.7462 H   0  0  0  0  0  0  0  0  0  0  0  0
    2.2199   -4.3325    0.4483 H   0  0  0  0  0  0  0  0  0  0  0  0
    0.4585   -4.5885    0.4386 H   0  0  0  0  0  0  0  0  0  0  0  0
    1.6542   -6.6375    0.7174 H   0  0  0  0  0  0  0  0  0  0  0  0
    1.0507   -4.6670   -4.6847 H   0  0  0  0  0  0  0  0  0  0  0  0
    1.4686   -6.5952   -6.1561 H   0  0  0  0  0  0  0  0  0  0  0  0
   -0.4685   -7.2766   -1.6730 H   0  0  0  0  0  0  0  0  0  0  0  0
   -0.8863  -10.6448   -1.5333 H   0  0  0  0  0  0  0  0  0  0  0  0
    0.0146   -9.2004   -1.0133 H   0  0  0  0  0  0  0  0  0  0  0  0
   -1.6197   -9.0313   -1.6979 H   0  0  0  0  0  0  0  0  0  0  0  0
    1.8379   -9.4851   -5.4539 H   0  0  0  0  0  0  0  0  0  0  0  0
  1  2  1  0  0  0  0
  1 30  1  0  0  0  0
  1 31  1  0  0  0  0
  1 32  1  0  0  0  0
  2  3  1  0  0  0  0
  3  8  2  0  0  0  0
  3  4  1  0  0  0  0
  4  5  2  0  0  0  0
  4 33  1  0  0  0  0
  5  6  1  0  0  0  0
  5 10  1  0  0  0  0
  6  7  2  0  0  0  0
  6 34  1  0  0  0  0
  7  8  1  0  0  0  0
  7 35  1  0  0  0  0
  8  9  1  0  0  0  0
  9 36  1  0  0  0  0
 10 11  1  0  0  0  0
 10 37  1  0  0  0  0
 10 38  1  0  0  0  0
 11 12  1  0  0  0  0
 11 17  1  0  0  0  0
 11 13  1  0  0  0  0
 13 14  1  0  0  0  0
 13 39  1  0  0  0  0
 13 40  1  0  0  0  0
 14 15  1  0  0  0  0
 15 16  1  0  0  0  0
 15 17  1  0  0  0  0
 15 21  1  0  0  0  0
 17 18  1  0  0  0  0
 17 19  1  0  0  0  0
 19 20  1  0  0  0  0
 19 41  1  0  0  0  0
 19 42  1  0  0  0  0
 20 43  1  0  0  0  0
 21 26  2  0  0  0  0
 21 22  1  0  0  0  0
 22 23  2  0  0  0  0
 22 44  1  0  0  0  0
 23 24  1  0  0  0  0
 23 45  1  0  0  0  0
 24 25  2  0  0  0  0
 24 29  1  0  0  0  0
 25 26  1  0  0  0  0
 25 27  1  0  0  0  0
 26 46  1  0  0  0  0
 27 28  1  0  0  0  0
 28 47  1  0  0  0  0
 28 48  1  0  0  0  0
 28 49  1  0  0  0  0
 29 50  1  0  0  0  0
M  END
$$$$
ZINC00902725
  -OEChem-08230709453D

 45 47  0     1  0  0  0  0  0999 V2000
   -1.1779   -3.2281   -2.5626 C   0  0  0  0  0  0  0  0  0  0  0  0
   -1.4388   -1.8633   -1.9223 C   0  0  0  0  0  0  0  0  0  0  0  0
   -1.2043   -0.7611   -2.9573 C   0  0  1  0  0  0  0  0  0  0  0  0
   -1.8012   -0.9646   -3.8463 H   0  0  0  0  0  0  0  0  0  0  0  0
   -1.6139    0.5892   -2.3660 C   0  0  0  0  0  0  0  0  0  0  0  0
    0.2147   -0.7254   -3.3195 N   0  0  0  0  0  0  0  0  0  0  0  0
    0.5851   -0.5781   -4.6365 C   0  0  0  0  0  0  0  0  0  0  0  0
   -0.2454   -0.4855   -5.6552 N   0  0  0  0  0  0  0  0  0  0  0  0
    0.4406   -0.3510   -6.7914 C   0  0  0  0  0  0  0  0  0  0  0  0
    1.7932   -0.3593   -6.4682 C   0  0  0  0  0  0  0  0  0  0  0  0
    1.8646   -0.4996   -5.0887 N   0  0  0  0  0  0  0  0  0  0  0  0
    3.0833   -0.5557   -4.2776 C   0  0  0  0  0  0  0  0  0  0  0  0
    3.5408   -1.9865   -4.1566 C   0  0  0  0  0  0  0  0  0  0  0  0
    3.7230   -2.7524   -5.2929 C   0  0  0  0  0  0  0  0  0  0  0  0
    4.1422   -4.0649   -5.1821 C   0  0  0  0  0  0  0  0  0  0  0  0
    4.3803   -4.6121   -3.9349 C   0  0  0  0  0  0  0  0  0  0  0  0
    4.1990   -3.8473   -2.7983 C   0  0  0  0  0  0  0  0  0  0  0  0
    3.7840   -2.5319   -2.9089 C   0  0  0  0  0  0  0  0  0  0  0  0
    3.5628   -1.5682   -1.4819 Cl  0  0  0  0  0  0  0  0  0  0  0  0
    2.7452   -0.2304   -7.4949 C   0  0  0  0  0  0  0  0  0  0  0  0
    3.9358   -0.2344   -7.2347 O   0  0  0  0  0  0  0  0  0  0  0  0
    2.3267   -0.1024   -8.7711 N   0  0  0  0  0  0  0  0  0  0  0  0
    3.0012   -0.0109   -9.5037 H   0  0  0  0  0  0  0  0  0  0  0  0
    1.0168   -0.0960   -9.0727 C   0  0  0  0  0  0  0  0  0  0  0  0
    0.6763    0.0213  -10.2342 O   0  0  0  0  0  0  0  0  0  0  0  0
    0.0726   -0.2158   -8.1205 N   0  0  0  0  0  0  0  0  0  0  0  0
   -1.3450   -0.2039   -8.4898 C   0  0  0  0  0  0  0  0  0  0  0  0
   -1.7866   -3.3303   -3.4610 H   0  0  0  0  0  0  0  0  0  0  0  0
   -0.1236   -3.3099   -2.8269 H   0  0  0  0  0  0  0  0  0  0  0  0
   -1.4376   -4.0165   -1.8562 H   0  0  0  0  0  0  0  0  0  0  0  0
   -0.7611   -1.7214   -1.0805 H   0  0  0  0  0  0  0  0  0  0  0  0
   -2.4695   -1.8181   -1.5706 H   0  0  0  0  0  0  0  0  0  0  0  0
   -1.0169    0.7927   -1.4769 H   0  0  0  0  0  0  0  0  0  0  0  0
   -1.4468    1.3744   -3.1033 H   0  0  0  0  0  0  0  0  0  0  0  0
   -2.6697    0.5626   -2.0964 H   0  0  0  0  0  0  0  0  0  0  0  0
    0.8933   -0.8056   -2.6310 H   0  0  0  0  0  0  0  0  0  0  0  0
    3.8645    0.0365   -4.7542 H   0  0  0  0  0  0  0  0  0  0  0  0
    2.8779   -0.1548   -3.2850 H   0  0  0  0  0  0  0  0  0  0  0  0
    3.5375   -2.3254   -6.2673 H   0  0  0  0  0  0  0  0  0  0  0  0
    4.2840   -4.6630   -6.0700 H   0  0  0  0  0  0  0  0  0  0  0  0
    4.7085   -5.6375   -3.8490 H   0  0  0  0  0  0  0  0  0  0  0  0
    4.3854   -4.2747   -1.8242 H   0  0  0  0  0  0  0  0  0  0  0  0
   -1.7164    0.8207   -8.4721 H   0  0  0  0  0  0  0  0  0  0  0  0
   -1.4628   -0.6157   -9.4921 H   0  0  0  0  0  0  0  0  0  0  0  0
   -1.9105   -0.8077   -7.7801 H   0  0  0  0  0  0  0  0  0  0  0  0
  1  2  1  0  0  0  0
  1 28  1  0  0  0  0
  1 29  1  0  0  0  0
  1 30  1  0  0  0  0
  2  3  1  0  0  0  0
  2 31  1  0  0  0  0
  2 32  1  0  0  0  0
  3  4  1  0  0  0  0
  3  5  1  0  0  0  0
  3  6  1  0  0  0  0
  5 33  1  0  0  0  0
  5 34  1  0  0  0  0
  5 35  1  0  0  0  0
  6  7  1  0  0  0  0
  6 36  1  0  0  0  0
  7 11  1  0  0  0  0
  7  8  2  0  0  0  0
  8  9  1  0  0  0  0
  9 26  1  0  0  0  0
  9 10  2  0  0  0  0
 10 11  1  0  0  0  0
 10 20  1  0  0  0  0
 11 12  1  0  0  0  0
 12 13  1  0  0  0  0
 12 37  1  0  0  0  0
 12 38  1  0  0  0  0
 13 18  2  0  0  0  0
 13 14  1  0  0  0  0
 14 15  2  0  0  0  0
 14 39  1  0  0  0  0
 15 16  1  0  0  0  0
 15 40  1  0  0  0  0
 16 17  2  0  0  0  0
 16 41  1  0  0  0  0
 17 18  1  0  0  0  0
 17 42  1  0  0  0  0
 18 19  1  0  0  0  0
 20 21  2  0  0  0  0
 20 22  1  0  0  0  0
 22 23  1  0  0  0  0
 22 24  1  0  0  0  0
 24 25  2  0  0  0  0
 24 26  1  0  0  0  0
 26 27  1  0  0  0  0
 27 43  1  0  0  0  0
 27 44  1  0  0  0  0
 27 45  1  0  0  0  0
M  END
$$$$
ZINC00902725
  -OEChem-08230709453D

 46 48  0     1  0  0  0  0  0999 V2000
   -1.1779   -3.2281   -2.5626 C   0  0  0  0  0  0  0  0  0  0  0  0
   -1.4388   -1.8633   -1.9223 C   0  0  0  0  0  0  0  0  0  0  0  0
   -1.2043   -0.7611   -2.9573 C   0  0  1  0  0  0  0  0  0  0  0  0
   -1.8012   -0.9646   -3.8463 H   0  0  0  0  0  0  0  0  0  0  0  0
   -1.6139    0.5892   -2.3660 C   0  0  0  0  0  0  0  0  0  0  0  0
    0.2147   -0.7254   -3.3195 N   0  0  0  0  0  0  0  0  0  0  0  0
    0.5851   -0.5781   -4.6365 C   0  0  0  0  0  0  0  0  0  0  0  0
    0.4406   -0.3510   -6.7914 C   0  0  0  0  0  0  0  0  0  0  0  0
    1.7932   -0.3593   -6.4682 C   0  0  0  0  0  0  0  0  0  0  0  0
    1.8646   -0.4996   -5.0887 N   0  0  0  0  0  0  0  0  0  0  0  0
    3.0833   -0.5557   -4.2776 C   0  0  0  0  0  0  0  0  0  0  0  0
    3.5408   -1.9865   -4.1566 C   0  0  0  0  0  0  0  0  0  0  0  0
    3.7230   -2.7524   -5.2929 C   0  0  0  0  0  0  0  0  0  0  0  0
    4.1422   -4.0649   -5.1821 C   0  0  0  0  0  0  0  0  0  0  0  0
    4.3803   -4.6121   -3.9349 C   0  0  0  0  0  0  0  0  0  0  0  0
    4.1990   -3.8473   -2.7983 C   0  0  0  0  0  0  0  0  0  0  0  0
    3.7840   -2.5319   -2.9089 C   0  0  0  0  0  0  0  0  0  0  0  0
    3.5628   -1.5682   -1.4819 Cl  0  0  0  0  0  0  0  0  0  0  0  0
    2.7452   -0.2304   -7.4949 C   0  0  0  0  0  0  0  0  0  0  0  0
    3.9358   -0.2344   -7.2347 O   0  0  0  0  0  0  0  0  0  0  0  0
    2.3267   -0.1024   -8.7711 N   0  0  0  0  0  0  0  0  0  0  0  0
    3.0012   -0.0109   -9.5037 H   0  0  0  0  0  0  0  0  0  0  0  0
    1.0168   -0.0960   -9.0727 C   0  0  0  0  0  0  0  0  0  0  0  0
    0.6763    0.0213  -10.2342 O   0  0  0  0  0  0  0  0  0  0  0  0
    0.0726   -0.2158   -8.1205 N   0  0  0  0  0  0  0  0  0  0  0  0
   -1.3450   -0.2039   -8.4898 C   0  0  0  0  0  0  0  0  0  0  0  0
   -1.7866   -3.3303   -3.4610 H   0  0  0  0  0  0  0  0  0  0  0  0
   -0.1236   -3.3099   -2.8269 H   0  0  0  0  0  0  0  0  0  0  0  0
   -1.4376   -4.0165   -1.8562 H   0  0  0  0  0  0  0  0  0  0  0  0
   -0.7611   -1.7214   -1.0805 H   0  0  0  0  0  0  0  0  0  0  0  0
   -2.4695   -1.8181   -1.5706 H   0  0  0  0  0  0  0  0  0  0  0  0
   -1.0169    0.7927   -1.4769 H   0  0  0  0  0  0  0  0  0  0  0  0
   -1.4468    1.3744   -3.1033 H   0  0  0  0  0  0  0  0  0  0  0  0
   -2.6697    0.5626   -2.0964 H   0  0  0  0  0  0  0  0  0  0  0  0
    0.8933   -0.8056   -2.6310 H   0  0  0  0  0  0  0  0  0  0  0  0
    3.8645    0.0365   -4.7542 H   0  0  0  0  0  0  0  0  0  0  0  0
    2.8779   -0.1548   -3.2850 H   0  0  0  0  0  0  0  0  0  0  0  0
    3.5375   -2.3254   -6.2673 H   0  0  0  0  0  0  0  0  0  0  0  0
    4.2840   -4.6630   -6.0700 H   0  0  0  0  0  0  0  0  0  0  0  0
    4.7085   -5.6375   -3.8490 H   0  0  0  0  0  0  0  0  0  0  0  0
    4.3854   -4.2747   -1.8242 H   0  0  0  0  0  0  0  0  0  0  0  0
   -1.7164    0.8207   -8.4721 H   0  0  0  0  0  0  0  0  0  0  0  0
   -1.4628   -0.6157   -9.4921 H   0  0  0  0  0  0  0  0  0  0  0  0
   -1.9105   -0.8077   -7.7801 H   0  0  0  0  0  0  0  0  0  0  0  0
   -0.2485   -0.4856   -5.6550 N   0  3  0  0  0  0  0  0  0  0  0  0
   -1.2725   -0.5129   -5.5847 H   0  0  0  0  0  0  0  0  0  0  0  0
  1  2  1  0  0  0  0
  1 27  1  0  0  0  0
  1 28  1  0  0  0  0
  1 29  1  0  0  0  0
  2  3  1  0  0  0  0
  2 30  1  0  0  0  0
  2 31  1  0  0  0  0
  3  4  1  0  0  0  0
  3  5  1  0  0  0  0
  3  6  1  0  0  0  0
  5 32  1  0  0  0  0
  5 33  1  0  0  0  0
  5 34  1  0  0  0  0
  6  7  1  0  0  0  0
  6 35  1  0  0  0  0
  7 10  1  0  0  0  0
  7 45  2  0  0  0  0
  8 25  1  0  0  0  0
  8  9  2  0  0  0  0
  8 45  1  0  0  0  0
  9 10  1  0  0  0  0
  9 19  1  0  0  0  0
 10 11  1  0  0  0  0
 11 12  1  0  0  0  0
 11 36  1  0  0  0  0
 11 37  1  0  0  0  0
 12 17  2  0  0  0  0
 12 13  1  0  0  0  0
 13 14  2  0  0  0  0
 13 38  1  0  0  0  0
 14 15  1  0  0  0  0
 14 39  1  0  0  0  0
 15 16  2  0  0  0  0
 15 40  1  0  0  0  0
 16 17  1  0  0  0  0
 16 41  1  0  0  0  0
 17 18  1  0  0  0  0
 19 20  2  0  0  0  0
 19 21  1  0  0  0  0
 21 22  1  0  0  0  0
 21 23  1  0  0  0  0
 23 24  2  0  0  0  0
 23 25  1  0  0  0  0
 25 26  1  0  0  0  0
 26 42  1  0  0  0  0
 26 43  1  0  0  0  0
 26 44  1  0  0  0  0
 45 46  1  0  0  0  0
M  CHG  1  45   1
M  END
$$$$
ZINC00904448
  -OEChem-08230709453D

 43 46  0     0  0  0  0  0  0999 V2000
   13.2802    1.2657    1.1078 C   0  0  0  0  0  0  0  0  0  0  0  0
   12.5073    0.3088    0.3804 O   0  0  0  0  0  0  0  0  0  0  0  0
   11.1712    0.5411    0.2819 C   0  0  0  0  0  0  0  0  0  0  0  0
   10.3622   -0.3480   -0.4105 C   0  0  0  0  0  0  0  0  0  0  0  0
    9.0052   -0.1128   -0.5110 C   0  0  0  0  0  0  0  0  0  0  0  0
    8.4504    1.0139    0.0816 C   0  0  0  0  0  0  0  0  0  0  0  0
    9.2617    1.9062    0.7700 C   0  0  0  0  0  0  0  0  0  0  0  0
   10.6177    1.6669    0.8741 C   0  0  0  0  0  0  0  0  0  0  0  0
    7.0744    1.2531   -0.0199 N   0  0  0  0  0  0  0  0  0  0  0  0
    6.2086    0.2202   -0.0142 C   0  0  0  0  0  0  0  0  0  0  0  0
    6.6258   -0.9240   -0.0057 O   0  0  0  0  0  0  0  0  0  0  0  0
    4.8129    0.4655   -0.0181 C   0  0  0  0  0  0  0  0  0  0  0  0
    3.7857   -0.4516   -0.0135 C   0  0  0  0  0  0  0  0  0  0  0  0
    2.4170    0.0445   -0.0197 C   0  0  0  0  0  0  0  0  0  0  0  0
    1.2129   -0.6922   -0.0188 C   0  0  0  0  0  0  0  0  0  0  0  0
    0.0019   -0.0033   -0.0246 C   0  0  0  0  0  0  0  0  0  0  0  0
   -0.0170    1.3989   -0.0254 C   0  0  0  0  0  0  0  0  0  0  0  0
    1.1215    2.0652   -0.0312 N   0  0  0  0  0  0  0  0  0  0  0  0
    2.2888    1.4547   -0.0281 C   0  0  0  0  0  0  0  0  0  0  0  0
    3.9682    2.0342   -0.0302 S   0  0  0  0  0  0  0  0  0  0  0  0
   -1.3105    2.1680   -0.0128 C   0  0  0  0  0  0  0  0  0  0  0  0
   -2.4607    1.3242   -0.5549 C   0  0  0  0  0  0  0  0  0  0  0  0
   -2.5423    0.0090    0.2308 C   0  0  0  0  0  0  0  0  0  0  0  0
   -1.2637   -0.7579   -0.0348 C   0  0  0  0  0  0  0  0  0  0  0  0
   -1.2808   -1.9516   -0.2489 O   0  0  0  0  0  0  0  0  0  0  0  0
    4.0484   -1.8134   -0.0028 N   0  0  0  0  0  0  0  0  0  0  0  0
   13.1870    2.2432    0.6348 H   0  0  0  0  0  0  0  0  0  0  0  0
   12.9164    1.3223    2.1338 H   0  0  0  0  0  0  0  0  0  0  0  0
   14.3269    0.9613    1.1098 H   0  0  0  0  0  0  0  0  0  0  0  0
   10.7938   -1.2242   -0.8713 H   0  0  0  0  0  0  0  0  0  0  0  0
    8.3755   -0.8051   -1.0500 H   0  0  0  0  0  0  0  0  0  0  0  0
    8.8317    2.7852    1.2270 H   0  0  0  0  0  0  0  0  0  0  0  0
   11.2482    2.3586    1.4130 H   0  0  0  0  0  0  0  0  0  0  0  0
    6.7443    2.1622   -0.0942 H   0  0  0  0  0  0  0  0  0  0  0  0
    1.2302   -1.7720   -0.0134 H   0  0  0  0  0  0  0  0  0  0  0  0
   -1.5383    2.4669    1.0104 H   0  0  0  0  0  0  0  0  0  0  0  0
   -1.2012    3.0607   -0.6286 H   0  0  0  0  0  0  0  0  0  0  0  0
   -2.2873    1.1078   -1.6091 H   0  0  0  0  0  0  0  0  0  0  0  0
   -3.3967    1.8719   -0.4454 H   0  0  0  0  0  0  0  0  0  0  0  0
   -3.3379   -0.5136   -0.0757 H   0  0  0  0  0  0  0  0  0  0  0  0
   -2.6343    0.2180    1.2966 H   0  0  0  0  0  0  0  0  0  0  0  0
    3.3155   -2.4488    0.0006 H   0  0  0  0  0  0  0  0  0  0  0  0
    4.9651   -2.1305    0.0012 H   0  0  0  0  0  0  0  0  0  0  0  0
  1  2  1  0  0  0  0
  1 27  1  0  0  0  0
  1 28  1  0  0  0  0
  1 29  1  0  0  0  0
  2  3  1  0  0  0  0
  3  8  2  0  0  0  0
  3  4  1  0  0  0  0
  4  5  2  0  0  0  0
  4 30  1  0  0  0  0
  5  6  1  0  0  0  0
  5 31  1  0  0  0  0
  6  7  2  0  0  0  0
  6  9  1  0  0  0  0
  7  8  1  0  0  0  0
  7 32  1  0  0  0  0
  8 33  1  0  0  0  0
  9 10  1  0  0  0  0
  9 34  1  0  0  0  0
 10 11  2  0  0  0  0
 10 12  1  0  0  0  0
 12 20  1  0  0  0  0
 12 13  2  0  0  0  0
 13 14  1  0  0  0  0
 13 26  1  0  0  0  0
 14 19  2  0  0  0  0
 14 15  1  0  0  0  0
 15 16  2  0  0  0  0
 15 35  1  0  0  0  0
 16 24  1  0  0  0  0
 16 17  1  0  0  0  0
 17 18  2  0  0  0  0
 17 21  1  0  0  0  0
 18 19  1  0  0  0  0
 19 20  1  0  0  0  0
 21 22  1  0  0  0  0
 21 36  1  0  0  0  0
 21 37  1  0  0  0  0
 22 23  1  0  0  0  0
 22 38  1  0  0  0  0
 22 39  1  0  0  0  0
 23 24  1  0  0  0  0
 23 40  1  0  0  0  0
 23 41  1  0  0  0  0
 24 25  2  0  0  0  0
 26 42  1  0  0  0  0
 26 43  1  0  0  0  0
M  END
$$$$
ZINC00907931
  -OEChem-08230709453D

 43 46  0     1  0  0  0  0  0999 V2000
   -0.0908    4.1263    0.0303 C   0  0  0  0  0  0  0  0  0  0  0  0
   -1.2688    3.4027    0.0344 C   0  0  0  0  0  0  0  0  0  0  0  0
   -1.2338    2.0211    0.0305 C   0  0  0  0  0  0  0  0  0  0  0  0
   -0.0164    1.3568    0.0095 C   0  0  0  0  0  0  0  0  0  0  0  0
    1.1677    2.0843    0.0021 C   0  0  0  0  0  0  0  0  0  0  0  0
    1.1256    3.4707    0.0142 C   0  0  0  0  0  0  0  0  0  0  0  0
    2.3732    1.4528   -0.0180 O   0  0  0  0  0  0  0  0  0  0  0  0
    2.3805    0.0685    0.3478 C   0  0  0  0  0  0  0  0  0  0  0  0
    1.2293   -0.6290   -0.3895 C   0  0  2  0  0  0  0  0  0  0  0  0
    1.3668   -0.5268   -1.4659 H   0  0  0  0  0  0  0  0  0  0  0  0
    0.0021   -0.0041    0.0020 O   0  0  0  0  0  0  0  0  0  0  0  0
    1.1973   -2.0891   -0.0177 C   0  0  0  0  0  0  0  0  0  0  0  0
    0.2600   -2.5346    0.6099 O   0  0  0  0  0  0  0  0  0  0  0  0
    2.2102   -2.8998   -0.3826 N   0  0  0  0  0  0  0  0  0  0  0  0
    2.1807   -4.2432   -0.0405 C   0  0  0  0  0  0  0  0  0  0  0  0
    3.1167   -5.2268   -0.3275 C   0  0  0  0  0  0  0  0  0  0  0  0
    2.8478   -6.5708    0.1547 C   0  0  0  0  0  0  0  0  0  0  0  0
    1.6884   -6.7177    0.8320 C   0  0  0  0  0  0  0  0  0  0  0  0
    0.9628   -5.1029    0.8424 S   0  0  0  0  0  0  0  0  0  0  0  0
    1.1484   -7.9773    1.4357 C   0  0  0  0  0  0  0  0  0  0  0  0
    1.9259   -9.1657    0.8514 C   0  0  0  0  0  0  0  0  0  0  0  0
    3.4245   -8.8590    0.9250 C   0  0  0  0  0  0  0  0  0  0  0  0
    3.7791   -7.7551   -0.0729 C   0  0  0  0  0  0  0  0  0  0  0  0
    4.3337   -4.9202   -1.0855 C   0  0  0  0  0  0  0  0  0  0  0  0
    5.3440   -4.5752   -0.5010 O   0  0  0  0  0  0  0  0  0  0  0  0
    4.3338   -5.0205   -2.4295 N   0  0  0  0  0  0  0  0  0  0  0  0
   -0.1212    5.2058    0.0395 H   0  0  0  0  0  0  0  0  0  0  0  0
   -2.2179    3.9179    0.0452 H   0  0  0  0  0  0  0  0  0  0  0  0
   -2.1555    1.4582    0.0379 H   0  0  0  0  0  0  0  0  0  0  0  0
    2.0444    4.0383    0.0106 H   0  0  0  0  0  0  0  0  0  0  0  0
    2.2395   -0.0279    1.4243 H   0  0  0  0  0  0  0  0  0  0  0  0
    3.3294   -0.3832    0.0588 H   0  0  0  0  0  0  0  0  0  0  0  0
    2.9599   -2.5434   -0.8846 H   0  0  0  0  0  0  0  0  0  0  0  0
    1.2772   -7.9506    2.5177 H   0  0  0  0  0  0  0  0  0  0  0  0
    0.0900   -8.0759    1.1943 H   0  0  0  0  0  0  0  0  0  0  0  0
    1.7081  -10.0642    1.4288 H   0  0  0  0  0  0  0  0  0  0  0  0
    1.6346   -9.3174   -0.1880 H   0  0  0  0  0  0  0  0  0  0  0  0
    3.6778   -8.5308    1.9331 H   0  0  0  0  0  0  0  0  0  0  0  0
    3.9905   -9.7587    0.6841 H   0  0  0  0  0  0  0  0  0  0  0  0
    4.8120   -7.4424    0.0799 H   0  0  0  0  0  0  0  0  0  0  0  0
    3.6545   -8.1278   -1.0896 H   0  0  0  0  0  0  0  0  0  0  0  0
    3.5286   -5.2955   -2.8954 H   0  0  0  0  0  0  0  0  0  0  0  0
    5.1389   -4.8177   -2.9310 H   0  0  0  0  0  0  0  0  0  0  0  0
  1  6  2  0  0  0  0
  1  2  1  0  0  0  0
  1 27  1  0  0  0  0
  2  3  2  0  0  0  0
  2 28  1  0  0  0  0
  3  4  1  0  0  0  0
  3 29  1  0  0  0  0
  4 11  1  0  0  0  0
  4  5  2  0  0  0  0
  5  6  1  0  0  0  0
  5  7  1  0  0  0  0
  6 30  1  0  0  0  0
  7  8  1  0  0  0  0
  8  9  1  0  0  0  0
  8 31  1  0  0  0  0
  8 32  1  0  0  0  0
  9 10  1  0  0  0  0
  9 11  1  0  0  0  0
  9 12  1  0  0  0  0
 12 13  2  0  0  0  0
 12 14  1  0  0  0  0
 14 15  1  0  0  0  0
 14 33  1  0  0  0  0
 15 19  1  0  0  0  0
 15 16  2  0  0  0  0
 16 17  1  0  0  0  0
 16 24  1  0  0  0  0
 17 23  1  0  0  0  0
 17 18  2  0  0  0  0
 18 19  1  0  0  0  0
 18 20  1  0  0  0  0
 20 21  1  0  0  0  0
 20 34  1  0  0  0  0
 20 35  1  0  0  0  0
 21 22  1  0  0  0  0
 21 36  1  0  0  0  0
 21 37  1  0  0  0  0
 22 23  1  0  0  0  0
 22 38  1  0  0  0  0
 22 39  1  0  0  0  0
 23 40  1  0  0  0  0
 23 41  1  0  0  0  0
 24 25  2  0  0  0  0
 24 26  1  0  0  0  0
 26 42  1  0  0  0  0
 26 43  1  0  0  0  0
M  END
$$$$
ZINC00925163
  -OEChem-08230709453D

 43 46  0     1  0  0  0  0  0999 V2000
   -1.4128    3.4174    9.6440 C   0  0  0  0  0  0  0  0  0  0  0  0
   -2.2077    2.8463    8.4681 C   0  0  0  0  0  0  0  0  0  0  0  0
   -1.4813    3.0560    7.2555 O   0  0  0  0  0  0  0  0  0  0  0  0
   -2.0525    2.6043    6.1080 C   0  0  0  0  0  0  0  0  0  0  0  0
   -3.2968    1.9685    6.1591 C   0  0  0  0  0  0  0  0  0  0  0  0
   -3.8942    1.5061    5.0284 C   0  0  0  0  0  0  0  0  0  0  0  0
   -3.2568    1.6662    3.7850 C   0  0  0  0  0  0  0  0  0  0  0  0
   -1.9957    2.3105    3.7332 C   0  0  0  0  0  0  0  0  0  0  0  0
   -1.4048    2.7769    4.9178 C   0  0  0  0  0  0  0  0  0  0  0  0
   -1.3574    2.4637    2.4876 C   0  0  0  0  0  0  0  0  0  0  0  0
   -1.9921    1.9900    1.3753 C   0  0  0  0  0  0  0  0  0  0  0  0
   -3.2334    1.3658    1.4955 C   0  0  0  0  0  0  0  0  0  0  0  0
   -3.8226    1.2203    2.6588 N   0  0  0  0  0  0  0  0  0  0  0  0
   -4.0193    0.7652    0.0688 Cl  0  0  0  0  0  0  0  0  0  0  0  0
   -1.3491    2.1359    0.0202 C   0  0  1  0  0  0  0  0  0  0  0  0
   -1.9987    1.7086   -0.7437 H   0  0  0  0  0  0  0  0  0  0  0  0
   -1.1103    3.5941   -0.2692 C   0  0  0  0  0  0  0  0  0  0  0  0
   -2.0267    4.5896   -0.5801 C   0  0  0  0  0  0  0  0  0  0  0  0
   -1.3670    5.7099   -0.7566 N   0  0  0  0  0  0  0  0  0  0  0  0
   -0.0005    5.4554   -0.5612 N   0  0  0  0  0  0  0  0  0  0  0  0
    0.7390    6.1249   -0.6308 H   0  0  0  0  0  0  0  0  0  0  0  0
    0.1372    4.1532   -0.2642 C   0  0  0  0  0  0  0  0  0  0  0  0
    1.2586    3.4392    0.0043 O   0  0  0  0  0  0  0  0  0  0  0  0
    1.1582    2.0945    0.0022 C   0  0  0  0  0  0  0  0  0  0  0  0
   -0.0173    1.4278    0.0099 C   0  0  0  0  0  0  0  0  0  0  0  0
    0.0021   -0.0041    0.0020 C   0  0  0  0  0  0  0  0  0  0  0  0
    0.0175   -1.1399   -0.0042 N   0  0  0  0  0  0  0  0  0  0  0  0
    2.3177    1.3598   -0.0087 N   0  0  0  0  0  0  0  0  0  0  0  0
   -3.5189    4.4139   -0.6957 C   0  0  0  0  0  0  0  0  0  0  0  0
   -0.4472    2.9159    9.7076 H   0  0  0  0  0  0  0  0  0  0  0  0
   -1.2581    4.4858    9.4933 H   0  0  0  0  0  0  0  0  0  0  0  0
   -1.9669    3.2574   10.5690 H   0  0  0  0  0  0  0  0  0  0  0  0
   -3.1734    3.3478    8.4045 H   0  0  0  0  0  0  0  0  0  0  0  0
   -2.3624    1.7779    8.6188 H   0  0  0  0  0  0  0  0  0  0  0  0
   -3.7911    1.8431    7.1111 H   0  0  0  0  0  0  0  0  0  0  0  0
   -4.8557    1.0176    5.0850 H   0  0  0  0  0  0  0  0  0  0  0  0
   -0.4438    3.2689    4.8885 H   0  0  0  0  0  0  0  0  0  0  0  0
   -0.3939    2.9460    2.4134 H   0  0  0  0  0  0  0  0  0  0  0  0
    2.2779    0.3906   -0.0107 H   0  0  0  0  0  0  0  0  0  0  0  0
    3.1770    1.8099   -0.0143 H   0  0  0  0  0  0  0  0  0  0  0  0
   -3.7757    4.1538   -1.7226 H   0  0  0  0  0  0  0  0  0  0  0  0
   -3.8438    3.6168   -0.0269 H   0  0  0  0  0  0  0  0  0  0  0  0
   -4.0166    5.3440   -0.4211 H   0  0  0  0  0  0  0  0  0  0  0  0
  1  2  1  0  0  0  0
  1 30  1  0  0  0  0
  1 31  1  0  0  0  0
  1 32  1  0  0  0  0
  2  3  1  0  0  0  0
  2 33  1  0  0  0  0
  2 34  1  0  0  0  0
  3  4  1  0  0  0  0
  4  9  2  0  0  0  0
  4  5  1  0  0  0  0
  5  6  2  0  0  0  0
  5 35  1  0  0  0  0
  6  7  1  0  0  0  0
  6 36  1  0  0  0  0
  7 13  2  0  0  0  0
  7  8  1  0  0  0  0
  8  9  1  0  0  0  0
  8 10  2  0  0  0  0
  9 37  1  0  0  0  0
 10 11  1  0  0  0  0
 10 38  1  0  0  0  0
 11 12  2  0  0  0  0
 11 15  1  0  0  0  0
 12 13  1  0  0  0  0
 12 14  1  0  0  0  0
 15 16  1  0  0  0  0
 15 25  1  0  0  0  0
 15 17  1  0  0  0  0
 17 22  2  0  0  0  0
 17 18  1  0  0  0  0
 18 19  2  0  0  0  0
 18 29  1  0  0  0  0
 19 20  1  0  0  0  0
 20 21  1  0  0  0  0
 20 22  1  0  0  0  0
 22 23  1  0  0  0  0
 23 24  1  0  0  0  0
 24 25  2  0  0  0  0
 24 28  1  0  0  0  0
 25 26  1  0  0  0  0
 26 27  3  0  0  0  0
 28 39  1  0  0  0  0
 28 40  1  0  0  0  0
 29 41  1  0  0  0  0
 29 42  1  0  0  0  0
 29 43  1  0  0  0  0
M  END
$$$$
ZINC00925163
  -OEChem-08230709453D

 43 46  0     1  0  0  0  0  0999 V2000
   -1.4091    3.4179    9.6446 C   0  0  0  0  0  0  0  0  0  0  0  0
   -2.2045    2.8469    8.4690 C   0  0  0  0  0  0  0  0  0  0  0  0
   -1.4785    3.0564    7.2562 O   0  0  0  0  0  0  0  0  0  0  0  0
   -2.0502    2.6047    6.1089 C   0  0  0  0  0  0  0  0  0  0  0  0
   -3.2945    1.9691    6.1605 C   0  0  0  0  0  0  0  0  0  0  0  0
   -3.8924    1.5067    5.0300 C   0  0  0  0  0  0  0  0  0  0  0  0
   -3.2555    1.6667    3.7864 C   0  0  0  0  0  0  0  0  0  0  0  0
   -1.9943    2.3108    3.7341 C   0  0  0  0  0  0  0  0  0  0  0  0
   -1.4029    2.7772    4.9184 C   0  0  0  0  0  0  0  0  0  0  0  0
   -1.3565    2.4639    2.4882 C   0  0  0  0  0  0  0  0  0  0  0  0
   -1.9917    1.9902    1.3762 C   0  0  0  0  0  0  0  0  0  0  0  0
   -3.2330    1.3662    1.4969 C   0  0  0  0  0  0  0  0  0  0  0  0
   -3.8217    1.2208    2.6604 N   0  0  0  0  0  0  0  0  0  0  0  0
   -4.0195    0.7656    0.0705 Cl  0  0  0  0  0  0  0  0  0  0  0  0
   -1.3492    2.1360    0.0208 C   0  0  1  0  0  0  0  0  0  0  0  0
   -1.9991    1.7088   -0.7428 H   0  0  0  0  0  0  0  0  0  0  0  0
   -1.1104    3.5942   -0.2687 C   0  0  0  0  0  0  0  0  0  0  0  0
   -2.0268    4.5898   -0.5793 C   0  0  0  0  0  0  0  0  0  0  0  0
   -1.3675    5.7110   -0.7517 N   0  0  0  0  0  0  0  0  0  0  0  0
   -0.0014    5.4572   -0.5530 N   0  0  0  0  0  0  0  0  0  0  0  0
   -1.7700    6.5961   -0.9851 H   0  0  0  0  0  0  0  0  0  0  0  0
    0.1367    4.1543   -0.2591 C   0  0  0  0  0  0  0  0  0  0  0  0
    1.2579    3.4406    0.0108 O   0  0  0  0  0  0  0  0  0  0  0  0
    1.1587    2.0957    0.0045 C   0  0  0  0  0  0  0  0  0  0  0  0
   -0.0163    1.4281    0.0075 C   0  0  0  0  0  0  0  0  0  0  0  0
    0.0043   -0.0038   -0.0042 C   0  0  0  0  0  0  0  0  0  0  0  0
    0.0207   -1.1396   -0.0133 N   0  0  0  0  0  0  0  0  0  0  0  0
    2.3188    1.3620   -0.0054 N   0  0  0  0  0  0  0  0  0  0  0  0
   -3.5190    4.4142   -0.6943 C   0  0  0  0  0  0  0  0  0  0  0  0
   -0.4435    2.9164    9.7079 H   0  0  0  0  0  0  0  0  0  0  0  0
   -1.2544    4.4863    9.4938 H   0  0  0  0  0  0  0  0  0  0  0  0
   -1.9629    3.2580   10.5698 H   0  0  0  0  0  0  0  0  0  0  0  0
   -3.1702    3.3484    8.4058 H   0  0  0  0  0  0  0  0  0  0  0  0
   -2.3592    1.7785    8.6198 H   0  0  0  0  0  0  0  0  0  0  0  0
   -3.7885    1.8437    7.1127 H   0  0  0  0  0  0  0  0  0  0  0  0
   -4.8539    1.0182    5.0870 H   0  0  0  0  0  0  0  0  0  0  0  0
   -0.4419    3.2692    4.8888 H   0  0  0  0  0  0  0  0  0  0  0  0
   -0.3930    2.9462    2.4137 H   0  0  0  0  0  0  0  0  0  0  0  0
    2.2798    0.3928   -0.0101 H   0  0  0  0  0  0  0  0  0  0  0  0
    3.1778    1.8128   -0.0077 H   0  0  0  0  0  0  0  0  0  0  0  0
   -3.7763    4.1541   -1.7211 H   0  0  0  0  0  0  0  0  0  0  0  0
   -3.8438    3.6172   -0.0254 H   0  0  0  0  0  0  0  0  0  0  0  0
   -4.0166    5.3444   -0.4196 H   0  0  0  0  0  0  0  0  0  0  0  0
  1  2  1  0  0  0  0
  1 30  1  0  0  0  0
  1 31  1  0  0  0  0
  1 32  1  0  0  0  0
  2  3  1  0  0  0  0
  2 33  1  0  0  0  0
  2 34  1  0  0  0  0
  3  4  1  0  0  0  0
  4  9  2  0  0  0  0
  4  5  1  0  0  0  0
  5  6  2  0  0  0  0
  5 35  1  0  0  0  0
  6  7  1  0  0  0  0
  6 36  1  0  0  0  0
  7 13  2  0  0  0  0
  7  8  1  0  0  0  0
  8  9  1  0  0  0  0
  8 10  2  0  0  0  0
  9 37  1  0  0  0  0
 10 11  1  0  0  0  0
 10 38  1  0  0  0  0
 11 12  2  0  0  0  0
 11 15  1  0  0  0  0
 12 13  1  0  0  0  0
 12 14  1  0  0  0  0
 15 16  1  0  0  0  0
 15 25  1  0  0  0  0
 15 17  1  0  0  0  0
 17 22  1  0  0  0  0
 17 18  2  0  0  0  0
 18 29  1  0  0  0  0
 18 19  1  0  0  0  0
 19 21  1  0  0  0  0
 19 20  1  0  0  0  0
 20 22  2  0  0  0  0
 22 23  1  0  0  0  0
 23 24  1  0  0  0  0
 24 25  2  0  0  0  0
 24 28  1  0  0  0  0
 25 26  1  0  0  0  0
 26 27  3  0  0  0  0
 28 39  1  0  0  0  0
 28 40  1  0  0  0  0
 29 41  1  0  0  0  0
 29 42  1  0  0  0  0
 29 43  1  0  0  0  0
M  END
$$$$
ZINC00928787
  -OEChem-08230709453D

 46 48  0     0  0  0  0  0  0999 V2000
    6.2604    0.2074   -1.8993 C   0  0  0  0  0  0  0  0  0  0  0  0
    6.0016    0.4418   -0.4097 C   0  0  0  0  0  0  0  0  0  0  0  0
    5.3641    1.7478   -0.2244 N   0  0  0  0  0  0  0  0  0  0  0  0
    5.9853    2.9454    0.0451 C   0  0  0  0  0  0  0  0  0  0  0  0
    5.0436    3.8553    0.1384 N   0  0  0  0  0  0  0  0  0  0  0  0
    3.8928    3.3175   -0.0565 N   0  0  0  0  0  0  0  0  0  0  0  0
    4.0289    2.0310   -0.2863 C   0  0  0  0  0  0  0  0  0  0  0  0
    2.7309    0.8835   -0.6070 S   0  0  0  0  0  0  0  0  0  0  0  0
    1.3025    1.9914   -0.5167 C   0  0  0  0  0  0  0  0  0  0  0  0
    0.0652    2.2978    0.3028 C   0  0  0  0  0  0  0  0  0  0  0  0
   -0.6744    1.4143    0.6646 O   0  0  0  0  0  0  0  0  0  0  0  0
   -0.2204    3.7418    0.6493 C   0  0  0  0  0  0  0  0  0  0  0  0
   -0.2498    4.5709   -0.6323 C   0  0  0  0  0  0  0  0  0  0  0  0
    0.0871    3.7703   -1.9660 C   0  0  0  0  0  0  0  0  0  0  0  0
    1.3389    2.9759   -1.6681 C   0  0  0  0  0  0  0  0  0  0  0  0
    2.3390    3.1219   -2.3289 O   0  0  0  0  0  0  0  0  0  0  0  0
   -0.4942    6.0406   -0.2844 C   0  0  0  0  0  0  0  0  0  0  0  0
   -1.3780    4.0667   -1.5345 C   0  0  0  0  0  0  0  0  0  0  0  0
    7.4381    3.1650    0.2060 C   0  0  0  0  0  0  0  0  0  0  0  0
    7.9054    4.3087    0.8560 C   0  0  0  0  0  0  0  0  0  0  0  0
    9.2610    4.5074    1.0082 C   0  0  0  0  0  0  0  0  0  0  0  0
   10.1616    3.5770    0.5067 C   0  0  0  0  0  0  0  0  0  0  0  0
    9.7010    2.4407   -0.1452 C   0  0  0  0  0  0  0  0  0  0  0  0
    8.3469    2.2320   -0.2968 C   0  0  0  0  0  0  0  0  0  0  0  0
   11.4972    3.7793    0.6537 O   0  0  0  0  0  0  0  0  0  0  0  0
    5.3144    0.2299   -2.4404 H   0  0  0  0  0  0  0  0  0  0  0  0
    6.9164    0.9894   -2.2816 H   0  0  0  0  0  0  0  0  0  0  0  0
    6.7347   -0.7643   -2.0371 H   0  0  0  0  0  0  0  0  0  0  0  0
    6.9475    0.4193    0.1314 H   0  0  0  0  0  0  0  0  0  0  0  0
    5.3456   -0.3402   -0.0274 H   0  0  0  0  0  0  0  0  0  0  0  0
    3.0568    2.5164   -1.9854 H   0  0  0  0  0  0  0  0  0  0  0  0
   -1.1859    3.8126    1.1499 H   0  0  0  0  0  0  0  0  0  0  0  0
    0.5617    4.1204    1.3073 H   0  0  0  0  0  0  0  0  0  0  0  0
   -0.1315    4.4339   -1.1294 H   0  0  0  0  0  0  0  0  0  0  0  0
    0.2357    4.3592   -2.8712 H   0  0  0  0  0  0  0  0  0  0  0  0
   -0.5202    6.6313   -1.2002 H   0  0  0  0  0  0  0  0  0  0  0  0
   -1.4463    6.1371    0.2374 H   0  0  0  0  0  0  0  0  0  0  0  0
    0.3099    6.4007    0.3574 H   0  0  0  0  0  0  0  0  0  0  0  0
   -1.2038    3.0199   -1.7834 H   0  0  0  0  0  0  0  0  0  0  0  0
   -2.3304    4.1624   -1.0131 H   0  0  0  0  0  0  0  0  0  0  0  0
   -1.4035    4.6584   -2.4495 H   0  0  0  0  0  0  0  0  0  0  0  0
    7.2057    5.0350    1.2425 H   0  0  0  0  0  0  0  0  0  0  0  0
    9.6232    5.3897    1.5149 H   0  0  0  0  0  0  0  0  0  0  0  0
   10.4047    1.7193   -0.5335 H   0  0  0  0  0  0  0  0  0  0  0  0
    7.9894    1.3482   -0.8042 H   0  0  0  0  0  0  0  0  0  0  0  0
   11.9028    4.2715   -0.0731 H   0  0  0  0  0  0  0  0  0  0  0  0
  1  2  1  0  0  0  0
  1 26  1  0  0  0  0
  1 27  1  0  0  0  0
  1 28  1  0  0  0  0
  2  3  1  0  0  0  0
  2 29  1  0  0  0  0
  2 30  1  0  0  0  0
  3  7  1  0  0  0  0
  3  4  1  0  0  0  0
  4  5  2  0  0  0  0
  4 19  1  0  0  0  0
  5  6  1  0  0  0  0
  6  7  2  0  0  0  0
  7  8  1  0  0  0  0
  8  9  1  0  0  0  0
  9 15  2  0  0  0  0
  9 10  1  0  0  0  0
 10 12  1  0  0  0  0
 10 11  2  0  0  0  0
 12 13  1  0  0  0  0
 12 32  1  0  0  0  0
 12 33  1  0  0  0  0
 13 14  1  0  0  0  0
 13 17  1  0  0  0  0
 13 18  1  0  0  0  0
 14 15  1  0  0  0  0
 14 34  1  0  0  0  0
 14 35  1  0  0  0  0
 15 16  1  0  0  0  0
 16 31  1  0  0  0  0
 17 36  1  0  0  0  0
 17 37  1  0  0  0  0
 17 38  1  0  0  0  0
 18 39  1  0  0  0  0
 18 40  1  0  0  0  0
 18 41  1  0  0  0  0
 19 24  2  0  0  0  0
 19 20  1  0  0  0  0
 20 21  2  0  0  0  0
 20 42  1  0  0  0  0
 21 22  1  0  0  0  0
 21 43  1  0  0  0  0
 22 23  2  0  0  0  0
 22 25  1  0  0  0  0
 23 24  1  0  0  0  0
 23 44  1  0  0  0  0
 24 45  1  0  0  0  0
 25 46  1  0  0  0  0
M  END
$$$$
ZINC00928787
  -OEChem-08230709453D

 46 48  0     0  0  0  0  0  0999 V2000
    6.2604    0.2074   -1.8993 C   0  0  0  0  0  0  0  0  0  0  0  0
    6.0016    0.4418   -0.4097 C   0  0  0  0  0  0  0  0  0  0  0  0
    5.3641    1.7478   -0.2244 N   0  0  0  0  0  0  0  0  0  0  0  0
    5.9853    2.9454    0.0451 C   0  0  0  0  0  0  0  0  0  0  0  0
    5.0436    3.8553    0.1384 N   0  0  0  0  0  0  0  0  0  0  0  0
    3.8928    3.3175   -0.0565 N   0  0  0  0  0  0  0  0  0  0  0  0
    4.0289    2.0310   -0.2863 C   0  0  0  0  0  0  0  0  0  0  0  0
    2.7309    0.8835   -0.6070 S   0  0  0  0  0  0  0  0  0  0  0  0
    1.3025    1.9914   -0.5167 C   0  0  0  0  0  0  0  0  0  0  0  0
    0.0652    2.2978    0.3028 C   0  0  0  0  0  0  0  0  0  0  0  0
   -0.6744    1.4143    0.6646 O   0  0  0  0  0  0  0  0  0  0  0  0
   -0.2204    3.7418    0.6493 C   0  0  0  0  0  0  0  0  0  0  0  0
   -0.2498    4.5709   -0.6323 C   0  0  0  0  0  0  0  0  0  0  0  0
    0.0871    3.7703   -1.9660 C   0  0  0  0  0  0  0  0  0  0  0  0
    1.3389    2.9759   -1.6681 C   0  0  0  0  0  0  0  0  0  0  0  0
    2.3390    3.1219   -2.3289 O   0  0  0  0  0  0  0  0  0  0  0  0
   -0.4942    6.0406   -0.2844 C   0  0  0  0  0  0  0  0  0  0  0  0
   -1.3780    4.0667   -1.5345 C   0  0  0  0  0  0  0  0  0  0  0  0
    7.4381    3.1650    0.2060 C   0  0  0  0  0  0  0  0  0  0  0  0
    7.9054    4.3087    0.8560 C   0  0  0  0  0  0  0  0  0  0  0  0
    9.2610    4.5074    1.0082 C   0  0  0  0  0  0  0  0  0  0  0  0
   10.1616    3.5770    0.5067 C   0  0  0  0  0  0  0  0  0  0  0  0
    9.7010    2.4407   -0.1452 C   0  0  0  0  0  0  0  0  0  0  0  0
    8.3469    2.2320   -0.2968 C   0  0  0  0  0  0  0  0  0  0  0  0
   11.4972    3.7793    0.6537 O   0  0  0  0  0  0  0  0  0  0  0  0
    5.3144    0.2299   -2.4404 H   0  0  0  0  0  0  0  0  0  0  0  0
    6.9164    0.9894   -2.2816 H   0  0  0  0  0  0  0  0  0  0  0  0
    6.7347   -0.7643   -2.0371 H   0  0  0  0  0  0  0  0  0  0  0  0
    6.9475    0.4193    0.1314 H   0  0  0  0  0  0  0  0  0  0  0  0
    5.3456   -0.3402   -0.0274 H   0  0  0  0  0  0  0  0  0  0  0  0
    0.5405    1.5953   -1.0290 H   0  0  0  0  0  0  0  0  0  0  0  0
   -1.1859    3.8126    1.1499 H   0  0  0  0  0  0  0  0  0  0  0  0
    0.5617    4.1204    1.3073 H   0  0  0  0  0  0  0  0  0  0  0  0
   -0.1315    4.4339   -1.1294 H   0  0  0  0  0  0  0  0  0  0  0  0
    0.2357    4.3592   -2.8712 H   0  0  0  0  0  0  0  0  0  0  0  0
   -0.5202    6.6313   -1.2002 H   0  0  0  0  0  0  0  0  0  0  0  0
   -1.4463    6.1371    0.2374 H   0  0  0  0  0  0  0  0  0  0  0  0
    0.3099    6.4007    0.3574 H   0  0  0  0  0  0  0  0  0  0  0  0
   -1.2038    3.0199   -1.7834 H   0  0  0  0  0  0  0  0  0  0  0  0
   -2.3304    4.1624   -1.0131 H   0  0  0  0  0  0  0  0  0  0  0  0
   -1.4035    4.6584   -2.4495 H   0  0  0  0  0  0  0  0  0  0  0  0
    7.2057    5.0350    1.2425 H   0  0  0  0  0  0  0  0  0  0  0  0
    9.6232    5.3897    1.5149 H   0  0  0  0  0  0  0  0  0  0  0  0
   10.4047    1.7193   -0.5335 H   0  0  0  0  0  0  0  0  0  0  0  0
    7.9894    1.3482   -0.8042 H   0  0  0  0  0  0  0  0  0  0  0  0
   11.9028    4.2715   -0.0731 H   0  0  0  0  0  0  0  0  0  0  0  0
  1  2  1  0  0  0  0
  1 26  1  0  0  0  0
  1 27  1  0  0  0  0
  1 28  1  0  0  0  0
  2  3  1  0  0  0  0
  2 29  1  0  0  0  0
  2 30  1  0  0  0  0
  3  7  1  0  0  0  0
  3  4  1  0  0  0  0
  4  5  2  0  0  0  0
  4 19  1  0  0  0  0
  5  6  1  0  0  0  0
  6  7  2  0  0  0  0
  7  8  1  0  0  0  0
  8  9  1  0  0  0  0
  9 31  1  0  0  0  0
  9 15  1  0  0  0  0
  9 10  1  0  0  0  0
 10 12  1  0  0  0  0
 10 11  2  0  0  0  0
 12 13  1  0  0  0  0
 12 32  1  0  0  0  0
 12 33  1  0  0  0  0
 13 14  1  0  0  0  0
 13 17  1  0  0  0  0
 13 18  1  0  0  0  0
 14 15  1  0  0  0  0
 14 34  1  0  0  0  0
 14 35  1  0  0  0  0
 15 16  2  0  0  0  0
 17 36  1  0  0  0  0
 17 37  1  0  0  0  0
 17 38  1  0  0  0  0
 18 39  1  0  0  0  0
 18 40  1  0  0  0  0
 18 41  1  0  0  0  0
 19 24  2  0  0  0  0
 19 20  1  0  0  0  0
 20 21  2  0  0  0  0
 20 42  1  0  0  0  0
 21 22  1  0  0  0  0
 21 43  1  0  0  0  0
 22 23  2  0  0  0  0
 22 25  1  0  0  0  0
 23 24  1  0  0  0  0
 23 44  1  0  0  0  0
 24 45  1  0  0  0  0
 25 46  1  0  0  0  0
M  END
$$$$
ZINC00939013
  -OEChem-08230709453D

 46 49  0     0  0  0  0  0  0999 V2000
   -3.4991   -1.1560   -2.4864 C   0  0  0  0  0  0  0  0  0  0  0  0
   -4.2132   -1.3266   -1.1703 C   0  0  0  0  0  0  0  0  0  0  0  0
   -3.8007   -0.6132   -0.0450 C   0  0  0  0  0  0  0  0  0  0  0  0
   -4.5057   -0.8044    1.1601 C   0  0  0  0  0  0  0  0  0  0  0  0
   -5.5277   -1.6574    1.1771 N   0  0  0  0  0  0  0  0  0  0  0  0
   -5.8774   -2.3154    0.0834 C   0  0  0  0  0  0  0  0  0  0  0  0
   -5.2355   -2.1588   -1.0661 N   0  0  0  0  0  0  0  0  0  0  0  0
   -6.9452   -3.1939    0.1414 N   0  0  0  0  0  0  0  0  0  0  0  0
   -4.1169   -0.0709    2.3841 C   0  0  0  0  0  0  0  0  0  0  0  0
   -2.7863   -0.0666    2.8049 C   0  0  0  0  0  0  0  0  0  0  0  0
   -2.4273    0.6174    3.9455 C   0  0  0  0  0  0  0  0  0  0  0  0
   -3.3870    1.3042    4.6804 C   0  0  0  0  0  0  0  0  0  0  0  0
   -4.7118    1.3055    4.2699 C   0  0  0  0  0  0  0  0  0  0  0  0
   -5.0818    0.6263    3.1217 C   0  0  0  0  0  0  0  0  0  0  0  0
   -6.3773    0.6312    2.7153 O   0  0  0  0  0  0  0  0  0  0  0  0
   -3.0259    1.9765    5.8038 O   0  0  0  0  0  0  0  0  0  0  0  0
   -1.6451    1.9343    6.1695 C   0  0  0  0  0  0  0  0  0  0  0  0
   -2.6556    0.3251   -0.1162 C   0  0  0  0  0  0  0  0  0  0  0  0
   -2.8655    1.6961    0.0267 C   0  0  0  0  0  0  0  0  0  0  0  0
   -1.7989    2.5678   -0.0445 C   0  0  0  0  0  0  0  0  0  0  0  0
   -0.5137    2.0849   -0.2507 C   0  0  0  0  0  0  0  0  0  0  0  0
   -0.2980    0.7180   -0.3917 C   0  0  0  0  0  0  0  0  0  0  0  0
   -1.3663   -0.1608   -0.3257 C   0  0  0  0  0  0  0  0  0  0  0  0
    0.9558    0.2277   -0.5940 O   0  0  0  0  0  0  0  0  0  0  0  0
    1.9496    1.1622   -1.0285 C   0  0  0  0  0  0  0  0  0  0  0  0
    1.8390    2.4204   -0.1567 C   0  0  0  0  0  0  0  0  0  0  0  0
    0.5243    2.9634   -0.3179 O   0  0  0  0  0  0  0  0  0  0  0  0
   -2.6857   -1.8784   -2.5547 H   0  0  0  0  0  0  0  0  0  0  0  0
   -4.2005   -1.3202   -3.3044 H   0  0  0  0  0  0  0  0  0  0  0  0
   -3.0944   -0.1460   -2.5519 H   0  0  0  0  0  0  0  0  0  0  0  0
   -7.4249   -3.3198    0.9750 H   0  0  0  0  0  0  0  0  0  0  0  0
   -7.2140   -3.6837   -0.6516 H   0  0  0  0  0  0  0  0  0  0  0  0
   -2.0382   -0.5991    2.2364 H   0  0  0  0  0  0  0  0  0  0  0  0
   -1.3972    0.6199    4.2700 H   0  0  0  0  0  0  0  0  0  0  0  0
   -5.4541    1.8406    4.8435 H   0  0  0  0  0  0  0  0  0  0  0  0
   -6.9067   -0.0911    3.0802 H   0  0  0  0  0  0  0  0  0  0  0  0
   -1.3453    0.9000    6.3380 H   0  0  0  0  0  0  0  0  0  0  0  0
   -1.0435    2.3609    5.3669 H   0  0  0  0  0  0  0  0  0  0  0  0
   -1.4934    2.5100    7.0826 H   0  0  0  0  0  0  0  0  0  0  0  0
   -3.8633    2.0756    0.1900 H   0  0  0  0  0  0  0  0  0  0  0  0
   -1.9633    3.6293    0.0671 H   0  0  0  0  0  0  0  0  0  0  0  0
   -1.2003   -1.2222   -0.4369 H   0  0  0  0  0  0  0  0  0  0  0  0
    2.9410    0.7232   -0.9164 H   0  0  0  0  0  0  0  0  0  0  0  0
    1.7785    1.4217   -2.0732 H   0  0  0  0  0  0  0  0  0  0  0  0
    2.0030    2.1589    0.8887 H   0  0  0  0  0  0  0  0  0  0  0  0
    2.5809    3.1535   -0.4735 H   0  0  0  0  0  0  0  0  0  0  0  0
  1  2  1  0  0  0  0
  1 28  1  0  0  0  0
  1 29  1  0  0  0  0
  1 30  1  0  0  0  0
  2  7  2  0  0  0  0
  2  3  1  0  0  0  0
  3  4  2  0  0  0  0
  3 18  1  0  0  0  0
  4  5  1  0  0  0  0
  4  9  1  0  0  0  0
  5  6  2  0  0  0  0
  6  7  1  0  0  0  0
  6  8  1  0  0  0  0
  8 31  1  0  0  0  0
  8 32  1  0  0  0  0
  9 14  2  0  0  0  0
  9 10  1  0  0  0  0
 10 11  2  0  0  0  0
 10 33  1  0  0  0  0
 11 12  1  0  0  0  0
 11 34  1  0  0  0  0
 12 13  2  0  0  0  0
 12 16  1  0  0  0  0
 13 14  1  0  0  0  0
 13 35  1  0  0  0  0
 14 15  1  0  0  0  0
 15 36  1  0  0  0  0
 16 17  1  0  0  0  0
 17 37  1  0  0  0  0
 17 38  1  0  0  0  0
 17 39  1  0  0  0  0
 18 23  2  0  0  0  0
 18 19  1  0  0  0  0
 19 20  2  0  0  0  0
 19 40  1  0  0  0  0
 20 21  1  0  0  0  0
 20 41  1  0  0  0  0
 21 27  1  0  0  0  0
 21 22  2  0  0  0  0
 22 23  1  0  0  0  0
 22 24  1  0  0  0  0
 23 42  1  0  0  0  0
 24 25  1  0  0  0  0
 25 26  1  0  0  0  0
 25 43  1  0  0  0  0
 25 44  1  0  0  0  0
 26 27  1  0  0  0  0
 26 45  1  0  0  0  0
 26 46  1  0  0  0  0
M  END
$$$$
ZINC00939014
  -OEChem-08230709453D

 49 52  0     0  0  0  0  0  0999 V2000
   -3.8212   -5.3807    2.1380 C   0  0  0  0  0  0  0  0  0  0  0  0
   -2.4167   -4.7788    2.0605 C   0  0  0  0  0  0  0  0  0  0  0  0
   -2.0111   -4.6176    0.5941 C   0  0  0  0  0  0  0  0  0  0  0  0
   -0.6277   -4.0247    0.5177 C   0  0  0  0  0  0  0  0  0  0  0  0
   -0.4710   -2.6637    0.3694 C   0  0  0  0  0  0  0  0  0  0  0  0
    0.8090   -2.1131    0.2981 C   0  0  0  0  0  0  0  0  0  0  0  0
    1.9309   -2.9487    0.3720 C   0  0  0  0  0  0  0  0  0  0  0  0
    1.7626   -4.3138    0.5263 C   0  0  0  0  0  0  0  0  0  0  0  0
    0.4860   -4.8522    0.5967 C   0  0  0  0  0  0  0  0  0  0  0  0
    0.3240   -6.1927    0.7429 O   0  0  0  0  0  0  0  0  0  0  0  0
    1.5107   -6.9853    0.8175 C   0  0  0  0  0  0  0  0  0  0  0  0
    3.1794   -2.4206    0.2973 O   0  0  0  0  0  0  0  0  0  0  0  0
    0.9807   -0.6527    0.1389 C   0  0  0  0  0  0  0  0  0  0  0  0
    0.2864    0.0455   -0.8696 C   0  0  0  0  0  0  0  0  0  0  0  0
    0.4859    1.4216   -0.9751 C   0  0  0  0  0  0  0  0  0  0  0  0
    1.3123    2.0191   -0.1329 N   0  0  0  0  0  0  0  0  0  0  0  0
    1.9499    1.3325    0.8047 C   0  0  0  0  0  0  0  0  0  0  0  0
    1.7940    0.0256    0.9452 N   0  0  0  0  0  0  0  0  0  0  0  0
    2.8001    2.0034    1.6664 N   0  0  0  0  0  0  0  0  0  0  0  0
   -0.6304   -0.6637   -1.7932 C   0  0  0  0  0  0  0  0  0  0  0  0
   -0.1653   -1.7375   -2.5513 C   0  0  0  0  0  0  0  0  0  0  0  0
   -1.0201   -2.3975   -3.4101 C   0  0  0  0  0  0  0  0  0  0  0  0
   -2.3427   -1.9962   -3.5229 C   0  0  0  0  0  0  0  0  0  0  0  0
   -2.8130   -0.9231   -2.7678 C   0  0  0  0  0  0  0  0  0  0  0  0
   -1.9611   -0.2621   -1.9014 C   0  0  0  0  0  0  0  0  0  0  0  0
   -4.1332   -0.7310   -3.0581 O   0  0  0  0  0  0  0  0  0  0  0  0
   -4.3604   -1.4308   -4.2957 C   0  0  0  0  0  0  0  0  0  0  0  0
   -3.3692   -2.4751   -4.2853 O   0  0  0  0  0  0  0  0  0  0  0  0
   -3.8260   -6.3556    1.6504 H   0  0  0  0  0  0  0  0  0  0  0  0
   -4.1101   -5.4955    3.1827 H   0  0  0  0  0  0  0  0  0  0  0  0
   -4.5279   -4.7199    1.6360 H   0  0  0  0  0  0  0  0  0  0  0  0
   -1.7100   -5.4396    2.5624 H   0  0  0  0  0  0  0  0  0  0  0  0
   -2.4118   -3.8039    2.5481 H   0  0  0  0  0  0  0  0  0  0  0  0
   -2.7178   -3.9568    0.0921 H   0  0  0  0  0  0  0  0  0  0  0  0
   -2.0160   -5.5924    0.1065 H   0  0  0  0  0  0  0  0  0  0  0  0
   -1.3386   -2.0234    0.3087 H   0  0  0  0  0  0  0  0  0  0  0  0
    2.6254   -4.9605    0.5878 H   0  0  0  0  0  0  0  0  0  0  0  0
    2.0905   -6.8583   -0.0968 H   0  0  0  0  0  0  0  0  0  0  0  0
    2.1069   -6.6673    1.6728 H   0  0  0  0  0  0  0  0  0  0  0  0
    1.2401   -8.0348    0.9333 H   0  0  0  0  0  0  0  0  0  0  0  0
    3.5842   -2.2447    1.1577 H   0  0  0  0  0  0  0  0  0  0  0  0
   -0.0275    1.9921   -1.7350 H   0  0  0  0  0  0  0  0  0  0  0  0
    3.2709    1.5159    2.3603 H   0  0  0  0  0  0  0  0  0  0  0  0
    2.9250    2.9611    1.5765 H   0  0  0  0  0  0  0  0  0  0  0  0
    0.8641   -2.0528   -2.4660 H   0  0  0  0  0  0  0  0  0  0  0  0
   -0.6579   -3.2290   -3.9965 H   0  0  0  0  0  0  0  0  0  0  0  0
   -2.3254    0.5664   -1.3121 H   0  0  0  0  0  0  0  0  0  0  0  0
   -4.2070   -0.7657   -5.1455 H   0  0  0  0  0  0  0  0  0  0  0  0
   -5.3640   -1.8556   -4.3167 H   0  0  0  0  0  0  0  0  0  0  0  0
  1  2  1  0  0  0  0
  1 29  1  0  0  0  0
  1 30  1  0  0  0  0
  1 31  1  0  0  0  0
  2  3  1  0  0  0  0
  2 32  1  0  0  0  0
  2 33  1  0  0  0  0
  3  4  1  0  0  0  0
  3 34  1  0  0  0  0
  3 35  1  0  0  0  0
  4  9  2  0  0  0  0
  4  5  1  0  0  0  0
  5  6  2  0  0  0  0
  5 36  1  0  0  0  0
  6  7  1  0  0  0  0
  6 13  1  0  0  0  0
  7  8  2  0  0  0  0
  7 12  1  0  0  0  0
  8  9  1  0  0  0  0
  8 37  1  0  0  0  0
  9 10  1  0  0  0  0
 10 11  1  0  0  0  0
 11 38  1  0  0  0  0
 11 39  1  0  0  0  0
 11 40  1  0  0  0  0
 12 41  1  0  0  0  0
 13 18  2  0  0  0  0
 13 14  1  0  0  0  0
 14 15  2  0  0  0  0
 14 20  1  0  0  0  0
 15 16  1  0  0  0  0
 15 42  1  0  0  0  0
 16 17  2  0  0  0  0
 17 18  1  0  0  0  0
 17 19  1  0  0  0  0
 19 43  1  0  0  0  0
 19 44  1  0  0  0  0
 20 25  2  0  0  0  0
 20 21  1  0  0  0  0
 21 22  2  0  0  0  0
 21 45  1  0  0  0  0
 22 23  1  0  0  0  0
 22 46  1  0  0  0  0
 23 28  1  0  0  0  0
 23 24  2  0  0  0  0
 24 25  1  0  0  0  0
 24 26  1  0  0  0  0
 25 47  1  0  0  0  0
 26 27  1  0  0  0  0
 27 28  1  0  0  0  0
 27 48  1  0  0  0  0
 27 49  1  0  0  0  0
M  END
$$$$
ZINC00970022
  -OEChem-08230709453D

 45 47  0     1  0  0  0  0  0999 V2000
   10.4779   -5.3060    4.5321 C   0  0  0  0  0  0  0  0  0  0  0  0
   10.6718   -3.8934    4.4372 O   0  0  0  0  0  0  0  0  0  0  0  0
    9.5591   -3.1133    4.4800 C   0  0  0  0  0  0  0  0  0  0  0  0
    9.6757   -1.7337    4.3929 C   0  0  0  0  0  0  0  0  0  0  0  0
    8.5458   -0.9410    4.4364 C   0  0  0  0  0  0  0  0  0  0  0  0
    7.2933   -1.5249    4.5672 C   0  0  0  0  0  0  0  0  0  0  0  0
    7.1775   -2.9051    4.6596 C   0  0  0  0  0  0  0  0  0  0  0  0
    8.3075   -3.6973    4.6103 C   0  0  0  0  0  0  0  0  0  0  0  0
    6.1447   -0.7196    4.6119 N   0  0  0  0  0  0  0  0  0  0  0  0
    5.5150   -0.4124    3.4580 C   0  0  0  0  0  0  0  0  0  0  0  0
    5.9239   -0.8184    2.3913 O   0  0  0  0  0  0  0  0  0  0  0  0
    4.2770    0.4600    3.5455 C   0  0  2  0  0  0  0  0  0  0  0  0
    4.4482    1.3529    2.9442 H   0  0  0  0  0  0  0  0  0  0  0  0
    3.8669    0.9043    4.9368 C   0  0  0  0  0  0  0  0  0  0  0  0
    2.8922    1.6037    5.1116 O   0  0  0  0  0  0  0  0  0  0  0  0
    4.6277    0.4922    5.9730 N   0  0  0  0  0  0  0  0  0  0  0  0
    5.7063   -0.2797    5.7969 C   0  0  0  0  0  0  0  0  0  0  0  0
    6.3336   -0.6045    6.7853 O   0  0  0  0  0  0  0  0  0  0  0  0
    3.1078   -0.3093    2.9274 C   0  0  0  0  0  0  0  0  0  0  0  0
    1.8892    0.5763    2.8868 C   0  0  0  0  0  0  0  0  0  0  0  0
    1.0123    0.5923    3.9556 C   0  0  0  0  0  0  0  0  0  0  0  0
   -0.1072    1.4026    3.9230 C   0  0  0  0  0  0  0  0  0  0  0  0
   -0.3494    2.2055    2.8199 C   0  0  0  0  0  0  0  0  0  0  0  0
    0.5301    2.1852    1.7418 C   0  0  0  0  0  0  0  0  0  0  0  0
    1.6504    1.3706    1.7809 C   0  0  0  0  0  0  0  0  0  0  0  0
    0.2937    2.9671    0.6546 O   0  0  0  0  0  0  0  0  0  0  0  0
    1.2423    2.8992   -0.4120 C   0  0  0  0  0  0  0  0  0  0  0  0
   -1.4473    3.0075    2.7886 O   0  0  0  0  0  0  0  0  0  0  0  0
   11.4436   -5.8093    4.4852 H   0  0  0  0  0  0  0  0  0  0  0  0
    9.9902   -5.5430    5.4777 H   0  0  0  0  0  0  0  0  0  0  0  0
    9.8518   -5.6431    3.7060 H   0  0  0  0  0  0  0  0  0  0  0  0
   10.6503   -1.2795    4.2915 H   0  0  0  0  0  0  0  0  0  0  0  0
    8.6366    0.1330    4.3682 H   0  0  0  0  0  0  0  0  0  0  0  0
    6.2035   -3.3595    4.7655 H   0  0  0  0  0  0  0  0  0  0  0  0
    8.2172   -4.7714    4.6777 H   0  0  0  0  0  0  0  0  0  0  0  0
    4.3853    0.7639    6.8720 H   0  0  0  0  0  0  0  0  0  0  0  0
    2.8952   -1.1926    3.5296 H   0  0  0  0  0  0  0  0  0  0  0  0
    3.3690   -0.6147    1.9141 H   0  0  0  0  0  0  0  0  0  0  0  0
    1.2025   -0.0294    4.8179 H   0  0  0  0  0  0  0  0  0  0  0  0
   -0.7907    1.4133    4.7591 H   0  0  0  0  0  0  0  0  0  0  0  0
    2.3368    1.3560    0.9472 H   0  0  0  0  0  0  0  0  0  0  0  0
    1.2909    1.8782   -0.7906 H   0  0  0  0  0  0  0  0  0  0  0  0
    2.2242    3.1976   -0.0446 H   0  0  0  0  0  0  0  0  0  0  0  0
    0.9354    3.5700   -1.2145 H   0  0  0  0  0  0  0  0  0  0  0  0
   -2.2316    2.5861    2.4112 H   0  0  0  0  0  0  0  0  0  0  0  0
  1  2  1  0  0  0  0
  1 29  1  0  0  0  0
  1 30  1  0  0  0  0
  1 31  1  0  0  0  0
  2  3  1  0  0  0  0
  3  8  2  0  0  0  0
  3  4  1  0  0  0  0
  4  5  2  0  0  0  0
  4 32  1  0  0  0  0
  5  6  1  0  0  0  0
  5 33  1  0  0  0  0
  6  7  2  0  0  0  0
  6  9  1  0  0  0  0
  7  8  1  0  0  0  0
  7 34  1  0  0  0  0
  8 35  1  0  0  0  0
  9 17  1  0  0  0  0
  9 10  1  0  0  0  0
 10 11  2  0  0  0  0
 10 12  1  0  0  0  0
 12 13  1  0  0  0  0
 12 14  1  0  0  0  0
 12 19  1  0  0  0  0
 14 15  2  0  0  0  0
 14 16  1  0  0  0  0
 16 17  1  0  0  0  0
 16 36  1  0  0  0  0
 17 18  2  0  0  0  0
 19 20  1  0  0  0  0
 19 37  1  0  0  0  0
 19 38  1  0  0  0  0
 20 25  2  0  0  0  0
 20 21  1  0  0  0  0
 21 22  2  0  0  0  0
 21 39  1  0  0  0  0
 22 23  1  0  0  0  0
 22 40  1  0  0  0  0
 23 24  2  0  0  0  0
 23 28  1  0  0  0  0
 24 25  1  0  0  0  0
 24 26  1  0  0  0  0
 25 41  1  0  0  0  0
 26 27  1  0  0  0  0
 27 42  1  0  0  0  0
 27 43  1  0  0  0  0
 27 44  1  0  0  0  0
 28 45  1  0  0  0  0
M  END
$$$$
ZINC00976804
  -OEChem-08230709453D

 43 46  0     0  0  0  0  0  0999 V2000
  -10.1887    1.3549   -8.5099 C   0  0  0  0  0  0  0  0  0  0  0  0
   -8.8489    0.9936   -8.8511 O   0  0  0  0  0  0  0  0  0  0  0  0
   -7.9778    0.8184   -7.8253 C   0  0  0  0  0  0  0  0  0  0  0  0
   -6.6592    0.4663   -8.0882 C   0  0  0  0  0  0  0  0  0  0  0  0
   -5.7722    0.2876   -7.0501 C   0  0  0  0  0  0  0  0  0  0  0  0
   -6.1994    0.4612   -5.7310 C   0  0  0  0  0  0  0  0  0  0  0  0
   -7.5271    0.8104   -5.4707 C   0  0  0  0  0  0  0  0  0  0  0  0
   -8.4066    0.9920   -6.5146 C   0  0  0  0  0  0  0  0  0  0  0  0
   -5.2521    0.2701   -4.6153 C   0  0  0  0  0  0  0  0  0  0  0  0
   -4.0984   -0.0387   -4.8434 O   0  0  0  0  0  0  0  0  0  0  0  0
   -5.6659    0.4380   -3.3437 N   0  0  0  0  0  0  0  0  0  0  0  0
   -4.7668    0.2566   -2.2847 N   0  0  0  0  0  0  0  0  0  0  0  0
   -5.1916    0.4289   -0.9796 C   0  0  0  0  0  0  0  0  0  0  0  0
   -4.2754    0.5997    0.0982 C   0  0  0  0  0  0  0  0  0  0  0  0
   -2.8241    0.6220    0.0217 C   0  0  0  0  0  0  0  0  0  0  0  0
   -2.1579    0.7981    1.1855 C   0  0  0  0  0  0  0  0  0  0  0  0
   -3.4176    0.9428    2.4283 S   0  0  0  0  0  0  0  0  0  0  0  0
   -4.8329    0.7667    1.3910 C   0  0  0  0  0  0  0  0  0  0  0  0
   -6.1300    0.7699    1.6259 N   0  0  0  0  0  0  0  0  0  0  0  0
   -6.9281    0.6060    0.5777 C   0  0  0  0  0  0  0  0  0  0  0  0
   -6.4821    0.4450   -0.6521 N   0  0  0  0  0  0  0  0  0  0  0  0
   -0.6705    0.8569    1.3838 C   0  0  0  0  0  0  0  0  0  0  0  0
    0.0061    0.3181    0.1155 C   0  0  0  0  0  0  0  0  0  0  0  0
   -0.6374    0.9810   -1.1060 C   0  0  0  0  0  0  0  0  0  0  0  0
   -2.0616    0.4571   -1.2905 C   0  0  0  0  0  0  0  0  0  0  0  0
  -10.1830    2.2995   -7.9660 H   0  0  0  0  0  0  0  0  0  0  0  0
  -10.7787    1.4633   -9.4200 H   0  0  0  0  0  0  0  0  0  0  0  0
  -10.6264    0.5776   -7.8836 H   0  0  0  0  0  0  0  0  0  0  0  0
   -6.3298    0.3324   -9.1080 H   0  0  0  0  0  0  0  0  0  0  0  0
   -4.7478    0.0140   -7.2552 H   0  0  0  0  0  0  0  0  0  0  0  0
   -7.8621    0.9411   -4.4523 H   0  0  0  0  0  0  0  0  0  0  0  0
   -9.4320    1.2656   -6.3143 H   0  0  0  0  0  0  0  0  0  0  0  0
   -6.5863    0.6843   -3.1617 H   0  0  0  0  0  0  0  0  0  0  0  0
   -3.8464    0.0102   -2.4667 H   0  0  0  0  0  0  0  0  0  0  0  0
   -7.9957    0.6042    0.7409 H   0  0  0  0  0  0  0  0  0  0  0  0
   -0.3867    0.2437    2.2391 H   0  0  0  0  0  0  0  0  0  0  0  0
   -0.3641    1.8894    1.5520 H   0  0  0  0  0  0  0  0  0  0  0  0
   -0.1292   -0.7620    0.0593 H   0  0  0  0  0  0  0  0  0  0  0  0
    1.0703    0.5526    0.1408 H   0  0  0  0  0  0  0  0  0  0  0  0
   -0.6648    2.0608   -0.9598 H   0  0  0  0  0  0  0  0  0  0  0  0
   -0.0492    0.7517   -1.9946 H   0  0  0  0  0  0  0  0  0  0  0  0
   -2.5604    1.0247   -2.0761 H   0  0  0  0  0  0  0  0  0  0  0  0
   -2.0299   -0.5971   -1.5659 H   0  0  0  0  0  0  0  0  0  0  0  0
  1  2  1  0  0  0  0
  1 26  1  0  0  0  0
  1 27  1  0  0  0  0
  1 28  1  0  0  0  0
  2  3  1  0  0  0  0
  3  8  2  0  0  0  0
  3  4  1  0  0  0  0
  4  5  2  0  0  0  0
  4 29  1  0  0  0  0
  5  6  1  0  0  0  0
  5 30  1  0  0  0  0
  6  7  2  0  0  0  0
  6  9  1  0  0  0  0
  7  8  1  0  0  0  0
  7 31  1  0  0  0  0
  8 32  1  0  0  0  0
  9 10  2  0  0  0  0
  9 11  1  0  0  0  0
 11 12  1  0  0  0  0
 11 33  1  0  0  0  0
 12 13  1  0  0  0  0
 12 34  1  0  0  0  0
 13 21  2  0  0  0  0
 13 14  1  0  0  0  0
 14 18  2  0  0  0  0
 14 15  1  0  0  0  0
 15 25  1  0  0  0  0
 15 16  2  0  0  0  0
 16 17  1  0  0  0  0
 16 22  1  0  0  0  0
 17 18  1  0  0  0  0
 18 19  1  0  0  0  0
 19 20  2  0  0  0  0
 20 21  1  0  0  0  0
 20 35  1  0  0  0  0
 22 23  1  0  0  0  0
 22 36  1  0  0  0  0
 22 37  1  0  0  0  0
 23 24  1  0  0  0  0
 23 38  1  0  0  0  0
 23 39  1  0  0  0  0
 24 25  1  0  0  0  0
 24 40  1  0  0  0  0
 24 41  1  0  0  0  0
 25 42  1  0  0  0  0
 25 43  1  0  0  0  0
M  END
$$$$
ZINC00995024
  -OEChem-08230709453D

 50 53  0     0  0  0  0  0  0999 V2000
   -0.3501    0.6367   10.1198 C   0  0  0  0  0  0  0  0  0  0  0  0
   -0.0497    0.3311   11.4290 C   0  0  0  0  0  0  0  0  0  0  0  0
   -0.8641    0.7852   12.4578 C   0  0  0  0  0  0  0  0  0  0  0  0
   -1.9929    1.5548   12.1696 C   0  0  0  0  0  0  0  0  0  0  0  0
   -2.2979    1.8697   10.8607 C   0  0  0  0  0  0  0  0  0  0  0  0
   -1.4796    1.4074    9.8232 C   0  0  0  0  0  0  0  0  0  0  0  0
   -1.8026    1.7355    8.4273 C   0  0  0  0  0  0  0  0  0  0  0  0
   -1.0086    1.2931    7.4287 C   0  0  0  0  0  0  0  0  0  0  0  0
   -1.3298    1.6195    6.0405 C   0  0  0  0  0  0  0  0  0  0  0  0
   -2.3130    2.2901    5.7847 O   0  0  0  0  0  0  0  0  0  0  0  0
   -0.5374    1.1779    5.0437 N   0  0  0  0  0  0  0  0  0  0  0  0
   -0.8417    1.4871    3.7285 C   0  0  0  0  0  0  0  0  0  0  0  0
   -0.1596    1.1308    2.5803 C   0  0  0  0  0  0  0  0  0  0  0  0
   -0.7009    1.5653    1.2867 C   0  0  0  0  0  0  0  0  0  0  0  0
   -1.7880    2.3450    1.3888 C   0  0  0  0  0  0  0  0  0  0  0  0
   -2.1645    2.4144    3.1219 S   0  0  0  0  0  0  0  0  0  0  0  0
   -2.5519    3.0395    0.2965 C   0  0  0  0  0  0  0  0  0  0  0  0
   -1.7687    4.3198   -0.0450 C   0  0  0  0  0  0  0  0  0  0  0  0
   -0.3192    3.9267   -0.3583 C   0  0  0  0  0  0  0  0  0  0  0  0
   -0.3999    3.0256   -1.5715 C   0  0  0  0  0  0  0  0  0  0  0  0
   -0.7225    1.5771   -1.2474 C   0  0  0  0  0  0  0  0  0  0  0  0
   -0.0127    1.0858    0.0080 C   0  0  0  0  0  0  0  0  0  0  0  0
    1.0727    0.3401    2.6524 C   0  0  0  0  0  0  0  0  0  0  0  0
    2.1500    0.8991    2.7436 O   0  0  0  0  0  0  0  0  0  0  0  0
    1.0127   -1.0059    2.6178 N   0  0  0  0  0  0  0  0  0  0  0  0
   -2.6155    1.8705   13.3431 O   0  0  0  0  0  0  0  0  0  0  0  0
   -1.6363    1.6358   14.3722 C   0  0  0  0  0  0  0  0  0  0  0  0
   -0.7837    0.6214   13.8095 O   0  0  0  0  0  0  0  0  0  0  0  0
    0.2859    0.2812    9.3225 H   0  0  0  0  0  0  0  0  0  0  0  0
    0.8228   -0.2636   11.6561 H   0  0  0  0  0  0  0  0  0  0  0  0
   -3.1686    2.4684   10.6371 H   0  0  0  0  0  0  0  0  0  0  0  0
   -2.6748    2.3305    8.2004 H   0  0  0  0  0  0  0  0  0  0  0  0
   -0.1363    0.6981    7.6556 H   0  0  0  0  0  0  0  0  0  0  0  0
    0.2461    0.6435    5.2475 H   0  0  0  0  0  0  0  0  0  0  0  0
   -3.5520    3.2960    0.6458 H   0  0  0  0  0  0  0  0  0  0  0  0
   -2.6172    2.3969   -0.5815 H   0  0  0  0  0  0  0  0  0  0  0  0
   -1.7892    5.0011    0.8056 H   0  0  0  0  0  0  0  0  0  0  0  0
   -2.2147    4.8028   -0.9144 H   0  0  0  0  0  0  0  0  0  0  0  0
    0.1159    3.3879    0.4835 H   0  0  0  0  0  0  0  0  0  0  0  0
    0.2715    4.8139   -0.5860 H   0  0  0  0  0  0  0  0  0  0  0  0
    0.5564    3.0597   -2.0933 H   0  0  0  0  0  0  0  0  0  0  0  0
   -1.1699    3.4115   -2.2396 H   0  0  0  0  0  0  0  0  0  0  0  0
   -0.4226    0.9526   -2.0889 H   0  0  0  0  0  0  0  0  0  0  0  0
   -1.7988    1.4810   -1.1040 H   0  0  0  0  0  0  0  0  0  0  0  0
    0.0021   -0.0041    0.0020 H   0  0  0  0  0  0  0  0  0  0  0  0
    1.0136    1.4528    0.0002 H   0  0  0  0  0  0  0  0  0  0  0  0
    0.1541   -1.4514    2.5451 H   0  0  0  0  0  0  0  0  0  0  0  0
    1.8281   -1.5291    2.6655 H   0  0  0  0  0  0  0  0  0  0  0  0
   -1.0686    2.5440   14.5748 H   0  0  0  0  0  0  0  0  0  0  0  0
   -2.1158    1.2721   15.2810 H   0  0  0  0  0  0  0  0  0  0  0  0
  1  6  2  0  0  0  0
  1  2  1  0  0  0  0
  1 29  1  0  0  0  0
  2  3  2  0  0  0  0
  2 30  1  0  0  0  0
  3 28  1  0  0  0  0
  3  4  1  0  0  0  0
  4  5  2  0  0  0  0
  4 26  1  0  0  0  0
  5  6  1  0  0  0  0
  5 31  1  0  0  0  0
  6  7  1  0  0  0  0
  7  8  2  0  0  0  0
  7 32  1  0  0  0  0
  8  9  1  0  0  0  0
  8 33  1  0  0  0  0
  9 10  2  0  0  0  0
  9 11  1  0  0  0  0
 11 12  1  0  0  0  0
 11 34  1  0  0  0  0
 12 16  1  0  0  0  0
 12 13  2  0  0  0  0
 13 14  1  0  0  0  0
 13 23  1  0  0  0  0
 14 22  1  0  0  0  0
 14 15  2  0  0  0  0
 15 16  1  0  0  0  0
 15 17  1  0  0  0  0
 17 18  1  0  0  0  0
 17 35  1  0  0  0  0
 17 36  1  0  0  0  0
 18 19  1  0  0  0  0
 18 37  1  0  0  0  0
 18 38  1  0  0  0  0
 19 20  1  0  0  0  0
 19 39  1  0  0  0  0
 19 40  1  0  0  0  0
 20 21  1  0  0  0  0
 20 41  1  0  0  0  0
 20 42  1  0  0  0  0
 21 22  1  0  0  0  0
 21 43  1  0  0  0  0
 21 44  1  0  0  0  0
 22 45  1  0  0  0  0
 22 46  1  0  0  0  0
 23 24  2  0  0  0  0
 23 25  1  0  0  0  0
 25 47  1  0  0  0  0
 25 48  1  0  0  0  0
 26 27  1  0  0  0  0
 27 28  1  0  0  0  0
 27 49  1  0  0  0  0
 27 50  1  0  0  0  0
M  END
$$$$
ZINC00995909
  -OEChem-08230709453D

 43 44  0     0  0  0  0  0  0999 V2000
   -9.4912    3.0706    0.0628 C   0  0  0  0  0  0  0  0  0  0  0  0
   -8.7259    4.3954    0.0661 C   0  0  0  0  0  0  0  0  0  0  0  0
   -7.3210    4.1340    0.0588 O   0  0  0  0  0  0  0  0  0  0  0  0
   -6.4988    5.2038    0.0605 C   0  0  0  0  0  0  0  0  0  0  0  0
   -6.9635    6.3281    0.0682 O   0  0  0  0  0  0  0  0  0  0  0  0
   -5.0494    5.0119    0.0533 C   0  0  0  0  0  0  0  0  0  0  0  0
   -4.0608    5.9600    0.0537 C   0  0  0  0  0  0  0  0  0  0  0  0
   -2.7472    5.5197    0.0451 C   0  0  0  0  0  0  0  0  0  0  0  0
   -2.5229    4.1390    0.0365 C   0  0  0  0  0  0  0  0  0  0  0  0
   -4.1283    3.4856    0.0330 S   0  0  0  0  0  0  0  0  0  0  0  0
   -1.3195    3.4634    0.0271 N   0  0  0  0  0  0  0  0  0  0  0  0
   -1.3033    2.1157    0.0197 C   0  0  0  0  0  0  0  0  0  0  0  0
   -2.3488    1.4952    0.0213 O   0  0  0  0  0  0  0  0  0  0  0  0
   -0.0169    1.3934    0.0097 C   0  0  0  0  0  0  0  0  0  0  0  0
    1.1861    2.1049    0.0020 C   0  0  0  0  0  0  0  0  0  0  0  0
    2.3845    1.4270   -0.0130 C   0  0  0  0  0  0  0  0  0  0  0  0
    2.3990    0.0371   -0.0211 C   0  0  0  0  0  0  0  0  0  0  0  0
    1.2048   -0.6743   -0.0131 C   0  0  0  0  0  0  0  0  0  0  0  0
    0.0021   -0.0041    0.0020 C   0  0  0  0  0  0  0  0  0  0  0  0
    3.5822   -0.6273   -0.0364 O   0  0  0  0  0  0  0  0  0  0  0  0
    4.7712    0.1654   -0.0440 C   0  0  0  0  0  0  0  0  0  0  0  0
   -1.6277    6.4708    0.0454 C   0  0  0  0  0  0  0  0  0  0  0  0
   -1.1690    6.8708   -1.0082 O   0  0  0  0  0  0  0  0  0  0  0  0
   -1.1087    6.9003    1.2127 N   0  0  0  0  0  0  0  0  0  0  0  0
   -4.3905    7.4305    0.0638 C   0  0  0  0  0  0  0  0  0  0  0  0
   -9.2319    2.5034   -0.8311 H   0  0  0  0  0  0  0  0  0  0  0  0
   -9.2242    2.4945    0.9488 H   0  0  0  0  0  0  0  0  0  0  0  0
  -10.5628    3.2700    0.0685 H   0  0  0  0  0  0  0  0  0  0  0  0
   -8.9852    4.9626    0.9601 H   0  0  0  0  0  0  0  0  0  0  0  0
   -8.9929    4.9715   -0.8198 H   0  0  0  0  0  0  0  0  0  0  0  0
   -0.4853    3.9584    0.0259 H   0  0  0  0  0  0  0  0  0  0  0  0
    1.1758    3.1848    0.0076 H   0  0  0  0  0  0  0  0  0  0  0  0
    3.3146    1.9760   -0.0190 H   0  0  0  0  0  0  0  0  0  0  0  0
    1.2203   -1.7542   -0.0190 H   0  0  0  0  0  0  0  0  0  0  0  0
   -0.9253   -0.5575    0.0083 H   0  0  0  0  0  0  0  0  0  0  0  0
    4.7797    0.7992   -0.9307 H   0  0  0  0  0  0  0  0  0  0  0  0
    4.7974    0.7897    0.8491 H   0  0  0  0  0  0  0  0  0  0  0  0
    5.6435   -0.4881   -0.0561 H   0  0  0  0  0  0  0  0  0  0  0  0
   -1.4744    6.5814    2.0526 H   0  0  0  0  0  0  0  0  0  0  0  0
   -0.3695    7.5283    1.2129 H   0  0  0  0  0  0  0  0  0  0  0  0
   -4.4748    7.7910   -0.9614 H   0  0  0  0  0  0  0  0  0  0  0  0
   -5.3360    7.5873    0.5829 H   0  0  0  0  0  0  0  0  0  0  0  0
   -3.5992    7.9767    0.5771 H   0  0  0  0  0  0  0  0  0  0  0  0
  1  2  1  0  0  0  0
  1 26  1  0  0  0  0
  1 27  1  0  0  0  0
  1 28  1  0  0  0  0
  2  3  1  0  0  0  0
  2 29  1  0  0  0  0
  2 30  1  0  0  0  0
  3  4  1  0  0  0  0
  4  5  2  0  0  0  0
  4  6  1  0  0  0  0
  6 10  1  0  0  0  0
  6  7  2  0  0  0  0
  7  8  1  0  0  0  0
  7 25  1  0  0  0  0
  8  9  2  0  0  0  0
  8 22  1  0  0  0  0
  9 10  1  0  0  0  0
  9 11  1  0  0  0  0
 11 12  1  0  0  0  0
 11 31  1  0  0  0  0
 12 13  2  0  0  0  0
 12 14  1  0  0  0  0
 14 19  2  0  0  0  0
 14 15  1  0  0  0  0
 15 16  2  0  0  0  0
 15 32  1  0  0  0  0
 16 17  1  0  0  0  0
 16 33  1  0  0  0  0
 17 18  2  0  0  0  0
 17 20  1  0  0  0  0
 18 19  1  0  0  0  0
 18 34  1  0  0  0  0
 19 35  1  0  0  0  0
 20 21  1  0  0  0  0
 21 36  1  0  0  0  0
 21 37  1  0  0  0  0
 21 38  1  0  0  0  0
 22 23  2  0  0  0  0
 22 24  1  0  0  0  0
 24 39  1  0  0  0  0
 24 40  1  0  0  0  0
 25 41  1  0  0  0  0
 25 42  1  0  0  0  0
 25 43  1  0  0  0  0
M  END
$$$$
ZINC00996309
  -OEChem-08230709453D

 45 47  0     0  0  0  0  0  0999 V2000
   -6.4351   -3.4662    3.4848 C   0  0  0  0  0  0  0  0  0  0  0  0
   -5.2546   -4.3582    3.0954 C   0  0  0  0  0  0  0  0  0  0  0  0
   -4.4697   -3.6988    1.9908 C   0  0  0  0  0  0  0  0  0  0  0  0
   -4.7601   -3.9196    0.6961 C   0  0  0  0  0  0  0  0  0  0  0  0
   -3.5669   -2.9193   -0.1680 S   0  0  0  0  0  0  0  0  0  0  0  0
   -2.7169   -2.2503    1.1842 C   0  0  0  0  0  0  0  0  0  0  0  0
   -3.3738   -2.8038    2.2772 C   0  0  0  0  0  0  0  0  0  0  0  0
   -2.9731   -2.4943    3.6530 C   0  0  0  0  0  0  0  0  0  0  0  0
   -3.4753   -1.5509    4.2355 O   0  0  0  0  0  0  0  0  0  0  0  0
   -2.0486   -3.2543    4.2727 N   0  0  0  0  0  0  0  0  0  0  0  0
   -1.6457   -1.3715    1.1783 N   0  0  0  0  0  0  0  0  0  0  0  0
   -1.1363   -0.9379    0.0083 C   0  0  0  0  0  0  0  0  0  0  0  0
   -1.6169   -1.3179   -1.0424 O   0  0  0  0  0  0  0  0  0  0  0  0
    0.0021   -0.0041    0.0020 C   0  0  0  0  0  0  0  0  0  0  0  0
    1.3441   -0.2907   -0.0123 C   0  0  0  0  0  0  0  0  0  0  0  0
    1.9833    0.8813   -0.0121 O   0  0  0  0  0  0  0  0  0  0  0  0
    1.2407    1.8321    0.0001 N   0  0  0  0  0  0  0  0  0  0  0  0
   -0.0180    1.4738    0.0101 C   0  0  0  0  0  0  0  0  0  0  0  0
   -1.2077    2.3595    0.0209 C   0  0  0  0  0  0  0  0  0  0  0  0
   -2.3599    1.9916   -0.6715 C   0  0  0  0  0  0  0  0  0  0  0  0
   -3.4659    2.8169   -0.6532 C   0  0  0  0  0  0  0  0  0  0  0  0
   -3.4284    4.0127    0.0411 C   0  0  0  0  0  0  0  0  0  0  0  0
   -2.2855    4.3857    0.7253 C   0  0  0  0  0  0  0  0  0  0  0  0
   -1.1756    3.5655    0.7187 C   0  0  0  0  0  0  0  0  0  0  0  0
    1.9730   -1.6601   -0.0257 C   0  0  0  0  0  0  0  0  0  0  0  0
   -5.8400   -4.7966    0.1166 C   0  0  0  0  0  0  0  0  0  0  0  0
   -7.0803   -3.3187    2.6187 H   0  0  0  0  0  0  0  0  0  0  0  0
   -7.0029   -3.9431    4.2838 H   0  0  0  0  0  0  0  0  0  0  0  0
   -6.0632   -2.5012    3.8294 H   0  0  0  0  0  0  0  0  0  0  0  0
   -5.6265   -5.3231    2.7509 H   0  0  0  0  0  0  0  0  0  0  0  0
   -4.6095   -4.5057    3.9615 H   0  0  0  0  0  0  0  0  0  0  0  0
   -1.6484   -4.0061    3.8085 H   0  0  0  0  0  0  0  0  0  0  0  0
   -1.7835   -3.0495    5.1830 H   0  0  0  0  0  0  0  0  0  0  0  0
   -1.2624   -1.0684    2.0162 H   0  0  0  0  0  0  0  0  0  0  0  0
   -2.3886    1.0605   -1.2179 H   0  0  0  0  0  0  0  0  0  0  0  0
   -4.3608    2.5307   -1.1858 H   0  0  0  0  0  0  0  0  0  0  0  0
   -4.2948    4.6575    0.0492 H   0  0  0  0  0  0  0  0  0  0  0  0
   -2.2616    5.3206    1.2655 H   0  0  0  0  0  0  0  0  0  0  0  0
   -0.2839    3.8575    1.2536 H   0  0  0  0  0  0  0  0  0  0  0  0
    2.1148   -1.9848   -1.0565 H   0  0  0  0  0  0  0  0  0  0  0  0
    2.9383   -1.6216    0.4792 H   0  0  0  0  0  0  0  0  0  0  0  0
    1.3208   -2.3645    0.4906 H   0  0  0  0  0  0  0  0  0  0  0  0
   -6.7515   -4.2131   -0.0126 H   0  0  0  0  0  0  0  0  0  0  0  0
   -5.5152   -5.1820   -0.8499 H   0  0  0  0  0  0  0  0  0  0  0  0
   -6.0341   -5.6289    0.7930 H   0  0  0  0  0  0  0  0  0  0  0  0
  1  2  1  0  0  0  0
  1 27  1  0  0  0  0
  1 28  1  0  0  0  0
  1 29  1  0  0  0  0
  2  3  1  0  0  0  0
  2 30  1  0  0  0  0
  2 31  1  0  0  0  0
  3  7  1  0  0  0  0
  3  4  2  0  0  0  0
  4  5  1  0  0  0  0
  4 26  1  0  0  0  0
  5  6  1  0  0  0  0
  6  7  2  0  0  0  0
  6 11  1  0  0  0  0
  7  8  1  0  0  0  0
  8  9  2  0  0  0  0
  8 10  1  0  0  0  0
 10 32  1  0  0  0  0
 10 33  1  0  0  0  0
 11 12  1  0  0  0  0
 11 34  1  0  0  0  0
 12 13  2  0  0  0  0
 12 14  1  0  0  0  0
 14 18  1  0  0  0  0
 14 15  2  0  0  0  0
 15 16  1  0  0  0  0
 15 25  1  0  0  0  0
 16 17  1  0  0  0  0
 17 18  2  0  0  0  0
 18 19  1  0  0  0  0
 19 24  2  0  0  0  0
 19 20  1  0  0  0  0
 20 21  2  0  0  0  0
 20 35  1  0  0  0  0
 21 22  1  0  0  0  0
 21 36  1  0  0  0  0
 22 23  2  0  0  0  0
 22 37  1  0  0  0  0
 23 24  1  0  0  0  0
 23 38  1  0  0  0  0
 24 39  1  0  0  0  0
 25 40  1  0  0  0  0
 25 41  1  0  0  0  0
 25 42  1  0  0  0  0
 26 43  1  0  0  0  0
 26 44  1  0  0  0  0
 26 45  1  0  0  0  0
M  END
$$$$
ZINC00998370
  -OEChem-08230709453D

 41 43  0     0  0  0  0  0  0999 V2000
   -1.5884   -0.2684   -3.0192 C   0  0  0  0  0  0  0  0  0  0  0  0
   -2.5232    0.8499   -2.5538 C   0  0  0  0  0  0  0  0  0  0  0  0
   -3.1033    0.4928   -1.2095 C   0  0  0  0  0  0  0  0  0  0  0  0
   -4.2550   -0.1940   -1.1029 C   0  0  0  0  0  0  0  0  0  0  0  0
   -4.4817   -0.3435    0.6570 S   0  0  0  0  0  0  0  0  0  0  0  0
   -3.0648    0.4889    1.2029 C   0  0  0  0  0  0  0  0  0  0  0  0
   -2.4468    0.8736    0.0184 C   0  0  0  0  0  0  0  0  0  0  0  0
   -1.1873    1.6238    0.0165 C   0  0  0  0  0  0  0  0  0  0  0  0
   -1.2038    2.8408    0.0232 O   0  0  0  0  0  0  0  0  0  0  0  0
   -0.0111    0.9658    0.0074 N   0  0  0  0  0  0  0  0  0  0  0  0
   -2.6489    0.7178    2.5043 N   0  0  0  0  0  0  0  0  0  0  0  0
   -3.3865    0.2642    3.5371 C   0  0  0  0  0  0  0  0  0  0  0  0
   -4.4173   -0.3462    3.3265 O   0  0  0  0  0  0  0  0  0  0  0  0
   -2.9446    0.5074    4.9201 C   0  0  0  0  0  0  0  0  0  0  0  0
   -1.7735    1.2007    5.1741 C   0  0  0  0  0  0  0  0  0  0  0  0
   -1.3860    1.4126    6.5214 C   0  0  0  0  0  0  0  0  0  0  0  0
   -0.2052    2.1116    6.8145 C   0  0  0  0  0  0  0  0  0  0  0  0
    0.1616    2.3120    8.1138 C   0  0  0  0  0  0  0  0  0  0  0  0
   -0.6262    1.8295    9.1500 C   0  0  0  0  0  0  0  0  0  0  0  0
   -1.7902    1.1401    8.8851 C   0  0  0  0  0  0  0  0  0  0  0  0
   -2.1855    0.9225    7.5696 C   0  0  0  0  0  0  0  0  0  0  0  0
   -3.3262    0.2473    7.3129 O   0  0  0  0  0  0  0  0  0  0  0  0
   -3.7406    0.0247    6.0545 C   0  0  0  0  0  0  0  0  0  0  0  0
   -4.7759   -0.5825    5.8549 O   0  0  0  0  0  0  0  0  0  0  0  0
   -5.1400   -0.7125   -2.2070 C   0  0  0  0  0  0  0  0  0  0  0  0
   -0.7818   -0.3919   -2.2966 H   0  0  0  0  0  0  0  0  0  0  0  0
   -2.1487   -1.1998   -3.1011 H   0  0  0  0  0  0  0  0  0  0  0  0
   -1.1689   -0.0101   -3.9915 H   0  0  0  0  0  0  0  0  0  0  0  0
   -3.3299    0.9734   -3.2764 H   0  0  0  0  0  0  0  0  0  0  0  0
   -1.9629    1.7813   -2.4719 H   0  0  0  0  0  0  0  0  0  0  0  0
    0.0021   -0.0041    0.0020 H   0  0  0  0  0  0  0  0  0  0  0  0
    0.8223    1.4622    0.0021 H   0  0  0  0  0  0  0  0  0  0  0  0
   -1.8269    1.2046    2.6723 H   0  0  0  0  0  0  0  0  0  0  0  0
   -1.1666    1.5725    4.3618 H   0  0  0  0  0  0  0  0  0  0  0  0
    0.4126    2.4898    6.0134 H   0  0  0  0  0  0  0  0  0  0  0  0
    1.0712    2.8497    8.3373 H   0  0  0  0  0  0  0  0  0  0  0  0
   -0.3240    1.9956   10.1734 H   0  0  0  0  0  0  0  0  0  0  0  0
   -2.3950    0.7686    9.6992 H   0  0  0  0  0  0  0  0  0  0  0  0
   -4.8275   -1.7204   -2.4801 H   0  0  0  0  0  0  0  0  0  0  0  0
   -6.1744   -0.7332   -1.8640 H   0  0  0  0  0  0  0  0  0  0  0  0
   -5.0582   -0.0589   -3.0754 H   0  0  0  0  0  0  0  0  0  0  0  0
  1  2  1  0  0  0  0
  1 26  1  0  0  0  0
  1 27  1  0  0  0  0
  1 28  1  0  0  0  0
  2  3  1  0  0  0  0
  2 29  1  0  0  0  0
  2 30  1  0  0  0  0
  3  7  1  0  0  0  0
  3  4  2  0  0  0  0
  4  5  1  0  0  0  0
  4 25  1  0  0  0  0
  5  6  1  0  0  0  0
  6  7  2  0  0  0  0
  6 11  1  0  0  0  0
  7  8  1  0  0  0  0
  8  9  2  0  0  0  0
  8 10  1  0  0  0  0
 10 31  1  0  0  0  0
 10 32  1  0  0  0  0
 11 12  1  0  0  0  0
 11 33  1  0  0  0  0
 12 13  2  0  0  0  0
 12 14  1  0  0  0  0
 14 23  1  0  0  0  0
 14 15  2  0  0  0  0
 15 16  1  0  0  0  0
 15 34  1  0  0  0  0
 16 21  2  0  0  0  0
 16 17  1  0  0  0  0
 17 18  2  0  0  0  0
 17 35  1  0  0  0  0
 18 19  1  0  0  0  0
 18 36  1  0  0  0  0
 19 20  2  0  0  0  0
 19 37  1  0  0  0  0
 20 21  1  0  0  0  0
 20 38  1  0  0  0  0
 21 22  1  0  0  0  0
 22 23  1  0  0  0  0
 23 24  2  0  0  0  0
 25 39  1  0  0  0  0
 25 40  1  0  0  0  0
 25 41  1  0  0  0  0
M  END
$$$$
ZINC00998384
  -OEChem-08230709453D

 42 43  0     0  0  0  0  0  0999 V2000
   -2.6195   -0.3520    0.5449 C   0  0  0  0  0  0  0  0  0  0  0  0
   -1.2047    0.1637    0.2742 C   0  0  0  0  0  0  0  0  0  0  0  0
   -1.2018    1.6150    0.3184 O   0  0  0  0  0  0  0  0  0  0  0  0
   -0.0231    2.2318    0.0986 C   0  0  0  0  0  0  0  0  0  0  0  0
    0.9751    1.5740   -0.1239 O   0  0  0  0  0  0  0  0  0  0  0  0
    0.0551    3.6964    0.1279 C   0  0  0  0  0  0  0  0  0  0  0  0
   -0.1423    4.4484   -1.0205 C   0  0  0  0  0  0  0  0  0  0  0  0
   -0.0531    5.8095   -0.9123 C   0  0  0  0  0  0  0  0  0  0  0  0
    0.3114    6.0427    0.8171 S   0  0  0  0  0  0  0  0  0  0  0  0
    0.3256    4.3831    1.3168 C   0  0  0  0  0  0  0  0  0  0  0  0
    0.5502    3.8661    2.5765 N   0  0  0  0  0  0  0  0  0  0  0  0
    0.7970    4.6944    3.6106 C   0  0  0  0  0  0  0  0  0  0  0  0
    0.8218    5.8966    3.4338 O   0  0  0  0  0  0  0  0  0  0  0  0
    1.0375    4.1408    4.9596 C   0  0  0  0  0  0  0  0  0  0  0  0
    0.8816    2.7732    5.1944 C   0  0  0  0  0  0  0  0  0  0  0  0
    1.1125    2.2624    6.4546 C   0  0  0  0  0  0  0  0  0  0  0  0
    1.4879    3.1034    7.4875 C   0  0  0  0  0  0  0  0  0  0  0  0
    1.6391    4.4601    7.2629 C   0  0  0  0  0  0  0  0  0  0  0  0
    1.4160    4.9835    6.0060 C   0  0  0  0  0  0  0  0  0  0  0  0
    1.5802    6.4618    5.7635 C   0  0  0  0  0  0  0  0  0  0  0  0
   -0.2168    6.8224   -1.9569 C   0  0  0  0  0  0  0  0  0  0  0  0
   -0.4670    6.4839   -3.0991 O   0  0  0  0  0  0  0  0  0  0  0  0
   -0.0904    8.1296   -1.6538 N   0  0  0  0  0  0  0  0  0  0  0  0
   -0.4439    3.7894   -2.3418 C   0  0  0  0  0  0  0  0  0  0  0  0
   -2.6217   -1.4415    0.5118 H   0  0  0  0  0  0  0  0  0  0  0  0
   -2.9458   -0.0178    1.5298 H   0  0  0  0  0  0  0  0  0  0  0  0
   -3.2991    0.0359   -0.2139 H   0  0  0  0  0  0  0  0  0  0  0  0
   -0.8785   -0.1705   -0.7107 H   0  0  0  0  0  0  0  0  0  0  0  0
   -0.5252   -0.2243    1.0331 H   0  0  0  0  0  0  0  0  0  0  0  0
    0.5304    2.9066    2.7175 H   0  0  0  0  0  0  0  0  0  0  0  0
    0.5847    2.1164    4.3901 H   0  0  0  0  0  0  0  0  0  0  0  0
    0.9959    1.2042    6.6367 H   0  0  0  0  0  0  0  0  0  0  0  0
    1.6634    2.6989    8.4733 H   0  0  0  0  0  0  0  0  0  0  0  0
    1.9320    5.1110    8.0734 H   0  0  0  0  0  0  0  0  0  0  0  0
    0.6081    6.9507    5.8280 H   0  0  0  0  0  0  0  0  0  0  0  0
    2.2486    6.8813    6.5154 H   0  0  0  0  0  0  0  0  0  0  0  0
    2.0026    6.6226    4.7716 H   0  0  0  0  0  0  0  0  0  0  0  0
    0.1090    8.3993   -0.7437 H   0  0  0  0  0  0  0  0  0  0  0  0
   -0.1988    8.8006   -2.3458 H   0  0  0  0  0  0  0  0  0  0  0  0
   -1.5225    3.6798   -2.4553 H   0  0  0  0  0  0  0  0  0  0  0  0
   -0.0540    4.4051   -3.1523 H   0  0  0  0  0  0  0  0  0  0  0  0
    0.0265    2.8067   -2.3734 H   0  0  0  0  0  0  0  0  0  0  0  0
  1  2  1  0  0  0  0
  1 25  1  0  0  0  0
  1 26  1  0  0  0  0
  1 27  1  0  0  0  0
  2  3  1  0  0  0  0
  2 28  1  0  0  0  0
  2 29  1  0  0  0  0
  3  4  1  0  0  0  0
  4  5  2  0  0  0  0
  4  6  1  0  0  0  0
  6 10  2  0  0  0  0
  6  7  1  0  0  0  0
  7  8  2  0  0  0  0
  7 24  1  0  0  0  0
  8  9  1  0  0  0  0
  8 21  1  0  0  0  0
  9 10  1  0  0  0  0
 10 11  1  0  0  0  0
 11 12  1  0  0  0  0
 11 30  1  0  0  0  0
 12 13  2  0  0  0  0
 12 14  1  0  0  0  0
 14 19  2  0  0  0  0
 14 15  1  0  0  0  0
 15 16  2  0  0  0  0
 15 31  1  0  0  0  0
 16 17  1  0  0  0  0
 16 32  1  0  0  0  0
 17 18  2  0  0  0  0
 17 33  1  0  0  0  0
 18 19  1  0  0  0  0
 18 34  1  0  0  0  0
 19 20  1  0  0  0  0
 20 35  1  0  0  0  0
 20 36  1  0  0  0  0
 20 37  1  0  0  0  0
 21 22  2  0  0  0  0
 21 23  1  0  0  0  0
 23 38  1  0  0  0  0
 23 39  1  0  0  0  0
 24 40  1  0  0  0  0
 24 41  1  0  0  0  0
 24 42  1  0  0  0  0
M  END
$$$$
ZINC01002240
  -OEChem-08230709453D

 40 41  0     0  0  0  0  0  0999 V2000
   -4.3935    7.4297    0.0629 C   0  0  0  0  0  0  0  0  0  0  0  0
   -4.0627    5.9595    0.0529 C   0  0  0  0  0  0  0  0  0  0  0  0
   -2.7473    5.5201    0.0450 C   0  0  0  0  0  0  0  0  0  0  0  0
   -2.5228    4.1389    0.0365 C   0  0  0  0  0  0  0  0  0  0  0  0
   -4.1282    3.4857    0.0328 S   0  0  0  0  0  0  0  0  0  0  0  0
   -5.0495    5.0118    0.0517 C   0  0  0  0  0  0  0  0  0  0  0  0
   -6.5012    5.2034    0.0583 C   0  0  0  0  0  0  0  0  0  0  0  0
   -6.9666    6.3282    0.0660 O   0  0  0  0  0  0  0  0  0  0  0  0
   -7.3220    4.1345    0.0558 N   0  0  0  0  0  0  0  0  0  0  0  0
   -1.3195    3.4634    0.0271 N   0  0  0  0  0  0  0  0  0  0  0  0
   -1.3033    2.1157    0.0197 C   0  0  0  0  0  0  0  0  0  0  0  0
   -2.3488    1.4952    0.0213 O   0  0  0  0  0  0  0  0  0  0  0  0
   -0.0169    1.3934    0.0097 C   0  0  0  0  0  0  0  0  0  0  0  0
    1.1861    2.1049    0.0020 C   0  0  0  0  0  0  0  0  0  0  0  0
    2.3845    1.4270   -0.0135 C   0  0  0  0  0  0  0  0  0  0  0  0
    2.3990    0.0371   -0.0211 C   0  0  0  0  0  0  0  0  0  0  0  0
    1.2048   -0.6743   -0.0131 C   0  0  0  0  0  0  0  0  0  0  0  0
    0.0021   -0.0041    0.0020 C   0  0  0  0  0  0  0  0  0  0  0  0
    3.5822   -0.6273   -0.0360 O   0  0  0  0  0  0  0  0  0  0  0  0
    4.7712    0.1654   -0.0436 C   0  0  0  0  0  0  0  0  0  0  0  0
   -1.6298    6.4705    0.0462 C   0  0  0  0  0  0  0  0  0  0  0  0
   -1.1708    6.8706   -1.0064 O   0  0  0  0  0  0  0  0  0  0  0  0
   -1.1115    6.9003    1.2145 O   0  0  0  0  0  0  0  0  0  0  0  0
   -0.0072    7.8402    1.1396 C   0  0  0  0  0  0  0  0  0  0  0  0
   -4.4774    7.7903   -0.9624 H   0  0  0  0  0  0  0  0  0  0  0  0
   -5.3395    7.5858    0.5814 H   0  0  0  0  0  0  0  0  0  0  0  0
   -3.6030    7.9766    0.5768 H   0  0  0  0  0  0  0  0  0  0  0  0
   -6.9512    3.2382    0.0497 H   0  0  0  0  0  0  0  0  0  0  0  0
   -8.2837    4.2614    0.0602 H   0  0  0  0  0  0  0  0  0  0  0  0
   -0.4853    3.9584    0.0259 H   0  0  0  0  0  0  0  0  0  0  0  0
    1.1758    3.1848    0.0076 H   0  0  0  0  0  0  0  0  0  0  0  0
    3.3146    1.9760   -0.0194 H   0  0  0  0  0  0  0  0  0  0  0  0
    1.2203   -1.7542   -0.0190 H   0  0  0  0  0  0  0  0  0  0  0  0
   -0.9253   -0.5575    0.0083 H   0  0  0  0  0  0  0  0  0  0  0  0
    5.6435   -0.4881   -0.0553 H   0  0  0  0  0  0  0  0  0  0  0  0
    4.7799    0.7989   -0.9305 H   0  0  0  0  0  0  0  0  0  0  0  0
    4.7972    0.7900    0.8494 H   0  0  0  0  0  0  0  0  0  0  0  0
    0.3142    8.1041    2.1471 H   0  0  0  0  0  0  0  0  0  0  0  0
    0.8231    7.3830    0.6014 H   0  0  0  0  0  0  0  0  0  0  0  0
   -0.3300    8.7389    0.6141 H   0  0  0  0  0  0  0  0  0  0  0  0
  1  2  1  0  0  0  0
  1 25  1  0  0  0  0
  1 26  1  0  0  0  0
  1 27  1  0  0  0  0
  2  6  2  0  0  0  0
  2  3  1  0  0  0  0
  3  4  2  0  0  0  0
  3 21  1  0  0  0  0
  4  5  1  0  0  0  0
  4 10  1  0  0  0  0
  5  6  1  0  0  0  0
  6  7  1  0  0  0  0
  7  8  2  0  0  0  0
  7  9  1  0  0  0  0
  9 28  1  0  0  0  0
  9 29  1  0  0  0  0
 10 11  1  0  0  0  0
 10 30  1  0  0  0  0
 11 12  2  0  0  0  0
 11 13  1  0  0  0  0
 13 18  2  0  0  0  0
 13 14  1  0  0  0  0
 14 15  2  0  0  0  0
 14 31  1  0  0  0  0
 15 16  1  0  0  0  0
 15 32  1  0  0  0  0
 16 17  2  0  0  0  0
 16 19  1  0  0  0  0
 17 18  1  0  0  0  0
 17 33  1  0  0  0  0
 18 34  1  0  0  0  0
 19 20  1  0  0  0  0
 20 35  1  0  0  0  0
 20 36  1  0  0  0  0
 20 37  1  0  0  0  0
 21 22  2  0  0  0  0
 21 23  1  0  0  0  0
 23 24  1  0  0  0  0
 24 38  1  0  0  0  0
 24 39  1  0  0  0  0
 24 40  1  0  0  0  0
M  END
$$$$
ZINC01003588
  -OEChem-08230709453D

 44 46  0     1  0  0  0  0  0999 V2000
   -3.7685    1.5168   -0.6252 C   0  0  0  0  0  0  0  0  0  0  0  0
   -2.4603    0.8099   -0.2649 C   0  0  0  0  0  0  0  0  0  0  0  0
   -1.3602    1.6864   -0.5171 O   0  0  0  0  0  0  0  0  0  0  0  0
   -0.1158    1.2085   -0.2479 C   0  0  0  0  0  0  0  0  0  0  0  0
    0.0426   -0.0756    0.2481 C   0  0  0  0  0  0  0  0  0  0  0  0
    1.3087   -0.5619    0.5158 C   0  0  0  0  0  0  0  0  0  0  0  0
    2.4189    0.2303    0.2895 C   0  0  0  0  0  0  0  0  0  0  0  0
    2.2680    1.5122   -0.2055 C   0  0  0  0  0  0  0  0  0  0  0  0
    1.0017    2.0060   -0.4752 C   0  0  0  0  0  0  0  0  0  0  0  0
    0.8514    3.2668   -0.9623 O   0  0  0  0  0  0  0  0  0  0  0  0
    0.5489    4.2954   -0.0176 C   0  0  0  0  0  0  0  0  0  0  0  0
   -0.5835    3.9331    0.7197 F   0  0  0  0  0  0  0  0  0  0  0  0
    1.6340    4.4670    0.8486 F   0  0  0  0  0  0  0  0  0  0  0  0
    3.4805    2.3725   -0.4519 C   0  0  1  0  0  0  0  0  0  0  0  0
    3.1849    3.4216   -0.4539 H   0  0  0  0  0  0  0  0  0  0  0  0
    4.4856    2.1424    0.6422 C   0  0  0  0  0  0  0  0  0  0  0  0
    5.6101    1.3769    0.4159 C   0  0  0  0  0  0  0  0  0  0  0  0
    6.5205    1.1931    1.4818 C   0  0  0  0  0  0  0  0  0  0  0  0
    6.2691    1.7643    2.6737 C   0  0  0  0  0  0  0  0  0  0  0  0
    5.1805    2.5076    2.8939 O   0  0  0  0  0  0  0  0  0  0  0  0
    4.2929    2.7045    1.9093 C   0  0  0  0  0  0  0  0  0  0  0  0
    3.3020    3.3840    2.1208 O   0  0  0  0  0  0  0  0  0  0  0  0
    7.2495    1.5590    3.7996 C   0  0  0  0  0  0  0  0  0  0  0  0
    5.8443    0.8149   -0.7863 O   0  0  0  0  0  0  0  0  0  0  0  0
    5.2055    1.2755   -1.8767 C   0  0  0  0  0  0  0  0  0  0  0  0
    4.0788    2.0205   -1.7858 C   0  0  0  0  0  0  0  0  0  0  0  0
    3.4446    2.4830   -2.9835 C   0  0  0  0  0  0  0  0  0  0  0  0
    2.9415    2.8498   -3.9337 N   0  0  0  0  0  0  0  0  0  0  0  0
    5.7108    0.9810   -3.1185 N   0  0  0  0  0  0  0  0  0  0  0  0
   -4.6076    0.8482   -0.4328 H   0  0  0  0  0  0  0  0  0  0  0  0
   -3.8743    2.4164   -0.0188 H   0  0  0  0  0  0  0  0  0  0  0  0
   -3.7556    1.7893   -1.6805 H   0  0  0  0  0  0  0  0  0  0  0  0
   -2.3545   -0.0897   -0.8713 H   0  0  0  0  0  0  0  0  0  0  0  0
   -2.4732    0.5373    0.7904 H   0  0  0  0  0  0  0  0  0  0  0  0
   -0.8230   -0.6965    0.4257 H   0  0  0  0  0  0  0  0  0  0  0  0
    1.4308   -1.5629    0.9023 H   0  0  0  0  0  0  0  0  0  0  0  0
    3.4064   -0.1533    0.4996 H   0  0  0  0  0  0  0  0  0  0  0  0
    0.3549    5.2287   -0.5463 H   0  0  0  0  0  0  0  0  0  0  0  0
    7.4109    0.5985    1.3404 H   0  0  0  0  0  0  0  0  0  0  0  0
    7.9996    2.3496    3.7769 H   0  0  0  0  0  0  0  0  0  0  0  0
    6.7202    1.5877    4.7520 H   0  0  0  0  0  0  0  0  0  0  0  0
    7.7379    0.5914    3.6843 H   0  0  0  0  0  0  0  0  0  0  0  0
    5.2614    1.3056   -3.9144 H   0  0  0  0  0  0  0  0  0  0  0  0
    6.5173    0.4482   -3.2001 H   0  0  0  0  0  0  0  0  0  0  0  0
  1  2  1  0  0  0  0
  1 30  1  0  0  0  0
  1 31  1  0  0  0  0
  1 32  1  0  0  0  0
  2  3  1  0  0  0  0
  2 33  1  0  0  0  0
  2 34  1  0  0  0  0
  3  4  1  0  0  0  0
  4  9  2  0  0  0  0
  4  5  1  0  0  0  0
  5  6  2  0  0  0  0
  5 35  1  0  0  0  0
  6  7  1  0  0  0  0
  6 36  1  0  0  0  0
  7  8  2  0  0  0  0
  7 37  1  0  0  0  0
  8  9  1  0  0  0  0
  8 14  1  0  0  0  0
  9 10  1  0  0  0  0
 10 11  1  0  0  0  0
 11 12  1  0  0  0  0
 11 13  1  0  0  0  0
 11 38  1  0  0  0  0
 14 15  1  0  0  0  0
 14 26  1  0  0  0  0
 14 16  1  0  0  0  0
 16 21  1  0  0  0  0
 16 17  2  0  0  0  0
 17 18  1  0  0  0  0
 17 24  1  0  0  0  0
 18 19  2  0  0  0  0
 18 39  1  0  0  0  0
 19 20  1  0  0  0  0
 19 23  1  0  0  0  0
 20 21  1  0  0  0  0
 21 22  2  0  0  0  0
 23 40  1  0  0  0  0
 23 41  1  0  0  0  0
 23 42  1  0  0  0  0
 24 25  1  0  0  0  0
 25 26  2  0  0  0  0
 25 29  1  0  0  0  0
 26 27  1  0  0  0  0
 27 28  3  0  0  0  0
 29 43  1  0  0  0  0
 29 44  1  0  0  0  0
M  END
$$$$
ZINC01009042
  -OEChem-08230709453D

 40 41  0     0  0  0  0  0  0999 V2000
   -0.0697    7.4288    6.5282 C   0  0  0  0  0  0  0  0  0  0  0  0
   -1.2982    8.2219    6.0780 C   0  0  0  0  0  0  0  0  0  0  0  0
   -2.4255    7.2702    5.7705 C   0  0  0  0  0  0  0  0  0  0  0  0
   -3.3895    6.7956    6.6004 C   0  0  0  0  0  0  0  0  0  0  0  0
   -4.3341    5.9240    6.1071 C   0  0  0  0  0  0  0  0  0  0  0  0
   -4.2626    5.5634    4.7736 C   0  0  0  0  0  0  0  0  0  0  0  0
   -2.8277    6.4731    4.2249 S   0  0  0  0  0  0  0  0  0  0  0  0
   -5.1350    4.6627    4.0104 C   0  0  0  0  0  0  0  0  0  0  0  0
   -4.9029    4.4468    2.7499 N   0  0  0  0  0  0  0  0  0  0  0  0
   -5.7355    3.5872    2.0215 N   0  0  0  0  0  0  0  0  0  0  0  0
   -5.4398    3.3122    0.4155 S   0  0  0  0  0  0  0  0  0  0  0  0
   -5.3793    4.5865   -0.2103 O   0  0  0  0  0  0  0  0  0  0  0  0
   -6.3504    2.3028    0.0019 O   0  0  0  0  0  0  0  0  0  0  0  0
   -3.8262    2.6148    0.2949 C   0  0  0  0  0  0  0  0  0  0  0  0
   -3.6616    1.2429    0.3498 C   0  0  0  0  0  0  0  0  0  0  0  0
   -2.3982    0.6931    0.2546 C   0  0  0  0  0  0  0  0  0  0  0  0
   -1.2924    1.5197    0.1041 C   0  0  0  0  0  0  0  0  0  0  0  0
   -1.4605    2.8973    0.0555 C   0  0  0  0  0  0  0  0  0  0  0  0
   -2.7271    3.4406    0.1451 C   0  0  0  0  0  0  0  0  0  0  0  0
   -0.0111    0.9658    0.0074 N   0  0  0  0  0  0  0  0  0  0  0  0
    0.9243    1.5612   -0.7588 C   0  0  0  0  0  0  0  0  0  0  0  0
    0.6307    2.5233   -1.4364 O   0  0  0  0  0  0  0  0  0  0  0  0
    2.3351    1.0316   -0.7735 C   0  0  0  0  0  0  0  0  0  0  0  0
    0.7457    8.1172    6.7506 H   0  0  0  0  0  0  0  0  0  0  0  0
   -0.3150    6.8553    7.4221 H   0  0  0  0  0  0  0  0  0  0  0  0
    0.2355    6.7489    5.7328 H   0  0  0  0  0  0  0  0  0  0  0  0
   -1.0528    8.7953    5.1841 H   0  0  0  0  0  0  0  0  0  0  0  0
   -1.6034    8.9017    6.8734 H   0  0  0  0  0  0  0  0  0  0  0  0
   -3.4149    7.0984    7.6368 H   0  0  0  0  0  0  0  0  0  0  0  0
   -5.1116    5.5312    6.7455 H   0  0  0  0  0  0  0  0  0  0  0  0
   -5.9697    4.1794    4.4963 H   0  0  0  0  0  0  0  0  0  0  0  0
   -6.4852    3.1531    2.4579 H   0  0  0  0  0  0  0  0  0  0  0  0
   -4.5219    0.6007    0.4669 H   0  0  0  0  0  0  0  0  0  0  0  0
   -2.2704   -0.3784    0.2969 H   0  0  0  0  0  0  0  0  0  0  0  0
   -0.6020    3.5430   -0.0567 H   0  0  0  0  0  0  0  0  0  0  0  0
   -2.8590    4.5116    0.1025 H   0  0  0  0  0  0  0  0  0  0  0  0
    0.2028    0.1512    0.4885 H   0  0  0  0  0  0  0  0  0  0  0  0
    2.4331    0.2804   -1.5572 H   0  0  0  0  0  0  0  0  0  0  0  0
    3.0285    1.8502   -0.9661 H   0  0  0  0  0  0  0  0  0  0  0  0
    2.5641    0.5810    0.1923 H   0  0  0  0  0  0  0  0  0  0  0  0
  1  2  1  0  0  0  0
  1 24  1  0  0  0  0
  1 25  1  0  0  0  0
  1 26  1  0  0  0  0
  2  3  1  0  0  0  0
  2 27  1  0  0  0  0
  2 28  1  0  0  0  0
  3  7  1  0  0  0  0
  3  4  2  0  0  0  0
  4  5  1  0  0  0  0
  4 29  1  0  0  0  0
  5  6  2  0  0  0  0
  5 30  1  0  0  0  0
  6  7  1  0  0  0  0
  6  8  1  0  0  0  0
  8  9  2  0  0  0  0
  8 31  1  0  0  0  0
  9 10  1  0  0  0  0
 10 11  1  0  0  0  0
 10 32  1  0  0  0  0
 11 12  2  0  0  0  0
 11 13  2  0  0  0  0
 11 14  1  0  0  0  0
 14 19  2  0  0  0  0
 14 15  1  0  0  0  0
 15 16  2  0  0  0  0
 15 33  1  0  0  0  0
 16 17  1  0  0  0  0
 16 34  1  0  0  0  0
 17 18  2  0  0  0  0
 17 20  1  0  0  0  0
 18 19  1  0  0  0  0
 18 35  1  0  0  0  0
 19 36  1  0  0  0  0
 20 21  1  0  0  0  0
 20 37  1  0  0  0  0
 21 22  2  0  0  0  0
 21 23  1  0  0  0  0
 23 38  1  0  0  0  0
 23 39  1  0  0  0  0
 23 40  1  0  0  0  0
M  END
$$$$
ZINC01018145
  -OEChem-08230709453D

 44 46  0     0  0  0  0  0  0999 V2000
    0.0021   -0.0041    0.0020 C   0  0  0  0  0  0  0  0  0  0  0  0
   -0.0187    1.5258    0.0104 C   0  0  0  0  0  0  0  0  0  0  0  0
   -0.6875    1.9866    1.1861 O   0  0  0  0  0  0  0  0  0  0  0  0
   -0.7931    3.3282    1.3482 C   0  0  0  0  0  0  0  0  0  0  0  0
   -1.4307    3.8548    2.4673 C   0  0  0  0  0  0  0  0  0  0  0  0
   -1.5152    5.2382    2.5924 C   0  0  0  0  0  0  0  0  0  0  0  0
   -0.9877    6.0070    1.6450 N   0  0  0  0  0  0  0  0  0  0  0  0
   -0.3875    5.4704    0.5924 C   0  0  0  0  0  0  0  0  0  0  0  0
   -0.2845    4.1569    0.4437 N   0  0  0  0  0  0  0  0  0  0  0  0
    0.1887    6.3622   -0.4433 C   0  0  0  0  0  0  0  0  0  0  0  0
    0.0914    7.7459   -0.3076 C   0  0  0  0  0  0  0  0  0  0  0  0
    0.6337    8.5709   -1.2720 C   0  0  0  0  0  0  0  0  0  0  0  0
    1.2634    8.0268   -2.3769 C   0  0  0  0  0  0  0  0  0  0  0  0
    1.3582    6.6542   -2.5194 C   0  0  0  0  0  0  0  0  0  0  0  0
    0.8243    5.8196   -1.5586 C   0  0  0  0  0  0  0  0  0  0  0  0
   -2.1451    5.8101    3.6962 N   0  0  0  0  0  0  0  0  0  0  0  0
   -1.8921    7.0486    4.1876 C   0  0  0  0  0  0  0  0  0  0  0  0
   -2.7282    7.2390    5.2861 C   0  0  0  0  0  0  0  0  0  0  0  0
   -3.5069    6.0056    5.4276 C   0  0  0  0  0  0  0  0  0  0  0  0
   -3.1309    5.1938    4.4715 N   0  0  0  0  0  0  0  0  0  0  0  0
   -4.7253    5.6762    6.6571 S   0  0  0  0  0  0  0  0  0  0  0  0
   -5.2953    3.9979    6.2714 C   0  0  0  0  0  0  0  0  0  0  0  0
   -2.8088    8.4319    6.1335 C   0  0  0  0  0  0  0  0  0  0  0  0
   -2.0977    8.5292    7.1165 O   0  0  0  0  0  0  0  0  0  0  0  0
   -3.6703    9.4212    5.8244 N   0  0  0  0  0  0  0  0  0  0  0  0
   -0.9781    7.9534    3.6904 N   0  0  0  0  0  0  0  0  0  0  0  0
   -1.0205   -0.3814    0.0098 H   0  0  0  0  0  0  0  0  0  0  0  0
    0.5123   -0.3556   -0.8948 H   0  0  0  0  0  0  0  0  0  0  0  0
    0.5293   -0.3651    0.8851 H   0  0  0  0  0  0  0  0  0  0  0  0
    1.0039    1.9031    0.0027 H   0  0  0  0  0  0  0  0  0  0  0  0
   -0.5459    1.8868   -0.8726 H   0  0  0  0  0  0  0  0  0  0  0  0
   -1.8504    3.2051    3.2210 H   0  0  0  0  0  0  0  0  0  0  0  0
   -0.4036    8.1717    0.5526 H   0  0  0  0  0  0  0  0  0  0  0  0
    0.5625    9.6433   -1.1659 H   0  0  0  0  0  0  0  0  0  0  0  0
    1.6829    8.6762   -3.1311 H   0  0  0  0  0  0  0  0  0  0  0  0
    1.8513    6.2348   -3.3839 H   0  0  0  0  0  0  0  0  0  0  0  0
    0.8992    4.7480   -1.6707 H   0  0  0  0  0  0  0  0  0  0  0  0
   -5.7122    3.9781    5.2645 H   0  0  0  0  0  0  0  0  0  0  0  0
   -4.4550    3.3062    6.3304 H   0  0  0  0  0  0  0  0  0  0  0  0
   -6.0614    3.7008    6.9877 H   0  0  0  0  0  0  0  0  0  0  0  0
   -4.2370    9.3436    5.0410 H   0  0  0  0  0  0  0  0  0  0  0  0
   -3.7236   10.2107    6.3853 H   0  0  0  0  0  0  0  0  0  0  0  0
   -0.4418    7.7247    2.9152 H   0  0  0  0  0  0  0  0  0  0  0  0
   -0.8714    8.8185    4.1159 H   0  0  0  0  0  0  0  0  0  0  0  0
  1  2  1  0  0  0  0
  1 27  1  0  0  0  0
  1 28  1  0  0  0  0
  1 29  1  0  0  0  0
  2  3  1  0  0  0  0
  2 30  1  0  0  0  0
  2 31  1  0  0  0  0
  3  4  1  0  0  0  0
  4  9  2  0  0  0  0
  4  5  1  0  0  0  0
  5  6  2  0  0  0  0
  5 32  1  0  0  0  0
  6  7  1  0  0  0  0
  6 16  1  0  0  0  0
  7  8  2  0  0  0  0
  8  9  1  0  0  0  0
  8 10  1  0  0  0  0
 10 15  2  0  0  0  0
 10 11  1  0  0  0  0
 11 12  2  0  0  0  0
 11 33  1  0  0  0  0
 12 13  1  0  0  0  0
 12 34  1  0  0  0  0
 13 14  2  0  0  0  0
 13 35  1  0  0  0  0
 14 15  1  0  0  0  0
 14 36  1  0  0  0  0
 15 37  1  0  0  0  0
 16 20  1  0  0  0  0
 16 17  1  0  0  0  0
 17 18  2  0  0  0  0
 17 26  1  0  0  0  0
 18 19  1  0  0  0  0
 18 23  1  0  0  0  0
 19 20  2  0  0  0  0
 19 21  1  0  0  0  0
 21 22  1  0  0  0  0
 22 38  1  0  0  0  0
 22 39  1  0  0  0  0
 22 40  1  0  0  0  0
 23 24  2  0  0  0  0
 23 25  1  0  0  0  0
 25 41  1  0  0  0  0
 25 42  1  0  0  0  0
 26 43  1  0  0  0  0
 26 44  1  0  0  0  0
M  END
$$$$
ZINC01019851
  -OEChem-08230709453D

 45 48  0     1  0  0  0  0  0999 V2000
   -5.4754    8.5294   -5.1778 C   0  0  0  0  0  0  0  0  0  0  0  0
   -4.5388    7.9939   -4.0929 C   0  0  0  0  0  0  0  0  0  0  0  0
   -2.9422    7.5672   -4.8309 S   0  0  0  0  0  0  0  0  0  0  0  0
   -2.0869    6.9955   -3.4005 C   0  0  0  0  0  0  0  0  0  0  0  0
   -0.8009    6.5627   -3.5208 N   0  0  0  0  0  0  0  0  0  0  0  0
   -0.3521    6.5742   -4.4144 H   0  0  0  0  0  0  0  0  0  0  0  0
   -0.1312    6.1184   -2.4364 C   0  0  0  0  0  0  0  0  0  0  0  0
    1.0210    5.7269   -2.5341 O   0  0  0  0  0  0  0  0  0  0  0  0
   -0.7827    6.1153   -1.1977 C   0  0  0  0  0  0  0  0  0  0  0  0
   -2.0883    6.5696   -1.1287 C   0  0  0  0  0  0  0  0  0  0  0  0
   -2.7044    6.9958   -2.2365 N   0  0  0  0  0  0  0  0  0  0  0  0
   -2.7433    6.5848    0.0871 N   0  0  0  0  0  0  0  0  0  0  0  0
   -2.0369    6.5466    1.2585 C   0  0  0  0  0  0  0  0  0  0  0  0
   -0.7628    6.1063    1.2843 C   0  0  0  0  0  0  0  0  0  0  0  0
   -0.0743    5.6278    0.0310 C   0  0  1  0  0  0  0  0  0  0  0  0
    0.9506    5.9986    0.0230 H   0  0  0  0  0  0  0  0  0  0  0  0
   -0.0539    4.1209    0.0237 C   0  0  0  0  0  0  0  0  0  0  0  0
    1.1534    3.4471    0.0091 C   0  0  0  0  0  0  0  0  0  0  0  0
    1.1748    2.0659    0.0019 C   0  0  0  0  0  0  0  0  0  0  0  0
   -0.0164    1.3548    0.0095 C   0  0  0  0  0  0  0  0  0  0  0  0
   -1.2264    2.0332    0.0189 C   0  0  0  0  0  0  0  0  0  0  0  0
   -1.2424    3.4145    0.0313 C   0  0  0  0  0  0  0  0  0  0  0  0
    0.0021   -0.0041    0.0020 O   0  0  0  0  0  0  0  0  0  0  0  0
   -0.0296    6.0797    2.4855 C   0  0  0  0  0  0  0  0  0  0  0  0
    1.1131    5.6663    2.4773 O   0  0  0  0  0  0  0  0  0  0  0  0
   -0.6329    6.5526    3.7793 C   0  0  0  0  0  0  0  0  0  0  0  0
   -1.6951    7.6144    3.4752 C   0  0  0  0  0  0  0  0  0  0  0  0
   -2.7255    7.0080    2.5202 C   0  0  0  0  0  0  0  0  0  0  0  0
   -6.4369    8.7864   -4.7334 H   0  0  0  0  0  0  0  0  0  0  0  0
   -5.0357    9.4178   -5.6312 H   0  0  0  0  0  0  0  0  0  0  0  0
   -5.6207    7.7657   -5.9418 H   0  0  0  0  0  0  0  0  0  0  0  0
   -4.9785    7.1055   -3.6395 H   0  0  0  0  0  0  0  0  0  0  0  0
   -4.3935    8.7576   -3.3289 H   0  0  0  0  0  0  0  0  0  0  0  0
   -3.7123    6.6230    0.1109 H   0  0  0  0  0  0  0  0  0  0  0  0
    2.0805    4.0012    0.0036 H   0  0  0  0  0  0  0  0  0  0  0  0
    2.1181    1.5400   -0.0092 H   0  0  0  0  0  0  0  0  0  0  0  0
   -2.1551    1.4819    0.0203 H   0  0  0  0  0  0  0  0  0  0  0  0
   -2.1842    3.9431    0.0428 H   0  0  0  0  0  0  0  0  0  0  0  0
    0.0158   -0.4021    0.8832 H   0  0  0  0  0  0  0  0  0  0  0  0
    0.0827    6.9455    4.3568 H   0  0  0  0  0  0  0  0  0  0  0  0
   -1.0955    5.7111    4.2951 H   0  0  0  0  0  0  0  0  0  0  0  0
   -1.2256    8.4797    3.0072 H   0  0  0  0  0  0  0  0  0  0  0  0
   -2.1858    7.9179    4.3999 H   0  0  0  0  0  0  0  0  0  0  0  0
   -3.4751    7.7590    2.2706 H   0  0  0  0  0  0  0  0  0  0  0  0
   -3.2095    6.1580    3.0011 H   0  0  0  0  0  0  0  0  0  0  0  0
  1  2  1  0  0  0  0
  1 29  1  0  0  0  0
  1 30  1  0  0  0  0
  1 31  1  0  0  0  0
  2  3  1  0  0  0  0
  2 32  1  0  0  0  0
  2 33  1  0  0  0  0
  3  4  1  0  0  0  0
  4 11  2  0  0  0  0
  4  5  1  0  0  0  0
  5  6  1  0  0  0  0
  5  7  1  0  0  0  0
  7  8  2  0  0  0  0
  7  9  1  0  0  0  0
  9 15  1  0  0  0  0
  9 10  2  0  0  0  0
 10 11  1  0  0  0  0
 10 12  1  0  0  0  0
 12 13  1  0  0  0  0
 12 34  1  0  0  0  0
 13 28  1  0  0  0  0
 13 14  2  0  0  0  0
 14 15  1  0  0  0  0
 14 24  1  0  0  0  0
 15 16  1  0  0  0  0
 15 17  1  0  0  0  0
 17 22  2  0  0  0  0
 17 18  1  0  0  0  0
 18 19  2  0  0  0  0
 18 35  1  0  0  0  0
 19 20  1  0  0  0  0
 19 36  1  0  0  0  0
 20 21  2  0  0  0  0
 20 23  1  0  0  0  0
 21 22  1  0  0  0  0
 21 37  1  0  0  0  0
 22 38  1  0  0  0  0
 23 39  1  0  0  0  0
 24 25  2  0  0  0  0
 24 26  1  0  0  0  0
 26 27  1  0  0  0  0
 26 40  1  0  0  0  0
 26 41  1  0  0  0  0
 27 28  1  0  0  0  0
 27 42  1  0  0  0  0
 27 43  1  0  0  0  0
 28 44  1  0  0  0  0
 28 45  1  0  0  0  0
M  END
$$$$
ZINC01019851
  -OEChem-08230709453D

 45 48  0     1  0  0  0  0  0999 V2000
   -5.4760    8.5277   -5.1781 C   0  0  0  0  0  0  0  0  0  0  0  0
   -4.5393    7.9926   -4.0931 C   0  0  0  0  0  0  0  0  0  0  0  0
   -2.9427    7.5657   -4.8312 S   0  0  0  0  0  0  0  0  0  0  0  0
   -2.0872    6.9946   -3.4007 C   0  0  0  0  0  0  0  0  0  0  0  0
   -0.8012    6.5618   -3.5210 N   0  0  0  0  0  0  0  0  0  0  0  0
   -3.6491    7.3191   -2.1807 H   0  0  0  0  0  0  0  0  0  0  0  0
   -0.1314    6.1179   -2.4365 C   0  0  0  0  0  0  0  0  0  0  0  0
    1.0208    5.7264   -2.5342 O   0  0  0  0  0  0  0  0  0  0  0  0
   -0.7829    6.1146   -1.1978 C   0  0  0  0  0  0  0  0  0  0  0  0
   -2.0885    6.5689   -1.1288 C   0  0  0  0  0  0  0  0  0  0  0  0
   -2.7047    6.9950   -2.2366 N   0  0  0  0  0  0  0  0  0  0  0  0
   -2.7437    6.5838    0.0869 N   0  0  0  0  0  0  0  0  0  0  0  0
   -2.0374    6.5452    1.2584 C   0  0  0  0  0  0  0  0  0  0  0  0
   -0.7633    6.1049    1.2842 C   0  0  0  0  0  0  0  0  0  0  0  0
   -0.0747    5.6267    0.0308 C   0  0  1  0  0  0  0  0  0  0  0  0
    0.9502    5.9975    0.0230 H   0  0  0  0  0  0  0  0  0  0  0  0
   -0.0543    4.1198    0.0231 C   0  0  0  0  0  0  0  0  0  0  0  0
    1.1530    3.4460    0.0084 C   0  0  0  0  0  0  0  0  0  0  0  0
    1.1743    2.0648    0.0008 C   0  0  0  0  0  0  0  0  0  0  0  0
   -0.0169    1.3537    0.0080 C   0  0  0  0  0  0  0  0  0  0  0  0
   -1.2269    2.0322    0.0175 C   0  0  0  0  0  0  0  0  0  0  0  0
   -1.2428    3.4135    0.0303 C   0  0  0  0  0  0  0  0  0  0  0  0
    0.0016   -0.0052    0.0002 O   0  0  0  0  0  0  0  0  0  0  0  0
   -0.0302    6.0779    2.4854 C   0  0  0  0  0  0  0  0  0  0  0  0
    1.1125    5.6645    2.4772 O   0  0  0  0  0  0  0  0  0  0  0  0
   -0.6336    6.5505    3.7793 C   0  0  0  0  0  0  0  0  0  0  0  0
   -1.6958    7.6124    3.4754 C   0  0  0  0  0  0  0  0  0  0  0  0
   -2.7261    7.0063    2.5201 C   0  0  0  0  0  0  0  0  0  0  0  0
   -6.4375    8.7848   -4.7337 H   0  0  0  0  0  0  0  0  0  0  0  0
   -5.0364    9.4159   -5.6319 H   0  0  0  0  0  0  0  0  0  0  0  0
   -5.6214    7.7637   -5.9418 H   0  0  0  0  0  0  0  0  0  0  0  0
   -4.9789    7.1044   -3.6393 H   0  0  0  0  0  0  0  0  0  0  0  0
   -4.3939    8.7567   -3.3295 H   0  0  0  0  0  0  0  0  0  0  0  0
   -3.7127    6.6220    0.1106 H   0  0  0  0  0  0  0  0  0  0  0  0
    2.0801    4.0001    0.0031 H   0  0  0  0  0  0  0  0  0  0  0  0
    2.1176    1.5389   -0.0104 H   0  0  0  0  0  0  0  0  0  0  0  0
   -2.1556    1.4809    0.0187 H   0  0  0  0  0  0  0  0  0  0  0  0
   -2.1846    3.9421    0.0419 H   0  0  0  0  0  0  0  0  0  0  0  0
    0.0152   -0.4034    0.8812 H   0  0  0  0  0  0  0  0  0  0  0  0
    0.0820    6.9432    4.3570 H   0  0  0  0  0  0  0  0  0  0  0  0
   -1.0963    5.7088    4.2948 H   0  0  0  0  0  0  0  0  0  0  0  0
   -1.2262    8.4778    3.0077 H   0  0  0  0  0  0  0  0  0  0  0  0
   -2.1865    7.9156    4.4002 H   0  0  0  0  0  0  0  0  0  0  0  0
   -3.4756    7.7574    2.2707 H   0  0  0  0  0  0  0  0  0  0  0  0
   -3.2102    6.1562    3.0007 H   0  0  0  0  0  0  0  0  0  0  0  0
  1  2  1  0  0  0  0
  1 29  1  0  0  0  0
  1 30  1  0  0  0  0
  1 31  1  0  0  0  0
  2  3  1  0  0  0  0
  2 32  1  0  0  0  0
  2 33  1  0  0  0  0
  3  4  1  0  0  0  0
  4 11  1  0  0  0  0
  4  5  2  0  0  0  0
  5  7  1  0  0  0  0
  6 11  1  0  0  0  0
  7  8  2  0  0  0  0
  7  9  1  0  0  0  0
  9 15  1  0  0  0  0
  9 10  2  0  0  0  0
 10 12  1  0  0  0  0
 10 11  1  0  0  0  0
 12 13  1  0  0  0  0
 12 34  1  0  0  0  0
 13 28  1  0  0  0  0
 13 14  2  0  0  0  0
 14 15  1  0  0  0  0
 14 24  1  0  0  0  0
 15 16  1  0  0  0  0
 15 17  1  0  0  0  0
 17 22  2  0  0  0  0
 17 18  1  0  0  0  0
 18 19  2  0  0  0  0
 18 35  1  0  0  0  0
 19 20  1  0  0  0  0
 19 36  1  0  0  0  0
 20 21  2  0  0  0  0
 20 23  1  0  0  0  0
 21 22  1  0  0  0  0
 21 37  1  0  0  0  0
 22 38  1  0  0  0  0
 23 39  1  0  0  0  0
 24 25  2  0  0  0  0
 24 26  1  0  0  0  0
 26 27  1  0  0  0  0
 26 40  1  0  0  0  0
 26 41  1  0  0  0  0
 27 28  1  0  0  0  0
 27 42  1  0  0  0  0
 27 43  1  0  0  0  0
 28 44  1  0  0  0  0
 28 45  1  0  0  0  0
M  END
$$$$
ZINC01019851
  -OEChem-08230709453D

 45 48  0     1  0  0  0  0  0999 V2000
   -5.4763    8.5268   -5.1783 C   0  0  0  0  0  0  0  0  0  0  0  0
   -4.5395    7.9919   -4.0933 C   0  0  0  0  0  0  0  0  0  0  0  0
   -2.9427    7.5657   -4.8312 S   0  0  0  0  0  0  0  0  0  0  0  0
   -2.0872    6.9946   -3.4007 C   0  0  0  0  0  0  0  0  0  0  0  0
   -0.8049    6.5514   -3.5229 N   0  0  0  0  0  0  0  0  0  0  0  0
    1.3465    5.4221   -1.6388 H   0  0  0  0  0  0  0  0  0  0  0  0
   -0.1353    6.1068   -2.4385 C   0  0  0  0  0  0  0  0  0  0  0  0
    1.0149    5.7099   -2.5373 O   0  0  0  0  0  0  0  0  0  0  0  0
   -0.7771    6.1308   -1.1949 C   0  0  0  0  0  0  0  0  0  0  0  0
   -2.0809    6.5899   -1.1250 C   0  0  0  0  0  0  0  0  0  0  0  0
   -2.7011    7.0050   -2.2348 N   0  0  0  0  0  0  0  0  0  0  0  0
   -2.7321    6.6157    0.0927 N   0  0  0  0  0  0  0  0  0  0  0  0
   -2.0181    6.5948    1.2620 C   0  0  0  0  0  0  0  0  0  0  0  0
   -0.7452    6.1509    1.2869 C   0  0  0  0  0  0  0  0  0  0  0  0
   -0.0644    5.6551    0.0360 C   0  0  1  0  0  0  0  0  0  0  0  0
    0.9617    6.0222    0.0188 H   0  0  0  0  0  0  0  0  0  0  0  0
   -0.0492    4.1481    0.0460 C   0  0  0  0  0  0  0  0  0  0  0  0
    1.1557    3.4700    0.0334 C   0  0  0  0  0  0  0  0  0  0  0  0
    1.1723    2.0887    0.0421 C   0  0  0  0  0  0  0  0  0  0  0  0
   -0.0212    1.3819    0.0636 C   0  0  0  0  0  0  0  0  0  0  0  0
   -1.2288    2.0646    0.0709 C   0  0  0  0  0  0  0  0  0  0  0  0
   -1.2401    3.4460    0.0674 C   0  0  0  0  0  0  0  0  0  0  0  0
   -0.0074    0.0230    0.0717 O   0  0  0  0  0  0  0  0  0  0  0  0
   -0.0063    6.1361    2.4848 C   0  0  0  0  0  0  0  0  0  0  0  0
    1.1351    5.7191    2.4760 O   0  0  0  0  0  0  0  0  0  0  0  0
   -0.6019    6.6261    3.7758 C   0  0  0  0  0  0  0  0  0  0  0  0
   -1.6624    7.6875    3.4644 C   0  0  0  0  0  0  0  0  0  0  0  0
   -2.6992    7.0731    2.5215 C   0  0  0  0  0  0  0  0  0  0  0  0
   -6.4379    8.7835   -4.7339 H   0  0  0  0  0  0  0  0  0  0  0  0
   -5.0370    9.4153   -5.6319 H   0  0  0  0  0  0  0  0  0  0  0  0
   -5.6213    7.7629   -5.9421 H   0  0  0  0  0  0  0  0  0  0  0  0
   -4.9789    7.1034   -3.6397 H   0  0  0  0  0  0  0  0  0  0  0  0
   -4.3945    8.7558   -3.3294 H   0  0  0  0  0  0  0  0  0  0  0  0
   -3.7011    6.6529    0.1192 H   0  0  0  0  0  0  0  0  0  0  0  0
    2.0847    4.0208    0.0171 H   0  0  0  0  0  0  0  0  0  0  0  0
    2.1138    1.5595    0.0326 H   0  0  0  0  0  0  0  0  0  0  0  0
   -2.1594    1.5166    0.0832 H   0  0  0  0  0  0  0  0  0  0  0  0
   -2.1800    3.9780    0.0773 H   0  0  0  0  0  0  0  0  0  0  0  0
    0.0092   -0.3649    0.9574 H   0  0  0  0  0  0  0  0  0  0  0  0
    0.1176    7.0235    4.3453 H   0  0  0  0  0  0  0  0  0  0  0  0
   -1.0646    5.7921    4.3037 H   0  0  0  0  0  0  0  0  0  0  0  0
   -1.1925    8.5458    2.9840 H   0  0  0  0  0  0  0  0  0  0  0  0
   -2.1477    8.0034    4.3878 H   0  0  0  0  0  0  0  0  0  0  0  0
   -3.4477    7.8235    2.2667 H   0  0  0  0  0  0  0  0  0  0  0  0
   -3.1835    6.2303    3.0147 H   0  0  0  0  0  0  0  0  0  0  0  0
  1  2  1  0  0  0  0
  1 29  1  0  0  0  0
  1 30  1  0  0  0  0
  1 31  1  0  0  0  0
  2  3  1  0  0  0  0
  2 32  1  0  0  0  0
  2 33  1  0  0  0  0
  3  4  1  0  0  0  0
  4 11  2  0  0  0  0
  4  5  1  0  0  0  0
  5  7  2  0  0  0  0
  6  8  1  0  0  0  0
  7  8  1  0  0  0  0
  7  9  1  0  0  0  0
  9 15  1  0  0  0  0
  9 10  2  0  0  0  0
 10 12  1  0  0  0  0
 10 11  1  0  0  0  0
 12 13  1  0  0  0  0
 12 34  1  0  0  0  0
 13 28  1  0  0  0  0
 13 14  2  0  0  0  0
 14 15  1  0  0  0  0
 14 24  1  0  0  0  0
 15 16  1  0  0  0  0
 15 17  1  0  0  0  0
 17 22  2  0  0  0  0
 17 18  1  0  0  0  0
 18 19  2  0  0  0  0
 18 35  1  0  0  0  0
 19 20  1  0  0  0  0
 19 36  1  0  0  0  0
 20 21  2  0  0  0  0
 20 23  1  0  0  0  0
 21 22  1  0  0  0  0
 21 37  1  0  0  0  0
 22 38  1  0  0  0  0
 23 39  1  0  0  0  0
 24 25  2  0  0  0  0
 24 26  1  0  0  0  0
 26 27  1  0  0  0  0
 26 40  1  0  0  0  0
 26 41  1  0  0  0  0
 27 28  1  0  0  0  0
 27 42  1  0  0  0  0
 27 43  1  0  0  0  0
 28 44  1  0  0  0  0
 28 45  1  0  0  0  0
M  END
$$$$
ZINC01026230
  -OEChem-08230709453D

 47 50  0     1  0  0  0  0  0999 V2000
   -1.1173   -5.7043    3.8349 C   0  0  0  0  0  0  0  0  0  0  0  0
    0.0217   -4.9073    3.1958 C   0  0  0  0  0  0  0  0  0  0  0  0
   -0.3665   -3.4290    3.1267 C   0  0  0  0  0  0  0  0  0  0  0  0
    0.7554   -2.6439    2.4972 C   0  0  0  0  0  0  0  0  0  0  0  0
    0.9092   -2.3857    1.1418 C   0  0  0  0  0  0  0  0  0  0  0  0
    2.0477   -1.6470    0.9778 C   0  0  0  0  0  0  0  0  0  0  0  0
    2.5832   -1.4514    2.1934 N   0  0  0  0  0  0  0  0  0  0  0  0
    3.4215   -0.9440    2.3929 H   0  0  0  0  0  0  0  0  0  0  0  0
    1.7572   -2.0858    3.1345 N   0  0  0  0  0  0  0  0  0  0  0  0
    2.4818   -1.2308   -0.2378 O   0  0  0  0  0  0  0  0  0  0  0  0
    1.9176   -1.7902   -1.3274 C   0  0  0  0  0  0  0  0  0  0  0  0
    0.7872   -2.5301   -1.2933 C   0  0  0  0  0  0  0  0  0  0  0  0
    0.0355   -2.8004   -0.0138 C   0  0  2  0  0  0  0  0  0  0  0  0
   -0.1937   -3.8634    0.0613 H   0  0  0  0  0  0  0  0  0  0  0  0
   -1.2428   -2.0024    0.0032 C   0  0  0  0  0  0  0  0  0  0  0  0
   -2.4842   -2.6580    0.0472 C   0  0  0  0  0  0  0  0  0  0  0  0
   -2.5670   -4.0610    0.0773 C   0  0  0  0  0  0  0  0  0  0  0  0
   -3.7869   -4.6628    0.1203 C   0  0  0  0  0  0  0  0  0  0  0  0
   -4.9588   -3.9085    0.1349 C   0  0  0  0  0  0  0  0  0  0  0  0
   -4.9173   -2.5484    0.1068 C   0  0  0  0  0  0  0  0  0  0  0  0
   -3.6761   -1.8911    0.0622 C   0  0  0  0  0  0  0  0  0  0  0  0
   -3.5954   -0.4878    0.0326 C   0  0  0  0  0  0  0  0  0  0  0  0
   -2.3780    0.1170   -0.0041 C   0  0  0  0  0  0  0  0  0  0  0  0
   -1.2008   -0.6376   -0.0246 C   0  0  0  0  0  0  0  0  0  0  0  0
    0.0009   -0.0045   -0.0672 O   0  0  0  0  0  0  0  0  0  0  0  0
   -0.0192    1.4240   -0.0947 C   0  0  0  0  0  0  0  0  0  0  0  0
    0.2844   -3.0778   -2.5172 C   0  0  0  0  0  0  0  0  0  0  0  0
   -0.1145   -3.5122   -3.4881 N   0  0  0  0  0  0  0  0  0  0  0  0
    2.5268   -1.5965   -2.5423 N   0  0  0  0  0  0  0  0  0  0  0  0
   -0.8408   -6.7575    3.8841 H   0  0  0  0  0  0  0  0  0  0  0  0
   -1.3025   -5.3298    4.8416 H   0  0  0  0  0  0  0  0  0  0  0  0
   -2.0201   -5.5934    3.2342 H   0  0  0  0  0  0  0  0  0  0  0  0
    0.2069   -5.2818    2.1891 H   0  0  0  0  0  0  0  0  0  0  0  0
    0.9244   -5.0182    3.7965 H   0  0  0  0  0  0  0  0  0  0  0  0
   -0.5517   -3.0545    4.1334 H   0  0  0  0  0  0  0  0  0  0  0  0
   -1.2692   -3.3181    2.5259 H   0  0  0  0  0  0  0  0  0  0  0  0
   -1.6672   -4.6582    0.0660 H   0  0  0  0  0  0  0  0  0  0  0  0
   -3.8477   -5.7408    0.1433 H   0  0  0  0  0  0  0  0  0  0  0  0
   -5.9142   -4.4109    0.1696 H   0  0  0  0  0  0  0  0  0  0  0  0
   -5.8338   -1.9772    0.1183 H   0  0  0  0  0  0  0  0  0  0  0  0
   -4.4964    0.1075    0.0439 H   0  0  0  0  0  0  0  0  0  0  0  0
   -2.3195    1.1953   -0.0219 H   0  0  0  0  0  0  0  0  0  0  0  0
    1.0030    1.8012   -0.1278 H   0  0  0  0  0  0  0  0  0  0  0  0
   -0.5602    1.7629   -0.9782 H   0  0  0  0  0  0  0  0  0  0  0  0
   -0.5155    1.7978    0.8009 H   0  0  0  0  0  0  0  0  0  0  0  0
    3.3393   -1.0698   -2.5989 H   0  0  0  0  0  0  0  0  0  0  0  0
    2.1446   -1.9863   -3.3441 H   0  0  0  0  0  0  0  0  0  0  0  0
  1  2  1  0  0  0  0
  1 30  1  0  0  0  0
  1 31  1  0  0  0  0
  1 32  1  0  0  0  0
  2  3  1  0  0  0  0
  2 33  1  0  0  0  0
  2 34  1  0  0  0  0
  3  4  1  0  0  0  0
  3 35  1  0  0  0  0
  3 36  1  0  0  0  0
  4  9  2  0  0  0  0
  4  5  1  0  0  0  0
  5 13  1  0  0  0  0
  5  6  2  0  0  0  0
  6  7  1  0  0  0  0
  6 10  1  0  0  0  0
  7  8  1  0  0  0  0
  7  9  1  0  0  0  0
 10 11  1  0  0  0  0
 11 12  2  0  0  0  0
 11 29  1  0  0  0  0
 12 13  1  0  0  0  0
 12 27  1  0  0  0  0
 13 14  1  0  0  0  0
 13 15  1  0  0  0  0
 15 24  2  0  0  0  0
 15 16  1  0  0  0  0
 16 21  2  0  0  0  0
 16 17  1  0  0  0  0
 17 18  2  0  0  0  0
 17 37  1  0  0  0  0
 18 19  1  0  0  0  0
 18 38  1  0  0  0  0
 19 20  2  0  0  0  0
 19 39  1  0  0  0  0
 20 21  1  0  0  0  0
 20 40  1  0  0  0  0
 21 22  1  0  0  0  0
 22 23  2  0  0  0  0
 22 41  1  0  0  0  0
 23 24  1  0  0  0  0
 23 42  1  0  0  0  0
 24 25  1  0  0  0  0
 25 26  1  0  0  0  0
 26 43  1  0  0  0  0
 26 44  1  0  0  0  0
 26 45  1  0  0  0  0
 27 28  3  0  0  0  0
 29 46  1  0  0  0  0
 29 47  1  0  0  0  0
M  END
$$$$
ZINC01026230
  -OEChem-08230709453D

 47 50  0     1  0  0  0  0  0999 V2000
   -1.1203   -5.7014    3.8357 C   0  0  0  0  0  0  0  0  0  0  0  0
    0.0193   -4.9053    3.1965 C   0  0  0  0  0  0  0  0  0  0  0  0
   -0.3679   -3.4268    3.1270 C   0  0  0  0  0  0  0  0  0  0  0  0
    0.7546   -2.6426    2.4974 C   0  0  0  0  0  0  0  0  0  0  0  0
    0.9087   -2.3849    1.1419 C   0  0  0  0  0  0  0  0  0  0  0  0
    2.0477   -1.6469    0.9778 C   0  0  0  0  0  0  0  0  0  0  0  0
    2.5831   -1.4513    2.1934 N   0  0  0  0  0  0  0  0  0  0  0  0
    1.9074   -2.1093    4.1229 H   0  0  0  0  0  0  0  0  0  0  0  0
    1.7572   -2.0857    3.1345 N   0  0  0  0  0  0  0  0  0  0  0  0
    2.4818   -1.2307   -0.2378 O   0  0  0  0  0  0  0  0  0  0  0  0
    1.9177   -1.7908   -1.3274 C   0  0  0  0  0  0  0  0  0  0  0  0
    0.7869   -2.5299   -1.2932 C   0  0  0  0  0  0  0  0  0  0  0  0
    0.0348   -2.7994   -0.0137 C   0  0  2  0  0  0  0  0  0  0  0  0
   -0.1951   -3.8622    0.0617 H   0  0  0  0  0  0  0  0  0  0  0  0
   -1.2429   -2.0005    0.0030 C   0  0  0  0  0  0  0  0  0  0  0  0
   -2.4848   -2.6553    0.0470 C   0  0  0  0  0  0  0  0  0  0  0  0
   -2.5685   -4.0582    0.0775 C   0  0  0  0  0  0  0  0  0  0  0  0
   -3.7888   -4.6592    0.1206 C   0  0  0  0  0  0  0  0  0  0  0  0
   -4.9602   -3.9041    0.1348 C   0  0  0  0  0  0  0  0  0  0  0  0
   -4.9178   -2.5440    0.1063 C   0  0  0  0  0  0  0  0  0  0  0  0
   -3.6762   -1.8876    0.0617 C   0  0  0  0  0  0  0  0  0  0  0  0
   -3.5945   -0.4843    0.0317 C   0  0  0  0  0  0  0  0  0  0  0  0
   -2.3767    0.1196   -0.0051 C   0  0  0  0  0  0  0  0  0  0  0  0
   -1.2000   -0.6357   -0.0252 C   0  0  0  0  0  0  0  0  0  0  0  0
    0.0021   -0.0035   -0.0679 O   0  0  0  0  0  0  0  0  0  0  0  0
   -0.0171    1.4251   -0.0958 C   0  0  0  0  0  0  0  0  0  0  0  0
    0.2839   -3.0777   -2.5170 C   0  0  0  0  0  0  0  0  0  0  0  0
   -0.1152   -3.5121   -3.4878 N   0  0  0  0  0  0  0  0  0  0  0  0
    2.5272   -1.5978   -2.5423 N   0  0  0  0  0  0  0  0  0  0  0  0
   -0.8445   -6.7547    3.8853 H   0  0  0  0  0  0  0  0  0  0  0  0
   -1.3053   -5.3265    4.8423 H   0  0  0  0  0  0  0  0  0  0  0  0
   -2.0229   -5.5901    3.2349 H   0  0  0  0  0  0  0  0  0  0  0  0
    0.2044   -5.2802    2.1900 H   0  0  0  0  0  0  0  0  0  0  0  0
    0.9219   -5.0166    3.7974 H   0  0  0  0  0  0  0  0  0  0  0  0
   -0.5530   -3.0519    4.1335 H   0  0  0  0  0  0  0  0  0  0  0  0
   -1.2705   -3.3155    2.5260 H   0  0  0  0  0  0  0  0  0  0  0  0
   -1.6691   -4.6560    0.0665 H   0  0  0  0  0  0  0  0  0  0  0  0
   -3.8503   -5.7371    0.1439 H   0  0  0  0  0  0  0  0  0  0  0  0
   -5.9159   -4.4059    0.1696 H   0  0  0  0  0  0  0  0  0  0  0  0
   -5.8339   -1.9722    0.1176 H   0  0  0  0  0  0  0  0  0  0  0  0
   -4.4951    0.1116    0.0427 H   0  0  0  0  0  0  0  0  0  0  0  0
   -2.3175    1.1979   -0.0232 H   0  0  0  0  0  0  0  0  0  0  0  0
    1.0054    1.8016   -0.1289 H   0  0  0  0  0  0  0  0  0  0  0  0
   -0.5577    1.7641   -0.9795 H   0  0  0  0  0  0  0  0  0  0  0  0
   -0.5132    1.7994    0.7996 H   0  0  0  0  0  0  0  0  0  0  0  0
    3.3400   -1.0716   -2.5989 H   0  0  0  0  0  0  0  0  0  0  0  0
    2.1449   -1.9876   -3.3440 H   0  0  0  0  0  0  0  0  0  0  0  0
  1  2  1  0  0  0  0
  1 30  1  0  0  0  0
  1 31  1  0  0  0  0
  1 32  1  0  0  0  0
  2  3  1  0  0  0  0
  2 33  1  0  0  0  0
  2 34  1  0  0  0  0
  3  4  1  0  0  0  0
  3 35  1  0  0  0  0
  3 36  1  0  0  0  0
  4  5  2  0  0  0  0
  4  9  1  0  0  0  0
  5 13  1  0  0  0  0
  5  6  1  0  0  0  0
  6 10  1  0  0  0  0
  6  7  2  0  0  0  0
  7  9  1  0  0  0  0
  8  9  1  0  0  0  0
 10 11  1  0  0  0  0
 11 12  2  0  0  0  0
 11 29  1  0  0  0  0
 12 13  1  0  0  0  0
 12 27  1  0  0  0  0
 13 14  1  0  0  0  0
 13 15  1  0  0  0  0
 15 24  2  0  0  0  0
 15 16  1  0  0  0  0
 16 21  2  0  0  0  0
 16 17  1  0  0  0  0
 17 18  2  0  0  0  0
 17 37  1  0  0  0  0
 18 19  1  0  0  0  0
 18 38  1  0  0  0  0
 19 20  2  0  0  0  0
 19 39  1  0  0  0  0
 20 21  1  0  0  0  0
 20 40  1  0  0  0  0
 21 22  1  0  0  0  0
 22 23  2  0  0  0  0
 22 41  1  0  0  0  0
 23 24  1  0  0  0  0
 23 42  1  0  0  0  0
 24 25  1  0  0  0  0
 25 26  1  0  0  0  0
 26 43  1  0  0  0  0
 26 44  1  0  0  0  0
 26 45  1  0  0  0  0
 27 28  3  0  0  0  0
 29 46  1  0  0  0  0
 29 47  1  0  0  0  0
M  END
$$$$
ZINC01026325
  -OEChem-08230709453D

 43 44  0     0  0  0  0  0  0999 V2000
    3.7112   -0.7071   -0.0382 C   0  0  0  0  0  0  0  0  0  0  0  0
    2.3960    0.0285   -0.0217 C   0  0  0  0  0  0  0  0  0  0  0  0
    1.2084   -0.6789   -0.0132 C   0  0  0  0  0  0  0  0  0  0  0  0
    0.0021   -0.0041    0.0020 C   0  0  0  0  0  0  0  0  0  0  0  0
   -0.0167    1.3781    0.0096 C   0  0  0  0  0  0  0  0  0  0  0  0
    1.1709    2.0855    0.0021 C   0  0  0  0  0  0  0  0  0  0  0  0
    2.3773    1.4107   -0.0145 C   0  0  0  0  0  0  0  0  0  0  0  0
   -1.5544    2.2383    0.0216 S   0  0  0  0  0  0  0  0  0  0  0  0
   -1.3035    3.5264   -0.5234 O   0  0  0  0  0  0  0  0  0  0  0  0
   -2.5194    1.3527   -0.5295 O   0  0  0  0  0  0  0  0  0  0  0  0
   -1.9742    2.4687    1.6068 N   0  0  0  0  0  0  0  0  0  0  0  0
   -1.1916    3.2808    2.4232 C   0  0  0  0  0  0  0  0  0  0  0  0
   -0.5575    4.4041    1.9326 C   0  0  0  0  0  0  0  0  0  0  0  0
    0.1884    5.1633    2.7726 C   0  0  0  0  0  0  0  0  0  0  0  0
    0.0524    4.3370    4.2901 S   0  0  0  0  0  0  0  0  0  0  0  0
   -1.0055    2.9960    3.7754 C   0  0  0  0  0  0  0  0  0  0  0  0
   -1.5208    1.9225    4.5400 C   0  0  0  0  0  0  0  0  0  0  0  0
   -2.2357    1.0883    4.0142 O   0  0  0  0  0  0  0  0  0  0  0  0
   -1.2203    1.8231    5.8501 N   0  0  0  0  0  0  0  0  0  0  0  0
    0.9572    6.4212    2.4601 C   0  0  0  0  0  0  0  0  0  0  0  0
   -0.0065    7.4945    1.9501 C   0  0  0  0  0  0  0  0  0  0  0  0
    1.6534    6.9215    3.7273 C   0  0  0  0  0  0  0  0  0  0  0  0
    2.0053    6.1247    1.3856 C   0  0  0  0  0  0  0  0  0  0  0  0
    4.0180   -0.8797   -1.0698 H   0  0  0  0  0  0  0  0  0  0  0  0
    4.4678   -0.1102    0.4709 H   0  0  0  0  0  0  0  0  0  0  0  0
    3.5989   -1.6636    0.4722 H   0  0  0  0  0  0  0  0  0  0  0  0
    1.2231   -1.7588   -0.0188 H   0  0  0  0  0  0  0  0  0  0  0  0
   -0.9258   -0.5567    0.0083 H   0  0  0  0  0  0  0  0  0  0  0  0
    1.1563    3.1654    0.0077 H   0  0  0  0  0  0  0  0  0  0  0  0
    3.3051    1.9634   -0.0208 H   0  0  0  0  0  0  0  0  0  0  0  0
   -2.7653    2.0379    1.9666 H   0  0  0  0  0  0  0  0  0  0  0  0
   -0.6577    4.6775    0.8926 H   0  0  0  0  0  0  0  0  0  0  0  0
   -0.6509    2.4874    6.2689 H   0  0  0  0  0  0  0  0  0  0  0  0
   -1.5735    1.0872    6.3742 H   0  0  0  0  0  0  0  0  0  0  0  0
   -0.7532    7.7057    2.7155 H   0  0  0  0  0  0  0  0  0  0  0  0
    0.5495    8.4043    1.7240 H   0  0  0  0  0  0  0  0  0  0  0  0
   -0.5025    7.1380    1.0473 H   0  0  0  0  0  0  0  0  0  0  0  0
    2.3400    6.1569    4.0907 H   0  0  0  0  0  0  0  0  0  0  0  0
    2.2095    7.8314    3.5013 H   0  0  0  0  0  0  0  0  0  0  0  0
    0.9068    7.1328    4.4928 H   0  0  0  0  0  0  0  0  0  0  0  0
    1.5093    5.7683    0.4828 H   0  0  0  0  0  0  0  0  0  0  0  0
    2.5614    7.0346    1.1596 H   0  0  0  0  0  0  0  0  0  0  0  0
    2.6919    5.3601    1.7490 H   0  0  0  0  0  0  0  0  0  0  0  0
  1  2  1  0  0  0  0
  1 24  1  0  0  0  0
  1 25  1  0  0  0  0
  1 26  1  0  0  0  0
  2  7  2  0  0  0  0
  2  3  1  0  0  0  0
  3  4  2  0  0  0  0
  3 27  1  0  0  0  0
  4  5  1  0  0  0  0
  4 28  1  0  0  0  0
  5  6  2  0  0  0  0
  5  8  1  0  0  0  0
  6  7  1  0  0  0  0
  6 29  1  0  0  0  0
  7 30  1  0  0  0  0
  8  9  2  0  0  0  0
  8 10  2  0  0  0  0
  8 11  1  0  0  0  0
 11 12  1  0  0  0  0
 11 31  1  0  0  0  0
 12 16  2  0  0  0  0
 12 13  1  0  0  0  0
 13 14  2  0  0  0  0
 13 32  1  0  0  0  0
 14 15  1  0  0  0  0
 14 20  1  0  0  0  0
 15 16  1  0  0  0  0
 16 17  1  0  0  0  0
 17 18  2  0  0  0  0
 17 19  1  0  0  0  0
 19 33  1  0  0  0  0
 19 34  1  0  0  0  0
 20 21  1  0  0  0  0
 20 22  1  0  0  0  0
 20 23  1  0  0  0  0
 21 35  1  0  0  0  0
 21 36  1  0  0  0  0
 21 37  1  0  0  0  0
 22 38  1  0  0  0  0
 22 39  1  0  0  0  0
 22 40  1  0  0  0  0
 23 41  1  0  0  0  0
 23 42  1  0  0  0  0
 23 43  1  0  0  0  0
M  END
$$$$
ZINC01048187
  -OEChem-08230709453D

 49 51  0     1  0  0  0  0  0999 V2000
   -0.7747    2.7032    1.1100 C   0  0  0  0  0  0  0  0  0  0  0  0
    0.4737    3.3822    0.5431 C   0  0  0  0  0  0  0  0  0  0  0  0
    1.1435    4.2807    1.6273 C   0  0  2  0  0  0  0  0  0  0  0  0
    0.4651    4.8755    2.2388 H   0  0  0  0  0  0  0  0  0  0  0  0
    2.2383    5.0763    0.8529 C   0  0  0  0  0  0  0  0  0  0  0  0
    3.3223    4.0260    0.5193 C   0  0  0  0  0  0  0  0  0  0  0  0
    2.7804    2.6947    1.1235 C   0  0  1  0  0  0  0  0  0  0  0  0
    3.5212    1.9144    1.2982 H   0  0  0  0  0  0  0  0  0  0  0  0
    2.0306    3.2357    2.3918 C   0  0  0  0  0  0  0  0  0  0  0  0
    1.5850    2.3054    0.2011 C   0  0  1  0  0  0  0  0  0  0  0  0
    1.1019    0.8898    0.5228 C   0  0  0  0  0  0  0  0  0  0  0  0
    1.9733    2.4059   -1.2079 N   0  0  0  0  0  0  0  0  0  0  0  0
    2.9702    1.6368   -1.6887 C   0  0  0  0  0  0  0  0  0  0  0  0
    3.7826    0.5423   -0.6528 S   0  0  0  0  0  0  0  0  0  0  0  0
    3.3274    1.7292   -2.9850 N   0  0  0  0  0  0  0  0  0  0  0  0
    2.6625    2.6248   -3.8327 N   0  0  0  0  0  0  0  0  0  0  0  0
    2.9172    2.6244   -5.1056 C   0  0  0  0  0  0  0  0  0  0  0  0
    3.5050    1.4310   -5.7389 C   0  0  0  0  0  0  0  0  0  0  0  0
    3.3317    0.1718   -5.1586 C   0  0  0  0  0  0  0  0  0  0  0  0
    3.8794   -0.9422   -5.7563 C   0  0  0  0  0  0  0  0  0  0  0  0
    4.6127   -0.8170   -6.9303 C   0  0  0  0  0  0  0  0  0  0  0  0
    4.7949    0.4295   -7.5113 C   0  0  0  0  0  0  0  0  0  0  0  0
    4.2455    1.5551   -6.9230 C   0  0  0  0  0  0  0  0  0  0  0  0
    4.4227    2.7760   -7.4909 O   0  0  0  0  0  0  0  0  0  0  0  0
    5.1536   -1.9196   -7.5110 O   0  0  0  0  0  0  0  0  0  0  0  0
    0.1141    4.2130   -0.6903 C   0  0  0  0  0  0  0  0  0  0  0  0
   -1.4980    3.4626    1.4074 H   0  0  0  0  0  0  0  0  0  0  0  0
   -1.2158    2.0598    0.3487 H   0  0  0  0  0  0  0  0  0  0  0  0
   -0.4999    2.1036    1.9778 H   0  0  0  0  0  0  0  0  0  0  0  0
    2.6529    5.8634    1.4827 H   0  0  0  0  0  0  0  0  0  0  0  0
    1.8245    5.4993   -0.0625 H   0  0  0  0  0  0  0  0  0  0  0  0
    4.2698    4.2968    0.9850 H   0  0  0  0  0  0  0  0  0  0  0  0
    3.4415    3.9327   -0.5602 H   0  0  0  0  0  0  0  0  0  0  0  0
    1.4407    2.4599    2.8798 H   0  0  0  0  0  0  0  0  0  0  0  0
    2.7092    3.7264    3.0895 H   0  0  0  0  0  0  0  0  0  0  0  0
    0.8018    0.8374    1.5694 H   0  0  0  0  0  0  0  0  0  0  0  0
    0.2508    0.6432   -0.1120 H   0  0  0  0  0  0  0  0  0  0  0  0
    1.9090    0.1802    0.3403 H   0  0  0  0  0  0  0  0  0  0  0  0
    1.5130    3.0260   -1.7948 H   0  0  0  0  0  0  0  0  0  0  0  0
    4.0449    1.1756   -3.3310 H   0  0  0  0  0  0  0  0  0  0  0  0
    2.6981    3.4987   -5.7005 H   0  0  0  0  0  0  0  0  0  0  0  0
    2.7660    0.0714   -4.2442 H   0  0  0  0  0  0  0  0  0  0  0  0
    3.7417   -1.9155   -5.3090 H   0  0  0  0  0  0  0  0  0  0  0  0
    5.3661    0.5215   -8.4233 H   0  0  0  0  0  0  0  0  0  0  0  0
    5.2505    3.2092   -7.2419 H   0  0  0  0  0  0  0  0  0  0  0  0
    6.0477   -2.1262   -7.2061 H   0  0  0  0  0  0  0  0  0  0  0  0
    1.0275    4.5535   -1.1779 H   0  0  0  0  0  0  0  0  0  0  0  0
   -0.4623    3.6017   -1.3847 H   0  0  0  0  0  0  0  0  0  0  0  0
   -0.4791    5.0756   -0.3870 H   0  0  0  0  0  0  0  0  0  0  0  0
  1  2  1  0  0  0  0
  1 27  1  0  0  0  0
  1 28  1  0  0  0  0
  1 29  1  0  0  0  0
  2 10  1  0  0  0  0
  2  3  1  0  0  0  0
  2 26  1  0  0  0  0
  3  4  1  0  0  0  0
  3  9  1  0  0  0  0
  3  5  1  0  0  0  0
  5  6  1  0  0  0  0
  5 30  1  0  0  0  0
  5 31  1  0  0  0  0
  6  7  1  0  0  0  0
  6 32  1  0  0  0  0
  6 33  1  0  0  0  0
  7  8  1  0  0  0  0
  7  9  1  0  0  0  0
  7 10  1  0  0  0  0
  9 34  1  0  0  0  0
  9 35  1  0  0  0  0
 10 11  1  0  0  0  0
 10 12  1  0  0  0  0
 11 36  1  0  0  0  0
 11 37  1  0  0  0  0
 11 38  1  0  0  0  0
 12 13  1  0  0  0  0
 12 39  1  0  0  0  0
 13 14  2  0  0  0  0
 13 15  1  0  0  0  0
 15 16  1  0  0  0  0
 15 40  1  0  0  0  0
 16 17  2  3  0  0  0
 17 18  1  0  0  0  0
 17 41  1  0  0  0  0
 18 23  2  0  0  0  0
 18 19  1  0  0  0  0
 19 20  2  0  0  0  0
 19 42  1  0  0  0  0
 20 21  1  0  0  0  0
 20 43  1  0  0  0  0
 21 22  2  0  0  0  0
 21 25  1  0  0  0  0
 22 23  1  0  0  0  0
 22 44  1  0  0  0  0
 23 24  1  0  0  0  0
 24 45  1  0  0  0  0
 25 46  1  0  0  0  0
 26 47  1  0  0  0  0
 26 48  1  0  0  0  0
 26 49  1  0  0  0  0
M  END
$$$$
ZINC01049914
  -OEChem-08230709453D

 42 43  0     0  0  0  0  0  0999 V2000
    2.2212   -0.4997    0.0715 C   0  0  0  0  0  0  0  0  0  0  0  0
    2.2991    0.8990    0.3535 O   0  0  0  0  0  0  0  0  0  0  0  0
    1.1291    1.5875    0.3857 C   0  0  0  0  0  0  0  0  0  0  0  0
   -0.0696    0.9276    0.1500 C   0  0  0  0  0  0  0  0  0  0  0  0
   -1.2589    1.6226    0.1758 C   0  0  0  0  0  0  0  0  0  0  0  0
   -1.2617    2.9927    0.4510 C   0  0  0  0  0  0  0  0  0  0  0  0
   -0.0551    3.6571    0.6878 C   0  0  0  0  0  0  0  0  0  0  0  0
    1.1342    2.9554    0.6548 C   0  0  0  0  0  0  0  0  0  0  0  0
    2.3100    3.5987    0.8852 O   0  0  0  0  0  0  0  0  0  0  0  0
    2.2407    5.0004    1.1543 C   0  0  0  0  0  0  0  0  0  0  0  0
   -2.5348    3.7372    0.4856 C   0  0  0  0  0  0  0  0  0  0  0  0
   -2.5352    4.9299    0.7202 O   0  0  0  0  0  0  0  0  0  0  0  0
   -3.6975    3.0950    0.2570 N   0  0  0  0  0  0  0  0  0  0  0  0
   -4.8606    3.7752    0.2886 C   0  0  0  0  0  0  0  0  0  0  0  0
   -4.8612    5.4550    0.6190 S   0  0  0  0  0  0  0  0  0  0  0  0
   -6.0233    3.1330    0.0600 N   0  0  0  0  0  0  0  0  0  0  0  0
   -7.2310    3.8127    0.1898 C   0  0  0  0  0  0  0  0  0  0  0  0
   -7.3943    5.0630   -0.3923 C   0  0  0  0  0  0  0  0  0  0  0  0
   -8.5946    5.7325   -0.2672 C   0  0  0  0  0  0  0  0  0  0  0  0
   -9.6401    5.1703    0.4477 C   0  0  0  0  0  0  0  0  0  0  0  0
   -9.4945    3.9333    1.0370 C   0  0  0  0  0  0  0  0  0  0  0  0
   -8.2876    3.2407    0.9143 C   0  0  0  0  0  0  0  0  0  0  0  0
   -8.1248    1.9164    1.5429 C   0  0  0  0  0  0  0  0  0  0  0  0
   -7.0431    1.3615    1.5203 O   0  0  0  0  0  0  0  0  0  0  0  0
   -9.1751    1.3214    2.1425 N   0  0  0  0  0  0  0  0  0  0  0  0
    3.2237   -0.9276    0.0758 H   0  0  0  0  0  0  0  0  0  0  0  0
    1.6135   -0.9904    0.8317 H   0  0  0  0  0  0  0  0  0  0  0  0
    1.7671   -0.6481   -0.9082 H   0  0  0  0  0  0  0  0  0  0  0  0
   -0.0693   -0.1321   -0.0585 H   0  0  0  0  0  0  0  0  0  0  0  0
   -2.1895    1.1077   -0.0123 H   0  0  0  0  0  0  0  0  0  0  0  0
   -0.0525    4.7169    0.8958 H   0  0  0  0  0  0  0  0  0  0  0  0
    1.7888    5.5117    0.3044 H   0  0  0  0  0  0  0  0  0  0  0  0
    1.6348    5.1700    2.0444 H   0  0  0  0  0  0  0  0  0  0  0  0
    3.2457    5.3888    1.3196 H   0  0  0  0  0  0  0  0  0  0  0  0
   -3.6972    2.1432    0.0698 H   0  0  0  0  0  0  0  0  0  0  0  0
   -6.0184    2.1971   -0.1950 H   0  0  0  0  0  0  0  0  0  0  0  0
   -6.5827    5.5098   -0.9473 H   0  0  0  0  0  0  0  0  0  0  0  0
   -8.7183    6.7026   -0.7255 H   0  0  0  0  0  0  0  0  0  0  0  0
  -10.5738    5.7046    0.5438 H   0  0  0  0  0  0  0  0  0  0  0  0
  -10.3124    3.4999    1.5933 H   0  0  0  0  0  0  0  0  0  0  0  0
  -10.0379    1.7641    2.1605 H   0  0  0  0  0  0  0  0  0  0  0  0
   -9.0680    0.4505    2.5559 H   0  0  0  0  0  0  0  0  0  0  0  0
  1  2  1  0  0  0  0
  1 26  1  0  0  0  0
  1 27  1  0  0  0  0
  1 28  1  0  0  0  0
  2  3  1  0  0  0  0
  3  8  2  0  0  0  0
  3  4  1  0  0  0  0
  4  5  2  0  0  0  0
  4 29  1  0  0  0  0
  5  6  1  0  0  0  0
  5 30  1  0  0  0  0
  6  7  2  0  0  0  0
  6 11  1  0  0  0  0
  7  8  1  0  0  0  0
  7 31  1  0  0  0  0
  8  9  1  0  0  0  0
  9 10  1  0  0  0  0
 10 32  1  0  0  0  0
 10 33  1  0  0  0  0
 10 34  1  0  0  0  0
 11 12  2  0  0  0  0
 11 13  1  0  0  0  0
 13 14  1  0  0  0  0
 13 35  1  0  0  0  0
 14 15  2  0  0  0  0
 14 16  1  0  0  0  0
 16 17  1  0  0  0  0
 16 36  1  0  0  0  0
 17 22  2  0  0  0  0
 17 18  1  0  0  0  0
 18 19  2  0  0  0  0
 18 37  1  0  0  0  0
 19 20  1  0  0  0  0
 19 38  1  0  0  0  0
 20 21  2  0  0  0  0
 20 39  1  0  0  0  0
 21 22  1  0  0  0  0
 21 40  1  0  0  0  0
 22 23  1  0  0  0  0
 23 24  2  0  0  0  0
 23 25  1  0  0  0  0
 25 41  1  0  0  0  0
 25 42  1  0  0  0  0
M  END
$$$$
ZINC01052411
  -OEChem-08230709453D

 41 43  0     1  0  0  0  0  0999 V2000
   -7.0491    3.9986    8.8830 C   0  0  0  0  0  0  0  0  0  0  0  0
   -5.7824    4.4077    8.5101 C   0  0  0  0  0  0  0  0  0  0  0  0
   -5.5894    5.0386    7.2954 C   0  0  0  0  0  0  0  0  0  0  0  0
   -6.6631    5.2599    6.4532 C   0  0  0  0  0  0  0  0  0  0  0  0
   -7.9306    4.8554    6.8283 C   0  0  0  0  0  0  0  0  0  0  0  0
   -8.1229    4.2207    8.0412 C   0  0  0  0  0  0  0  0  0  0  0  0
   -6.4527    5.9476    5.1289 C   0  0  0  0  0  0  0  0  0  0  0  0
   -6.1573    4.9176    4.0693 C   0  0  0  0  0  0  0  0  0  0  0  0
   -7.0248    4.2641    3.2756 C   0  0  0  0  0  0  0  0  0  0  0  0
   -6.4731    3.3223    2.3310 C   0  0  0  0  0  0  0  0  0  0  0  0
   -5.0918    3.1683    2.3361 C   0  0  0  0  0  0  0  0  0  0  0  0
   -4.5757    4.2717    3.5667 S   0  0  0  0  0  0  0  0  0  0  0  0
   -4.3149    2.3369    1.5436 N   0  0  0  0  0  0  0  0  0  0  0  0
   -2.9750    2.3270    1.6886 C   0  0  0  0  0  0  0  0  0  0  0  0
   -2.4488    3.0451    2.5122 O   0  0  0  0  0  0  0  0  0  0  0  0
   -2.1306    1.4234    0.8274 C   0  0  1  0  0  0  0  0  0  0  0  0
   -2.4406    0.3853    0.9471 H   0  0  0  0  0  0  0  0  0  0  0  0
   -2.2297    1.8468   -0.6549 C   0  0  0  0  0  0  0  0  0  0  0  0
   -0.8044    1.6196   -1.2064 C   0  0  0  0  0  0  0  0  0  0  0  0
   -0.0127    1.0858    0.0080 C   0  0  0  0  0  0  0  0  0  0  0  0
   -0.7310    1.5725    1.1626 O   0  0  0  0  0  0  0  0  0  0  0  0
   -7.3283    2.5622    1.4141 C   0  0  0  0  0  0  0  0  0  0  0  0
   -6.8316    1.7729    0.6320 O   0  0  0  0  0  0  0  0  0  0  0  0
   -8.6644    2.7376    1.4373 N   0  0  0  0  0  0  0  0  0  0  0  0
   -7.1997    3.5050    9.8317 H   0  0  0  0  0  0  0  0  0  0  0  0
   -4.9434    4.2342    9.1678 H   0  0  0  0  0  0  0  0  0  0  0  0
   -4.5998    5.3583    7.0041 H   0  0  0  0  0  0  0  0  0  0  0  0
   -8.7701    5.0322    6.1723 H   0  0  0  0  0  0  0  0  0  0  0  0
   -9.1124    3.9007    8.3323 H   0  0  0  0  0  0  0  0  0  0  0  0
   -5.6136    6.6388    5.2077 H   0  0  0  0  0  0  0  0  0  0  0  0
   -7.3534    6.4989    4.8586 H   0  0  0  0  0  0  0  0  0  0  0  0
   -8.0885    4.4397    3.3396 H   0  0  0  0  0  0  0  0  0  0  0  0
   -4.7357    1.7626    0.8849 H   0  0  0  0  0  0  0  0  0  0  0  0
   -2.5068    2.8980   -0.7342 H   0  0  0  0  0  0  0  0  0  0  0  0
   -2.9482    1.2205   -1.1838 H   0  0  0  0  0  0  0  0  0  0  0  0
   -0.3768    2.5585   -1.5583 H   0  0  0  0  0  0  0  0  0  0  0  0
   -0.8161    0.8819   -2.0088 H   0  0  0  0  0  0  0  0  0  0  0  0
    0.0021   -0.0041    0.0020 H   0  0  0  0  0  0  0  0  0  0  0  0
    1.0041    1.4784    0.0004 H   0  0  0  0  0  0  0  0  0  0  0  0
   -9.0602    3.3667    2.0606 H   0  0  0  0  0  0  0  0  0  0  0  0
   -9.2302    2.2347    0.8307 H   0  0  0  0  0  0  0  0  0  0  0  0
  1  6  2  0  0  0  0
  1  2  1  0  0  0  0
  1 25  1  0  0  0  0
  2  3  2  0  0  0  0
  2 26  1  0  0  0  0
  3  4  1  0  0  0  0
  3 27  1  0  0  0  0
  4  5  2  0  0  0  0
  4  7  1  0  0  0  0
  5  6  1  0  0  0  0
  5 28  1  0  0  0  0
  6 29  1  0  0  0  0
  7  8  1  0  0  0  0
  7 30  1  0  0  0  0
  7 31  1  0  0  0  0
  8 12  1  0  0  0  0
  8  9  2  0  0  0  0
  9 10  1  0  0  0  0
  9 32  1  0  0  0  0
 10 11  2  0  0  0  0
 10 22  1  0  0  0  0
 11 12  1  0  0  0  0
 11 13  1  0  0  0  0
 13 14  1  0  0  0  0
 13 33  1  0  0  0  0
 14 15  2  0  0  0  0
 14 16  1  0  0  0  0
 16 17  1  0  0  0  0
 16 21  1  0  0  0  0
 16 18  1  0  0  0  0
 18 19  1  0  0  0  0
 18 34  1  0  0  0  0
 18 35  1  0  0  0  0
 19 20  1  0  0  0  0
 19 36  1  0  0  0  0
 19 37  1  0  0  0  0
 20 21  1  0  0  0  0
 20 38  1  0  0  0  0
 20 39  1  0  0  0  0
 22 23  2  0  0  0  0
 22 24  1  0  0  0  0
 24 40  1  0  0  0  0
 24 41  1  0  0  0  0
M  END
$$$$
ZINC01053479
  -OEChem-08230709453D

 44 45  0     0  0  0  0  0  0999 V2000
   -3.3054    1.7048    1.2762 C   0  0  0  0  0  0  0  0  0  0  0  0
   -2.5767    1.2208    0.0209 C   0  0  0  0  0  0  0  0  0  0  0  0
   -3.3174    1.7176   -1.2223 C   0  0  0  0  0  0  0  0  0  0  0  0
   -1.1699    1.7613    0.0170 C   0  0  0  0  0  0  0  0  0  0  0  0
   -0.0126    1.0758    0.0080 C   0  0  0  0  0  0  0  0  0  0  0  0
    1.2090    1.8449    0.0004 C   0  0  0  0  0  0  0  0  0  0  0  0
    1.0763    3.2288    0.0086 C   0  0  0  0  0  0  0  0  0  0  0  0
   -0.6395    3.4612    0.0258 S   0  0  0  0  0  0  0  0  0  0  0  0
    2.0750    4.1892    0.0045 N   0  0  0  0  0  0  0  0  0  0  0  0
    1.7517    5.4975    0.0141 C   0  0  0  0  0  0  0  0  0  0  0  0
    0.5836    5.8351    0.0263 O   0  0  0  0  0  0  0  0  0  0  0  0
    2.8148    6.5199    0.0097 C   0  0  0  0  0  0  0  0  0  0  0  0
    4.1591    6.1357   -0.0043 C   0  0  0  0  0  0  0  0  0  0  0  0
    5.1491    7.0934   -0.0088 C   0  0  0  0  0  0  0  0  0  0  0  0
    4.8209    8.4394    0.0005 C   0  0  0  0  0  0  0  0  0  0  0  0
    3.4946    8.8357    0.0144 C   0  0  0  0  0  0  0  0  0  0  0  0
    2.4829    7.8800    0.0137 C   0  0  0  0  0  0  0  0  0  0  0  0
    1.1811    8.2646    0.0217 O   0  0  0  0  0  0  0  0  0  0  0  0
    0.5661    8.4464    1.2987 C   0  0  0  0  0  0  0  0  0  0  0  0
    3.1802   10.1589    0.0230 O   0  0  0  0  0  0  0  0  0  0  0  0
    4.2690   11.0844    0.0170 C   0  0  0  0  0  0  0  0  0  0  0  0
    2.5247    1.1985   -0.0146 C   0  0  0  0  0  0  0  0  0  0  0  0
    3.5357    1.8762   -0.0202 O   0  0  0  0  0  0  0  0  0  0  0  0
    2.6148   -0.1462   -0.0223 N   0  0  0  0  0  0  0  0  0  0  0  0
   -3.3348    2.7943    1.2819 H   0  0  0  0  0  0  0  0  0  0  0  0
   -4.3229    1.3138    1.2790 H   0  0  0  0  0  0  0  0  0  0  0  0
   -2.7778    1.3509    2.1618 H   0  0  0  0  0  0  0  0  0  0  0  0
   -2.5473    0.1312    0.0152 H   0  0  0  0  0  0  0  0  0  0  0  0
   -2.7982    1.3728   -2.1165 H   0  0  0  0  0  0  0  0  0  0  0  0
   -4.3348    1.3266   -1.2194 H   0  0  0  0  0  0  0  0  0  0  0  0
   -3.3467    2.8071   -1.2165 H   0  0  0  0  0  0  0  0  0  0  0  0
    0.0021   -0.0041    0.0020 H   0  0  0  0  0  0  0  0  0  0  0  0
    3.0068    3.9199   -0.0052 H   0  0  0  0  0  0  0  0  0  0  0  0
    4.4213    5.0880   -0.0112 H   0  0  0  0  0  0  0  0  0  0  0  0
    6.1866    6.7935   -0.0193 H   0  0  0  0  0  0  0  0  0  0  0  0
    5.6039    9.1833   -0.0035 H   0  0  0  0  0  0  0  0  0  0  0  0
   -0.4710    8.7528    1.1622 H   0  0  0  0  0  0  0  0  0  0  0  0
    0.5980    7.5091    1.8540 H   0  0  0  0  0  0  0  0  0  0  0  0
    1.1023    9.2161    1.8539 H   0  0  0  0  0  0  0  0  0  0  0  0
    3.8803   12.1027    0.0250 H   0  0  0  0  0  0  0  0  0  0  0  0
    4.8868   10.9244    0.9007 H   0  0  0  0  0  0  0  0  0  0  0  0
    4.8704   10.9321   -0.8792 H   0  0  0  0  0  0  0  0  0  0  0  0
    1.8091   -0.6863   -0.0179 H   0  0  0  0  0  0  0  0  0  0  0  0
    3.4854   -0.5739   -0.0323 H   0  0  0  0  0  0  0  0  0  0  0  0
  1  2  1  0  0  0  0
  1 25  1  0  0  0  0
  1 26  1  0  0  0  0
  1 27  1  0  0  0  0
  2  3  1  0  0  0  0
  2  4  1  0  0  0  0
  2 28  1  0  0  0  0
  3 29  1  0  0  0  0
  3 30  1  0  0  0  0
  3 31  1  0  0  0  0
  4  8  1  0  0  0  0
  4  5  2  0  0  0  0
  5  6  1  0  0  0  0
  5 32  1  0  0  0  0
  6  7  2  0  0  0  0
  6 22  1  0  0  0  0
  7  8  1  0  0  0  0
  7  9  1  0  0  0  0
  9 10  1  0  0  0  0
  9 33  1  0  0  0  0
 10 11  2  0  0  0  0
 10 12  1  0  0  0  0
 12 17  2  0  0  0  0
 12 13  1  0  0  0  0
 13 14  2  0  0  0  0
 13 34  1  0  0  0  0
 14 15  1  0  0  0  0
 14 35  1  0  0  0  0
 15 16  2  0  0  0  0
 15 36  1  0  0  0  0
 16 17  1  0  0  0  0
 16 20  1  0  0  0  0
 17 18  1  0  0  0  0
 18 19  1  0  0  0  0
 19 37  1  0  0  0  0
 19 38  1  0  0  0  0
 19 39  1  0  0  0  0
 20 21  1  0  0  0  0
 21 40  1  0  0  0  0
 21 41  1  0  0  0  0
 21 42  1  0  0  0  0
 22 23  2  0  0  0  0
 22 24  1  0  0  0  0
 24 43  1  0  0  0  0
 24 44  1  0  0  0  0
M  END
$$$$
ZINC01054225
  -OEChem-08230709453D

 41 43  0     0  0  0  0  0  0999 V2000
   -1.9463    9.0677   -5.5497 C   0  0  0  0  0  0  0  0  0  0  0  0
   -2.2326    9.1343   -6.9005 C   0  0  0  0  0  0  0  0  0  0  0  0
   -3.5256    8.9287   -7.3439 C   0  0  0  0  0  0  0  0  0  0  0  0
   -4.5317    8.6526   -6.4370 C   0  0  0  0  0  0  0  0  0  0  0  0
   -4.2446    8.5817   -5.0866 C   0  0  0  0  0  0  0  0  0  0  0  0
   -2.9514    8.7864   -4.6433 C   0  0  0  0  0  0  0  0  0  0  0  0
   -2.6384    8.7091   -3.1711 C   0  0  0  0  0  0  0  0  0  0  0  0
   -2.2801    7.3328   -2.8197 N   0  0  0  0  0  0  0  0  0  0  0  0
   -1.9591    7.0239   -1.5477 C   0  0  0  0  0  0  0  0  0  0  0  0
   -1.9669    7.8883   -0.6910 O   0  0  0  0  0  0  0  0  0  0  0  0
   -1.6005    5.6468   -1.1961 C   0  0  0  0  0  0  0  0  0  0  0  0
   -1.2437    5.1256    0.0338 C   0  0  0  0  0  0  0  0  0  0  0  0
   -0.9466    3.7746    0.1106 C   0  0  0  0  0  0  0  0  0  0  0  0
   -1.0309    3.0593   -1.0499 C   0  0  0  0  0  0  0  0  0  0  0  0
   -1.5110    4.2044   -2.2436 S   0  0  0  0  0  0  0  0  0  0  0  0
   -0.7612    1.5974   -1.2312 C   0  0  0  0  0  0  0  0  0  0  0  0
   -0.0127    1.0858    0.0080 C   0  0  0  0  0  0  0  0  0  0  0  0
   -0.7354    1.5826    1.2633 C   0  0  0  0  0  0  0  0  0  0  0  0
   -0.5423    3.0911    1.4143 C   0  0  0  0  0  0  0  0  0  0  0  0
   -3.8913    9.0179   -9.0652 S   0  0  0  0  0  0  0  0  0  0  0  0
   -2.6769    8.7503   -9.7528 O   0  0  0  0  0  0  0  0  0  0  0  0
   -5.0684    8.2488   -9.2707 O   0  0  0  0  0  0  0  0  0  0  0  0
   -4.2886   10.5901   -9.4006 N   0  0  0  0  0  0  0  0  0  0  0  0
   -0.9368    9.2319   -5.2029 H   0  0  0  0  0  0  0  0  0  0  0  0
   -1.4465    9.3496   -7.6091 H   0  0  0  0  0  0  0  0  0  0  0  0
   -5.5419    8.4920   -6.7834 H   0  0  0  0  0  0  0  0  0  0  0  0
   -5.0306    8.3661   -4.3781 H   0  0  0  0  0  0  0  0  0  0  0  0
   -3.5133    9.0146   -2.5972 H   0  0  0  0  0  0  0  0  0  0  0  0
   -1.8039    9.3717   -2.9418 H   0  0  0  0  0  0  0  0  0  0  0  0
   -2.2738    6.6438   -3.5025 H   0  0  0  0  0  0  0  0  0  0  0  0
   -1.1974    5.7545    0.9106 H   0  0  0  0  0  0  0  0  0  0  0  0
   -0.1482    1.4445   -2.1195 H   0  0  0  0  0  0  0  0  0  0  0  0
   -1.7039    1.0607   -1.3383 H   0  0  0  0  0  0  0  0  0  0  0  0
    0.0021   -0.0041    0.0020 H   0  0  0  0  0  0  0  0  0  0  0  0
    1.0091    1.4652    0.0003 H   0  0  0  0  0  0  0  0  0  0  0  0
   -1.7997    1.3632    1.1788 H   0  0  0  0  0  0  0  0  0  0  0  0
   -0.3309    1.0746    2.1387 H   0  0  0  0  0  0  0  0  0  0  0  0
    0.5052    3.3030    1.6284 H   0  0  0  0  0  0  0  0  0  0  0  0
   -1.1656    3.4602    2.2288 H   0  0  0  0  0  0  0  0  0  0  0  0
   -4.2848   11.2530   -8.6923 H   0  0  0  0  0  0  0  0  0  0  0  0
   -4.5251   10.8483  -10.3052 H   0  0  0  0  0  0  0  0  0  0  0  0
  1  6  2  0  0  0  0
  1  2  1  0  0  0  0
  1 24  1  0  0  0  0
  2  3  2  0  0  0  0
  2 25  1  0  0  0  0
  3  4  1  0  0  0  0
  3 20  1  0  0  0  0
  4  5  2  0  0  0  0
  4 26  1  0  0  0  0
  5  6  1  0  0  0  0
  5 27  1  0  0  0  0
  6  7  1  0  0  0  0
  7  8  1  0  0  0  0
  7 28  1  0  0  0  0
  7 29  1  0  0  0  0
  8  9  1  0  0  0  0
  8 30  1  0  0  0  0
  9 10  2  0  0  0  0
  9 11  1  0  0  0  0
 11 15  1  0  0  0  0
 11 12  2  0  0  0  0
 12 13  1  0  0  0  0
 12 31  1  0  0  0  0
 13 19  1  0  0  0  0
 13 14  2  0  0  0  0
 14 15  1  0  0  0  0
 14 16  1  0  0  0  0
 16 17  1  0  0  0  0
 16 32  1  0  0  0  0
 16 33  1  0  0  0  0
 17 18  1  0  0  0  0
 17 34  1  0  0  0  0
 17 35  1  0  0  0  0
 18 19  1  0  0  0  0
 18 36  1  0  0  0  0
 18 37  1  0  0  0  0
 19 38  1  0  0  0  0
 19 39  1  0  0  0  0
 20 21  2  0  0  0  0
 20 22  2  0  0  0  0
 20 23  1  0  0  0  0
 23 40  1  0  0  0  0
 23 41  1  0  0  0  0
M  END
$$$$
ZINC01055805
  -OEChem-08230709453D

 41 43  0     0  0  0  0  0  0999 V2000
   -0.0167    1.3781    0.0096 C   0  0  0  0  0  0  0  0  0  0  0  0
    0.0021   -0.0041    0.0020 C   0  0  0  0  0  0  0  0  0  0  0  0
    1.2084   -0.6789   -0.0132 C   0  0  0  0  0  0  0  0  0  0  0  0
    2.3961    0.0285   -0.0212 C   0  0  0  0  0  0  0  0  0  0  0  0
    2.3773    1.4107   -0.0145 C   0  0  0  0  0  0  0  0  0  0  0  0
    1.1709    2.0855    0.0021 C   0  0  0  0  0  0  0  0  0  0  0  0
    1.1505    3.5924    0.0099 C   0  0  0  0  0  0  0  0  0  0  0  0
    1.1568    4.0736    1.3936 N   0  0  0  0  0  0  0  0  0  0  0  0
    1.1412    5.3973    1.6467 C   0  0  0  0  0  0  0  0  0  0  0  0
    1.1218    6.1924    0.7264 O   0  0  0  0  0  0  0  0  0  0  0  0
    1.1475    5.8809    3.0369 C   0  0  0  0  0  0  0  0  0  0  0  0
    1.1699    5.0004    4.0960 C   0  0  0  0  0  0  0  0  0  0  0  0
    1.1693    6.0439    5.4794 S   0  0  0  0  0  0  0  0  0  0  0  0
    1.1401    7.6093    4.6532 C   0  0  0  0  0  0  0  0  0  0  0  0
    1.1366    7.3003    3.3362 C   0  0  0  0  0  0  0  0  0  0  0  0
    1.1043    8.3928    2.2749 C   0  0  0  0  0  0  0  0  0  0  0  0
    0.6361    9.6970    2.9233 C   0  0  0  0  0  0  0  0  0  0  0  0
    1.4818    9.9949    4.1648 C   0  0  0  0  0  0  0  0  0  0  0  0
    1.1288    8.9778    5.2600 C   0  0  0  0  0  0  0  0  0  0  0  0
    1.2323   -2.4407   -0.0217 S   0  0  0  0  0  0  0  0  0  0  0  0
    2.4885   -2.8324    0.5148 O   0  0  0  0  0  0  0  0  0  0  0  0
   -0.0018   -2.8663    0.5395 O   0  0  0  0  0  0  0  0  0  0  0  0
    1.2232   -2.9228   -1.6059 N   0  0  0  0  0  0  0  0  0  0  0  0
   -0.9592    1.9054    0.0170 H   0  0  0  0  0  0  0  0  0  0  0  0
   -0.9258   -0.5567    0.0083 H   0  0  0  0  0  0  0  0  0  0  0  0
    3.3386   -0.4987   -0.0324 H   0  0  0  0  0  0  0  0  0  0  0  0
    3.3052    1.9634   -0.0201 H   0  0  0  0  0  0  0  0  0  0  0  0
    2.0306    3.9704   -0.5103 H   0  0  0  0  0  0  0  0  0  0  0  0
    0.2509    3.9462   -0.4937 H   0  0  0  0  0  0  0  0  0  0  0  0
    1.1723    3.4396    2.1276 H   0  0  0  0  0  0  0  0  0  0  0  0
    1.1848    3.9208    4.0704 H   0  0  0  0  0  0  0  0  0  0  0  0
    0.4145    8.1123    1.4789 H   0  0  0  0  0  0  0  0  0  0  0  0
    2.1037    8.5284    1.8616 H   0  0  0  0  0  0  0  0  0  0  0  0
   -0.4105    9.6022    3.2125 H   0  0  0  0  0  0  0  0  0  0  0  0
    0.7419   10.5133    2.2089 H   0  0  0  0  0  0  0  0  0  0  0  0
    1.2673   11.0030    4.5196 H   0  0  0  0  0  0  0  0  0  0  0  0
    2.5400    9.9123    3.9169 H   0  0  0  0  0  0  0  0  0  0  0  0
    0.1374    9.1952    5.6574 H   0  0  0  0  0  0  0  0  0  0  0  0
    1.8653    9.0301    6.0618 H   0  0  0  0  0  0  0  0  0  0  0  0
    1.2072   -2.2605   -2.3144 H   0  0  0  0  0  0  0  0  0  0  0  0
    1.2339   -3.8676   -1.8254 H   0  0  0  0  0  0  0  0  0  0  0  0
  1  6  2  0  0  0  0
  1  2  1  0  0  0  0
  1 24  1  0  0  0  0
  2  3  2  0  0  0  0
  2 25  1  0  0  0  0
  3  4  1  0  0  0  0
  3 20  1  0  0  0  0
  4  5  2  0  0  0  0
  4 26  1  0  0  0  0
  5  6  1  0  0  0  0
  5 27  1  0  0  0  0
  6  7  1  0  0  0  0
  7  8  1  0  0  0  0
  7 28  1  0  0  0  0
  7 29  1  0  0  0  0
  8  9  1  0  0  0  0
  8 30  1  0  0  0  0
  9 10  2  0  0  0  0
  9 11  1  0  0  0  0
 11 15  1  0  0  0  0
 11 12  2  0  0  0  0
 12 13  1  0  0  0  0
 12 31  1  0  0  0  0
 13 14  1  0  0  0  0
 14 19  1  0  0  0  0
 14 15  2  0  0  0  0
 15 16  1  0  0  0  0
 16 17  1  0  0  0  0
 16 32  1  0  0  0  0
 16 33  1  0  0  0  0
 17 18  1  0  0  0  0
 17 34  1  0  0  0  0
 17 35  1  0  0  0  0
 18 19  1  0  0  0  0
 18 36  1  0  0  0  0
 18 37  1  0  0  0  0
 19 38  1  0  0  0  0
 19 39  1  0  0  0  0
 20 21  2  0  0  0  0
 20 22  2  0  0  0  0
 20 23  1  0  0  0  0
 23 40  1  0  0  0  0
 23 41  1  0  0  0  0
M  END
$$$$
ZINC01056646
  -OEChem-08230709453D

 45 46  0     1  0  0  0  0  0999 V2000
    7.8121    2.6143    1.1294 C   0  0  0  0  0  0  0  0  0  0  0  0
    6.3928    2.0475    1.2011 C   0  0  0  0  0  0  0  0  0  0  0  0
    6.1131    1.2129   -0.0503 C   0  0  1  0  0  0  0  0  0  0  0  0
    6.2951    1.8177   -0.9386 H   0  0  0  0  0  0  0  0  0  0  0  0
    7.0221    0.0110   -0.0660 C   0  0  0  0  0  0  0  0  0  0  0  0
    6.9756   -0.9044    0.9688 C   0  0  0  0  0  0  0  0  0  0  0  0
    7.8063   -2.0091    0.9522 C   0  0  0  0  0  0  0  0  0  0  0  0
    8.6902   -2.1935   -0.0945 C   0  0  0  0  0  0  0  0  0  0  0  0
    8.7401   -1.2757   -1.1270 C   0  0  0  0  0  0  0  0  0  0  0  0
    7.9063   -0.1732   -1.1125 C   0  0  0  0  0  0  0  0  0  0  0  0
    4.6769    0.7564   -0.0390 C   0  0  0  0  0  0  0  0  0  0  0  0
    4.4171   -0.4281   -0.0434 O   0  0  0  0  0  0  0  0  0  0  0  0
    3.6812    1.6646   -0.0242 N   0  0  0  0  0  0  0  0  0  0  0  0
    2.3649    1.2462   -0.0138 C   0  0  0  0  0  0  0  0  0  0  0  0
    1.2028    2.0249    0.0014 C   0  0  0  0  0  0  0  0  0  0  0  0
   -0.0165    1.3640    0.0095 C   0  0  0  0  0  0  0  0  0  0  0  0
    0.0021   -0.0041    0.0020 C   0  0  0  0  0  0  0  0  0  0  0  0
    1.7461   -0.3728   -0.0166 S   0  0  0  0  0  0  0  0  0  0  0  0
   -1.1292   -0.9340    0.0071 C   0  0  0  0  0  0  0  0  0  0  0  0
   -2.2687   -0.5061    0.0196 O   0  0  0  0  0  0  0  0  0  0  0  0
   -0.9086   -2.2635   -0.0020 N   0  0  0  0  0  0  0  0  0  0  0  0
   -1.3165    2.1261    0.0199 C   0  0  0  0  0  0  0  0  0  0  0  0
    1.2715    3.4904    0.0082 C   0  0  0  0  0  0  0  0  0  0  0  0
    1.3099    4.0925    1.0640 O   0  0  0  0  0  0  0  0  0  0  0  0
    1.2922    4.1698   -1.1564 O   0  0  0  0  0  0  0  0  0  0  0  0
    1.3608    5.6178   -1.0737 C   0  0  0  0  0  0  0  0  0  0  0  0
    8.5282    1.7946    1.0718 H   0  0  0  0  0  0  0  0  0  0  0  0
    7.9078    3.2433    0.2443 H   0  0  0  0  0  0  0  0  0  0  0  0
    8.0113    3.2089    2.0209 H   0  0  0  0  0  0  0  0  0  0  0  0
    5.6766    2.8672    1.2587 H   0  0  0  0  0  0  0  0  0  0  0  0
    6.2970    1.4185    2.0862 H   0  0  0  0  0  0  0  0  0  0  0  0
    6.2878   -0.7581    1.7886 H   0  0  0  0  0  0  0  0  0  0  0  0
    7.7671   -2.7264    1.7586 H   0  0  0  0  0  0  0  0  0  0  0  0
    9.3417   -3.0549   -0.1058 H   0  0  0  0  0  0  0  0  0  0  0  0
    9.4307   -1.4197   -1.9447 H   0  0  0  0  0  0  0  0  0  0  0  0
    7.9455    0.5441   -1.9189 H   0  0  0  0  0  0  0  0  0  0  0  0
    3.8890    2.6121   -0.0207 H   0  0  0  0  0  0  0  0  0  0  0  0
   -0.0006   -2.6045   -0.0119 H   0  0  0  0  0  0  0  0  0  0  0  0
   -1.6580   -2.8795    0.0014 H   0  0  0  0  0  0  0  0  0  0  0  0
   -1.6248    2.3047    1.0500 H   0  0  0  0  0  0  0  0  0  0  0  0
   -1.1824    3.0803   -0.4898 H   0  0  0  0  0  0  0  0  0  0  0  0
   -2.0826    1.5447   -0.4931 H   0  0  0  0  0  0  0  0  0  0  0  0
    0.4925    5.9923   -0.5316 H   0  0  0  0  0  0  0  0  0  0  0  0
    2.2705    5.9091   -0.5486 H   0  0  0  0  0  0  0  0  0  0  0  0
    1.3709    6.0390   -2.0790 H   0  0  0  0  0  0  0  0  0  0  0  0
  1  2  1  0  0  0  0
  1 27  1  0  0  0  0
  1 28  1  0  0  0  0
  1 29  1  0  0  0  0
  2  3  1  0  0  0  0
  2 30  1  0  0  0  0
  2 31  1  0  0  0  0
  3  4  1  0  0  0  0
  3  5  1  0  0  0  0
  3 11  1  0  0  0  0
  5 10  2  0  0  0  0
  5  6  1  0  0  0  0
  6  7  2  0  0  0  0
  6 32  1  0  0  0  0
  7  8  1  0  0  0  0
  7 33  1  0  0  0  0
  8  9  2  0  0  0  0
  8 34  1  0  0  0  0
  9 10  1  0  0  0  0
  9 35  1  0  0  0  0
 10 36  1  0  0  0  0
 11 12  2  0  0  0  0
 11 13  1  0  0  0  0
 13 14  1  0  0  0  0
 13 37  1  0  0  0  0
 14 18  1  0  0  0  0
 14 15  2  0  0  0  0
 15 16  1  0  0  0  0
 15 23  1  0  0  0  0
 16 17  2  0  0  0  0
 16 22  1  0  0  0  0
 17 18  1  0  0  0  0
 17 19  1  0  0  0  0
 19 20  2  0  0  0  0
 19 21  1  0  0  0  0
 21 38  1  0  0  0  0
 21 39  1  0  0  0  0
 22 40  1  0  0  0  0
 22 41  1  0  0  0  0
 22 42  1  0  0  0  0
 23 24  2  0  0  0  0
 23 25  1  0  0  0  0
 25 26  1  0  0  0  0
 26 43  1  0  0  0  0
 26 44  1  0  0  0  0
 26 45  1  0  0  0  0
M  END
$$$$
ZINC01056649
  -OEChem-08230709453D

 45 46  0     1  0  0  0  0  0999 V2000
    3.9865    5.2229   -2.3965 C   0  0  0  0  0  0  0  0  0  0  0  0
    4.2532    5.5831   -0.9336 C   0  0  0  0  0  0  0  0  0  0  0  0
    2.9839    5.3506   -0.1116 C   0  0  2  0  0  0  0  0  0  0  0  0
    2.1552    5.8985   -0.5601 H   0  0  0  0  0  0  0  0  0  0  0  0
    3.2025    5.8360    1.2983 C   0  0  0  0  0  0  0  0  0  0  0  0
    4.2032    5.2801    2.0733 C   0  0  0  0  0  0  0  0  0  0  0  0
    4.4066    5.7284    3.3650 C   0  0  0  0  0  0  0  0  0  0  0  0
    3.6034    6.7262    3.8848 C   0  0  0  0  0  0  0  0  0  0  0  0
    2.5994    7.2784    3.1116 C   0  0  0  0  0  0  0  0  0  0  0  0
    2.3988    6.8332    1.8184 C   0  0  0  0  0  0  0  0  0  0  0  0
    2.6608    3.8788   -0.0917 C   0  0  0  0  0  0  0  0  0  0  0  0
    3.5566    3.0615   -0.0751 O   0  0  0  0  0  0  0  0  0  0  0  0
    1.3763    3.4707   -0.0923 N   0  0  0  0  0  0  0  0  0  0  0  0
    1.0793    2.1246   -0.1794 C   0  0  0  0  0  0  0  0  0  0  0  0
   -0.1763    1.5082   -0.1951 C   0  0  0  0  0  0  0  0  0  0  0  0
   -0.2148    0.1251   -0.2903 C   0  0  0  0  0  0  0  0  0  0  0  0
    0.9784   -0.5405   -0.3622 C   0  0  0  0  0  0  0  0  0  0  0  0
    2.1707    0.7831   -0.2961 S   0  0  0  0  0  0  0  0  0  0  0  0
    1.2167   -1.9815   -0.4678 C   0  0  0  0  0  0  0  0  0  0  0  0
    0.2759   -2.7532   -0.5015 O   0  0  0  0  0  0  0  0  0  0  0  0
    2.4778   -2.4534   -0.5277 N   0  0  0  0  0  0  0  0  0  0  0  0
   -1.5253   -0.6188   -0.3132 C   0  0  0  0  0  0  0  0  0  0  0  0
   -1.4104    2.2982   -0.1196 C   0  0  0  0  0  0  0  0  0  0  0  0
   -1.9041    2.5528    0.9621 O   0  0  0  0  0  0  0  0  0  0  0  0
   -1.9970    2.7419   -1.2497 O   0  0  0  0  0  0  0  0  0  0  0  0
   -3.2153    3.5174   -1.0993 C   0  0  0  0  0  0  0  0  0  0  0  0
    4.8611    5.4723   -2.9973 H   0  0  0  0  0  0  0  0  0  0  0  0
    3.7832    4.1550   -2.4765 H   0  0  0  0  0  0  0  0  0  0  0  0
    3.1253    5.7848   -2.7578 H   0  0  0  0  0  0  0  0  0  0  0  0
    4.5438    6.6313   -0.8647 H   0  0  0  0  0  0  0  0  0  0  0  0
    5.0569    4.9570   -0.5460 H   0  0  0  0  0  0  0  0  0  0  0  0
    4.8282    4.4979    1.6684 H   0  0  0  0  0  0  0  0  0  0  0  0
    5.1912    5.2972    3.9690 H   0  0  0  0  0  0  0  0  0  0  0  0
    3.7606    7.0746    4.8949 H   0  0  0  0  0  0  0  0  0  0  0  0
    1.9719    8.0580    3.5177 H   0  0  0  0  0  0  0  0  0  0  0  0
    1.6144    7.2646    1.2143 H   0  0  0  0  0  0  0  0  0  0  0  0
    0.6604    4.1224   -0.0316 H   0  0  0  0  0  0  0  0  0  0  0  0
    3.2275   -1.8385   -0.5009 H   0  0  0  0  0  0  0  0  0  0  0  0
    2.6357   -3.4079   -0.5977 H   0  0  0  0  0  0  0  0  0  0  0  0
   -1.8637   -0.7270   -1.3436 H   0  0  0  0  0  0  0  0  0  0  0  0
   -1.3909   -1.6053    0.1306 H   0  0  0  0  0  0  0  0  0  0  0  0
   -2.2690   -0.0622    0.2570 H   0  0  0  0  0  0  0  0  0  0  0  0
   -3.9701    2.9141   -0.5949 H   0  0  0  0  0  0  0  0  0  0  0  0
   -3.0078    4.4089   -0.5075 H   0  0  0  0  0  0  0  0  0  0  0  0
   -3.5826    3.8113   -2.0826 H   0  0  0  0  0  0  0  0  0  0  0  0
  1  2  1  0  0  0  0
  1 27  1  0  0  0  0
  1 28  1  0  0  0  0
  1 29  1  0  0  0  0
  2  3  1  0  0  0  0
  2 30  1  0  0  0  0
  2 31  1  0  0  0  0
  3  4  1  0  0  0  0
  3  5  1  0  0  0  0
  3 11  1  0  0  0  0
  5 10  2  0  0  0  0
  5  6  1  0  0  0  0
  6  7  2  0  0  0  0
  6 32  1  0  0  0  0
  7  8  1  0  0  0  0
  7 33  1  0  0  0  0
  8  9  2  0  0  0  0
  8 34  1  0  0  0  0
  9 10  1  0  0  0  0
  9 35  1  0  0  0  0
 10 36  1  0  0  0  0
 11 12  2  0  0  0  0
 11 13  1  0  0  0  0
 13 14  1  0  0  0  0
 13 37  1  0  0  0  0
 14 18  1  0  0  0  0
 14 15  2  0  0  0  0
 15 16  1  0  0  0  0
 15 23  1  0  0  0  0
 16 17  2  0  0  0  0
 16 22  1  0  0  0  0
 17 18  1  0  0  0  0
 17 19  1  0  0  0  0
 19 20  2  0  0  0  0
 19 21  1  0  0  0  0
 21 38  1  0  0  0  0
 21 39  1  0  0  0  0
 22 40  1  0  0  0  0
 22 41  1  0  0  0  0
 22 42  1  0  0  0  0
 23 24  2  0  0  0  0
 23 25  1  0  0  0  0
 25 26  1  0  0  0  0
 26 43  1  0  0  0  0
 26 44  1  0  0  0  0
 26 45  1  0  0  0  0
M  END
$$$$
ZINC01072059
  -OEChem-08230709453D

 40 41  0     0  0  0  0  0  0999 V2000
    1.0138    0.4856    2.9314 C   0  0  0  0  0  0  0  0  0  0  0  0
   -0.2247    1.2942    2.6426 C   0  0  0  0  0  0  0  0  0  0  0  0
   -0.9403    1.0719    1.4822 C   0  0  0  0  0  0  0  0  0  0  0  0
   -2.0741    1.8177    1.2137 C   0  0  0  0  0  0  0  0  0  0  0  0
   -2.5004    2.7809    2.1113 C   0  0  0  0  0  0  0  0  0  0  0  0
   -1.7887    3.0073    3.2728 C   0  0  0  0  0  0  0  0  0  0  0  0
   -0.6472    2.2636    3.5423 C   0  0  0  0  0  0  0  0  0  0  0  0
    0.0763    2.4912    4.7186 N   0  0  0  0  0  0  0  0  0  0  0  0
   -0.5372    3.0213    5.7952 C   0  0  0  0  0  0  0  0  0  0  0  0
   -1.7355    3.2081    5.7795 O   0  0  0  0  0  0  0  0  0  0  0  0
    0.2657    3.3820    7.0184 C   0  0  0  0  0  0  0  0  0  0  0  0
   -0.6032    3.9217    8.0164 O   0  0  0  0  0  0  0  0  0  0  0  0
   -0.0348    4.2998    9.1886 C   0  0  0  0  0  0  0  0  0  0  0  0
    1.3308    4.1505    9.3808 C   0  0  0  0  0  0  0  0  0  0  0  0
    1.9087    4.5411   10.5723 C   0  0  0  0  0  0  0  0  0  0  0  0
    1.1304    5.0731   11.5875 C   0  0  0  0  0  0  0  0  0  0  0  0
   -0.2284    5.2232   11.4159 C   0  0  0  0  0  0  0  0  0  0  0  0
   -0.8254    4.8375   10.2131 C   0  0  0  0  0  0  0  0  0  0  0  0
   -2.2800    4.9950   10.0228 C   0  0  0  0  0  0  0  0  0  0  0  0
   -2.7960    4.6578    8.9747 O   0  0  0  0  0  0  0  0  0  0  0  0
   -3.0367    5.5126   11.0106 N   0  0  0  0  0  0  0  0  0  0  0  0
   -3.0472    1.5155   -0.3793 Br  0  0  0  0  0  0  0  0  0  0  0  0
   -0.4822    0.0202    0.5049 C   0  0  0  0  0  0  0  0  0  0  0  0
    1.8840    0.9922    2.5141 H   0  0  0  0  0  0  0  0  0  0  0  0
    1.1364    0.3813    4.0095 H   0  0  0  0  0  0  0  0  0  0  0  0
    0.9167   -0.5016    2.4796 H   0  0  0  0  0  0  0  0  0  0  0  0
   -3.3881    3.3589    1.9011 H   0  0  0  0  0  0  0  0  0  0  0  0
   -2.1194    3.7622    3.9708 H   0  0  0  0  0  0  0  0  0  0  0  0
    1.0193    2.2675    4.7590 H   0  0  0  0  0  0  0  0  0  0  0  0
    0.7558    2.4895    7.4075 H   0  0  0  0  0  0  0  0  0  0  0  0
    1.0190    4.1237    6.7529 H   0  0  0  0  0  0  0  0  0  0  0  0
    1.9434    3.7324    8.5958 H   0  0  0  0  0  0  0  0  0  0  0  0
    2.9730    4.4267   10.7156 H   0  0  0  0  0  0  0  0  0  0  0  0
    1.5909    5.3713   12.5178 H   0  0  0  0  0  0  0  0  0  0  0  0
   -0.8313    5.6381   12.2101 H   0  0  0  0  0  0  0  0  0  0  0  0
   -2.6251    5.7817   11.8467 H   0  0  0  0  0  0  0  0  0  0  0  0
   -3.9930    5.6162   10.8855 H   0  0  0  0  0  0  0  0  0  0  0  0
   -0.9433   -0.9349    0.7563 H   0  0  0  0  0  0  0  0  0  0  0  0
    0.6024   -0.0754    0.5560 H   0  0  0  0  0  0  0  0  0  0  0  0
   -0.7742    0.3103   -0.5044 H   0  0  0  0  0  0  0  0  0  0  0  0
  1  2  1  0  0  0  0
  1 24  1  0  0  0  0
  1 25  1  0  0  0  0
  1 26  1  0  0  0  0
  2  7  2  0  0  0  0
  2  3  1  0  0  0  0
  3  4  2  0  0  0  0
  3 23  1  0  0  0  0
  4  5  1  0  0  0  0
  4 22  1  0  0  0  0
  5  6  2  0  0  0  0
  5 27  1  0  0  0  0
  6  7  1  0  0  0  0
  6 28  1  0  0  0  0
  7  8  1  0  0  0  0
  8  9  1  0  0  0  0
  8 29  1  0  0  0  0
  9 10  2  0  0  0  0
  9 11  1  0  0  0  0
 11 12  1  0  0  0  0
 11 30  1  0  0  0  0
 11 31  1  0  0  0  0
 12 13  1  0  0  0  0
 13 18  2  0  0  0  0
 13 14  1  0  0  0  0
 14 15  2  0  0  0  0
 14 32  1  0  0  0  0
 15 16  1  0  0  0  0
 15 33  1  0  0  0  0
 16 17  2  0  0  0  0
 16 34  1  0  0  0  0
 17 18  1  0  0  0  0
 17 35  1  0  0  0  0
 18 19  1  0  0  0  0
 19 20  2  0  0  0  0
 19 21  1  0  0  0  0
 21 36  1  0  0  0  0
 21 37  1  0  0  0  0
 23 38  1  0  0  0  0
 23 39  1  0  0  0  0
 23 40  1  0  0  0  0
M  END
$$$$
ZINC01076933
  -OEChem-08230709453D

 46 48  0     1  0  0  0  0  0999 V2000
    1.9553   -0.6847    8.0274 C   0  0  0  0  0  0  0  0  0  0  0  0
    2.7431   -0.7205    6.7163 C   0  0  0  0  0  0  0  0  0  0  0  0
    1.7793   -0.9371    5.5480 C   0  0  0  0  0  0  0  0  0  0  0  0
    2.5671   -0.9730    4.2369 C   0  0  1  0  0  0  0  0  0  0  0  0
    3.1629   -0.0647    4.1461 H   0  0  0  0  0  0  0  0  0  0  0  0
    3.4915   -2.1921    4.2304 C   0  0  0  0  0  0  0  0  0  0  0  0
    1.6355   -1.0606    3.1096 N   0  0  0  0  0  0  0  0  0  0  0  0
    1.5189   -0.1469    2.0888 C   0  0  0  0  0  0  0  0  0  0  0  0
    0.5485   -0.5956    1.2635 C   0  0  0  0  0  0  0  0  0  0  0  0
    0.0635   -1.8155    1.7909 C   0  0  0  0  0  0  0  0  0  0  0  0
    0.7153   -2.0849    2.8886 N   0  0  0  0  0  0  0  0  0  0  0  0
   -0.9193   -2.5803    1.2446 O   0  0  0  0  0  0  0  0  0  0  0  0
    0.0021   -0.0041    0.0020 C   0  0  2  0  0  0  0  0  0  0  0  0
    0.6129   -0.3410   -0.8355 H   0  0  0  0  0  0  0  0  0  0  0  0
   -0.0223    1.7905    0.0119 S   0  0  0  0  0  0  0  0  0  0  0  0
    1.6990    2.3102   -0.0018 C   0  0  0  0  0  0  0  0  0  0  0  0
    2.4037    2.0051    1.2613 C   0  0  0  0  0  0  0  0  0  0  0  0
    3.1891    2.8548    1.6251 O   0  0  0  0  0  0  0  0  0  0  0  0
    2.3156    0.9720    2.0441 N   0  0  0  0  0  0  0  0  0  0  0  0
   -1.4053   -0.5057   -0.1945 C   0  0  0  0  0  0  0  0  0  0  0  0
   -2.3884   -0.1836    0.7227 C   0  0  0  0  0  0  0  0  0  0  0  0
   -3.6801   -0.6404    0.5404 C   0  0  0  0  0  0  0  0  0  0  0  0
   -3.9871   -1.4268   -0.5545 C   0  0  0  0  0  0  0  0  0  0  0  0
   -3.0033   -1.7528   -1.4689 C   0  0  0  0  0  0  0  0  0  0  0  0
   -1.7121   -1.2926   -1.2886 C   0  0  0  0  0  0  0  0  0  0  0  0
   -3.3319   -2.5950   -2.6409 N   0  3  0  0  0  0  0  0  0  0  0  0
   -2.4648   -2.8826   -3.4464 O   0  0  0  0  0  0  0  0  0  0  0  0
   -4.4694   -3.0004   -2.7997 O   0  5  0  0  0  0  0  0  0  0  0  0
    1.2337    0.1316    7.9955 H   0  0  0  0  0  0  0  0  0  0  0  0
    1.4291   -1.6298    8.1610 H   0  0  0  0  0  0  0  0  0  0  0  0
    2.6420   -0.5303    8.8598 H   0  0  0  0  0  0  0  0  0  0  0  0
    3.4648   -1.5368    6.7482 H   0  0  0  0  0  0  0  0  0  0  0  0
    3.2694    0.2247    6.5827 H   0  0  0  0  0  0  0  0  0  0  0  0
    1.0577   -0.1209    5.5161 H   0  0  0  0  0  0  0  0  0  0  0  0
    1.2531   -1.8823    5.6816 H   0  0  0  0  0  0  0  0  0  0  0  0
    4.1846   -2.1269    5.0691 H   0  0  0  0  0  0  0  0  0  0  0  0
    2.8957   -3.1003    4.3212 H   0  0  0  0  0  0  0  0  0  0  0  0
    4.0527   -2.2176    3.2964 H   0  0  0  0  0  0  0  0  0  0  0  0
   -0.5991   -3.2441    0.6186 H   0  0  0  0  0  0  0  0  0  0  0  0
    2.2116    1.8052   -0.8204 H   0  0  0  0  0  0  0  0  0  0  0  0
    1.7396    3.3855   -0.1755 H   0  0  0  0  0  0  0  0  0  0  0  0
    2.9632    0.9962    2.7658 H   0  0  0  0  0  0  0  0  0  0  0  0
   -2.1477    0.4276    1.5800 H   0  0  0  0  0  0  0  0  0  0  0  0
   -4.4487   -0.3860    1.2551 H   0  0  0  0  0  0  0  0  0  0  0  0
   -4.9957   -1.7865   -0.6951 H   0  0  0  0  0  0  0  0  0  0  0  0
   -0.9432   -1.5476   -2.0029 H   0  0  0  0  0  0  0  0  0  0  0  0
  1  2  1  0  0  0  0
  1 29  1  0  0  0  0
  1 30  1  0  0  0  0
  1 31  1  0  0  0  0
  2  3  1  0  0  0  0
  2 32  1  0  0  0  0
  2 33  1  0  0  0  0
  3  4  1  0  0  0  0
  3 34  1  0  0  0  0
  3 35  1  0  0  0  0
  4  5  1  0  0  0  0
  4  6  1  0  0  0  0
  4  7  1  0  0  0  0
  6 36  1  0  0  0  0
  6 37  1  0  0  0  0
  6 38  1  0  0  0  0
  7 11  1  0  0  0  0
  7  8  1  0  0  0  0
  8 19  1  0  0  0  0
  8  9  2  0  0  0  0
  9 10  1  0  0  0  0
  9 13  1  0  0  0  0
 10 11  2  0  0  0  0
 10 12  1  0  0  0  0
 12 39  1  0  0  0  0
 13 14  1  0  0  0  0
 13 15  1  0  0  0  0
 13 20  1  0  0  0  0
 15 16  1  0  0  0  0
 16 17  1  0  0  0  0
 16 40  1  0  0  0  0
 16 41  1  0  0  0  0
 17 18  2  0  0  0  0
 17 19  1  0  0  0  0
 19 42  1  0  0  0  0
 20 25  2  0  0  0  0
 20 21  1  0  0  0  0
 21 22  2  0  0  0  0
 21 43  1  0  0  0  0
 22 23  1  0  0  0  0
 22 44  1  0  0  0  0
 23 24  2  0  0  0  0
 23 45  1  0  0  0  0
 24 25  1  0  0  0  0
 24 26  1  0  0  0  0
 25 46  1  0  0  0  0
 26 27  2  0  0  0  0
 26 28  1  0  0  0  0
M  CHG  2  26   1  28  -1
M  END
$$$$
ZINC01106927
  -OEChem-08230709453D

 40 42  0     1  0  0  0  0  0999 V2000
   -3.6101   -2.8841   -1.8904 C   0  0  0  0  0  0  0  0  0  0  0  0
   -2.8301   -2.5591   -3.0429 O   0  0  0  0  0  0  0  0  0  0  0  0
   -1.7436   -1.7645   -2.8490 C   0  0  0  0  0  0  0  0  0  0  0  0
   -1.4353   -1.3079   -1.5773 C   0  0  0  0  0  0  0  0  0  0  0  0
   -0.3307   -0.5002   -1.3815 C   0  0  0  0  0  0  0  0  0  0  0  0
    0.4663   -0.1420   -2.4529 C   0  0  0  0  0  0  0  0  0  0  0  0
    0.1678   -0.5988   -3.7238 C   0  0  0  0  0  0  0  0  0  0  0  0
   -0.9391   -1.4087   -3.9267 C   0  0  0  0  0  0  0  0  0  0  0  0
   -1.2374   -1.8547   -5.1765 O   0  0  0  0  0  0  0  0  0  0  0  0
   -2.0992   -1.0356   -5.9692 C   0  0  0  0  0  0  0  0  0  0  0  0
    1.2645   -0.1124   -5.1855 Br  0  0  0  0  0  0  0  0  0  0  0  0
    0.0021   -0.0041    0.0020 C   0  0  1  0  0  0  0  0  0  0  0  0
   -0.7389   -0.3791    0.7080 H   0  0  0  0  0  0  0  0  0  0  0  0
    1.3644   -0.5084    0.3986 C   0  0  0  0  0  0  0  0  0  0  0  0
    1.5141   -1.8265    0.7919 C   0  0  0  0  0  0  0  0  0  0  0  0
    2.7557   -2.3063    1.1592 C   0  0  0  0  0  0  0  0  0  0  0  0
    3.8595   -1.4652    1.1344 C   0  0  0  0  0  0  0  0  0  0  0  0
    3.7129   -0.1452    0.7408 C   0  0  0  0  0  0  0  0  0  0  0  0
    2.4634    0.3358    0.3714 C   0  0  0  0  0  0  0  0  0  0  0  0
    2.3367    1.6304   -0.0112 O   0  0  0  0  0  0  0  0  0  0  0  0
    1.1287    2.2182    0.0032 C   0  0  0  0  0  0  0  0  0  0  0  0
   -0.0183    1.4986    0.0103 C   0  0  0  0  0  0  0  0  0  0  0  0
   -1.2760    2.1832    0.0199 C   0  0  0  0  0  0  0  0  0  0  0  0
   -2.2738    2.7262    0.0276 N   0  0  0  0  0  0  0  0  0  0  0  0
    1.0550    3.5889    0.0102 N   0  0  0  0  0  0  0  0  0  0  0  0
    5.0821   -1.9360    1.4953 O   0  0  0  0  0  0  0  0  0  0  0  0
   -2.9875   -3.4106   -1.1670 H   0  0  0  0  0  0  0  0  0  0  0  0
   -3.9936   -1.9681   -1.4411 H   0  0  0  0  0  0  0  0  0  0  0  0
   -4.4440   -3.5215   -2.1841 H   0  0  0  0  0  0  0  0  0  0  0  0
   -2.0585   -1.5828   -0.7392 H   0  0  0  0  0  0  0  0  0  0  0  0
    1.3260    0.4929   -2.2965 H   0  0  0  0  0  0  0  0  0  0  0  0
   -1.6420   -0.0561   -6.1092 H   0  0  0  0  0  0  0  0  0  0  0  0
   -2.2555   -1.5058   -6.9401 H   0  0  0  0  0  0  0  0  0  0  0  0
   -3.0576   -0.9202   -5.4629 H   0  0  0  0  0  0  0  0  0  0  0  0
    0.6564   -2.4825    0.8121 H   0  0  0  0  0  0  0  0  0  0  0  0
    2.8678   -3.3357    1.4660 H   0  0  0  0  0  0  0  0  0  0  0  0
    4.5710    0.5103    0.7206 H   0  0  0  0  0  0  0  0  0  0  0  0
    0.1902    4.0280    0.0201 H   0  0  0  0  0  0  0  0  0  0  0  0
    1.8678    4.1183    0.0053 H   0  0  0  0  0  0  0  0  0  0  0  0
    5.5939   -2.3042    0.7621 H   0  0  0  0  0  0  0  0  0  0  0  0
  1  2  1  0  0  0  0
  1 27  1  0  0  0  0
  1 28  1  0  0  0  0
  1 29  1  0  0  0  0
  2  3  1  0  0  0  0
  3  8  2  0  0  0  0
  3  4  1  0  0  0  0
  4  5  2  0  0  0  0
  4 30  1  0  0  0  0
  5  6  1  0  0  0  0
  5 12  1  0  0  0  0
  6  7  2  0  0  0  0
  6 31  1  0  0  0  0
  7  8  1  0  0  0  0
  7 11  1  0  0  0  0
  8  9  1  0  0  0  0
  9 10  1  0  0  0  0
 10 32  1  0  0  0  0
 10 33  1  0  0  0  0
 10 34  1  0  0  0  0
 12 13  1  0  0  0  0
 12 22  1  0  0  0  0
 12 14  1  0  0  0  0
 14 19  2  0  0  0  0
 14 15  1  0  0  0  0
 15 16  2  0  0  0  0
 15 35  1  0  0  0  0
 16 17  1  0  0  0  0
 16 36  1  0  0  0  0
 17 18  2  0  0  0  0
 17 26  1  0  0  0  0
 18 19  1  0  0  0  0
 18 37  1  0  0  0  0
 19 20  1  0  0  0  0
 20 21  1  0  0  0  0
 21 22  2  0  0  0  0
 21 25  1  0  0  0  0
 22 23  1  0  0  0  0
 23 24  3  0  0  0  0
 25 38  1  0  0  0  0
 25 39  1  0  0  0  0
 26 40  1  0  0  0  0
M  END
$$$$
ZINC01117575
  -OEChem-08230709453D

 41 42  0     0  0  0  0  0  0999 V2000
  -13.0947   -2.2555   -2.1362 C   0  0  0  0  0  0  0  0  0  0  0  0
  -12.1398   -3.0665   -1.2580 C   0  0  0  0  0  0  0  0  0  0  0  0
  -11.8398   -4.4064   -1.9329 C   0  0  0  0  0  0  0  0  0  0  0  0
  -10.8560   -2.2998   -1.0708 C   0  0  0  0  0  0  0  0  0  0  0  0
  -10.7183   -1.2118   -1.5888 O   0  0  0  0  0  0  0  0  0  0  0  0
   -9.8608   -2.8231   -0.3277 N   0  0  0  0  0  0  0  0  0  0  0  0
   -8.6325   -2.1564   -0.2327 C   0  0  0  0  0  0  0  0  0  0  0  0
   -7.4523   -2.8836   -0.1502 C   0  0  0  0  0  0  0  0  0  0  0  0
   -6.2419   -2.2266   -0.0571 C   0  0  0  0  0  0  0  0  0  0  0  0
   -6.2043   -0.8382   -0.0460 C   0  0  0  0  0  0  0  0  0  0  0  0
   -7.3852   -0.1111   -0.1232 C   0  0  0  0  0  0  0  0  0  0  0  0
   -8.5951   -0.7682   -0.2216 C   0  0  0  0  0  0  0  0  0  0  0  0
   -4.9768   -0.1718    0.0489 N   0  0  0  0  0  0  0  0  0  0  0  0
   -3.8827   -0.6868   -0.5462 C   0  0  0  0  0  0  0  0  0  0  0  0
   -3.9418   -1.7708   -1.0935 O   0  0  0  0  0  0  0  0  0  0  0  0
   -2.6115    0.0659   -0.5335 C   0  0  0  0  0  0  0  0  0  0  0  0
   -2.5400    1.3113    0.0941 C   0  0  0  0  0  0  0  0  0  0  0  0
   -1.3503    2.0085    0.1027 C   0  0  0  0  0  0  0  0  0  0  0  0
   -0.2292    1.4796   -0.5134 C   0  0  0  0  0  0  0  0  0  0  0  0
   -0.2901    0.2448   -1.1325 C   0  0  0  0  0  0  0  0  0  0  0  0
   -1.4753   -0.4650   -1.1490 C   0  0  0  0  0  0  0  0  0  0  0  0
   -1.5522   -2.0125   -1.9319 Cl  0  0  0  0  0  0  0  0  0  0  0  0
   -1.2735    3.3289    0.7673 N   0  3  0  0  0  0  0  0  0  0  0  0
   -2.2602    3.7981    1.3056 O   0  0  0  0  0  0  0  0  0  0  0  0
   -0.2222    3.9439    0.7803 O   0  5  0  0  0  0  0  0  0  0  0  0
  -12.6327   -2.0778   -3.1074 H   0  0  0  0  0  0  0  0  0  0  0  0
  -14.0233   -2.8101   -2.2717 H   0  0  0  0  0  0  0  0  0  0  0  0
  -13.3084   -1.3009   -1.6554 H   0  0  0  0  0  0  0  0  0  0  0  0
  -12.6018   -3.2442   -0.2869 H   0  0  0  0  0  0  0  0  0  0  0  0
  -11.3778   -4.2287   -2.9041 H   0  0  0  0  0  0  0  0  0  0  0  0
  -11.1595   -4.9842   -1.3073 H   0  0  0  0  0  0  0  0  0  0  0  0
  -12.7684   -4.9610   -2.0684 H   0  0  0  0  0  0  0  0  0  0  0  0
   -9.9950   -3.6615    0.1414 H   0  0  0  0  0  0  0  0  0  0  0  0
   -7.4815   -3.9631   -0.1592 H   0  0  0  0  0  0  0  0  0  0  0  0
   -5.3240   -2.7921    0.0067 H   0  0  0  0  0  0  0  0  0  0  0  0
   -7.3564    0.9685   -0.1105 H   0  0  0  0  0  0  0  0  0  0  0  0
   -9.5130   -0.2027   -0.2862 H   0  0  0  0  0  0  0  0  0  0  0  0
   -4.9137    0.6605    0.5430 H   0  0  0  0  0  0  0  0  0  0  0  0
   -3.4145    1.7274    0.5721 H   0  0  0  0  0  0  0  0  0  0  0  0
    0.6986    2.0323   -0.5068 H   0  0  0  0  0  0  0  0  0  0  0  0
    0.5893   -0.1637   -1.6080 H   0  0  0  0  0  0  0  0  0  0  0  0
  1  2  1  0  0  0  0
  1 26  1  0  0  0  0
  1 27  1  0  0  0  0
  1 28  1  0  0  0  0
  2  3  1  0  0  0  0
  2  4  1  0  0  0  0
  2 29  1  0  0  0  0
  3 30  1  0  0  0  0
  3 31  1  0  0  0  0
  3 32  1  0  0  0  0
  4  5  2  0  0  0  0
  4  6  1  0  0  0  0
  6  7  1  0  0  0  0
  6 33  1  0  0  0  0
  7 12  2  0  0  0  0
  7  8  1  0  0  0  0
  8  9  2  0  0  0  0
  8 34  1  0  0  0  0
  9 10  1  0  0  0  0
  9 35  1  0  0  0  0
 10 11  2  0  0  0  0
 10 13  1  0  0  0  0
 11 12  1  0  0  0  0
 11 36  1  0  0  0  0
 12 37  1  0  0  0  0
 13 14  1  0  0  0  0
 13 38  1  0  0  0  0
 14 15  2  0  0  0  0
 14 16  1  0  0  0  0
 16 21  2  0  0  0  0
 16 17  1  0  0  0  0
 17 18  2  0  0  0  0
 17 39  1  0  0  0  0
 18 19  1  0  0  0  0
 18 23  1  0  0  0  0
 19 20  2  0  0  0  0
 19 40  1  0  0  0  0
 20 21  1  0  0  0  0
 20 41  1  0  0  0  0
 21 22  1  0  0  0  0
 23 24  2  0  0  0  0
 23 25  1  0  0  0  0
M  CHG  2  23   1  25  -1
M  END
$$$$
ZINC01120092
  -OEChem-08230709453D

 44 45  0     1  0  0  0  0  0999 V2000
    4.7385    2.4790    4.0250 C   0  0  0  0  0  0  0  0  0  0  0  0
    4.1208    3.5877    4.8795 C   0  0  1  0  0  0  0  0  0  0  0  0
    4.0359    4.4986    4.2868 H   0  0  0  0  0  0  0  0  0  0  0  0
    2.7519    3.1609    5.3432 C   0  0  0  0  0  0  0  0  0  0  0  0
    2.5384    2.9880    6.5245 O   0  0  0  0  0  0  0  0  0  0  0  0
    1.7649    2.9712    4.4453 N   0  0  0  0  0  0  0  0  0  0  0  0
    0.4924    2.5743    4.8764 N   0  0  0  0  0  0  0  0  0  0  0  0
   -0.4946    2.3847    3.9784 C   0  0  0  0  0  0  0  0  0  0  0  0
   -2.0497    1.8997    4.5053 S   0  0  0  0  0  0  0  0  0  0  0  0
   -0.2574    2.5768    2.6657 N   0  0  0  0  0  0  0  0  0  0  0  0
   -1.3302    2.3706    1.6896 C   0  0  0  0  0  0  0  0  0  0  0  0
   -0.7420    2.0309    0.3045 C   0  0  0  0  0  0  0  0  0  0  0  0
   -1.6320    2.7326   -0.7363 C   0  0  0  0  0  0  0  0  0  0  0  0
   -2.7311    3.4744    0.0521 C   0  0  0  0  0  0  0  0  0  0  0  0
   -2.1132    3.6874    1.4563 C   0  0  0  0  0  0  0  0  0  0  0  0
    4.9530    3.8339    6.0147 O   0  0  0  0  0  0  0  0  0  0  0  0
    5.9941    4.6903    5.8424 C   0  0  0  0  0  0  0  0  0  0  0  0
    6.7703    5.0677    6.9285 C   0  0  0  0  0  0  0  0  0  0  0  0
    7.8310    5.9347    6.7500 C   0  0  0  0  0  0  0  0  0  0  0  0
    8.1127    6.4343    5.4919 C   0  0  0  0  0  0  0  0  0  0  0  0
    7.3374    6.0637    4.4087 C   0  0  0  0  0  0  0  0  0  0  0  0
    6.2789    5.1930    4.5812 C   0  0  0  0  0  0  0  0  0  0  0  0
    9.2465    7.3670    5.3043 N   0  3  0  0  0  0  0  0  0  0  0  0
    9.4958    7.8074    4.1964 O   0  0  0  0  0  0  0  0  0  0  0  0
    9.9302    7.6941    6.2577 O   0  5  0  0  0  0  0  0  0  0  0  0
    5.7286    2.7878    3.6896 H   0  0  0  0  0  0  0  0  0  0  0  0
    4.8233    1.5682    4.6177 H   0  0  0  0  0  0  0  0  0  0  0  0
    4.1037    2.2913    3.1591 H   0  0  0  0  0  0  0  0  0  0  0  0
    1.9357    3.1094    3.5005 H   0  0  0  0  0  0  0  0  0  0  0  0
    0.3216    2.4361    5.8212 H   0  0  0  0  0  0  0  0  0  0  0  0
    0.6237    2.8515    2.3672 H   0  0  0  0  0  0  0  0  0  0  0  0
   -2.0034    1.5805    2.0224 H   0  0  0  0  0  0  0  0  0  0  0  0
   -0.7604    0.9527    0.1453 H   0  0  0  0  0  0  0  0  0  0  0  0
    0.2805    2.4013    0.2320 H   0  0  0  0  0  0  0  0  0  0  0  0
   -1.0415    3.4443   -1.3133 H   0  0  0  0  0  0  0  0  0  0  0  0
   -2.0822    1.9950   -1.4006 H   0  0  0  0  0  0  0  0  0  0  0  0
   -2.9549    4.4332   -0.4156 H   0  0  0  0  0  0  0  0  0  0  0  0
   -3.6307    2.8627    0.1199 H   0  0  0  0  0  0  0  0  0  0  0  0
   -1.4376    4.5428    1.4554 H   0  0  0  0  0  0  0  0  0  0  0  0
   -2.8936    3.8143    2.2066 H   0  0  0  0  0  0  0  0  0  0  0  0
    6.5481    4.6810    7.9121 H   0  0  0  0  0  0  0  0  0  0  0  0
    8.4383    6.2254    7.5944 H   0  0  0  0  0  0  0  0  0  0  0  0
    7.5597    6.4551    3.4270 H   0  0  0  0  0  0  0  0  0  0  0  0
    5.6737    4.9035    3.7347 H   0  0  0  0  0  0  0  0  0  0  0  0
  1  2  1  0  0  0  0
  1 26  1  0  0  0  0
  1 27  1  0  0  0  0
  1 28  1  0  0  0  0
  2  3  1  0  0  0  0
  2  4  1  0  0  0  0
  2 16  1  0  0  0  0
  4  5  2  0  0  0  0
  4  6  1  0  0  0  0
  6  7  1  0  0  0  0
  6 29  1  0  0  0  0
  7  8  1  0  0  0  0
  7 30  1  0  0  0  0
  8  9  2  0  0  0  0
  8 10  1  0  0  0  0
 10 11  1  0  0  0  0
 10 31  1  0  0  0  0
 11 15  1  0  0  0  0
 11 12  1  0  0  0  0
 11 32  1  0  0  0  0
 12 13  1  0  0  0  0
 12 33  1  0  0  0  0
 12 34  1  0  0  0  0
 13 14  1  0  0  0  0
 13 35  1  0  0  0  0
 13 36  1  0  0  0  0
 14 15  1  0  0  0  0
 14 37  1  0  0  0  0
 14 38  1  0  0  0  0
 15 39  1  0  0  0  0
 15 40  1  0  0  0  0
 16 17  1  0  0  0  0
 17 22  2  0  0  0  0
 17 18  1  0  0  0  0
 18 19  2  0  0  0  0
 18 41  1  0  0  0  0
 19 20  1  0  0  0  0
 19 42  1  0  0  0  0
 20 21  2  0  0  0  0
 20 23  1  0  0  0  0
 21 22  1  0  0  0  0
 21 43  1  0  0  0  0
 22 44  1  0  0  0  0
 23 24  2  0  0  0  0
 23 25  1  0  0  0  0
M  CHG  2  23   1  25  -1
M  END
$$$$
ZINC01120094
  -OEChem-08230709453D

 44 45  0     1  0  0  0  0  0999 V2000
    4.4399    4.5965    3.9043 C   0  0  0  0  0  0  0  0  0  0  0  0
    4.2603    3.4003    4.8412 C   0  0  2  0  0  0  0  0  0  0  0  0
    4.6062    2.4941    4.3438 H   0  0  0  0  0  0  0  0  0  0  0  0
    2.8028    3.2539    5.1951 C   0  0  0  0  0  0  0  0  0  0  0  0
    2.4381    3.4122    6.3409 O   0  0  0  0  0  0  0  0  0  0  0  0
    1.9045    2.9470    4.2383 N   0  0  0  0  0  0  0  0  0  0  0  0
    0.5495    2.8109    4.5674 N   0  0  0  0  0  0  0  0  0  0  0  0
   -0.3488    2.5040    3.6106 C   0  0  0  0  0  0  0  0  0  0  0  0
   -2.0046    2.3377    4.0127 S   0  0  0  0  0  0  0  0  0  0  0  0
    0.0564    2.3281    2.3373 N   0  0  0  0  0  0  0  0  0  0  0  0
   -0.9200    1.9946    1.2973 C   0  0  0  0  0  0  0  0  0  0  0  0
   -0.2348    1.2518    0.1317 C   0  0  0  0  0  0  0  0  0  0  0  0
   -0.8987    1.7548   -1.1622 C   0  0  0  0  0  0  0  0  0  0  0  0
   -1.9651    2.7857   -0.7383 C   0  0  0  0  0  0  0  0  0  0  0  0
   -1.4829    3.2835    0.6469 C   0  0  0  0  0  0  0  0  0  0  0  0
    5.0210    3.6098    6.0325 O   0  0  0  0  0  0  0  0  0  0  0  0
    6.3330    3.2572    5.9968 C   0  0  0  0  0  0  0  0  0  0  0  0
    6.9028    2.8197    4.8100 C   0  0  0  0  0  0  0  0  0  0  0  0
    8.2379    2.4663    4.7752 C   0  0  0  0  0  0  0  0  0  0  0  0
    9.0035    2.5384    5.9243 C   0  0  0  0  0  0  0  0  0  0  0  0
    8.4366    2.9691    7.1096 C   0  0  0  0  0  0  0  0  0  0  0  0
    7.1033    3.3286    7.1484 C   0  0  0  0  0  0  0  0  0  0  0  0
   10.4320    2.1534    5.8856 N   0  3  0  0  0  0  0  0  0  0  0  0
   11.1073    2.2162    6.8973 O   0  0  0  0  0  0  0  0  0  0  0  0
   10.9324    1.7739    4.8420 O   0  5  0  0  0  0  0  0  0  0  0  0
    5.4941    4.7024    3.6483 H   0  0  0  0  0  0  0  0  0  0  0  0
    3.8596    4.4367    2.9956 H   0  0  0  0  0  0  0  0  0  0  0  0
    4.0940    5.5027    4.4017 H   0  0  0  0  0  0  0  0  0  0  0  0
    2.1961    2.8204    3.3219 H   0  0  0  0  0  0  0  0  0  0  0  0
    0.2578    2.9375    5.4838 H   0  0  0  0  0  0  0  0  0  0  0  0
    0.9946    2.4224    2.1095 H   0  0  0  0  0  0  0  0  0  0  0  0
   -1.7285    1.3918    1.7110 H   0  0  0  0  0  0  0  0  0  0  0  0
   -0.3842    0.1770    0.2346 H   0  0  0  0  0  0  0  0  0  0  0  0
    0.8308    1.4808    0.1180 H   0  0  0  0  0  0  0  0  0  0  0  0
   -0.1554    2.2287   -1.8034 H   0  0  0  0  0  0  0  0  0  0  0  0
   -1.3702    0.9241   -1.6872 H   0  0  0  0  0  0  0  0  0  0  0  0
   -2.0013    3.6114   -1.4490 H   0  0  0  0  0  0  0  0  0  0  0  0
   -2.9426    2.3107   -0.6539 H   0  0  0  0  0  0  0  0  0  0  0  0
   -0.6997    4.0336    0.5366 H   0  0  0  0  0  0  0  0  0  0  0  0
   -2.3165    3.6800    1.2265 H   0  0  0  0  0  0  0  0  0  0  0  0
    6.3042    2.7593    3.9131 H   0  0  0  0  0  0  0  0  0  0  0  0
    8.6830    2.1299    3.8505 H   0  0  0  0  0  0  0  0  0  0  0  0
    9.0368    3.0249    8.0057 H   0  0  0  0  0  0  0  0  0  0  0  0
    6.6611    3.6653    8.0744 H   0  0  0  0  0  0  0  0  0  0  0  0
  1  2  1  0  0  0  0
  1 26  1  0  0  0  0
  1 27  1  0  0  0  0
  1 28  1  0  0  0  0
  2  3  1  0  0  0  0
  2  4  1  0  0  0  0
  2 16  1  0  0  0  0
  4  5  2  0  0  0  0
  4  6  1  0  0  0  0
  6  7  1  0  0  0  0
  6 29  1  0  0  0  0
  7  8  1  0  0  0  0
  7 30  1  0  0  0  0
  8  9  2  0  0  0  0
  8 10  1  0  0  0  0
 10 11  1  0  0  0  0
 10 31  1  0  0  0  0
 11 15  1  0  0  0  0
 11 12  1  0  0  0  0
 11 32  1  0  0  0  0
 12 13  1  0  0  0  0
 12 33  1  0  0  0  0
 12 34  1  0  0  0  0
 13 14  1  0  0  0  0
 13 35  1  0  0  0  0
 13 36  1  0  0  0  0
 14 15  1  0  0  0  0
 14 37  1  0  0  0  0
 14 38  1  0  0  0  0
 15 39  1  0  0  0  0
 15 40  1  0  0  0  0
 16 17  1  0  0  0  0
 17 22  2  0  0  0  0
 17 18  1  0  0  0  0
 18 19  2  0  0  0  0
 18 41  1  0  0  0  0
 19 20  1  0  0  0  0
 19 42  1  0  0  0  0
 20 21  2  0  0  0  0
 20 23  1  0  0  0  0
 21 22  1  0  0  0  0
 21 43  1  0  0  0  0
 22 44  1  0  0  0  0
 23 24  2  0  0  0  0
 23 25  1  0  0  0  0
M  CHG  2  23   1  25  -1
M  END
$$$$
ZINC01125907
  -OEChem-08230709453D

 46 49  0     0  0  0  0  0  0999 V2000
    5.1745    6.4405    4.0189 C   0  0  0  0  0  0  0  0  0  0  0  0
    4.0694    5.4334    3.8306 C   0  0  0  0  0  0  0  0  0  0  0  0
    2.7549    5.8020    4.0520 C   0  0  0  0  0  0  0  0  0  0  0  0
    1.7398    4.8817    3.8809 C   0  0  0  0  0  0  0  0  0  0  0  0
    2.0403    3.5838    3.4851 C   0  0  0  0  0  0  0  0  0  0  0  0
    3.3627    3.2156    3.2686 C   0  0  0  0  0  0  0  0  0  0  0  0
    4.3721    4.1428    3.4362 C   0  0  0  0  0  0  0  0  0  0  0  0
    0.7482    2.4061    3.2654 S   0  0  0  0  0  0  0  0  0  0  0  0
    1.6138    0.8946    2.7586 C   0  0  0  0  0  0  0  0  0  0  0  0
    0.6105   -0.2077    2.5346 C   0  0  0  0  0  0  0  0  0  0  0  0
   -0.0436   -0.5484    1.4190 C   0  0  0  0  0  0  0  0  0  0  0  0
   -0.8921   -1.6345    1.7608 C   0  0  0  0  0  0  0  0  0  0  0  0
   -0.7367   -1.9245    3.0198 N   0  0  0  0  0  0  0  0  0  0  0  0
    0.2170   -1.0436    3.5339 N   0  0  0  0  0  0  0  0  0  0  0  0
    0.5534   -1.0294    4.4755 H   0  0  0  0  0  0  0  0  0  0  0  0
   -1.7259   -2.2365    0.8708 O   0  0  0  0  0  0  0  0  0  0  0  0
   -2.0324   -1.5139   -0.2215 C   0  0  0  0  0  0  0  0  0  0  0  0
   -1.2711   -0.5008   -0.6846 C   0  0  0  0  0  0  0  0  0  0  0  0
    0.0021   -0.0041    0.0020 C   0  0  0  0  0  0  0  0  0  0  0  0
   -0.0183    1.4985    0.0103 C   0  0  0  0  0  0  0  0  0  0  0  0
    1.2388    2.3249    0.0027 C   0  0  0  0  0  0  0  0  0  0  0  0
    2.6722    1.5390   -0.7603 S   0  0  0  0  0  0  0  0  0  0  0  0
    2.5098   -0.2105   -0.3044 C   0  0  0  0  0  0  0  0  0  0  0  0
    1.1335   -0.6773   -0.7644 C   0  0  0  0  0  0  0  0  0  0  0  0
   -1.6757    0.0721   -1.9332 C   0  0  0  0  0  0  0  0  0  0  0  0
   -1.9967    0.5264   -2.9237 N   0  0  0  0  0  0  0  0  0  0  0  0
   -3.1890   -1.8168   -0.8941 N   0  0  0  0  0  0  0  0  0  0  0  0
    5.5283    6.4033    5.0492 H   0  0  0  0  0  0  0  0  0  0  0  0
    5.9975    6.2074    3.3434 H   0  0  0  0  0  0  0  0  0  0  0  0
    4.7968    7.4394    3.8003 H   0  0  0  0  0  0  0  0  0  0  0  0
    2.5222    6.8108    4.3596 H   0  0  0  0  0  0  0  0  0  0  0  0
    0.7136    5.1703    4.0540 H   0  0  0  0  0  0  0  0  0  0  0  0
    3.6002    2.2066    2.9653 H   0  0  0  0  0  0  0  0  0  0  0  0
    5.3997    3.8585    3.2638 H   0  0  0  0  0  0  0  0  0  0  0  0
    2.3125    0.5966    3.5403 H   0  0  0  0  0  0  0  0  0  0  0  0
    2.1606    1.0816    1.8344 H   0  0  0  0  0  0  0  0  0  0  0  0
   -0.6631    1.9020   -0.7961 H   0  0  0  0  0  0  0  0  0  0  0  0
   -0.5955    1.8011    0.9263 H   0  0  0  0  0  0  0  0  0  0  0  0
    1.0210    3.2594   -0.5737 H   0  0  0  0  0  0  0  0  0  0  0  0
    1.4903    2.7051    0.9958 H   0  0  0  0  0  0  0  0  0  0  0  0
    2.6518   -0.3533    0.7572 H   0  0  0  0  0  0  0  0  0  0  0  0
    3.2802   -0.7906   -0.8323 H   0  0  0  0  0  0  0  0  0  0  0  0
    1.0663   -1.7601   -0.6063 H   0  0  0  0  0  0  0  0  0  0  0  0
    1.0278   -0.4805   -1.8308 H   0  0  0  0  0  0  0  0  0  0  0  0
   -3.7596   -2.5349   -0.5785 H   0  0  0  0  0  0  0  0  0  0  0  0
   -3.4361   -1.3129   -1.6852 H   0  0  0  0  0  0  0  0  0  0  0  0
  1  2  1  0  0  0  0
  1 28  1  0  0  0  0
  1 29  1  0  0  0  0
  1 30  1  0  0  0  0
  2  7  2  0  0  0  0
  2  3  1  0  0  0  0
  3  4  2  0  0  0  0
  3 31  1  0  0  0  0
  4  5  1  0  0  0  0
  4 32  1  0  0  0  0
  5  6  2  0  0  0  0
  5  8  1  0  0  0  0
  6  7  1  0  0  0  0
  6 33  1  0  0  0  0
  7 34  1  0  0  0  0
  8  9  1  0  0  0  0
  9 10  1  0  0  0  0
  9 35  1  0  0  0  0
  9 36  1  0  0  0  0
 10 14  1  0  0  0  0
 10 11  2  0  0  0  0
 11 19  1  0  0  0  0
 11 12  1  0  0  0  0
 12 13  2  0  0  0  0
 12 16  1  0  0  0  0
 13 14  1  0  0  0  0
 14 15  1  0  0  0  0
 16 17  1  0  0  0  0
 17 18  2  0  0  0  0
 17 27  1  0  0  0  0
 18 19  1  0  0  0  0
 18 25  1  0  0  0  0
 19 24  1  0  0  0  0
 19 20  1  0  0  0  0
 20 21  1  0  0  0  0
 20 37  1  0  0  0  0
 20 38  1  0  0  0  0
 21 22  1  0  0  0  0
 21 39  1  0  0  0  0
 21 40  1  0  0  0  0
 22 23  1  0  0  0  0
 23 24  1  0  0  0  0
 23 41  1  0  0  0  0
 23 42  1  0  0  0  0
 24 43  1  0  0  0  0
 24 44  1  0  0  0  0
 25 26  3  0  0  0  0
 27 45  1  0  0  0  0
 27 46  1  0  0  0  0
M  END
$$$$
ZINC01140654
  -OEChem-08230709453D

 41 42  0     0  0  0  0  0  0999 V2000
   -5.4266    6.7760    1.6609 C   0  0  0  0  0  0  0  0  0  0  0  0
   -4.3052    6.9809    0.6405 C   0  0  0  0  0  0  0  0  0  0  0  0
   -3.2621    5.9078    0.8181 C   0  0  0  0  0  0  0  0  0  0  0  0
   -3.4020    5.0623    1.6763 O   0  0  0  0  0  0  0  0  0  0  0  0
   -2.1739    5.8876    0.0232 N   0  0  0  0  0  0  0  0  0  0  0  0
   -1.2612    4.8303    0.1130 C   0  0  0  0  0  0  0  0  0  0  0  0
   -1.7043    3.5556    0.4427 C   0  0  0  0  0  0  0  0  0  0  0  0
   -0.8036    2.5122    0.5373 C   0  0  0  0  0  0  0  0  0  0  0  0
    0.5396    2.7307    0.2931 C   0  0  0  0  0  0  0  0  0  0  0  0
    0.9881    4.0030   -0.0424 C   0  0  0  0  0  0  0  0  0  0  0  0
    0.0859    5.0535   -0.1323 C   0  0  0  0  0  0  0  0  0  0  0  0
    2.3474    4.2241   -0.2886 N   0  0  0  0  0  0  0  0  0  0  0  0
    2.7345    5.2787   -1.0332 C   0  0  0  0  0  0  0  0  0  0  0  0
    1.9013    5.9796   -1.5739 O   0  0  0  0  0  0  0  0  0  0  0  0
    4.1722    5.5831   -1.1924 C   0  0  0  0  0  0  0  0  0  0  0  0
    5.1250    4.8681   -0.4644 C   0  0  0  0  0  0  0  0  0  0  0  0
    6.4650    5.1572   -0.6176 C   0  0  0  0  0  0  0  0  0  0  0  0
    6.8656    6.1534   -1.4905 C   0  0  0  0  0  0  0  0  0  0  0  0
    5.9266    6.8654   -2.2153 C   0  0  0  0  0  0  0  0  0  0  0  0
    4.5834    6.5827   -2.0754 C   0  0  0  0  0  0  0  0  0  0  0  0
    3.5623    7.3554   -2.8700 C   0  0  0  0  0  0  0  0  0  0  0  0
    6.3643    7.9290   -3.1470 N   0  3  0  0  0  0  0  0  0  0  0  0
    7.5506    8.0953   -3.3674 O   0  0  0  0  0  0  0  0  0  0  0  0
    5.5381    8.6378   -3.6935 O   0  5  0  0  0  0  0  0  0  0  0  0
    1.6669    1.4154    0.4060 Cl  0  0  0  0  0  0  0  0  0  0  0  0
   -5.0155    6.8322    2.6688 H   0  0  0  0  0  0  0  0  0  0  0  0
   -6.1810    7.5522    1.5325 H   0  0  0  0  0  0  0  0  0  0  0  0
   -5.8823    5.7976    1.5084 H   0  0  0  0  0  0  0  0  0  0  0  0
   -3.8495    7.9593    0.7930 H   0  0  0  0  0  0  0  0  0  0  0  0
   -4.7163    6.9247   -0.3674 H   0  0  0  0  0  0  0  0  0  0  0  0
   -2.0233    6.6058   -0.6112 H   0  0  0  0  0  0  0  0  0  0  0  0
   -2.7536    3.3808    0.6294 H   0  0  0  0  0  0  0  0  0  0  0  0
   -1.1500    1.5231    0.7982 H   0  0  0  0  0  0  0  0  0  0  0  0
    0.4317    6.0428   -0.3931 H   0  0  0  0  0  0  0  0  0  0  0  0
    3.0112    3.6185    0.0766 H   0  0  0  0  0  0  0  0  0  0  0  0
    4.8136    4.0906    0.2175 H   0  0  0  0  0  0  0  0  0  0  0  0
    7.2031    4.6051   -0.0548 H   0  0  0  0  0  0  0  0  0  0  0  0
    7.9160    6.3759   -1.6068 H   0  0  0  0  0  0  0  0  0  0  0  0
    3.1925    8.1891   -2.2731 H   0  0  0  0  0  0  0  0  0  0  0  0
    4.0236    7.7370   -3.7808 H   0  0  0  0  0  0  0  0  0  0  0  0
    2.7322    6.6988   -3.1307 H   0  0  0  0  0  0  0  0  0  0  0  0
  1  2  1  0  0  0  0
  1 26  1  0  0  0  0
  1 27  1  0  0  0  0
  1 28  1  0  0  0  0
  2  3  1  0  0  0  0
  2 29  1  0  0  0  0
  2 30  1  0  0  0  0
  3  4  2  0  0  0  0
  3  5  1  0  0  0  0
  5  6  1  0  0  0  0
  5 31  1  0  0  0  0
  6 11  2  0  0  0  0
  6  7  1  0  0  0  0
  7  8  2  0  0  0  0
  7 32  1  0  0  0  0
  8  9  1  0  0  0  0
  8 33  1  0  0  0  0
  9 10  2  0  0  0  0
  9 25  1  0  0  0  0
 10 11  1  0  0  0  0
 10 12  1  0  0  0  0
 11 34  1  0  0  0  0
 12 13  1  0  0  0  0
 12 35  1  0  0  0  0
 13 14  2  0  0  0  0
 13 15  1  0  0  0  0
 15 20  2  0  0  0  0
 15 16  1  0  0  0  0
 16 17  2  0  0  0  0
 16 36  1  0  0  0  0
 17 18  1  0  0  0  0
 17 37  1  0  0  0  0
 18 19  2  0  0  0  0
 18 38  1  0  0  0  0
 19 20  1  0  0  0  0
 19 22  1  0  0  0  0
 20 21  1  0  0  0  0
 21 39  1  0  0  0  0
 21 40  1  0  0  0  0
 21 41  1  0  0  0  0
 22 23  2  0  0  0  0
 22 24  1  0  0  0  0
M  CHG  2  22   1  24  -1
M  END
$$$$
ZINC01143732
  -OEChem-08230709453D

 43 45  0     0  0  0  0  0  0999 V2000
    6.8455    9.1065   -2.5394 C   0  0  0  0  0  0  0  0  0  0  0  0
    7.0474    7.6337   -2.2921 C   0  0  0  0  0  0  0  0  0  0  0  0
    8.3188    7.1378   -2.0707 C   0  0  0  0  0  0  0  0  0  0  0  0
    8.5040    5.7870   -1.8443 C   0  0  0  0  0  0  0  0  0  0  0  0
    7.4178    4.9316   -1.8391 C   0  0  0  0  0  0  0  0  0  0  0  0
    6.1468    5.4273   -2.0604 C   0  0  0  0  0  0  0  0  0  0  0  0
    5.9621    6.7778   -2.2921 C   0  0  0  0  0  0  0  0  0  0  0  0
    4.9629    4.4949   -2.0553 C   0  0  0  0  0  0  0  0  0  0  0  0
    4.4365    4.4008   -0.7301 O   0  0  0  0  0  0  0  0  0  0  0  0
    3.3582    3.5939   -0.5506 C   0  0  0  0  0  0  0  0  0  0  0  0
    3.5418    2.2487   -0.2330 C   0  0  0  0  0  0  0  0  0  0  0  0
    2.4481    1.4259   -0.0503 C   0  0  0  0  0  0  0  0  0  0  0  0
    1.1547    1.9459   -0.1845 C   0  0  0  0  0  0  0  0  0  0  0  0
    0.9780    3.2962   -0.5084 C   0  0  0  0  0  0  0  0  0  0  0  0
    2.0760    4.1116   -0.6837 C   0  0  0  0  0  0  0  0  0  0  0  0
    1.8557    5.7877   -1.0788 Cl  0  0  0  0  0  0  0  0  0  0  0  0
   -0.0126    1.0758    0.0080 C   0  0  0  0  0  0  0  0  0  0  0  0
   -1.1129    1.5481    0.6459 C   0  0  0  0  0  0  0  0  0  0  0  0
   -1.2553    2.8316    1.3504 C   0  0  0  0  0  0  0  0  0  0  0  0
   -0.4046    3.6921    1.4811 O   0  0  0  0  0  0  0  0  0  0  0  0
   -2.5189    2.8640    1.8200 N   0  0  0  0  0  0  0  0  0  0  0  0
   -3.1587    1.7333    1.4843 C   0  0  0  0  0  0  0  0  0  0  0  0
   -4.3119    1.4819    1.7775 O   0  0  0  0  0  0  0  0  0  0  0  0
   -2.3564    0.9153    0.7805 N   0  0  0  0  0  0  0  0  0  0  0  0
    4.7991    1.7467   -0.1033 O   0  0  0  0  0  0  0  0  0  0  0  0
    4.9135    0.3601    0.2229 C   0  0  0  0  0  0  0  0  0  0  0  0
    6.9126    9.3079   -3.6086 H   0  0  0  0  0  0  0  0  0  0  0  0
    5.8627    9.4048   -2.1745 H   0  0  0  0  0  0  0  0  0  0  0  0
    7.6152    9.6720   -2.0142 H   0  0  0  0  0  0  0  0  0  0  0  0
    9.1673    7.8059   -2.0751 H   0  0  0  0  0  0  0  0  0  0  0  0
    9.4973    5.3996   -1.6717 H   0  0  0  0  0  0  0  0  0  0  0  0
    7.5626    3.8760   -1.6626 H   0  0  0  0  0  0  0  0  0  0  0  0
    4.9694    7.1645   -2.4695 H   0  0  0  0  0  0  0  0  0  0  0  0
    5.2769    3.5071   -2.3925 H   0  0  0  0  0  0  0  0  0  0  0  0
    4.1941    4.8801   -2.7251 H   0  0  0  0  0  0  0  0  0  0  0  0
    2.5897    0.3839    0.1957 H   0  0  0  0  0  0  0  0  0  0  0  0
   -0.0178    3.7000   -0.6171 H   0  0  0  0  0  0  0  0  0  0  0  0
    0.0032    0.0614   -0.3622 H   0  0  0  0  0  0  0  0  0  0  0  0
   -2.9063    3.5940    2.3278 H   0  0  0  0  0  0  0  0  0  0  0  0
   -2.5955    0.0435    0.4287 H   0  0  0  0  0  0  0  0  0  0  0  0
    4.4222    0.1696    1.1771 H   0  0  0  0  0  0  0  0  0  0  0  0
    4.4386   -0.2368   -0.5558 H   0  0  0  0  0  0  0  0  0  0  0  0
    5.9669    0.0898    0.2963 H   0  0  0  0  0  0  0  0  0  0  0  0
  1  2  1  0  0  0  0
  1 27  1  0  0  0  0
  1 28  1  0  0  0  0
  1 29  1  0  0  0  0
  2  7  2  0  0  0  0
  2  3  1  0  0  0  0
  3  4  2  0  0  0  0
  3 30  1  0  0  0  0
  4  5  1  0  0  0  0
  4 31  1  0  0  0  0
  5  6  2  0  0  0  0
  5 32  1  0  0  0  0
  6  7  1  0  0  0  0
  6  8  1  0  0  0  0
  7 33  1  0  0  0  0
  8  9  1  0  0  0  0
  8 34  1  0  0  0  0
  8 35  1  0  0  0  0
  9 10  1  0  0  0  0
 10 15  2  0  0  0  0
 10 11  1  0  0  0  0
 11 12  2  0  0  0  0
 11 25  1  0  0  0  0
 12 13  1  0  0  0  0
 12 36  1  0  0  0  0
 13 14  2  0  0  0  0
 13 17  1  0  0  0  0
 14 15  1  0  0  0  0
 14 37  1  0  0  0  0
 15 16  1  0  0  0  0
 17 18  2  0  0  0  0
 17 38  1  0  0  0  0
 18 24  1  0  0  0  0
 18 19  1  0  0  0  0
 19 20  2  0  0  0  0
 19 21  1  0  0  0  0
 21 22  1  0  0  0  0
 21 39  1  0  0  0  0
 22 23  2  0  0  0  0
 22 24  1  0  0  0  0
 24 40  1  0  0  0  0
 25 26  1  0  0  0  0
 26 41  1  0  0  0  0
 26 42  1  0  0  0  0
 26 43  1  0  0  0  0
M  END
$$$$
ZINC01144898
  -OEChem-08230709453D

 43 45  0     1  0  0  0  0  0999 V2000
    3.7337   -0.8699   -0.0369 C   0  0  0  0  0  0  0  0  0  0  0  0
    2.3115   -0.3059   -0.0207 C   0  0  0  0  0  0  0  0  0  0  0  0
    2.3655    1.1221   -0.0141 O   0  0  0  0  0  0  0  0  0  0  0  0
    1.1779    1.7848    0.0004 C   0  0  0  0  0  0  0  0  0  0  0  0
   -0.0126    1.0758    0.0080 C   0  0  0  0  0  0  0  0  0  0  0  0
   -1.2191    1.7506    0.0173 C   0  0  0  0  0  0  0  0  0  0  0  0
   -1.2412    3.1337    0.0307 C   0  0  0  0  0  0  0  0  0  0  0  0
   -0.0562    3.8470    0.0233 C   0  0  0  0  0  0  0  0  0  0  0  0
    1.1561    3.1761    0.0081 C   0  0  0  0  0  0  0  0  0  0  0  0
    2.3221    3.8759    0.0012 O   0  0  0  0  0  0  0  0  0  0  0  0
    2.2233    5.3014    0.0097 C   0  0  0  0  0  0  0  0  0  0  0  0
   -2.8947    4.0509    0.0508 Br  0  0  0  0  0  0  0  0  0  0  0  0
   -2.5128    0.9778    0.0188 C   0  0  1  0  0  0  0  0  0  0  0  0
   -3.3501    1.6755    0.0322 H   0  0  0  0  0  0  0  0  0  0  0  0
   -2.5910    0.1336   -1.2257 C   0  0  0  0  0  0  0  0  0  0  0  0
   -2.9015    0.7309   -2.4346 C   0  0  0  0  0  0  0  0  0  0  0  0
   -2.9776   -0.0272   -3.5861 C   0  0  0  0  0  0  0  0  0  0  0  0
   -2.7417   -1.3940   -3.5335 C   0  0  0  0  0  0  0  0  0  0  0  0
   -2.4314   -1.9946   -2.3250 C   0  0  0  0  0  0  0  0  0  0  0  0
   -2.3552   -1.2307   -1.1674 C   0  0  0  0  0  0  0  0  0  0  0  0
   -2.0500   -1.8345    0.0076 O   0  0  0  0  0  0  0  0  0  0  0  0
   -2.3405   -1.2255    1.1693 C   0  0  0  0  0  0  0  0  0  0  0  0
   -2.5710    0.1068    1.2420 C   0  0  0  0  0  0  0  0  0  0  0  0
   -2.8769    0.6976    2.5101 C   0  0  0  0  0  0  0  0  0  0  0  0
   -3.1196    1.1664    3.5160 N   0  0  0  0  0  0  0  0  0  0  0  0
   -2.4060   -1.9763    2.3166 N   0  0  0  0  0  0  0  0  0  0  0  0
   -2.8157   -2.1415   -4.6660 O   0  0  0  0  0  0  0  0  0  0  0  0
    4.2525   -0.5218   -0.9300 H   0  0  0  0  0  0  0  0  0  0  0  0
    4.2692   -0.5307    0.8498 H   0  0  0  0  0  0  0  0  0  0  0  0
    3.6925   -1.9592   -0.0420 H   0  0  0  0  0  0  0  0  0  0  0  0
    1.7927   -0.6541    0.8724 H   0  0  0  0  0  0  0  0  0  0  0  0
    1.7761   -0.6451   -0.9075 H   0  0  0  0  0  0  0  0  0  0  0  0
    0.0021   -0.0041    0.0020 H   0  0  0  0  0  0  0  0  0  0  0  0
   -0.0758    4.9268    0.0296 H   0  0  0  0  0  0  0  0  0  0  0  0
    1.6774    5.6331   -0.8735 H   0  0  0  0  0  0  0  0  0  0  0  0
    1.6937    5.6235    0.9063 H   0  0  0  0  0  0  0  0  0  0  0  0
    3.2233    5.7350    0.0029 H   0  0  0  0  0  0  0  0  0  0  0  0
   -3.0854    1.7943   -2.4776 H   0  0  0  0  0  0  0  0  0  0  0  0
   -3.2210    0.4431   -4.5274 H   0  0  0  0  0  0  0  0  0  0  0  0
   -2.2480   -3.0581   -2.2828 H   0  0  0  0  0  0  0  0  0  0  0  0
   -2.6149   -1.5512    3.1631 H   0  0  0  0  0  0  0  0  0  0  0  0
   -2.2433   -2.9319    2.2808 H   0  0  0  0  0  0  0  0  0  0  0  0
   -1.9783   -2.2154   -5.1439 H   0  0  0  0  0  0  0  0  0  0  0  0
  1  2  1  0  0  0  0
  1 28  1  0  0  0  0
  1 29  1  0  0  0  0
  1 30  1  0  0  0  0
  2  3  1  0  0  0  0
  2 31  1  0  0  0  0
  2 32  1  0  0  0  0
  3  4  1  0  0  0  0
  4  9  2  0  0  0  0
  4  5  1  0  0  0  0
  5  6  2  0  0  0  0
  5 33  1  0  0  0  0
  6  7  1  0  0  0  0
  6 13  1  0  0  0  0
  7  8  2  0  0  0  0
  7 12  1  0  0  0  0
  8  9  1  0  0  0  0
  8 34  1  0  0  0  0
  9 10  1  0  0  0  0
 10 11  1  0  0  0  0
 11 35  1  0  0  0  0
 11 36  1  0  0  0  0
 11 37  1  0  0  0  0
 13 14  1  0  0  0  0
 13 23  1  0  0  0  0
 13 15  1  0  0  0  0
 15 20  2  0  0  0  0
 15 16  1  0  0  0  0
 16 17  2  0  0  0  0
 16 38  1  0  0  0  0
 17 18  1  0  0  0  0
 17 39  1  0  0  0  0
 18 19  2  0  0  0  0
 18 27  1  0  0  0  0
 19 20  1  0  0  0  0
 19 40  1  0  0  0  0
 20 21  1  0  0  0  0
 21 22  1  0  0  0  0
 22 23  2  0  0  0  0
 22 26  1  0  0  0  0
 23 24  1  0  0  0  0
 24 25  3  0  0  0  0
 26 41  1  0  0  0  0
 26 42  1  0  0  0  0
 27 43  1  0  0  0  0
M  END
$$$$
ZINC01144900
  -OEChem-08230709453D

 43 45  0     1  0  0  0  0  0999 V2000
    0.2812    6.0384   -5.7614 C   0  0  0  0  0  0  0  0  0  0  0  0
    0.9071    5.4972   -4.4744 C   0  0  0  0  0  0  0  0  0  0  0  0
    2.1838    4.9269   -4.7688 O   0  0  0  0  0  0  0  0  0  0  0  0
    2.8784    4.3968   -3.7265 C   0  0  0  0  0  0  0  0  0  0  0  0
    2.3425    4.4253   -2.4491 C   0  0  0  0  0  0  0  0  0  0  0  0
    3.0497    3.8866   -1.3905 C   0  0  0  0  0  0  0  0  0  0  0  0
    4.2953    3.3234   -1.6023 C   0  0  0  0  0  0  0  0  0  0  0  0
    4.8332    3.2868   -2.8761 C   0  0  0  0  0  0  0  0  0  0  0  0
    4.1289    3.8252   -3.9410 C   0  0  0  0  0  0  0  0  0  0  0  0
    4.6584    3.7947   -5.1932 O   0  0  0  0  0  0  0  0  0  0  0  0
    5.9461    3.1924   -5.3386 C   0  0  0  0  0  0  0  0  0  0  0  0
    5.2611    2.5951   -0.1488 Br  0  0  0  0  0  0  0  0  0  0  0  0
    2.4652    3.9186   -0.0018 C   0  0  2  0  0  0  0  0  0  0  0  0
    3.1605    3.4447    0.6911 H   0  0  0  0  0  0  0  0  0  0  0  0
    1.1609    3.1663    0.0078 C   0  0  0  0  0  0  0  0  0  0  0  0
    1.1736    1.7826    0.0004 C   0  0  0  0  0  0  0  0  0  0  0  0
   -0.0126    1.0758    0.0080 C   0  0  0  0  0  0  0  0  0  0  0  0
   -1.2238    1.7536    0.0174 C   0  0  0  0  0  0  0  0  0  0  0  0
   -1.2398    3.1386    0.0313 C   0  0  0  0  0  0  0  0  0  0  0  0
   -0.0457    3.8482    0.0234 C   0  0  0  0  0  0  0  0  0  0  0  0
   -0.0786    5.2036    0.0306 O   0  0  0  0  0  0  0  0  0  0  0  0
    1.0084    5.8985    0.4052 C   0  0  0  0  0  0  0  0  0  0  0  0
    2.2448    5.3464    0.4121 C   0  0  0  0  0  0  0  0  0  0  0  0
    3.3647    6.1387    0.8228 C   0  0  0  0  0  0  0  0  0  0  0  0
    4.2531    6.7673    1.1486 N   0  0  0  0  0  0  0  0  0  0  0  0
    0.8614    7.2072    0.7922 N   0  0  0  0  0  0  0  0  0  0  0  0
   -2.3921    1.0594    0.0191 O   0  0  0  0  0  0  0  0  0  0  0  0
    0.9309    6.8026   -6.1880 H   0  0  0  0  0  0  0  0  0  0  0  0
    0.1595    5.2247   -6.4763 H   0  0  0  0  0  0  0  0  0  0  0  0
   -0.6926    6.4735   -5.5369 H   0  0  0  0  0  0  0  0  0  0  0  0
    0.2573    4.7330   -4.0479 H   0  0  0  0  0  0  0  0  0  0  0  0
    1.0288    6.3110   -3.7595 H   0  0  0  0  0  0  0  0  0  0  0  0
    1.3720    4.8682   -2.2805 H   0  0  0  0  0  0  0  0  0  0  0  0
    5.8039    2.8426   -3.0399 H   0  0  0  0  0  0  0  0  0  0  0  0
    6.6702    3.7310   -4.7274 H   0  0  0  0  0  0  0  0  0  0  0  0
    5.8994    2.1526   -5.0149 H   0  0  0  0  0  0  0  0  0  0  0  0
    6.2507    3.2340   -6.3843 H   0  0  0  0  0  0  0  0  0  0  0  0
    2.1150    1.2534   -0.0109 H   0  0  0  0  0  0  0  0  0  0  0  0
    0.0021   -0.0041    0.0020 H   0  0  0  0  0  0  0  0  0  0  0  0
   -2.1815    3.6673    0.0431 H   0  0  0  0  0  0  0  0  0  0  0  0
   -0.0178    7.6170    0.7924 H   0  0  0  0  0  0  0  0  0  0  0  0
    1.6366    7.7221    1.0655 H   0  0  0  0  0  0  0  0  0  0  0  0
   -2.7260    0.8537    0.9030 H   0  0  0  0  0  0  0  0  0  0  0  0
  1  2  1  0  0  0  0
  1 28  1  0  0  0  0
  1 29  1  0  0  0  0
  1 30  1  0  0  0  0
  2  3  1  0  0  0  0
  2 31  1  0  0  0  0
  2 32  1  0  0  0  0
  3  4  1  0  0  0  0
  4  9  2  0  0  0  0
  4  5  1  0  0  0  0
  5  6  2  0  0  0  0
  5 33  1  0  0  0  0
  6  7  1  0  0  0  0
  6 13  1  0  0  0  0
  7  8  2  0  0  0  0
  7 12  1  0  0  0  0
  8  9  1  0  0  0  0
  8 34  1  0  0  0  0
  9 10  1  0  0  0  0
 10 11  1  0  0  0  0
 11 35  1  0  0  0  0
 11 36  1  0  0  0  0
 11 37  1  0  0  0  0
 13 14  1  0  0  0  0
 13 23  1  0  0  0  0
 13 15  1  0  0  0  0
 15 20  2  0  0  0  0
 15 16  1  0  0  0  0
 16 17  2  0  0  0  0
 16 38  1  0  0  0  0
 17 18  1  0  0  0  0
 17 39  1  0  0  0  0
 18 19  2  0  0  0  0
 18 27  1  0  0  0  0
 19 20  1  0  0  0  0
 19 40  1  0  0  0  0
 20 21  1  0  0  0  0
 21 22  1  0  0  0  0
 22 23  2  0  0  0  0
 22 26  1  0  0  0  0
 23 24  1  0  0  0  0
 24 25  3  0  0  0  0
 26 41  1  0  0  0  0
 26 42  1  0  0  0  0
 27 43  1  0  0  0  0
M  END
$$$$
ZINC01147728
  -OEChem-08230709453D

 44 46  0     0  0  0  0  0  0999 V2000
    1.9984   -6.8168    1.4010 C   0  0  0  0  0  0  0  0  0  0  0  0
    3.2099   -6.1500    1.3997 C   0  0  0  0  0  0  0  0  0  0  0  0
    3.2413   -4.7720    1.3134 C   0  0  0  0  0  0  0  0  0  0  0  0
    2.0543   -4.0558    1.2279 C   0  0  0  0  0  0  0  0  0  0  0  0
    0.8390   -4.7283    1.2347 C   0  0  0  0  0  0  0  0  0  0  0  0
    0.8148   -6.1067    1.3164 C   0  0  0  0  0  0  0  0  0  0  0  0
    2.0825   -2.6605    1.1409 N   0  0  0  0  0  0  0  0  0  0  0  0
    1.1179   -1.9944    0.4102 C   0  0  0  0  0  0  0  0  0  0  0  0
    1.0808   -0.6636    0.4122 N   0  0  0  0  0  0  0  0  0  0  0  0
    0.1550   -0.0257   -0.2819 C   0  0  0  0  0  0  0  0  0  0  0  0
   -0.7314   -0.7051   -0.9888 N   0  0  0  0  0  0  0  0  0  0  0  0
   -0.6977   -2.0356   -0.9997 C   0  0  0  0  0  0  0  0  0  0  0  0
    0.2287   -2.6807   -0.2989 N   0  0  0  0  0  0  0  0  0  0  0  0
   -1.6238   -2.7441   -1.7376 N   0  0  0  0  0  0  0  0  0  0  0  0
    0.1136    1.4807   -0.2727 C   0  0  0  0  0  0  0  0  0  0  0  0
   -0.9493    2.0467    1.0786 S   0  0  0  0  0  0  0  0  0  0  0  0
   -0.8193    3.7903    0.8603 C   0  0  0  0  0  0  0  0  0  0  0  0
    0.1471    4.4253   -0.4022 S   0  0  0  0  0  0  0  0  0  0  0  0
   -1.4808    4.6242    1.6872 N   0  0  0  0  0  0  0  0  0  0  0  0
   -2.3189    4.0942    2.7714 C   0  0  0  0  0  0  0  0  0  0  0  0
   -1.8746    4.7400    4.0926 C   0  0  0  0  0  0  0  0  0  0  0  0
   -1.9208    6.2630    3.9501 C   0  0  0  0  0  0  0  0  0  0  0  0
   -0.9529    6.7037    2.8496 C   0  0  0  0  0  0  0  0  0  0  0  0
   -1.3823    6.0803    1.5178 C   0  0  0  0  0  0  0  0  0  0  0  0
    1.9766   -7.8944    1.4686 H   0  0  0  0  0  0  0  0  0  0  0  0
    4.1325   -6.7074    1.4659 H   0  0  0  0  0  0  0  0  0  0  0  0
    4.1878   -4.2518    1.3128 H   0  0  0  0  0  0  0  0  0  0  0  0
   -0.0858   -4.1741    1.1725 H   0  0  0  0  0  0  0  0  0  0  0  0
   -0.1297   -6.6305    1.3180 H   0  0  0  0  0  0  0  0  0  0  0  0
    2.7795   -2.1603    1.5936 H   0  0  0  0  0  0  0  0  0  0  0  0
   -2.3000   -2.2725   -2.2488 H   0  0  0  0  0  0  0  0  0  0  0  0
   -1.5987   -3.7138   -1.7452 H   0  0  0  0  0  0  0  0  0  0  0  0
    1.1213    1.8711   -0.1303 H   0  0  0  0  0  0  0  0  0  0  0  0
   -0.2841    1.8391   -1.2222 H   0  0  0  0  0  0  0  0  0  0  0  0
   -3.3638    4.3355    2.5767 H   0  0  0  0  0  0  0  0  0  0  0  0
   -2.1967    3.0128    2.8324 H   0  0  0  0  0  0  0  0  0  0  0  0
   -0.8575    4.4274    4.3292 H   0  0  0  0  0  0  0  0  0  0  0  0
   -2.5462    4.4289    4.8927 H   0  0  0  0  0  0  0  0  0  0  0  0
   -1.6319    6.7250    4.8941 H   0  0  0  0  0  0  0  0  0  0  0  0
   -2.9327    6.5726    3.6890 H   0  0  0  0  0  0  0  0  0  0  0  0
    0.0555    6.3727    3.0979 H   0  0  0  0  0  0  0  0  0  0  0  0
   -0.9690    7.7903    2.7646 H   0  0  0  0  0  0  0  0  0  0  0  0
   -0.6420    6.3097    0.7514 H   0  0  0  0  0  0  0  0  0  0  0  0
   -2.3518    6.4800    1.2205 H   0  0  0  0  0  0  0  0  0  0  0  0
  1  6  2  0  0  0  0
  1  2  1  0  0  0  0
  1 25  1  0  0  0  0
  2  3  2  0  0  0  0
  2 26  1  0  0  0  0
  3  4  1  0  0  0  0
  3 27  1  0  0  0  0
  4  5  2  0  0  0  0
  4  7  1  0  0  0  0
  5  6  1  0  0  0  0
  5 28  1  0  0  0  0
  6 29  1  0  0  0  0
  7  8  1  0  0  0  0
  7 30  1  0  0  0  0
  8 13  2  0  0  0  0
  8  9  1  0  0  0  0
  9 10  2  0  0  0  0
 10 11  1  0  0  0  0
 10 15  1  0  0  0  0
 11 12  2  0  0  0  0
 12 13  1  0  0  0  0
 12 14  1  0  0  0  0
 14 31  1  0  0  0  0
 14 32  1  0  0  0  0
 15 16  1  0  0  0  0
 15 33  1  0  0  0  0
 15 34  1  0  0  0  0
 16 17  1  0  0  0  0
 17 18  2  0  0  0  0
 17 19  1  0  0  0  0
 19 24  1  0  0  0  0
 19 20  1  0  0  0  0
 20 21  1  0  0  0  0
 20 35  1  0  0  0  0
 20 36  1  0  0  0  0
 21 22  1  0  0  0  0
 21 37  1  0  0  0  0
 21 38  1  0  0  0  0
 22 23  1  0  0  0  0
 22 39  1  0  0  0  0
 22 40  1  0  0  0  0
 23 24  1  0  0  0  0
 23 41  1  0  0  0  0
 23 42  1  0  0  0  0
 24 43  1  0  0  0  0
 24 44  1  0  0  0  0
M  END
$$$$
ZINC01148703
  -OEChem-08230709453D

 43 45  0     1  0  0  0  0  0999 V2000
    8.7274   -5.5796   -2.5116 C   0  0  0  0  0  0  0  0  0  0  0  0
    9.1654   -5.3654   -1.0614 C   0  0  0  0  0  0  0  0  0  0  0  0
   10.4811   -6.1052   -0.8114 C   0  0  0  0  0  0  0  0  0  0  0  0
    9.3641   -3.8703   -0.8042 C   0  0  1  0  0  0  0  0  0  0  0  0
   10.1273   -3.4873   -1.4816 H   0  0  0  0  0  0  0  0  0  0  0  0
    8.0699   -3.1458   -1.0505 C   0  0  0  0  0  0  0  0  0  0  0  0
    7.6401   -2.9053   -2.3612 C   0  0  0  0  0  0  0  0  0  0  0  0
    8.3074   -3.2789   -3.3127 O   0  0  0  0  0  0  0  0  0  0  0  0
    6.4713   -2.2580   -2.5532 N   0  0  0  0  0  0  0  0  0  0  0  0
    6.1424   -2.0837   -3.4813 H   0  0  0  0  0  0  0  0  0  0  0  0
    5.7403   -1.8424   -1.4817 C   0  0  0  0  0  0  0  0  0  0  0  0
    6.1425   -2.0672   -0.2479 N   0  0  0  0  0  0  0  0  0  0  0  0
    7.2898   -2.7093    0.0026 C   0  0  0  0  0  0  0  0  0  0  0  0
    7.6698   -2.9227    1.2808 O   0  0  0  0  0  0  0  0  0  0  0  0
    8.9528   -3.2094    1.5613 C   0  0  0  0  0  0  0  0  0  0  0  0
    9.8098   -3.6638    0.6170 C   0  0  0  0  0  0  0  0  0  0  0  0
   11.1651   -3.9525    0.9780 C   0  0  0  0  0  0  0  0  0  0  0  0
   12.2403   -4.1816    1.2643 N   0  0  0  0  0  0  0  0  0  0  0  0
    9.4077   -3.0367    2.8447 N   0  0  0  0  0  0  0  0  0  0  0  0
    4.2207   -0.9925   -1.7519 S   0  0  0  0  0  0  0  0  0  0  0  0
    3.7112   -0.7071   -0.0387 C   0  0  0  0  0  0  0  0  0  0  0  0
    2.3960    0.0285   -0.0217 C   0  0  0  0  0  0  0  0  0  0  0  0
    1.2084   -0.6789   -0.0136 C   0  0  0  0  0  0  0  0  0  0  0  0
    0.0021   -0.0041    0.0020 C   0  0  0  0  0  0  0  0  0  0  0  0
   -0.0167    1.3781    0.0096 C   0  0  0  0  0  0  0  0  0  0  0  0
    1.1709    2.0855    0.0021 C   0  0  0  0  0  0  0  0  0  0  0  0
    2.3773    1.4107   -0.0136 C   0  0  0  0  0  0  0  0  0  0  0  0
    9.4943   -5.1942   -3.1835 H   0  0  0  0  0  0  0  0  0  0  0  0
    8.5858   -6.6448   -2.6948 H   0  0  0  0  0  0  0  0  0  0  0  0
    7.7901   -5.0526   -2.6897 H   0  0  0  0  0  0  0  0  0  0  0  0
    8.3985   -5.7509   -0.3895 H   0  0  0  0  0  0  0  0  0  0  0  0
   10.7931   -5.9526    0.2218 H   0  0  0  0  0  0  0  0  0  0  0  0
   10.3395   -7.1703   -0.9946 H   0  0  0  0  0  0  0  0  0  0  0  0
   11.2480   -5.7197   -1.4832 H   0  0  0  0  0  0  0  0  0  0  0  0
   10.3306   -3.2395    3.0635 H   0  0  0  0  0  0  0  0  0  0  0  0
    8.8062   -2.7119    3.5329 H   0  0  0  0  0  0  0  0  0  0  0  0
    4.4678   -0.1105    0.4708 H   0  0  0  0  0  0  0  0  0  0  0  0
    3.5989   -1.6640    0.4711 H   0  0  0  0  0  0  0  0  0  0  0  0
    1.2231   -1.7587   -0.0199 H   0  0  0  0  0  0  0  0  0  0  0  0
   -0.9258   -0.5567    0.0079 H   0  0  0  0  0  0  0  0  0  0  0  0
   -0.9592    1.9054    0.0170 H   0  0  0  0  0  0  0  0  0  0  0  0
    1.1563    3.1654    0.0077 H   0  0  0  0  0  0  0  0  0  0  0  0
    3.3051    1.9634   -0.0195 H   0  0  0  0  0  0  0  0  0  0  0  0
  1  2  1  0  0  0  0
  1 28  1  0  0  0  0
  1 29  1  0  0  0  0
  1 30  1  0  0  0  0
  2  3  1  0  0  0  0
  2  4  1  0  0  0  0
  2 31  1  0  0  0  0
  3 32  1  0  0  0  0
  3 33  1  0  0  0  0
  3 34  1  0  0  0  0
  4  5  1  0  0  0  0
  4 16  1  0  0  0  0
  4  6  1  0  0  0  0
  6 13  2  0  0  0  0
  6  7  1  0  0  0  0
  7  8  2  0  0  0  0
  7  9  1  0  0  0  0
  9 10  1  0  0  0  0
  9 11  1  0  0  0  0
 11 12  2  0  0  0  0
 11 20  1  0  0  0  0
 12 13  1  0  0  0  0
 13 14  1  0  0  0  0
 14 15  1  0  0  0  0
 15 16  2  0  0  0  0
 15 19  1  0  0  0  0
 16 17  1  0  0  0  0
 17 18  3  0  0  0  0
 19 35  1  0  0  0  0
 19 36  1  0  0  0  0
 20 21  1  0  0  0  0
 21 22  1  0  0  0  0
 21 37  1  0  0  0  0
 21 38  1  0  0  0  0
 22 27  2  0  0  0  0
 22 23  1  0  0  0  0
 23 24  2  0  0  0  0
 23 39  1  0  0  0  0
 24 25  1  0  0  0  0
 24 40  1  0  0  0  0
 25 26  2  0  0  0  0
 25 41  1  0  0  0  0
 26 27  1  0  0  0  0
 26 42  1  0  0  0  0
 27 43  1  0  0  0  0
M  END
$$$$
ZINC01148705
  -OEChem-08230709453D

 43 45  0     1  0  0  0  0  0999 V2000
    1.7178   -4.2012    1.3628 C   0  0  0  0  0  0  0  0  0  0  0  0
    1.6447   -2.6730    1.3729 C   0  0  0  0  0  0  0  0  0  0  0  0
    3.0063   -2.0999    1.7713 C   0  0  0  0  0  0  0  0  0  0  0  0
    1.2688   -2.1712   -0.0228 C   0  0  2  0  0  0  0  0  0  0  0  0
    2.0217   -2.4989   -0.7396 H   0  0  0  0  0  0  0  0  0  0  0  0
    1.2130   -0.6686   -0.0135 C   0  0  0  0  0  0  0  0  0  0  0  0
    2.3983    0.0767   -0.0207 C   0  0  0  0  0  0  0  0  0  0  0  0
    3.4838   -0.4817   -0.0338 O   0  0  0  0  0  0  0  0  0  0  0  0
    2.3185    1.4242   -0.0125 N   0  0  0  0  0  0  0  0  0  0  0  0
    3.1531    1.9750   -0.0174 H   0  0  0  0  0  0  0  0  0  0  0  0
    1.1002    2.0330    0.0025 C   0  0  0  0  0  0  0  0  0  0  0  0
   -0.0161    1.3343    0.0094 N   0  0  0  0  0  0  0  0  0  0  0  0
    0.0021   -0.0041    0.0020 C   0  0  0  0  0  0  0  0  0  0  0  0
   -1.1627   -0.6874    0.0103 O   0  0  0  0  0  0  0  0  0  0  0  0
   -1.1888   -1.9752   -0.3740 C   0  0  0  0  0  0  0  0  0  0  0  0
   -0.0695   -2.7357   -0.4119 C   0  0  0  0  0  0  0  0  0  0  0  0
   -0.1615   -4.1021   -0.8305 C   0  0  0  0  0  0  0  0  0  0  0  0
   -0.2345   -5.1860   -1.1626 N   0  0  0  0  0  0  0  0  0  0  0  0
   -2.3870   -2.5364   -0.7387 N   0  0  0  0  0  0  0  0  0  0  0  0
    1.0159    3.7930    0.0128 S   0  0  0  0  0  0  0  0  0  0  0  0
   -0.7795    4.0215    0.0312 C   0  0  0  0  0  0  0  0  0  0  0  0
   -1.0983    5.4944    0.0422 C   0  0  0  0  0  0  0  0  0  0  0  0
   -1.2386    6.1622    1.2443 C   0  0  0  0  0  0  0  0  0  0  0  0
   -1.5258    7.5144    1.2544 C   0  0  0  0  0  0  0  0  0  0  0  0
   -1.6835    8.1964    0.0623 C   0  0  0  0  0  0  0  0  0  0  0  0
   -1.5488    7.5273   -1.1398 C   0  0  0  0  0  0  0  0  0  0  0  0
   -1.2559    6.1764   -1.1499 C   0  0  0  0  0  0  0  0  0  0  0  0
    1.9857   -4.5588    2.3570 H   0  0  0  0  0  0  0  0  0  0  0  0
    0.7479   -4.6095    1.0789 H   0  0  0  0  0  0  0  0  0  0  0  0
    2.4721   -4.5242    0.6452 H   0  0  0  0  0  0  0  0  0  0  0  0
    0.8905   -2.3501    2.0905 H   0  0  0  0  0  0  0  0  0  0  0  0
    2.9542   -1.0112    1.7785 H   0  0  0  0  0  0  0  0  0  0  0  0
    3.2741   -2.4575    2.7656 H   0  0  0  0  0  0  0  0  0  0  0  0
    3.7605   -2.4229    1.0537 H   0  0  0  0  0  0  0  0  0  0  0  0
   -3.1982   -2.0049   -0.7167 H   0  0  0  0  0  0  0  0  0  0  0  0
   -2.4227   -3.4645   -1.0185 H   0  0  0  0  0  0  0  0  0  0  0  0
   -1.2133    3.5625   -0.8572 H   0  0  0  0  0  0  0  0  0  0  0  0
   -1.1963    3.5529    0.9227 H   0  0  0  0  0  0  0  0  0  0  0  0
   -1.1198    5.6285    2.1757 H   0  0  0  0  0  0  0  0  0  0  0  0
   -1.6308    8.0372    2.1936 H   0  0  0  0  0  0  0  0  0  0  0  0
   -1.9116    9.2520    0.0702 H   0  0  0  0  0  0  0  0  0  0  0  0
   -1.6720    8.0601   -2.0711 H   0  0  0  0  0  0  0  0  0  0  0  0
   -1.1507    5.6536   -2.0891 H   0  0  0  0  0  0  0  0  0  0  0  0
  1  2  1  0  0  0  0
  1 28  1  0  0  0  0
  1 29  1  0  0  0  0
  1 30  1  0  0  0  0
  2  3  1  0  0  0  0
  2  4  1  0  0  0  0
  2 31  1  0  0  0  0
  3 32  1  0  0  0  0
  3 33  1  0  0  0  0
  3 34  1  0  0  0  0
  4  5  1  0  0  0  0
  4 16  1  0  0  0  0
  4  6  1  0  0  0  0
  6 13  2  0  0  0  0
  6  7  1  0  0  0  0
  7  8  2  0  0  0  0
  7  9  1  0  0  0  0
  9 10  1  0  0  0  0
  9 11  1  0  0  0  0
 11 12  2  0  0  0  0
 11 20  1  0  0  0  0
 12 13  1  0  0  0  0
 13 14  1  0  0  0  0
 14 15  1  0  0  0  0
 15 16  2  0  0  0  0
 15 19  1  0  0  0  0
 16 17  1  0  0  0  0
 17 18  3  0  0  0  0
 19 35  1  0  0  0  0
 19 36  1  0  0  0  0
 20 21  1  0  0  0  0
 21 22  1  0  0  0  0
 21 37  1  0  0  0  0
 21 38  1  0  0  0  0
 22 27  2  0  0  0  0
 22 23  1  0  0  0  0
 23 24  2  0  0  0  0
 23 39  1  0  0  0  0
 24 25  1  0  0  0  0
 24 40  1  0  0  0  0
 25 26  2  0  0  0  0
 25 41  1  0  0  0  0
 26 27  1  0  0  0  0
 26 42  1  0  0  0  0
 27 43  1  0  0  0  0
M  END
$$$$
ZINC01159464
  -OEChem-08230709453D

 40 41  0     0  0  0  0  0  0999 V2000
    2.4542    0.9930    0.7851 C   0  0  0  0  0  0  0  0  0  0  0  0
    1.1551    1.7330    0.5963 C   0  0  0  0  0  0  0  0  0  0  0  0
   -0.0391    1.0387    0.5821 C   0  0  0  0  0  0  0  0  0  0  0  0
   -1.2343    1.7198    0.4030 C   0  0  0  0  0  0  0  0  0  0  0  0
   -1.2284    3.0986    0.2498 C   0  0  0  0  0  0  0  0  0  0  0  0
   -0.0320    3.7890    0.2637 C   0  0  0  0  0  0  0  0  0  0  0  0
    1.1592    3.1072    0.4367 C   0  0  0  0  0  0  0  0  0  0  0  0
    2.7954    4.0551    0.4559 Br  0  0  0  0  0  0  0  0  0  0  0  0
   -0.0246    5.2860    0.0906 C   0  0  0  0  0  0  0  0  0  0  0  0
   -2.4098    1.0379    0.3836 O   0  0  0  0  0  0  0  0  0  0  0  0
   -3.6012    1.8041    0.1950 C   0  0  0  0  0  0  0  0  0  0  0  0
   -4.7957    0.8852    0.2015 C   0  0  0  0  0  0  0  0  0  0  0  0
   -4.6418   -0.3082    0.3528 O   0  0  0  0  0  0  0  0  0  0  0  0
   -6.0349    1.3897    0.0392 N   0  0  0  0  0  0  0  0  0  0  0  0
   -7.1289    0.5315   -0.0651 C   0  0  0  0  0  0  0  0  0  0  0  0
   -6.9840   -0.7057   -0.6849 C   0  0  0  0  0  0  0  0  0  0  0  0
   -8.0609   -1.5574   -0.7852 C   0  0  0  0  0  0  0  0  0  0  0  0
   -9.3033   -1.1737   -0.2731 C   0  0  0  0  0  0  0  0  0  0  0  0
   -9.4467    0.0718    0.3442 C   0  0  0  0  0  0  0  0  0  0  0  0
   -8.3644    0.9166    0.4459 C   0  0  0  0  0  0  0  0  0  0  0  0
  -10.4613   -2.0822   -0.3834 C   0  0  0  0  0  0  0  0  0  0  0  0
  -11.5415   -1.7472    0.0630 O   0  0  0  0  0  0  0  0  0  0  0  0
  -10.3214   -3.2831   -0.9790 N   0  0  0  0  0  0  0  0  0  0  0  0
    2.8481    0.6965   -0.1870 H   0  0  0  0  0  0  0  0  0  0  0  0
    3.1727    1.6421    1.2857 H   0  0  0  0  0  0  0  0  0  0  0  0
    2.2815    0.1051    1.3933 H   0  0  0  0  0  0  0  0  0  0  0  0
   -0.0418   -0.0342    0.7060 H   0  0  0  0  0  0  0  0  0  0  0  0
   -2.1582    3.6312    0.1147 H   0  0  0  0  0  0  0  0  0  0  0  0
    0.0575    5.5289   -0.9688 H   0  0  0  0  0  0  0  0  0  0  0  0
   -0.9502    5.7024    0.4882 H   0  0  0  0  0  0  0  0  0  0  0  0
    0.8243    5.7096    0.6273 H   0  0  0  0  0  0  0  0  0  0  0  0
   -3.6974    2.5308    1.0016 H   0  0  0  0  0  0  0  0  0  0  0  0
   -3.5498    2.3264   -0.7604 H   0  0  0  0  0  0  0  0  0  0  0  0
   -6.1657    2.3498   -0.0052 H   0  0  0  0  0  0  0  0  0  0  0  0
   -6.0246   -0.9999   -1.0841 H   0  0  0  0  0  0  0  0  0  0  0  0
   -7.9468   -2.5194   -1.2628 H   0  0  0  0  0  0  0  0  0  0  0  0
  -10.4053    0.3712    0.7413 H   0  0  0  0  0  0  0  0  0  0  0  0
   -8.4744    1.8792    0.9231 H   0  0  0  0  0  0  0  0  0  0  0  0
   -9.4596   -3.5504   -1.3351 H   0  0  0  0  0  0  0  0  0  0  0  0
  -11.0824   -3.8801   -1.0515 H   0  0  0  0  0  0  0  0  0  0  0  0
  1  2  1  0  0  0  0
  1 24  1  0  0  0  0
  1 25  1  0  0  0  0
  1 26  1  0  0  0  0
  2  7  2  0  0  0  0
  2  3  1  0  0  0  0
  3  4  2  0  0  0  0
  3 27  1  0  0  0  0
  4  5  1  0  0  0  0
  4 10  1  0  0  0  0
  5  6  2  0  0  0  0
  5 28  1  0  0  0  0
  6  7  1  0  0  0  0
  6  9  1  0  0  0  0
  7  8  1  0  0  0  0
  9 29  1  0  0  0  0
  9 30  1  0  0  0  0
  9 31  1  0  0  0  0
 10 11  1  0  0  0  0
 11 12  1  0  0  0  0
 11 32  1  0  0  0  0
 11 33  1  0  0  0  0
 12 13  2  0  0  0  0
 12 14  1  0  0  0  0
 14 15  1  0  0  0  0
 14 34  1  0  0  0  0
 15 20  2  0  0  0  0
 15 16  1  0  0  0  0
 16 17  2  0  0  0  0
 16 35  1  0  0  0  0
 17 18  1  0  0  0  0
 17 36  1  0  0  0  0
 18 19  2  0  0  0  0
 18 21  1  0  0  0  0
 19 20  1  0  0  0  0
 19 37  1  0  0  0  0
 20 38  1  0  0  0  0
 21 22  2  0  0  0  0
 21 23  1  0  0  0  0
 23 39  1  0  0  0  0
 23 40  1  0  0  0  0
M  END
$$$$
ZINC01197382
  -OEChem-08230709453D

 42 44  0     0  0  0  0  0  0999 V2000
    1.0180    1.1108    1.2565 C   0  0  0  0  0  0  0  0  0  0  0  0
   -0.3251    1.5609    1.4449 O   0  0  0  0  0  0  0  0  0  0  0  0
   -0.5179    2.9007    1.5429 C   0  0  0  0  0  0  0  0  0  0  0  0
    0.5679    3.7646    1.4589 C   0  0  0  0  0  0  0  0  0  0  0  0
    0.3801    5.1239    1.5574 C   0  0  0  0  0  0  0  0  0  0  0  0
   -0.9111    5.6410    1.7432 C   0  0  0  0  0  0  0  0  0  0  0  0
   -2.0059    4.7671    1.8277 C   0  0  0  0  0  0  0  0  0  0  0  0
   -1.8066    3.4065    1.7219 C   0  0  0  0  0  0  0  0  0  0  0  0
   -2.8656    2.5567    1.7978 O   0  0  0  0  0  0  0  0  0  0  0  0
   -1.1152    7.0855    1.8479 C   0  0  0  0  0  0  0  0  0  0  0  0
   -0.4985    7.9372    0.9514 C   0  0  0  0  0  0  0  0  0  0  0  0
    0.1896    7.4251   -0.2502 C   0  0  0  0  0  0  0  0  0  0  0  0
    0.2333    6.2323   -0.4847 O   0  0  0  0  0  0  0  0  0  0  0  0
    0.7689    8.3164   -1.0807 N   0  0  0  0  0  0  0  0  0  0  0  0
    0.7291    9.6332   -0.8340 C   0  0  0  0  0  0  0  0  0  0  0  0
    1.2715   10.3822   -1.6225 O   0  0  0  0  0  0  0  0  0  0  0  0
    0.1240   10.1686    0.2353 N   0  0  0  0  0  0  0  0  0  0  0  0
   -0.5037    9.4002    1.1493 C   0  0  0  0  0  0  0  0  0  0  0  0
   -1.0542    9.8986    2.1127 O   0  0  0  0  0  0  0  0  0  0  0  0
    0.1388   11.6228    0.4121 C   0  0  0  0  0  0  0  0  0  0  0  0
   -1.0671   12.2232   -0.2635 C   0  0  0  0  0  0  0  0  0  0  0  0
   -0.9917   12.6206   -1.5854 C   0  0  0  0  0  0  0  0  0  0  0  0
   -2.0983   13.1670   -2.2074 C   0  0  0  0  0  0  0  0  0  0  0  0
   -3.2797   13.3259   -1.5030 C   0  0  0  0  0  0  0  0  0  0  0  0
   -3.3524   12.9324   -0.1775 C   0  0  0  0  0  0  0  0  0  0  0  0
   -2.2461   12.3815    0.4408 C   0  0  0  0  0  0  0  0  0  0  0  0
   -4.3607   13.8642   -2.1087 F   0  0  0  0  0  0  0  0  0  0  0  0
    1.0313    0.0227    1.1944 H   0  0  0  0  0  0  0  0  0  0  0  0
    1.6309    1.4342    2.0979 H   0  0  0  0  0  0  0  0  0  0  0  0
    1.4164    1.5324    0.3336 H   0  0  0  0  0  0  0  0  0  0  0  0
    1.5620    3.3675    1.3156 H   0  0  0  0  0  0  0  0  0  0  0  0
    1.2257    5.7925    1.4915 H   0  0  0  0  0  0  0  0  0  0  0  0
   -3.0020    5.1592    1.9706 H   0  0  0  0  0  0  0  0  0  0  0  0
   -3.0696    2.2616    2.6958 H   0  0  0  0  0  0  0  0  0  0  0  0
   -1.7479    7.4865    2.6259 H   0  0  0  0  0  0  0  0  0  0  0  0
    1.2252    7.9968   -1.8748 H   0  0  0  0  0  0  0  0  0  0  0  0
    0.1149   11.8597    1.4758 H   0  0  0  0  0  0  0  0  0  0  0  0
    1.0458   12.0335   -0.0313 H   0  0  0  0  0  0  0  0  0  0  0  0
   -0.0689   12.5003   -2.1335 H   0  0  0  0  0  0  0  0  0  0  0  0
   -2.0404   13.4735   -3.2414 H   0  0  0  0  0  0  0  0  0  0  0  0
   -4.2735   13.0556    0.3728 H   0  0  0  0  0  0  0  0  0  0  0  0
   -2.3027   12.0741    1.4746 H   0  0  0  0  0  0  0  0  0  0  0  0
  1  2  1  0  0  0  0
  1 28  1  0  0  0  0
  1 29  1  0  0  0  0
  1 30  1  0  0  0  0
  2  3  1  0  0  0  0
  3  8  2  0  0  0  0
  3  4  1  0  0  0  0
  4  5  2  0  0  0  0
  4 31  1  0  0  0  0
  5  6  1  0  0  0  0
  5 32  1  0  0  0  0
  6  7  2  0  0  0  0
  6 10  1  0  0  0  0
  7  8  1  0  0  0  0
  7 33  1  0  0  0  0
  8  9  1  0  0  0  0
  9 34  1  0  0  0  0
 10 11  2  0  0  0  0
 10 35  1  0  0  0  0
 11 18  1  0  0  0  0
 11 12  1  0  0  0  0
 12 13  2  0  0  0  0
 12 14  1  0  0  0  0
 14 15  1  0  0  0  0
 14 36  1  0  0  0  0
 15 16  2  0  0  0  0
 15 17  1  0  0  0  0
 17 18  1  0  0  0  0
 17 20  1  0  0  0  0
 18 19  2  0  0  0  0
 20 21  1  0  0  0  0
 20 37  1  0  0  0  0
 20 38  1  0  0  0  0
 21 26  2  0  0  0  0
 21 22  1  0  0  0  0
 22 23  2  0  0  0  0
 22 39  1  0  0  0  0
 23 24  1  0  0  0  0
 23 40  1  0  0  0  0
 24 25  2  0  0  0  0
 24 27  1  0  0  0  0
 25 26  1  0  0  0  0
 25 41  1  0  0  0  0
 26 42  1  0  0  0  0
M  END
$$$$
ZINC01205578
  -OEChem-08230709453D

 39 40  0     0  0  0  0  0  0999 V2000
    8.7781   -3.4808    0.9013 C   0  0  0  0  0  0  0  0  0  0  0  0
    8.9995   -2.8867   -0.4658 C   0  0  0  0  0  0  0  0  0  0  0  0
    8.1227   -2.9074   -1.4962 C   0  0  0  0  0  0  0  0  0  0  0  0
    8.7176   -2.2544   -2.5807 C   0  0  0  0  0  0  0  0  0  0  0  0
    9.9051   -1.8477   -2.2115 N   0  0  0  0  0  0  0  0  0  0  0  0
   10.1076   -2.2384   -0.8816 N   0  0  0  0  0  0  0  0  0  0  0  0
   10.9284   -2.0671   -0.3366 H   0  0  0  0  0  0  0  0  0  0  0  0
    8.0963   -2.0506   -3.9385 C   0  0  0  0  0  0  0  0  0  0  0  0
    6.7502   -3.5296   -1.4802 C   0  0  0  0  0  0  0  0  0  0  0  0
    5.7246   -2.4907   -1.0223 C   0  0  0  0  0  0  0  0  0  0  0  0
    4.3521   -3.1129   -1.0063 C   0  0  0  0  0  0  0  0  0  0  0  0
    4.2084   -4.2734   -1.3294 O   0  0  0  0  0  0  0  0  0  0  0  0
    3.2843   -2.3802   -0.6330 N   0  0  0  0  0  0  0  0  0  0  0  0
    2.0084   -2.9587   -0.6181 N   0  0  0  0  0  0  0  0  0  0  0  0
    0.9653   -2.2235   -0.3811 C   0  0  0  0  0  0  0  0  0  0  0  0
    1.0266   -0.7666   -0.5948 C   0  0  0  0  0  0  0  0  0  0  0  0
    1.9527   -0.2266   -1.4901 C   0  0  0  0  0  0  0  0  0  0  0  0
    2.0050    1.1384   -1.6852 C   0  0  0  0  0  0  0  0  0  0  0  0
    1.1426    1.9755   -0.9964 C   0  0  0  0  0  0  0  0  0  0  0  0
    0.2221    1.4526   -0.1081 C   0  0  0  0  0  0  0  0  0  0  0  0
    0.1562    0.0846    0.0995 C   0  0  0  0  0  0  0  0  0  0  0  0
   -0.7485   -0.4298    0.9721 O   0  0  0  0  0  0  0  0  0  0  0  0
    3.2643    1.8697   -2.8915 Br  0  0  0  0  0  0  0  0  0  0  0  0
    9.1242   -4.5144    0.9087 H   0  0  0  0  0  0  0  0  0  0  0  0
    9.3344   -2.9060    1.6417 H   0  0  0  0  0  0  0  0  0  0  0  0
    7.7154   -3.4518    1.1423 H   0  0  0  0  0  0  0  0  0  0  0  0
    7.5460   -1.1099   -3.9488 H   0  0  0  0  0  0  0  0  0  0  0  0
    8.8797   -2.0216   -4.6959 H   0  0  0  0  0  0  0  0  0  0  0  0
    7.4140   -2.8731   -4.1530 H   0  0  0  0  0  0  0  0  0  0  0  0
    6.7427   -4.3753   -0.7926 H   0  0  0  0  0  0  0  0  0  0  0  0
    6.4958   -3.8741   -2.4826 H   0  0  0  0  0  0  0  0  0  0  0  0
    5.7321   -1.6451   -1.7100 H   0  0  0  0  0  0  0  0  0  0  0  0
    5.9791   -2.1462   -0.0200 H   0  0  0  0  0  0  0  0  0  0  0  0
    3.3992   -1.4523   -0.3746 H   0  0  0  0  0  0  0  0  0  0  0  0
    0.0524   -2.6795   -0.0272 H   0  0  0  0  0  0  0  0  0  0  0  0
    2.6264   -0.8762   -2.0290 H   0  0  0  0  0  0  0  0  0  0  0  0
    1.1898    3.0428   -1.1546 H   0  0  0  0  0  0  0  0  0  0  0  0
   -0.4468    2.1117    0.4255 H   0  0  0  0  0  0  0  0  0  0  0  0
   -0.4490   -0.4356    1.8915 H   0  0  0  0  0  0  0  0  0  0  0  0
  1  2  1  0  0  0  0
  1 24  1  0  0  0  0
  1 25  1  0  0  0  0
  1 26  1  0  0  0  0
  2  6  1  0  0  0  0
  2  3  2  0  0  0  0
  3  4  1  0  0  0  0
  3  9  1  0  0  0  0
  4  5  2  0  0  0  0
  4  8  1  0  0  0  0
  5  6  1  0  0  0  0
  6  7  1  0  0  0  0
  8 27  1  0  0  0  0
  8 28  1  0  0  0  0
  8 29  1  0  0  0  0
  9 10  1  0  0  0  0
  9 30  1  0  0  0  0
  9 31  1  0  0  0  0
 10 11  1  0  0  0  0
 10 32  1  0  0  0  0
 10 33  1  0  0  0  0
 11 12  2  0  0  0  0
 11 13  1  0  0  0  0
 13 14  1  0  0  0  0
 13 34  1  0  0  0  0
 14 15  2  3  0  0  0
 15 16  1  0  0  0  0
 15 35  1  0  0  0  0
 16 21  2  0  0  0  0
 16 17  1  0  0  0  0
 17 18  2  0  0  0  0
 17 36  1  0  0  0  0
 18 19  1  0  0  0  0
 18 23  1  0  0  0  0
 19 20  2  0  0  0  0
 19 37  1  0  0  0  0
 20 21  1  0  0  0  0
 20 38  1  0  0  0  0
 21 22  1  0  0  0  0
 22 39  1  0  0  0  0
M  END
$$$$
ZINC01205580
  -OEChem-08230709453D

 39 40  0     0  0  0  0  0  0999 V2000
    4.8740   10.1625    2.5371 C   0  0  0  0  0  0  0  0  0  0  0  0
    4.8571   10.6312    1.1049 C   0  0  0  0  0  0  0  0  0  0  0  0
    4.8536    9.8406    0.0067 C   0  0  0  0  0  0  0  0  0  0  0  0
    4.8422   10.6693   -1.1200 C   0  0  0  0  0  0  0  0  0  0  0  0
    4.8294   11.9126   -0.7129 N   0  0  0  0  0  0  0  0  0  0  0  0
    4.8424   11.9146    0.6879 N   0  0  0  0  0  0  0  0  0  0  0  0
    4.8410   12.7240    1.2751 H   0  0  0  0  0  0  0  0  0  0  0  0
    4.8404   10.2093   -2.5551 C   0  0  0  0  0  0  0  0  0  0  0  0
    4.8662    8.3337   -0.0010 C   0  0  0  0  0  0  0  0  0  0  0  0
    3.4281    7.8116    0.0098 C   0  0  0  0  0  0  0  0  0  0  0  0
    3.4407    6.3047    0.0021 C   0  0  0  0  0  0  0  0  0  0  0  0
    4.4963    5.7070   -0.0108 O   0  0  0  0  0  0  0  0  0  0  0  0
    2.2793    5.6210    0.0095 N   0  0  0  0  0  0  0  0  0  0  0  0
    2.2910    4.2200    0.0024 N   0  0  0  0  0  0  0  0  0  0  0  0
    1.1724    3.5616    0.0095 C   0  0  0  0  0  0  0  0  0  0  0  0
    1.1848    2.0879    0.0020 C   0  0  0  0  0  0  0  0  0  0  0  0
   -0.0166    1.3756    0.0096 C   0  0  0  0  0  0  0  0  0  0  0  0
    0.0021   -0.0041    0.0020 C   0  0  0  0  0  0  0  0  0  0  0  0
    1.2079   -0.6858   -0.0127 C   0  0  0  0  0  0  0  0  0  0  0  0
    2.4030    0.0083   -0.0204 C   0  0  0  0  0  0  0  0  0  0  0  0
    2.4021    1.3936   -0.0134 C   0  0  0  0  0  0  0  0  0  0  0  0
    3.5763    2.0762   -0.0205 O   0  0  0  0  0  0  0  0  0  0  0  0
   -1.6247   -0.9681    0.0124 Br  0  0  0  0  0  0  0  0  0  0  0  0
    5.9056   10.0578    2.8730 H   0  0  0  0  0  0  0  0  0  0  0  0
    4.3599   10.8911    3.1639 H   0  0  0  0  0  0  0  0  0  0  0  0
    4.3686    9.1995    2.6102 H   0  0  0  0  0  0  0  0  0  0  0  0
    3.8124   10.0898   -2.8971 H   0  0  0  0  0  0  0  0  0  0  0  0
    5.3456   10.9503   -3.1747 H   0  0  0  0  0  0  0  0  0  0  0  0
    5.3620    9.2553   -2.6315 H   0  0  0  0  0  0  0  0  0  0  0  0
    5.3914    7.9702    0.8823 H   0  0  0  0  0  0  0  0  0  0  0  0
    5.3747    7.9792   -0.8976 H   0  0  0  0  0  0  0  0  0  0  0  0
    2.9029    8.1751   -0.8735 H   0  0  0  0  0  0  0  0  0  0  0  0
    2.9196    8.1661    0.9064 H   0  0  0  0  0  0  0  0  0  0  0  0
    1.4352    6.0989    0.0198 H   0  0  0  0  0  0  0  0  0  0  0  0
    0.2327    4.0937    0.0210 H   0  0  0  0  0  0  0  0  0  0  0  0
   -0.9586    1.9037    0.0169 H   0  0  0  0  0  0  0  0  0  0  0  0
    1.2142   -1.7657   -0.0178 H   0  0  0  0  0  0  0  0  0  0  0  0
    3.3391   -0.5301   -0.0315 H   0  0  0  0  0  0  0  0  0  0  0  0
    3.9084    2.2783   -0.9059 H   0  0  0  0  0  0  0  0  0  0  0  0
  1  2  1  0  0  0  0
  1 24  1  0  0  0  0
  1 25  1  0  0  0  0
  1 26  1  0  0  0  0
  2  6  1  0  0  0  0
  2  3  2  0  0  0  0
  3  4  1  0  0  0  0
  3  9  1  0  0  0  0
  4  5  2  0  0  0  0
  4  8  1  0  0  0  0
  5  6  1  0  0  0  0
  6  7  1  0  0  0  0
  8 27  1  0  0  0  0
  8 28  1  0  0  0  0
  8 29  1  0  0  0  0
  9 10  1  0  0  0  0
  9 30  1  0  0  0  0
  9 31  1  0  0  0  0
 10 11  1  0  0  0  0
 10 32  1  0  0  0  0
 10 33  1  0  0  0  0
 11 12  2  0  0  0  0
 11 13  1  0  0  0  0
 13 14  1  0  0  0  0
 13 34  1  0  0  0  0
 14 15  2  0  0  0  0
 15 16  1  0  0  0  0
 15 35  1  0  0  0  0
 16 21  2  0  0  0  0
 16 17  1  0  0  0  0
 17 18  2  0  0  0  0
 17 36  1  0  0  0  0
 18 19  1  0  0  0  0
 18 23  1  0  0  0  0
 19 20  2  0  0  0  0
 19 37  1  0  0  0  0
 20 21  1  0  0  0  0
 20 38  1  0  0  0  0
 21 22  1  0  0  0  0
 22 39  1  0  0  0  0
M  END
$$$$
ZINC01217588
  -OEChem-08230709453D

 48 50  0     1  0  0  0  0  0999 V2000
   11.7323   -1.6689    0.3349 C   0  0  0  0  0  0  0  0  0  0  0  0
   10.3391   -2.1943   -0.0172 C   0  0  0  0  0  0  0  0  0  0  0  0
   10.0391   -3.4421    0.8158 C   0  0  0  0  0  0  0  0  0  0  0  0
   10.2890   -2.5498   -1.5045 C   0  0  0  0  0  0  0  0  0  0  0  0
    9.2961   -1.1164    0.2849 C   0  0  1  0  0  0  0  0  0  0  0  0
    9.3269   -0.8653    1.3452 H   0  0  0  0  0  0  0  0  0  0  0  0
    9.5941    0.1339   -0.5476 C   0  0  0  0  0  0  0  0  0  0  0  0
    8.7154    1.2941   -0.0767 C   0  0  0  0  0  0  0  0  0  0  0  0
    7.2624    0.8356   -0.0650 C   0  0  0  0  0  0  0  0  0  0  0  0
    6.9474   -0.4780   -0.0694 C   0  0  0  0  0  0  0  0  0  0  0  0
    5.1776   -0.5191   -0.0524 S   0  0  0  0  0  0  0  0  0  0  0  0
    4.8583    1.1838   -0.0390 C   0  0  0  0  0  0  0  0  0  0  0  0
    6.1284    1.7437   -0.0539 C   0  0  0  0  0  0  0  0  0  0  0  0
    6.3184    3.1975   -0.0542 C   0  0  0  0  0  0  0  0  0  0  0  0
    6.4108    3.7994    0.9997 O   0  0  0  0  0  0  0  0  0  0  0  0
    6.3909    3.8674   -1.2214 N   0  0  0  0  0  0  0  0  0  0  0  0
    3.6329    1.8297   -0.0233 N   0  0  0  0  0  0  0  0  0  0  0  0
    2.4925    1.1114   -0.0163 C   0  0  0  0  0  0  0  0  0  0  0  0
    2.5392   -0.1029   -0.0237 O   0  0  0  0  0  0  0  0  0  0  0  0
    1.1826    1.8019    0.0004 C   0  0  0  0  0  0  0  0  0  0  0  0
   -0.0126    1.0758    0.0080 C   0  0  0  0  0  0  0  0  0  0  0  0
   -1.2122    1.7607    0.0173 C   0  0  0  0  0  0  0  0  0  0  0  0
   -1.2392    3.0785    0.0305 N   0  0  0  0  0  0  0  0  0  0  0  0
   -0.1366    3.8010    0.0239 C   0  0  0  0  0  0  0  0  0  0  0  0
    1.1063    3.1983    0.0087 C   0  0  0  0  0  0  0  0  0  0  0  0
    7.8985   -1.6348   -0.0842 C   0  0  0  0  0  0  0  0  0  0  0  0
   11.7679   -1.4156    1.3945 H   0  0  0  0  0  0  0  0  0  0  0  0
   12.4753   -2.4368    0.1197 H   0  0  0  0  0  0  0  0  0  0  0  0
   11.9460   -0.7799   -0.2585 H   0  0  0  0  0  0  0  0  0  0  0  0
    9.0466   -3.8164    0.5650 H   0  0  0  0  0  0  0  0  0  0  0  0
   10.7821   -4.2100    0.6006 H   0  0  0  0  0  0  0  0  0  0  0  0
   10.0748   -3.1888    1.8754 H   0  0  0  0  0  0  0  0  0  0  0  0
   10.5028   -1.6609   -2.0979 H   0  0  0  0  0  0  0  0  0  0  0  0
   11.0321   -3.3177   -1.7197 H   0  0  0  0  0  0  0  0  0  0  0  0
    9.2965   -2.9241   -1.7553 H   0  0  0  0  0  0  0  0  0  0  0  0
    9.3884   -0.0730   -1.5979 H   0  0  0  0  0  0  0  0  0  0  0  0
   10.6436    0.4043   -0.4319 H   0  0  0  0  0  0  0  0  0  0  0  0
    8.8271    2.1372   -0.7585 H   0  0  0  0  0  0  0  0  0  0  0  0
    9.0125    1.5927    0.9287 H   0  0  0  0  0  0  0  0  0  0  0  0
    6.3173    3.3878   -2.0613 H   0  0  0  0  0  0  0  0  0  0  0  0
    6.5166    4.8292   -1.2216 H   0  0  0  0  0  0  0  0  0  0  0  0
    3.5956    2.7990   -0.0174 H   0  0  0  0  0  0  0  0  0  0  0  0
    0.0021   -0.0041    0.0020 H   0  0  0  0  0  0  0  0  0  0  0  0
   -2.1405    1.2089    0.0186 H   0  0  0  0  0  0  0  0  0  0  0  0
   -0.2059    4.8787    0.0307 H   0  0  0  0  0  0  0  0  0  0  0  0
    2.0055    3.7965    0.0030 H   0  0  0  0  0  0  0  0  0  0  0  0
    7.5801   -2.3813    0.6434 H   0  0  0  0  0  0  0  0  0  0  0  0
    7.9219   -2.0782   -1.0797 H   0  0  0  0  0  0  0  0  0  0  0  0
  1  2  1  0  0  0  0
  1 27  1  0  0  0  0
  1 28  1  0  0  0  0
  1 29  1  0  0  0  0
  2  3  1  0  0  0  0
  2  4  1  0  0  0  0
  2  5  1  0  0  0  0
  3 30  1  0  0  0  0
  3 31  1  0  0  0  0
  3 32  1  0  0  0  0
  4 33  1  0  0  0  0
  4 34  1  0  0  0  0
  4 35  1  0  0  0  0
  5  6  1  0  0  0  0
  5 26  1  0  0  0  0
  5  7  1  0  0  0  0
  7  8  1  0  0  0  0
  7 36  1  0  0  0  0
  7 37  1  0  0  0  0
  8  9  1  0  0  0  0
  8 38  1  0  0  0  0
  8 39  1  0  0  0  0
  9 13  1  0  0  0  0
  9 10  2  0  0  0  0
 10 11  1  0  0  0  0
 10 26  1  0  0  0  0
 11 12  1  0  0  0  0
 12 13  2  0  0  0  0
 12 17  1  0  0  0  0
 13 14  1  0  0  0  0
 14 15  2  0  0  0  0
 14 16  1  0  0  0  0
 16 40  1  0  0  0  0
 16 41  1  0  0  0  0
 17 18  1  0  0  0  0
 17 42  1  0  0  0  0
 18 19  2  0  0  0  0
 18 20  1  0  0  0  0
 20 25  2  0  0  0  0
 20 21  1  0  0  0  0
 21 22  2  0  0  0  0
 21 43  1  0  0  0  0
 22 23  1  0  0  0  0
 22 44  1  0  0  0  0
 23 24  2  0  0  0  0
 24 25  1  0  0  0  0
 24 45  1  0  0  0  0
 25 46  1  0  0  0  0
 26 47  1  0  0  0  0
 26 48  1  0  0  0  0
M  END
$$$$
ZINC01217589
  -OEChem-08230709453D

 48 50  0     1  0  0  0  0  0999 V2000
   10.0123   -3.4389   -1.0211 C   0  0  0  0  0  0  0  0  0  0  0  0
   10.3375   -2.1934   -0.1941 C   0  0  0  0  0  0  0  0  0  0  0  0
   11.7219   -1.6704   -0.5826 C   0  0  0  0  0  0  0  0  0  0  0  0
   10.3266   -2.5516    1.2933 C   0  0  0  0  0  0  0  0  0  0  0  0
    9.2892   -1.1126   -0.4661 C   0  0  2  0  0  0  0  0  0  0  0  0
    9.2988   -0.8525   -1.5246 H   0  0  0  0  0  0  0  0  0  0  0  0
    9.6024    0.1292    0.3736 C   0  0  0  0  0  0  0  0  0  0  0  0
    8.7155    1.2941   -0.0696 C   0  0  0  0  0  0  0  0  0  0  0  0
    7.2624    0.8356   -0.0593 C   0  0  0  0  0  0  0  0  0  0  0  0
    6.9475   -0.4781   -0.0625 C   0  0  0  0  0  0  0  0  0  0  0  0
    5.1777   -0.5192   -0.0393 S   0  0  0  0  0  0  0  0  0  0  0  0
    4.8583    1.1838   -0.0361 C   0  0  0  0  0  0  0  0  0  0  0  0
    6.1285    1.7437   -0.0451 C   0  0  0  0  0  0  0  0  0  0  0  0
    6.3186    3.1975   -0.0399 C   0  0  0  0  0  0  0  0  0  0  0  0
    6.4067    3.7959    1.0163 O   0  0  0  0  0  0  0  0  0  0  0  0
    6.3957    3.8711   -1.2046 N   0  0  0  0  0  0  0  0  0  0  0  0
    3.6329    1.8297   -0.0218 N   0  0  0  0  0  0  0  0  0  0  0  0
    2.4925    1.1114   -0.0148 C   0  0  0  0  0  0  0  0  0  0  0  0
    2.5393   -0.1029   -0.0209 O   0  0  0  0  0  0  0  0  0  0  0  0
    1.1826    1.8019    0.0004 C   0  0  0  0  0  0  0  0  0  0  0  0
   -0.0126    1.0758    0.0080 C   0  0  0  0  0  0  0  0  0  0  0  0
   -1.2122    1.7607    0.0173 C   0  0  0  0  0  0  0  0  0  0  0  0
   -1.2392    3.0785    0.0295 N   0  0  0  0  0  0  0  0  0  0  0  0
   -0.1366    3.8010    0.0228 C   0  0  0  0  0  0  0  0  0  0  0  0
    1.1063    3.1983    0.0082 C   0  0  0  0  0  0  0  0  0  0  0  0
    7.8985   -1.6349   -0.0770 C   0  0  0  0  0  0  0  0  0  0  0  0
   10.0201   -3.1837   -2.0807 H   0  0  0  0  0  0  0  0  0  0  0  0
   10.7591   -4.2089   -0.8273 H   0  0  0  0  0  0  0  0  0  0  0  0
    9.0260   -3.8115   -0.7443 H   0  0  0  0  0  0  0  0  0  0  0  0
   11.9535   -0.7831    0.0065 H   0  0  0  0  0  0  0  0  0  0  0  0
   12.4687   -2.4404   -0.3888 H   0  0  0  0  0  0  0  0  0  0  0  0
   11.7296   -1.4152   -1.6423 H   0  0  0  0  0  0  0  0  0  0  0  0
    9.3403   -2.9242    1.5701 H   0  0  0  0  0  0  0  0  0  0  0  0
   11.0734   -3.3216    1.4871 H   0  0  0  0  0  0  0  0  0  0  0  0
   10.5583   -1.6643    1.8824 H   0  0  0  0  0  0  0  0  0  0  0  0
    9.4159   -0.0883    1.4252 H   0  0  0  0  0  0  0  0  0  0  0  0
   10.6494    0.4018    0.2403 H   0  0  0  0  0  0  0  0  0  0  0  0
    8.9941    1.6030   -1.0772 H   0  0  0  0  0  0  0  0  0  0  0  0
    8.8397    2.1302    0.6186 H   0  0  0  0  0  0  0  0  0  0  0  0
    6.3255    3.3942   -2.0463 H   0  0  0  0  0  0  0  0  0  0  0  0
    6.5215    4.8329   -1.2012 H   0  0  0  0  0  0  0  0  0  0  0  0
    3.5956    2.7990   -0.0169 H   0  0  0  0  0  0  0  0  0  0  0  0
    0.0021   -0.0041    0.0020 H   0  0  0  0  0  0  0  0  0  0  0  0
   -2.1405    1.2089    0.0186 H   0  0  0  0  0  0  0  0  0  0  0  0
   -0.2059    4.8787    0.0292 H   0  0  0  0  0  0  0  0  0  0  0  0
    2.0055    3.7965    0.0024 H   0  0  0  0  0  0  0  0  0  0  0  0
    7.9404   -2.0883    0.9133 H   0  0  0  0  0  0  0  0  0  0  0  0
    7.5662   -2.3743   -0.8057 H   0  0  0  0  0  0  0  0  0  0  0  0
  1  2  1  0  0  0  0
  1 27  1  0  0  0  0
  1 28  1  0  0  0  0
  1 29  1  0  0  0  0
  2  3  1  0  0  0  0
  2  4  1  0  0  0  0
  2  5  1  0  0  0  0
  3 30  1  0  0  0  0
  3 31  1  0  0  0  0
  3 32  1  0  0  0  0
  4 33  1  0  0  0  0
  4 34  1  0  0  0  0
  4 35  1  0  0  0  0
  5  6  1  0  0  0  0
  5 26  1  0  0  0  0
  5  7  1  0  0  0  0
  7  8  1  0  0  0  0
  7 36  1  0  0  0  0
  7 37  1  0  0  0  0
  8  9  1  0  0  0  0
  8 38  1  0  0  0  0
  8 39  1  0  0  0  0
  9 13  1  0  0  0  0
  9 10  2  0  0  0  0
 10 11  1  0  0  0  0
 10 26  1  0  0  0  0
 11 12  1  0  0  0  0
 12 13  2  0  0  0  0
 12 17  1  0  0  0  0
 13 14  1  0  0  0  0
 14 15  2  0  0  0  0
 14 16  1  0  0  0  0
 16 40  1  0  0  0  0
 16 41  1  0  0  0  0
 17 18  1  0  0  0  0
 17 42  1  0  0  0  0
 18 19  2  0  0  0  0
 18 20  1  0  0  0  0
 20 25  2  0  0  0  0
 20 21  1  0  0  0  0
 21 22  2  0  0  0  0
 21 43  1  0  0  0  0
 22 23  1  0  0  0  0
 22 44  1  0  0  0  0
 23 24  2  0  0  0  0
 24 25  1  0  0  0  0
 24 45  1  0  0  0  0
 25 46  1  0  0  0  0
 26 47  1  0  0  0  0
 26 48  1  0  0  0  0
M  END
$$$$
ZINC01223406
  -OEChem-08230709453D

 42 44  0     0  0  0  0  0  0999 V2000
   -0.5924   -2.6382   -0.0850 C   0  0  0  0  0  0  0  0  0  0  0  0
   -0.0166   -2.0722   -1.2076 C   0  0  0  0  0  0  0  0  0  0  0  0
    0.5706   -0.8229   -1.1325 C   0  0  0  0  0  0  0  0  0  0  0  0
    0.5920   -0.1385    0.0720 C   0  0  0  0  0  0  0  0  0  0  0  0
    0.0118   -0.7079    1.2031 C   0  0  0  0  0  0  0  0  0  0  0  0
   -0.5799   -1.9598    1.1189 C   0  0  0  0  0  0  0  0  0  0  0  0
    0.0262   -0.0183    2.4228 N   0  0  0  0  0  0  0  0  0  0  0  0
   -0.0553   -0.6993    3.5830 C   0  0  0  0  0  0  0  0  0  0  0  0
   -0.0399   -1.9121    3.5767 O   0  0  0  0  0  0  0  0  0  0  0  0
   -0.1656    0.0461    4.8881 C   0  0  0  0  0  0  0  0  0  0  0  0
   -0.2568   -1.1384    6.2536 S   0  0  0  0  0  0  0  0  0  0  0  0
   -0.3760   -0.0268    7.6155 C   0  0  0  0  0  0  0  0  0  0  0  0
   -0.3816    1.2831    7.5522 N   0  0  0  0  0  0  0  0  0  0  0  0
   -0.4853    1.7660    8.7402 N   0  0  0  0  0  0  0  0  0  0  0  0
   -0.5401    0.7935    9.6023 C   0  0  0  0  0  0  0  0  0  0  0  0
   -0.4726   -0.3639    8.9154 O   0  0  0  0  0  0  0  0  0  0  0  0
   -0.6582    0.9355   11.0980 C   0  0  0  0  0  0  0  0  0  0  0  0
   -1.9469    1.6863   11.4389 C   0  0  0  0  0  0  0  0  0  0  0  0
   -2.0668    1.8304   12.9573 C   0  0  0  0  0  0  0  0  0  0  0  0
   -0.8648    2.6116   13.4920 C   0  0  0  0  0  0  0  0  0  0  0  0
    0.4240    1.8607   13.1511 C   0  0  0  0  0  0  0  0  0  0  0  0
    0.5439    1.7166   11.6326 C   0  0  0  0  0  0  0  0  0  0  0  0
    1.1730    1.0885    0.1484 O   0  0  0  0  0  0  0  0  0  0  0  0
   -1.0534   -3.6128   -0.1493 H   0  0  0  0  0  0  0  0  0  0  0  0
   -0.0294   -2.6057   -2.1465 H   0  0  0  0  0  0  0  0  0  0  0  0
    1.0158   -0.3819   -2.0121 H   0  0  0  0  0  0  0  0  0  0  0  0
   -1.0310   -2.4040    1.9939 H   0  0  0  0  0  0  0  0  0  0  0  0
    0.0947    0.9493    2.4321 H   0  0  0  0  0  0  0  0  0  0  0  0
    0.7092    0.6833    5.0176 H   0  0  0  0  0  0  0  0  0  0  0  0
   -1.0653    0.6614    4.8802 H   0  0  0  0  0  0  0  0  0  0  0  0
   -0.6818   -0.0534   11.5560 H   0  0  0  0  0  0  0  0  0  0  0  0
   -1.9233    2.6751   10.9808 H   0  0  0  0  0  0  0  0  0  0  0  0
   -2.8032    1.1298   11.0580 H   0  0  0  0  0  0  0  0  0  0  0  0
   -2.0904    0.8416   13.4154 H   0  0  0  0  0  0  0  0  0  0  0  0
   -2.9849    2.3653   13.2002 H   0  0  0  0  0  0  0  0  0  0  0  0
   -0.9502    2.7142   14.5738 H   0  0  0  0  0  0  0  0  0  0  0  0
   -0.8412    3.6004   13.0339 H   0  0  0  0  0  0  0  0  0  0  0  0
    0.4004    0.8719   13.6091 H   0  0  0  0  0  0  0  0  0  0  0  0
    1.2803    2.4172   13.5320 H   0  0  0  0  0  0  0  0  0  0  0  0
    1.4620    1.1817   11.3898 H   0  0  0  0  0  0  0  0  0  0  0  0
    0.5675    2.7054   11.1746 H   0  0  0  0  0  0  0  0  0  0  0  0
    2.1126    1.0653    0.3759 H   0  0  0  0  0  0  0  0  0  0  0  0
  1  6  2  0  0  0  0
  1  2  1  0  0  0  0
  1 24  1  0  0  0  0
  2  3  2  0  0  0  0
  2 25  1  0  0  0  0
  3  4  1  0  0  0  0
  3 26  1  0  0  0  0
  4  5  2  0  0  0  0
  4 23  1  0  0  0  0
  5  6  1  0  0  0  0
  5  7  1  0  0  0  0
  6 27  1  0  0  0  0
  7  8  1  0  0  0  0
  7 28  1  0  0  0  0
  8  9  2  0  0  0  0
  8 10  1  0  0  0  0
 10 11  1  0  0  0  0
 10 29  1  0  0  0  0
 10 30  1  0  0  0  0
 11 12  1  0  0  0  0
 12 16  1  0  0  0  0
 12 13  2  0  0  0  0
 13 14  1  0  0  0  0
 14 15  2  0  0  0  0
 15 16  1  0  0  0  0
 15 17  1  0  0  0  0
 17 22  1  0  0  0  0
 17 18  1  0  0  0  0
 17 31  1  0  0  0  0
 18 19  1  0  0  0  0
 18 32  1  0  0  0  0
 18 33  1  0  0  0  0
 19 20  1  0  0  0  0
 19 34  1  0  0  0  0
 19 35  1  0  0  0  0
 20 21  1  0  0  0  0
 20 36  1  0  0  0  0
 20 37  1  0  0  0  0
 21 22  1  0  0  0  0
 21 38  1  0  0  0  0
 21 39  1  0  0  0  0
 22 40  1  0  0  0  0
 22 41  1  0  0  0  0
 23 42  1  0  0  0  0
M  END
$$$$
ZINC01223586
  -OEChem-08230709453D

 43 45  0     1  0  0  0  0  0999 V2000
   -5.0812    6.8288   -2.3526 C   0  0  0  0  0  0  0  0  0  0  0  0
   -4.9375    6.0161   -1.0917 C   0  0  0  0  0  0  0  0  0  0  0  0
   -5.0796    4.6867   -1.1603 C   0  0  0  0  0  0  0  0  0  0  0  0
   -4.9479    3.8265    0.0670 C   0  0  2  0  0  0  0  0  0  0  0  0
   -5.7427    3.0806    0.0726 H   0  0  0  0  0  0  0  0  0  0  0  0
   -5.0548    4.6809    1.3013 C   0  0  0  0  0  0  0  0  0  0  0  0
   -4.9133    6.0263    1.2265 C   0  0  0  0  0  0  0  0  0  0  0  0
   -4.6718    6.6496    0.0599 O   0  0  0  0  0  0  0  0  0  0  0  0
   -5.0197    6.7735    2.3731 N   0  0  0  0  0  0  0  0  0  0  0  0
   -5.3095    4.0652    2.5689 C   0  0  0  0  0  0  0  0  0  0  0  0
   -5.5115    3.5767    3.5744 N   0  0  0  0  0  0  0  0  0  0  0  0
   -3.6100    3.1332    0.0519 C   0  0  0  0  0  0  0  0  0  0  0  0
   -2.4590    3.8687    0.0452 C   0  0  0  0  0  0  0  0  0  0  0  0
   -1.2311    3.1818    0.0306 C   0  0  0  0  0  0  0  0  0  0  0  0
   -0.0081    3.8733    0.0226 C   0  0  0  0  0  0  0  0  0  0  0  0
    1.1598    3.1763    0.0081 C   0  0  0  0  0  0  0  0  0  0  0  0
    1.1593    1.7777    0.0005 C   0  0  0  0  0  0  0  0  0  0  0  0
   -0.0126    1.0758    0.0080 C   0  0  0  0  0  0  0  0  0  0  0  0
   -1.2365    1.7643    0.0175 C   0  0  0  0  0  0  0  0  0  0  0  0
   -2.3988    1.1030    0.0305 N   0  0  0  0  0  0  0  0  0  0  0  0
   -3.5460    1.7406    0.0441 C   0  0  0  0  0  0  0  0  0  0  0  0
   -5.0216    0.8262    0.0522 Cl  0  0  0  0  0  0  0  0  0  0  0  0
    2.3408    1.1078   -0.0149 O   0  0  0  0  0  0  0  0  0  0  0  0
    3.5331    1.8954   -0.0220 C   0  0  0  0  0  0  0  0  0  0  0  0
   -5.3590    4.0799   -2.4093 C   0  0  0  0  0  0  0  0  0  0  0  0
   -5.4675    4.7659   -3.4081 O   0  0  0  0  0  0  0  0  0  0  0  0
   -5.5048    2.7411   -2.4913 O   0  0  0  0  0  0  0  0  0  0  0  0
   -5.7854    2.1969   -3.7824 C   0  0  0  0  0  0  0  0  0  0  0  0
   -4.9373    7.8845   -2.1227 H   0  0  0  0  0  0  0  0  0  0  0  0
   -4.3328    6.5096   -3.0779 H   0  0  0  0  0  0  0  0  0  0  0  0
   -6.0775    6.6802   -2.7691 H   0  0  0  0  0  0  0  0  0  0  0  0
   -5.1941    6.3374    3.2218 H   0  0  0  0  0  0  0  0  0  0  0  0
   -4.9206    7.7377    2.3345 H   0  0  0  0  0  0  0  0  0  0  0  0
   -2.4906    4.9482    0.0514 H   0  0  0  0  0  0  0  0  0  0  0  0
    0.0047    4.9532    0.0276 H   0  0  0  0  0  0  0  0  0  0  0  0
    2.0990    3.7094    0.0020 H   0  0  0  0  0  0  0  0  0  0  0  0
    0.0021   -0.0041    0.0020 H   0  0  0  0  0  0  0  0  0  0  0  0
    3.5618    2.5193    0.8714 H   0  0  0  0  0  0  0  0  0  0  0  0
    4.4026    1.2383   -0.0342 H   0  0  0  0  0  0  0  0  0  0  0  0
    3.5444    2.5295   -0.9085 H   0  0  0  0  0  0  0  0  0  0  0  0
   -6.7183    2.6167   -4.1587 H   0  0  0  0  0  0  0  0  0  0  0  0
   -4.9734    2.4455   -4.4658 H   0  0  0  0  0  0  0  0  0  0  0  0
   -5.8786    1.1134   -3.7077 H   0  0  0  0  0  0  0  0  0  0  0  0
  1  2  1  0  0  0  0
  1 29  1  0  0  0  0
  1 30  1  0  0  0  0
  1 31  1  0  0  0  0
  2  8  1  0  0  0  0
  2  3  2  0  0  0  0
  3  4  1  0  0  0  0
  3 25  1  0  0  0  0
  4  5  1  0  0  0  0
  4  6  1  0  0  0  0
  4 12  1  0  0  0  0
  6  7  2  0  0  0  0
  6 10  1  0  0  0  0
  7  8  1  0  0  0  0
  7  9  1  0  0  0  0
  9 32  1  0  0  0  0
  9 33  1  0  0  0  0
 10 11  3  0  0  0  0
 12 21  2  0  0  0  0
 12 13  1  0  0  0  0
 13 14  2  0  0  0  0
 13 34  1  0  0  0  0
 14 19  1  0  0  0  0
 14 15  1  0  0  0  0
 15 16  2  0  0  0  0
 15 35  1  0  0  0  0
 16 17  1  0  0  0  0
 16 36  1  0  0  0  0
 17 18  2  0  0  0  0
 17 23  1  0  0  0  0
 18 19  1  0  0  0  0
 18 37  1  0  0  0  0
 19 20  2  0  0  0  0
 20 21  1  0  0  0  0
 21 22  1  0  0  0  0
 23 24  1  0  0  0  0
 24 38  1  0  0  0  0
 24 39  1  0  0  0  0
 24 40  1  0  0  0  0
 25 26  2  0  0  0  0
 25 27  1  0  0  0  0
 27 28  1  0  0  0  0
 28 41  1  0  0  0  0
 28 42  1  0  0  0  0
 28 43  1  0  0  0  0
M  END
$$$$
ZINC01223587
  -OEChem-08230709453D

 43 45  0     1  0  0  0  0  0999 V2000
    1.4037   -7.8677   -2.4848 C   0  0  0  0  0  0  0  0  0  0  0  0
    0.7722   -7.3701   -1.2102 C   0  0  0  0  0  0  0  0  0  0  0  0
   -0.4627   -6.8546   -1.2591 C   0  0  0  0  0  0  0  0  0  0  0  0
   -1.1415   -6.3438   -0.0174 C   0  0  1  0  0  0  0  0  0  0  0  0
   -2.1778   -6.6815   -0.0069 H   0  0  0  0  0  0  0  0  0  0  0  0
   -0.4321   -6.8673    1.2024 C   0  0  0  0  0  0  0  0  0  0  0  0
    0.8146   -7.3890    1.1076 C   0  0  0  0  0  0  0  0  0  0  0  0
    1.4663   -7.4589   -0.0663 O   0  0  0  0  0  0  0  0  0  0  0  0
    1.4296   -7.8588    2.2414 N   0  0  0  0  0  0  0  0  0  0  0  0
   -1.0823   -6.8138    2.4771 C   0  0  0  0  0  0  0  0  0  0  0  0
   -1.5981   -6.7713    3.4884 N   0  0  0  0  0  0  0  0  0  0  0  0
   -1.1053   -4.8373   -0.0102 C   0  0  0  0  0  0  0  0  0  0  0  0
    0.0933   -4.1822   -0.0185 C   0  0  0  0  0  0  0  0  0  0  0  0
    0.0822   -2.7753   -0.0122 C   0  0  0  0  0  0  0  0  0  0  0  0
    1.2770   -2.0360   -0.0202 C   0  0  0  0  0  0  0  0  0  0  0  0
    1.2282   -0.6768   -0.0133 C   0  0  0  0  0  0  0  0  0  0  0  0
    0.0021   -0.0041    0.0020 C   0  0  0  0  0  0  0  0  0  0  0  0
   -1.1771   -0.6935    0.0153 C   0  0  0  0  0  0  0  0  0  0  0  0
   -1.1628   -2.0977    0.0028 C   0  0  0  0  0  0  0  0  0  0  0  0
   -2.3018   -2.7984    0.0108 N   0  0  0  0  0  0  0  0  0  0  0  0
   -2.2950   -4.1109    0.0050 C   0  0  0  0  0  0  0  0  0  0  0  0
   -3.8067   -4.9644    0.0160 Cl  0  0  0  0  0  0  0  0  0  0  0  0
   -0.0163    1.3541    0.0095 O   0  0  0  0  0  0  0  0  0  0  0  0
    1.2479    2.0201    0.0010 C   0  0  0  0  0  0  0  0  0  0  0  0
   -1.1412   -6.7886   -2.5008 C   0  0  0  0  0  0  0  0  0  0  0  0
   -0.6018   -7.1987   -3.5113 O   0  0  0  0  0  0  0  0  0  0  0  0
   -2.3856   -6.2709   -2.5630 O   0  0  0  0  0  0  0  0  0  0  0  0
   -3.0101   -6.2355   -3.8478 C   0  0  0  0  0  0  0  0  0  0  0  0
    2.4007   -8.2524   -2.2701 H   0  0  0  0  0  0  0  0  0  0  0  0
    0.7905   -8.6635   -2.9075 H   0  0  0  0  0  0  0  0  0  0  0  0
    1.4768   -7.0472   -3.1985 H   0  0  0  0  0  0  0  0  0  0  0  0
    0.9716   -7.8146    3.0953 H   0  0  0  0  0  0  0  0  0  0  0  0
    2.3221   -8.2350    2.1886 H   0  0  0  0  0  0  0  0  0  0  0  0
    1.0244   -4.7294   -0.0302 H   0  0  0  0  0  0  0  0  0  0  0  0
    2.2296   -2.5447   -0.0313 H   0  0  0  0  0  0  0  0  0  0  0  0
    2.1476   -0.1101   -0.0194 H   0  0  0  0  0  0  0  0  0  0  0  0
   -2.1165   -0.1608    0.0316 H   0  0  0  0  0  0  0  0  0  0  0  0
    1.8173    1.7301    0.8840 H   0  0  0  0  0  0  0  0  0  0  0  0
    1.8003    1.7396   -0.8958 H   0  0  0  0  0  0  0  0  0  0  0  0
    1.0905    3.0987    0.0083 H   0  0  0  0  0  0  0  0  0  0  0  0
   -4.0038   -5.7970   -3.7568 H   0  0  0  0  0  0  0  0  0  0  0  0
   -2.4080   -5.6332   -4.5280 H   0  0  0  0  0  0  0  0  0  0  0  0
   -3.0949   -7.2495   -4.2386 H   0  0  0  0  0  0  0  0  0  0  0  0
  1  2  1  0  0  0  0
  1 29  1  0  0  0  0
  1 30  1  0  0  0  0
  1 31  1  0  0  0  0
  2  8  1  0  0  0  0
  2  3  2  0  0  0  0
  3  4  1  0  0  0  0
  3 25  1  0  0  0  0
  4  5  1  0  0  0  0
  4  6  1  0  0  0  0
  4 12  1  0  0  0  0
  6  7  2  0  0  0  0
  6 10  1  0  0  0  0
  7  8  1  0  0  0  0
  7  9  1  0  0  0  0
  9 32  1  0  0  0  0
  9 33  1  0  0  0  0
 10 11  3  0  0  0  0
 12 21  2  0  0  0  0
 12 13  1  0  0  0  0
 13 14  2  0  0  0  0
 13 34  1  0  0  0  0
 14 19  1  0  0  0  0
 14 15  1  0  0  0  0
 15 16  2  0  0  0  0
 15 35  1  0  0  0  0
 16 17  1  0  0  0  0
 16 36  1  0  0  0  0
 17 18  2  0  0  0  0
 17 23  1  0  0  0  0
 18 19  1  0  0  0  0
 18 37  1  0  0  0  0
 19 20  2  0  0  0  0
 20 21  1  0  0  0  0
 21 22  1  0  0  0  0
 23 24  1  0  0  0  0
 24 38  1  0  0  0  0
 24 39  1  0  0  0  0
 24 40  1  0  0  0  0
 25 26  2  0  0  0  0
 25 27  1  0  0  0  0
 27 28  1  0  0  0  0
 28 41  1  0  0  0  0
 28 42  1  0  0  0  0
 28 43  1  0  0  0  0
M  END
$$$$
ZINC01248214
  -OEChem-08230709453D

 38 40  0     0  0  0  0  0  0999 V2000
    4.3098    4.4583   -2.5181 C   0  0  0  0  0  0  0  0  0  0  0  0
    4.6756    5.1172   -1.2131 C   0  0  0  0  0  0  0  0  0  0  0  0
    5.3298    6.3350   -1.2132 C   0  0  0  0  0  0  0  0  0  0  0  0
    5.6700    6.9369   -0.0162 C   0  0  0  0  0  0  0  0  0  0  0  0
    5.3521    6.3231    1.1810 C   0  0  0  0  0  0  0  0  0  0  0  0
    4.6932    5.1079    1.1811 C   0  0  0  0  0  0  0  0  0  0  0  0
    4.3526    4.5062   -0.0159 C   0  0  0  0  0  0  0  0  0  0  0  0
    3.6347    3.1812   -0.0158 C   0  0  0  0  0  0  0  0  0  0  0  0
    1.8470    3.4636    0.0025 S   0  0  0  0  0  0  0  0  0  0  0  0
    1.2740    1.7974   -0.0005 C   0  0  0  0  0  0  0  0  0  0  0  0
   -0.0170    1.4000    0.0097 N   0  0  0  0  0  0  0  0  0  0  0  0
   -0.8011    1.9709    0.0167 H   0  0  0  0  0  0  0  0  0  0  0  0
    0.0021   -0.0041    0.0020 N   0  0  0  0  0  0  0  0  0  0  0  0
    1.2559   -0.3691   -0.0119 C   0  0  0  0  0  0  0  0  0  0  0  0
    2.0278    0.7182   -0.0134 N   0  0  0  0  0  0  0  0  0  0  0  0
    5.7233    6.9791    2.4859 C   0  0  0  0  0  0  0  0  0  0  0  0
    6.3879    8.2619   -0.0163 C   0  0  0  0  0  0  0  0  0  0  0  0
    8.1756    7.9796   -0.0346 S   0  0  0  0  0  0  0  0  0  0  0  0
    8.7486    9.6458   -0.0317 C   0  0  0  0  0  0  0  0  0  0  0  0
   10.0395   10.0432   -0.0419 N   0  0  0  0  0  0  0  0  0  0  0  0
   10.8236    9.4724   -0.0517 H   0  0  0  0  0  0  0  0  0  0  0  0
   10.0204   11.4473   -0.0346 N   0  0  0  0  0  0  0  0  0  0  0  0
    8.7666   11.8123   -0.0209 C   0  0  0  0  0  0  0  0  0  0  0  0
    7.9947   10.7250   -0.0248 N   0  0  0  0  0  0  0  0  0  0  0  0
    3.3180    4.7890   -2.8267 H   0  0  0  0  0  0  0  0  0  0  0  0
    5.0382    4.7336   -3.2809 H   0  0  0  0  0  0  0  0  0  0  0  0
    4.3085    3.3758   -2.3908 H   0  0  0  0  0  0  0  0  0  0  0  0
    5.5785    6.8143   -2.1485 H   0  0  0  0  0  0  0  0  0  0  0  0
    4.4448    4.6284    2.1164 H   0  0  0  0  0  0  0  0  0  0  0  0
    3.9218    2.6125    0.8687 H   0  0  0  0  0  0  0  0  0  0  0  0
    3.9050    2.6215   -0.9112 H   0  0  0  0  0  0  0  0  0  0  0  0
    1.6109   -1.3890   -0.0213 H   0  0  0  0  0  0  0  0  0  0  0  0
    6.7162    6.6474    2.7898 H   0  0  0  0  0  0  0  0  0  0  0  0
    5.7244    8.0619    2.3609 H   0  0  0  0  0  0  0  0  0  0  0  0
    4.9979    6.7024    3.2510 H   0  0  0  0  0  0  0  0  0  0  0  0
    6.1007    8.8306   -0.9008 H   0  0  0  0  0  0  0  0  0  0  0  0
    6.1176    8.8217    0.8791 H   0  0  0  0  0  0  0  0  0  0  0  0
    8.4115   12.8322   -0.0130 H   0  0  0  0  0  0  0  0  0  0  0  0
  1  2  1  0  0  0  0
  1 25  1  0  0  0  0
  1 26  1  0  0  0  0
  1 27  1  0  0  0  0
  2  7  2  0  0  0  0
  2  3  1  0  0  0  0
  3  4  2  0  0  0  0
  3 28  1  0  0  0  0
  4  5  1  0  0  0  0
  4 17  1  0  0  0  0
  5  6  2  0  0  0  0
  5 16  1  0  0  0  0
  6  7  1  0  0  0  0
  6 29  1  0  0  0  0
  7  8  1  0  0  0  0
  8  9  1  0  0  0  0
  8 30  1  0  0  0  0
  8 31  1  0  0  0  0
  9 10  1  0  0  0  0
 10 15  2  0  0  0  0
 10 11  1  0  0  0  0
 11 12  1  0  0  0  0
 11 13  1  0  0  0  0
 13 14  2  0  0  0  0
 14 15  1  0  0  0  0
 14 32  1  0  0  0  0
 16 33  1  0  0  0  0
 16 34  1  0  0  0  0
 16 35  1  0  0  0  0
 17 18  1  0  0  0  0
 17 36  1  0  0  0  0
 17 37  1  0  0  0  0
 18 19  1  0  0  0  0
 19 24  2  0  0  0  0
 19 20  1  0  0  0  0
 20 21  1  0  0  0  0
 20 22  1  0  0  0  0
 22 23  2  0  0  0  0
 23 24  1  0  0  0  0
 23 38  1  0  0  0  0
M  END
$$$$
ZINC01263962
  -OEChem-08230709453D

 45 48  0     1  0  0  0  0  0999 V2000
    0.7312    3.5762   -1.0944 C   0  0  0  0  0  0  0  0  0  0  0  0
   -0.3750    2.7677   -1.7218 C   0  0  0  0  0  0  0  0  0  0  0  0
   -1.0081    3.2420   -2.8161 C   0  0  0  0  0  0  0  0  0  0  0  0
   -2.0439    2.4892   -3.4072 C   0  0  0  0  0  0  0  0  0  0  0  0
   -2.3897    1.2763   -2.8500 C   0  0  0  0  0  0  0  0  0  0  0  0
   -1.7014    0.8222   -1.7177 C   0  0  0  0  0  0  0  0  0  0  0  0
   -1.9938   -0.2522   -1.2162 O   0  0  0  0  0  0  0  0  0  0  0  0
   -0.7213    1.5711   -1.1789 N   0  0  0  0  0  0  0  0  0  0  0  0
   -0.0127    1.0858    0.0080 C   0  0  0  0  0  0  0  0  0  0  0  0
   -0.7288    1.5792    1.2668 C   0  0  1  0  0  0  0  0  0  0  0  0
   -1.7580    1.2202    1.2723 H   0  0  0  0  0  0  0  0  0  0  0  0
    0.0091    1.0738    2.5216 C   0  0  0  0  0  0  0  0  0  0  0  0
    0.3904    2.3662    3.2840 C   0  0  0  0  0  0  0  0  0  0  0  0
   -0.6097    3.3954    2.6985 C   0  0  0  0  0  0  0  0  0  0  0  0
   -0.7090    3.0159    1.3091 O   0  0  0  0  0  0  0  0  0  0  0  0
   -3.4875    0.4404   -3.4486 C   0  0  1  0  0  0  0  0  0  0  0  0
   -4.1192    0.0489   -2.6513 H   0  0  0  0  0  0  0  0  0  0  0  0
   -4.3238    1.2739   -4.3794 C   0  0  0  0  0  0  0  0  0  0  0  0
   -3.8806    2.4655   -4.8450 C   0  0  0  0  0  0  0  0  0  0  0  0
   -2.6789    2.9608   -4.5011 O   0  0  0  0  0  0  0  0  0  0  0  0
   -4.6815    3.1890   -5.6929 N   0  0  0  0  0  0  0  0  0  0  0  0
   -5.6133    0.7983   -4.7815 C   0  0  0  0  0  0  0  0  0  0  0  0
   -6.6363    0.4210   -5.1004 N   0  0  0  0  0  0  0  0  0  0  0  0
   -2.8807   -0.7070   -4.2143 C   0  0  0  0  0  0  0  0  0  0  0  0
   -3.0344   -2.0395   -4.0193 C   0  0  0  0  0  0  0  0  0  0  0  0
   -2.3757   -2.9200   -4.8569 C   0  0  0  0  0  0  0  0  0  0  0  0
   -1.5871   -2.4248   -5.8419 C   0  0  0  0  0  0  0  0  0  0  0  0
   -1.7668   -0.6640   -5.6087 S   0  0  0  0  0  0  0  0  0  0  0  0
    1.6843    3.2994   -1.5452 H   0  0  0  0  0  0  0  0  0  0  0  0
    0.5452    4.6373   -1.2610 H   0  0  0  0  0  0  0  0  0  0  0  0
    0.7644    3.3769   -0.0233 H   0  0  0  0  0  0  0  0  0  0  0  0
   -0.7221    4.1944   -3.2374 H   0  0  0  0  0  0  0  0  0  0  0  0
    0.0021   -0.0041    0.0020 H   0  0  0  0  0  0  0  0  0  0  0  0
    1.0099    1.4631    0.0003 H   0  0  0  0  0  0  0  0  0  0  0  0
   -0.6506    0.4535    3.1283 H   0  0  0  0  0  0  0  0  0  0  0  0
    0.9028    0.5168    2.2402 H   0  0  0  0  0  0  0  0  0  0  0  0
    0.2395    2.2439    4.3565 H   0  0  0  0  0  0  0  0  0  0  0  0
    1.4185    2.6564    3.0677 H   0  0  0  0  0  0  0  0  0  0  0  0
   -1.5791    3.3109    3.1897 H   0  0  0  0  0  0  0  0  0  0  0  0
   -0.2188    4.4083    2.7953 H   0  0  0  0  0  0  0  0  0  0  0  0
   -5.5512    2.8450   -5.9501 H   0  0  0  0  0  0  0  0  0  0  0  0
   -4.3779    4.0445   -6.0348 H   0  0  0  0  0  0  0  0  0  0  0  0
   -3.6644   -2.4078   -3.2231 H   0  0  0  0  0  0  0  0  0  0  0  0
   -2.4841   -3.9865   -4.7256 H   0  0  0  0  0  0  0  0  0  0  0  0
   -1.0017   -2.9573   -6.5768 H   0  0  0  0  0  0  0  0  0  0  0  0
  1  2  1  0  0  0  0
  1 29  1  0  0  0  0
  1 30  1  0  0  0  0
  1 31  1  0  0  0  0
  2  8  1  0  0  0  0
  2  3  2  0  0  0  0
  3  4  1  0  0  0  0
  3 32  1  0  0  0  0
  4 20  1  0  0  0  0
  4  5  2  0  0  0  0
  5  6  1  0  0  0  0
  5 16  1  0  0  0  0
  6  7  2  0  0  0  0
  6  8  1  0  0  0  0
  8  9  1  0  0  0  0
  9 10  1  0  0  0  0
  9 33  1  0  0  0  0
  9 34  1  0  0  0  0
 10 11  1  0  0  0  0
 10 15  1  0  0  0  0
 10 12  1  0  0  0  0
 12 13  1  0  0  0  0
 12 35  1  0  0  0  0
 12 36  1  0  0  0  0
 13 14  1  0  0  0  0
 13 37  1  0  0  0  0
 13 38  1  0  0  0  0
 14 15  1  0  0  0  0
 14 39  1  0  0  0  0
 14 40  1  0  0  0  0
 16 17  1  0  0  0  0
 16 18  1  0  0  0  0
 16 24  1  0  0  0  0
 18 19  2  0  0  0  0
 18 22  1  0  0  0  0
 19 20  1  0  0  0  0
 19 21  1  0  0  0  0
 21 41  1  0  0  0  0
 21 42  1  0  0  0  0
 22 23  3  0  0  0  0
 24 28  1  0  0  0  0
 24 25  2  0  0  0  0
 25 26  1  0  0  0  0
 25 43  1  0  0  0  0
 26 27  2  0  0  0  0
 26 44  1  0  0  0  0
 27 28  1  0  0  0  0
 27 45  1  0  0  0  0
M  END
$$$$
ZINC01287015
  -OEChem-08230709453D

 45 46  0     0  0  0  0  0  0999 V2000
    6.2887    2.1736    2.8677 C   0  0  0  0  0  0  0  0  0  0  0  0
    4.9319    1.5211    2.9357 C   0  0  0  0  0  0  0  0  0  0  0  0
    4.3504    1.2651    4.1641 C   0  0  0  0  0  0  0  0  0  0  0  0
    3.1076    0.6670    4.2302 C   0  0  0  0  0  0  0  0  0  0  0  0
    2.4408    0.3227    3.0605 C   0  0  0  0  0  0  0  0  0  0  0  0
    3.0306    0.5767    1.8280 C   0  0  0  0  0  0  0  0  0  0  0  0
    4.2712    1.1803    1.7695 C   0  0  0  0  0  0  0  0  0  0  0  0
    0.8547   -0.4406    3.1400 S   0  0  0  0  0  0  0  0  0  0  0  0
    0.4016   -0.6930    1.4017 C   0  0  0  0  0  0  0  0  0  0  0  0
   -0.9535   -1.3480    1.3259 C   0  0  0  0  0  0  0  0  0  0  0  0
   -1.5543   -1.6178    2.3440 O   0  0  0  0  0  0  0  0  0  0  0  0
   -1.4977   -1.6338    0.1264 N   0  0  0  0  0  0  0  0  0  0  0  0
   -2.6892   -2.3233    0.0569 C   0  0  0  0  0  0  0  0  0  0  0  0
   -2.6975   -3.6875    0.0891 C   0  0  0  0  0  0  0  0  0  0  0  0
   -3.9276   -4.3649    0.0170 C   0  0  0  0  0  0  0  0  0  0  0  0
   -3.9597   -5.5831    0.0444 O   0  0  0  0  0  0  0  0  0  0  0  0
   -5.0709   -3.6583   -0.0823 N   0  0  0  0  0  0  0  0  0  0  0  0
   -5.9472   -4.1373   -0.1338 H   0  0  0  0  0  0  0  0  0  0  0  0
   -5.0427   -2.3135   -0.1127 C   0  0  0  0  0  0  0  0  0  0  0  0
   -6.0854   -1.6946   -0.2022 O   0  0  0  0  0  0  0  0  0  0  0  0
   -3.8782   -1.6431   -0.0398 N   0  0  0  0  0  0  0  0  0  0  0  0
   -3.8786   -0.1784   -0.0689 C   0  0  0  0  0  0  0  0  0  0  0  0
   -3.9353    0.3028   -1.5202 C   0  0  0  0  0  0  0  0  0  0  0  0
   -4.0425    1.8288   -1.5477 C   0  0  0  0  0  0  0  0  0  0  0  0
   -2.6640   -0.1324   -2.2518 C   0  0  0  0  0  0  0  0  0  0  0  0
    7.0618    1.4052    2.8695 H   0  0  0  0  0  0  0  0  0  0  0  0
    6.3634    2.7621    1.9533 H   0  0  0  0  0  0  0  0  0  0  0  0
    6.4221    2.8253    3.7311 H   0  0  0  0  0  0  0  0  0  0  0  0
    4.8691    1.5330    5.0727 H   0  0  0  0  0  0  0  0  0  0  0  0
    2.6540    0.4674    5.1899 H   0  0  0  0  0  0  0  0  0  0  0  0
    2.5173    0.3064    0.9170 H   0  0  0  0  0  0  0  0  0  0  0  0
    4.7282    1.3820    0.8120 H   0  0  0  0  0  0  0  0  0  0  0  0
    0.3690    0.2695    0.8913 H   0  0  0  0  0  0  0  0  0  0  0  0
    1.1420   -1.3335    0.9226 H   0  0  0  0  0  0  0  0  0  0  0  0
   -1.0508   -1.3542   -0.6879 H   0  0  0  0  0  0  0  0  0  0  0  0
   -1.7724   -4.2391    0.1693 H   0  0  0  0  0  0  0  0  0  0  0  0
   -4.7478    0.1956    0.4721 H   0  0  0  0  0  0  0  0  0  0  0  0
   -2.9692    0.1946    0.4023 H   0  0  0  0  0  0  0  0  0  0  0  0
   -4.8050   -0.1314   -2.0132 H   0  0  0  0  0  0  0  0  0  0  0  0
   -3.1728    2.2631   -1.0546 H   0  0  0  0  0  0  0  0  0  0  0  0
   -4.0829    2.1716   -2.5816 H   0  0  0  0  0  0  0  0  0  0  0  0
   -4.9482    2.1389   -1.0264 H   0  0  0  0  0  0  0  0  0  0  0  0
   -2.6633    0.2851   -3.2587 H   0  0  0  0  0  0  0  0  0  0  0  0
   -1.7906    0.2281   -1.7085 H   0  0  0  0  0  0  0  0  0  0  0  0
   -2.6324   -1.2204   -2.3096 H   0  0  0  0  0  0  0  0  0  0  0  0
  1  2  1  0  0  0  0
  1 26  1  0  0  0  0
  1 27  1  0  0  0  0
  1 28  1  0  0  0  0
  2  7  2  0  0  0  0
  2  3  1  0  0  0  0
  3  4  2  0  0  0  0
  3 29  1  0  0  0  0
  4  5  1  0  0  0  0
  4 30  1  0  0  0  0
  5  6  2  0  0  0  0
  5  8  1  0  0  0  0
  6  7  1  0  0  0  0
  6 31  1  0  0  0  0
  7 32  1  0  0  0  0
  8  9  1  0  0  0  0
  9 10  1  0  0  0  0
  9 33  1  0  0  0  0
  9 34  1  0  0  0  0
 10 11  2  0  0  0  0
 10 12  1  0  0  0  0
 12 13  1  0  0  0  0
 12 35  1  0  0  0  0
 13 21  1  0  0  0  0
 13 14  2  0  0  0  0
 14 15  1  0  0  0  0
 14 36  1  0  0  0  0
 15 16  2  0  0  0  0
 15 17  1  0  0  0  0
 17 18  1  0  0  0  0
 17 19  1  0  0  0  0
 19 20  2  0  0  0  0
 19 21  1  0  0  0  0
 21 22  1  0  0  0  0
 22 23  1  0  0  0  0
 22 37  1  0  0  0  0
 22 38  1  0  0  0  0
 23 24  1  0  0  0  0
 23 25  1  0  0  0  0
 23 39  1  0  0  0  0
 24 40  1  0  0  0  0
 24 41  1  0  0  0  0
 24 42  1  0  0  0  0
 25 43  1  0  0  0  0
 25 44  1  0  0  0  0
 25 45  1  0  0  0  0
M  END
$$$$
ZINC01287026
  -OEChem-08230709453D

 46 48  0     0  0  0  0  0  0999 V2000
    8.2575    4.0706    3.8523 C   0  0  0  0  0  0  0  0  0  0  0  0
    7.9919    2.8401    4.4250 C   0  0  0  0  0  0  0  0  0  0  0  0
    6.6875    2.4099    4.5670 C   0  0  0  0  0  0  0  0  0  0  0  0
    5.6410    3.2149    4.1331 C   0  0  0  0  0  0  0  0  0  0  0  0
    5.9120    4.4480    3.5524 C   0  0  0  0  0  0  0  0  0  0  0  0
    7.2186    4.8745    3.4197 C   0  0  0  0  0  0  0  0  0  0  0  0
    3.9749    2.6701    4.3122 S   0  0  0  0  0  0  0  0  0  0  0  0
    2.9923    4.0278    3.6181 C   0  0  0  0  0  0  0  0  0  0  0  0
    1.5275    3.6860    3.7103 C   0  0  0  0  0  0  0  0  0  0  0  0
    1.1806    2.6306    4.1962 O   0  0  0  0  0  0  0  0  0  0  0  0
    0.6030    4.5533    3.2526 N   0  0  0  0  0  0  0  0  0  0  0  0
   -0.7381    4.2889    3.4308 C   0  0  0  0  0  0  0  0  0  0  0  0
   -1.3565    4.6269    4.5993 C   0  0  0  0  0  0  0  0  0  0  0  0
   -2.7255    4.3449    4.7539 C   0  0  0  0  0  0  0  0  0  0  0  0
   -3.2992    4.6381    5.7885 O   0  0  0  0  0  0  0  0  0  0  0  0
   -3.3990    3.7487    3.7502 N   0  0  0  0  0  0  0  0  0  0  0  0
   -4.3717    3.5434    3.8588 H   0  0  0  0  0  0  0  0  0  0  0  0
   -2.7731    3.4275    2.6033 C   0  0  0  0  0  0  0  0  0  0  0  0
   -3.3998    2.8947    1.7080 O   0  0  0  0  0  0  0  0  0  0  0  0
   -1.4627    3.6827    2.4342 N   0  0  0  0  0  0  0  0  0  0  0  0
   -0.8064    3.3170    1.1765 C   0  0  0  0  0  0  0  0  0  0  0  0
   -0.9232    1.8068    0.9606 C   0  0  0  0  0  0  0  0  0  0  0  0
   -0.2378    1.4249   -0.3529 C   0  0  0  0  0  0  0  0  0  0  0  0
   -0.9128    2.1596   -1.5129 C   0  0  0  0  0  0  0  0  0  0  0  0
   -0.7960    3.6698   -1.2970 C   0  0  0  0  0  0  0  0  0  0  0  0
   -1.4814    4.0517    0.0165 C   0  0  0  0  0  0  0  0  0  0  0  0
    9.2787    4.4046    3.7428 H   0  0  0  0  0  0  0  0  0  0  0  0
    8.8056    2.2150    4.7620 H   0  0  0  0  0  0  0  0  0  0  0  0
    6.4808    1.4489    5.0143 H   0  0  0  0  0  0  0  0  0  0  0  0
    5.1015    5.0743    3.2100 H   0  0  0  0  0  0  0  0  0  0  0  0
    7.4298    5.8350    2.9733 H   0  0  0  0  0  0  0  0  0  0  0  0
    3.2655    4.1770    2.5735 H   0  0  0  0  0  0  0  0  0  0  0  0
    3.1881    4.9417    4.1790 H   0  0  0  0  0  0  0  0  0  0  0  0
    0.8813    5.3636    2.7977 H   0  0  0  0  0  0  0  0  0  0  0  0
   -0.8026    5.1046    5.3939 H   0  0  0  0  0  0  0  0  0  0  0  0
    0.2460    3.5973    1.2209 H   0  0  0  0  0  0  0  0  0  0  0  0
   -1.9756    1.5264    0.9162 H   0  0  0  0  0  0  0  0  0  0  0  0
   -0.4423    1.2834    1.7869 H   0  0  0  0  0  0  0  0  0  0  0  0
   -0.3210    0.3490   -0.5067 H   0  0  0  0  0  0  0  0  0  0  0  0
    0.8146    1.7053   -0.3085 H   0  0  0  0  0  0  0  0  0  0  0  0
   -0.4245    1.8875   -2.4486 H   0  0  0  0  0  0  0  0  0  0  0  0
   -1.9652    1.8792   -1.5573 H   0  0  0  0  0  0  0  0  0  0  0  0
    0.2564    3.9501   -1.2525 H   0  0  0  0  0  0  0  0  0  0  0  0
   -1.2769    4.1932   -2.1233 H   0  0  0  0  0  0  0  0  0  0  0  0
   -1.3982    5.1276    0.1703 H   0  0  0  0  0  0  0  0  0  0  0  0
   -2.5338    3.7713   -0.0279 H   0  0  0  0  0  0  0  0  0  0  0  0
  1  6  2  0  0  0  0
  1  2  1  0  0  0  0
  1 27  1  0  0  0  0
  2  3  2  0  0  0  0
  2 28  1  0  0  0  0
  3  4  1  0  0  0  0
  3 29  1  0  0  0  0
  4  5  2  0  0  0  0
  4  7  1  0  0  0  0
  5  6  1  0  0  0  0
  5 30  1  0  0  0  0
  6 31  1  0  0  0  0
  7  8  1  0  0  0  0
  8  9  1  0  0  0  0
  8 32  1  0  0  0  0
  8 33  1  0  0  0  0
  9 10  2  0  0  0  0
  9 11  1  0  0  0  0
 11 12  1  0  0  0  0
 11 34  1  0  0  0  0
 12 20  1  0  0  0  0
 12 13  2  0  0  0  0
 13 14  1  0  0  0  0
 13 35  1  0  0  0  0
 14 15  2  0  0  0  0
 14 16  1  0  0  0  0
 16 17  1  0  0  0  0
 16 18  1  0  0  0  0
 18 19  2  0  0  0  0
 18 20  1  0  0  0  0
 20 21  1  0  0  0  0
 21 26  1  0  0  0  0
 21 22  1  0  0  0  0
 21 36  1  0  0  0  0
 22 23  1  0  0  0  0
 22 37  1  0  0  0  0
 22 38  1  0  0  0  0
 23 24  1  0  0  0  0
 23 39  1  0  0  0  0
 23 40  1  0  0  0  0
 24 25  1  0  0  0  0
 24 41  1  0  0  0  0
 24 42  1  0  0  0  0
 25 26  1  0  0  0  0
 25 43  1  0  0  0  0
 25 44  1  0  0  0  0
 26 45  1  0  0  0  0
 26 46  1  0  0  0  0
M  END
$$$$
ZINC01287224
  -OEChem-08230709453D

 47 49  0     0  0  0  0  0  0999 V2000
    0.1721    9.8525   -2.3520 C   0  0  0  0  0  0  0  0  0  0  0  0
    0.2600   11.1800   -2.7230 C   0  0  0  0  0  0  0  0  0  0  0  0
    0.0690   11.5445   -4.0451 C   0  0  0  0  0  0  0  0  0  0  0  0
   -0.2052   10.5790   -4.9989 C   0  0  0  0  0  0  0  0  0  0  0  0
   -0.2889    9.2497   -4.6333 C   0  0  0  0  0  0  0  0  0  0  0  0
   -0.0977    8.8818   -3.3079 C   0  0  0  0  0  0  0  0  0  0  0  0
   -0.1823    7.5368   -2.9354 N   0  0  0  0  0  0  0  0  0  0  0  0
    0.0196    7.1499   -1.5369 C   0  0  0  0  0  0  0  0  0  0  0  0
   -0.1236    5.6557   -1.4033 C   0  0  0  0  0  0  0  0  0  0  0  0
   -0.3699    4.9806   -2.3799 O   0  0  0  0  0  0  0  0  0  0  0  0
    0.0222    5.0698   -0.1983 N   0  0  0  0  0  0  0  0  0  0  0  0
   -0.0062    3.6958   -0.0922 C   0  0  0  0  0  0  0  0  0  0  0  0
   -1.1967    3.0391    0.0242 C   0  0  0  0  0  0  0  0  0  0  0  0
   -1.1961    1.6366    0.1248 C   0  0  0  0  0  0  0  0  0  0  0  0
   -2.2476    1.0282    0.2242 O   0  0  0  0  0  0  0  0  0  0  0  0
   -0.0249    0.9698    0.1151 N   0  0  0  0  0  0  0  0  0  0  0  0
   -0.0210   -0.0271    0.1940 H   0  0  0  0  0  0  0  0  0  0  0  0
    1.1391    1.6347    0.0001 C   0  0  0  0  0  0  0  0  0  0  0  0
    2.1846    1.0142   -0.0113 O   0  0  0  0  0  0  0  0  0  0  0  0
    1.1635    2.9762   -0.1030 N   0  0  0  0  0  0  0  0  0  0  0  0
    2.4459    3.6735   -0.2270 C   0  0  0  0  0  0  0  0  0  0  0  0
    3.1688    3.1914   -1.4864 C   0  0  0  0  0  0  0  0  0  0  0  0
    4.5082    3.9196   -1.6159 C   0  0  0  0  0  0  0  0  0  0  0  0
    5.3708    3.6230   -0.3876 C   0  0  0  0  0  0  0  0  0  0  0  0
    4.6479    4.1051    0.8718 C   0  0  0  0  0  0  0  0  0  0  0  0
    3.3086    3.3769    1.0013 C   0  0  0  0  0  0  0  0  0  0  0  0
    0.1508   12.8441   -4.4050 F   0  0  0  0  0  0  0  0  0  0  0  0
    0.3170    9.5691   -1.3199 H   0  0  0  0  0  0  0  0  0  0  0  0
    0.4741   11.9347   -1.9808 H   0  0  0  0  0  0  0  0  0  0  0  0
   -0.3535   10.8655   -6.0296 H   0  0  0  0  0  0  0  0  0  0  0  0
   -0.5024    8.4969   -5.3777 H   0  0  0  0  0  0  0  0  0  0  0  0
   -0.3747    6.8598   -3.6029 H   0  0  0  0  0  0  0  0  0  0  0  0
   -0.7250    7.6435   -0.9122 H   0  0  0  0  0  0  0  0  0  0  0  0
    1.0178    7.4493   -1.2175 H   0  0  0  0  0  0  0  0  0  0  0  0
    0.1471    5.6150    0.5941 H   0  0  0  0  0  0  0  0  0  0  0  0
   -2.1264    3.5886    0.0345 H   0  0  0  0  0  0  0  0  0  0  0  0
    2.2705    4.7470   -0.2972 H   0  0  0  0  0  0  0  0  0  0  0  0
    3.3442    2.1179   -1.4162 H   0  0  0  0  0  0  0  0  0  0  0  0
    2.5543    3.4027   -2.3614 H   0  0  0  0  0  0  0  0  0  0  0  0
    4.3328    4.9931   -1.6861 H   0  0  0  0  0  0  0  0  0  0  0  0
    5.0232    3.5762   -2.5131 H   0  0  0  0  0  0  0  0  0  0  0  0
    6.3250    4.1418   -0.4799 H   0  0  0  0  0  0  0  0  0  0  0  0
    5.5462    2.5495   -0.3174 H   0  0  0  0  0  0  0  0  0  0  0  0
    4.4725    5.1786    0.8016 H   0  0  0  0  0  0  0  0  0  0  0  0
    5.2625    3.8938    1.7468 H   0  0  0  0  0  0  0  0  0  0  0  0
    2.7936    3.7203    1.8985 H   0  0  0  0  0  0  0  0  0  0  0  0
    3.4840    2.3034    1.0715 H   0  0  0  0  0  0  0  0  0  0  0  0
  1  6  2  0  0  0  0
  1  2  1  0  0  0  0
  1 28  1  0  0  0  0
  2  3  2  0  0  0  0
  2 29  1  0  0  0  0
  3  4  1  0  0  0  0
  3 27  1  0  0  0  0
  4  5  2  0  0  0  0
  4 30  1  0  0  0  0
  5  6  1  0  0  0  0
  5 31  1  0  0  0  0
  6  7  1  0  0  0  0
  7  8  1  0  0  0  0
  7 32  1  0  0  0  0
  8  9  1  0  0  0  0
  8 33  1  0  0  0  0
  8 34  1  0  0  0  0
  9 10  2  0  0  0  0
  9 11  1  0  0  0  0
 11 12  1  0  0  0  0
 11 35  1  0  0  0  0
 12 20  1  0  0  0  0
 12 13  2  0  0  0  0
 13 14  1  0  0  0  0
 13 36  1  0  0  0  0
 14 15  2  0  0  0  0
 14 16  1  0  0  0  0
 16 17  1  0  0  0  0
 16 18  1  0  0  0  0
 18 19  2  0  0  0  0
 18 20  1  0  0  0  0
 20 21  1  0  0  0  0
 21 26  1  0  0  0  0
 21 22  1  0  0  0  0
 21 37  1  0  0  0  0
 22 23  1  0  0  0  0
 22 38  1  0  0  0  0
 22 39  1  0  0  0  0
 23 24  1  0  0  0  0
 23 40  1  0  0  0  0
 23 41  1  0  0  0  0
 24 25  1  0  0  0  0
 24 42  1  0  0  0  0
 24 43  1  0  0  0  0
 25 26  1  0  0  0  0
 25 44  1  0  0  0  0
 25 45  1  0  0  0  0
 26 46  1  0  0  0  0
 26 47  1  0  0  0  0
M  END
$$$$
ZINC01315272
  -OEChem-08230709453D

 45 47  0     0  0  0  0  0  0999 V2000
    8.0188   -2.3456    1.1551 C   0  0  0  0  0  0  0  0  0  0  0  0
    6.7477   -1.5069    1.3025 C   0  0  0  0  0  0  0  0  0  0  0  0
    6.2314   -1.1154   -0.0835 C   0  0  0  0  0  0  0  0  0  0  0  0
    4.9794   -0.2893    0.0617 C   0  0  0  0  0  0  0  0  0  0  0  0
    3.7443   -0.8958   -0.0106 C   0  0  0  0  0  0  0  0  0  0  0  0
    2.5839   -0.1324    0.1236 C   0  0  0  0  0  0  0  0  0  0  0  0
    2.6805    1.2506    0.3258 C   0  0  0  0  0  0  0  0  0  0  0  0
    3.9261    1.8491    0.4017 C   0  0  0  0  0  0  0  0  0  0  0  0
    5.0742    1.0819    0.2676 C   0  0  0  0  0  0  0  0  0  0  0  0
    6.2949    1.6729    0.3373 O   0  0  0  0  0  0  0  0  0  0  0  0
    6.3205    3.0857    0.5506 C   0  0  0  0  0  0  0  0  0  0  0  0
    1.5558    2.0006    0.4517 O   0  0  0  0  0  0  0  0  0  0  0  0
    1.2569   -0.7799    0.0466 C   0  0  0  0  0  0  0  0  0  0  0  0
    0.6105   -0.9487   -1.1970 C   0  0  0  0  0  0  0  0  0  0  0  0
   -0.6448   -1.5615   -1.2097 C   0  0  0  0  0  0  0  0  0  0  0  0
   -1.1735   -1.9681   -0.0685 N   0  0  0  0  0  0  0  0  0  0  0  0
   -0.5385   -1.7938    1.0825 C   0  0  0  0  0  0  0  0  0  0  0  0
    0.6498   -1.2140    1.1484 N   0  0  0  0  0  0  0  0  0  0  0  0
   -1.1365   -2.2308    2.2506 N   0  0  0  0  0  0  0  0  0  0  0  0
    1.2409   -0.4850   -2.4487 C   0  0  0  0  0  0  0  0  0  0  0  0
    1.3855   -1.1203   -3.6042 N   0  0  0  0  0  0  0  0  0  0  0  0
    1.9753   -0.5466   -4.6274 C   0  0  0  0  0  0  0  0  0  0  0  0
    2.4613    0.7168   -4.5082 C   0  0  0  0  0  0  0  0  0  0  0  0
    2.0222    1.0814   -2.8133 S   0  0  0  0  0  0  0  0  0  0  0  0
    2.1196   -1.2908   -5.9298 C   0  0  0  0  0  0  0  0  0  0  0  0
    8.7797   -1.7637    0.6350 H   0  0  0  0  0  0  0  0  0  0  0  0
    8.3866   -2.6245    2.1426 H   0  0  0  0  0  0  0  0  0  0  0  0
    7.7957   -3.2460    0.5828 H   0  0  0  0  0  0  0  0  0  0  0  0
    6.9708   -0.6064    1.8748 H   0  0  0  0  0  0  0  0  0  0  0  0
    5.9868   -2.0888    1.8227 H   0  0  0  0  0  0  0  0  0  0  0  0
    6.0083   -2.0159   -0.6558 H   0  0  0  0  0  0  0  0  0  0  0  0
    6.9923   -0.5335   -0.6037 H   0  0  0  0  0  0  0  0  0  0  0  0
    3.6743   -1.9614   -0.1714 H   0  0  0  0  0  0  0  0  0  0  0  0
    4.0043    2.9145    0.5609 H   0  0  0  0  0  0  0  0  0  0  0  0
    5.8275    3.3196    1.4942 H   0  0  0  0  0  0  0  0  0  0  0  0
    7.3544    3.4291    0.5859 H   0  0  0  0  0  0  0  0  0  0  0  0
    5.7991    3.5859   -0.2655 H   0  0  0  0  0  0  0  0  0  0  0  0
    1.2876    2.1568    1.3676 H   0  0  0  0  0  0  0  0  0  0  0  0
   -1.1743   -1.7053   -2.1400 H   0  0  0  0  0  0  0  0  0  0  0  0
   -0.6854   -2.1105    3.1009 H   0  0  0  0  0  0  0  0  0  0  0  0
   -2.0070   -2.6576    2.2196 H   0  0  0  0  0  0  0  0  0  0  0  0
    2.9718    1.3306   -5.2355 H   0  0  0  0  0  0  0  0  0  0  0  0
    3.0569   -1.8472   -5.9285 H   0  0  0  0  0  0  0  0  0  0  0  0
    1.2861   -1.9834   -6.0468 H   0  0  0  0  0  0  0  0  0  0  0  0
    2.1201   -0.5801   -6.7563 H   0  0  0  0  0  0  0  0  0  0  0  0
  1  2  1  0  0  0  0
  1 26  1  0  0  0  0
  1 27  1  0  0  0  0
  1 28  1  0  0  0  0
  2  3  1  0  0  0  0
  2 29  1  0  0  0  0
  2 30  1  0  0  0  0
  3  4  1  0  0  0  0
  3 31  1  0  0  0  0
  3 32  1  0  0  0  0
  4  9  2  0  0  0  0
  4  5  1  0  0  0  0
  5  6  2  0  0  0  0
  5 33  1  0  0  0  0
  6  7  1  0  0  0  0
  6 13  1  0  0  0  0
  7  8  2  0  0  0  0
  7 12  1  0  0  0  0
  8  9  1  0  0  0  0
  8 34  1  0  0  0  0
  9 10  1  0  0  0  0
 10 11  1  0  0  0  0
 11 35  1  0  0  0  0
 11 36  1  0  0  0  0
 11 37  1  0  0  0  0
 12 38  1  0  0  0  0
 13 18  2  0  0  0  0
 13 14  1  0  0  0  0
 14 15  2  0  0  0  0
 14 20  1  0  0  0  0
 15 16  1  0  0  0  0
 15 39  1  0  0  0  0
 16 17  2  0  0  0  0
 17 18  1  0  0  0  0
 17 19  1  0  0  0  0
 19 40  1  0  0  0  0
 19 41  1  0  0  0  0
 20 24  1  0  0  0  0
 20 21  2  0  0  0  0
 21 22  1  0  0  0  0
 22 23  2  0  0  0  0
 22 25  1  0  0  0  0
 23 24  1  0  0  0  0
 23 42  1  0  0  0  0
 25 43  1  0  0  0  0
 25 44  1  0  0  0  0
 25 45  1  0  0  0  0
M  END
$$$$
ZINC01331337
  -OEChem-08230709453D

 42 44  0     0  0  0  0  0  0999 V2000
   -9.7018   -2.1267    1.4708 C   0  0  0  0  0  0  0  0  0  0  0  0
   -9.3691   -1.9469   -0.0117 C   0  0  0  0  0  0  0  0  0  0  0  0
   -8.6328   -0.6467   -0.2072 C   0  0  0  0  0  0  0  0  0  0  0  0
   -9.3107    0.5036   -0.4591 C   0  0  0  0  0  0  0  0  0  0  0  0
   -8.6579    1.6579   -0.6332 N   0  0  0  0  0  0  0  0  0  0  0  0
   -7.3478    1.7332   -0.5697 C   0  0  0  0  0  0  0  0  0  0  0  0
   -6.5964    0.6215   -0.3150 N   0  0  0  0  0  0  0  0  0  0  0  0
   -7.2234   -0.5977   -0.1331 C   0  0  0  0  0  0  0  0  0  0  0  0
   -6.2780   -1.4856    0.0867 N   0  0  0  0  0  0  0  0  0  0  0  0
   -5.1256   -0.9133    0.0496 N   0  0  0  0  0  0  0  0  0  0  0  0
   -5.2601    0.3702   -0.1950 C   0  0  0  0  0  0  0  0  0  0  0  0
   -3.9584    1.5495   -0.3346 S   0  0  0  0  0  0  0  0  0  0  0  0
   -2.4524    0.5746   -0.0658 C   0  0  0  0  0  0  0  0  0  0  0  0
   -1.2477    1.4751   -0.1598 C   0  0  0  0  0  0  0  0  0  0  0  0
   -1.3909    2.6580   -0.3860 O   0  0  0  0  0  0  0  0  0  0  0  0
   -0.0111    0.9658    0.0074 N   0  0  0  0  0  0  0  0  0  0  0  0
    1.0994    1.8170    0.0263 C   0  0  0  0  0  0  0  0  0  0  0  0
    2.3180    1.3823   -0.4783 C   0  0  0  0  0  0  0  0  0  0  0  0
    3.4105    2.2271   -0.4638 C   0  0  0  0  0  0  0  0  0  0  0  0
    3.2950    3.5002    0.0633 C   0  0  0  0  0  0  0  0  0  0  0  0
    2.0846    3.9339    0.5722 C   0  0  0  0  0  0  0  0  0  0  0  0
    0.9866    3.0962    0.5550 C   0  0  0  0  0  0  0  0  0  0  0  0
   -6.7271    2.9446   -0.7557 N   0  0  0  0  0  0  0  0  0  0  0  0
  -10.8151    0.4785   -0.5437 C   0  0  0  0  0  0  0  0  0  0  0  0
   -8.7792   -2.1407    2.0511 H   0  0  0  0  0  0  0  0  0  0  0  0
  -10.3289   -1.3002    1.8052 H   0  0  0  0  0  0  0  0  0  0  0  0
  -10.2343   -3.0672    1.6122 H   0  0  0  0  0  0  0  0  0  0  0  0
  -10.2916   -1.9329   -0.5920 H   0  0  0  0  0  0  0  0  0  0  0  0
   -8.7420   -2.7734   -0.3462 H   0  0  0  0  0  0  0  0  0  0  0  0
   -2.3837   -0.2047   -0.8248 H   0  0  0  0  0  0  0  0  0  0  0  0
   -2.4876    0.1168    0.9228 H   0  0  0  0  0  0  0  0  0  0  0  0
    0.1095    0.0089    0.1105 H   0  0  0  0  0  0  0  0  0  0  0  0
    2.4100    0.3864   -0.8857 H   0  0  0  0  0  0  0  0  0  0  0  0
    4.3573    1.8913   -0.8604 H   0  0  0  0  0  0  0  0  0  0  0  0
    4.1521    4.1572    0.0779 H   0  0  0  0  0  0  0  0  0  0  0  0
    1.9975    4.9288    0.9831 H   0  0  0  0  0  0  0  0  0  0  0  0
    0.0415    3.4355    0.9525 H   0  0  0  0  0  0  0  0  0  0  0  0
   -7.2559    3.7383   -0.9328 H   0  0  0  0  0  0  0  0  0  0  0  0
   -5.7602    3.0063   -0.7100 H   0  0  0  0  0  0  0  0  0  0  0  0
  -11.2377    0.6580    0.4448 H   0  0  0  0  0  0  0  0  0  0  0  0
  -11.1534    1.2548   -1.2300 H   0  0  0  0  0  0  0  0  0  0  0  0
  -11.1423   -0.4956   -0.9073 H   0  0  0  0  0  0  0  0  0  0  0  0
  1  2  1  0  0  0  0
  1 25  1  0  0  0  0
  1 26  1  0  0  0  0
  1 27  1  0  0  0  0
  2  3  1  0  0  0  0
  2 28  1  0  0  0  0
  2 29  1  0  0  0  0
  3  8  1  0  0  0  0
  3  4  2  0  0  0  0
  4  5  1  0  0  0  0
  4 24  1  0  0  0  0
  5  6  2  0  0  0  0
  6  7  1  0  0  0  0
  6 23  1  0  0  0  0
  7 11  1  0  0  0  0
  7  8  1  0  0  0  0
  8  9  2  0  0  0  0
  9 10  1  0  0  0  0
 10 11  2  0  0  0  0
 11 12  1  0  0  0  0
 12 13  1  0  0  0  0
 13 14  1  0  0  0  0
 13 30  1  0  0  0  0
 13 31  1  0  0  0  0
 14 15  2  0  0  0  0
 14 16  1  0  0  0  0
 16 17  1  0  0  0  0
 16 32  1  0  0  0  0
 17 22  2  0  0  0  0
 17 18  1  0  0  0  0
 18 19  2  0  0  0  0
 18 33  1  0  0  0  0
 19 20  1  0  0  0  0
 19 34  1  0  0  0  0
 20 21  2  0  0  0  0
 20 35  1  0  0  0  0
 21 22  1  0  0  0  0
 21 36  1  0  0  0  0
 22 37  1  0  0  0  0
 23 38  1  0  0  0  0
 23 39  1  0  0  0  0
 24 40  1  0  0  0  0
 24 41  1  0  0  0  0
 24 42  1  0  0  0  0
M  END
$$$$
ZINC01410375
  -OEChem-08230709453D

 44 46  0     0  0  0  0  0  0999 V2000
   -7.5656    4.8852   -1.5738 C   0  0  0  0  0  0  0  0  0  0  0  0
   -7.6233    3.3948   -1.2331 C   0  0  0  0  0  0  0  0  0  0  0  0
   -6.2747    2.8858   -1.0580 O   0  0  0  0  0  0  0  0  0  0  0  0
   -6.1488    1.5793   -0.7518 C   0  0  0  0  0  0  0  0  0  0  0  0
   -7.1390    0.8845   -0.6343 O   0  0  0  0  0  0  0  0  0  0  0  0
   -4.8109    0.9936   -0.5594 C   0  0  0  0  0  0  0  0  0  0  0  0
   -4.6785   -0.3626   -0.2415 C   0  0  0  0  0  0  0  0  0  0  0  0
   -3.4368   -0.9028   -0.0642 C   0  0  0  0  0  0  0  0  0  0  0  0
   -2.3024   -0.1051   -0.2002 C   0  0  0  0  0  0  0  0  0  0  0  0
   -2.4311    1.2470   -0.5115 C   0  0  0  0  0  0  0  0  0  0  0  0
   -3.6699    1.7921   -0.6948 C   0  0  0  0  0  0  0  0  0  0  0  0
   -1.0417   -0.6571   -0.0194 N   0  0  0  0  0  0  0  0  0  0  0  0
    0.1051    0.1068   -0.2914 C   0  0  0  0  0  0  0  0  0  0  0  0
    1.0385    0.3168    0.6573 C   0  0  0  0  0  0  0  0  0  0  0  0
    2.2289    1.3187   -0.2163 S   0  0  0  0  0  0  0  0  0  0  0  0
    1.4217    1.3884   -1.7499 C   0  0  0  0  0  0  0  0  0  0  0  0
    1.7728    1.9526   -2.7714 O   0  0  0  0  0  0  0  0  0  0  0  0
    0.3056    0.6593   -1.5276 N   0  0  0  0  0  0  0  0  0  0  0  0
   -0.6081    0.4714   -2.5255 N   0  0  0  0  0  0  0  0  0  0  0  0
    1.0674   -0.1361    1.9879 N   0  0  0  0  0  0  0  0  0  0  0  0
    0.9922   -1.6183    2.0475 C   0  0  0  0  0  0  0  0  0  0  0  0
    1.5545   -1.9455    3.4536 C   0  0  0  0  0  0  0  0  0  0  0  0
    2.6881   -0.9080    3.6227 C   0  0  0  0  0  0  0  0  0  0  0  0
    2.3410    0.2298    2.6447 C   0  0  0  0  0  0  0  0  0  0  0  0
   -7.0761    5.4246   -0.7629 H   0  0  0  0  0  0  0  0  0  0  0  0
   -7.0017    5.0256   -2.4960 H   0  0  0  0  0  0  0  0  0  0  0  0
   -8.5780    5.2673   -1.7053 H   0  0  0  0  0  0  0  0  0  0  0  0
   -8.1128    2.8554   -2.0440 H   0  0  0  0  0  0  0  0  0  0  0  0
   -8.1872    3.2544   -0.3109 H   0  0  0  0  0  0  0  0  0  0  0  0
   -5.5573   -0.9816   -0.1367 H   0  0  0  0  0  0  0  0  0  0  0  0
   -3.3339   -1.9496    0.1812 H   0  0  0  0  0  0  0  0  0  0  0  0
   -1.5502    1.8637   -0.6122 H   0  0  0  0  0  0  0  0  0  0  0  0
   -3.7689    2.8392   -0.9401 H   0  0  0  0  0  0  0  0  0  0  0  0
   -0.9527   -1.5705    0.2948 H   0  0  0  0  0  0  0  0  0  0  0  0
   -0.3627    1.0054   -3.3457 H   0  0  0  0  0  0  0  0  0  0  0  0
   -0.7049   -0.5082   -2.7474 H   0  0  0  0  0  0  0  0  0  0  0  0
   -0.0406   -1.9550    1.9583 H   0  0  0  0  0  0  0  0  0  0  0  0
    1.6125   -2.0665    1.2713 H   0  0  0  0  0  0  0  0  0  0  0  0
    1.9525   -2.9598    3.4835 H   0  0  0  0  0  0  0  0  0  0  0  0
    0.7887   -1.8079    4.2169 H   0  0  0  0  0  0  0  0  0  0  0  0
    3.6489   -1.3514    3.3615 H   0  0  0  0  0  0  0  0  0  0  0  0
    2.7089   -0.5338    4.6463 H   0  0  0  0  0  0  0  0  0  0  0  0
    3.1285    0.3306    1.8978 H   0  0  0  0  0  0  0  0  0  0  0  0
    2.2227    1.1673    3.1881 H   0  0  0  0  0  0  0  0  0  0  0  0
  1  2  1  0  0  0  0
  1 25  1  0  0  0  0
  1 26  1  0  0  0  0
  1 27  1  0  0  0  0
  2  3  1  0  0  0  0
  2 28  1  0  0  0  0
  2 29  1  0  0  0  0
  3  4  1  0  0  0  0
  4  5  2  0  0  0  0
  4  6  1  0  0  0  0
  6 11  2  0  0  0  0
  6  7  1  0  0  0  0
  7  8  2  0  0  0  0
  7 30  1  0  0  0  0
  8  9  1  0  0  0  0
  8 31  1  0  0  0  0
  9 10  2  0  0  0  0
  9 12  1  0  0  0  0
 10 11  1  0  0  0  0
 10 32  1  0  0  0  0
 11 33  1  0  0  0  0
 12 13  1  0  0  0  0
 12 34  1  0  0  0  0
 13 18  1  0  0  0  0
 13 14  2  0  0  0  0
 14 15  1  0  0  0  0
 14 20  1  0  0  0  0
 15 16  1  0  0  0  0
 16 17  2  0  0  0  0
 16 18  1  0  0  0  0
 18 19  1  0  0  0  0
 19 35  1  0  0  0  0
 19 36  1  0  0  0  0
 20 24  1  0  0  0  0
 20 21  1  0  0  0  0
 21 22  1  0  0  0  0
 21 37  1  0  0  0  0
 21 38  1  0  0  0  0
 22 23  1  0  0  0  0
 22 39  1  0  0  0  0
 22 40  1  0  0  0  0
 23 24  1  0  0  0  0
 23 41  1  0  0  0  0
 23 42  1  0  0  0  0
 24 43  1  0  0  0  0
 24 44  1  0  0  0  0
M  END
$$$$
ZINC01415833
  -OEChem-08230709453D

 40 42  0     0  0  0  0  0  0999 V2000
    1.2828    9.9450    0.0457 C   0  0  0  0  0  0  0  0  0  0  0  0
   -0.2301    9.7169    0.0588 C   0  0  0  0  0  0  0  0  0  0  0  0
   -0.5047    8.2912    0.0532 O   0  0  0  0  0  0  0  0  0  0  0  0
   -1.8000    7.9173    0.0634 C   0  0  0  0  0  0  0  0  0  0  0  0
   -2.6758    8.7602    0.0766 O   0  0  0  0  0  0  0  0  0  0  0  0
   -2.1533    6.4898    0.0584 C   0  0  0  0  0  0  0  0  0  0  0  0
   -3.4673    6.0976    0.0687 C   0  0  0  0  0  0  0  0  0  0  0  0
   -3.3152    4.3679    0.0572 S   0  0  0  0  0  0  0  0  0  0  0  0
   -1.5320    4.2818    0.0397 C   0  0  0  0  0  0  0  0  0  0  0  0
   -1.2004    5.5559    0.0493 N   0  0  0  0  0  0  0  0  0  0  0  0
   -0.7077    3.1605    0.0258 N   0  0  0  0  0  0  0  0  0  0  0  0
   -1.1215    1.8615    0.0168 C   0  0  0  0  0  0  0  0  0  0  0  0
   -0.0126    1.0758    0.0080 C   0  0  0  0  0  0  0  0  0  0  0  0
    1.1139    1.9209    0.0017 C   0  0  0  0  0  0  0  0  0  0  0  0
    0.6929    3.1682    0.0125 N   0  0  0  0  0  0  0  0  0  0  0  0
    2.5309    1.4814   -0.0137 C   0  0  0  0  0  0  0  0  0  0  0  0
    2.8404    0.1224   -0.0177 C   0  0  0  0  0  0  0  0  0  0  0  0
    4.1585   -0.2831   -0.0365 C   0  0  0  0  0  0  0  0  0  0  0  0
    5.1765    0.6607   -0.0416 C   0  0  0  0  0  0  0  0  0  0  0  0
    4.8714    2.0150   -0.0324 C   0  0  0  0  0  0  0  0  0  0  0  0
    3.5552    2.4266   -0.0185 C   0  0  0  0  0  0  0  0  0  0  0  0
    6.4743    0.2582   -0.0553 O   0  0  0  0  0  0  0  0  0  0  0  0
    6.7166   -1.1501   -0.0643 C   0  0  0  0  0  0  0  0  0  0  0  0
   -2.4409    1.4199    0.0199 N   0  0  0  0  0  0  0  0  0  0  0  0
    1.7101    9.4962   -0.8510 H   0  0  0  0  0  0  0  0  0  0  0  0
    1.4889   11.0153    0.0500 H   0  0  0  0  0  0  0  0  0  0  0  0
    1.7271    9.4859    0.9288 H   0  0  0  0  0  0  0  0  0  0  0  0
   -0.6744   10.1761   -0.8243 H   0  0  0  0  0  0  0  0  0  0  0  0
   -0.6574   10.1657    0.9556 H   0  0  0  0  0  0  0  0  0  0  0  0
   -4.3607    6.7043    0.0807 H   0  0  0  0  0  0  0  0  0  0  0  0
    0.0021   -0.0041    0.0020 H   0  0  0  0  0  0  0  0  0  0  0  0
    2.0489   -0.6123   -0.0095 H   0  0  0  0  0  0  0  0  0  0  0  0
    4.3989   -1.3360   -0.0433 H   0  0  0  0  0  0  0  0  0  0  0  0
    5.6655    2.7470   -0.0364 H   0  0  0  0  0  0  0  0  0  0  0  0
    3.3184    3.4803   -0.0109 H   0  0  0  0  0  0  0  0  0  0  0  0
    6.2799   -1.5996    0.8276 H   0  0  0  0  0  0  0  0  0  0  0  0
    6.2638   -1.5911   -0.9523 H   0  0  0  0  0  0  0  0  0  0  0  0
    7.7910   -1.3338   -0.0749 H   0  0  0  0  0  0  0  0  0  0  0  0
   -2.6342    0.4694    0.0159 H   0  0  0  0  0  0  0  0  0  0  0  0
   -3.1674    2.0626    0.0260 H   0  0  0  0  0  0  0  0  0  0  0  0
  1  2  1  0  0  0  0
  1 25  1  0  0  0  0
  1 26  1  0  0  0  0
  1 27  1  0  0  0  0
  2  3  1  0  0  0  0
  2 28  1  0  0  0  0
  2 29  1  0  0  0  0
  3  4  1  0  0  0  0
  4  5  2  0  0  0  0
  4  6  1  0  0  0  0
  6 10  1  0  0  0  0
  6  7  2  0  0  0  0
  7  8  1  0  0  0  0
  7 30  1  0  0  0  0
  8  9  1  0  0  0  0
  9 10  2  0  0  0  0
  9 11  1  0  0  0  0
 11 15  1  0  0  0  0
 11 12  1  0  0  0  0
 12 13  2  0  0  0  0
 12 24  1  0  0  0  0
 13 14  1  0  0  0  0
 13 31  1  0  0  0  0
 14 15  2  0  0  0  0
 14 16  1  0  0  0  0
 16 21  2  0  0  0  0
 16 17  1  0  0  0  0
 17 18  2  0  0  0  0
 17 32  1  0  0  0  0
 18 19  1  0  0  0  0
 18 33  1  0  0  0  0
 19 20  2  0  0  0  0
 19 22  1  0  0  0  0
 20 21  1  0  0  0  0
 20 34  1  0  0  0  0
 21 35  1  0  0  0  0
 22 23  1  0  0  0  0
 23 36  1  0  0  0  0
 23 37  1  0  0  0  0
 23 38  1  0  0  0  0
 24 39  1  0  0  0  0
 24 40  1  0  0  0  0
M  END
$$$$
ZINC01422528
  -OEChem-08230709453D

 41 44  0     0  0  0  0  0  0999 V2000
   -5.4561   -1.7195    0.6157 C   0  0  0  0  0  0  0  0  0  0  0  0
   -4.0138   -1.3092    0.4654 C   0  0  0  0  0  0  0  0  0  0  0  0
   -3.0442   -2.2725    0.2339 C   0  0  0  0  0  0  0  0  0  0  0  0
   -1.7239   -1.9098    0.0949 C   0  0  0  0  0  0  0  0  0  0  0  0
   -1.3755   -0.5422    0.1926 C   0  0  0  0  0  0  0  0  0  0  0  0
   -0.0330    0.0546    0.0758 C   0  0  0  0  0  0  0  0  0  0  0  0
    0.0333    1.4404    0.2136 C   0  0  0  0  0  0  0  0  0  0  0  0
    1.2531    2.1244    0.1229 C   0  0  0  0  0  0  0  0  0  0  0  0
    1.3021    3.3369    0.2442 O   0  0  0  0  0  0  0  0  0  0  0  0
    2.3756    1.4022   -0.1048 N   0  0  0  0  0  0  0  0  0  0  0  0
    2.2789    0.0450   -0.2359 C   0  0  0  0  0  0  0  0  0  0  0  0
    1.1424   -0.5925   -0.1507 N   0  0  0  0  0  0  0  0  0  0  0  0
    3.5110   -0.7328   -0.4838 C   0  0  0  0  0  0  0  0  0  0  0  0
    4.5665   -0.1648   -1.1994 C   0  0  0  0  0  0  0  0  0  0  0  0
    5.7156   -0.8946   -1.4231 C   0  0  0  0  0  0  0  0  0  0  0  0
    5.8192   -2.1903   -0.9491 C   0  0  0  0  0  0  0  0  0  0  0  0
    4.7747   -2.7611   -0.2437 C   0  0  0  0  0  0  0  0  0  0  0  0
    3.6221   -2.0406   -0.0084 C   0  0  0  0  0  0  0  0  0  0  0  0
    3.5890    2.0220   -0.2026 N   0  0  0  0  0  0  0  0  0  0  0  0
   -1.6415    1.9463    0.4983 S   0  0  0  0  0  0  0  0  0  0  0  0
   -2.4316    0.3572    0.4293 C   0  0  0  0  0  0  0  0  0  0  0  0
   -3.6819   -0.0358    0.5553 N   0  0  0  0  0  0  0  0  0  0  0  0
   -0.6659   -2.9530   -0.1568 C   0  0  0  0  0  0  0  0  0  0  0  0
   -1.2744   -4.2449   -0.2117 O   0  0  0  0  0  0  0  0  0  0  0  0
   -0.3533   -5.3116   -0.4475 C   0  0  0  0  0  0  0  0  0  0  0  0
   -5.6679   -1.9250    1.6650 H   0  0  0  0  0  0  0  0  0  0  0  0
   -6.1014   -0.9137    0.2658 H   0  0  0  0  0  0  0  0  0  0  0  0
   -5.6421   -2.6165    0.0250 H   0  0  0  0  0  0  0  0  0  0  0  0
   -3.3263   -3.3125    0.1619 H   0  0  0  0  0  0  0  0  0  0  0  0
    4.4853    0.8451   -1.5735 H   0  0  0  0  0  0  0  0  0  0  0  0
    6.5347   -0.4548   -1.9728 H   0  0  0  0  0  0  0  0  0  0  0  0
    6.7196   -2.7587   -1.1303 H   0  0  0  0  0  0  0  0  0  0  0  0
    4.8619   -3.7731    0.1233 H   0  0  0  0  0  0  0  0  0  0  0  0
    2.8077   -2.4871    0.5427 H   0  0  0  0  0  0  0  0  0  0  0  0
    3.4864    3.0252   -0.1693 H   0  0  0  0  0  0  0  0  0  0  0  0
    4.2191    1.6989    0.5162 H   0  0  0  0  0  0  0  0  0  0  0  0
   -0.1687   -2.7451   -1.1043 H   0  0  0  0  0  0  0  0  0  0  0  0
    0.0662   -2.9302    0.6504 H   0  0  0  0  0  0  0  0  0  0  0  0
   -0.8930   -6.2582   -0.4751 H   0  0  0  0  0  0  0  0  0  0  0  0
    0.1504   -5.1526   -1.4010 H   0  0  0  0  0  0  0  0  0  0  0  0
    0.3853   -5.3378    0.3536 H   0  0  0  0  0  0  0  0  0  0  0  0
  1  2  1  0  0  0  0
  1 26  1  0  0  0  0
  1 27  1  0  0  0  0
  1 28  1  0  0  0  0
  2 22  2  0  0  0  0
  2  3  1  0  0  0  0
  3  4  2  0  0  0  0
  3 29  1  0  0  0  0
  4  5  1  0  0  0  0
  4 23  1  0  0  0  0
  5 21  2  0  0  0  0
  5  6  1  0  0  0  0
  6 12  1  0  0  0  0
  6  7  2  0  0  0  0
  7  8  1  0  0  0  0
  7 20  1  0  0  0  0
  8  9  2  0  0  0  0
  8 10  1  0  0  0  0
 10 11  1  0  0  0  0
 10 19  1  0  0  0  0
 11 12  2  0  0  0  0
 11 13  1  0  0  0  0
 13 18  2  0  0  0  0
 13 14  1  0  0  0  0
 14 15  2  0  0  0  0
 14 30  1  0  0  0  0
 15 16  1  0  0  0  0
 15 31  1  0  0  0  0
 16 17  2  0  0  0  0
 16 32  1  0  0  0  0
 17 18  1  0  0  0  0
 17 33  1  0  0  0  0
 18 34  1  0  0  0  0
 19 35  1  0  0  0  0
 19 36  1  0  0  0  0
 20 21  1  0  0  0  0
 21 22  1  0  0  0  0
 23 24  1  0  0  0  0
 23 37  1  0  0  0  0
 23 38  1  0  0  0  0
 24 25  1  0  0  0  0
 25 39  1  0  0  0  0
 25 40  1  0  0  0  0
 25 41  1  0  0  0  0
M  END
$$$$
ZINC01425931
  -OEChem-08230709453D

 42 44  0     0  0  0  0  0  0999 V2000
   -6.3029   -5.1042    2.5721 C   0  0  0  0  0  0  0  0  0  0  0  0
   -5.1195   -4.4044    2.7002 C   0  0  0  0  0  0  0  0  0  0  0  0
   -4.4351   -3.9863    1.5651 C   0  0  0  0  0  0  0  0  0  0  0  0
   -4.9479   -4.2696    0.3049 C   0  0  0  0  0  0  0  0  0  0  0  0
   -6.1290   -4.9748    0.1845 C   0  0  0  0  0  0  0  0  0  0  0  0
   -6.8075   -5.3888    1.3163 C   0  0  0  0  0  0  0  0  0  0  0  0
   -8.0766   -6.1387    1.1832 N   0  3  0  0  0  0  0  0  0  0  0  0
   -8.6752   -6.5043    2.1790 O   0  0  0  0  0  0  0  0  0  0  0  0
   -8.5223   -6.3901    0.0780 O   0  5  0  0  0  0  0  0  0  0  0  0
   -2.9245   -3.0931    1.7236 S   0  0  0  0  0  0  0  0  0  0  0  0
   -2.4207   -2.7756    0.0101 C   0  0  0  0  0  0  0  0  0  0  0  0
   -1.1242   -2.0074    0.0019 C   0  0  0  0  0  0  0  0  0  0  0  0
    0.0267   -2.6570   -0.0126 N   0  0  0  0  0  0  0  0  0  0  0  0
    1.1738   -1.9820   -0.0198 C   0  0  0  0  0  0  0  0  0  0  0  0
    1.1609   -0.6534   -0.0125 N   0  0  0  0  0  0  0  0  0  0  0  0
    0.0021   -0.0041    0.0020 C   0  0  0  0  0  0  0  0  0  0  0  0
   -1.1411   -0.6862    0.0148 N   0  0  0  0  0  0  0  0  0  0  0  0
   -0.0166    1.3757    0.0096 N   0  0  0  0  0  0  0  0  0  0  0  0
   -0.8053    1.8975   -1.1139 C   0  0  0  0  0  0  0  0  0  0  0  0
   -0.9255    3.4183   -0.9916 C   0  0  0  0  0  0  0  0  0  0  0  0
    0.4746    4.0380   -0.9952 C   0  0  0  0  0  0  0  0  0  0  0  0
    1.2910    3.4420    0.1550 C   0  0  0  0  0  0  0  0  0  0  0  0
    1.3470    1.9206   -0.0005 C   0  0  0  0  0  0  0  0  0  0  0  0
    2.3750   -2.6612   -0.0354 N   0  0  0  0  0  0  0  0  0  0  0  0
   -6.8353   -5.4293    3.4537 H   0  0  0  0  0  0  0  0  0  0  0  0
   -4.7260   -4.1824    3.6811 H   0  0  0  0  0  0  0  0  0  0  0  0
   -4.4210   -3.9424   -0.5793 H   0  0  0  0  0  0  0  0  0  0  0  0
   -6.5258   -5.1991   -0.7945 H   0  0  0  0  0  0  0  0  0  0  0  0
   -3.1918   -2.1924   -0.4932 H   0  0  0  0  0  0  0  0  0  0  0  0
   -2.2845   -3.7237   -0.5102 H   0  0  0  0  0  0  0  0  0  0  0  0
   -0.3107    1.6466   -2.0523 H   0  0  0  0  0  0  0  0  0  0  0  0
   -1.7999    1.4521   -1.0972 H   0  0  0  0  0  0  0  0  0  0  0  0
   -1.4323    3.6695   -0.0599 H   0  0  0  0  0  0  0  0  0  0  0  0
   -1.4979    3.8075   -1.8337 H   0  0  0  0  0  0  0  0  0  0  0  0
    0.3956    5.1173   -0.8648 H   0  0  0  0  0  0  0  0  0  0  0  0
    0.9672    3.8198   -1.9428 H   0  0  0  0  0  0  0  0  0  0  0  0
    0.8191    3.6936    1.1047 H   0  0  0  0  0  0  0  0  0  0  0  0
    2.3024    3.8477    0.1318 H   0  0  0  0  0  0  0  0  0  0  0  0
    1.9155    1.4919    0.8248 H   0  0  0  0  0  0  0  0  0  0  0  0
    1.8313    1.6697   -0.9442 H   0  0  0  0  0  0  0  0  0  0  0  0
    3.2106   -2.1686   -0.0410 H   0  0  0  0  0  0  0  0  0  0  0  0
    2.3837   -3.6311   -0.0407 H   0  0  0  0  0  0  0  0  0  0  0  0
  1  6  2  0  0  0  0
  1  2  1  0  0  0  0
  1 25  1  0  0  0  0
  2  3  2  0  0  0  0
  2 26  1  0  0  0  0
  3  4  1  0  0  0  0
  3 10  1  0  0  0  0
  4  5  2  0  0  0  0
  4 27  1  0  0  0  0
  5  6  1  0  0  0  0
  5 28  1  0  0  0  0
  6  7  1  0  0  0  0
  7  8  2  0  0  0  0
  7  9  1  0  0  0  0
 10 11  1  0  0  0  0
 11 12  1  0  0  0  0
 11 29  1  0  0  0  0
 11 30  1  0  0  0  0
 12 17  2  0  0  0  0
 12 13  1  0  0  0  0
 13 14  2  0  0  0  0
 14 15  1  0  0  0  0
 14 24  1  0  0  0  0
 15 16  2  0  0  0  0
 16 17  1  0  0  0  0
 16 18  1  0  0  0  0
 18 23  1  0  0  0  0
 18 19  1  0  0  0  0
 19 20  1  0  0  0  0
 19 31  1  0  0  0  0
 19 32  1  0  0  0  0
 20 21  1  0  0  0  0
 20 33  1  0  0  0  0
 20 34  1  0  0  0  0
 21 22  1  0  0  0  0
 21 35  1  0  0  0  0
 21 36  1  0  0  0  0
 22 23  1  0  0  0  0
 22 37  1  0  0  0  0
 22 38  1  0  0  0  0
 23 39  1  0  0  0  0
 23 40  1  0  0  0  0
 24 41  1  0  0  0  0
 24 42  1  0  0  0  0
M  CHG  2   7   1   9  -1
M  END
$$$$
ZINC01429572
  -OEChem-08230709453D

 39 41  0     1  0  0  0  0  0999 V2000
   -0.7288    1.5792    1.2668 C   0  0  0  0  0  0  0  0  0  0  0  0
   -0.0127    1.0858    0.0080 C   0  0  0  0  0  0  0  0  0  0  0  0
   -0.7150    1.5668   -1.1683 O   0  0  0  0  0  0  0  0  0  0  0  0
   -0.2093    1.2180   -2.3683 C   0  0  0  0  0  0  0  0  0  0  0  0
    0.7915    0.5305   -2.4296 O   0  0  0  0  0  0  0  0  0  0  0  0
   -0.8675    1.6687   -3.6019 C   0  0  0  0  0  0  0  0  0  0  0  0
   -1.8573    0.9145   -4.2011 C   0  0  0  0  0  0  0  0  0  0  0  0
   -2.2963    1.8586   -5.5873 S   0  0  0  0  0  0  0  0  0  0  0  0
   -1.1886    3.2173   -5.3673 C   0  0  0  0  0  0  0  0  0  0  0  0
   -0.5056    2.9239   -4.2306 C   0  0  0  0  0  0  0  0  0  0  0  0
    0.4509    3.7978   -3.7690 O   0  0  0  0  0  0  0  0  0  0  0  0
    0.4821    5.0381   -4.2833 C   0  0  0  0  0  0  0  0  0  0  0  0
   -0.1660    5.4215   -5.4071 C   0  0  0  0  0  0  0  0  0  0  0  0
   -1.0027    4.4426   -6.2031 C   0  0  1  0  0  0  0  0  0  0  0  0
   -1.9719    4.8907   -6.4221 H   0  0  0  0  0  0  0  0  0  0  0  0
   -0.3038    4.0823   -7.4887 C   0  0  0  0  0  0  0  0  0  0  0  0
   -0.9157    4.3181   -8.7105 C   0  0  0  0  0  0  0  0  0  0  0  0
   -0.2353    3.9705   -9.8672 C   0  0  0  0  0  0  0  0  0  0  0  0
    1.0215    3.4044   -9.7650 C   0  0  0  0  0  0  0  0  0  0  0  0
    1.5728    3.1946   -8.5857 N   0  0  0  0  0  0  0  0  0  0  0  0
    0.9573    3.5179   -7.4650 C   0  0  0  0  0  0  0  0  0  0  0  0
   -0.0512    6.7763   -5.8563 C   0  0  0  0  0  0  0  0  0  0  0  0
    0.0399    7.8511   -6.2127 N   0  0  0  0  0  0  0  0  0  0  0  0
    1.2251    5.9841   -3.6218 N   0  0  0  0  0  0  0  0  0  0  0  0
   -2.4209   -0.4105   -3.7563 C   0  0  0  0  0  0  0  0  0  0  0  0
   -1.7514    1.2020    1.2746 H   0  0  0  0  0  0  0  0  0  0  0  0
   -0.2017    1.2182    2.1499 H   0  0  0  0  0  0  0  0  0  0  0  0
   -0.7436    2.6691    1.2728 H   0  0  0  0  0  0  0  0  0  0  0  0
    0.0021   -0.0041    0.0020 H   0  0  0  0  0  0  0  0  0  0  0  0
    1.0099    1.4631    0.0003 H   0  0  0  0  0  0  0  0  0  0  0  0
   -1.8992    4.7618   -8.7598 H   0  0  0  0  0  0  0  0  0  0  0  0
   -0.6815    4.1402  -10.8360 H   0  0  0  0  0  0  0  0  0  0  0  0
    1.5584    3.1310  -10.6613 H   0  0  0  0  0  0  0  0  0  0  0  0
    1.4427    3.3355   -6.5176 H   0  0  0  0  0  0  0  0  0  0  0  0
    1.7040    5.7459   -2.8125 H   0  0  0  0  0  0  0  0  0  0  0  0
    1.2713    6.8907   -3.9636 H   0  0  0  0  0  0  0  0  0  0  0  0
   -3.2676   -0.2403   -3.0913 H   0  0  0  0  0  0  0  0  0  0  0  0
   -2.7513   -0.9757   -4.6278 H   0  0  0  0  0  0  0  0  0  0  0  0
   -1.6515   -0.9737   -3.2282 H   0  0  0  0  0  0  0  0  0  0  0  0
  1  2  1  0  0  0  0
  1 26  1  0  0  0  0
  1 27  1  0  0  0  0
  1 28  1  0  0  0  0
  2  3  1  0  0  0  0
  2 29  1  0  0  0  0
  2 30  1  0  0  0  0
  3  4  1  0  0  0  0
  4  5  2  0  0  0  0
  4  6  1  0  0  0  0
  6 10  1  0  0  0  0
  6  7  2  0  0  0  0
  7  8  1  0  0  0  0
  7 25  1  0  0  0  0
  8  9  1  0  0  0  0
  9 14  1  0  0  0  0
  9 10  2  0  0  0  0
 10 11  1  0  0  0  0
 11 12  1  0  0  0  0
 12 13  2  0  0  0  0
 12 24  1  0  0  0  0
 13 14  1  0  0  0  0
 13 22  1  0  0  0  0
 14 15  1  0  0  0  0
 14 16  1  0  0  0  0
 16 21  2  0  0  0  0
 16 17  1  0  0  0  0
 17 18  2  0  0  0  0
 17 31  1  0  0  0  0
 18 19  1  0  0  0  0
 18 32  1  0  0  0  0
 19 20  2  0  0  0  0
 19 33  1  0  0  0  0
 20 21  1  0  0  0  0
 21 34  1  0  0  0  0
 22 23  3  0  0  0  0
 24 35  1  0  0  0  0
 24 36  1  0  0  0  0
 25 37  1  0  0  0  0
 25 38  1  0  0  0  0
 25 39  1  0  0  0  0
M  END
$$$$
ZINC01429633
  -OEChem-08230709453D

 43 46  0     1  0  0  0  0  0999 V2000
   -0.7288    1.5792    1.2668 C   0  0  0  0  0  0  0  0  0  0  0  0
   -0.0127    1.0858    0.0080 C   0  0  0  0  0  0  0  0  0  0  0  0
   -0.7150    1.5668   -1.1683 O   0  0  0  0  0  0  0  0  0  0  0  0
   -0.2093    1.2180   -2.3683 C   0  0  0  0  0  0  0  0  0  0  0  0
    0.7915    0.5305   -2.4296 O   0  0  0  0  0  0  0  0  0  0  0  0
   -0.8675    1.6687   -3.6019 C   0  0  0  0  0  0  0  0  0  0  0  0
   -0.5231    2.8647   -4.2005 C   0  0  0  0  0  0  0  0  0  0  0  0
   -1.5597    2.9310   -5.5886 S   0  0  0  0  0  0  0  0  0  0  0  0
   -2.4300    1.4097   -5.3653 C   0  0  0  0  0  0  0  0  0  0  0  0
   -1.9061    0.8768   -4.2312 C   0  0  0  0  0  0  0  0  0  0  0  0
   -2.3744   -0.3314   -3.7701 O   0  0  0  0  0  0  0  0  0  0  0  0
   -3.1238   -1.0809   -4.5951 C   0  0  0  0  0  0  0  0  0  0  0  0
   -3.6869   -0.6349   -5.7413 C   0  0  0  0  0  0  0  0  0  0  0  0
   -3.5068    0.7944   -6.1998 C   0  0  1  0  0  0  0  0  0  0  0  0
   -3.2150    0.8112   -7.2499 H   0  0  0  0  0  0  0  0  0  0  0  0
   -4.7936    1.5568   -6.0156 C   0  0  0  0  0  0  0  0  0  0  0  0
   -5.3640    1.6540   -4.7600 C   0  0  0  0  0  0  0  0  0  0  0  0
   -6.5441    2.3526   -4.5859 C   0  0  0  0  0  0  0  0  0  0  0  0
   -7.1581    2.9578   -5.6704 C   0  0  0  0  0  0  0  0  0  0  0  0
   -6.5835    2.8598   -6.9352 C   0  0  0  0  0  0  0  0  0  0  0  0
   -5.3981    2.1621   -7.1014 C   0  0  0  0  0  0  0  0  0  0  0  0
   -7.3702    3.5326   -7.8251 O   0  0  0  0  0  0  0  0  0  0  0  0
   -8.6409    3.6960   -7.1679 C   0  0  0  0  0  0  0  0  0  0  0  0
   -8.3047    3.6919   -5.7678 O   0  0  0  0  0  0  0  0  0  0  0  0
   -4.4684   -1.5341   -6.5359 C   0  0  0  0  0  0  0  0  0  0  0  0
   -5.0883   -2.2474   -7.1663 N   0  0  0  0  0  0  0  0  0  0  0  0
   -3.3330   -2.3932   -4.2506 N   0  0  0  0  0  0  0  0  0  0  0  0
    0.5077    3.8699   -3.7552 C   0  0  0  0  0  0  0  0  0  0  0  0
   -0.2017    1.2182    2.1499 H   0  0  0  0  0  0  0  0  0  0  0  0
   -0.7436    2.6691    1.2728 H   0  0  0  0  0  0  0  0  0  0  0  0
   -1.7514    1.2020    1.2746 H   0  0  0  0  0  0  0  0  0  0  0  0
    0.0021   -0.0041    0.0020 H   0  0  0  0  0  0  0  0  0  0  0  0
    1.0099    1.4631    0.0003 H   0  0  0  0  0  0  0  0  0  0  0  0
   -4.8864    1.1835   -3.9133 H   0  0  0  0  0  0  0  0  0  0  0  0
   -6.9875    2.4270   -3.6039 H   0  0  0  0  0  0  0  0  0  0  0  0
   -4.9480    2.0883   -8.0804 H   0  0  0  0  0  0  0  0  0  0  0  0
   -9.3044    2.8643   -7.4049 H   0  0  0  0  0  0  0  0  0  0  0  0
   -9.0984    4.6445   -7.4492 H   0  0  0  0  0  0  0  0  0  0  0  0
   -3.8689   -2.9652   -4.8220 H   0  0  0  0  0  0  0  0  0  0  0  0
   -2.9449   -2.7485   -3.4357 H   0  0  0  0  0  0  0  0  0  0  0  0
    1.4701    3.6274   -4.2058 H   0  0  0  0  0  0  0  0  0  0  0  0
    0.2010    4.8679   -4.0684 H   0  0  0  0  0  0  0  0  0  0  0  0
    0.5974    3.8414   -2.6693 H   0  0  0  0  0  0  0  0  0  0  0  0
  1  2  1  0  0  0  0
  1 29  1  0  0  0  0
  1 30  1  0  0  0  0
  1 31  1  0  0  0  0
  2  3  1  0  0  0  0
  2 32  1  0  0  0  0
  2 33  1  0  0  0  0
  3  4  1  0  0  0  0
  4  5  2  0  0  0  0
  4  6  1  0  0  0  0
  6 10  1  0  0  0  0
  6  7  2  0  0  0  0
  7  8  1  0  0  0  0
  7 28  1  0  0  0  0
  8  9  1  0  0  0  0
  9 14  1  0  0  0  0
  9 10  2  0  0  0  0
 10 11  1  0  0  0  0
 11 12  1  0  0  0  0
 12 13  2  0  0  0  0
 12 27  1  0  0  0  0
 13 14  1  0  0  0  0
 13 25  1  0  0  0  0
 14 15  1  0  0  0  0
 14 16  1  0  0  0  0
 16 21  2  0  0  0  0
 16 17  1  0  0  0  0
 17 18  2  0  0  0  0
 17 34  1  0  0  0  0
 18 19  1  0  0  0  0
 18 35  1  0  0  0  0
 19 24  1  0  0  0  0
 19 20  2  0  0  0  0
 20 21  1  0  0  0  0
 20 22  1  0  0  0  0
 21 36  1  0  0  0  0
 22 23  1  0  0  0  0
 23 24  1  0  0  0  0
 23 37  1  0  0  0  0
 23 38  1  0  0  0  0
 25 26  3  0  0  0  0
 27 39  1  0  0  0  0
 27 40  1  0  0  0  0
 28 41  1  0  0  0  0
 28 42  1  0  0  0  0
 28 43  1  0  0  0  0
M  END
$$$$
ZINC01429634
  -OEChem-08230709453D

 43 46  0     1  0  0  0  0  0999 V2000
   -4.0767    9.0524    2.6640 C   0  0  0  0  0  0  0  0  0  0  0  0
   -4.1250    7.5268    2.7694 C   0  0  0  0  0  0  0  0  0  0  0  0
   -2.7864    6.9878    2.6079 O   0  0  0  0  0  0  0  0  0  0  0  0
   -2.6540    5.6479    2.6748 C   0  0  0  0  0  0  0  0  0  0  0  0
   -3.6309    4.9492    2.8631 O   0  0  0  0  0  0  0  0  0  0  0  0
   -1.3292    5.0321    2.5203 C   0  0  0  0  0  0  0  0  0  0  0  0
   -0.5129    4.8082    3.6116 C   0  0  0  0  0  0  0  0  0  0  0  0
    0.8989    4.0834    2.9137 S   0  0  0  0  0  0  0  0  0  0  0  0
    0.4077    4.0827    1.2166 C   0  0  0  0  0  0  0  0  0  0  0  0
   -0.8316    4.6385    1.2168 C   0  0  0  0  0  0  0  0  0  0  0  0
   -1.5086    4.7876    0.0289 O   0  0  0  0  0  0  0  0  0  0  0  0
   -0.8231    4.6452   -1.1173 C   0  0  0  0  0  0  0  0  0  0  0  0
    0.4117    4.1011   -1.2128 C   0  0  0  0  0  0  0  0  0  0  0  0
    1.1432    3.5954    0.0099 C   0  0  2  0  0  0  0  0  0  0  0  0
    2.1623    3.9821    0.0166 H   0  0  0  0  0  0  0  0  0  0  0  0
    1.1693    2.0886    0.0021 C   0  0  0  0  0  0  0  0  0  0  0  0
   -0.0167    1.3782    0.0096 C   0  0  0  0  0  0  0  0  0  0  0  0
    0.0021   -0.0041    0.0020 C   0  0  0  0  0  0  0  0  0  0  0  0
    1.2108   -0.6810   -0.0131 C   0  0  0  0  0  0  0  0  0  0  0  0
    2.4055    0.0347   -0.0206 C   0  0  0  0  0  0  0  0  0  0  0  0
    2.3790    1.4199   -0.0122 C   0  0  0  0  0  0  0  0  0  0  0  0
    3.4443   -0.8506   -0.0356 O   0  0  0  0  0  0  0  0  0  0  0  0
    2.8735   -2.1061   -0.4495 C   0  0  0  0  0  0  0  0  0  0  0  0
    1.5011   -2.0147   -0.0235 O   0  0  0  0  0  0  0  0  0  0  0  0
    1.0383    4.0027   -2.4966 C   0  0  0  0  0  0  0  0  0  0  0  0
    1.5354    3.9246   -3.5151 N   0  0  0  0  0  0  0  0  0  0  0  0
   -1.4182    5.0825   -2.2746 N   0  0  0  0  0  0  0  0  0  0  0  0
   -0.7843    5.1190    5.0610 C   0  0  0  0  0  0  0  0  0  0  0  0
   -5.0815    9.4570    2.7852 H   0  0  0  0  0  0  0  0  0  0  0  0
   -3.4282    9.4502    3.4446 H   0  0  0  0  0  0  0  0  0  0  0  0
   -3.6858    9.3369    1.6870 H   0  0  0  0  0  0  0  0  0  0  0  0
   -4.7735    7.1290    1.9887 H   0  0  0  0  0  0  0  0  0  0  0  0
   -4.5158    7.2423    3.7463 H   0  0  0  0  0  0  0  0  0  0  0  0
   -0.9599    1.9042    0.0169 H   0  0  0  0  0  0  0  0  0  0  0  0
   -0.9259   -0.5565    0.0082 H   0  0  0  0  0  0  0  0  0  0  0  0
    3.3040    1.9774   -0.0180 H   0  0  0  0  0  0  0  0  0  0  0  0
    2.9320   -2.2150   -1.5324 H   0  0  0  0  0  0  0  0  0  0  0  0
    3.3761   -2.9371    0.0456 H   0  0  0  0  0  0  0  0  0  0  0  0
   -0.9535    4.9958   -3.1216 H   0  0  0  0  0  0  0  0  0  0  0  0
   -2.3033    5.4782   -2.2452 H   0  0  0  0  0  0  0  0  0  0  0  0
    0.0709    4.8141    5.6643 H   0  0  0  0  0  0  0  0  0  0  0  0
   -0.9483    6.1901    5.1784 H   0  0  0  0  0  0  0  0  0  0  0  0
   -1.6716    4.5774    5.3888 H   0  0  0  0  0  0  0  0  0  0  0  0
  1  2  1  0  0  0  0
  1 29  1  0  0  0  0
  1 30  1  0  0  0  0
  1 31  1  0  0  0  0
  2  3  1  0  0  0  0
  2 32  1  0  0  0  0
  2 33  1  0  0  0  0
  3  4  1  0  0  0  0
  4  5  2  0  0  0  0
  4  6  1  0  0  0  0
  6 10  1  0  0  0  0
  6  7  2  0  0  0  0
  7  8  1  0  0  0  0
  7 28  1  0  0  0  0
  8  9  1  0  0  0  0
  9 14  1  0  0  0  0
  9 10  2  0  0  0  0
 10 11  1  0  0  0  0
 11 12  1  0  0  0  0
 12 13  2  0  0  0  0
 12 27  1  0  0  0  0
 13 14  1  0  0  0  0
 13 25  1  0  0  0  0
 14 15  1  0  0  0  0
 14 16  1  0  0  0  0
 16 21  2  0  0  0  0
 16 17  1  0  0  0  0
 17 18  2  0  0  0  0
 17 34  1  0  0  0  0
 18 19  1  0  0  0  0
 18 35  1  0  0  0  0
 19 24  1  0  0  0  0
 19 20  2  0  0  0  0
 20 21  1  0  0  0  0
 20 22  1  0  0  0  0
 21 36  1  0  0  0  0
 22 23  1  0  0  0  0
 23 24  1  0  0  0  0
 23 37  1  0  0  0  0
 23 38  1  0  0  0  0
 25 26  3  0  0  0  0
 27 39  1  0  0  0  0
 27 40  1  0  0  0  0
 28 41  1  0  0  0  0
 28 42  1  0  0  0  0
 28 43  1  0  0  0  0
M  END
$$$$
ZINC01430708
  -OEChem-08230709453D

 40 42  0     0  0  0  0  0  0999 V2000
   -1.0993    1.1037    1.2942 C   0  0  0  0  0  0  0  0  0  0  0  0
   -0.9171    2.0840    2.4546 C   0  0  0  0  0  0  0  0  0  0  0  0
   -1.1012    3.4202    1.9828 O   0  0  0  0  0  0  0  0  0  0  0  0
   -0.8724    4.4248    2.8693 C   0  0  0  0  0  0  0  0  0  0  0  0
   -0.5861    4.1299    4.1945 C   0  0  0  0  0  0  0  0  0  0  0  0
   -0.3544    5.1521    5.0940 C   0  0  0  0  0  0  0  0  0  0  0  0
   -0.4071    6.4697    4.6742 C   0  0  0  0  0  0  0  0  0  0  0  0
   -0.6872    6.7656    3.3521 C   0  0  0  0  0  0  0  0  0  0  0  0
   -0.9253    5.7460    2.4505 C   0  0  0  0  0  0  0  0  0  0  0  0
   -1.2886    6.1237    0.7683 S   0  0  0  0  0  0  0  0  0  0  0  0
   -0.4322    5.3127   -0.0242 O   0  0  0  0  0  0  0  0  0  0  0  0
   -1.3063    7.5408    0.6649 O   0  0  0  0  0  0  0  0  0  0  0  0
   -2.8346    5.6084    0.4737 N   0  0  0  0  0  0  0  0  0  0  0  0
   -3.8995    6.1372    1.2085 C   0  0  0  0  0  0  0  0  0  0  0  0
   -3.8858    7.4643    1.5961 C   0  0  0  0  0  0  0  0  0  0  0  0
   -4.9434    7.9980    2.3211 C   0  0  0  0  0  0  0  0  0  0  0  0
   -6.0087    7.2226    2.6741 C   0  0  0  0  0  0  0  0  0  0  0  0
   -6.0495    5.8734    2.2946 C   0  0  0  0  0  0  0  0  0  0  0  0
   -4.9852    5.3275    1.5556 C   0  0  0  0  0  0  0  0  0  0  0  0
   -5.2972    4.0098    1.3324 N   0  0  0  0  0  0  0  0  0  0  0  0
   -4.7364    3.3500    0.8323 H   0  0  0  0  0  0  0  0  0  0  0  0
   -6.5380    3.7506    1.9273 N   0  0  0  0  0  0  0  0  0  0  0  0
   -6.9886    4.8325    2.4934 C   0  0  0  0  0  0  0  0  0  0  0  0
   -0.1149    7.7527    5.8065 Cl  0  0  0  0  0  0  0  0  0  0  0  0
   -0.0434    4.8323    6.5335 C   0  0  0  0  0  0  0  0  0  0  0  0
   -1.0466    0.0819    1.6701 H   0  0  0  0  0  0  0  0  0  0  0  0
   -2.0702    1.2696    0.8275 H   0  0  0  0  0  0  0  0  0  0  0  0
   -0.3107    1.2612    0.5583 H   0  0  0  0  0  0  0  0  0  0  0  0
    0.0873    1.9788    2.8649 H   0  0  0  0  0  0  0  0  0  0  0  0
   -1.6511    1.8685    3.2310 H   0  0  0  0  0  0  0  0  0  0  0  0
   -0.5449    3.1017    4.5225 H   0  0  0  0  0  0  0  0  0  0  0  0
   -0.7236    7.7943    3.0253 H   0  0  0  0  0  0  0  0  0  0  0  0
   -3.0011    4.9395   -0.2088 H   0  0  0  0  0  0  0  0  0  0  0  0
   -3.0486    8.0920    1.3290 H   0  0  0  0  0  0  0  0  0  0  0  0
   -4.9201    9.0376    2.6126 H   0  0  0  0  0  0  0  0  0  0  0  0
   -6.8225    7.6489    3.2418 H   0  0  0  0  0  0  0  0  0  0  0  0
   -7.9235    4.9214    3.0267 H   0  0  0  0  0  0  0  0  0  0  0  0
    1.0342    4.7245    6.6571 H   0  0  0  0  0  0  0  0  0  0  0  0
   -0.4033    5.6399    7.1710 H   0  0  0  0  0  0  0  0  0  0  0  0
   -0.5362    3.9013    6.8135 H   0  0  0  0  0  0  0  0  0  0  0  0
  1  2  1  0  0  0  0
  1 26  1  0  0  0  0
  1 27  1  0  0  0  0
  1 28  1  0  0  0  0
  2  3  1  0  0  0  0
  2 29  1  0  0  0  0
  2 30  1  0  0  0  0
  3  4  1  0  0  0  0
  4  9  2  0  0  0  0
  4  5  1  0  0  0  0
  5  6  2  0  0  0  0
  5 31  1  0  0  0  0
  6  7  1  0  0  0  0
  6 25  1  0  0  0  0
  7  8  2  0  0  0  0
  7 24  1  0  0  0  0
  8  9  1  0  0  0  0
  8 32  1  0  0  0  0
  9 10  1  0  0  0  0
 10 11  2  0  0  0  0
 10 12  2  0  0  0  0
 10 13  1  0  0  0  0
 13 14  1  0  0  0  0
 13 33  1  0  0  0  0
 14 19  2  0  0  0  0
 14 15  1  0  0  0  0
 15 16  2  0  0  0  0
 15 34  1  0  0  0  0
 16 17  1  0  0  0  0
 16 35  1  0  0  0  0
 17 18  2  0  0  0  0
 17 36  1  0  0  0  0
 18 23  1  0  0  0  0
 18 19  1  0  0  0  0
 19 20  1  0  0  0  0
 20 21  1  0  0  0  0
 20 22  1  0  0  0  0
 22 23  2  0  0  0  0
 23 37  1  0  0  0  0
 25 38  1  0  0  0  0
 25 39  1  0  0  0  0
 25 40  1  0  0  0  0
M  END
$$$$
ZINC01444277
  -OEChem-08230709453D

 45 47  0     1  0  0  0  0  0999 V2000
   -4.3901   -0.9628   -0.7458 C   0  0  0  0  0  0  0  0  0  0  0  0
   -3.7655   -0.5277    0.5814 C   0  0  0  0  0  0  0  0  0  0  0  0
   -3.6174   -1.7436    1.4982 C   0  0  0  0  0  0  0  0  0  0  0  0
   -2.4790    0.0445    0.3375 O   0  0  0  0  0  0  0  0  0  0  0  0
   -2.0600    0.9998    1.1956 C   0  0  0  0  0  0  0  0  0  0  0  0
   -2.7704    1.3366    2.1262 O   0  0  0  0  0  0  0  0  0  0  0  0
   -0.8075    1.6037    1.0153 C   0  0  0  0  0  0  0  0  0  0  0  0
   -0.3404    2.4708    1.9524 C   0  0  0  0  0  0  0  0  0  0  0  0
    0.8551    3.0659    1.8125 O   0  0  0  0  0  0  0  0  0  0  0  0
    1.7809    2.5363    0.9755 C   0  0  0  0  0  0  0  0  0  0  0  0
    3.1498    2.8939    1.1416 C   0  0  0  0  0  0  0  0  0  0  0  0
    3.4982    3.6658    2.0220 O   0  0  0  0  0  0  0  0  0  0  0  0
    4.0942    2.3246    0.2508 C   0  0  0  0  0  0  0  0  0  0  0  0
    3.6549    1.4792   -0.7010 C   0  0  0  0  0  0  0  0  0  0  0  0
    2.3683    1.1646   -0.8306 O   0  0  0  0  0  0  0  0  0  0  0  0
    1.4409    1.6808   -0.0099 C   0  0  0  0  0  0  0  0  0  0  0  0
   -0.0010    1.2841   -0.2112 C   0  0  2  0  0  0  0  0  0  0  0  0
   -0.0561    0.2139   -0.4102 H   0  0  0  0  0  0  0  0  0  0  0  0
   -0.5665    2.0395   -1.3861 C   0  0  0  0  0  0  0  0  0  0  0  0
   -0.6044    3.4212   -1.3663 C   0  0  0  0  0  0  0  0  0  0  0  0
   -1.1227    4.1142   -2.4441 C   0  0  0  0  0  0  0  0  0  0  0  0
   -1.6036    3.4260   -3.5426 C   0  0  0  0  0  0  0  0  0  0  0  0
   -1.5668    2.0447   -3.5634 C   0  0  0  0  0  0  0  0  0  0  0  0
   -1.0427    1.3506   -2.4871 C   0  0  0  0  0  0  0  0  0  0  0  0
   -0.9885   -0.3843   -2.5160 Cl  0  0  0  0  0  0  0  0  0  0  0  0
    4.6532    0.8695   -1.6511 C   0  0  0  0  0  0  0  0  0  0  0  0
    5.1378   -0.3604   -1.1083 O   0  0  0  0  0  0  0  0  0  0  0  0
   -1.1019    2.7417    3.0578 N   0  0  0  0  0  0  0  0  0  0  0  0
   -3.7482   -1.7025   -1.2243 H   0  0  0  0  0  0  0  0  0  0  0  0
   -5.3714   -1.3992   -0.5598 H   0  0  0  0  0  0  0  0  0  0  0  0
   -4.4956   -0.0965   -1.3990 H   0  0  0  0  0  0  0  0  0  0  0  0
   -4.4074    0.2120    1.0598 H   0  0  0  0  0  0  0  0  0  0  0  0
   -2.9755   -2.4833    1.0197 H   0  0  0  0  0  0  0  0  0  0  0  0
   -3.1724   -1.4337    2.4437 H   0  0  0  0  0  0  0  0  0  0  0  0
   -4.5987   -2.1801    1.6842 H   0  0  0  0  0  0  0  0  0  0  0  0
    5.1441    2.5640    0.3335 H   0  0  0  0  0  0  0  0  0  0  0  0
   -0.2285    3.9593   -0.5086 H   0  0  0  0  0  0  0  0  0  0  0  0
   -1.1517    5.1937   -2.4283 H   0  0  0  0  0  0  0  0  0  0  0  0
   -2.0085    3.9680   -4.3844 H   0  0  0  0  0  0  0  0  0  0  0  0
   -1.9421    1.5072   -4.4216 H   0  0  0  0  0  0  0  0  0  0  0  0
    4.1721    0.6787   -2.6105 H   0  0  0  0  0  0  0  0  0  0  0  0
    5.4867    1.5574   -1.7931 H   0  0  0  0  0  0  0  0  0  0  0  0
    5.7859   -0.8091   -1.6683 H   0  0  0  0  0  0  0  0  0  0  0  0
   -1.0899    3.6291    3.4494 H   0  0  0  0  0  0  0  0  0  0  0  0
   -1.6532    2.0462    3.4493 H   0  0  0  0  0  0  0  0  0  0  0  0
  1  2  1  0  0  0  0
  1 29  1  0  0  0  0
  1 30  1  0  0  0  0
  1 31  1  0  0  0  0
  2  3  1  0  0  0  0
  2  4  1  0  0  0  0
  2 32  1  0  0  0  0
  3 33  1  0  0  0  0
  3 34  1  0  0  0  0
  3 35  1  0  0  0  0
  4  5  1  0  0  0  0
  5  6  2  0  0  0  0
  5  7  1  0  0  0  0
  7 17  1  0  0  0  0
  7  8  2  0  0  0  0
  8  9  1  0  0  0  0
  8 28  1  0  0  0  0
  9 10  1  0  0  0  0
 10 16  2  0  0  0  0
 10 11  1  0  0  0  0
 11 12  2  0  0  0  0
 11 13  1  0  0  0  0
 13 14  2  0  0  0  0
 13 36  1  0  0  0  0
 14 15  1  0  0  0  0
 14 26  1  0  0  0  0
 15 16  1  0  0  0  0
 16 17  1  0  0  0  0
 17 18  1  0  0  0  0
 17 19  1  0  0  0  0
 19 24  2  0  0  0  0
 19 20  1  0  0  0  0
 20 21  2  0  0  0  0
 20 37  1  0  0  0  0
 21 22  1  0  0  0  0
 21 38  1  0  0  0  0
 22 23  2  0  0  0  0
 22 39  1  0  0  0  0
 23 24  1  0  0  0  0
 23 40  1  0  0  0  0
 24 25  1  0  0  0  0
 26 27  1  0  0  0  0
 26 41  1  0  0  0  0
 26 42  1  0  0  0  0
 27 43  1  0  0  0  0
 28 44  1  0  0  0  0
 28 45  1  0  0  0  0
M  END
$$$$
ZINC01446220
  -OEChem-08230709453D

 46 49  0     1  0  0  0  0  0999 V2000
   -3.4134   -0.3564    8.1538 C   0  0  0  0  0  0  0  0  0  0  0  0
   -4.0136    0.2805    6.8988 C   0  0  0  0  0  0  0  0  0  0  0  0
   -2.9775    0.9097    6.1420 O   0  0  0  0  0  0  0  0  0  0  0  0
   -3.3592    1.6356    5.0572 C   0  0  0  0  0  0  0  0  0  0  0  0
   -3.1280    1.1496    3.7803 C   0  0  0  0  0  0  0  0  0  0  0  0
   -3.5223    1.8859    2.6787 C   0  0  0  0  0  0  0  0  0  0  0  0
   -4.1363    3.1131    2.8473 C   0  0  0  0  0  0  0  0  0  0  0  0
   -4.3648    3.6062    4.1184 C   0  0  0  0  0  0  0  0  0  0  0  0
   -3.9777    2.8705    5.2269 C   0  0  0  0  0  0  0  0  0  0  0  0
   -4.2022    3.3540    6.4780 O   0  0  0  0  0  0  0  0  0  0  0  0
   -4.8415    4.6283    6.5761 C   0  0  0  0  0  0  0  0  0  0  0  0
   -2.4528   -0.1845    3.5926 C   0  0  1  0  0  0  0  0  0  0  0  0
   -2.1204   -0.2863    2.5595 H   0  0  0  0  0  0  0  0  0  0  0  0
   -1.2707   -0.2911    4.5208 C   0  0  0  0  0  0  0  0  0  0  0  0
   -0.0318    0.3569    4.4549 C   0  0  0  0  0  0  0  0  0  0  0  0
    0.6912   -0.0448    5.4851 N   0  0  0  0  0  0  0  0  0  0  0  0
   -0.0710   -0.9580    6.2300 N   0  0  0  0  0  0  0  0  0  0  0  0
    0.2218   -1.4249    7.0644 H   0  0  0  0  0  0  0  0  0  0  0  0
   -1.2683   -1.0956    5.6228 C   0  0  0  0  0  0  0  0  0  0  0  0
   -2.3301   -1.8655    5.9697 O   0  0  0  0  0  0  0  0  0  0  0  0
   -3.3036   -2.0369    5.0525 C   0  0  0  0  0  0  0  0  0  0  0  0
   -3.4171   -1.2947    3.9287 C   0  0  0  0  0  0  0  0  0  0  0  0
   -4.4916   -1.5727    3.0238 C   0  0  0  0  0  0  0  0  0  0  0  0
   -5.3441   -1.7933    2.3060 N   0  0  0  0  0  0  0  0  0  0  0  0
   -4.2331   -3.0228    5.2728 N   0  0  0  0  0  0  0  0  0  0  0  0
    0.3928    1.3204    3.4159 C   0  0  0  0  0  0  0  0  0  0  0  0
    1.1547    2.4498    3.5468 C   0  0  0  0  0  0  0  0  0  0  0  0
    1.4282    3.1985    2.4223 C   0  0  0  0  0  0  0  0  0  0  0  0
    0.9263    2.8014    1.2254 C   0  0  0  0  0  0  0  0  0  0  0  0
    0.0384    1.3167    1.6661 S   0  0  0  0  0  0  0  0  0  0  0  0
   -2.7346   -1.1588    7.8650 H   0  0  0  0  0  0  0  0  0  0  0  0
   -4.2132   -0.7625    8.7731 H   0  0  0  0  0  0  0  0  0  0  0  0
   -2.8650    0.3983    8.7175 H   0  0  0  0  0  0  0  0  0  0  0  0
   -4.4896   -0.4901    6.2924 H   0  0  0  0  0  0  0  0  0  0  0  0
   -4.7553    1.0248    7.1883 H   0  0  0  0  0  0  0  0  0  0  0  0
   -3.3458    1.5039    1.6840 H   0  0  0  0  0  0  0  0  0  0  0  0
   -4.4385    3.6875    1.9841 H   0  0  0  0  0  0  0  0  0  0  0  0
   -4.8453    4.5648    4.2474 H   0  0  0  0  0  0  0  0  0  0  0  0
   -4.2310    5.3805    6.0765 H   0  0  0  0  0  0  0  0  0  0  0  0
   -5.8210    4.5808    6.1003 H   0  0  0  0  0  0  0  0  0  0  0  0
   -4.9601    4.8954    7.6262 H   0  0  0  0  0  0  0  0  0  0  0  0
   -4.9451   -3.1703    4.6308 H   0  0  0  0  0  0  0  0  0  0  0  0
   -4.1778   -3.5719    6.0705 H   0  0  0  0  0  0  0  0  0  0  0  0
    1.5369    2.7470    4.5122 H   0  0  0  0  0  0  0  0  0  0  0  0
    2.0306    4.0920    2.4934 H   0  0  0  0  0  0  0  0  0  0  0  0
    1.0354    3.2647    0.2560 H   0  0  0  0  0  0  0  0  0  0  0  0
  1  2  1  0  0  0  0
  1 31  1  0  0  0  0
  1 32  1  0  0  0  0
  1 33  1  0  0  0  0
  2  3  1  0  0  0  0
  2 34  1  0  0  0  0
  2 35  1  0  0  0  0
  3  4  1  0  0  0  0
  4  9  2  0  0  0  0
  4  5  1  0  0  0  0
  5  6  2  0  0  0  0
  5 12  1  0  0  0  0
  6  7  1  0  0  0  0
  6 36  1  0  0  0  0
  7  8  2  0  0  0  0
  7 37  1  0  0  0  0
  8  9  1  0  0  0  0
  8 38  1  0  0  0  0
  9 10  1  0  0  0  0
 10 11  1  0  0  0  0
 11 39  1  0  0  0  0
 11 40  1  0  0  0  0
 11 41  1  0  0  0  0
 12 13  1  0  0  0  0
 12 22  1  0  0  0  0
 12 14  1  0  0  0  0
 14 19  2  0  0  0  0
 14 15  1  0  0  0  0
 15 16  2  0  0  0  0
 15 26  1  0  0  0  0
 16 17  1  0  0  0  0
 17 18  1  0  0  0  0
 17 19  1  0  0  0  0
 19 20  1  0  0  0  0
 20 21  1  0  0  0  0
 21 22  2  0  0  0  0
 21 25  1  0  0  0  0
 22 23  1  0  0  0  0
 23 24  3  0  0  0  0
 25 42  1  0  0  0  0
 25 43  1  0  0  0  0
 26 30  1  0  0  0  0
 26 27  2  0  0  0  0
 27 28  1  0  0  0  0
 27 44  1  0  0  0  0
 28 29  2  0  0  0  0
 28 45  1  0  0  0  0
 29 30  1  0  0  0  0
 29 46  1  0  0  0  0
M  END
$$$$
ZINC01446220
  -OEChem-08230709453D

 46 49  0     1  0  0  0  0  0999 V2000
   -3.4134   -0.3577    8.1542 C   0  0  0  0  0  0  0  0  0  0  0  0
   -4.0138    0.2795    6.8994 C   0  0  0  0  0  0  0  0  0  0  0  0
   -2.9779    0.9092    6.1428 O   0  0  0  0  0  0  0  0  0  0  0  0
   -3.3597    1.6354    5.0583 C   0  0  0  0  0  0  0  0  0  0  0  0
   -3.1285    1.1499    3.7812 C   0  0  0  0  0  0  0  0  0  0  0  0
   -3.5230    1.8866    2.6799 C   0  0  0  0  0  0  0  0  0  0  0  0
   -4.1372    3.1136    2.8490 C   0  0  0  0  0  0  0  0  0  0  0  0
   -4.3657    3.6062    4.1203 C   0  0  0  0  0  0  0  0  0  0  0  0
   -3.9785    2.8701    5.2285 C   0  0  0  0  0  0  0  0  0  0  0  0
   -4.2030    3.3531    6.4798 O   0  0  0  0  0  0  0  0  0  0  0  0
   -4.8425    4.6273    6.5783 C   0  0  0  0  0  0  0  0  0  0  0  0
   -2.4531   -0.1840    3.5930 C   0  0  1  0  0  0  0  0  0  0  0  0
   -2.1207   -0.2853    2.5598 H   0  0  0  0  0  0  0  0  0  0  0  0
   -1.2709   -0.2907    4.5211 C   0  0  0  0  0  0  0  0  0  0  0  0
   -0.0321    0.3576    4.4554 C   0  0  0  0  0  0  0  0  0  0  0  0
    0.6913   -0.0450    5.4850 N   0  0  0  0  0  0  0  0  0  0  0  0
   -0.0708   -0.9583    6.2298 N   0  0  0  0  0  0  0  0  0  0  0  0
    1.6227    0.2506    5.6973 H   0  0  0  0  0  0  0  0  0  0  0  0
   -1.2682   -1.0958    5.6227 C   0  0  0  0  0  0  0  0  0  0  0  0
   -2.3300   -1.8658    5.9695 O   0  0  0  0  0  0  0  0  0  0  0  0
   -3.3034   -2.0371    5.0521 C   0  0  0  0  0  0  0  0  0  0  0  0
   -3.4172   -1.2943    3.9287 C   0  0  0  0  0  0  0  0  0  0  0  0
   -4.4918   -1.5720    3.0238 C   0  0  0  0  0  0  0  0  0  0  0  0
   -5.3443   -1.7924    2.3060 N   0  0  0  0  0  0  0  0  0  0  0  0
   -4.2327   -3.0233    5.2720 N   0  0  0  0  0  0  0  0  0  0  0  0
    0.3923    1.3215    3.4167 C   0  0  0  0  0  0  0  0  0  0  0  0
    1.1540    2.4510    3.5480 C   0  0  0  0  0  0  0  0  0  0  0  0
    1.4273    3.2002    2.4238 C   0  0  0  0  0  0  0  0  0  0  0  0
    0.9254    2.8034    1.2267 C   0  0  0  0  0  0  0  0  0  0  0  0
    0.0378    1.3184    1.6669 S   0  0  0  0  0  0  0  0  0  0  0  0
   -2.7345   -1.1599    7.8650 H   0  0  0  0  0  0  0  0  0  0  0  0
   -4.2131   -0.7642    8.7733 H   0  0  0  0  0  0  0  0  0  0  0  0
   -2.8651    0.3969    8.7181 H   0  0  0  0  0  0  0  0  0  0  0  0
   -4.4897   -0.4909    6.2928 H   0  0  0  0  0  0  0  0  0  0  0  0
   -4.7556    1.0236    7.1892 H   0  0  0  0  0  0  0  0  0  0  0  0
   -3.3464    1.5050    1.6850 H   0  0  0  0  0  0  0  0  0  0  0  0
   -4.4395    3.6882    1.9860 H   0  0  0  0  0  0  0  0  0  0  0  0
   -4.8464    4.5646    4.2496 H   0  0  0  0  0  0  0  0  0  0  0  0
   -4.2322    5.3798    6.0790 H   0  0  0  0  0  0  0  0  0  0  0  0
   -5.8220    4.5798    6.1026 H   0  0  0  0  0  0  0  0  0  0  0  0
   -4.9611    4.8940    7.6285 H   0  0  0  0  0  0  0  0  0  0  0  0
   -4.9448   -3.1706    4.6300 H   0  0  0  0  0  0  0  0  0  0  0  0
   -4.1772   -3.5729    6.0694 H   0  0  0  0  0  0  0  0  0  0  0  0
    1.5361    2.7479    4.5135 H   0  0  0  0  0  0  0  0  0  0  0  0
    2.0295    4.0938    2.4952 H   0  0  0  0  0  0  0  0  0  0  0  0
    1.0344    3.2671    0.2575 H   0  0  0  0  0  0  0  0  0  0  0  0
  1  2  1  0  0  0  0
  1 31  1  0  0  0  0
  1 32  1  0  0  0  0
  1 33  1  0  0  0  0
  2  3  1  0  0  0  0
  2 34  1  0  0  0  0
  2 35  1  0  0  0  0
  3  4  1  0  0  0  0
  4  9  2  0  0  0  0
  4  5  1  0  0  0  0
  5  6  2  0  0  0  0
  5 12  1  0  0  0  0
  6  7  1  0  0  0  0
  6 36  1  0  0  0  0
  7  8  2  0  0  0  0
  7 37  1  0  0  0  0
  8  9  1  0  0  0  0
  8 38  1  0  0  0  0
  9 10  1  0  0  0  0
 10 11  1  0  0  0  0
 11 39  1  0  0  0  0
 11 40  1  0  0  0  0
 11 41  1  0  0  0  0
 12 13  1  0  0  0  0
 12 22  1  0  0  0  0
 12 14  1  0  0  0  0
 14 19  1  0  0  0  0
 14 15  2  0  0  0  0
 15 26  1  0  0  0  0
 15 16  1  0  0  0  0
 16 18  1  0  0  0  0
 16 17  1  0  0  0  0
 17 19  2  0  0  0  0
 19 20  1  0  0  0  0
 20 21  1  0  0  0  0
 21 22  2  0  0  0  0
 21 25  1  0  0  0  0
 22 23  1  0  0  0  0
 23 24  3  0  0  0  0
 25 42  1  0  0  0  0
 25 43  1  0  0  0  0
 26 30  1  0  0  0  0
 26 27  2  0  0  0  0
 27 28  1  0  0  0  0
 27 44  1  0  0  0  0
 28 29  2  0  0  0  0
 28 45  1  0  0  0  0
 29 30  1  0  0  0  0
 29 46  1  0  0  0  0
M  END
$$$$
ZINC01447482
  -OEChem-08230709453D

 43 47  0     0  0  0  0  0  0999 V2000
    9.1741    4.8673    0.9897 C   0  0  0  0  0  0  0  0  0  0  0  0
    8.3517    5.8564    0.3673 O   0  0  0  0  0  0  0  0  0  0  0  0
    7.0220    5.5858    0.2766 C   0  0  0  0  0  0  0  0  0  0  0  0
    6.1668    6.5031   -0.3162 C   0  0  0  0  0  0  0  0  0  0  0  0
    4.8166    6.2290   -0.4091 C   0  0  0  0  0  0  0  0  0  0  0  0
    4.3149    5.0345    0.0915 C   0  0  0  0  0  0  0  0  0  0  0  0
    5.1710    4.1192    0.6899 C   0  0  0  0  0  0  0  0  0  0  0  0
    6.5219    4.3924    0.7764 C   0  0  0  0  0  0  0  0  0  0  0  0
    2.9465    4.7560   -0.0019 N   0  0  0  0  0  0  0  0  0  0  0  0
    2.5046    3.4385   -0.0114 C   0  0  0  0  0  0  0  0  0  0  0  0
    3.2654    2.3725   -0.0431 N   0  0  0  0  0  0  0  0  0  0  0  0
    2.4343    1.2456   -0.0421 N   0  0  0  0  0  0  0  0  0  0  0  0
    1.1888    1.6582   -0.0097 C   0  0  0  0  0  0  0  0  0  0  0  0
    1.1978    3.0285    0.0102 N   0  0  0  0  0  0  0  0  0  0  0  0
    0.0118    3.7273    0.0459 C   0  0  0  0  0  0  0  0  0  0  0  0
   -1.2215    3.0848    0.0632 C   0  0  0  0  0  0  0  0  0  0  0  0
   -2.3948    3.9597    0.1010 C   0  0  0  0  0  0  0  0  0  0  0  0
   -2.1427    5.2842    0.1141 C   0  0  0  0  0  0  0  0  0  0  0  0
   -0.3768    5.4072    0.0777 S   0  0  0  0  0  0  0  0  0  0  0  0
   -3.1462    6.3957    0.1509 C   0  0  0  0  0  0  0  0  0  0  0  0
   -4.5226    5.8150   -0.2049 C   0  0  0  0  0  0  0  0  0  0  0  0
   -4.7505    4.5440    0.6184 C   0  0  0  0  0  0  0  0  0  0  0  0
   -3.8240    3.4312    0.1249 C   0  0  0  0  0  0  0  0  0  0  0  0
   -1.1900    1.6043    0.0349 C   0  0  0  0  0  0  0  0  0  0  0  0
   -2.2293    0.9701    0.0426 O   0  0  0  0  0  0  0  0  0  0  0  0
   -0.0092    0.9644    0.0055 N   0  0  0  0  0  0  0  0  0  0  0  0
    0.0048   -0.0354   -0.0057 H   0  0  0  0  0  0  0  0  0  0  0  0
    8.8373    4.7068    2.0139 H   0  0  0  0  0  0  0  0  0  0  0  0
    9.1027    3.9328    0.4331 H   0  0  0  0  0  0  0  0  0  0  0  0
   10.2095    5.2078    0.9968 H   0  0  0  0  0  0  0  0  0  0  0  0
    6.5572    7.4318   -0.7054 H   0  0  0  0  0  0  0  0  0  0  0  0
    4.1510    6.9430   -0.8713 H   0  0  0  0  0  0  0  0  0  0  0  0
    4.7812    3.1920    1.0831 H   0  0  0  0  0  0  0  0  0  0  0  0
    7.1885    3.6788    1.2378 H   0  0  0  0  0  0  0  0  0  0  0  0
    2.3065    5.4826   -0.0599 H   0  0  0  0  0  0  0  0  0  0  0  0
   -3.1776    6.8293    1.1505 H   0  0  0  0  0  0  0  0  0  0  0  0
   -2.8718    7.1625   -0.5736 H   0  0  0  0  0  0  0  0  0  0  0  0
   -5.2981    6.5448    0.0277 H   0  0  0  0  0  0  0  0  0  0  0  0
   -4.5541    5.5747   -1.2676 H   0  0  0  0  0  0  0  0  0  0  0  0
   -4.5416    4.7503    1.6681 H   0  0  0  0  0  0  0  0  0  0  0  0
   -5.7875    4.2253    0.5127 H   0  0  0  0  0  0  0  0  0  0  0  0
   -3.8867    2.5773    0.7995 H   0  0  0  0  0  0  0  0  0  0  0  0
   -4.1205    3.1267   -0.8788 H   0  0  0  0  0  0  0  0  0  0  0  0
  1  2  1  0  0  0  0
  1 28  1  0  0  0  0
  1 29  1  0  0  0  0
  1 30  1  0  0  0  0
  2  3  1  0  0  0  0
  3  8  2  0  0  0  0
  3  4  1  0  0  0  0
  4  5  2  0  0  0  0
  4 31  1  0  0  0  0
  5  6  1  0  0  0  0
  5 32  1  0  0  0  0
  6  7  2  0  0  0  0
  6  9  1  0  0  0  0
  7  8  1  0  0  0  0
  7 33  1  0  0  0  0
  8 34  1  0  0  0  0
  9 10  1  0  0  0  0
  9 35  1  0  0  0  0
 10 14  1  0  0  0  0
 10 11  2  0  0  0  0
 11 12  1  0  0  0  0
 12 13  2  0  0  0  0
 13 26  1  0  0  0  0
 13 14  1  0  0  0  0
 14 15  1  0  0  0  0
 15 19  1  0  0  0  0
 15 16  2  0  0  0  0
 16 17  1  0  0  0  0
 16 24  1  0  0  0  0
 17 23  1  0  0  0  0
 17 18  2  0  0  0  0
 18 19  1  0  0  0  0
 18 20  1  0  0  0  0
 20 21  1  0  0  0  0
 20 36  1  0  0  0  0
 20 37  1  0  0  0  0
 21 22  1  0  0  0  0
 21 38  1  0  0  0  0
 21 39  1  0  0  0  0
 22 23  1  0  0  0  0
 22 40  1  0  0  0  0
 22 41  1  0  0  0  0
 23 42  1  0  0  0  0
 23 43  1  0  0  0  0
 24 25  2  0  0  0  0
 24 26  1  0  0  0  0
 26 27  1  0  0  0  0
M  END
$$$$
ZINC01468095
  -OEChem-08230709453D

 43 44  0     0  0  0  0  0  0999 V2000
    3.3123    5.3617   -1.5322 C   0  0  0  0  0  0  0  0  0  0  0  0
    2.8154    4.2711   -0.6185 C   0  0  0  0  0  0  0  0  0  0  0  0
    2.8146    2.9995   -1.0607 C   0  0  0  0  0  0  0  0  0  0  0  0
    2.3557    1.9620   -0.2102 C   0  0  0  0  0  0  0  0  0  0  0  0
    2.3481    0.7996   -0.5829 O   0  0  0  0  0  0  0  0  0  0  0  0
    1.8845    2.3305    1.1332 C   0  0  0  0  0  0  0  0  0  0  0  0
    1.9255    3.6794    1.4977 C   0  0  0  0  0  0  0  0  0  0  0  0
    2.3826    4.6013    0.6262 N   0  0  0  0  0  0  0  0  0  0  0  0
    2.4126    5.9461    1.0180 N   0  0  0  0  0  0  0  0  0  0  0  0
    1.2857    6.5483    1.4470 C   0  0  0  0  0  0  0  0  0  0  0  0
    0.2718    5.9002    1.5986 O   0  0  0  0  0  0  0  0  0  0  0  0
    1.2856    8.0268    1.7385 C   0  0  0  0  0  0  0  0  0  0  0  0
   -0.0478    8.4361    2.1864 N   0  0  0  0  0  0  0  0  0  0  0  0
   -0.2943    9.7705    2.5172 C   0  0  0  0  0  0  0  0  0  0  0  0
    0.7241   10.7109    2.4221 C   0  0  0  0  0  0  0  0  0  0  0  0
    0.4776   12.0296    2.7494 C   0  0  0  0  0  0  0  0  0  0  0  0
   -0.7813   12.4153    3.1721 C   0  0  0  0  0  0  0  0  0  0  0  0
   -1.7983   11.4818    3.2682 C   0  0  0  0  0  0  0  0  0  0  0  0
   -1.5593   10.1612    2.9365 C   0  0  0  0  0  0  0  0  0  0  0  0
   -2.6684    9.1458    3.0352 C   0  0  0  0  0  0  0  0  0  0  0  0
   -3.3773   11.9707    3.7987 Cl  0  0  0  0  0  0  0  0  0  0  0  0
    1.5074    4.0589    2.7211 O   0  0  0  0  0  0  0  0  0  0  0  0
    1.4086    1.3467    2.0336 C   0  0  0  0  0  0  0  0  0  0  0  0
    2.1917    0.7211    2.7186 O   0  0  0  0  0  0  0  0  0  0  0  0
   -0.0705    1.0805    2.1461 C   0  0  0  0  0  0  0  0  0  0  0  0
    4.3842    5.4967   -1.3874 H   0  0  0  0  0  0  0  0  0  0  0  0
    3.1177    5.0845   -2.5682 H   0  0  0  0  0  0  0  0  0  0  0  0
    2.7945    6.2928   -1.3017 H   0  0  0  0  0  0  0  0  0  0  0  0
    3.1651    2.7705   -2.0563 H   0  0  0  0  0  0  0  0  0  0  0  0
    3.2443    6.4437    0.9805 H   0  0  0  0  0  0  0  0  0  0  0  0
    2.0138    8.2431    2.5202 H   0  0  0  0  0  0  0  0  0  0  0  0
    1.5495    8.5754    0.8343 H   0  0  0  0  0  0  0  0  0  0  0  0
   -0.7595    7.7805    2.2532 H   0  0  0  0  0  0  0  0  0  0  0  0
    1.7078   10.4106    2.0928 H   0  0  0  0  0  0  0  0  0  0  0  0
    1.2691   12.7606    2.6755 H   0  0  0  0  0  0  0  0  0  0  0  0
   -0.9712   13.4472    3.4281 H   0  0  0  0  0  0  0  0  0  0  0  0
   -2.6725    8.7080    4.0334 H   0  0  0  0  0  0  0  0  0  0  0  0
   -3.6252    9.6335    2.8484 H   0  0  0  0  0  0  0  0  0  0  0  0
   -2.5099    8.3614    2.2951 H   0  0  0  0  0  0  0  0  0  0  0  0
    2.1845    4.1641    3.4034 H   0  0  0  0  0  0  0  0  0  0  0  0
   -0.3155    0.3075    1.5609 H   0  0  0  0  0  0  0  0  0  0  0  0
   -0.3198    0.8462    3.1810 H   0  0  0  0  0  0  0  0  0  0  0  0
   -0.6238    1.9650    1.8304 H   0  0  0  0  0  0  0  0  0  0  0  0
  1  2  1  0  0  0  0
  1 26  1  0  0  0  0
  1 27  1  0  0  0  0
  1 28  1  0  0  0  0
  2  8  1  0  0  0  0
  2  3  2  0  0  0  0
  3  4  1  0  0  0  0
  3 29  1  0  0  0  0
  4  5  2  0  0  0  0
  4  6  1  0  0  0  0
  6  7  2  0  0  0  0
  6 23  1  0  0  0  0
  7  8  1  0  0  0  0
  7 22  1  0  0  0  0
  8  9  1  0  0  0  0
  9 10  1  0  0  0  0
  9 30  1  0  0  0  0
 10 11  2  0  0  0  0
 10 12  1  0  0  0  0
 12 13  1  0  0  0  0
 12 31  1  0  0  0  0
 12 32  1  0  0  0  0
 13 14  1  0  0  0  0
 13 33  1  0  0  0  0
 14 19  2  0  0  0  0
 14 15  1  0  0  0  0
 15 16  2  0  0  0  0
 15 34  1  0  0  0  0
 16 17  1  0  0  0  0
 16 35  1  0  0  0  0
 17 18  2  0  0  0  0
 17 36  1  0  0  0  0
 18 19  1  0  0  0  0
 18 21  1  0  0  0  0
 19 20  1  0  0  0  0
 20 37  1  0  0  0  0
 20 38  1  0  0  0  0
 20 39  1  0  0  0  0
 22 40  1  0  0  0  0
 23 24  2  0  0  0  0
 23 25  1  0  0  0  0
 25 41  1  0  0  0  0
 25 42  1  0  0  0  0
 25 43  1  0  0  0  0
M  END
$$$$
ZINC01485420
  -OEChem-08230709453D

 45 47  0     0  0  0  0  0  0999 V2000
   -4.7864   -1.8298    0.0415 C   0  0  0  0  0  0  0  0  0  0  0  0
   -4.0592   -0.5098    0.0338 C   0  0  0  0  0  0  0  0  0  0  0  0
   -4.6399    0.7107    0.0343 C   0  0  0  0  0  0  0  0  0  0  0  0
   -3.6333    1.6367    0.0267 N   0  0  0  0  0  0  0  0  0  0  0  0
   -3.6352    3.0040    0.0241 C   0  0  0  0  0  0  0  0  0  0  0  0
   -2.4767    3.6953    0.0166 C   0  0  0  0  0  0  0  0  0  0  0  0
   -1.2463    3.0186    0.0114 C   0  0  0  0  0  0  0  0  0  0  0  0
   -1.2267    1.6525    0.0139 C   0  0  0  0  0  0  0  0  0  0  0  0
   -2.4520    0.9442    0.0163 C   0  0  0  0  0  0  0  0  0  0  0  0
   -2.7342   -0.3506    0.0262 N   0  0  0  0  0  0  0  0  0  0  0  0
   -0.0122    0.9632    0.0082 N   0  0  0  0  0  0  0  0  0  0  0  0
    1.2510    1.7051   -0.0065 C   0  0  0  0  0  0  0  0  0  0  0  0
    2.4036    0.7343   -0.0168 C   0  0  0  0  0  0  0  0  0  0  0  0
    2.9517    0.2932    1.1802 C   0  0  0  0  0  0  0  0  0  0  0  0
    4.0097   -0.6062    1.1669 C   0  0  0  0  0  0  0  0  0  0  0  0
    4.5225   -1.0511   -0.0362 C   0  0  0  0  0  0  0  0  0  0  0  0
    3.9799   -0.6070   -1.2274 C   0  0  0  0  0  0  0  0  0  0  0  0
    2.9207    0.2858   -1.2187 C   0  0  0  0  0  0  0  0  0  0  0  0
    2.3923    0.7182   -2.3845 F   0  0  0  0  0  0  0  0  0  0  0  0
    2.4347    0.7493    2.3981 N   0  0  0  0  0  0  0  0  0  0  0  0
    3.2091    0.7494    3.5011 C   0  0  0  0  0  0  0  0  0  0  0  0
    4.3841    0.4508    3.4186 O   0  0  0  0  0  0  0  0  0  0  0  0
    2.6808    1.0804    4.6946 O   0  0  0  0  0  0  0  0  0  0  0  0
    3.5736    1.0589    5.8395 C   0  0  0  0  0  0  0  0  0  0  0  0
   -6.1193    0.9976    0.0422 C   0  0  0  0  0  0  0  0  0  0  0  0
   -6.5946    1.0856   -1.3025 O   0  0  0  0  0  0  0  0  0  0  0  0
   -4.9680   -2.1505   -0.9843 H   0  0  0  0  0  0  0  0  0  0  0  0
   -4.1792   -2.5762    0.5535 H   0  0  0  0  0  0  0  0  0  0  0  0
   -5.7381   -1.7172    0.5608 H   0  0  0  0  0  0  0  0  0  0  0  0
   -4.5748    3.5366    0.0277 H   0  0  0  0  0  0  0  0  0  0  0  0
   -2.4957    4.7751    0.0150 H   0  0  0  0  0  0  0  0  0  0  0  0
   -0.3206    3.5750    0.0057 H   0  0  0  0  0  0  0  0  0  0  0  0
   -0.0050   -0.0068    0.0100 H   0  0  0  0  0  0  0  0  0  0  0  0
    1.2947    2.3304   -0.8983 H   0  0  0  0  0  0  0  0  0  0  0  0
    1.3135    2.3339    0.8816 H   0  0  0  0  0  0  0  0  0  0  0  0
    4.4344   -0.9543    2.0969 H   0  0  0  0  0  0  0  0  0  0  0  0
    5.3482   -1.7471   -0.0461 H   0  0  0  0  0  0  0  0  0  0  0  0
    4.3823   -0.9569   -2.1666 H   0  0  0  0  0  0  0  0  0  0  0  0
    1.5191    1.0654    2.4483 H   0  0  0  0  0  0  0  0  0  0  0  0
    3.9776    0.0545    5.9664 H   0  0  0  0  0  0  0  0  0  0  0  0
    4.3909    1.7613    5.6761 H   0  0  0  0  0  0  0  0  0  0  0  0
    3.0225    1.3448    6.7354 H   0  0  0  0  0  0  0  0  0  0  0  0
   -6.6424    0.1940    0.5606 H   0  0  0  0  0  0  0  0  0  0  0  0
   -6.3036    1.9415    0.5553 H   0  0  0  0  0  0  0  0  0  0  0  0
   -7.5414    1.2690   -1.3738 H   0  0  0  0  0  0  0  0  0  0  0  0
  1  2  1  0  0  0  0
  1 27  1  0  0  0  0
  1 28  1  0  0  0  0
  1 29  1  0  0  0  0
  2 10  1  0  0  0  0
  2  3  2  0  0  0  0
  3  4  1  0  0  0  0
  3 25  1  0  0  0  0
  4  9  1  0  0  0  0
  4  5  1  0  0  0  0
  5  6  2  0  0  0  0
  5 30  1  0  0  0  0
  6  7  1  0  0  0  0
  6 31  1  0  0  0  0
  7  8  2  0  0  0  0
  7 32  1  0  0  0  0
  8  9  1  0  0  0  0
  8 11  1  0  0  0  0
  9 10  2  0  0  0  0
 11 12  1  0  0  0  0
 11 33  1  0  0  0  0
 12 13  1  0  0  0  0
 12 34  1  0  0  0  0
 12 35  1  0  0  0  0
 13 18  2  0  0  0  0
 13 14  1  0  0  0  0
 14 15  2  0  0  0  0
 14 20  1  0  0  0  0
 15 16  1  0  0  0  0
 15 36  1  0  0  0  0
 16 17  2  0  0  0  0
 16 37  1  0  0  0  0
 17 18  1  0  0  0  0
 17 38  1  0  0  0  0
 18 19  1  0  0  0  0
 20 21  1  0  0  0  0
 20 39  1  0  0  0  0
 21 22  2  0  0  0  0
 21 23  1  0  0  0  0
 23 24  1  0  0  0  0
 24 40  1  0  0  0  0
 24 41  1  0  0  0  0
 24 42  1  0  0  0  0
 25 26  1  0  0  0  0
 25 43  1  0  0  0  0
 25 44  1  0  0  0  0
 26 45  1  0  0  0  0
M  END
$$$$
ZINC01485420
  -OEChem-08230709453D

 46 48  0     0  0  0  0  0  0999 V2000
   -4.7864   -1.8298    0.0415 C   0  0  0  0  0  0  0  0  0  0  0  0
   -4.0592   -0.5098    0.0338 C   0  0  0  0  0  0  0  0  0  0  0  0
   -4.6399    0.7107    0.0343 C   0  0  0  0  0  0  0  0  0  0  0  0
   -3.6333    1.6367    0.0267 N   0  0  0  0  0  0  0  0  0  0  0  0
   -3.6352    3.0040    0.0241 C   0  0  0  0  0  0  0  0  0  0  0  0
   -2.4767    3.6953    0.0166 C   0  0  0  0  0  0  0  0  0  0  0  0
   -1.2463    3.0186    0.0114 C   0  0  0  0  0  0  0  0  0  0  0  0
   -1.2267    1.6525    0.0139 C   0  0  0  0  0  0  0  0  0  0  0  0
   -2.4520    0.9442    0.0163 C   0  0  0  0  0  0  0  0  0  0  0  0
   -0.0122    0.9632    0.0082 N   0  0  0  0  0  0  0  0  0  0  0  0
    1.2510    1.7051   -0.0065 C   0  0  0  0  0  0  0  0  0  0  0  0
    2.4036    0.7343   -0.0168 C   0  0  0  0  0  0  0  0  0  0  0  0
    2.9517    0.2932    1.1802 C   0  0  0  0  0  0  0  0  0  0  0  0
    4.0097   -0.6062    1.1669 C   0  0  0  0  0  0  0  0  0  0  0  0
    4.5225   -1.0511   -0.0362 C   0  0  0  0  0  0  0  0  0  0  0  0
    3.9799   -0.6070   -1.2274 C   0  0  0  0  0  0  0  0  0  0  0  0
    2.9207    0.2858   -1.2187 C   0  0  0  0  0  0  0  0  0  0  0  0
    2.3923    0.7182   -2.3845 F   0  0  0  0  0  0  0  0  0  0  0  0
    2.4347    0.7493    2.3981 N   0  0  0  0  0  0  0  0  0  0  0  0
    3.2091    0.7494    3.5011 C   0  0  0  0  0  0  0  0  0  0  0  0
    4.3841    0.4508    3.4186 O   0  0  0  0  0  0  0  0  0  0  0  0
    2.6808    1.0804    4.6946 O   0  0  0  0  0  0  0  0  0  0  0  0
    3.5736    1.0589    5.8395 C   0  0  0  0  0  0  0  0  0  0  0  0
   -6.1193    0.9976    0.0422 C   0  0  0  0  0  0  0  0  0  0  0  0
   -6.5946    1.0856   -1.3025 O   0  0  0  0  0  0  0  0  0  0  0  0
   -4.9680   -2.1505   -0.9843 H   0  0  0  0  0  0  0  0  0  0  0  0
   -4.1792   -2.5762    0.5535 H   0  0  0  0  0  0  0  0  0  0  0  0
   -5.7381   -1.7172    0.5608 H   0  0  0  0  0  0  0  0  0  0  0  0
   -4.5748    3.5366    0.0277 H   0  0  0  0  0  0  0  0  0  0  0  0
   -2.4957    4.7751    0.0150 H   0  0  0  0  0  0  0  0  0  0  0  0
   -0.3206    3.5750    0.0057 H   0  0  0  0  0  0  0  0  0  0  0  0
   -0.0050   -0.0068    0.0100 H   0  0  0  0  0  0  0  0  0  0  0  0
    1.2947    2.3304   -0.8983 H   0  0  0  0  0  0  0  0  0  0  0  0
    1.3135    2.3339    0.8816 H   0  0  0  0  0  0  0  0  0  0  0  0
    4.4344   -0.9543    2.0969 H   0  0  0  0  0  0  0  0  0  0  0  0
    5.3482   -1.7471   -0.0461 H   0  0  0  0  0  0  0  0  0  0  0  0
    4.3823   -0.9569   -2.1666 H   0  0  0  0  0  0  0  0  0  0  0  0
    1.5191    1.0654    2.4483 H   0  0  0  0  0  0  0  0  0  0  0  0
    3.9776    0.0545    5.9664 H   0  0  0  0  0  0  0  0  0  0  0  0
    4.3909    1.7613    5.6761 H   0  0  0  0  0  0  0  0  0  0  0  0
    3.0225    1.3448    6.7354 H   0  0  0  0  0  0  0  0  0  0  0  0
   -6.6424    0.1940    0.5606 H   0  0  0  0  0  0  0  0  0  0  0  0
   -6.3036    1.9415    0.5553 H   0  0  0  0  0  0  0  0  0  0  0  0
   -7.5414    1.2690   -1.3738 H   0  0  0  0  0  0  0  0  0  0  0  0
   -2.7356   -0.3491    0.0262 N   0  3  0  0  0  0  0  0  0  0  0  0
   -2.0448   -1.1088    0.0278 H   0  0  0  0  0  0  0  0  0  0  0  0
  1  2  1  0  0  0  0
  1 26  1  0  0  0  0
  1 27  1  0  0  0  0
  1 28  1  0  0  0  0
  2  3  2  0  0  0  0
  2 45  1  0  0  0  0
  3  4  1  0  0  0  0
  3 24  1  0  0  0  0
  4  9  1  0  0  0  0
  4  5  1  0  0  0  0
  5  6  2  0  0  0  0
  5 29  1  0  0  0  0
  6  7  1  0  0  0  0
  6 30  1  0  0  0  0
  7  8  2  0  0  0  0
  7 31  1  0  0  0  0
  8  9  1  0  0  0  0
  8 10  1  0  0  0  0
  9 45  2  0  0  0  0
 10 11  1  0  0  0  0
 10 32  1  0  0  0  0
 11 12  1  0  0  0  0
 11 33  1  0  0  0  0
 11 34  1  0  0  0  0
 12 17  2  0  0  0  0
 12 13  1  0  0  0  0
 13 14  2  0  0  0  0
 13 19  1  0  0  0  0
 14 15  1  0  0  0  0
 14 35  1  0  0  0  0
 15 16  2  0  0  0  0
 15 36  1  0  0  0  0
 16 17  1  0  0  0  0
 16 37  1  0  0  0  0
 17 18  1  0  0  0  0
 19 20  1  0  0  0  0
 19 38  1  0  0  0  0
 20 21  2  0  0  0  0
 20 22  1  0  0  0  0
 22 23  1  0  0  0  0
 23 39  1  0  0  0  0
 23 40  1  0  0  0  0
 23 41  1  0  0  0  0
 24 25  1  0  0  0  0
 24 42  1  0  0  0  0
 24 43  1  0  0  0  0
 25 44  1  0  0  0  0
 45 46  1  0  0  0  0
M  CHG  1  45   1
M  END
$$$$
ZINC01485420
  -OEChem-08230709453D

 46 48  0     0  0  0  0  0  0999 V2000
   -4.7864   -1.8298    0.0415 C   0  0  0  0  0  0  0  0  0  0  0  0
   -4.0592   -0.5098    0.0338 C   0  0  0  0  0  0  0  0  0  0  0  0
   -4.6399    0.7107    0.0343 C   0  0  0  0  0  0  0  0  0  0  0  0
   -3.6333    1.6367    0.0267 N   0  0  0  0  0  0  0  0  0  0  0  0
   -3.6352    3.0040    0.0241 C   0  0  0  0  0  0  0  0  0  0  0  0
   -2.4767    3.6953    0.0166 C   0  0  0  0  0  0  0  0  0  0  0  0
   -1.2463    3.0186    0.0114 C   0  0  0  0  0  0  0  0  0  0  0  0
   -1.2267    1.6525    0.0139 C   0  0  0  0  0  0  0  0  0  0  0  0
   -2.4520    0.9442    0.0163 C   0  0  0  0  0  0  0  0  0  0  0  0
   -0.0122    0.9632    0.0082 N   0  0  0  0  0  0  0  0  0  0  0  0
    1.2510    1.7051   -0.0065 C   0  0  0  0  0  0  0  0  0  0  0  0
    2.4036    0.7343   -0.0168 C   0  0  0  0  0  0  0  0  0  0  0  0
    2.9517    0.2932    1.1802 C   0  0  0  0  0  0  0  0  0  0  0  0
    4.0097   -0.6062    1.1669 C   0  0  0  0  0  0  0  0  0  0  0  0
    4.5225   -1.0511   -0.0362 C   0  0  0  0  0  0  0  0  0  0  0  0
    3.9799   -0.6070   -1.2274 C   0  0  0  0  0  0  0  0  0  0  0  0
    2.9207    0.2858   -1.2187 C   0  0  0  0  0  0  0  0  0  0  0  0
    2.3923    0.7182   -2.3845 F   0  0  0  0  0  0  0  0  0  0  0  0
    2.4347    0.7493    2.3981 N   0  0  0  0  0  0  0  0  0  0  0  0
    3.2091    0.7494    3.5011 C   0  0  0  0  0  0  0  0  0  0  0  0
    4.3841    0.4508    3.4186 O   0  0  0  0  0  0  0  0  0  0  0  0
    2.6808    1.0804    4.6946 O   0  0  0  0  0  0  0  0  0  0  0  0
    3.5736    1.0589    5.8395 C   0  0  0  0  0  0  0  0  0  0  0  0
   -6.1193    0.9976    0.0422 C   0  0  0  0  0  0  0  0  0  0  0  0
   -6.5946    1.0856   -1.3025 O   0  0  0  0  0  0  0  0  0  0  0  0
   -4.9680   -2.1505   -0.9843 H   0  0  0  0  0  0  0  0  0  0  0  0
   -4.1792   -2.5762    0.5535 H   0  0  0  0  0  0  0  0  0  0  0  0
   -5.7381   -1.7172    0.5608 H   0  0  0  0  0  0  0  0  0  0  0  0
   -4.5748    3.5366    0.0277 H   0  0  0  0  0  0  0  0  0  0  0  0
   -2.4957    4.7751    0.0150 H   0  0  0  0  0  0  0  0  0  0  0  0
   -0.3206    3.5750    0.0057 H   0  0  0  0  0  0  0  0  0  0  0  0
   -0.0050   -0.0068    0.0100 H   0  0  0  0  0  0  0  0  0  0  0  0
    1.2947    2.3304   -0.8983 H   0  0  0  0  0  0  0  0  0  0  0  0
    1.3135    2.3339    0.8816 H   0  0  0  0  0  0  0  0  0  0  0  0
    4.4344   -0.9543    2.0969 H   0  0  0  0  0  0  0  0  0  0  0  0
    5.3482   -1.7471   -0.0461 H   0  0  0  0  0  0  0  0  0  0  0  0
    4.3823   -0.9569   -2.1666 H   0  0  0  0  0  0  0  0  0  0  0  0
    1.5191    1.0654    2.4483 H   0  0  0  0  0  0  0  0  0  0  0  0
    3.9776    0.0545    5.9664 H   0  0  0  0  0  0  0  0  0  0  0  0
    4.3909    1.7613    5.6761 H   0  0  0  0  0  0  0  0  0  0  0  0
    3.0225    1.3448    6.7354 H   0  0  0  0  0  0  0  0  0  0  0  0
   -6.6424    0.1940    0.5606 H   0  0  0  0  0  0  0  0  0  0  0  0
   -6.3036    1.9415    0.5553 H   0  0  0  0  0  0  0  0  0  0  0  0
   -7.5414    1.2690   -1.3738 H   0  0  0  0  0  0  0  0  0  0  0  0
   -2.7356   -0.3491    0.0262 N   0  3  0  0  0  0  0  0  0  0  0  0
   -2.0448   -1.1088    0.0278 H   0  0  0  0  0  0  0  0  0  0  0  0
  1  2  1  0  0  0  0
  1 26  1  0  0  0  0
  1 27  1  0  0  0  0
  1 28  1  0  0  0  0
  2  3  2  0  0  0  0
  2 45  1  0  0  0  0
  3  4  1  0  0  0  0
  3 24  1  0  0  0  0
  4  9  1  0  0  0  0
  4  5  1  0  0  0  0
  5  6  2  0  0  0  0
  5 29  1  0  0  0  0
  6  7  1  0  0  0  0
  6 30  1  0  0  0  0
  7  8  2  0  0  0  0
  7 31  1  0  0  0  0
  8  9  1  0  0  0  0
  8 10  1  0  0  0  0
  9 45  2  0  0  0  0
 10 11  1  0  0  0  0
 10 32  1  0  0  0  0
 11 12  1  0  0  0  0
 11 33  1  0  0  0  0
 11 34  1  0  0  0  0
 12 17  2  0  0  0  0
 12 13  1  0  0  0  0
 13 14  2  0  0  0  0
 13 19  1  0  0  0  0
 14 15  1  0  0  0  0
 14 35  1  0  0  0  0
 15 16  2  0  0  0  0
 15 36  1  0  0  0  0
 16 17  1  0  0  0  0
 16 37  1  0  0  0  0
 17 18  1  0  0  0  0
 19 20  1  0  0  0  0
 19 38  1  0  0  0  0
 20 21  2  0  0  0  0
 20 22  1  0  0  0  0
 22 23  1  0  0  0  0
 23 39  1  0  0  0  0
 23 40  1  0  0  0  0
 23 41  1  0  0  0  0
 24 25  1  0  0  0  0
 24 42  1  0  0  0  0
 24 43  1  0  0  0  0
 25 44  1  0  0  0  0
 45 46  1  0  0  0  0
M  CHG  1  45   1
M  END
$$$$
ZINC01485427
  -OEChem-08230709453D

 44 46  0     0  0  0  0  0  0999 V2000
   -5.6960   -0.5117   -6.5710 C   0  0  0  0  0  0  0  0  0  0  0  0
   -5.9296   -0.5216   -5.0822 C   0  0  0  0  0  0  0  0  0  0  0  0
   -7.0143   -0.0205   -4.4507 C   0  0  0  0  0  0  0  0  0  0  0  0
   -6.8344   -0.2299   -3.1110 N   0  0  0  0  0  0  0  0  0  0  0  0
   -7.5999    0.0667   -2.0184 C   0  0  0  0  0  0  0  0  0  0  0  0
   -7.1825   -0.2558   -0.7767 C   0  0  0  0  0  0  0  0  0  0  0  0
   -5.9511   -0.9045   -0.5881 C   0  0  0  0  0  0  0  0  0  0  0  0
   -5.1755   -1.2078   -1.6689 C   0  0  0  0  0  0  0  0  0  0  0  0
   -5.6259   -0.8572   -2.9623 C   0  0  0  0  0  0  0  0  0  0  0  0
   -5.1000   -1.0272   -4.1670 N   0  0  0  0  0  0  0  0  0  0  0  0
   -3.9811   -1.8349   -1.5035 O   0  0  0  0  0  0  0  0  0  0  0  0
   -3.5939   -2.1505   -0.1647 C   0  0  0  0  0  0  0  0  0  0  0  0
   -2.2526   -2.8373   -0.1783 C   0  0  0  0  0  0  0  0  0  0  0  0
   -1.0870   -2.0879   -0.0914 C   0  0  0  0  0  0  0  0  0  0  0  0
    0.1470   -2.7246   -0.0989 C   0  0  0  0  0  0  0  0  0  0  0  0
    0.2132   -4.1009   -0.1980 C   0  0  0  0  0  0  0  0  0  0  0  0
   -0.9476   -4.8457   -0.2902 C   0  0  0  0  0  0  0  0  0  0  0  0
   -2.1808   -4.2146   -0.2826 C   0  0  0  0  0  0  0  0  0  0  0  0
   -3.3137   -4.9450   -0.3724 F   0  0  0  0  0  0  0  0  0  0  0  0
   -1.1558   -0.6938    0.0094 N   0  0  0  0  0  0  0  0  0  0  0  0
   -0.1470   -0.0090    0.5838 C   0  0  0  0  0  0  0  0  0  0  0  0
    0.7736   -0.6067    1.1050 O   0  0  0  0  0  0  0  0  0  0  0  0
   -0.1594    1.3374    0.5800 O   0  0  0  0  0  0  0  0  0  0  0  0
    0.9596    2.0086    1.2169 C   0  0  0  0  0  0  0  0  0  0  0  0
   -8.2001    0.6446   -5.1008 C   0  0  0  0  0  0  0  0  0  0  0  0
   -7.9618    2.0500   -5.2018 O   0  0  0  0  0  0  0  0  0  0  0  0
   -5.1722    0.4024   -6.8505 H   0  0  0  0  0  0  0  0  0  0  0  0
   -5.0929   -1.3758   -6.8499 H   0  0  0  0  0  0  0  0  0  0  0  0
   -6.6539   -0.5546   -7.0893 H   0  0  0  0  0  0  0  0  0  0  0  0
   -8.5490    0.5651   -2.1503 H   0  0  0  0  0  0  0  0  0  0  0  0
   -7.7987   -0.0144    0.0768 H   0  0  0  0  0  0  0  0  0  0  0  0
   -5.6200   -1.1621    0.4071 H   0  0  0  0  0  0  0  0  0  0  0  0
   -4.3363   -2.8120    0.2819 H   0  0  0  0  0  0  0  0  0  0  0  0
   -3.5264   -1.2329    0.4198 H   0  0  0  0  0  0  0  0  0  0  0  0
    1.0549   -2.1439   -0.0277 H   0  0  0  0  0  0  0  0  0  0  0  0
    1.1732   -4.5956   -0.2038 H   0  0  0  0  0  0  0  0  0  0  0  0
   -0.8930   -5.9215   -0.3679 H   0  0  0  0  0  0  0  0  0  0  0  0
   -1.9296   -0.2203   -0.3342 H   0  0  0  0  0  0  0  0  0  0  0  0
    1.0072    1.7191    2.2667 H   0  0  0  0  0  0  0  0  0  0  0  0
    1.8860    1.7228    0.7188 H   0  0  0  0  0  0  0  0  0  0  0  0
    0.8255    3.0879    1.1434 H   0  0  0  0  0  0  0  0  0  0  0  0
   -8.3487    0.2288   -6.0974 H   0  0  0  0  0  0  0  0  0  0  0  0
   -9.0908    0.4695   -4.4975 H   0  0  0  0  0  0  0  0  0  0  0  0
   -8.6856    2.5432   -5.6117 H   0  0  0  0  0  0  0  0  0  0  0  0
  1  2  1  0  0  0  0
  1 27  1  0  0  0  0
  1 28  1  0  0  0  0
  1 29  1  0  0  0  0
  2 10  1  0  0  0  0
  2  3  2  0  0  0  0
  3  4  1  0  0  0  0
  3 25  1  0  0  0  0
  4  9  1  0  0  0  0
  4  5  1  0  0  0  0
  5  6  2  0  0  0  0
  5 30  1  0  0  0  0
  6  7  1  0  0  0  0
  6 31  1  0  0  0  0
  7  8  2  0  0  0  0
  7 32  1  0  0  0  0
  8  9  1  0  0  0  0
  8 11  1  0  0  0  0
  9 10  2  0  0  0  0
 11 12  1  0  0  0  0
 12 13  1  0  0  0  0
 12 33  1  0  0  0  0
 12 34  1  0  0  0  0
 13 18  2  0  0  0  0
 13 14  1  0  0  0  0
 14 15  2  0  0  0  0
 14 20  1  0  0  0  0
 15 16  1  0  0  0  0
 15 35  1  0  0  0  0
 16 17  2  0  0  0  0
 16 36  1  0  0  0  0
 17 18  1  0  0  0  0
 17 37  1  0  0  0  0
 18 19  1  0  0  0  0
 20 21  1  0  0  0  0
 20 38  1  0  0  0  0
 21 22  2  0  0  0  0
 21 23  1  0  0  0  0
 23 24  1  0  0  0  0
 24 39  1  0  0  0  0
 24 40  1  0  0  0  0
 24 41  1  0  0  0  0
 25 26  1  0  0  0  0
 25 42  1  0  0  0  0
 25 43  1  0  0  0  0
 26 44  1  0  0  0  0
M  END
$$$$
ZINC01485427
  -OEChem-08230709453D

 45 47  0     0  0  0  0  0  0999 V2000
   -5.6960   -0.5117   -6.5710 C   0  0  0  0  0  0  0  0  0  0  0  0
   -5.9296   -0.5216   -5.0822 C   0  0  0  0  0  0  0  0  0  0  0  0
   -7.0143   -0.0205   -4.4507 C   0  0  0  0  0  0  0  0  0  0  0  0
   -6.8344   -0.2299   -3.1110 N   0  0  0  0  0  0  0  0  0  0  0  0
   -7.5999    0.0667   -2.0184 C   0  0  0  0  0  0  0  0  0  0  0  0
   -7.1825   -0.2558   -0.7767 C   0  0  0  0  0  0  0  0  0  0  0  0
   -5.9511   -0.9045   -0.5881 C   0  0  0  0  0  0  0  0  0  0  0  0
   -5.1755   -1.2078   -1.6689 C   0  0  0  0  0  0  0  0  0  0  0  0
   -5.6259   -0.8572   -2.9623 C   0  0  0  0  0  0  0  0  0  0  0  0
   -3.9811   -1.8349   -1.5035 O   0  0  0  0  0  0  0  0  0  0  0  0
   -3.5939   -2.1505   -0.1647 C   0  0  0  0  0  0  0  0  0  0  0  0
   -2.2526   -2.8373   -0.1783 C   0  0  0  0  0  0  0  0  0  0  0  0
   -1.0870   -2.0879   -0.0914 C   0  0  0  0  0  0  0  0  0  0  0  0
    0.1470   -2.7246   -0.0989 C   0  0  0  0  0  0  0  0  0  0  0  0
    0.2132   -4.1009   -0.1980 C   0  0  0  0  0  0  0  0  0  0  0  0
   -0.9476   -4.8457   -0.2902 C   0  0  0  0  0  0  0  0  0  0  0  0
   -2.1808   -4.2146   -0.2826 C   0  0  0  0  0  0  0  0  0  0  0  0
   -3.3137   -4.9450   -0.3724 F   0  0  0  0  0  0  0  0  0  0  0  0
   -1.1558   -0.6938    0.0094 N   0  0  0  0  0  0  0  0  0  0  0  0
   -0.1470   -0.0090    0.5838 C   0  0  0  0  0  0  0  0  0  0  0  0
    0.7736   -0.6067    1.1050 O   0  0  0  0  0  0  0  0  0  0  0  0
   -0.1594    1.3374    0.5800 O   0  0  0  0  0  0  0  0  0  0  0  0
    0.9596    2.0086    1.2169 C   0  0  0  0  0  0  0  0  0  0  0  0
   -8.2001    0.6446   -5.1008 C   0  0  0  0  0  0  0  0  0  0  0  0
   -7.9618    2.0500   -5.2018 O   0  0  0  0  0  0  0  0  0  0  0  0
   -5.1722    0.4024   -6.8505 H   0  0  0  0  0  0  0  0  0  0  0  0
   -5.0929   -1.3758   -6.8499 H   0  0  0  0  0  0  0  0  0  0  0  0
   -6.6539   -0.5546   -7.0893 H   0  0  0  0  0  0  0  0  0  0  0  0
   -8.5490    0.5651   -2.1503 H   0  0  0  0  0  0  0  0  0  0  0  0
   -7.7987   -0.0144    0.0768 H   0  0  0  0  0  0  0  0  0  0  0  0
   -5.6200   -1.1621    0.4071 H   0  0  0  0  0  0  0  0  0  0  0  0
   -4.3363   -2.8120    0.2819 H   0  0  0  0  0  0  0  0  0  0  0  0
   -3.5264   -1.2329    0.4198 H   0  0  0  0  0  0  0  0  0  0  0  0
    1.0549   -2.1439   -0.0277 H   0  0  0  0  0  0  0  0  0  0  0  0
    1.1732   -4.5956   -0.2038 H   0  0  0  0  0  0  0  0  0  0  0  0
   -0.8930   -5.9215   -0.3679 H   0  0  0  0  0  0  0  0  0  0  0  0
   -1.9296   -0.2203   -0.3342 H   0  0  0  0  0  0  0  0  0  0  0  0
    1.0072    1.7191    2.2667 H   0  0  0  0  0  0  0  0  0  0  0  0
    1.8860    1.7228    0.7188 H   0  0  0  0  0  0  0  0  0  0  0  0
    0.8255    3.0879    1.1434 H   0  0  0  0  0  0  0  0  0  0  0  0
   -8.3487    0.2288   -6.0974 H   0  0  0  0  0  0  0  0  0  0  0  0
   -9.0908    0.4695   -4.4975 H   0  0  0  0  0  0  0  0  0  0  0  0
   -8.6856    2.5432   -5.6117 H   0  0  0  0  0  0  0  0  0  0  0  0
   -5.1018   -1.0263   -4.1666 N   0  3  0  0  0  0  0  0  0  0  0  0
   -4.1999   -1.4754   -4.3643 H   0  0  0  0  0  0  0  0  0  0  0  0
  1  2  1  0  0  0  0
  1 26  1  0  0  0  0
  1 27  1  0  0  0  0
  1 28  1  0  0  0  0
  2  3  2  0  0  0  0
  2 44  1  0  0  0  0
  3  4  1  0  0  0  0
  3 24  1  0  0  0  0
  4  9  1  0  0  0  0
  4  5  1  0  0  0  0
  5  6  2  0  0  0  0
  5 29  1  0  0  0  0
  6  7  1  0  0  0  0
  6 30  1  0  0  0  0
  7  8  2  0  0  0  0
  7 31  1  0  0  0  0
  8  9  1  0  0  0  0
  8 10  1  0  0  0  0
  9 44  2  0  0  0  0
 10 11  1  0  0  0  0
 11 12  1  0  0  0  0
 11 32  1  0  0  0  0
 11 33  1  0  0  0  0
 12 17  2  0  0  0  0
 12 13  1  0  0  0  0
 13 14  2  0  0  0  0
 13 19  1  0  0  0  0
 14 15  1  0  0  0  0
 14 34  1  0  0  0  0
 15 16  2  0  0  0  0
 15 35  1  0  0  0  0
 16 17  1  0  0  0  0
 16 36  1  0  0  0  0
 17 18  1  0  0  0  0
 19 20  1  0  0  0  0
 19 37  1  0  0  0  0
 20 21  2  0  0  0  0
 20 22  1  0  0  0  0
 22 23  1  0  0  0  0
 23 38  1  0  0  0  0
 23 39  1  0  0  0  0
 23 40  1  0  0  0  0
 24 25  1  0  0  0  0
 24 41  1  0  0  0  0
 24 42  1  0  0  0  0
 25 43  1  0  0  0  0
 44 45  1  0  0  0  0
M  CHG  1  44   1
M  END
$$$$
ZINC01485427
  -OEChem-08230709453D

 45 47  0     0  0  0  0  0  0999 V2000
   -5.6960   -0.5117   -6.5710 C   0  0  0  0  0  0  0  0  0  0  0  0
   -5.9296   -0.5216   -5.0822 C   0  0  0  0  0  0  0  0  0  0  0  0
   -7.0143   -0.0205   -4.4507 C   0  0  0  0  0  0  0  0  0  0  0  0
   -6.8344   -0.2299   -3.1110 N   0  0  0  0  0  0  0  0  0  0  0  0
   -7.5999    0.0667   -2.0184 C   0  0  0  0  0  0  0  0  0  0  0  0
   -7.1825   -0.2558   -0.7767 C   0  0  0  0  0  0  0  0  0  0  0  0
   -5.9511   -0.9045   -0.5881 C   0  0  0  0  0  0  0  0  0  0  0  0
   -5.1755   -1.2078   -1.6689 C   0  0  0  0  0  0  0  0  0  0  0  0
   -5.6259   -0.8572   -2.9623 C   0  0  0  0  0  0  0  0  0  0  0  0
   -3.9811   -1.8349   -1.5035 O   0  0  0  0  0  0  0  0  0  0  0  0
   -3.5939   -2.1505   -0.1647 C   0  0  0  0  0  0  0  0  0  0  0  0
   -2.2526   -2.8373   -0.1783 C   0  0  0  0  0  0  0  0  0  0  0  0
   -1.0870   -2.0879   -0.0914 C   0  0  0  0  0  0  0  0  0  0  0  0
    0.1470   -2.7246   -0.0989 C   0  0  0  0  0  0  0  0  0  0  0  0
    0.2132   -4.1009   -0.1980 C   0  0  0  0  0  0  0  0  0  0  0  0
   -0.9476   -4.8457   -0.2902 C   0  0  0  0  0  0  0  0  0  0  0  0
   -2.1808   -4.2146   -0.2826 C   0  0  0  0  0  0  0  0  0  0  0  0
   -3.3137   -4.9450   -0.3724 F   0  0  0  0  0  0  0  0  0  0  0  0
   -1.1558   -0.6938    0.0094 N   0  0  0  0  0  0  0  0  0  0  0  0
   -0.1470   -0.0090    0.5838 C   0  0  0  0  0  0  0  0  0  0  0  0
    0.7736   -0.6067    1.1050 O   0  0  0  0  0  0  0  0  0  0  0  0
   -0.1594    1.3374    0.5800 O   0  0  0  0  0  0  0  0  0  0  0  0
    0.9596    2.0086    1.2169 C   0  0  0  0  0  0  0  0  0  0  0  0
   -8.2001    0.6446   -5.1008 C   0  0  0  0  0  0  0  0  0  0  0  0
   -7.9618    2.0500   -5.2018 O   0  0  0  0  0  0  0  0  0  0  0  0
   -5.1722    0.4024   -6.8505 H   0  0  0  0  0  0  0  0  0  0  0  0
   -5.0929   -1.3758   -6.8499 H   0  0  0  0  0  0  0  0  0  0  0  0
   -6.6539   -0.5546   -7.0893 H   0  0  0  0  0  0  0  0  0  0  0  0
   -8.5490    0.5651   -2.1503 H   0  0  0  0  0  0  0  0  0  0  0  0
   -7.7987   -0.0144    0.0768 H   0  0  0  0  0  0  0  0  0  0  0  0
   -5.6200   -1.1621    0.4071 H   0  0  0  0  0  0  0  0  0  0  0  0
   -4.3363   -2.8120    0.2819 H   0  0  0  0  0  0  0  0  0  0  0  0
   -3.5264   -1.2329    0.4198 H   0  0  0  0  0  0  0  0  0  0  0  0
    1.0549   -2.1439   -0.0277 H   0  0  0  0  0  0  0  0  0  0  0  0
    1.1732   -4.5956   -0.2038 H   0  0  0  0  0  0  0  0  0  0  0  0
   -0.8930   -5.9215   -0.3679 H   0  0  0  0  0  0  0  0  0  0  0  0
   -1.9296   -0.2203   -0.3342 H   0  0  0  0  0  0  0  0  0  0  0  0
    1.0072    1.7191    2.2667 H   0  0  0  0  0  0  0  0  0  0  0  0
    1.8860    1.7228    0.7188 H   0  0  0  0  0  0  0  0  0  0  0  0
    0.8255    3.0879    1.1434 H   0  0  0  0  0  0  0  0  0  0  0  0
   -8.3487    0.2288   -6.0974 H   0  0  0  0  0  0  0  0  0  0  0  0
   -9.0908    0.4695   -4.4975 H   0  0  0  0  0  0  0  0  0  0  0  0
   -8.6856    2.5432   -5.6117 H   0  0  0  0  0  0  0  0  0  0  0  0
   -5.1018   -1.0263   -4.1666 N   0  3  0  0  0  0  0  0  0  0  0  0
   -4.1999   -1.4754   -4.3643 H   0  0  0  0  0  0  0  0  0  0  0  0
  1  2  1  0  0  0  0
  1 26  1  0  0  0  0
  1 27  1  0  0  0  0
  1 28  1  0  0  0  0
  2  3  2  0  0  0  0
  2 44  1  0  0  0  0
  3  4  1  0  0  0  0
  3 24  1  0  0  0  0
  4  9  1  0  0  0  0
  4  5  1  0  0  0  0
  5  6  2  0  0  0  0
  5 29  1  0  0  0  0
  6  7  1  0  0  0  0
  6 30  1  0  0  0  0
  7  8  2  0  0  0  0
  7 31  1  0  0  0  0
  8  9  1  0  0  0  0
  8 10  1  0  0  0  0
  9 44  2  0  0  0  0
 10 11  1  0  0  0  0
 11 12  1  0  0  0  0
 11 32  1  0  0  0  0
 11 33  1  0  0  0  0
 12 17  2  0  0  0  0
 12 13  1  0  0  0  0
 13 14  2  0  0  0  0
 13 19  1  0  0  0  0
 14 15  1  0  0  0  0
 14 34  1  0  0  0  0
 15 16  2  0  0  0  0
 15 35  1  0  0  0  0
 16 17  1  0  0  0  0
 16 36  1  0  0  0  0
 17 18  1  0  0  0  0
 19 20  1  0  0  0  0
 19 37  1  0  0  0  0
 20 21  2  0  0  0  0
 20 22  1  0  0  0  0
 22 23  1  0  0  0  0
 23 38  1  0  0  0  0
 23 39  1  0  0  0  0
 23 40  1  0  0  0  0
 24 25  1  0  0  0  0
 24 41  1  0  0  0  0
 24 42  1  0  0  0  0
 25 43  1  0  0  0  0
 44 45  1  0  0  0  0
M  CHG  1  44   1
M  END
$$$$
ZINC01487632
  -OEChem-08230709453D

 44 46  0     0  0  0  0  0  0999 V2000
   -0.0127    1.0858    0.0080 C   0  0  0  0  0  0  0  0  0  0  0  0
   -0.7288    1.5792    1.2668 C   0  0  0  0  0  0  0  0  0  0  0  0
   -0.7496    3.1091    1.2752 C   0  0  0  0  0  0  0  0  0  0  0  0
   -0.0203    1.0939    2.4537 N   0  0  0  0  0  0  0  0  0  0  0  0
   -0.5434    0.2856    3.4511 C   0  0  0  0  0  0  0  0  0  0  0  0
   -1.7771   -0.3014    3.6590 C   0  0  0  0  0  0  0  0  0  0  0  0
   -1.9841   -1.0875    4.7939 C   0  0  0  0  0  0  0  0  0  0  0  0
   -0.9437   -1.2829    5.7128 C   0  0  0  0  0  0  0  0  0  0  0  0
    0.2754   -0.7105    5.5086 C   0  0  0  0  0  0  0  0  0  0  0  0
    0.4987    0.0804    4.3747 C   0  0  0  0  0  0  0  0  0  0  0  0
    1.5774    0.7612    3.9155 N   0  0  0  0  0  0  0  0  0  0  0  0
    1.2764    1.3578    2.7873 C   0  0  0  0  0  0  0  0  0  0  0  0
    2.1405    2.1354    2.0486 N   0  0  0  0  0  0  0  0  0  0  0  0
   -3.2996   -1.7139    5.0262 C   0  0  0  0  0  0  0  0  0  0  0  0
   -4.3966   -0.9335    5.2538 C   0  0  0  0  0  0  0  0  0  0  0  0
   -5.6558   -1.5331    5.4762 C   0  0  0  0  0  0  0  0  0  0  0  0
   -5.7631   -2.7464    5.4650 O   0  0  0  0  0  0  0  0  0  0  0  0
   -6.7387   -0.7628    5.7008 N   0  0  0  0  0  0  0  0  0  0  0  0
   -3.4298   -3.1857    5.0126 C   0  0  0  0  0  0  0  0  0  0  0  0
   -4.0141   -3.8284    3.9186 C   0  0  0  0  0  0  0  0  0  0  0  0
   -4.1332   -5.2018    3.9110 C   0  0  0  0  0  0  0  0  0  0  0  0
   -3.6756   -5.9472    4.9841 C   0  0  0  0  0  0  0  0  0  0  0  0
   -3.0945   -5.3204    6.0731 C   0  0  0  0  0  0  0  0  0  0  0  0
   -2.9635   -3.9419    6.0920 C   0  0  0  0  0  0  0  0  0  0  0  0
   -2.3916   -3.3298    7.1518 F   0  0  0  0  0  0  0  0  0  0  0  0
   -2.6500   -6.0548    7.1163 F   0  0  0  0  0  0  0  0  0  0  0  0
    0.0021   -0.0041    0.0020 H   0  0  0  0  0  0  0  0  0  0  0  0
    1.0099    1.4631    0.0003 H   0  0  0  0  0  0  0  0  0  0  0  0
   -0.5399    1.4469   -0.8751 H   0  0  0  0  0  0  0  0  0  0  0  0
   -1.7514    1.2020    1.2746 H   0  0  0  0  0  0  0  0  0  0  0  0
   -1.2768    3.4701    0.3922 H   0  0  0  0  0  0  0  0  0  0  0  0
   -1.2598    3.4606    2.1720 H   0  0  0  0  0  0  0  0  0  0  0  0
    0.2730    3.4864    1.2675 H   0  0  0  0  0  0  0  0  0  0  0  0
   -2.5775   -0.1493    2.9501 H   0  0  0  0  0  0  0  0  0  0  0  0
   -1.1098   -1.8922    6.5890 H   0  0  0  0  0  0  0  0  0  0  0  0
    1.0710   -0.8671    6.2220 H   0  0  0  0  0  0  0  0  0  0  0  0
    1.8395    2.5434    1.2217 H   0  0  0  0  0  0  0  0  0  0  0  0
    3.0501    2.2749    2.3554 H   0  0  0  0  0  0  0  0  0  0  0  0
   -4.3015    0.1422    5.2637 H   0  0  0  0  0  0  0  0  0  0  0  0
   -6.6532    0.2033    5.7098 H   0  0  0  0  0  0  0  0  0  0  0  0
   -7.6036   -1.1747    5.8536 H   0  0  0  0  0  0  0  0  0  0  0  0
   -4.3725   -3.2500    3.0799 H   0  0  0  0  0  0  0  0  0  0  0  0
   -4.5854   -5.6980    3.0650 H   0  0  0  0  0  0  0  0  0  0  0  0
   -3.7721   -7.0228    4.9715 H   0  0  0  0  0  0  0  0  0  0  0  0
  1  2  1  0  0  0  0
  1 27  1  0  0  0  0
  1 28  1  0  0  0  0
  1 29  1  0  0  0  0
  2  3  1  0  0  0  0
  2  4  1  0  0  0  0
  2 30  1  0  0  0  0
  3 31  1  0  0  0  0
  3 32  1  0  0  0  0
  3 33  1  0  0  0  0
  4 12  1  0  0  0  0
  4  5  1  0  0  0  0
  5 10  2  0  0  0  0
  5  6  1  0  0  0  0
  6  7  2  0  0  0  0
  6 34  1  0  0  0  0
  7  8  1  0  0  0  0
  7 14  1  0  0  0  0
  8  9  2  0  0  0  0
  8 35  1  0  0  0  0
  9 10  1  0  0  0  0
  9 36  1  0  0  0  0
 10 11  1  0  0  0  0
 11 12  2  0  0  0  0
 12 13  1  0  0  0  0
 13 37  1  0  0  0  0
 13 38  1  0  0  0  0
 14 15  2  0  0  0  0
 14 19  1  0  0  0  0
 15 16  1  0  0  0  0
 15 39  1  0  0  0  0
 16 17  2  0  0  0  0
 16 18  1  0  0  0  0
 18 40  1  0  0  0  0
 18 41  1  0  0  0  0
 19 24  2  0  0  0  0
 19 20  1  0  0  0  0
 20 21  2  0  0  0  0
 20 42  1  0  0  0  0
 21 22  1  0  0  0  0
 21 43  1  0  0  0  0
 22 23  2  0  0  0  0
 22 44  1  0  0  0  0
 23 24  1  0  0  0  0
 23 26  1  0  0  0  0
 24 25  1  0  0  0  0
M  END
$$$$
ZINC01487632
  -OEChem-08230709453D

 45 47  0     0  0  0  0  0  0999 V2000
   -0.0127    1.0858    0.0080 C   0  0  0  0  0  0  0  0  0  0  0  0
   -0.7288    1.5792    1.2668 C   0  0  0  0  0  0  0  0  0  0  0  0
   -0.7496    3.1091    1.2752 C   0  0  0  0  0  0  0  0  0  0  0  0
   -0.0203    1.0939    2.4537 N   0  0  0  0  0  0  0  0  0  0  0  0
   -0.5434    0.2856    3.4511 C   0  0  0  0  0  0  0  0  0  0  0  0
   -1.7771   -0.3014    3.6590 C   0  0  0  0  0  0  0  0  0  0  0  0
   -1.9841   -1.0875    4.7939 C   0  0  0  0  0  0  0  0  0  0  0  0
   -0.9437   -1.2829    5.7128 C   0  0  0  0  0  0  0  0  0  0  0  0
    0.2754   -0.7105    5.5086 C   0  0  0  0  0  0  0  0  0  0  0  0
    0.4987    0.0804    4.3747 C   0  0  0  0  0  0  0  0  0  0  0  0
    1.2764    1.3578    2.7873 C   0  0  0  0  0  0  0  0  0  0  0  0
    2.1405    2.1354    2.0486 N   0  0  0  0  0  0  0  0  0  0  0  0
   -3.2996   -1.7139    5.0262 C   0  0  0  0  0  0  0  0  0  0  0  0
   -4.3966   -0.9335    5.2538 C   0  0  0  0  0  0  0  0  0  0  0  0
   -5.6558   -1.5331    5.4762 C   0  0  0  0  0  0  0  0  0  0  0  0
   -5.7631   -2.7464    5.4650 O   0  0  0  0  0  0  0  0  0  0  0  0
   -6.7387   -0.7628    5.7008 N   0  0  0  0  0  0  0  0  0  0  0  0
   -3.4298   -3.1857    5.0126 C   0  0  0  0  0  0  0  0  0  0  0  0
   -4.0141   -3.8284    3.9186 C   0  0  0  0  0  0  0  0  0  0  0  0
   -4.1332   -5.2018    3.9110 C   0  0  0  0  0  0  0  0  0  0  0  0
   -3.6756   -5.9472    4.9841 C   0  0  0  0  0  0  0  0  0  0  0  0
   -3.0945   -5.3204    6.0731 C   0  0  0  0  0  0  0  0  0  0  0  0
   -2.9635   -3.9419    6.0920 C   0  0  0  0  0  0  0  0  0  0  0  0
   -2.3916   -3.3298    7.1518 F   0  0  0  0  0  0  0  0  0  0  0  0
   -2.6500   -6.0548    7.1163 F   0  0  0  0  0  0  0  0  0  0  0  0
    0.0021   -0.0041    0.0020 H   0  0  0  0  0  0  0  0  0  0  0  0
    1.0099    1.4631    0.0003 H   0  0  0  0  0  0  0  0  0  0  0  0
   -0.5399    1.4469   -0.8751 H   0  0  0  0  0  0  0  0  0  0  0  0
   -1.7514    1.2020    1.2746 H   0  0  0  0  0  0  0  0  0  0  0  0
   -1.2768    3.4701    0.3922 H   0  0  0  0  0  0  0  0  0  0  0  0
   -1.2598    3.4606    2.1720 H   0  0  0  0  0  0  0  0  0  0  0  0
    0.2730    3.4864    1.2675 H   0  0  0  0  0  0  0  0  0  0  0  0
   -2.5775   -0.1493    2.9501 H   0  0  0  0  0  0  0  0  0  0  0  0
   -1.1098   -1.8922    6.5890 H   0  0  0  0  0  0  0  0  0  0  0  0
    1.0710   -0.8671    6.2220 H   0  0  0  0  0  0  0  0  0  0  0  0
    1.8395    2.5434    1.2217 H   0  0  0  0  0  0  0  0  0  0  0  0
    3.0501    2.2749    2.3554 H   0  0  0  0  0  0  0  0  0  0  0  0
   -4.3015    0.1422    5.2637 H   0  0  0  0  0  0  0  0  0  0  0  0
   -6.6532    0.2033    5.7098 H   0  0  0  0  0  0  0  0  0  0  0  0
   -7.6036   -1.1747    5.8536 H   0  0  0  0  0  0  0  0  0  0  0  0
   -4.3725   -3.2500    3.0799 H   0  0  0  0  0  0  0  0  0  0  0  0
   -4.5854   -5.6980    3.0650 H   0  0  0  0  0  0  0  0  0  0  0  0
   -3.7721   -7.0228    4.9715 H   0  0  0  0  0  0  0  0  0  0  0  0
    1.5788    0.7613    3.9162 N   0  3  0  0  0  0  0  0  0  0  0  0
    2.4931    0.8034    4.3814 H   0  0  0  0  0  0  0  0  0  0  0  0
  1  2  1  0  0  0  0
  1 26  1  0  0  0  0
  1 27  1  0  0  0  0
  1 28  1  0  0  0  0
  2  3  1  0  0  0  0
  2  4  1  0  0  0  0
  2 29  1  0  0  0  0
  3 30  1  0  0  0  0
  3 31  1  0  0  0  0
  3 32  1  0  0  0  0
  4 11  1  0  0  0  0
  4  5  1  0  0  0  0
  5 10  2  0  0  0  0
  5  6  1  0  0  0  0
  6  7  2  0  0  0  0
  6 33  1  0  0  0  0
  7  8  1  0  0  0  0
  7 13  1  0  0  0  0
  8  9  2  0  0  0  0
  8 34  1  0  0  0  0
  9 10  1  0  0  0  0
  9 35  1  0  0  0  0
 10 44  1  0  0  0  0
 11 12  1  0  0  0  0
 11 44  2  0  0  0  0
 12 36  1  0  0  0  0
 12 37  1  0  0  0  0
 13 14  2  0  0  0  0
 13 18  1  0  0  0  0
 14 15  1  0  0  0  0
 14 38  1  0  0  0  0
 15 16  2  0  0  0  0
 15 17  1  0  0  0  0
 17 39  1  0  0  0  0
 17 40  1  0  0  0  0
 18 23  2  0  0  0  0
 18 19  1  0  0  0  0
 19 20  2  0  0  0  0
 19 41  1  0  0  0  0
 20 21  1  0  0  0  0
 20 42  1  0  0  0  0
 21 22  2  0  0  0  0
 21 43  1  0  0  0  0
 22 23  1  0  0  0  0
 22 25  1  0  0  0  0
 23 24  1  0  0  0  0
 44 45  1  0  0  0  0
M  CHG  1  44   1
M  END
$$$$
ZINC01490039
  -OEChem-08230709453D

 47 49  0     1  0  0  0  0  0999 V2000
    4.2399    2.4360   -1.1075 C   0  0  0  0  0  0  0  0  0  0  0  0
    3.7566    1.8396    0.2160 C   0  0  2  0  0  0  0  0  0  0  0  0
    3.5975    2.5750    0.8746 H   0  0  0  0  0  0  0  0  0  0  0  0
    4.8038    0.8998    0.7556 C   0  0  0  0  0  0  0  0  0  0  0  0
    5.1859   -0.2044    0.0145 C   0  0  0  0  0  0  0  0  0  0  0  0
    6.1474   -1.0660    0.5006 C   0  0  0  0  0  0  0  0  0  0  0  0
    6.7274   -0.8277    1.7476 C   0  0  0  0  0  0  0  0  0  0  0  0
    6.3336    0.2851    2.4924 C   0  0  0  0  0  0  0  0  0  0  0  0
    5.3747    1.1417    1.9924 C   0  0  0  0  0  0  0  0  0  0  0  0
    7.7540   -1.7503    2.2774 C   0  0  0  0  0  0  0  0  0  0  0  0
    8.2571   -1.5405    3.3638 O   0  0  0  0  0  0  0  0  0  0  0  0
    8.1322   -2.8239    1.5557 N   0  0  0  0  0  0  0  0  0  0  0  0
    9.1154   -3.7075    2.0631 O   0  0  0  0  0  0  0  0  0  0  0  0
    2.4731    1.0837   -0.0126 C   0  0  0  0  0  0  0  0  0  0  0  0
    2.5006   -0.1132   -0.2083 O   0  0  0  0  0  0  0  0  0  0  0  0
    1.1898    1.7955    0.0016 C   0  0  0  0  0  0  0  0  0  0  0  0
    1.1558    3.1774    0.2278 C   0  0  0  0  0  0  0  0  0  0  0  0
   -0.0385    3.8391    0.2414 C   0  0  0  0  0  0  0  0  0  0  0  0
   -1.2271    3.1455    0.0308 C   0  0  0  0  0  0  0  0  0  0  0  0
   -1.2047    1.7702   -0.2013 C   0  0  0  0  0  0  0  0  0  0  0  0
   -0.0049    1.0944   -0.2108 C   0  0  0  0  0  0  0  0  0  0  0  0
   -2.3594    1.1009   -0.4109 F   0  0  0  0  0  0  0  0  0  0  0  0
   -2.4392    3.8264    0.0460 N   0  0  0  0  0  0  0  0  0  0  0  0
   -2.2241    5.2947    0.1099 C   0  0  0  0  0  0  0  0  0  0  0  0
   -3.5669    5.8724   -0.4038 C   0  0  0  0  0  0  0  0  0  0  0  0
   -3.9649    4.8807   -1.5210 C   0  0  0  0  0  0  0  0  0  0  0  0
   -3.1990    3.5840   -1.1995 C   0  0  0  0  0  0  0  0  0  0  0  0
    5.1682    2.9827   -0.9422 H   0  0  0  0  0  0  0  0  0  0  0  0
    4.4132    1.6343   -1.8255 H   0  0  0  0  0  0  0  0  0  0  0  0
    3.4824    3.1157   -1.4978 H   0  0  0  0  0  0  0  0  0  0  0  0
    4.7331   -0.3900   -0.9483 H   0  0  0  0  0  0  0  0  0  0  0  0
    6.4480   -1.9251   -0.0808 H   0  0  0  0  0  0  0  0  0  0  0  0
    6.7782    0.4748    3.4582 H   0  0  0  0  0  0  0  0  0  0  0  0
    5.0688    2.0029    2.5679 H   0  0  0  0  0  0  0  0  0  0  0  0
    7.7307   -2.9913    0.6887 H   0  0  0  0  0  0  0  0  0  0  0  0
    9.3206   -4.4472    1.4751 H   0  0  0  0  0  0  0  0  0  0  0  0
    2.0750    3.7200    0.3921 H   0  0  0  0  0  0  0  0  0  0  0  0
   -0.0611    4.9047    0.4158 H   0  0  0  0  0  0  0  0  0  0  0  0
    0.0157    0.0288   -0.3857 H   0  0  0  0  0  0  0  0  0  0  0  0
   -2.0363    5.6118    1.1357 H   0  0  0  0  0  0  0  0  0  0  0  0
   -1.4028    5.5920   -0.5422 H   0  0  0  0  0  0  0  0  0  0  0  0
   -3.4257    6.8741   -0.8096 H   0  0  0  0  0  0  0  0  0  0  0  0
   -4.3132    5.8784    0.3905 H   0  0  0  0  0  0  0  0  0  0  0  0
   -3.6633    5.2667   -2.4947 H   0  0  0  0  0  0  0  0  0  0  0  0
   -5.0397    4.7001   -1.5013 H   0  0  0  0  0  0  0  0  0  0  0  0
   -2.5131    3.3465   -2.0126 H   0  0  0  0  0  0  0  0  0  0  0  0
   -3.8997    2.7620   -1.0530 H   0  0  0  0  0  0  0  0  0  0  0  0
  1  2  1  0  0  0  0
  1 28  1  0  0  0  0
  1 29  1  0  0  0  0
  1 30  1  0  0  0  0
  2  3  1  0  0  0  0
  2  4  1  0  0  0  0
  2 14  1  0  0  0  0
  4  9  2  0  0  0  0
  4  5  1  0  0  0  0
  5  6  2  0  0  0  0
  5 31  1  0  0  0  0
  6  7  1  0  0  0  0
  6 32  1  0  0  0  0
  7  8  2  0  0  0  0
  7 10  1  0  0  0  0
  8  9  1  0  0  0  0
  8 33  1  0  0  0  0
  9 34  1  0  0  0  0
 10 11  2  0  0  0  0
 10 12  1  0  0  0  0
 12 13  1  0  0  0  0
 12 35  1  0  0  0  0
 13 36  1  0  0  0  0
 14 15  2  0  0  0  0
 14 16  1  0  0  0  0
 16 21  2  0  0  0  0
 16 17  1  0  0  0  0
 17 18  2  0  0  0  0
 17 37  1  0  0  0  0
 18 19  1  0  0  0  0
 18 38  1  0  0  0  0
 19 20  2  0  0  0  0
 19 23  1  0  0  0  0
 20 21  1  0  0  0  0
 20 22  1  0  0  0  0
 21 39  1  0  0  0  0
 23 27  1  0  0  0  0
 23 24  1  0  0  0  0
 24 25  1  0  0  0  0
 24 40  1  0  0  0  0
 24 41  1  0  0  0  0
 25 26  1  0  0  0  0
 25 42  1  0  0  0  0
 25 43  1  0  0  0  0
 26 27  1  0  0  0  0
 26 44  1  0  0  0  0
 26 45  1  0  0  0  0
 27 46  1  0  0  0  0
 27 47  1  0  0  0  0
M  END
$$$$
ZINC01504513
  -OEChem-08230709453D

 46 49  0     0  0  0  0  0  0999 V2000
   -2.4377   -1.9576   -5.5718 C   0  0  0  0  0  0  0  0  0  0  0  0
   -3.7504   -1.9328   -5.0076 O   0  0  0  0  0  0  0  0  0  0  0  0
   -3.9810   -1.0271   -4.0223 C   0  0  0  0  0  0  0  0  0  0  0  0
   -2.9603   -0.1790   -3.6081 C   0  0  0  0  0  0  0  0  0  0  0  0
   -3.1871    0.7424   -2.6095 C   0  0  0  0  0  0  0  0  0  0  0  0
   -4.4448    0.8259   -2.0103 C   0  0  0  0  0  0  0  0  0  0  0  0
   -5.4707   -0.0328   -2.4242 C   0  0  0  0  0  0  0  0  0  0  0  0
   -5.2342   -0.9511   -3.4329 C   0  0  0  0  0  0  0  0  0  0  0  0
   -6.6953    0.0392   -1.8423 O   0  0  0  0  0  0  0  0  0  0  0  0
   -4.6915    1.8137   -0.9375 C   0  0  0  0  0  0  0  0  0  0  0  0
   -3.8163    1.9111    0.1630 C   0  0  0  0  0  0  0  0  0  0  0  0
   -4.0994    2.8564    1.1484 C   0  0  0  0  0  0  0  0  0  0  0  0
   -5.1636    3.6297    1.0123 N   0  0  0  0  0  0  0  0  0  0  0  0
   -5.9666    3.5121   -0.0358 C   0  0  0  0  0  0  0  0  0  0  0  0
   -5.7437    2.6269   -0.9943 N   0  0  0  0  0  0  0  0  0  0  0  0
   -7.0718    4.3398   -0.1306 N   0  0  0  0  0  0  0  0  0  0  0  0
   -2.6306    1.0287    0.2731 C   0  0  0  0  0  0  0  0  0  0  0  0
   -2.7854   -0.3564    0.2328 C   0  0  0  0  0  0  0  0  0  0  0  0
   -1.6816   -1.1795    0.3355 C   0  0  0  0  0  0  0  0  0  0  0  0
   -0.4187   -0.6266    0.4786 C   0  0  0  0  0  0  0  0  0  0  0  0
   -0.2584    0.7523    0.5189 C   0  0  0  0  0  0  0  0  0  0  0  0
   -1.3579    1.5833    0.4120 C   0  0  0  0  0  0  0  0  0  0  0  0
    0.9918    1.2817    0.6590 O   0  0  0  0  0  0  0  0  0  0  0  0
    1.6236    1.0663    1.9225 C   0  0  0  0  0  0  0  0  0  0  0  0
    2.3154   -0.2874    1.9559 C   0  0  0  0  0  0  0  0  0  0  0  0
    1.3320   -1.4425    1.8499 C   0  0  0  0  0  0  0  0  0  0  0  0
    0.6763   -1.4351    0.5804 O   0  0  0  0  0  0  0  0  0  0  0  0
   -2.2118   -0.9850   -6.0091 H   0  0  0  0  0  0  0  0  0  0  0  0
   -1.7109   -2.1826   -4.7912 H   0  0  0  0  0  0  0  0  0  0  0  0
   -2.3890   -2.7239   -6.3453 H   0  0  0  0  0  0  0  0  0  0  0  0
   -1.9866   -0.2425   -4.0710 H   0  0  0  0  0  0  0  0  0  0  0  0
   -2.3919    1.3997   -2.2902 H   0  0  0  0  0  0  0  0  0  0  0  0
   -6.0245   -1.6116   -3.7579 H   0  0  0  0  0  0  0  0  0  0  0  0
   -7.3024    0.6529   -2.2780 H   0  0  0  0  0  0  0  0  0  0  0  0
   -3.4554    2.9588    2.0093 H   0  0  0  0  0  0  0  0  0  0  0  0
   -7.6693    4.2659   -0.8912 H   0  0  0  0  0  0  0  0  0  0  0  0
   -7.2490    4.9937    0.5636 H   0  0  0  0  0  0  0  0  0  0  0  0
   -3.7700   -0.7860    0.1214 H   0  0  0  0  0  0  0  0  0  0  0  0
   -1.8019   -2.2523    0.3040 H   0  0  0  0  0  0  0  0  0  0  0  0
   -1.2334    2.6557    0.4438 H   0  0  0  0  0  0  0  0  0  0  0  0
    0.8717    1.1046    2.7107 H   0  0  0  0  0  0  0  0  0  0  0  0
    2.3614    1.8505    2.0922 H   0  0  0  0  0  0  0  0  0  0  0  0
    2.8678   -0.3787    2.8910 H   0  0  0  0  0  0  0  0  0  0  0  0
    3.0188   -0.3452    1.1252 H   0  0  0  0  0  0  0  0  0  0  0  0
    0.5860   -1.3521    2.6395 H   0  0  0  0  0  0  0  0  0  0  0  0
    1.8698   -2.3829    1.9704 H   0  0  0  0  0  0  0  0  0  0  0  0
  1  2  1  0  0  0  0
  1 28  1  0  0  0  0
  1 29  1  0  0  0  0
  1 30  1  0  0  0  0
  2  3  1  0  0  0  0
  3  8  2  0  0  0  0
  3  4  1  0  0  0  0
  4  5  2  0  0  0  0
  4 31  1  0  0  0  0
  5  6  1  0  0  0  0
  5 32  1  0  0  0  0
  6  7  2  0  0  0  0
  6 10  1  0  0  0  0
  7  8  1  0  0  0  0
  7  9  1  0  0  0  0
  8 33  1  0  0  0  0
  9 34  1  0  0  0  0
 10 15  2  0  0  0  0
 10 11  1  0  0  0  0
 11 12  2  0  0  0  0
 11 17  1  0  0  0  0
 12 13  1  0  0  0  0
 12 35  1  0  0  0  0
 13 14  2  0  0  0  0
 14 15  1  0  0  0  0
 14 16  1  0  0  0  0
 16 36  1  0  0  0  0
 16 37  1  0  0  0  0
 17 22  2  0  0  0  0
 17 18  1  0  0  0  0
 18 19  2  0  0  0  0
 18 38  1  0  0  0  0
 19 20  1  0  0  0  0
 19 39  1  0  0  0  0
 20 27  1  0  0  0  0
 20 21  2  0  0  0  0
 21 22  1  0  0  0  0
 21 23  1  0  0  0  0
 22 40  1  0  0  0  0
 23 24  1  0  0  0  0
 24 25  1  0  0  0  0
 24 41  1  0  0  0  0
 24 42  1  0  0  0  0
 25 26  1  0  0  0  0
 25 43  1  0  0  0  0
 25 44  1  0  0  0  0
 26 27  1  0  0  0  0
 26 45  1  0  0  0  0
 26 46  1  0  0  0  0
M  END
$$$$
ZINC01504514
  -OEChem-08230709453D

 42 44  0     0  0  0  0  0  0999 V2000
    3.7682    3.6323    0.9704 C   0  0  0  0  0  0  0  0  0  0  0  0
    3.7288    3.3022   -0.5230 C   0  0  0  0  0  0  0  0  0  0  0  0
    3.5511    1.8168   -0.7046 C   0  0  0  0  0  0  0  0  0  0  0  0
    4.6536    1.0042   -0.8571 C   0  0  0  0  0  0  0  0  0  0  0  0
    4.4943   -0.3661   -1.0248 C   0  0  0  0  0  0  0  0  0  0  0  0
    3.2245   -0.9248   -1.0409 C   0  0  0  0  0  0  0  0  0  0  0  0
    2.1110   -0.1181   -0.8828 C   0  0  0  0  0  0  0  0  0  0  0  0
    2.2703    1.2639   -0.7190 C   0  0  0  0  0  0  0  0  0  0  0  0
    1.0848    2.1333   -0.5557 C   0  0  0  0  0  0  0  0  0  0  0  0
    0.4280    2.2244    0.6878 C   0  0  0  0  0  0  0  0  0  0  0  0
   -0.6878    3.0549    0.7843 C   0  0  0  0  0  0  0  0  0  0  0  0
   -1.0812    3.7318   -0.2820 N   0  0  0  0  0  0  0  0  0  0  0  0
   -0.4408    3.6230   -1.4372 C   0  0  0  0  0  0  0  0  0  0  0  0
    0.6195    2.8439   -1.5807 N   0  0  0  0  0  0  0  0  0  0  0  0
   -0.8945    4.3467   -2.5271 N   0  0  0  0  0  0  0  0  0  0  0  0
    0.9068    1.4533    1.8600 C   0  0  0  0  0  0  0  0  0  0  0  0
    0.2047    1.4466    3.0357 C   0  0  0  0  0  0  0  0  0  0  0  0
    1.2395    0.3824    4.0306 S   0  0  0  0  0  0  0  0  0  0  0  0
    2.4605    0.0695    2.8368 C   0  0  0  0  0  0  0  0  0  0  0  0
    2.0295    0.7537    1.8051 N   0  0  0  0  0  0  0  0  0  0  0  0
    3.7023   -0.7760    2.9562 C   0  0  0  0  0  0  0  0  0  0  0  0
    0.8678   -0.6640   -0.8918 O   0  0  0  0  0  0  0  0  0  0  0  0
    5.5853   -1.1610   -1.1740 O   0  0  0  0  0  0  0  0  0  0  0  0
    5.3503   -2.5605   -1.3422 C   0  0  0  0  0  0  0  0  0  0  0  0
    2.8343    3.3185    1.4367 H   0  0  0  0  0  0  0  0  0  0  0  0
    4.6017    3.1069    1.4368 H   0  0  0  0  0  0  0  0  0  0  0  0
    3.8968    4.7067    1.1018 H   0  0  0  0  0  0  0  0  0  0  0  0
    4.6627    3.6161   -0.9893 H   0  0  0  0  0  0  0  0  0  0  0  0
    2.8954    3.8276   -0.9894 H   0  0  0  0  0  0  0  0  0  0  0  0
    5.6445    1.4336   -0.8457 H   0  0  0  0  0  0  0  0  0  0  0  0
    3.1051   -1.9902   -1.1715 H   0  0  0  0  0  0  0  0  0  0  0  0
   -1.2212    3.1480    1.7187 H   0  0  0  0  0  0  0  0  0  0  0  0
   -0.4366    4.2782   -3.3794 H   0  0  0  0  0  0  0  0  0  0  0  0
   -1.6703    4.9221   -2.4382 H   0  0  0  0  0  0  0  0  0  0  0  0
   -0.7187    1.9452    3.2906 H   0  0  0  0  0  0  0  0  0  0  0  0
    4.5061   -0.1816    3.3907 H   0  0  0  0  0  0  0  0  0  0  0  0
    3.4976   -1.6337    3.5969 H   0  0  0  0  0  0  0  0  0  0  0  0
    4.0014   -1.1241    1.9676 H   0  0  0  0  0  0  0  0  0  0  0  0
    0.4973   -0.7840   -1.7769 H   0  0  0  0  0  0  0  0  0  0  0  0
    4.7455   -2.7227   -2.2344 H   0  0  0  0  0  0  0  0  0  0  0  0
    6.3032   -3.0786   -1.4500 H   0  0  0  0  0  0  0  0  0  0  0  0
    4.8229   -2.9477   -0.4704 H   0  0  0  0  0  0  0  0  0  0  0  0
  1  2  1  0  0  0  0
  1 25  1  0  0  0  0
  1 26  1  0  0  0  0
  1 27  1  0  0  0  0
  2  3  1  0  0  0  0
  2 28  1  0  0  0  0
  2 29  1  0  0  0  0
  3  8  2  0  0  0  0
  3  4  1  0  0  0  0
  4  5  2  0  0  0  0
  4 30  1  0  0  0  0
  5  6  1  0  0  0  0
  5 23  1  0  0  0  0
  6  7  2  0  0  0  0
  6 31  1  0  0  0  0
  7  8  1  0  0  0  0
  7 22  1  0  0  0  0
  8  9  1  0  0  0  0
  9 14  2  0  0  0  0
  9 10  1  0  0  0  0
 10 11  2  0  0  0  0
 10 16  1  0  0  0  0
 11 12  1  0  0  0  0
 11 32  1  0  0  0  0
 12 13  2  0  0  0  0
 13 14  1  0  0  0  0
 13 15  1  0  0  0  0
 15 33  1  0  0  0  0
 15 34  1  0  0  0  0
 16 20  1  0  0  0  0
 16 17  2  0  0  0  0
 17 18  1  0  0  0  0
 17 35  1  0  0  0  0
 18 19  1  0  0  0  0
 19 20  2  0  0  0  0
 19 21  1  0  0  0  0
 21 36  1  0  0  0  0
 21 37  1  0  0  0  0
 21 38  1  0  0  0  0
 22 39  1  0  0  0  0
 23 24  1  0  0  0  0
 24 40  1  0  0  0  0
 24 41  1  0  0  0  0
 24 42  1  0  0  0  0
M  END
$$$$
ZINC01504518
  -OEChem-08230709453D

 45 47  0     0  0  0  0  0  0999 V2000
   -1.5394    0.3401    1.8997 C   0  0  0  0  0  0  0  0  0  0  0  0
   -1.5404    1.6523    2.6864 C   0  0  0  0  0  0  0  0  0  0  0  0
   -2.9752    2.0112    3.0779 C   0  0  0  0  0  0  0  0  0  0  0  0
   -2.9762    3.3037    3.8529 C   0  0  0  0  0  0  0  0  0  0  0  0
   -2.9313    3.2818    5.2298 C   0  0  0  0  0  0  0  0  0  0  0  0
   -2.9315    4.4714    5.9485 C   0  0  0  0  0  0  0  0  0  0  0  0
   -2.9773    5.6886    5.2845 C   0  0  0  0  0  0  0  0  0  0  0  0
   -3.0222    5.7219    3.9016 C   0  0  0  0  0  0  0  0  0  0  0  0
   -3.0167    4.5233    3.1760 C   0  0  0  0  0  0  0  0  0  0  0  0
   -3.0588    4.5506    1.6983 C   0  0  0  0  0  0  0  0  0  0  0  0
   -4.2936    4.5867    1.0150 C   0  0  0  0  0  0  0  0  0  0  0  0
   -4.2735    4.6170   -0.3816 C   0  0  0  0  0  0  0  0  0  0  0  0
   -3.1100    4.6001   -1.0085 N   0  0  0  0  0  0  0  0  0  0  0  0
   -1.9683    4.5605   -0.3352 C   0  0  0  0  0  0  0  0  0  0  0  0
   -1.9336    4.5361    0.9880 N   0  0  0  0  0  0  0  0  0  0  0  0
   -0.7766    4.5446   -1.0371 N   0  0  0  0  0  0  0  0  0  0  0  0
   -5.5705    4.5976    1.7556 C   0  0  0  0  0  0  0  0  0  0  0  0
   -6.6274    5.3840    1.6000 N   0  0  0  0  0  0  0  0  0  0  0  0
   -7.6932    5.2493    2.3550 C   0  0  0  0  0  0  0  0  0  0  0  0
   -7.7211    4.2970    3.3240 C   0  0  0  0  0  0  0  0  0  0  0  0
   -6.1060    3.5596    3.1094 S   0  0  0  0  0  0  0  0  0  0  0  0
   -8.8813    6.1538    2.1515 C   0  0  0  0  0  0  0  0  0  0  0  0
   -3.0672    6.9122    3.2502 O   0  0  0  0  0  0  0  0  0  0  0  0
   -2.8871    4.4421    7.3055 O   0  0  0  0  0  0  0  0  0  0  0  0
   -2.8900    5.7008    7.9821 C   0  0  0  0  0  0  0  0  0  0  0  0
   -1.9569   -0.4546    2.5180 H   0  0  0  0  0  0  0  0  0  0  0  0
   -0.5172    0.0844    1.6208 H   0  0  0  0  0  0  0  0  0  0  0  0
   -2.1435    0.4556    0.9998 H   0  0  0  0  0  0  0  0  0  0  0  0
   -0.9363    1.5369    3.5863 H   0  0  0  0  0  0  0  0  0  0  0  0
   -1.1229    2.4470    2.0681 H   0  0  0  0  0  0  0  0  0  0  0  0
   -3.5793    2.1267    2.1780 H   0  0  0  0  0  0  0  0  0  0  0  0
   -3.3927    1.2165    3.6963 H   0  0  0  0  0  0  0  0  0  0  0  0
   -2.8954    2.3372    5.7522 H   0  0  0  0  0  0  0  0  0  0  0  0
   -2.9777    6.6106    5.8469 H   0  0  0  0  0  0  0  0  0  0  0  0
   -5.1964    4.6493   -0.9416 H   0  0  0  0  0  0  0  0  0  0  0  0
    0.0672    4.5161   -0.5595 H   0  0  0  0  0  0  0  0  0  0  0  0
   -0.7847    4.5621   -2.0069 H   0  0  0  0  0  0  0  0  0  0  0  0
   -8.5022    4.0534    4.0289 H   0  0  0  0  0  0  0  0  0  0  0  0
   -8.7720    7.0425    2.7730 H   0  0  0  0  0  0  0  0  0  0  0  0
   -8.9385    6.4481    1.1036 H   0  0  0  0  0  0  0  0  0  0  0  0
   -9.7925    5.6249    2.4307 H   0  0  0  0  0  0  0  0  0  0  0  0
   -2.2019    7.2388    2.9677 H   0  0  0  0  0  0  0  0  0  0  0  0
   -2.0208    6.2814    7.6730 H   0  0  0  0  0  0  0  0  0  0  0  0
   -3.7995    6.2464    7.7305 H   0  0  0  0  0  0  0  0  0  0  0  0
   -2.8519    5.5347    9.0587 H   0  0  0  0  0  0  0  0  0  0  0  0
  1  2  1  0  0  0  0
  1 26  1  0  0  0  0
  1 27  1  0  0  0  0
  1 28  1  0  0  0  0
  2  3  1  0  0  0  0
  2 29  1  0  0  0  0
  2 30  1  0  0  0  0
  3  4  1  0  0  0  0
  3 31  1  0  0  0  0
  3 32  1  0  0  0  0
  4  9  2  0  0  0  0
  4  5  1  0  0  0  0
  5  6  2  0  0  0  0
  5 33  1  0  0  0  0
  6  7  1  0  0  0  0
  6 24  1  0  0  0  0
  7  8  2  0  0  0  0
  7 34  1  0  0  0  0
  8  9  1  0  0  0  0
  8 23  1  0  0  0  0
  9 10  1  0  0  0  0
 10 15  2  0  0  0  0
 10 11  1  0  0  0  0
 11 12  2  0  0  0  0
 11 17  1  0  0  0  0
 12 13  1  0  0  0  0
 12 35  1  0  0  0  0
 13 14  2  0  0  0  0
 14 15  1  0  0  0  0
 14 16  1  0  0  0  0
 16 36  1  0  0  0  0
 16 37  1  0  0  0  0
 17 21  1  0  0  0  0
 17 18  2  0  0  0  0
 18 19  1  0  0  0  0
 19 20  2  0  0  0  0
 19 22  1  0  0  0  0
 20 21  1  0  0  0  0
 20 38  1  0  0  0  0
 22 39  1  0  0  0  0
 22 40  1  0  0  0  0
 22 41  1  0  0  0  0
 23 42  1  0  0  0  0
 24 25  1  0  0  0  0
 25 43  1  0  0  0  0
 25 44  1  0  0  0  0
 25 45  1  0  0  0  0
M  END
$$$$
ZINC01508772
  -OEChem-08230709453D

 45 48  0     0  0  0  0  0  0999 V2000
   -9.0735    2.8055   -1.5320 C   0  0  0  0  0  0  0  0  0  0  0  0
   -8.8437    1.5669   -0.7049 C   0  0  0  0  0  0  0  0  0  0  0  0
   -7.6085    0.9520   -0.7166 C   0  0  0  0  0  0  0  0  0  0  0  0
   -7.3963   -0.1964    0.0438 C   0  0  0  0  0  0  0  0  0  0  0  0
   -8.4366   -0.7126    0.8242 C   0  0  0  0  0  0  0  0  0  0  0  0
   -9.6703   -0.0812    0.8301 C   0  0  0  0  0  0  0  0  0  0  0  0
   -9.8707    1.0539    0.0681 C   0  0  0  0  0  0  0  0  0  0  0  0
  -11.2140    1.7369    0.0791 C   0  0  0  0  0  0  0  0  0  0  0  0
   -8.2381   -1.8276    1.5733 O   0  0  0  0  0  0  0  0  0  0  0  0
   -6.0736   -0.8641    0.0306 C   0  0  0  0  0  0  0  0  0  0  0  0
   -4.9030   -0.1183    0.1749 C   0  0  0  0  0  0  0  0  0  0  0  0
   -3.6817   -0.7919    0.1514 C   0  0  0  0  0  0  0  0  0  0  0  0
   -3.6755   -2.1163    0.0030 N   0  0  0  0  0  0  0  0  0  0  0  0
   -4.8075   -2.7903   -0.1260 C   0  0  0  0  0  0  0  0  0  0  0  0
   -5.9854   -2.1859   -0.1136 N   0  0  0  0  0  0  0  0  0  0  0  0
   -4.7583   -4.1652   -0.2786 N   0  0  0  0  0  0  0  0  0  0  0  0
   -2.4091   -0.0459    0.2957 C   0  0  0  0  0  0  0  0  0  0  0  0
   -2.4250    1.3399    0.4500 C   0  0  0  0  0  0  0  0  0  0  0  0
   -1.2399    2.0325    0.5789 C   0  0  0  0  0  0  0  0  0  0  0  0
   -0.0279    1.3543    0.5626 C   0  0  0  0  0  0  0  0  0  0  0  0
   -0.0063   -0.0288    0.4110 C   0  0  0  0  0  0  0  0  0  0  0  0
   -1.1936   -0.7278    0.2768 C   0  0  0  0  0  0  0  0  0  0  0  0
    1.1727   -0.7092    0.3935 O   0  0  0  0  0  0  0  0  0  0  0  0
    2.3561    0.0604    0.1545 C   0  0  0  0  0  0  0  0  0  0  0  0
    2.3010    1.3127    1.0400 C   0  0  0  0  0  0  0  0  0  0  0  0
    1.1297    2.0578    0.6904 O   0  0  0  0  0  0  0  0  0  0  0  0
   -8.8261    3.6877   -0.9417 H   0  0  0  0  0  0  0  0  0  0  0  0
   -8.4408    2.7726   -2.4190 H   0  0  0  0  0  0  0  0  0  0  0  0
  -10.1199    2.8519   -1.8337 H   0  0  0  0  0  0  0  0  0  0  0  0
   -6.8083    1.3579   -1.3175 H   0  0  0  0  0  0  0  0  0  0  0  0
  -10.4758   -0.4766    1.4312 H   0  0  0  0  0  0  0  0  0  0  0  0
  -11.2347    2.4852    0.8714 H   0  0  0  0  0  0  0  0  0  0  0  0
  -11.3833    2.2212   -0.8826 H   0  0  0  0  0  0  0  0  0  0  0  0
  -11.9957    0.9983    0.2565 H   0  0  0  0  0  0  0  0  0  0  0  0
   -7.9206   -1.6484    2.4689 H   0  0  0  0  0  0  0  0  0  0  0  0
   -4.9414    0.9540    0.2978 H   0  0  0  0  0  0  0  0  0  0  0  0
   -3.9025   -4.6216   -0.2898 H   0  0  0  0  0  0  0  0  0  0  0  0
   -5.5797   -4.6723   -0.3742 H   0  0  0  0  0  0  0  0  0  0  0  0
   -3.3654    1.8708    0.4658 H   0  0  0  0  0  0  0  0  0  0  0  0
   -1.2543    3.1057    0.6988 H   0  0  0  0  0  0  0  0  0  0  0  0
   -1.1780   -1.8010    0.1573 H   0  0  0  0  0  0  0  0  0  0  0  0
    3.2363   -0.5305    0.4076 H   0  0  0  0  0  0  0  0  0  0  0  0
    2.3988    0.3528   -0.8947 H   0  0  0  0  0  0  0  0  0  0  0  0
    2.2508    1.0194    2.0886 H   0  0  0  0  0  0  0  0  0  0  0  0
    3.1886    1.9222    0.8703 H   0  0  0  0  0  0  0  0  0  0  0  0
  1  2  1  0  0  0  0
  1 27  1  0  0  0  0
  1 28  1  0  0  0  0
  1 29  1  0  0  0  0
  2  7  2  0  0  0  0
  2  3  1  0  0  0  0
  3  4  2  0  0  0  0
  3 30  1  0  0  0  0
  4  5  1  0  0  0  0
  4 10  1  0  0  0  0
  5  6  2  0  0  0  0
  5  9  1  0  0  0  0
  6  7  1  0  0  0  0
  6 31  1  0  0  0  0
  7  8  1  0  0  0  0
  8 32  1  0  0  0  0
  8 33  1  0  0  0  0
  8 34  1  0  0  0  0
  9 35  1  0  0  0  0
 10 15  2  0  0  0  0
 10 11  1  0  0  0  0
 11 12  2  0  0  0  0
 11 36  1  0  0  0  0
 12 13  1  0  0  0  0
 12 17  1  0  0  0  0
 13 14  2  0  0  0  0
 14 15  1  0  0  0  0
 14 16  1  0  0  0  0
 16 37  1  0  0  0  0
 16 38  1  0  0  0  0
 17 22  2  0  0  0  0
 17 18  1  0  0  0  0
 18 19  2  0  0  0  0
 18 39  1  0  0  0  0
 19 20  1  0  0  0  0
 19 40  1  0  0  0  0
 20 26  1  0  0  0  0
 20 21  2  0  0  0  0
 21 22  1  0  0  0  0
 21 23  1  0  0  0  0
 22 41  1  0  0  0  0
 23 24  1  0  0  0  0
 24 25  1  0  0  0  0
 24 42  1  0  0  0  0
 24 43  1  0  0  0  0
 25 26  1  0  0  0  0
 25 44  1  0  0  0  0
 25 45  1  0  0  0  0
M  END
$$$$
ZINC01509539
  -OEChem-08230709453D

 42 44  0     0  0  0  0  0  0999 V2000
   -1.2256   -0.8422   11.8214 C   0  0  0  0  0  0  0  0  0  0  0  0
   -2.0873    0.3028   11.3549 C   0  0  0  0  0  0  0  0  0  0  0  0
   -2.7847    0.8986   12.1475 O   0  0  0  0  0  0  0  0  0  0  0  0
   -2.0821    0.6982    9.9352 C   0  0  0  0  0  0  0  0  0  0  0  0
   -2.8813    1.7604    9.5018 C   0  0  0  0  0  0  0  0  0  0  0  0
   -2.8753    2.1293    8.1746 C   0  0  0  0  0  0  0  0  0  0  0  0
   -2.0712    1.4434    7.2625 C   0  0  0  0  0  0  0  0  0  0  0  0
   -1.2771    0.3790    7.6930 C   0  0  0  0  0  0  0  0  0  0  0  0
   -1.2775    0.0116    9.0207 C   0  0  0  0  0  0  0  0  0  0  0  0
   -2.0652    1.8411    5.8370 C   0  0  0  0  0  0  0  0  0  0  0  0
   -2.7602    2.7645    5.4608 O   0  0  0  0  0  0  0  0  0  0  0  0
   -1.2892    1.1793    4.9560 N   0  0  0  0  0  0  0  0  0  0  0  0
   -1.2836    1.5515    3.6218 C   0  0  0  0  0  0  0  0  0  0  0  0
   -0.5587    0.9984    2.5750 C   0  0  0  0  0  0  0  0  0  0  0  0
   -0.7317    1.5801    1.2572 C   0  0  0  0  0  0  0  0  0  0  0  0
   -1.6012    2.6148    1.1937 C   0  0  0  0  0  0  0  0  0  0  0  0
   -2.1792    2.8207    2.8544 S   0  0  0  0  0  0  0  0  0  0  0  0
   -1.9795    3.4047   -0.0211 C   0  0  0  0  0  0  0  0  0  0  0  0
   -0.9558    3.1107   -1.1273 C   0  0  0  0  0  0  0  0  0  0  0  0
   -0.7583    1.5954   -1.2267 C   0  0  0  0  0  0  0  0  0  0  0  0
   -0.0127    1.0858    0.0080 C   0  0  0  0  0  0  0  0  0  0  0  0
    0.3507   -0.1308    2.7931 C   0  0  0  0  0  0  0  0  0  0  0  0
   -0.0609   -1.2718    2.6929 O   0  0  0  0  0  0  0  0  0  0  0  0
    1.6425    0.0947    3.1044 N   0  0  0  0  0  0  0  0  0  0  0  0
   -0.3286   -0.4946   12.0945 H   0  0  0  0  0  0  0  0  0  0  0  0
   -1.7003   -1.3310   12.6722 H   0  0  0  0  0  0  0  0  0  0  0  0
   -1.1054   -1.5604   11.0103 H   0  0  0  0  0  0  0  0  0  0  0  0
   -3.5029    2.2916   10.2074 H   0  0  0  0  0  0  0  0  0  0  0  0
   -3.4926    2.9498    7.8396 H   0  0  0  0  0  0  0  0  0  0  0  0
   -0.6590   -0.1540    6.9857 H   0  0  0  0  0  0  0  0  0  0  0  0
   -0.6594   -0.8088    9.3544 H   0  0  0  0  0  0  0  0  0  0  0  0
   -0.7345    0.4423    5.2563 H   0  0  0  0  0  0  0  0  0  0  0  0
   -1.9695    4.4688    0.2151 H   0  0  0  0  0  0  0  0  0  0  0  0
   -2.9749    3.1114   -0.3545 H   0  0  0  0  0  0  0  0  0  0  0  0
   -0.0067    3.5877   -0.8829 H   0  0  0  0  0  0  0  0  0  0  0  0
   -1.3231    3.4945   -2.0791 H   0  0  0  0  0  0  0  0  0  0  0  0
   -0.1792    1.3636   -2.1206 H   0  0  0  0  0  0  0  0  0  0  0  0
   -1.7312    1.1079   -1.2890 H   0  0  0  0  0  0  0  0  0  0  0  0
    0.0021   -0.0041    0.0020 H   0  0  0  0  0  0  0  0  0  0  0  0
    1.0091    1.4652    0.0003 H   0  0  0  0  0  0  0  0  0  0  0  0
    1.9705    1.0041    3.1842 H   0  0  0  0  0  0  0  0  0  0  0  0
    2.2442   -0.6523    3.2486 H   0  0  0  0  0  0  0  0  0  0  0  0
  1  2  1  0  0  0  0
  1 25  1  0  0  0  0
  1 26  1  0  0  0  0
  1 27  1  0  0  0  0
  2  3  2  0  0  0  0
  2  4  1  0  0  0  0
  4  9  2  0  0  0  0
  4  5  1  0  0  0  0
  5  6  2  0  0  0  0
  5 28  1  0  0  0  0
  6  7  1  0  0  0  0
  6 29  1  0  0  0  0
  7  8  2  0  0  0  0
  7 10  1  0  0  0  0
  8  9  1  0  0  0  0
  8 30  1  0  0  0  0
  9 31  1  0  0  0  0
 10 11  2  0  0  0  0
 10 12  1  0  0  0  0
 12 13  1  0  0  0  0
 12 32  1  0  0  0  0
 13 17  1  0  0  0  0
 13 14  2  0  0  0  0
 14 15  1  0  0  0  0
 14 22  1  0  0  0  0
 15 21  1  0  0  0  0
 15 16  2  0  0  0  0
 16 17  1  0  0  0  0
 16 18  1  0  0  0  0
 18 19  1  0  0  0  0
 18 33  1  0  0  0  0
 18 34  1  0  0  0  0
 19 20  1  0  0  0  0
 19 35  1  0  0  0  0
 19 36  1  0  0  0  0
 20 21  1  0  0  0  0
 20 37  1  0  0  0  0
 20 38  1  0  0  0  0
 21 39  1  0  0  0  0
 21 40  1  0  0  0  0
 22 23  2  0  0  0  0
 22 24  1  0  0  0  0
 24 41  1  0  0  0  0
 24 42  1  0  0  0  0
M  END
$$$$
ZINC01516389
  -OEChem-08230709453D

 46 49  0     0  0  0  0  0  0999 V2000
    7.7609   -5.2656    1.3076 C   0  0  0  0  0  0  0  0  0  0  0  0
    7.4741   -3.8545    1.8249 C   0  0  0  0  0  0  0  0  0  0  0  0
    6.7754   -3.0588    0.7527 C   0  0  0  0  0  0  0  0  0  0  0  0
    7.5085   -2.2773   -0.1138 C   0  0  0  0  0  0  0  0  0  0  0  0
    6.8682   -1.5415   -1.1038 C   0  0  0  0  0  0  0  0  0  0  0  0
    5.4870   -1.5885   -1.2259 C   0  0  0  0  0  0  0  0  0  0  0  0
    4.7420   -2.3747   -0.3643 C   0  0  0  0  0  0  0  0  0  0  0  0
    5.3860   -3.1126    0.6373 C   0  0  0  0  0  0  0  0  0  0  0  0
    4.5963   -3.9508    1.5653 C   0  0  0  0  0  0  0  0  0  0  0  0
    3.7401   -3.3581    2.5153 C   0  0  0  0  0  0  0  0  0  0  0  0
    3.0145   -4.1958    3.3617 C   0  0  0  0  0  0  0  0  0  0  0  0
    3.1569   -5.5057    3.2485 N   0  0  0  0  0  0  0  0  0  0  0  0
    3.9749   -6.0308    2.3472 C   0  0  0  0  0  0  0  0  0  0  0  0
    4.6845   -5.2782    1.5213 N   0  0  0  0  0  0  0  0  0  0  0  0
    4.0902   -7.4076    2.2670 N   0  0  0  0  0  0  0  0  0  0  0  0
    3.6100   -1.8846    2.6080 C   0  0  0  0  0  0  0  0  0  0  0  0
    4.7409   -1.0949    2.8113 C   0  0  0  0  0  0  0  0  0  0  0  0
    4.6184    0.2767    2.8982 C   0  0  0  0  0  0  0  0  0  0  0  0
    3.3722    0.8743    2.7844 C   0  0  0  0  0  0  0  0  0  0  0  0
    2.2381    0.0898    2.5812 C   0  0  0  0  0  0  0  0  0  0  0  0
    2.3565   -1.2855    2.4925 C   0  0  0  0  0  0  0  0  0  0  0  0
    1.1490    0.9094    2.5041 O   0  0  0  0  0  0  0  0  0  0  0  0
    1.5716    2.1643    3.0695 C   0  0  0  0  0  0  0  0  0  0  0  0
    2.9919    2.1847    2.8343 O   0  0  0  0  0  0  0  0  0  0  0  0
    3.3908   -2.4267   -0.4862 O   0  0  0  0  0  0  0  0  0  0  0  0
    7.5970   -0.7735   -1.9543 O   0  0  0  0  0  0  0  0  0  0  0  0
    6.8759   -0.0428   -2.9484 C   0  0  0  0  0  0  0  0  0  0  0  0
    6.8224   -5.7543    1.0458 H   0  0  0  0  0  0  0  0  0  0  0  0
    8.3983   -5.2066    0.4253 H   0  0  0  0  0  0  0  0  0  0  0  0
    8.2663   -5.8411    2.0831 H   0  0  0  0  0  0  0  0  0  0  0  0
    8.4126   -3.3658    2.0867 H   0  0  0  0  0  0  0  0  0  0  0  0
    6.8367   -3.9135    2.7071 H   0  0  0  0  0  0  0  0  0  0  0  0
    8.5839   -2.2368   -0.0236 H   0  0  0  0  0  0  0  0  0  0  0  0
    4.9934   -1.0151   -1.9966 H   0  0  0  0  0  0  0  0  0  0  0  0
    2.3445   -3.7802    4.0998 H   0  0  0  0  0  0  0  0  0  0  0  0
    3.5766   -7.9730    2.8650 H   0  0  0  0  0  0  0  0  0  0  0  0
    4.6845   -7.8073    1.6128 H   0  0  0  0  0  0  0  0  0  0  0  0
    5.7130   -1.5569    2.9011 H   0  0  0  0  0  0  0  0  0  0  0  0
    5.4957    0.8867    3.0558 H   0  0  0  0  0  0  0  0  0  0  0  0
    1.4786   -1.8947    2.3354 H   0  0  0  0  0  0  0  0  0  0  0  0
    1.0870    2.9968    2.5593 H   0  0  0  0  0  0  0  0  0  0  0  0
    1.3600    2.1935    4.1383 H   0  0  0  0  0  0  0  0  0  0  0  0
    2.9255   -1.7273   -0.0071 H   0  0  0  0  0  0  0  0  0  0  0  0
    6.3241   -0.7379   -3.5813 H   0  0  0  0  0  0  0  0  0  0  0  0
    6.1778    0.6392   -2.4631 H   0  0  0  0  0  0  0  0  0  0  0  0
    7.5758    0.5275   -3.5592 H   0  0  0  0  0  0  0  0  0  0  0  0
  1  2  1  0  0  0  0
  1 28  1  0  0  0  0
  1 29  1  0  0  0  0
  1 30  1  0  0  0  0
  2  3  1  0  0  0  0
  2 31  1  0  0  0  0
  2 32  1  0  0  0  0
  3  8  2  0  0  0  0
  3  4  1  0  0  0  0
  4  5  2  0  0  0  0
  4 33  1  0  0  0  0
  5  6  1  0  0  0  0
  5 26  1  0  0  0  0
  6  7  2  0  0  0  0
  6 34  1  0  0  0  0
  7  8  1  0  0  0  0
  7 25  1  0  0  0  0
  8  9  1  0  0  0  0
  9 14  2  0  0  0  0
  9 10  1  0  0  0  0
 10 11  2  0  0  0  0
 10 16  1  0  0  0  0
 11 12  1  0  0  0  0
 11 35  1  0  0  0  0
 12 13  2  0  0  0  0
 13 14  1  0  0  0  0
 13 15  1  0  0  0  0
 15 36  1  0  0  0  0
 15 37  1  0  0  0  0
 16 21  2  0  0  0  0
 16 17  1  0  0  0  0
 17 18  2  0  0  0  0
 17 38  1  0  0  0  0
 18 19  1  0  0  0  0
 18 39  1  0  0  0  0
 19 24  1  0  0  0  0
 19 20  2  0  0  0  0
 20 21  1  0  0  0  0
 20 22  1  0  0  0  0
 21 40  1  0  0  0  0
 22 23  1  0  0  0  0
 23 24  1  0  0  0  0
 23 41  1  0  0  0  0
 23 42  1  0  0  0  0
 25 43  1  0  0  0  0
 26 27  1  0  0  0  0
 27 44  1  0  0  0  0
 27 45  1  0  0  0  0
 27 46  1  0  0  0  0
M  END
$$$$
ZINC01617169
  -OEChem-08230709453D

 47 49  0     0  0  0  0  0  0999 V2000
    8.8127    8.8778    1.9991 C   0  0  0  0  0  0  0  0  0  0  0  0
    7.6606    8.0356    2.0721 O   0  0  0  0  0  0  0  0  0  0  0  0
    7.4478    7.1895    1.0302 C   0  0  0  0  0  0  0  0  0  0  0  0
    6.3486    6.3447    1.0369 C   0  0  0  0  0  0  0  0  0  0  0  0
    6.1312    5.4805   -0.0280 C   0  0  0  0  0  0  0  0  0  0  0  0
    7.0180    5.4595   -1.0962 C   0  0  0  0  0  0  0  0  0  0  0  0
    8.1136    6.3089   -1.1039 C   0  0  0  0  0  0  0  0  0  0  0  0
    8.3303    7.1715   -0.0396 C   0  0  0  0  0  0  0  0  0  0  0  0
    8.9783    6.2927   -2.1521 O   0  0  0  0  0  0  0  0  0  0  0  0
   10.0884    7.1906   -2.0912 C   0  0  0  0  0  0  0  0  0  0  0  0
    5.0243    4.6289   -0.0219 N   0  0  0  0  0  0  0  0  0  0  0  0
    4.9871    3.8056   -1.2373 C   0  0  0  0  0  0  0  0  0  0  0  0
    3.6902    2.9935   -1.2654 C   0  0  0  0  0  0  0  0  0  0  0  0
    3.6240    2.1034   -0.0212 C   0  0  0  0  0  0  0  0  0  0  0  0
    3.7141    2.9801    1.2309 C   0  0  0  0  0  0  0  0  0  0  0  0
    5.0095    3.7937    1.1859 C   0  0  0  0  0  0  0  0  0  0  0  0
    2.3214    1.3456   -0.0129 C   0  0  0  0  0  0  0  0  0  0  0  0
    2.3074   -0.0501   -0.0202 C   0  0  0  0  0  0  0  0  0  0  0  0
    1.1389   -0.6839   -0.0125 N   0  0  0  0  0  0  0  0  0  0  0  0
    0.0021   -0.0041    0.0020 C   0  0  0  0  0  0  0  0  0  0  0  0
   -0.0159    1.3204    0.0093 N   0  0  0  0  0  0  0  0  0  0  0  0
    1.1126    2.0171    0.0023 C   0  0  0  0  0  0  0  0  0  0  0  0
    1.0727    3.7526    0.0114 Cl  0  0  0  0  0  0  0  0  0  0  0  0
   -1.1970   -0.6950    0.0102 N   0  0  0  0  0  0  0  0  0  0  0  0
    3.4943   -0.7647   -0.0359 N   0  0  0  0  0  0  0  0  0  0  0  0
    9.7096    8.2617    1.9343 H   0  0  0  0  0  0  0  0  0  0  0  0
    8.7434    9.5125    1.1157 H   0  0  0  0  0  0  0  0  0  0  0  0
    8.8641    9.5015    2.8915 H   0  0  0  0  0  0  0  0  0  0  0  0
    5.6613    6.3591    1.8699 H   0  0  0  0  0  0  0  0  0  0  0  0
    6.8519    4.7847   -1.9229 H   0  0  0  0  0  0  0  0  0  0  0  0
    9.1864    7.8298   -0.0442 H   0  0  0  0  0  0  0  0  0  0  0  0
   10.6978    7.0761   -2.9877 H   0  0  0  0  0  0  0  0  0  0  0  0
    9.7235    8.2157   -2.0284 H   0  0  0  0  0  0  0  0  0  0  0  0
   10.6906    6.9646   -1.2112 H   0  0  0  0  0  0  0  0  0  0  0  0
    5.8404    3.1274   -1.2428 H   0  0  0  0  0  0  0  0  0  0  0  0
    5.0305    4.4511   -2.1145 H   0  0  0  0  0  0  0  0  0  0  0  0
    3.6701    2.3708   -2.1598 H   0  0  0  0  0  0  0  0  0  0  0  0
    2.8362    3.6708   -1.2742 H   0  0  0  0  0  0  0  0  0  0  0  0
    4.4554    1.3986   -0.0330 H   0  0  0  0  0  0  0  0  0  0  0  0
    2.8608    3.6576    1.2629 H   0  0  0  0  0  0  0  0  0  0  0  0
    3.7109    2.3479    2.1188 H   0  0  0  0  0  0  0  0  0  0  0  0
    5.8628    3.1156    1.1690 H   0  0  0  0  0  0  0  0  0  0  0  0
    5.0691    4.4305    2.0685 H   0  0  0  0  0  0  0  0  0  0  0  0
   -2.0366   -0.2093    0.0212 H   0  0  0  0  0  0  0  0  0  0  0  0
   -1.1979   -1.6650    0.0050 H   0  0  0  0  0  0  0  0  0  0  0  0
    3.4765   -1.7345   -0.0412 H   0  0  0  0  0  0  0  0  0  0  0  0
    4.3431   -0.2952   -0.0414 H   0  0  0  0  0  0  0  0  0  0  0  0
  1  2  1  0  0  0  0
  1 26  1  0  0  0  0
  1 27  1  0  0  0  0
  1 28  1  0  0  0  0
  2  3  1  0  0  0  0
  3  8  2  0  0  0  0
  3  4  1  0  0  0  0
  4  5  2  0  0  0  0
  4 29  1  0  0  0  0
  5  6  1  0  0  0  0
  5 11  1  0  0  0  0
  6  7  2  0  0  0  0
  6 30  1  0  0  0  0
  7  8  1  0  0  0  0
  7  9  1  0  0  0  0
  8 31  1  0  0  0  0
  9 10  1  0  0  0  0
 10 32  1  0  0  0  0
 10 33  1  0  0  0  0
 10 34  1  0  0  0  0
 11 16  1  0  0  0  0
 11 12  1  0  0  0  0
 12 13  1  0  0  0  0
 12 35  1  0  0  0  0
 12 36  1  0  0  0  0
 13 14  1  0  0  0  0
 13 37  1  0  0  0  0
 13 38  1  0  0  0  0
 14 15  1  0  0  0  0
 14 17  1  0  0  0  0
 14 39  1  0  0  0  0
 15 16  1  0  0  0  0
 15 40  1  0  0  0  0
 15 41  1  0  0  0  0
 16 42  1  0  0  0  0
 16 43  1  0  0  0  0
 17 22  2  0  0  0  0
 17 18  1  0  0  0  0
 18 19  2  0  0  0  0
 18 25  1  0  0  0  0
 19 20  1  0  0  0  0
 20 21  2  0  0  0  0
 20 24  1  0  0  0  0
 21 22  1  0  0  0  0
 22 23  1  0  0  0  0
 24 44  1  0  0  0  0
 24 45  1  0  0  0  0
 25 46  1  0  0  0  0
 25 47  1  0  0  0  0
M  END
$$$$
ZINC01633087
  -OEChem-08230709453D

 44 46  0     1  0  0  0  0  0999 V2000
   -2.3605    5.2398    0.0499 C   0  0  0  0  0  0  0  0  0  0  0  0
   -2.4214    3.8121    0.0433 O   0  0  0  0  0  0  0  0  0  0  0  0
   -1.2371    3.1437    0.0293 C   0  0  0  0  0  0  0  0  0  0  0  0
   -0.0431    3.8467    0.0222 C   0  0  0  0  0  0  0  0  0  0  0  0
    1.1599    3.1657    0.0080 C   0  0  0  0  0  0  0  0  0  0  0  0
    1.1751    1.7833    0.0004 C   0  0  0  0  0  0  0  0  0  0  0  0
   -0.0126    1.0758    0.0080 C   0  0  0  0  0  0  0  0  0  0  0  0
   -1.2218    1.7523    0.0173 C   0  0  0  0  0  0  0  0  0  0  0  0
   -2.3911    1.0579    0.0196 O   0  0  0  0  0  0  0  0  0  0  0  0
   -2.2988   -0.3681    0.0119 C   0  0  0  0  0  0  0  0  0  0  0  0
    2.4893    1.0459   -0.0156 C   0  0  1  0  0  0  0  0  0  0  0  0
    2.4280    0.0765    0.4789 H   0  0  0  0  0  0  0  0  0  0  0  0
    3.1157    0.9692   -1.4080 C   0  0  2  0  0  0  0  0  0  0  0  0
    3.4437   -0.0286   -1.6995 H   0  0  0  0  0  0  0  0  0  0  0  0
    4.1822    1.8078   -0.7594 C   0  0  0  0  0  0  0  0  0  0  0  0
    5.2133    2.2798   -1.1895 O   0  0  0  0  0  0  0  0  0  0  0  0
    3.6093    1.8607    0.4574 N   0  0  0  0  0  0  0  0  0  0  0  0
    3.9477    2.4547    1.6803 N   0  0  0  0  0  0  0  0  0  0  0  0
    4.9166    1.9151    2.4463 C   0  0  0  0  0  0  0  0  0  0  0  0
    5.4969    0.9128    2.0760 O   0  0  0  0  0  0  0  0  0  0  0  0
    5.2729    2.5405    3.7340 C   0  0  0  0  0  0  0  0  0  0  0  0
    4.6106    3.6961    4.1584 C   0  0  0  0  0  0  0  0  0  0  0  0
    4.9410    4.2736    5.3630 C   0  0  0  0  0  0  0  0  0  0  0  0
    5.9423    3.7153    6.1529 C   0  0  0  0  0  0  0  0  0  0  0  0
    6.6077    2.5678    5.7303 C   0  0  0  0  0  0  0  0  0  0  0  0
    6.2776    1.9821    4.5296 C   0  0  0  0  0  0  0  0  0  0  0  0
    6.2782    4.3048    7.3666 N   0  0  0  0  0  0  0  0  0  0  0  0
    2.1799    1.8200   -2.6930 Cl  0  0  0  0  0  0  0  0  0  0  0  0
   -1.8397    5.5854   -0.8430 H   0  0  0  0  0  0  0  0  0  0  0  0
   -3.3717    5.6465    0.0610 H   0  0  0  0  0  0  0  0  0  0  0  0
   -1.8237    5.5764    0.9368 H   0  0  0  0  0  0  0  0  0  0  0  0
   -0.0522    4.9266    0.0273 H   0  0  0  0  0  0  0  0  0  0  0  0
    2.0898    3.7148    0.0024 H   0  0  0  0  0  0  0  0  0  0  0  0
    0.0021   -0.0041    0.0020 H   0  0  0  0  0  0  0  0  0  0  0  0
   -3.3009   -0.7971    0.0147 H   0  0  0  0  0  0  0  0  0  0  0  0
   -1.7670   -0.6930   -0.8824 H   0  0  0  0  0  0  0  0  0  0  0  0
   -1.7582   -0.7020    0.8976 H   0  0  0  0  0  0  0  0  0  0  0  0
    3.4848    3.2542    1.9757 H   0  0  0  0  0  0  0  0  0  0  0  0
    3.8373    4.1326    3.5437 H   0  0  0  0  0  0  0  0  0  0  0  0
    4.4266    5.1638    5.6936 H   0  0  0  0  0  0  0  0  0  0  0  0
    7.3841    2.1371    6.3452 H   0  0  0  0  0  0  0  0  0  0  0  0
    6.7940    1.0917    4.2024 H   0  0  0  0  0  0  0  0  0  0  0  0
    6.9754    3.9165    7.9179 H   0  0  0  0  0  0  0  0  0  0  0  0
    5.8152    5.1043    7.6620 H   0  0  0  0  0  0  0  0  0  0  0  0
  1  2  1  0  0  0  0
  1 29  1  0  0  0  0
  1 30  1  0  0  0  0
  1 31  1  0  0  0  0
  2  3  1  0  0  0  0
  3  8  2  0  0  0  0
  3  4  1  0  0  0  0
  4  5  2  0  0  0  0
  4 32  1  0  0  0  0
  5  6  1  0  0  0  0
  5 33  1  0  0  0  0
  6  7  2  0  0  0  0
  6 11  1  0  0  0  0
  7  8  1  0  0  0  0
  7 34  1  0  0  0  0
  8  9  1  0  0  0  0
  9 10  1  0  0  0  0
 10 35  1  0  0  0  0
 10 36  1  0  0  0  0
 10 37  1  0  0  0  0
 11 12  1  0  0  0  0
 11 17  1  0  0  0  0
 11 13  1  0  0  0  0
 13 14  1  0  0  0  0
 13 15  1  0  0  0  0
 13 28  1  0  0  0  0
 15 16  2  0  0  0  0
 15 17  1  0  0  0  0
 17 18  1  0  0  0  0
 18 19  1  0  0  0  0
 18 38  1  0  0  0  0
 19 20  2  0  0  0  0
 19 21  1  0  0  0  0
 21 26  2  0  0  0  0
 21 22  1  0  0  0  0
 22 23  2  0  0  0  0
 22 39  1  0  0  0  0
 23 24  1  0  0  0  0
 23 40  1  0  0  0  0
 24 25  2  0  0  0  0
 24 27  1  0  0  0  0
 25 26  1  0  0  0  0
 25 41  1  0  0  0  0
 26 42  1  0  0  0  0
 27 43  1  0  0  0  0
 27 44  1  0  0  0  0
M  END
$$$$
ZINC01636524
  -OEChem-08230709453D

 45 45  0     0  0  0  0  0  0999 V2000
    4.2107    4.4007    5.2285 C   0  0  0  0  0  0  0  0  0  0  0  0
    2.8163    3.8236    5.4803 C   0  0  0  0  0  0  0  0  0  0  0  0
    1.9052    4.1952    4.3388 C   0  0  0  0  0  0  0  0  0  0  0  0
    2.1138    5.3693    3.6417 C   0  0  0  0  0  0  0  0  0  0  0  0
    1.2786    5.7106    2.5940 C   0  0  0  0  0  0  0  0  0  0  0  0
    0.2318    4.8786    2.2408 C   0  0  0  0  0  0  0  0  0  0  0  0
    0.0178    3.7035    2.9336 C   0  0  0  0  0  0  0  0  0  0  0  0
    0.8553    3.3574    3.9864 C   0  0  0  0  0  0  0  0  0  0  0  0
    0.6410    2.1680    4.6906 N   0  0  0  0  0  0  0  0  0  0  0  0
    0.2812    2.2089    5.9888 C   0  0  0  0  0  0  0  0  0  0  0  0
   -0.2135    0.7767    6.7855 S   0  0  0  0  0  0  0  0  0  0  0  0
    0.3108    3.3774    6.6598 N   0  0  0  0  0  0  0  0  0  0  0  0
   -0.0531    3.4189    7.9729 C   0  0  0  0  0  0  0  0  0  0  0  0
   -0.1481    4.6195    8.6179 C   0  0  0  0  0  0  0  0  0  0  0  0
   -0.3666    4.6569   10.0327 C   0  0  0  0  0  0  0  0  0  0  0  0
   -0.5399    4.6866   11.1550 N   0  0  0  0  0  0  0  0  0  0  0  0
   -0.0260    5.8723    7.8600 C   0  0  0  0  0  0  0  0  0  0  0  0
    0.0373    5.8447    6.6452 O   0  0  0  0  0  0  0  0  0  0  0  0
    0.0158    7.0520    8.5104 N   0  0  0  0  0  0  0  0  0  0  0  0
   -1.1234    2.7978    2.5484 C   0  0  0  0  0  0  0  0  0  0  0  0
   -1.4050    2.9408    1.0513 C   0  0  0  0  0  0  0  0  0  0  0  0
   -0.7510    1.3471    2.8610 C   0  0  0  0  0  0  0  0  0  0  0  0
   -2.3727    3.1859    3.3417 C   0  0  0  0  0  0  0  0  0  0  0  0
    4.9159    3.9704    5.9396 H   0  0  0  0  0  0  0  0  0  0  0  0
    4.5258    4.1597    4.2132 H   0  0  0  0  0  0  0  0  0  0  0  0
    4.1839    5.4832    5.3532 H   0  0  0  0  0  0  0  0  0  0  0  0
    2.4177    4.2293    6.4102 H   0  0  0  0  0  0  0  0  0  0  0  0
    2.8804    2.7381    5.5554 H   0  0  0  0  0  0  0  0  0  0  0  0
    2.9328    6.0191    3.9124 H   0  0  0  0  0  0  0  0  0  0  0  0
    1.4439    6.6292    2.0505 H   0  0  0  0  0  0  0  0  0  0  0  0
   -0.4187    5.1481    1.4219 H   0  0  0  0  0  0  0  0  0  0  0  0
    0.7514    1.3137    4.2446 H   0  0  0  0  0  0  0  0  0  0  0  0
    0.5911    4.1890    6.2083 H   0  0  0  0  0  0  0  0  0  0  0  0
   -0.2664    2.5026    8.5033 H   0  0  0  0  0  0  0  0  0  0  0  0
   -0.0347    7.0740    9.4788 H   0  0  0  0  0  0  0  0  0  0  0  0
    0.0964    7.8791    8.0100 H   0  0  0  0  0  0  0  0  0  0  0  0
   -0.5149    2.6643    0.4862 H   0  0  0  0  0  0  0  0  0  0  0  0
   -2.2304    2.2857    0.7727 H   0  0  0  0  0  0  0  0  0  0  0  0
   -1.6702    3.9743    0.8286 H   0  0  0  0  0  0  0  0  0  0  0  0
   -0.5504    1.2452    3.9275 H   0  0  0  0  0  0  0  0  0  0  0  0
   -1.5764    0.6920    2.5823 H   0  0  0  0  0  0  0  0  0  0  0  0
    0.1391    1.0706    2.2958 H   0  0  0  0  0  0  0  0  0  0  0  0
   -2.7043    4.1779    3.0349 H   0  0  0  0  0  0  0  0  0  0  0  0
   -3.1648    2.4624    3.1490 H   0  0  0  0  0  0  0  0  0  0  0  0
   -2.1391    3.1940    4.4063 H   0  0  0  0  0  0  0  0  0  0  0  0
  1  2  1  0  0  0  0
  1 24  1  0  0  0  0
  1 25  1  0  0  0  0
  1 26  1  0  0  0  0
  2  3  1  0  0  0  0
  2 27  1  0  0  0  0
  2 28  1  0  0  0  0
  3  8  2  0  0  0  0
  3  4  1  0  0  0  0
  4  5  2  0  0  0  0
  4 29  1  0  0  0  0
  5  6  1  0  0  0  0
  5 30  1  0  0  0  0
  6  7  2  0  0  0  0
  6 31  1  0  0  0  0
  7  8  1  0  0  0  0
  7 20  1  0  0  0  0
  8  9  1  0  0  0  0
  9 10  1  0  0  0  0
  9 32  1  0  0  0  0
 10 11  2  0  0  0  0
 10 12  1  0  0  0  0
 12 13  1  0  0  0  0
 12 33  1  0  0  0  0
 13 14  2  0  0  0  0
 13 34  1  0  0  0  0
 14 15  1  0  0  0  0
 14 17  1  0  0  0  0
 15 16  3  0  0  0  0
 17 18  2  0  0  0  0
 17 19  1  0  0  0  0
 19 35  1  0  0  0  0
 19 36  1  0  0  0  0
 20 21  1  0  0  0  0
 20 22  1  0  0  0  0
 20 23  1  0  0  0  0
 21 37  1  0  0  0  0
 21 38  1  0  0  0  0
 21 39  1  0  0  0  0
 22 40  1  0  0  0  0
 22 41  1  0  0  0  0
 22 42  1  0  0  0  0
 23 43  1  0  0  0  0
 23 44  1  0  0  0  0
 23 45  1  0  0  0  0
M  END
$$$$
ZINC01652790
  -OEChem-08230709453D

 42 43  0     0  0  0  0  0  0999 V2000
    0.8069    0.7284    3.6125 C   0  0  0  0  0  0  0  0  0  0  0  0
    0.1909    0.2575    2.3849 O   0  0  0  0  0  0  0  0  0  0  0  0
    0.9304    0.3323    1.2622 C   0  0  0  0  0  0  0  0  0  0  0  0
    2.0231    0.8632    1.2887 O   0  0  0  0  0  0  0  0  0  0  0  0
    0.4587   -0.1818    0.1091 N   0  0  0  0  0  0  0  0  0  0  0  0
   -0.8411   -0.7017    0.0538 N   0  0  0  0  0  0  0  0  0  0  0  0
   -1.0404   -2.0894    0.0178 C   0  0  0  0  0  0  0  0  0  0  0  0
   -0.9908   -2.8785   -1.0984 C   0  0  0  0  0  0  0  0  0  0  0  0
   -1.2450   -4.1756   -0.6749 N   0  0  0  0  0  0  0  0  0  0  0  0
   -1.2796   -4.9692   -1.2315 H   0  0  0  0  0  0  0  0  0  0  0  0
   -1.4377   -4.1197    0.6772 C   0  0  0  0  0  0  0  0  0  0  0  0
   -1.3067   -2.8736    1.0724 N   0  3  0  0  0  0  0  0  0  0  0  0
   -1.4308   -2.4303    2.3956 N   0  0  0  0  0  0  0  0  0  0  0  0
   -1.7948   -5.4943    1.7200 S   0  0  0  0  0  0  0  0  0  0  0  0
   -1.8347   -6.9082    0.5842 C   0  0  0  0  0  0  0  0  0  0  0  0
   -0.7210   -2.4377   -2.4797 C   0  0  0  0  0  0  0  0  0  0  0  0
   -1.3866   -1.3266   -3.0050 C   0  0  0  0  0  0  0  0  0  0  0  0
   -1.1252   -0.9172   -4.2957 C   0  0  0  0  0  0  0  0  0  0  0  0
   -0.2149   -1.6106   -5.0742 C   0  0  0  0  0  0  0  0  0  0  0  0
    0.4441   -2.7149   -4.5627 C   0  0  0  0  0  0  0  0  0  0  0  0
    0.1973   -3.1326   -3.2718 C   0  0  0  0  0  0  0  0  0  0  0  0
   -1.9000    0.1318    0.0353 C   0  0  0  0  0  0  0  0  0  0  0  0
   -3.0275   -0.3191   -0.0127 O   0  0  0  0  0  0  0  0  0  0  0  0
   -1.7087    1.4644    0.0699 O   0  0  0  0  0  0  0  0  0  0  0  0
   -2.8949    2.3015    0.0471 C   0  0  0  0  0  0  0  0  0  0  0  0
    0.1402    0.5318    4.4522 H   0  0  0  0  0  0  0  0  0  0  0  0
    1.7512    0.2069    3.7685 H   0  0  0  0  0  0  0  0  0  0  0  0
    0.9916    1.8001    3.5385 H   0  0  0  0  0  0  0  0  0  0  0  0
    1.0192   -0.1919   -0.6825 H   0  0  0  0  0  0  0  0  0  0  0  0
   -1.3220   -1.4892    2.6041 H   0  0  0  0  0  0  0  0  0  0  0  0
   -1.6254   -3.0644    3.1034 H   0  0  0  0  0  0  0  0  0  0  0  0
   -0.8671   -7.0064    0.0922 H   0  0  0  0  0  0  0  0  0  0  0  0
   -2.0518   -7.8179    1.1440 H   0  0  0  0  0  0  0  0  0  0  0  0
   -2.6094   -6.7497   -0.1661 H   0  0  0  0  0  0  0  0  0  0  0  0
   -2.1005   -0.7873   -2.4001 H   0  0  0  0  0  0  0  0  0  0  0  0
   -1.6357   -0.0564   -4.7016 H   0  0  0  0  0  0  0  0  0  0  0  0
   -0.0176   -1.2881   -6.0859 H   0  0  0  0  0  0  0  0  0  0  0  0
    1.1537   -3.2506   -5.1758 H   0  0  0  0  0  0  0  0  0  0  0  0
    0.7126   -3.9943   -2.8738 H   0  0  0  0  0  0  0  0  0  0  0  0
   -2.6001    3.3504    0.0792 H   0  0  0  0  0  0  0  0  0  0  0  0
   -3.4572    2.1100   -0.8668 H   0  0  0  0  0  0  0  0  0  0  0  0
   -3.5179    2.0725    0.9117 H   0  0  0  0  0  0  0  0  0  0  0  0
  1  2  1  0  0  0  0
  1 26  1  0  0  0  0
  1 27  1  0  0  0  0
  1 28  1  0  0  0  0
  2  3  1  0  0  0  0
  3  4  2  0  0  0  0
  3  5  1  0  0  0  0
  5  6  1  0  0  0  0
  5 29  1  0  0  0  0
  6  7  1  0  0  0  0
  6 22  1  0  0  0  0
  7 12  1  0  0  0  0
  7  8  2  0  0  0  0
  8  9  1  0  0  0  0
  8 16  1  0  0  0  0
  9 10  1  0  0  0  0
  9 11  1  0  0  0  0
 11 12  2  0  0  0  0
 11 14  1  0  0  0  0
 12 13  1  0  0  0  0
 13 30  1  0  0  0  0
 13 31  1  0  0  0  0
 14 15  1  0  0  0  0
 15 32  1  0  0  0  0
 15 33  1  0  0  0  0
 15 34  1  0  0  0  0
 16 21  2  0  0  0  0
 16 17  1  0  0  0  0
 17 18  2  0  0  0  0
 17 35  1  0  0  0  0
 18 19  1  0  0  0  0
 18 36  1  0  0  0  0
 19 20  2  0  0  0  0
 19 37  1  0  0  0  0
 20 21  1  0  0  0  0
 20 38  1  0  0  0  0
 21 39  1  0  0  0  0
 22 23  2  0  0  0  0
 22 24  1  0  0  0  0
 24 25  1  0  0  0  0
 25 40  1  0  0  0  0
 25 41  1  0  0  0  0
 25 42  1  0  0  0  0
M  CHG  1  12   1
M  END
$$$$
ZINC01677127
  -OEChem-08230709453D

 45 47  0     0  0  0  0  0  0999 V2000
   -2.0384   -3.3684   -5.2397 C   0  0  0  0  0  0  0  0  0  0  0  0
   -1.8475   -2.6790   -3.9133 C   0  0  0  0  0  0  0  0  0  0  0  0
   -1.7675   -3.3882   -2.7881 C   0  0  0  0  0  0  0  0  0  0  0  0
   -1.5779   -2.7411   -1.4917 C   0  0  0  0  0  0  0  0  0  0  0  0
   -1.4826   -1.3778   -1.3585 C   0  0  0  0  0  0  0  0  0  0  0  0
   -1.5539   -0.5411   -2.4780 C   0  0  0  0  0  0  0  0  0  0  0  0
   -1.4643    0.6656   -2.3592 O   0  0  0  0  0  0  0  0  0  0  0  0
   -1.7444   -1.1724   -3.8395 C   0  0  0  0  0  0  0  0  0  0  0  0
   -1.2925   -0.7754    0.0097 C   0  0  0  0  0  0  0  0  0  0  0  0
    0.1635   -0.8458    0.3918 C   0  0  0  0  0  0  0  0  0  0  0  0
    0.8941   -1.9884    0.1238 C   0  0  0  0  0  0  0  0  0  0  0  0
    2.2297   -2.0530    0.4738 C   0  0  0  0  0  0  0  0  0  0  0  0
    2.8358   -0.9750    1.0921 C   0  0  0  0  0  0  0  0  0  0  0  0
    2.1065    0.1677    1.3605 C   0  0  0  0  0  0  0  0  0  0  0  0
    0.7694    0.2330    1.0104 C   0  0  0  0  0  0  0  0  0  0  0  0
   -0.1456    1.6708    1.3408 Cl  0  0  0  0  0  0  0  0  0  0  0  0
   -2.1132   -1.5421    1.0146 C   0  0  0  0  0  0  0  0  0  0  0  0
   -3.4589   -1.7130    0.8018 C   0  0  0  0  0  0  0  0  0  0  0  0
   -4.3101   -2.4497    1.7335 C   0  0  0  0  0  0  0  0  0  0  0  0
   -3.8168   -2.9866    2.8489 C   0  0  0  0  0  0  0  0  0  0  0  0
   -2.3430   -2.8310    3.1481 C   0  0  0  0  0  0  0  0  0  0  0  0
   -1.4954   -2.0661    2.1557 C   0  0  0  0  0  0  0  0  0  0  0  0
   -0.3046   -1.9097    2.3453 O   0  0  0  0  0  0  0  0  0  0  0  0
   -4.7146   -3.7380    3.7977 C   0  0  0  0  0  0  0  0  0  0  0  0
   -4.0151   -1.1852   -0.3110 O   0  0  0  0  0  0  0  0  0  0  0  0
   -1.4981   -3.5113   -0.3842 O   0  0  0  0  0  0  0  0  0  0  0  0
   -1.0650   -3.5987   -5.6728 H   0  0  0  0  0  0  0  0  0  0  0  0
   -2.5981   -4.2919   -5.0920 H   0  0  0  0  0  0  0  0  0  0  0  0
   -2.5900   -2.7130   -5.9137 H   0  0  0  0  0  0  0  0  0  0  0  0
   -1.8402   -4.4647   -2.8357 H   0  0  0  0  0  0  0  0  0  0  0  0
   -2.6525   -0.7555   -4.2750 H   0  0  0  0  0  0  0  0  0  0  0  0
   -0.9086   -0.8653   -4.4681 H   0  0  0  0  0  0  0  0  0  0  0  0
   -1.6147    0.2658   -0.0038 H   0  0  0  0  0  0  0  0  0  0  0  0
    0.4210   -2.8308   -0.3588 H   0  0  0  0  0  0  0  0  0  0  0  0
    2.8001   -2.9457    0.2639 H   0  0  0  0  0  0  0  0  0  0  0  0
    3.8794   -1.0261    1.3653 H   0  0  0  0  0  0  0  0  0  0  0  0
    2.5802    1.0098    1.8431 H   0  0  0  0  0  0  0  0  0  0  0  0
   -5.3623   -2.5578    1.5156 H   0  0  0  0  0  0  0  0  0  0  0  0
   -1.9172   -3.8294    3.2488 H   0  0  0  0  0  0  0  0  0  0  0  0
   -2.2506   -2.3363    4.1149 H   0  0  0  0  0  0  0  0  0  0  0  0
   -5.1260   -3.0466    4.5331 H   0  0  0  0  0  0  0  0  0  0  0  0
   -5.5282   -4.2004    3.2388 H   0  0  0  0  0  0  0  0  0  0  0  0
   -4.1390   -4.5106    4.3076 H   0  0  0  0  0  0  0  0  0  0  0  0
   -4.9934   -1.3918   -0.3248 H   0  0  0  0  0  0  0  0  0  0  0  0
   -1.3694   -2.9288    0.4184 H   0  0  0  0  0  0  0  0  0  0  0  0
  1  2  1  0  0  0  0
  1 27  1  0  0  0  0
  1 28  1  0  0  0  0
  1 29  1  0  0  0  0
  2  8  1  0  0  0  0
  2  3  2  0  0  0  0
  3  4  1  0  0  0  0
  3 30  1  0  0  0  0
  4  5  2  0  0  0  0
  4 26  1  0  0  0  0
  5  6  1  0  0  0  0
  5  9  1  0  0  0  0
  6  7  2  0  0  0  0
  6  8  1  0  0  0  0
  8 31  1  0  0  0  0
  8 32  1  0  0  0  0
  9 10  1  0  0  0  0
  9 17  1  0  0  0  0
  9 33  1  0  0  0  0
 10 15  2  0  0  0  0
 10 11  1  0  0  0  0
 11 12  2  0  0  0  0
 11 34  1  0  0  0  0
 12 13  1  0  0  0  0
 12 35  1  0  0  0  0
 13 14  2  0  0  0  0
 13 36  1  0  0  0  0
 14 15  1  0  0  0  0
 14 37  1  0  0  0  0
 15 16  1  0  0  0  0
 17 22  1  0  0  0  0
 17 18  2  0  0  0  0
 18 19  1  0  0  0  0
 18 25  1  0  0  0  0
 19 20  2  0  0  0  0
 19 38  1  0  0  0  0
 20 21  1  0  0  0  0
 20 24  1  0  0  0  0
 21 22  1  0  0  0  0
 21 39  1  0  0  0  0
 21 40  1  0  0  0  0
 22 23  2  0  0  0  0
 24 41  1  0  0  0  0
 24 42  1  0  0  0  0
 24 43  1  0  0  0  0
 25 44  1  0  0  0  0
 26 45  1  0  0  0  0
M  END
$$$$
ZINC01677127
  -OEChem-08230709453D

 45 47  0     1  0  0  0  0  0999 V2000
   -2.0577   -3.3671   -5.2375 C   0  0  0  0  0  0  0  0  0  0  0  0
   -1.8602   -2.6782   -3.9119 C   0  0  0  0  0  0  0  0  0  0  0  0
   -1.7797   -3.3874   -2.7867 C   0  0  0  0  0  0  0  0  0  0  0  0
   -1.5837   -2.7407   -1.4911 C   0  0  0  0  0  0  0  0  0  0  0  0
   -1.4826   -1.3778   -1.3585 C   0  0  0  0  0  0  0  0  0  0  0  0
   -1.5539   -0.5411   -2.4780 C   0  0  0  0  0  0  0  0  0  0  0  0
   -1.4648    0.6656   -2.3591 O   0  0  0  0  0  0  0  0  0  0  0  0
   -1.7444   -1.1724   -3.8395 C   0  0  0  0  0  0  0  0  0  0  0  0
   -1.2925   -0.7754    0.0097 C   0  0  2  0  0  0  0  0  0  0  0  0
    0.1635   -0.8458    0.3918 C   0  0  0  0  0  0  0  0  0  0  0  0
    0.8941   -1.9884    0.1238 C   0  0  0  0  0  0  0  0  0  0  0  0
    2.2297   -2.0530    0.4738 C   0  0  0  0  0  0  0  0  0  0  0  0
    2.8358   -0.9750    1.0921 C   0  0  0  0  0  0  0  0  0  0  0  0
    2.1065    0.1677    1.3605 C   0  0  0  0  0  0  0  0  0  0  0  0
    0.7694    0.2330    1.0104 C   0  0  0  0  0  0  0  0  0  0  0  0
   -0.1456    1.6708    1.3408 Cl  0  0  0  0  0  0  0  0  0  0  0  0
   -2.1132   -1.5421    1.0146 C   0  0  0  0  0  0  0  0  0  0  0  0
   -3.4589   -1.7130    0.8018 C   0  0  0  0  0  0  0  0  0  0  0  0
   -4.3101   -2.4497    1.7335 C   0  0  0  0  0  0  0  0  0  0  0  0
   -3.8168   -2.9866    2.8489 C   0  0  0  0  0  0  0  0  0  0  0  0
   -2.3430   -2.8310    3.1481 C   0  0  0  0  0  0  0  0  0  0  0  0
   -1.4954   -2.0661    2.1557 C   0  0  0  0  0  0  0  0  0  0  0  0
   -0.3046   -1.9097    2.3453 O   0  0  0  0  0  0  0  0  0  0  0  0
   -4.7146   -3.7380    3.7977 C   0  0  0  0  0  0  0  0  0  0  0  0
   -4.0151   -1.1852   -0.3110 O   0  0  0  0  0  0  0  0  0  0  0  0
   -1.5037   -3.5110   -0.3836 O   0  0  0  0  0  0  0  0  0  0  0  0
   -1.0865   -3.6014   -5.6734 H   0  0  0  0  0  0  0  0  0  0  0  0
   -2.6206   -4.2884   -5.0879 H   0  0  0  0  0  0  0  0  0  0  0  0
   -2.6087   -2.7097   -5.9101 H   0  0  0  0  0  0  0  0  0  0  0  0
   -1.8568   -4.4636   -2.8338 H   0  0  0  0  0  0  0  0  0  0  0  0
   -2.6525   -0.7555   -4.2750 H   0  0  0  0  0  0  0  0  0  0  0  0
   -0.9086   -0.8653   -4.4681 H   0  0  0  0  0  0  0  0  0  0  0  0
   -1.6147    0.2658   -0.0038 H   0  0  0  0  0  0  0  0  0  0  0  0
    0.4210   -2.8308   -0.3588 H   0  0  0  0  0  0  0  0  0  0  0  0
    2.8001   -2.9457    0.2639 H   0  0  0  0  0  0  0  0  0  0  0  0
    3.8794   -1.0261    1.3653 H   0  0  0  0  0  0  0  0  0  0  0  0
    2.5802    1.0098    1.8431 H   0  0  0  0  0  0  0  0  0  0  0  0
   -5.3623   -2.5578    1.5156 H   0  0  0  0  0  0  0  0  0  0  0  0
   -1.9172   -3.8294    3.2488 H   0  0  0  0  0  0  0  0  0  0  0  0
   -2.2506   -2.3363    4.1149 H   0  0  0  0  0  0  0  0  0  0  0  0
   -5.1260   -3.0466    4.5331 H   0  0  0  0  0  0  0  0  0  0  0  0
   -5.5282   -4.2004    3.2388 H   0  0  0  0  0  0  0  0  0  0  0  0
   -4.1390   -4.5106    4.3076 H   0  0  0  0  0  0  0  0  0  0  0  0
   -4.9934   -1.3918   -0.3248 H   0  0  0  0  0  0  0  0  0  0  0  0
   -1.3433    0.8974   -1.3940 H   0  0  0  0  0  0  0  0  0  0  0  0
  1  2  1  0  0  0  0
  1 27  1  0  0  0  0
  1 28  1  0  0  0  0
  1 29  1  0  0  0  0
  2  8  1  0  0  0  0
  2  3  2  0  0  0  0
  3  4  1  0  0  0  0
  3 30  1  0  0  0  0
  4  5  1  0  0  0  0
  4 26  2  0  0  0  0
  5  9  1  0  0  0  0
  5  6  2  0  0  0  0
  6  8  1  0  0  0  0
  6  7  1  0  0  0  0
  7 45  1  0  0  0  0
  8 31  1  0  0  0  0
  8 32  1  0  0  0  0
  9 10  1  0  0  0  0
  9 17  1  0  0  0  0
  9 33  1  0  0  0  0
 10 15  2  0  0  0  0
 10 11  1  0  0  0  0
 11 12  2  0  0  0  0
 11 34  1  0  0  0  0
 12 13  1  0  0  0  0
 12 35  1  0  0  0  0
 13 14  2  0  0  0  0
 13 36  1  0  0  0  0
 14 15  1  0  0  0  0
 14 37  1  0  0  0  0
 15 16  1  0  0  0  0
 17 22  1  0  0  0  0
 17 18  2  0  0  0  0
 18 19  1  0  0  0  0
 18 25  1  0  0  0  0
 19 20  2  0  0  0  0
 19 38  1  0  0  0  0
 20 21  1  0  0  0  0
 20 24  1  0  0  0  0
 21 22  1  0  0  0  0
 21 39  1  0  0  0  0
 21 40  1  0  0  0  0
 22 23  2  0  0  0  0
 24 41  1  0  0  0  0
 24 42  1  0  0  0  0
 24 43  1  0  0  0  0
 25 44  1  0  0  0  0
M  END
$$$$
ZINC01679432
  -OEChem-08230709453D

 43 45  0     0  0  0  0  0  0999 V2000
   -0.6710    3.3524    1.3219 C   0  0  0  0  0  0  0  0  0  0  0  0
   -1.7660    2.4390    0.7671 C   0  0  0  0  0  0  0  0  0  0  0  0
   -3.0985    3.1908    0.7529 C   0  0  0  0  0  0  0  0  0  0  0  0
   -1.4038    2.0161   -0.6580 C   0  0  0  0  0  0  0  0  0  0  0  0
   -0.1911    1.1947   -0.6303 N   0  0  0  0  0  0  0  0  0  0  0  0
    1.0859    1.6331   -0.8279 C   0  0  0  0  0  0  0  0  0  0  0  0
    1.9164    0.6356   -0.7390 N   0  0  0  0  0  0  0  0  0  0  0  0
    1.2280   -0.5030   -0.4795 C   0  0  0  0  0  0  0  0  0  0  0  0
   -0.1314   -0.1576   -0.4068 C   0  0  0  0  0  0  0  0  0  0  0  0
   -1.0287   -1.1068   -0.1589 N   0  0  0  0  0  0  0  0  0  0  0  0
   -0.6497   -2.3623    0.0177 C   0  0  0  0  0  0  0  0  0  0  0  0
    0.6225   -2.7333   -0.0426 N   0  0  0  0  0  0  0  0  0  0  0  0
    1.5850   -1.8492   -0.2858 C   0  0  0  0  0  0  0  0  0  0  0  0
    3.2714   -2.3535   -0.3643 S   0  0  0  0  0  0  0  0  0  0  0  0
    3.0848   -4.1255   -0.0462 C   0  0  0  0  0  0  0  0  0  0  0  0
    4.4397   -4.7850   -0.0662 C   0  0  0  0  0  0  0  0  0  0  0  0
    5.1170   -5.0090    1.1181 C   0  0  0  0  0  0  0  0  0  0  0  0
    6.3575   -5.6182    1.1001 C   0  0  0  0  0  0  0  0  0  0  0  0
    6.9257   -5.9940   -0.1030 C   0  0  0  0  0  0  0  0  0  0  0  0
    6.2509   -5.7653   -1.2873 C   0  0  0  0  0  0  0  0  0  0  0  0
    5.0077   -5.1606   -1.2689 C   0  0  0  0  0  0  0  0  0  0  0  0
    4.2852   -4.9152   -2.5373 N   0  3  0  0  0  0  0  0  0  0  0  0
    4.7298   -5.3488   -3.5851 O   0  0  0  0  0  0  0  0  0  0  0  0
    3.2462   -4.2798   -2.5332 O   0  5  0  0  0  0  0  0  0  0  0  0
   -1.6148   -3.3224    0.2740 N   0  0  0  0  0  0  0  0  0  0  0  0
    0.2783    2.8168    1.3320 H   0  0  0  0  0  0  0  0  0  0  0  0
   -0.5822    4.2373    0.6918 H   0  0  0  0  0  0  0  0  0  0  0  0
   -0.9291    3.6536    2.3371 H   0  0  0  0  0  0  0  0  0  0  0  0
   -1.8548    1.5541    1.3972 H   0  0  0  0  0  0  0  0  0  0  0  0
   -3.8786    2.5401    0.3576 H   0  0  0  0  0  0  0  0  0  0  0  0
   -3.3565    3.4920    1.7681 H   0  0  0  0  0  0  0  0  0  0  0  0
   -3.0097    4.0757    0.1227 H   0  0  0  0  0  0  0  0  0  0  0  0
   -1.2280    2.9031   -1.2666 H   0  0  0  0  0  0  0  0  0  0  0  0
   -2.2239    1.4390   -1.0853 H   0  0  0  0  0  0  0  0  0  0  0  0
    1.3657    2.6567   -1.0287 H   0  0  0  0  0  0  0  0  0  0  0  0
    2.6234   -4.2728    0.9303 H   0  0  0  0  0  0  0  0  0  0  0  0
    2.4537   -4.5685   -0.8167 H   0  0  0  0  0  0  0  0  0  0  0  0
    4.6751   -4.7115    2.0575 H   0  0  0  0  0  0  0  0  0  0  0  0
    6.8850   -5.7967    2.0255 H   0  0  0  0  0  0  0  0  0  0  0  0
    7.8970   -6.4660   -0.1174 H   0  0  0  0  0  0  0  0  0  0  0  0
    6.6949   -6.0585   -2.2271 H   0  0  0  0  0  0  0  0  0  0  0  0
   -2.5500   -3.0694    0.3215 H   0  0  0  0  0  0  0  0  0  0  0  0
   -1.3554   -4.2477    0.4061 H   0  0  0  0  0  0  0  0  0  0  0  0
  1  2  1  0  0  0  0
  1 26  1  0  0  0  0
  1 27  1  0  0  0  0
  1 28  1  0  0  0  0
  2  3  1  0  0  0  0
  2  4  1  0  0  0  0
  2 29  1  0  0  0  0
  3 30  1  0  0  0  0
  3 31  1  0  0  0  0
  3 32  1  0  0  0  0
  4  5  1  0  0  0  0
  4 33  1  0  0  0  0
  4 34  1  0  0  0  0
  5  9  1  0  0  0  0
  5  6  1  0  0  0  0
  6  7  2  0  0  0  0
  6 35  1  0  0  0  0
  7  8  1  0  0  0  0
  8 13  2  0  0  0  0
  8  9  1  0  0  0  0
  9 10  2  0  0  0  0
 10 11  1  0  0  0  0
 11 12  2  0  0  0  0
 11 25  1  0  0  0  0
 12 13  1  0  0  0  0
 13 14  1  0  0  0  0
 14 15  1  0  0  0  0
 15 16  1  0  0  0  0
 15 36  1  0  0  0  0
 15 37  1  0  0  0  0
 16 21  2  0  0  0  0
 16 17  1  0  0  0  0
 17 18  2  0  0  0  0
 17 38  1  0  0  0  0
 18 19  1  0  0  0  0
 18 39  1  0  0  0  0
 19 20  2  0  0  0  0
 19 40  1  0  0  0  0
 20 21  1  0  0  0  0
 20 41  1  0  0  0  0
 21 22  1  0  0  0  0
 22 23  2  0  0  0  0
 22 24  1  0  0  0  0
 25 42  1  0  0  0  0
 25 43  1  0  0  0  0
M  CHG  2  22   1  24  -1
M  END
$$$$
ZINC01700086
  -OEChem-08230709453D

 41 42  0     0  0  0  0  0  0999 V2000
    6.2533    4.2216    0.3935 C   0  0  0  0  0  0  0  0  0  0  0  0
    5.1304    4.9028   -0.3912 C   0  0  0  0  0  0  0  0  0  0  0  0
    5.5936    5.1580   -1.8269 C   0  0  0  0  0  0  0  0  0  0  0  0
    4.7776    6.2342    0.2751 C   0  0  0  0  0  0  0  0  0  0  0  0
    3.9156    4.0112   -0.4063 C   0  0  0  0  0  0  0  0  0  0  0  0
    3.9470    2.7911    0.2440 C   0  0  0  0  0  0  0  0  0  0  0  0
    2.8341    1.9737    0.2363 C   0  0  0  0  0  0  0  0  0  0  0  0
    1.6850    2.3729   -0.4350 C   0  0  0  0  0  0  0  0  0  0  0  0
    1.6559    3.5986   -1.0873 C   0  0  0  0  0  0  0  0  0  0  0  0
    2.7713    4.4147   -1.0711 C   0  0  0  0  0  0  0  0  0  0  0  0
    2.7334    6.0840   -1.9588 Br  0  0  0  0  0  0  0  0  0  0  0  0
    0.5596    1.5458   -0.4490 N   0  0  0  0  0  0  0  0  0  0  0  0
    0.7245   -0.0715   -0.7642 S   0  0  0  0  0  0  0  0  0  0  0  0
    1.7355   -0.5546    0.1098 O   0  0  0  0  0  0  0  0  0  0  0  0
   -0.5875   -0.6168   -0.7865 O   0  0  0  0  0  0  0  0  0  0  0  0
    1.3600   -0.2212   -2.4007 C   0  0  0  0  0  0  0  0  0  0  0  0
    0.4962   -0.2037   -3.4805 C   0  0  0  0  0  0  0  0  0  0  0  0
    0.9915   -0.3151   -4.7649 C   0  0  0  0  0  0  0  0  0  0  0  0
    2.3580   -0.4563   -4.9708 C   0  0  0  0  0  0  0  0  0  0  0  0
    3.2223   -0.4792   -3.8836 C   0  0  0  0  0  0  0  0  0  0  0  0
    2.7209   -0.3616   -2.6022 C   0  0  0  0  0  0  0  0  0  0  0  0
    2.8618   -0.5745   -6.2681 N   0  0  0  0  0  0  0  0  0  0  0  0
    6.5047    3.2731   -0.0811 H   0  0  0  0  0  0  0  0  0  0  0  0
    7.1320    4.8665    0.4044 H   0  0  0  0  0  0  0  0  0  0  0  0
    5.9233    4.0398    1.4164 H   0  0  0  0  0  0  0  0  0  0  0  0
    4.8524    5.7664   -2.3451 H   0  0  0  0  0  0  0  0  0  0  0  0
    6.5488    5.6829   -1.8126 H   0  0  0  0  0  0  0  0  0  0  0  0
    5.7097    4.2064   -2.3458 H   0  0  0  0  0  0  0  0  0  0  0  0
    4.5332    6.0624    1.3233 H   0  0  0  0  0  0  0  0  0  0  0  0
    5.6289    6.9115    0.2067 H   0  0  0  0  0  0  0  0  0  0  0  0
    3.9194    6.6772   -0.2302 H   0  0  0  0  0  0  0  0  0  0  0  0
    4.8417    2.4792    0.7623 H   0  0  0  0  0  0  0  0  0  0  0  0
    2.8582    1.0230    0.7482 H   0  0  0  0  0  0  0  0  0  0  0  0
    0.7628    3.9138   -1.6063 H   0  0  0  0  0  0  0  0  0  0  0  0
   -0.3190    1.9195   -0.2780 H   0  0  0  0  0  0  0  0  0  0  0  0
   -0.5665   -0.0986   -3.3194 H   0  0  0  0  0  0  0  0  0  0  0  0
    0.3167   -0.2969   -5.6079 H   0  0  0  0  0  0  0  0  0  0  0  0
    4.2852   -0.5892   -4.0402 H   0  0  0  0  0  0  0  0  0  0  0  0
    3.3924   -0.3790   -1.7565 H   0  0  0  0  0  0  0  0  0  0  0  0
    3.8162   -0.6727   -6.4107 H   0  0  0  0  0  0  0  0  0  0  0  0
    2.2572   -0.5584   -7.0265 H   0  0  0  0  0  0  0  0  0  0  0  0
  1  2  1  0  0  0  0
  1 23  1  0  0  0  0
  1 24  1  0  0  0  0
  1 25  1  0  0  0  0
  2  3  1  0  0  0  0
  2  4  1  0  0  0  0
  2  5  1  0  0  0  0
  3 26  1  0  0  0  0
  3 27  1  0  0  0  0
  3 28  1  0  0  0  0
  4 29  1  0  0  0  0
  4 30  1  0  0  0  0
  4 31  1  0  0  0  0
  5 10  2  0  0  0  0
  5  6  1  0  0  0  0
  6  7  2  0  0  0  0
  6 32  1  0  0  0  0
  7  8  1  0  0  0  0
  7 33  1  0  0  0  0
  8  9  2  0  0  0  0
  8 12  1  0  0  0  0
  9 10  1  0  0  0  0
  9 34  1  0  0  0  0
 10 11  1  0  0  0  0
 12 13  1  0  0  0  0
 12 35  1  0  0  0  0
 13 14  2  0  0  0  0
 13 15  2  0  0  0  0
 13 16  1  0  0  0  0
 16 21  2  0  0  0  0
 16 17  1  0  0  0  0
 17 18  2  0  0  0  0
 17 36  1  0  0  0  0
 18 19  1  0  0  0  0
 18 37  1  0  0  0  0
 19 20  2  0  0  0  0
 19 22  1  0  0  0  0
 20 21  1  0  0  0  0
 20 38  1  0  0  0  0
 21 39  1  0  0  0  0
 22 40  1  0  0  0  0
 22 41  1  0  0  0  0
M  END
$$$$
ZINC01738994
  -OEChem-08230709453D

 46 47  0     0  0  0  0  0  0999 V2000
   -5.7698   -2.3996  -13.5821 C   0  0  0  0  0  0  0  0  0  0  0  0
   -6.0123   -1.9442  -12.3780 C   0  0  0  0  0  0  0  0  0  0  0  0
   -5.0090   -2.1602  -11.2745 C   0  0  0  0  0  0  0  0  0  0  0  0
   -4.6531   -0.8700  -10.6787 N   0  0  0  0  0  0  0  0  0  0  0  0
   -3.7654   -0.8173   -9.6660 C   0  0  0  0  0  0  0  0  0  0  0  0
   -3.0537   -2.2581   -9.0758 S   0  0  0  0  0  0  0  0  0  0  0  0
   -3.4380    0.3697   -9.1179 N   0  0  0  0  0  0  0  0  0  0  0  0
   -2.5843    0.4171   -8.0086 C   0  0  0  0  0  0  0  0  0  0  0  0
   -1.4241   -0.3457   -7.9918 C   0  0  0  0  0  0  0  0  0  0  0  0
   -0.5827   -0.2981   -6.8980 C   0  0  0  0  0  0  0  0  0  0  0  0
   -0.8963    0.5116   -5.8161 C   0  0  0  0  0  0  0  0  0  0  0  0
   -2.0580    1.2695   -5.8297 C   0  0  0  0  0  0  0  0  0  0  0  0
   -2.8975    1.2273   -6.9252 C   0  0  0  0  0  0  0  0  0  0  0  0
   -0.0671    0.5580   -4.7391 O   0  0  0  0  0  0  0  0  0  0  0  0
    1.0637    1.2777   -4.8687 C   0  0  0  0  0  0  0  0  0  0  0  0
    1.3483    1.7743   -5.9406 O   0  0  0  0  0  0  0  0  0  0  0  0
    1.8797    1.4472   -3.8095 N   0  0  0  0  0  0  0  0  0  0  0  0
    3.1098    2.2302   -3.9504 C   0  0  0  0  0  0  0  0  0  0  0  0
    3.5140    2.7948   -2.5871 C   0  0  0  0  0  0  0  0  0  0  0  0
    4.7988    3.6125   -2.7343 C   0  0  0  0  0  0  0  0  0  0  0  0
    5.9171    2.7140   -3.2661 C   0  0  0  0  0  0  0  0  0  0  0  0
    5.5129    2.1494   -4.6295 C   0  0  0  0  0  0  0  0  0  0  0  0
    4.2281    1.3317   -4.4823 C   0  0  0  0  0  0  0  0  0  0  0  0
   -6.4889   -2.2449  -14.3729 H   0  0  0  0  0  0  0  0  0  0  0  0
   -4.8509   -2.9299  -13.7840 H   0  0  0  0  0  0  0  0  0  0  0  0
   -6.9313   -1.4140  -12.1761 H   0  0  0  0  0  0  0  0  0  0  0  0
   -4.1148   -2.6306  -11.6834 H   0  0  0  0  0  0  0  0  0  0  0  0
   -5.4423   -2.8059  -10.5107 H   0  0  0  0  0  0  0  0  0  0  0  0
   -5.0563   -0.0536  -11.0132 H   0  0  0  0  0  0  0  0  0  0  0  0
   -3.7935    1.1911   -9.4917 H   0  0  0  0  0  0  0  0  0  0  0  0
   -1.1797   -0.9758   -8.8342 H   0  0  0  0  0  0  0  0  0  0  0  0
    0.3199   -0.8910   -6.8849 H   0  0  0  0  0  0  0  0  0  0  0  0
   -2.3038    1.8960   -4.9850 H   0  0  0  0  0  0  0  0  0  0  0  0
   -3.7995    1.8211   -6.9377 H   0  0  0  0  0  0  0  0  0  0  0  0
    1.6524    1.0508   -2.9538 H   0  0  0  0  0  0  0  0  0  0  0  0
    2.9404    3.0507   -4.6477 H   0  0  0  0  0  0  0  0  0  0  0  0
    2.7173    3.4349   -2.2082 H   0  0  0  0  0  0  0  0  0  0  0  0
    3.6835    1.9743   -1.8898 H   0  0  0  0  0  0  0  0  0  0  0  0
    4.6293    4.4330   -3.4315 H   0  0  0  0  0  0  0  0  0  0  0  0
    5.0868    4.0147   -1.7630 H   0  0  0  0  0  0  0  0  0  0  0  0
    6.0866    1.8935   -2.5689 H   0  0  0  0  0  0  0  0  0  0  0  0
    6.8324    3.2966   -3.3710 H   0  0  0  0  0  0  0  0  0  0  0  0
    6.3096    1.5093   -5.0084 H   0  0  0  0  0  0  0  0  0  0  0  0
    5.3434    2.9699   -5.3268 H   0  0  0  0  0  0  0  0  0  0  0  0
    4.3976    0.5112   -3.7850 H   0  0  0  0  0  0  0  0  0  0  0  0
    3.9402    0.9295   -5.4536 H   0  0  0  0  0  0  0  0  0  0  0  0
  1  2  2  0  0  0  0
  1 24  1  0  0  0  0
  1 25  1  0  0  0  0
  2  3  1  0  0  0  0
  2 26  1  0  0  0  0
  3  4  1  0  0  0  0
  3 27  1  0  0  0  0
  3 28  1  0  0  0  0
  4  5  1  0  0  0  0
  4 29  1  0  0  0  0
  5  6  2  0  0  0  0
  5  7  1  0  0  0  0
  7  8  1  0  0  0  0
  7 30  1  0  0  0  0
  8 13  2  0  0  0  0
  8  9  1  0  0  0  0
  9 10  2  0  0  0  0
  9 31  1  0  0  0  0
 10 11  1  0  0  0  0
 10 32  1  0  0  0  0
 11 12  2  0  0  0  0
 11 14  1  0  0  0  0
 12 13  1  0  0  0  0
 12 33  1  0  0  0  0
 13 34  1  0  0  0  0
 14 15  1  0  0  0  0
 15 16  2  0  0  0  0
 15 17  1  0  0  0  0
 17 18  1  0  0  0  0
 17 35  1  0  0  0  0
 18 23  1  0  0  0  0
 18 19  1  0  0  0  0
 18 36  1  0  0  0  0
 19 20  1  0  0  0  0
 19 37  1  0  0  0  0
 19 38  1  0  0  0  0
 20 21  1  0  0  0  0
 20 39  1  0  0  0  0
 20 40  1  0  0  0  0
 21 22  1  0  0  0  0
 21 41  1  0  0  0  0
 21 42  1  0  0  0  0
 22 23  1  0  0  0  0
 22 43  1  0  0  0  0
 22 44  1  0  0  0  0
 23 45  1  0  0  0  0
 23 46  1  0  0  0  0
M  END
$$$$
ZINC01741172
  -OEChem-08230709453D

 46 48  0     0  0  0  0  0  0999 V2000
    2.1908    5.6277    0.0104 C   0  0  0  0  0  0  0  0  0  0  0  0
    2.4158    4.1144    0.0006 C   0  0  0  0  0  0  0  0  0  0  0  0
    1.1533    3.4450    0.0091 O   0  0  0  0  0  0  0  0  0  0  0  0
    1.1754    2.0866    0.0020 C   0  0  0  0  0  0  0  0  0  0  0  0
   -0.0166    1.3745    0.0096 C   0  0  0  0  0  0  0  0  0  0  0  0
    0.0021   -0.0041    0.0020 C   0  0  0  0  0  0  0  0  0  0  0  0
    1.2203   -0.6834   -0.0132 C   0  0  0  0  0  0  0  0  0  0  0  0
    2.4159    0.0352   -0.0208 C   0  0  0  0  0  0  0  0  0  0  0  0
    2.3898    1.4137   -0.0131 C   0  0  0  0  0  0  0  0  0  0  0  0
    1.2444   -2.1639   -0.0209 C   0  0  0  0  0  0  0  0  0  0  0  0
    0.1002   -2.8495   -0.0133 C   0  0  0  0  0  0  0  0  0  0  0  0
    2.4638   -2.8417   -0.0362 N   0  0  0  0  0  0  0  0  0  0  0  0
    2.4865   -4.2425   -0.0435 N   0  0  0  0  0  0  0  0  0  0  0  0
    3.6644   -4.8973   -0.0582 C   0  0  0  0  0  0  0  0  0  0  0  0
    4.7077   -4.2721   -0.0652 O   0  0  0  0  0  0  0  0  0  0  0  0
    3.6883   -6.3687   -0.0659 C   0  0  0  0  0  0  0  0  0  0  0  0
    4.7965   -7.1772   -0.0862 C   0  0  0  0  0  0  0  0  0  0  0  0
    4.3121   -8.4917   -0.0848 C   0  0  0  0  0  0  0  0  0  0  0  0
    3.0124   -8.4349   -0.0712 N   0  0  0  0  0  0  0  0  0  0  0  0
    2.6084   -7.2117   -0.0601 N   0  0  0  0  0  0  0  0  0  0  0  0
    1.6515   -6.9215   -0.0489 H   0  0  0  0  0  0  0  0  0  0  0  0
    5.2105   -9.7036   -0.1050 C   0  0  0  0  0  0  0  0  0  0  0  0
    6.6118   -9.2535   -0.5373 C   0  0  0  0  0  0  0  0  0  0  0  0
    7.0596   -8.0605    0.3101 C   0  0  0  0  0  0  0  0  0  0  0  0
    6.2559   -6.8141   -0.0860 C   0  0  0  0  0  0  0  0  0  0  0  0
    3.1538    6.1383    0.0039 H   0  0  0  0  0  0  0  0  0  0  0  0
    1.6208    5.9160   -0.8729 H   0  0  0  0  0  0  0  0  0  0  0  0
    1.6374    5.9070    0.9070 H   0  0  0  0  0  0  0  0  0  0  0  0
    2.9858    3.8262    0.8839 H   0  0  0  0  0  0  0  0  0  0  0  0
    2.9692    3.8351   -0.8960 H   0  0  0  0  0  0  0  0  0  0  0  0
   -0.9595    1.9011    0.0169 H   0  0  0  0  0  0  0  0  0  0  0  0
   -0.9254   -0.5574    0.0082 H   0  0  0  0  0  0  0  0  0  0  0  0
    3.3608   -0.4876   -0.0322 H   0  0  0  0  0  0  0  0  0  0  0  0
    3.3151    1.9706   -0.0189 H   0  0  0  0  0  0  0  0  0  0  0  0
    0.1178   -3.9293   -0.0189 H   0  0  0  0  0  0  0  0  0  0  0  0
   -0.8437   -2.3248   -0.0015 H   0  0  0  0  0  0  0  0  0  0  0  0
    3.2958   -2.3431   -0.0418 H   0  0  0  0  0  0  0  0  0  0  0  0
    1.6545   -4.7411   -0.0379 H   0  0  0  0  0  0  0  0  0  0  0  0
    5.2566  -10.1440    0.8910 H   0  0  0  0  0  0  0  0  0  0  0  0
    4.8244  -10.4359   -0.8141 H   0  0  0  0  0  0  0  0  0  0  0  0
    7.3138  -10.0765   -0.4035 H   0  0  0  0  0  0  0  0  0  0  0  0
    6.5908   -8.9626   -1.5875 H   0  0  0  0  0  0  0  0  0  0  0  0
    6.8913   -8.2808    1.3642 H   0  0  0  0  0  0  0  0  0  0  0  0
    8.1207   -7.8751    0.1433 H   0  0  0  0  0  0  0  0  0  0  0  0
    6.4390   -6.0147    0.6320 H   0  0  0  0  0  0  0  0  0  0  0  0
    6.5507   -6.4877   -1.0833 H   0  0  0  0  0  0  0  0  0  0  0  0
  1  2  1  0  0  0  0
  1 26  1  0  0  0  0
  1 27  1  0  0  0  0
  1 28  1  0  0  0  0
  2  3  1  0  0  0  0
  2 29  1  0  0  0  0
  2 30  1  0  0  0  0
  3  4  1  0  0  0  0
  4  9  2  0  0  0  0
  4  5  1  0  0  0  0
  5  6  2  0  0  0  0
  5 31  1  0  0  0  0
  6  7  1  0  0  0  0
  6 32  1  0  0  0  0
  7  8  2  0  0  0  0
  7 10  1  0  0  0  0
  8  9  1  0  0  0  0
  8 33  1  0  0  0  0
  9 34  1  0  0  0  0
 10 11  2  0  0  0  0
 10 12  1  0  0  0  0
 11 35  1  0  0  0  0
 11 36  1  0  0  0  0
 12 13  1  0  0  0  0
 12 37  1  0  0  0  0
 13 14  1  0  0  0  0
 13 38  1  0  0  0  0
 14 15  2  0  0  0  0
 14 16  1  0  0  0  0
 16 20  1  0  0  0  0
 16 17  2  0  0  0  0
 17 25  1  0  0  0  0
 17 18  1  0  0  0  0
 18 19  2  0  0  0  0
 18 22  1  0  0  0  0
 19 20  1  0  0  0  0
 20 21  1  0  0  0  0
 22 23  1  0  0  0  0
 22 39  1  0  0  0  0
 22 40  1  0  0  0  0
 23 24  1  0  0  0  0
 23 41  1  0  0  0  0
 23 42  1  0  0  0  0
 24 25  1  0  0  0  0
 24 43  1  0  0  0  0
 24 44  1  0  0  0  0
 25 45  1  0  0  0  0
 25 46  1  0  0  0  0
M  END
$$$$
ZINC01749961
  -OEChem-08230709453D

 45 46  0     0  0  0  0  0  0999 V2000
   -4.8718    0.7598    0.0585 C   0  0  0  0  0  0  0  0  0  0  0  0
   -3.5862    1.5459    0.0413 C   0  0  0  0  0  0  0  0  0  0  0  0
   -3.6118    2.8957    0.0353 C   0  0  0  0  0  0  0  0  0  0  0  0
   -2.3844    3.6048    0.0187 C   0  0  0  0  0  0  0  0  0  0  0  0
   -2.3787    5.3168    0.0106 S   0  0  0  0  0  0  0  0  0  0  0  0
   -1.2278    2.9261    0.0142 N   0  0  0  0  0  0  0  0  0  0  0  0
   -1.2211    1.6094    0.0152 C   0  0  0  0  0  0  0  0  0  0  0  0
   -2.3817    0.9002    0.0312 N   0  0  0  0  0  0  0  0  0  0  0  0
   -2.3543   -0.0694    0.0350 H   0  0  0  0  0  0  0  0  0  0  0  0
   -0.0248    0.9424    0.0057 N   0  0  0  0  0  0  0  0  0  0  0  0
   -4.9241    3.6366    0.0457 C   0  0  0  0  0  0  0  0  0  0  0  0
   -5.3530    3.8941    1.4916 C   0  0  0  0  0  0  0  0  0  0  0  0
   -6.6852    4.6463    1.5022 C   0  0  0  0  0  0  0  0  0  0  0  0
   -7.0959    4.8928    2.8867 N   0  0  0  0  0  0  0  0  0  0  0  0
   -8.2918    5.5707    3.1519 C   0  0  0  0  0  0  0  0  0  0  0  0
   -9.0858    6.0145    2.1027 C   0  0  0  0  0  0  0  0  0  0  0  0
  -10.2682    6.6781    2.3645 C   0  0  0  0  0  0  0  0  0  0  0  0
  -10.6577    6.9113    3.6767 C   0  0  0  0  0  0  0  0  0  0  0  0
   -9.8608    6.4726    4.7259 C   0  0  0  0  0  0  0  0  0  0  0  0
   -8.6811    5.8043    4.4642 C   0  0  0  0  0  0  0  0  0  0  0  0
  -11.8540    7.5884    3.9420 N   0  0  0  0  0  0  0  0  0  0  0  0
  -12.3283    7.7245    5.3214 C   0  0  0  0  0  0  0  0  0  0  0  0
  -12.6316    8.1608    2.8402 C   0  0  0  0  0  0  0  0  0  0  0  0
   -5.1707    0.5746    1.0902 H   0  0  0  0  0  0  0  0  0  0  0  0
   -5.6515    1.3273   -0.4495 H   0  0  0  0  0  0  0  0  0  0  0  0
   -4.7230   -0.1913   -0.4529 H   0  0  0  0  0  0  0  0  0  0  0  0
   -0.0102   -0.0275    0.0104 H   0  0  0  0  0  0  0  0  0  0  0  0
    0.8078    1.4399   -0.0097 H   0  0  0  0  0  0  0  0  0  0  0  0
   -4.8083    4.5879   -0.4738 H   0  0  0  0  0  0  0  0  0  0  0  0
   -5.6834    3.0379   -0.4574 H   0  0  0  0  0  0  0  0  0  0  0  0
   -5.4687    2.9428    2.0111 H   0  0  0  0  0  0  0  0  0  0  0  0
   -4.5937    4.4928    1.9947 H   0  0  0  0  0  0  0  0  0  0  0  0
   -6.5695    5.5975    0.9827 H   0  0  0  0  0  0  0  0  0  0  0  0
   -7.4445    4.0476    0.9991 H   0  0  0  0  0  0  0  0  0  0  0  0
   -6.5393    4.5863    3.6195 H   0  0  0  0  0  0  0  0  0  0  0  0
   -8.7808    5.8366    1.0821 H   0  0  0  0  0  0  0  0  0  0  0  0
  -10.8880    7.0193    1.5485 H   0  0  0  0  0  0  0  0  0  0  0  0
  -10.1636    6.6543    5.7465 H   0  0  0  0  0  0  0  0  0  0  0  0
   -8.0613    5.4631    5.2802 H   0  0  0  0  0  0  0  0  0  0  0  0
  -11.5815    7.3192    6.0041 H   0  0  0  0  0  0  0  0  0  0  0  0
  -12.4928    8.7782    5.5468 H   0  0  0  0  0  0  0  0  0  0  0  0
  -13.2636    7.1773    5.4397 H   0  0  0  0  0  0  0  0  0  0  0  0
  -13.3439    7.4208    2.4754 H   0  0  0  0  0  0  0  0  0  0  0  0
  -13.1701    9.0400    3.1940 H   0  0  0  0  0  0  0  0  0  0  0  0
  -11.9593    8.4475    2.0316 H   0  0  0  0  0  0  0  0  0  0  0  0
  1  2  1  0  0  0  0
  1 24  1  0  0  0  0
  1 25  1  0  0  0  0
  1 26  1  0  0  0  0
  2  8  1  0  0  0  0
  2  3  2  0  0  0  0
  3  4  1  0  0  0  0
  3 11  1  0  0  0  0
  4  5  2  0  0  0  0
  4  6  1  0  0  0  0
  6  7  2  0  0  0  0
  7  8  1  0  0  0  0
  7 10  1  0  0  0  0
  8  9  1  0  0  0  0
 10 27  1  0  0  0  0
 10 28  1  0  0  0  0
 11 12  1  0  0  0  0
 11 29  1  0  0  0  0
 11 30  1  0  0  0  0
 12 13  1  0  0  0  0
 12 31  1  0  0  0  0
 12 32  1  0  0  0  0
 13 14  1  0  0  0  0
 13 33  1  0  0  0  0
 13 34  1  0  0  0  0
 14 15  1  0  0  0  0
 14 35  1  0  0  0  0
 15 20  2  0  0  0  0
 15 16  1  0  0  0  0
 16 17  2  0  0  0  0
 16 36  1  0  0  0  0
 17 18  1  0  0  0  0
 17 37  1  0  0  0  0
 18 19  2  0  0  0  0
 18 21  1  0  0  0  0
 19 20  1  0  0  0  0
 19 38  1  0  0  0  0
 20 39  1  0  0  0  0
 21 22  1  0  0  0  0
 21 23  1  0  0  0  0
 22 40  1  0  0  0  0
 22 41  1  0  0  0  0
 22 42  1  0  0  0  0
 23 43  1  0  0  0  0
 23 44  1  0  0  0  0
 23 45  1  0  0  0  0
M  END
$$$$
ZINC01788293
  -OEChem-08230709453D

 43 44  0     0  0  0  0  0  0999 V2000
    1.7334    2.3840   -1.4458 C   0  0  0  0  0  0  0  0  0  0  0  0
    1.3061    2.1192   -0.0007 C   0  0  0  0  0  0  0  0  0  0  0  0
    0.0408    1.3808    0.0069 N   0  0  0  0  0  0  0  0  0  0  0  0
   -1.2313    2.1073    0.0162 C   0  0  0  0  0  0  0  0  0  0  0  0
   -1.6679    2.3525    1.4619 C   0  0  0  0  0  0  0  0  0  0  0  0
    0.0471    0.0330   -0.0003 C   0  0  0  0  0  0  0  0  0  0  0  0
   -1.4314   -0.8299    0.0086 S   0  0  0  0  0  0  0  0  0  0  0  0
    1.5771   -0.8407   -0.0189 S   0  0  0  0  0  0  0  0  0  0  0  0
    0.9660   -2.5445   -0.0224 C   0  0  0  0  0  0  0  0  0  0  0  0
    2.1337   -3.4969   -0.0381 C   0  0  0  0  0  0  0  0  0  0  0  0
    2.6485   -3.9143    1.1122 N   0  0  0  0  0  0  0  0  0  0  0  0
    3.6743   -4.7510    1.1340 C   0  0  0  0  0  0  0  0  0  0  0  0
    4.2103   -5.1907   -0.0417 N   0  0  0  0  0  0  0  0  0  0  0  0
    4.9618   -5.8040   -0.0430 H   0  0  0  0  0  0  0  0  0  0  0  0
    3.6632   -4.7470   -1.2285 C   0  0  0  0  0  0  0  0  0  0  0  0
    4.1565   -5.1522   -2.3868 N   0  0  0  0  0  0  0  0  0  0  0  0
    3.5418   -4.7948   -3.5538 C   0  0  0  0  0  0  0  0  0  0  0  0
    2.4786   -5.5547   -4.0488 C   0  0  0  0  0  0  0  0  0  0  0  0
    1.8594   -5.1845   -5.2242 C   0  0  0  0  0  0  0  0  0  0  0  0
    2.2960   -4.0702   -5.9190 C   0  0  0  0  0  0  0  0  0  0  0  0
    3.3519   -3.3161   -5.4379 C   0  0  0  0  0  0  0  0  0  0  0  0
    3.9771   -3.6707   -4.2609 C   0  0  0  0  0  0  0  0  0  0  0  0
    2.6194   -3.9025   -1.1912 N   0  0  0  0  0  0  0  0  0  0  0  0
    4.1924   -5.1716    2.3250 N   0  0  0  0  0  0  0  0  0  0  0  0
    2.6748    2.9334   -1.4515 H   0  0  0  0  0  0  0  0  0  0  0  0
    1.8635    1.4349   -1.9659 H   0  0  0  0  0  0  0  0  0  0  0  0
    0.9664    2.9722   -1.9495 H   0  0  0  0  0  0  0  0  0  0  0  0
    1.1760    3.0683    0.5194 H   0  0  0  0  0  0  0  0  0  0  0  0
    2.0731    1.5310    0.5030 H   0  0  0  0  0  0  0  0  0  0  0  0
   -1.1076    3.0630   -0.4931 H   0  0  0  0  0  0  0  0  0  0  0  0
   -1.9904    1.5174   -0.4975 H   0  0  0  0  0  0  0  0  0  0  0  0
   -1.7916    1.3968    1.9712 H   0  0  0  0  0  0  0  0  0  0  0  0
   -0.9088    2.9424    1.9757 H   0  0  0  0  0  0  0  0  0  0  0  0
   -2.6144    2.8931    1.4689 H   0  0  0  0  0  0  0  0  0  0  0  0
    0.3678   -2.7177    0.8722 H   0  0  0  0  0  0  0  0  0  0  0  0
    0.3516   -2.7083   -0.9077 H   0  0  0  0  0  0  0  0  0  0  0  0
    2.1400   -6.4274   -3.5101 H   0  0  0  0  0  0  0  0  0  0  0  0
    1.0348   -5.7683   -5.6057 H   0  0  0  0  0  0  0  0  0  0  0  0
    1.8104   -3.7878   -6.8415 H   0  0  0  0  0  0  0  0  0  0  0  0
    3.6874   -2.4479   -5.9857 H   0  0  0  0  0  0  0  0  0  0  0  0
    4.8013   -3.0815   -3.8868 H   0  0  0  0  0  0  0  0  0  0  0  0
    3.8089   -4.8575    3.1588 H   0  0  0  0  0  0  0  0  0  0  0  0
    4.9440   -5.7847    2.3375 H   0  0  0  0  0  0  0  0  0  0  0  0
  1  2  1  0  0  0  0
  1 25  1  0  0  0  0
  1 26  1  0  0  0  0
  1 27  1  0  0  0  0
  2  3  1  0  0  0  0
  2 28  1  0  0  0  0
  2 29  1  0  0  0  0
  3  4  1  0  0  0  0
  3  6  1  0  0  0  0
  4  5  1  0  0  0  0
  4 30  1  0  0  0  0
  4 31  1  0  0  0  0
  5 32  1  0  0  0  0
  5 33  1  0  0  0  0
  5 34  1  0  0  0  0
  6  7  2  0  0  0  0
  6  8  1  0  0  0  0
  8  9  1  0  0  0  0
  9 10  1  0  0  0  0
  9 35  1  0  0  0  0
  9 36  1  0  0  0  0
 10 23  2  0  0  0  0
 10 11  1  0  0  0  0
 11 12  2  0  0  0  0
 12 13  1  0  0  0  0
 12 24  1  0  0  0  0
 13 14  1  0  0  0  0
 13 15  1  0  0  0  0
 15 16  2  0  0  0  0
 15 23  1  0  0  0  0
 16 17  1  0  0  0  0
 17 22  2  0  0  0  0
 17 18  1  0  0  0  0
 18 19  2  0  0  0  0
 18 37  1  0  0  0  0
 19 20  1  0  0  0  0
 19 38  1  0  0  0  0
 20 21  2  0  0  0  0
 20 39  1  0  0  0  0
 21 22  1  0  0  0  0
 21 40  1  0  0  0  0
 22 41  1  0  0  0  0
 24 42  1  0  0  0  0
 24 43  1  0  0  0  0
M  END
$$$$
ZINC01788413
  -OEChem-08230709453D

 41 43  0     1  0  0  0  0  0999 V2000
    4.7048    4.3921   -0.1166 C   0  0  0  0  0  0  0  0  0  0  0  0
    3.8911    3.1274   -0.3984 C   0  0  1  0  0  0  0  0  0  0  0  0
    3.9502    2.8838   -1.4591 H   0  0  0  0  0  0  0  0  0  0  0  0
    4.4448    1.9627    0.4275 C   0  0  0  0  0  0  0  0  0  0  0  0
    3.8049    0.6505   -0.0293 C   0  0  0  0  0  0  0  0  0  0  0  0
    2.2899    0.8128   -0.0151 C   0  0  0  0  0  0  0  0  0  0  0  0
    1.7216    2.0381   -0.0034 C   0  0  0  0  0  0  0  0  0  0  0  0
   -0.0214    1.7284    0.0115 S   0  0  0  0  0  0  0  0  0  0  0  0
    0.0021   -0.0041    0.0020 C   0  0  0  0  0  0  0  0  0  0  0  0
    1.3577   -0.3018   -0.0123 C   0  0  0  0  0  0  0  0  0  0  0  0
    1.8314   -1.6892   -0.0248 C   0  0  0  0  0  0  0  0  0  0  0  0
    2.0177   -2.2591   -1.0839 O   0  0  0  0  0  0  0  0  0  0  0  0
    2.0604   -2.3335    1.1367 N   0  0  0  0  0  0  0  0  0  0  0  0
   -1.0716   -0.8796    0.0070 N   0  0  0  0  0  0  0  0  0  0  0  0
   -2.3315   -0.4010    0.0215 C   0  0  0  0  0  0  0  0  0  0  0  0
   -2.5257    0.7993    0.0301 O   0  0  0  0  0  0  0  0  0  0  0  0
   -3.4749   -1.3335    0.0268 C   0  0  0  0  0  0  0  0  0  0  0  0
   -3.2539   -2.7134    0.0110 C   0  0  0  0  0  0  0  0  0  0  0  0
   -4.3237   -3.5802    0.0204 C   0  0  0  0  0  0  0  0  0  0  0  0
   -5.6222   -3.0845    0.0358 C   0  0  0  0  0  0  0  0  0  0  0  0
   -5.8465   -1.7127    0.0462 C   0  0  0  0  0  0  0  0  0  0  0  0
   -4.7821   -0.8391    0.0418 C   0  0  0  0  0  0  0  0  0  0  0  0
   -6.6740   -3.9421    0.0403 O   0  0  0  0  0  0  0  0  0  0  0  0
    2.4252    3.3601   -0.0045 C   0  0  0  0  0  0  0  0  0  0  0  0
    4.6485    4.6313    0.9454 H   0  0  0  0  0  0  0  0  0  0  0  0
    5.7448    4.2250   -0.3968 H   0  0  0  0  0  0  0  0  0  0  0  0
    4.3007    5.2211   -0.6976 H   0  0  0  0  0  0  0  0  0  0  0  0
    5.5250    1.9048    0.2932 H   0  0  0  0  0  0  0  0  0  0  0  0
    4.2193    2.1265    1.4812 H   0  0  0  0  0  0  0  0  0  0  0  0
    4.0929   -0.1523    0.6494 H   0  0  0  0  0  0  0  0  0  0  0  0
    4.1376    0.4143   -1.0401 H   0  0  0  0  0  0  0  0  0  0  0  0
    1.9119   -1.8792    1.9808 H   0  0  0  0  0  0  0  0  0  0  0  0
    2.3738   -3.2514    1.1284 H   0  0  0  0  0  0  0  0  0  0  0  0
   -0.9167   -1.8372    0.0001 H   0  0  0  0  0  0  0  0  0  0  0  0
   -2.2453   -3.0993   -0.0051 H   0  0  0  0  0  0  0  0  0  0  0  0
   -4.1537   -4.6467    0.0120 H   0  0  0  0  0  0  0  0  0  0  0  0
   -6.8569   -1.3316    0.0582 H   0  0  0  0  0  0  0  0  0  0  0  0
   -4.9572    0.2265    0.0502 H   0  0  0  0  0  0  0  0  0  0  0  0
   -6.9869   -4.1853   -0.8418 H   0  0  0  0  0  0  0  0  0  0  0  0
    1.9526    4.0270   -0.7256 H   0  0  0  0  0  0  0  0  0  0  0  0
    2.3781    3.8020    0.9908 H   0  0  0  0  0  0  0  0  0  0  0  0
  1  2  1  0  0  0  0
  1 25  1  0  0  0  0
  1 26  1  0  0  0  0
  1 27  1  0  0  0  0
  2  3  1  0  0  0  0
  2 24  1  0  0  0  0
  2  4  1  0  0  0  0
  4  5  1  0  0  0  0
  4 28  1  0  0  0  0
  4 29  1  0  0  0  0
  5  6  1  0  0  0  0
  5 30  1  0  0  0  0
  5 31  1  0  0  0  0
  6 10  1  0  0  0  0
  6  7  2  0  0  0  0
  7  8  1  0  0  0  0
  7 24  1  0  0  0  0
  8  9  1  0  0  0  0
  9 10  2  0  0  0  0
  9 14  1  0  0  0  0
 10 11  1  0  0  0  0
 11 12  2  0  0  0  0
 11 13  1  0  0  0  0
 13 32  1  0  0  0  0
 13 33  1  0  0  0  0
 14 15  1  0  0  0  0
 14 34  1  0  0  0  0
 15 16  2  0  0  0  0
 15 17  1  0  0  0  0
 17 22  2  0  0  0  0
 17 18  1  0  0  0  0
 18 19  2  0  0  0  0
 18 35  1  0  0  0  0
 19 20  1  0  0  0  0
 19 36  1  0  0  0  0
 20 21  2  0  0  0  0
 20 23  1  0  0  0  0
 21 22  1  0  0  0  0
 21 37  1  0  0  0  0
 22 38  1  0  0  0  0
 23 39  1  0  0  0  0
 24 40  1  0  0  0  0
 24 41  1  0  0  0  0
M  END
$$$$
ZINC01788415
  -OEChem-08230709453D

 41 43  0     1  0  0  0  0  0999 V2000
   -0.0187    1.5258    0.0104 C   0  0  0  0  0  0  0  0  0  0  0  0
    0.0021   -0.0041    0.0020 C   0  0  2  0  0  0  0  0  0  0  0  0
   -1.0198   -0.3833    0.0048 H   0  0  0  0  0  0  0  0  0  0  0  0
    0.7423   -0.5142    1.2418 C   0  0  0  0  0  0  0  0  0  0  0  0
    0.5567   -2.0270    1.3728 C   0  0  0  0  0  0  0  0  0  0  0  0
    0.9413   -2.6843    0.0531 C   0  0  0  0  0  0  0  0  0  0  0  0
    1.0083   -1.9655   -1.0886 C   0  0  0  0  0  0  0  0  0  0  0  0
    1.4838   -3.1333   -2.3314 S   0  0  0  0  0  0  0  0  0  0  0  0
    1.5920   -4.5574   -1.3505 C   0  0  0  0  0  0  0  0  0  0  0  0
    1.2580   -4.0957   -0.0848 C   0  0  0  0  0  0  0  0  0  0  0  0
    1.2265   -4.9983    1.0699 C   0  0  0  0  0  0  0  0  0  0  0  0
    0.1981   -5.5822    1.3581 O   0  0  0  0  0  0  0  0  0  0  0  0
    2.3362   -5.1816    1.8125 N   0  0  0  0  0  0  0  0  0  0  0  0
    1.9296   -5.8446   -1.7360 N   0  0  0  0  0  0  0  0  0  0  0  0
    2.2267   -6.1062   -3.0243 C   0  0  0  0  0  0  0  0  0  0  0  0
    2.1985   -5.2125   -3.8483 O   0  0  0  0  0  0  0  0  0  0  0  0
    2.5861   -7.4771   -3.4348 C   0  0  0  0  0  0  0  0  0  0  0  0
    2.6247   -8.5046   -2.4882 C   0  0  0  0  0  0  0  0  0  0  0  0
    2.9550   -9.7838   -2.8765 C   0  0  0  0  0  0  0  0  0  0  0  0
    3.2611  -10.0515   -4.2057 C   0  0  0  0  0  0  0  0  0  0  0  0
    3.2295   -9.0312   -5.1493 C   0  0  0  0  0  0  0  0  0  0  0  0
    2.8945   -7.7505   -4.7703 C   0  0  0  0  0  0  0  0  0  0  0  0
    3.5921  -11.3123   -4.5832 O   0  0  0  0  0  0  0  0  0  0  0  0
    0.7357   -0.5020   -1.2518 C   0  0  0  0  0  0  0  0  0  0  0  0
    1.0039    1.9031    0.0027 H   0  0  0  0  0  0  0  0  0  0  0  0
   -0.5459    1.8868   -0.8726 H   0  0  0  0  0  0  0  0  0  0  0  0
   -0.5289    1.8773    0.9072 H   0  0  0  0  0  0  0  0  0  0  0  0
    1.8042   -0.2864    1.1489 H   0  0  0  0  0  0  0  0  0  0  0  0
    0.3440   -0.0224    2.1293 H   0  0  0  0  0  0  0  0  0  0  0  0
    1.1964   -2.4059    2.1699 H   0  0  0  0  0  0  0  0  0  0  0  0
   -0.4852   -2.2486    1.6039 H   0  0  0  0  0  0  0  0  0  0  0  0
    3.1557   -4.7163    1.5829 H   0  0  0  0  0  0  0  0  0  0  0  0
    2.3153   -5.7789    2.5765 H   0  0  0  0  0  0  0  0  0  0  0  0
    1.9520   -6.5576   -1.0786 H   0  0  0  0  0  0  0  0  0  0  0  0
    2.3917   -8.2965   -1.4544 H   0  0  0  0  0  0  0  0  0  0  0  0
    2.9803  -10.5793   -2.1465 H   0  0  0  0  0  0  0  0  0  0  0  0
    3.4676   -9.2434   -6.1811 H   0  0  0  0  0  0  0  0  0  0  0  0
    2.8699   -6.9584   -5.5040 H   0  0  0  0  0  0  0  0  0  0  0  0
    4.5388  -11.5025   -4.5317 H   0  0  0  0  0  0  0  0  0  0  0  0
    0.1117   -0.3405   -2.1308 H   0  0  0  0  0  0  0  0  0  0  0  0
    1.6766    0.0364   -1.3649 H   0  0  0  0  0  0  0  0  0  0  0  0
  1  2  1  0  0  0  0
  1 25  1  0  0  0  0
  1 26  1  0  0  0  0
  1 27  1  0  0  0  0
  2  3  1  0  0  0  0
  2 24  1  0  0  0  0
  2  4  1  0  0  0  0
  4  5  1  0  0  0  0
  4 28  1  0  0  0  0
  4 29  1  0  0  0  0
  5  6  1  0  0  0  0
  5 30  1  0  0  0  0
  5 31  1  0  0  0  0
  6 10  1  0  0  0  0
  6  7  2  0  0  0  0
  7  8  1  0  0  0  0
  7 24  1  0  0  0  0
  8  9  1  0  0  0  0
  9 10  2  0  0  0  0
  9 14  1  0  0  0  0
 10 11  1  0  0  0  0
 11 12  2  0  0  0  0
 11 13  1  0  0  0  0
 13 32  1  0  0  0  0
 13 33  1  0  0  0  0
 14 15  1  0  0  0  0
 14 34  1  0  0  0  0
 15 16  2  0  0  0  0
 15 17  1  0  0  0  0
 17 22  2  0  0  0  0
 17 18  1  0  0  0  0
 18 19  2  0  0  0  0
 18 35  1  0  0  0  0
 19 20  1  0  0  0  0
 19 36  1  0  0  0  0
 20 21  2  0  0  0  0
 20 23  1  0  0  0  0
 21 22  1  0  0  0  0
 21 37  1  0  0  0  0
 22 38  1  0  0  0  0
 23 39  1  0  0  0  0
 24 40  1  0  0  0  0
 24 41  1  0  0  0  0
M  END
$$$$
ZINC01792924
  -OEChem-08230709453D

 43 44  0     0  0  0  0  0  0999 V2000
    9.8742   -0.6131   -0.0942 C   0  0  0  0  0  0  0  0  0  0  0  0
    8.4396   -1.0745   -0.0826 C   0  0  0  0  0  0  0  0  0  0  0  0
    8.1235   -2.3820   -0.0863 C   0  0  0  0  0  0  0  0  0  0  0  0
    6.3429   -2.3733   -0.0619 S   0  0  0  0  0  0  0  0  0  0  0  0
    6.0621   -0.6647   -0.0583 C   0  0  0  0  0  0  0  0  0  0  0  0
    7.3462   -0.1322   -0.0676 C   0  0  0  0  0  0  0  0  0  0  0  0
    7.5786    1.3154   -0.0630 C   0  0  0  0  0  0  0  0  0  0  0  0
    7.6851    1.9112    0.9930 O   0  0  0  0  0  0  0  0  0  0  0  0
    7.6741    1.9863   -1.2279 N   0  0  0  0  0  0  0  0  0  0  0  0
    7.9063    3.4328   -1.2233 C   0  0  0  0  0  0  0  0  0  0  0  0
    7.9732    3.9432   -2.6641 C   0  0  0  0  0  0  0  0  0  0  0  0
    8.2157    5.4539   -2.6592 C   0  0  0  0  0  0  0  0  0  0  0  0
    8.2782    5.9306   -4.0049 O   0  0  0  0  0  0  0  0  0  0  0  0
    4.8513    0.0085   -0.0436 N   0  0  0  0  0  0  0  0  0  0  0  0
    3.6952   -0.6842   -0.0363 C   0  0  0  0  0  0  0  0  0  0  0  0
    3.7148   -1.8997   -0.0427 O   0  0  0  0  0  0  0  0  0  0  0  0
    2.4035    0.0339   -0.0207 C   0  0  0  0  0  0  0  0  0  0  0  0
    1.2042   -0.6806   -0.0131 C   0  0  0  0  0  0  0  0  0  0  0  0
    0.0021   -0.0041    0.0020 C   0  0  0  0  0  0  0  0  0  0  0  0
   -0.0167    1.3794    0.0096 C   0  0  0  0  0  0  0  0  0  0  0  0
    1.1683    2.0937    0.0021 C   0  0  0  0  0  0  0  0  0  0  0  0
    2.3774    1.4296   -0.0129 C   0  0  0  0  0  0  0  0  0  0  0  0
    9.0526   -3.5685   -0.1002 C   0  0  0  0  0  0  0  0  0  0  0  0
   10.2299   -0.5068    0.9307 H   0  0  0  0  0  0  0  0  0  0  0  0
   10.4875   -1.3467   -0.6174 H   0  0  0  0  0  0  0  0  0  0  0  0
    9.9427    0.3478   -0.6041 H   0  0  0  0  0  0  0  0  0  0  0  0
    7.5892    1.5115   -2.0695 H   0  0  0  0  0  0  0  0  0  0  0  0
    7.0901    3.9301   -0.6992 H   0  0  0  0  0  0  0  0  0  0  0  0
    8.8475    3.6481   -0.7174 H   0  0  0  0  0  0  0  0  0  0  0  0
    8.7894    3.4460   -3.1882 H   0  0  0  0  0  0  0  0  0  0  0  0
    7.0320    3.7280   -3.1699 H   0  0  0  0  0  0  0  0  0  0  0  0
    7.3995    5.9512   -2.1351 H   0  0  0  0  0  0  0  0  0  0  0  0
    9.1569    5.6692   -2.1534 H   0  0  0  0  0  0  0  0  0  0  0  0
    8.4302    6.8828   -4.0782 H   0  0  0  0  0  0  0  0  0  0  0  0
    4.8356    0.9783   -0.0386 H   0  0  0  0  0  0  0  0  0  0  0  0
    1.2175   -1.7605   -0.0194 H   0  0  0  0  0  0  0  0  0  0  0  0
   -0.9265   -0.5555    0.0075 H   0  0  0  0  0  0  0  0  0  0  0  0
   -0.9606    1.9042    0.0169 H   0  0  0  0  0  0  0  0  0  0  0  0
    1.1467    3.1734    0.0081 H   0  0  0  0  0  0  0  0  0  0  0  0
    3.3017    1.9883   -0.0187 H   0  0  0  0  0  0  0  0  0  0  0  0
    9.2856   -3.8596    0.9240 H   0  0  0  0  0  0  0  0  0  0  0  0
    8.5714   -4.4007   -0.6139 H   0  0  0  0  0  0  0  0  0  0  0  0
    9.9728   -3.3033   -0.6208 H   0  0  0  0  0  0  0  0  0  0  0  0
  1  2  1  0  0  0  0
  1 24  1  0  0  0  0
  1 25  1  0  0  0  0
  1 26  1  0  0  0  0
  2  6  1  0  0  0  0
  2  3  2  0  0  0  0
  3  4  1  0  0  0  0
  3 23  1  0  0  0  0
  4  5  1  0  0  0  0
  5  6  2  0  0  0  0
  5 14  1  0  0  0  0
  6  7  1  0  0  0  0
  7  8  2  0  0  0  0
  7  9  1  0  0  0  0
  9 10  1  0  0  0  0
  9 27  1  0  0  0  0
 10 11  1  0  0  0  0
 10 28  1  0  0  0  0
 10 29  1  0  0  0  0
 11 12  1  0  0  0  0
 11 30  1  0  0  0  0
 11 31  1  0  0  0  0
 12 13  1  0  0  0  0
 12 32  1  0  0  0  0
 12 33  1  0  0  0  0
 13 34  1  0  0  0  0
 14 15  1  0  0  0  0
 14 35  1  0  0  0  0
 15 16  2  0  0  0  0
 15 17  1  0  0  0  0
 17 22  2  0  0  0  0
 17 18  1  0  0  0  0
 18 19  2  0  0  0  0
 18 36  1  0  0  0  0
 19 20  1  0  0  0  0
 19 37  1  0  0  0  0
 20 21  2  0  0  0  0
 20 38  1  0  0  0  0
 21 22  1  0  0  0  0
 21 39  1  0  0  0  0
 22 40  1  0  0  0  0
 23 41  1  0  0  0  0
 23 42  1  0  0  0  0
 23 43  1  0  0  0  0
M  END
$$$$
ZINC01801667
  -OEChem-08230709453D

 43 46  0     0  0  0  0  0  0999 V2000
   -1.2215   10.4079    0.0642 C   0  0  0  0  0  0  0  0  0  0  0  0
   -0.0126    9.5083    0.0495 C   0  0  0  0  0  0  0  0  0  0  0  0
    1.2224   10.0322    0.0403 C   0  0  0  0  0  0  0  0  0  0  0  0
    2.2817    8.5984    0.0241 S   0  0  0  0  0  0  0  0  0  0  0  0
    1.0357    7.3352    0.0301 C   0  0  0  0  0  0  0  0  0  0  0  0
   -0.1719    8.0646    0.0446 C   0  0  0  0  0  0  0  0  0  0  0  0
   -1.3681    7.2871    0.0519 C   0  0  0  0  0  0  0  0  0  0  0  0
   -2.4569    7.8374    0.0649 O   0  0  0  0  0  0  0  0  0  0  0  0
   -1.2891    5.9398    0.0449 N   0  0  0  0  0  0  0  0  0  0  0  0
   -0.0715    5.3172    0.0308 C   0  0  0  0  0  0  0  0  0  0  0  0
    1.0524    6.0138    0.0242 N   0  0  0  0  0  0  0  0  0  0  0  0
   -0.0192    3.8489    0.0229 C   0  0  0  0  0  0  0  0  0  0  0  0
    1.1907    3.1566    0.0076 C   0  0  0  0  0  0  0  0  0  0  0  0
    1.1847    1.7787    0.0003 C   0  0  0  0  0  0  0  0  0  0  0  0
   -0.0126    1.0758    0.0080 C   0  0  0  0  0  0  0  0  0  0  0  0
   -1.2194    1.7408    0.0173 C   0  0  0  0  0  0  0  0  0  0  0  0
   -1.2370    3.1348    0.0307 C   0  0  0  0  0  0  0  0  0  0  0  0
   -2.4946    3.8928    0.0463 C   0  0  0  0  0  0  0  0  0  0  0  0
   -2.4756    5.1964    0.0523 N   0  0  0  0  0  0  0  0  0  0  0  0
   -3.7076    3.2192    0.0543 N   0  0  0  0  0  0  0  0  0  0  0  0
   -4.9638    3.9728    0.0698 C   0  0  0  0  0  0  0  0  0  0  0  0
   -6.1431    2.9981    0.0759 C   0  0  0  0  0  0  0  0  0  0  0  0
   -7.4551    3.7851    0.0922 C   0  0  0  0  0  0  0  0  0  0  0  0
   -8.5566    2.8747    0.0979 O   0  0  0  0  0  0  0  0  0  0  0  0
    1.6196   11.4859    0.0425 C   0  0  0  0  0  0  0  0  0  0  0  0
   -1.5038   10.6203    1.0954 H   0  0  0  0  0  0  0  0  0  0  0  0
   -0.9863   11.3410   -0.4477 H   0  0  0  0  0  0  0  0  0  0  0  0
   -2.0489    9.9131   -0.4444 H   0  0  0  0  0  0  0  0  0  0  0  0
    2.1260    3.6965    0.0020 H   0  0  0  0  0  0  0  0  0  0  0  0
    2.1208    1.2401   -0.0119 H   0  0  0  0  0  0  0  0  0  0  0  0
    0.0021   -0.0041    0.0020 H   0  0  0  0  0  0  0  0  0  0  0  0
   -2.1457    1.1856    0.0184 H   0  0  0  0  0  0  0  0  0  0  0  0
   -3.7238    2.2494    0.0495 H   0  0  0  0  0  0  0  0  0  0  0  0
   -5.0027    4.5958    0.9634 H   0  0  0  0  0  0  0  0  0  0  0  0
   -5.0194    4.6048   -0.8165 H   0  0  0  0  0  0  0  0  0  0  0  0
   -6.1042    2.3750   -0.8176 H   0  0  0  0  0  0  0  0  0  0  0  0
   -6.0876    2.3661    0.9623 H   0  0  0  0  0  0  0  0  0  0  0  0
   -7.4940    4.4081    0.9857 H   0  0  0  0  0  0  0  0  0  0  0  0
   -7.5107    4.4171   -0.7941 H   0  0  0  0  0  0  0  0  0  0  0  0
   -9.4225    3.3051    0.1082 H   0  0  0  0  0  0  0  0  0  0  0  0
    2.7066   11.5656    0.0320 H   0  0  0  0  0  0  0  0  0  0  0  0
    1.2108   11.9756   -0.8413 H   0  0  0  0  0  0  0  0  0  0  0  0
    1.2286   11.9680    0.9386 H   0  0  0  0  0  0  0  0  0  0  0  0
  1  2  1  0  0  0  0
  1 26  1  0  0  0  0
  1 27  1  0  0  0  0
  1 28  1  0  0  0  0
  2  6  1  0  0  0  0
  2  3  2  0  0  0  0
  3  4  1  0  0  0  0
  3 25  1  0  0  0  0
  4  5  1  0  0  0  0
  5 11  1  0  0  0  0
  5  6  2  0  0  0  0
  6  7  1  0  0  0  0
  7  8  2  0  0  0  0
  7  9  1  0  0  0  0
  9 19  1  0  0  0  0
  9 10  1  0  0  0  0
 10 11  2  0  0  0  0
 10 12  1  0  0  0  0
 12 17  2  0  0  0  0
 12 13  1  0  0  0  0
 13 14  2  0  0  0  0
 13 29  1  0  0  0  0
 14 15  1  0  0  0  0
 14 30  1  0  0  0  0
 15 16  2  0  0  0  0
 15 31  1  0  0  0  0
 16 17  1  0  0  0  0
 16 32  1  0  0  0  0
 17 18  1  0  0  0  0
 18 19  2  0  0  0  0
 18 20  1  0  0  0  0
 20 21  1  0  0  0  0
 20 33  1  0  0  0  0
 21 22  1  0  0  0  0
 21 34  1  0  0  0  0
 21 35  1  0  0  0  0
 22 23  1  0  0  0  0
 22 36  1  0  0  0  0
 22 37  1  0  0  0  0
 23 24  1  0  0  0  0
 23 38  1  0  0  0  0
 23 39  1  0  0  0  0
 24 40  1  0  0  0  0
 25 41  1  0  0  0  0
 25 42  1  0  0  0  0
 25 43  1  0  0  0  0
M  END
$$$$
ZINC01871018
  -OEChem-08230709453D

 44 46  0     0  0  0  0  0  0999 V2000
   -0.0167    1.3794    0.0096 C   0  0  0  0  0  0  0  0  0  0  0  0
    1.1683    2.0937    0.0021 C   0  0  0  0  0  0  0  0  0  0  0  0
    2.3774    1.4296   -0.0129 C   0  0  0  0  0  0  0  0  0  0  0  0
    2.4035    0.0339   -0.0207 C   0  0  0  0  0  0  0  0  0  0  0  0
    1.2042   -0.6806   -0.0131 C   0  0  0  0  0  0  0  0  0  0  0  0
    0.0021   -0.0041    0.0020 C   0  0  0  0  0  0  0  0  0  0  0  0
    3.6952   -0.6842   -0.0363 C   0  0  0  0  0  0  0  0  0  0  0  0
    3.7148   -1.8997   -0.0427 O   0  0  0  0  0  0  0  0  0  0  0  0
    4.8513    0.0085   -0.0436 N   0  0  0  0  0  0  0  0  0  0  0  0
    6.0621   -0.6647   -0.0583 C   0  0  0  0  0  0  0  0  0  0  0  0
    7.3443   -0.1332   -0.0733 C   0  0  0  0  0  0  0  0  0  0  0  0
    8.4578   -1.0665   -0.0831 C   0  0  0  0  0  0  0  0  0  0  0  0
    8.1137   -2.3727   -0.0871 C   0  0  0  0  0  0  0  0  0  0  0  0
    6.3434   -2.3743   -0.0702 S   0  0  0  0  0  0  0  0  0  0  0  0
    9.0387   -3.5504   -0.1029 C   0  0  0  0  0  0  0  0  0  0  0  0
   10.4406   -3.0591   -0.4918 C   0  0  0  0  0  0  0  0  0  0  0  0
   10.7816   -1.8251    0.3485 C   0  0  0  0  0  0  0  0  0  0  0  0
    9.9208   -0.6405   -0.0939 C   0  0  0  0  0  0  0  0  0  0  0  0
    7.5667    1.3159   -0.0749 C   0  0  0  0  0  0  0  0  0  0  0  0
    7.6721    1.9165    0.9785 O   0  0  0  0  0  0  0  0  0  0  0  0
    7.6544    1.9829   -1.2427 N   0  0  0  0  0  0  0  0  0  0  0  0
    7.8767    3.4309   -1.2443 C   0  0  0  0  0  0  0  0  0  0  0  0
    7.9362    3.9362   -2.6872 C   0  0  0  0  0  0  0  0  0  0  0  0
    6.6641    3.7483   -3.3105 O   0  0  0  0  0  0  0  0  0  0  0  0
   -0.9606    1.9042    0.0169 H   0  0  0  0  0  0  0  0  0  0  0  0
    1.1467    3.1734    0.0078 H   0  0  0  0  0  0  0  0  0  0  0  0
    3.3017    1.9883   -0.0191 H   0  0  0  0  0  0  0  0  0  0  0  0
    1.2175   -1.7605   -0.0194 H   0  0  0  0  0  0  0  0  0  0  0  0
   -0.9265   -0.5555    0.0075 H   0  0  0  0  0  0  0  0  0  0  0  0
    4.8356    0.9783   -0.0386 H   0  0  0  0  0  0  0  0  0  0  0  0
    9.0706   -4.0056    0.8870 H   0  0  0  0  0  0  0  0  0  0  0  0
    8.6898   -4.2816   -0.8321 H   0  0  0  0  0  0  0  0  0  0  0  0
   11.1700   -3.8457   -0.2985 H   0  0  0  0  0  0  0  0  0  0  0  0
   10.4560   -2.7987   -1.5501 H   0  0  0  0  0  0  0  0  0  0  0  0
   10.5905   -2.0389    1.4000 H   0  0  0  0  0  0  0  0  0  0  0  0
   11.8344   -1.5759    0.2152 H   0  0  0  0  0  0  0  0  0  0  0  0
   10.0639    0.1925    0.5944 H   0  0  0  0  0  0  0  0  0  0  0  0
   10.2075   -0.3361   -1.1005 H   0  0  0  0  0  0  0  0  0  0  0  0
    7.5704    1.5042   -2.0822 H   0  0  0  0  0  0  0  0  0  0  0  0
    7.0586    3.9247   -0.7198 H   0  0  0  0  0  0  0  0  0  0  0  0
    8.8178    3.6546   -0.7419 H   0  0  0  0  0  0  0  0  0  0  0  0
    8.1895    4.9964   -2.6908 H   0  0  0  0  0  0  0  0  0  0  0  0
    8.6955    3.3794   -3.2362 H   0  0  0  0  0  0  0  0  0  0  0  0
    6.6284    4.0471   -4.2295 H   0  0  0  0  0  0  0  0  0  0  0  0
  1  6  2  0  0  0  0
  1  2  1  0  0  0  0
  1 25  1  0  0  0  0
  2  3  2  0  0  0  0
  2 26  1  0  0  0  0
  3  4  1  0  0  0  0
  3 27  1  0  0  0  0
  4  5  2  0  0  0  0
  4  7  1  0  0  0  0
  5  6  1  0  0  0  0
  5 28  1  0  0  0  0
  6 29  1  0  0  0  0
  7  8  2  0  0  0  0
  7  9  1  0  0  0  0
  9 10  1  0  0  0  0
  9 30  1  0  0  0  0
 10 14  1  0  0  0  0
 10 11  2  0  0  0  0
 11 12  1  0  0  0  0
 11 19  1  0  0  0  0
 12 18  1  0  0  0  0
 12 13  2  0  0  0  0
 13 14  1  0  0  0  0
 13 15  1  0  0  0  0
 15 16  1  0  0  0  0
 15 31  1  0  0  0  0
 15 32  1  0  0  0  0
 16 17  1  0  0  0  0
 16 33  1  0  0  0  0
 16 34  1  0  0  0  0
 17 18  1  0  0  0  0
 17 35  1  0  0  0  0
 17 36  1  0  0  0  0
 18 37  1  0  0  0  0
 18 38  1  0  0  0  0
 19 20  2  0  0  0  0
 19 21  1  0  0  0  0
 21 22  1  0  0  0  0
 21 39  1  0  0  0  0
 22 23  1  0  0  0  0
 22 40  1  0  0  0  0
 22 41  1  0  0  0  0
 23 24  1  0  0  0  0
 23 42  1  0  0  0  0
 23 43  1  0  0  0  0
 24 44  1  0  0  0  0
M  END
$$$$
ZINC01871022
  -OEChem-08230709453D

 44 46  0     0  0  0  0  0  0999 V2000
    4.5959    0.4614   -0.0388 C   0  0  0  0  0  0  0  0  0  0  0  0
    3.6661    1.5126   -0.0248 C   0  0  0  0  0  0  0  0  0  0  0  0
    2.4261    0.9399   -0.0161 C   0  0  0  0  0  0  0  0  0  0  0  0
    2.5851   -0.3998   -0.0189 O   0  0  0  0  0  0  0  0  0  0  0  0
    3.8920   -0.6923   -0.0380 C   0  0  0  0  0  0  0  0  0  0  0  0
    1.1468    1.6555   -0.0000 C   0  0  0  0  0  0  0  0  0  0  0  0
    1.1303    2.8725    0.0067 O   0  0  0  0  0  0  0  0  0  0  0  0
   -0.0111    0.9658    0.0074 N   0  0  0  0  0  0  0  0  0  0  0  0
   -1.2199    1.6420    0.0168 C   0  0  0  0  0  0  0  0  0  0  0  0
   -2.5037    1.1139    0.0143 C   0  0  0  0  0  0  0  0  0  0  0  0
   -3.6147    2.0502    0.0300 C   0  0  0  0  0  0  0  0  0  0  0  0
   -3.2671    3.3554    0.0348 C   0  0  0  0  0  0  0  0  0  0  0  0
   -1.4967    3.3523    0.0268 S   0  0  0  0  0  0  0  0  0  0  0  0
   -4.1890    4.5356    0.0440 C   0  0  0  0  0  0  0  0  0  0  0  0
   -5.5975    4.0521   -0.3305 C   0  0  0  0  0  0  0  0  0  0  0  0
   -5.9303    2.8103    0.5015 C   0  0  0  0  0  0  0  0  0  0  0  0
   -5.0788    1.6282    0.0350 C   0  0  0  0  0  0  0  0  0  0  0  0
   -2.7300   -0.3344    0.0007 C   0  0  0  0  0  0  0  0  0  0  0  0
   -2.8223   -0.9458    1.0491 O   0  0  0  0  0  0  0  0  0  0  0  0
   -2.8360   -0.9889   -1.1727 N   0  0  0  0  0  0  0  0  0  0  0  0
   -3.0622   -2.4362   -1.1863 C   0  0  0  0  0  0  0  0  0  0  0  0
   -3.1434   -2.9262   -2.6334 C   0  0  0  0  0  0  0  0  0  0  0  0
   -3.3796   -4.4378   -2.6476 C   0  0  0  0  0  0  0  0  0  0  0  0
   -3.4554   -4.8954   -3.9993 O   0  0  0  0  0  0  0  0  0  0  0  0
    5.6716    0.5566   -0.0490 H   0  0  0  0  0  0  0  0  0  0  0  0
    3.8880    2.5696   -0.0219 H   0  0  0  0  0  0  0  0  0  0  0  0
    4.3140   -1.6864   -0.0464 H   0  0  0  0  0  0  0  0  0  0  0  0
    0.0021   -0.0041    0.0020 H   0  0  0  0  0  0  0  0  0  0  0  0
   -4.2059    4.9805    1.0390 H   0  0  0  0  0  0  0  0  0  0  0  0
   -3.8482    5.2735   -0.6823 H   0  0  0  0  0  0  0  0  0  0  0  0
   -6.3220    4.8386   -0.1189 H   0  0  0  0  0  0  0  0  0  0  0  0
   -5.6282    3.8028   -1.3912 H   0  0  0  0  0  0  0  0  0  0  0  0
   -5.7241    3.0126    1.5525 H   0  0  0  0  0  0  0  0  0  0  0  0
   -6.9854    2.5652    0.3802 H   0  0  0  0  0  0  0  0  0  0  0  0
   -5.2147    0.7884    0.7165 H   0  0  0  0  0  0  0  0  0  0  0  0
   -5.3803    1.3351   -0.9707 H   0  0  0  0  0  0  0  0  0  0  0  0
   -2.7625   -0.5016   -2.0082 H   0  0  0  0  0  0  0  0  0  0  0  0
   -2.2382   -2.9375   -0.6786 H   0  0  0  0  0  0  0  0  0  0  0  0
   -3.9968   -2.6627   -0.6731 H   0  0  0  0  0  0  0  0  0  0  0  0
   -3.9674   -2.4248   -3.1411 H   0  0  0  0  0  0  0  0  0  0  0  0
   -2.2088   -2.6997   -3.1467 H   0  0  0  0  0  0  0  0  0  0  0  0
   -2.5556   -4.9391   -2.1400 H   0  0  0  0  0  0  0  0  0  0  0  0
   -4.3142   -4.6643   -2.1344 H   0  0  0  0  0  0  0  0  0  0  0  0
   -3.6044   -5.8470   -4.0846 H   0  0  0  0  0  0  0  0  0  0  0  0
  1  5  2  0  0  0  0
  1  2  1  0  0  0  0
  1 25  1  0  0  0  0
  2  3  2  0  0  0  0
  2 26  1  0  0  0  0
  3  4  1  0  0  0  0
  3  6  1  0  0  0  0
  4  5  1  0  0  0  0
  5 27  1  0  0  0  0
  6  7  2  0  0  0  0
  6  8  1  0  0  0  0
  8  9  1  0  0  0  0
  8 28  1  0  0  0  0
  9 13  1  0  0  0  0
  9 10  2  0  0  0  0
 10 11  1  0  0  0  0
 10 18  1  0  0  0  0
 11 17  1  0  0  0  0
 11 12  2  0  0  0  0
 12 13  1  0  0  0  0
 12 14  1  0  0  0  0
 14 15  1  0  0  0  0
 14 29  1  0  0  0  0
 14 30  1  0  0  0  0
 15 16  1  0  0  0  0
 15 31  1  0  0  0  0
 15 32  1  0  0  0  0
 16 17  1  0  0  0  0
 16 33  1  0  0  0  0
 16 34  1  0  0  0  0
 17 35  1  0  0  0  0
 17 36  1  0  0  0  0
 18 19  2  0  0  0  0
 18 20  1  0  0  0  0
 20 21  1  0  0  0  0
 20 37  1  0  0  0  0
 21 22  1  0  0  0  0
 21 38  1  0  0  0  0
 21 39  1  0  0  0  0
 22 23  1  0  0  0  0
 22 40  1  0  0  0  0
 22 41  1  0  0  0  0
 23 24  1  0  0  0  0
 23 42  1  0  0  0  0
 23 43  1  0  0  0  0
 24 44  1  0  0  0  0
M  END
$$$$
ZINC01896455
  -OEChem-08230709453D

 38 39  0     0  0  0  0  0  0999 V2000
    7.7934    2.1663    1.3762 C   0  0  0  0  0  0  0  0  0  0  0  0
    7.2736    2.3144   -0.0551 C   0  0  0  0  0  0  0  0  0  0  0  0
    7.7419    1.1233   -0.8936 C   0  0  0  0  0  0  0  0  0  0  0  0
    5.7672    2.3571   -0.0406 C   0  0  0  0  0  0  0  0  0  0  0  0
    4.9132    1.2519   -0.0326 C   0  0  0  0  0  0  0  0  0  0  0  0
    3.6330    1.7779   -0.0231 C   0  0  0  0  0  0  0  0  0  0  0  0
    3.7784    3.1362   -0.0167 N   0  0  0  0  0  0  0  0  0  0  0  0
    3.0272    3.7962   -0.0055 H   0  0  0  0  0  0  0  0  0  0  0  0
    5.0272    3.4363   -0.0272 N   0  0  0  0  0  0  0  0  0  0  0  0
    2.3687    1.0248   -0.0151 C   0  0  0  0  0  0  0  0  0  0  0  0
    2.3852   -0.1913   -0.0217 O   0  0  0  0  0  0  0  0  0  0  0  0
    1.1926    1.6828   -0.0003 N   0  0  0  0  0  0  0  0  0  0  0  0
   -0.0111    0.9658    0.0074 N   0  0  0  0  0  0  0  0  0  0  0  0
   -1.2288    1.6470    0.0168 C   0  0  0  0  0  0  0  0  0  0  0  0
   -1.2469    2.9803    0.0242 C   0  0  0  0  0  0  0  0  0  0  0  0
   -2.5013    0.8891    0.0187 C   0  0  0  0  0  0  0  0  0  0  0  0
   -2.4853   -0.5053    0.0053 C   0  0  0  0  0  0  0  0  0  0  0  0
   -3.6737   -1.2063    0.0135 C   0  0  0  0  0  0  0  0  0  0  0  0
   -4.8804   -0.5279    0.0224 C   0  0  0  0  0  0  0  0  0  0  0  0
   -4.9021    0.8562    0.0300 C   0  0  0  0  0  0  0  0  0  0  0  0
   -3.7198    1.5673    0.0282 C   0  0  0  0  0  0  0  0  0  0  0  0
   -6.5050   -1.4955    0.0249 Br  0  0  0  0  0  0  0  0  0  0  0  0
    8.8829    2.1353    1.3657 H   0  0  0  0  0  0  0  0  0  0  0  0
    7.4597    3.0148    1.9735 H   0  0  0  0  0  0  0  0  0  0  0  0
    7.4078    1.2432    1.8091 H   0  0  0  0  0  0  0  0  0  0  0  0
    7.6591    3.2374   -0.4880 H   0  0  0  0  0  0  0  0  0  0  0  0
    7.3716    1.2288   -1.9133 H   0  0  0  0  0  0  0  0  0  0  0  0
    8.8314    1.0924   -0.9041 H   0  0  0  0  0  0  0  0  0  0  0  0
    7.3564    0.2003   -0.4607 H   0  0  0  0  0  0  0  0  0  0  0  0
    5.1924    0.2086   -0.0356 H   0  0  0  0  0  0  0  0  0  0  0  0
    1.1794    2.6527    0.0050 H   0  0  0  0  0  0  0  0  0  0  0  0
    0.0021   -0.0041    0.0020 H   0  0  0  0  0  0  0  0  0  0  0  0
   -2.1894    3.5076    0.0315 H   0  0  0  0  0  0  0  0  0  0  0  0
   -0.3190    3.5330    0.0228 H   0  0  0  0  0  0  0  0  0  0  0  0
   -1.5445   -1.0355   -0.0065 H   0  0  0  0  0  0  0  0  0  0  0  0
   -3.6625   -2.2862    0.0079 H   0  0  0  0  0  0  0  0  0  0  0  0
   -5.8463    1.3804    0.0377 H   0  0  0  0  0  0  0  0  0  0  0  0
   -3.7379    2.6471    0.0345 H   0  0  0  0  0  0  0  0  0  0  0  0
  1  2  1  0  0  0  0
  1 23  1  0  0  0  0
  1 24  1  0  0  0  0
  1 25  1  0  0  0  0
  2  3  1  0  0  0  0
  2  4  1  0  0  0  0
  2 26  1  0  0  0  0
  3 27  1  0  0  0  0
  3 28  1  0  0  0  0
  3 29  1  0  0  0  0
  4  9  2  0  0  0  0
  4  5  1  0  0  0  0
  5  6  2  0  0  0  0
  5 30  1  0  0  0  0
  6  7  1  0  0  0  0
  6 10  1  0  0  0  0
  7  8  1  0  0  0  0
  7  9  1  0  0  0  0
 10 11  2  0  0  0  0
 10 12  1  0  0  0  0
 12 13  1  0  0  0  0
 12 31  1  0  0  0  0
 13 14  1  0  0  0  0
 13 32  1  0  0  0  0
 14 15  2  0  0  0  0
 14 16  1  0  0  0  0
 15 33  1  0  0  0  0
 15 34  1  0  0  0  0
 16 21  2  0  0  0  0
 16 17  1  0  0  0  0
 17 18  2  0  0  0  0
 17 35  1  0  0  0  0
 18 19  1  0  0  0  0
 18 36  1  0  0  0  0
 19 20  2  0  0  0  0
 19 22  1  0  0  0  0
 20 21  1  0  0  0  0
 20 37  1  0  0  0  0
 21 38  1  0  0  0  0
M  END
$$$$
ZINC01896455
  -OEChem-08230709453D

 38 39  0     0  0  0  0  0  0999 V2000
    7.7891    2.1668    1.3889 C   0  0  0  0  0  0  0  0  0  0  0  0
    7.2737    2.3144   -0.0441 C   0  0  0  0  0  0  0  0  0  0  0  0
    7.7446    1.1230   -0.8808 C   0  0  0  0  0  0  0  0  0  0  0  0
    5.7672    2.3571   -0.0342 C   0  0  0  0  0  0  0  0  0  0  0  0
    4.9132    1.2519   -0.0285 C   0  0  0  0  0  0  0  0  0  0  0  0
    3.6330    1.7779   -0.0231 C   0  0  0  0  0  0  0  0  0  0  0  0
    3.7783    3.1362   -0.0267 N   0  0  0  0  0  0  0  0  0  0  0  0
    5.3859    4.3697   -0.0371 H   0  0  0  0  0  0  0  0  0  0  0  0
    5.0271    3.4363   -0.0333 N   0  0  0  0  0  0  0  0  0  0  0  0
    2.3687    1.0248   -0.0151 C   0  0  0  0  0  0  0  0  0  0  0  0
    2.3852   -0.1913   -0.0217 O   0  0  0  0  0  0  0  0  0  0  0  0
    1.1926    1.6828   -0.0003 N   0  0  0  0  0  0  0  0  0  0  0  0
   -0.0111    0.9658    0.0074 N   0  0  0  0  0  0  0  0  0  0  0  0
   -1.2288    1.6470    0.0168 C   0  0  0  0  0  0  0  0  0  0  0  0
   -1.2469    2.9803    0.0242 C   0  0  0  0  0  0  0  0  0  0  0  0
   -2.5013    0.8891    0.0187 C   0  0  0  0  0  0  0  0  0  0  0  0
   -2.4853   -0.5053    0.0053 C   0  0  0  0  0  0  0  0  0  0  0  0
   -3.6737   -1.2063    0.0135 C   0  0  0  0  0  0  0  0  0  0  0  0
   -4.8804   -0.5279    0.0224 C   0  0  0  0  0  0  0  0  0  0  0  0
   -4.9021    0.8562    0.0300 C   0  0  0  0  0  0  0  0  0  0  0  0
   -3.7198    1.5673    0.0282 C   0  0  0  0  0  0  0  0  0  0  0  0
   -6.5050   -1.4955    0.0249 Br  0  0  0  0  0  0  0  0  0  0  0  0
    8.8786    2.1358    1.3817 H   0  0  0  0  0  0  0  0  0  0  0  0
    7.4535    3.0155    1.9848 H   0  0  0  0  0  0  0  0  0  0  0  0
    7.4022    1.2438    1.8209 H   0  0  0  0  0  0  0  0  0  0  0  0
    7.6605    3.2373   -0.4761 H   0  0  0  0  0  0  0  0  0  0  0  0
    7.3774    1.2282   -1.9016 H   0  0  0  0  0  0  0  0  0  0  0  0
    8.8341    1.0922   -0.8879 H   0  0  0  0  0  0  0  0  0  0  0  0
    7.3577    0.2002   -0.4487 H   0  0  0  0  0  0  0  0  0  0  0  0
    5.1925    0.2086   -0.0283 H   0  0  0  0  0  0  0  0  0  0  0  0
    1.1794    2.6527    0.0050 H   0  0  0  0  0  0  0  0  0  0  0  0
    0.0021   -0.0041    0.0020 H   0  0  0  0  0  0  0  0  0  0  0  0
   -2.1894    3.5076    0.0315 H   0  0  0  0  0  0  0  0  0  0  0  0
   -0.3190    3.5330    0.0228 H   0  0  0  0  0  0  0  0  0  0  0  0
   -1.5445   -1.0355   -0.0065 H   0  0  0  0  0  0  0  0  0  0  0  0
   -3.6625   -2.2862    0.0079 H   0  0  0  0  0  0  0  0  0  0  0  0
   -5.8463    1.3804    0.0377 H   0  0  0  0  0  0  0  0  0  0  0  0
   -3.7379    2.6471    0.0345 H   0  0  0  0  0  0  0  0  0  0  0  0
  1  2  1  0  0  0  0
  1 23  1  0  0  0  0
  1 24  1  0  0  0  0
  1 25  1  0  0  0  0
  2  3  1  0  0  0  0
  2  4  1  0  0  0  0
  2 26  1  0  0  0  0
  3 27  1  0  0  0  0
  3 28  1  0  0  0  0
  3 29  1  0  0  0  0
  4  5  2  0  0  0  0
  4  9  1  0  0  0  0
  5 30  1  0  0  0  0
  5  6  1  0  0  0  0
  6 10  1  0  0  0  0
  6  7  2  0  0  0  0
  7  9  1  0  0  0  0
  8  9  1  0  0  0  0
 10 11  2  0  0  0  0
 10 12  1  0  0  0  0
 12 13  1  0  0  0  0
 12 31  1  0  0  0  0
 13 14  1  0  0  0  0
 13 32  1  0  0  0  0
 14 15  2  0  0  0  0
 14 16  1  0  0  0  0
 15 33  1  0  0  0  0
 15 34  1  0  0  0  0
 16 21  2  0  0  0  0
 16 17  1  0  0  0  0
 17 18  2  0  0  0  0
 17 35  1  0  0  0  0
 18 19  1  0  0  0  0
 18 36  1  0  0  0  0
 19 20  2  0  0  0  0
 19 22  1  0  0  0  0
 20 21  1  0  0  0  0
 20 37  1  0  0  0  0
 21 38  1  0  0  0  0
M  END
$$$$
ZINC01902225
  -OEChem-08230709453D

 41 42  0     0  0  0  0  0  0999 V2000
    6.4244   -9.5663    1.4093 C   0  0  0  0  0  0  0  0  0  0  0  0
    5.0173   -9.7326    1.2240 O   0  0  0  0  0  0  0  0  0  0  0  0
    4.2893   -8.6101    0.9908 C   0  0  0  0  0  0  0  0  0  0  0  0
    4.9190   -7.3738    0.9421 C   0  0  0  0  0  0  0  0  0  0  0  0
    4.1857   -6.2327    0.6997 C   0  0  0  0  0  0  0  0  0  0  0  0
    2.8034   -6.3167    0.5146 C   0  0  0  0  0  0  0  0  0  0  0  0
    2.1693   -7.5610    0.5640 C   0  0  0  0  0  0  0  0  0  0  0  0
    2.9113   -8.7018    0.8013 C   0  0  0  0  0  0  0  0  0  0  0  0
    2.2973   -9.9144    0.8505 O   0  0  0  0  0  0  0  0  0  0  0  0
    0.8828   -9.9340    0.6479 C   0  0  0  0  0  0  0  0  0  0  0  0
    2.0155   -5.0948    0.2615 C   0  0  0  0  0  0  0  0  0  0  0  0
    0.8131   -5.1700    0.0956 O   0  0  0  0  0  0  0  0  0  0  0  0
    2.6286   -3.8954    0.2141 N   0  0  0  0  0  0  0  0  0  0  0  0
    1.8693   -2.7253    0.0866 C   0  0  0  0  0  0  0  0  0  0  0  0
    2.4899   -1.5259   -0.0710 C   0  0  0  0  0  0  0  0  0  0  0  0
    1.7289   -0.3312   -0.0866 C   0  0  0  0  0  0  0  0  0  0  0  0
    2.1671    0.9856   -0.1396 C   0  0  0  0  0  0  0  0  0  0  0  0
    1.2266    1.9850   -0.1442 C   0  0  0  0  0  0  0  0  0  0  0  0
   -0.0939    1.6585   -0.0970 C   0  0  0  0  0  0  0  0  0  0  0  0
   -0.0441   -0.1250   -0.0432 S   0  0  0  0  0  0  0  0  0  0  0  0
    0.4070   -2.7937    0.1232 C   0  0  0  0  0  0  0  0  0  0  0  0
   -0.1764   -2.7842    1.1918 O   0  0  0  0  0  0  0  0  0  0  0  0
   -0.2932   -2.8672   -1.0261 N   0  0  0  0  0  0  0  0  0  0  0  0
   -1.6583   -2.8291   -0.9978 N   0  0  0  0  0  0  0  0  0  0  0  0
    6.8849  -10.5383    1.5865 H   0  0  0  0  0  0  0  0  0  0  0  0
    6.8579   -9.1164    0.5161 H   0  0  0  0  0  0  0  0  0  0  0  0
    6.6039   -8.9175    2.2665 H   0  0  0  0  0  0  0  0  0  0  0  0
    5.9867   -7.3068    1.0898 H   0  0  0  0  0  0  0  0  0  0  0  0
    4.6788   -5.2727    0.6575 H   0  0  0  0  0  0  0  0  0  0  0  0
    1.1017   -7.6306    0.4166 H   0  0  0  0  0  0  0  0  0  0  0  0
    0.5208  -10.9601    0.7124 H   0  0  0  0  0  0  0  0  0  0  0  0
    0.3977   -9.3288    1.4138 H   0  0  0  0  0  0  0  0  0  0  0  0
    0.6511   -9.5281   -0.3368 H   0  0  0  0  0  0  0  0  0  0  0  0
    3.5956   -3.8426    0.2683 H   0  0  0  0  0  0  0  0  0  0  0  0
    3.5631   -1.4841   -0.1844 H   0  0  0  0  0  0  0  0  0  0  0  0
    3.2213    1.2173   -0.1760 H   0  0  0  0  0  0  0  0  0  0  0  0
    1.5312    3.0204   -0.1851 H   0  0  0  0  0  0  0  0  0  0  0  0
   -0.9535    2.3123   -0.0969 H   0  0  0  0  0  0  0  0  0  0  0  0
    0.1724   -2.9472   -1.8733 H   0  0  0  0  0  0  0  0  0  0  0  0
   -2.0412   -2.8935   -1.9292 H   0  0  0  0  0  0  0  0  0  0  0  0
   -2.0282   -3.5560   -0.4038 H   0  0  0  0  0  0  0  0  0  0  0  0
  1  2  1  0  0  0  0
  1 25  1  0  0  0  0
  1 26  1  0  0  0  0
  1 27  1  0  0  0  0
  2  3  1  0  0  0  0
  3  8  2  0  0  0  0
  3  4  1  0  0  0  0
  4  5  2  0  0  0  0
  4 28  1  0  0  0  0
  5  6  1  0  0  0  0
  5 29  1  0  0  0  0
  6  7  2  0  0  0  0
  6 11  1  0  0  0  0
  7  8  1  0  0  0  0
  7 30  1  0  0  0  0
  8  9  1  0  0  0  0
  9 10  1  0  0  0  0
 10 31  1  0  0  0  0
 10 32  1  0  0  0  0
 10 33  1  0  0  0  0
 11 12  2  0  0  0  0
 11 13  1  0  0  0  0
 13 14  1  0  0  0  0
 13 34  1  0  0  0  0
 14 15  2  0  0  0  0
 14 21  1  0  0  0  0
 15 16  1  0  0  0  0
 15 35  1  0  0  0  0
 16 20  1  0  0  0  0
 16 17  2  0  0  0  0
 17 18  1  0  0  0  0
 17 36  1  0  0  0  0
 18 19  2  0  0  0  0
 18 37  1  0  0  0  0
 19 20  1  0  0  0  0
 19 38  1  0  0  0  0
 21 22  2  0  0  0  0
 21 23  1  0  0  0  0
 23 24  1  0  0  0  0
 23 39  1  0  0  0  0
 24 40  1  0  0  0  0
 24 41  1  0  0  0  0
M  END
$$$$
ZINC01921444
  -OEChem-08230709453D

 43 44  0     0  0  0  0  0  0999 V2000
   -6.4477   -1.4368   -1.7682 C   0  0  0  0  0  0  0  0  0  0  0  0
   -5.5310   -2.3140   -2.6232 C   0  0  0  0  0  0  0  0  0  0  0  0
   -6.1618   -2.5187   -4.0020 C   0  0  0  0  0  0  0  0  0  0  0  0
   -3.9195   -1.5025   -2.8101 S   0  0  0  0  0  0  0  0  0  0  0  0
   -3.2457   -1.4718   -1.1261 C   0  0  0  0  0  0  0  0  0  0  0  0
   -1.8898   -0.8143   -1.1394 C   0  0  0  0  0  0  0  0  0  0  0  0
   -1.4240   -0.4065   -2.1820 O   0  0  0  0  0  0  0  0  0  0  0  0
   -1.1950   -0.6794    0.0075 N   0  0  0  0  0  0  0  0  0  0  0  0
   -0.0026    0.0128    0.0138 C   0  0  0  0  0  0  0  0  0  0  0  0
    0.0039    1.3712    0.1427 C   0  0  0  0  0  0  0  0  0  0  0  0
    1.2348    2.0511    0.1464 C   0  0  0  0  0  0  0  0  0  0  0  0
    1.2650    3.2644    0.2599 O   0  0  0  0  0  0  0  0  0  0  0  0
    2.3808    1.3528    0.0232 N   0  0  0  0  0  0  0  0  0  0  0  0
    3.2574    1.8340    0.0255 H   0  0  0  0  0  0  0  0  0  0  0  0
    2.3551    0.0135   -0.1029 C   0  0  0  0  0  0  0  0  0  0  0  0
    3.4005   -0.5978   -0.2124 O   0  0  0  0  0  0  0  0  0  0  0  0
    1.1900   -0.6596   -0.1092 N   0  0  0  0  0  0  0  0  0  0  0  0
    1.1924   -2.0560   -0.2417 C   0  0  0  0  0  0  0  0  0  0  0  0
    1.2305   -2.6350   -1.5017 C   0  0  0  0  0  0  0  0  0  0  0  0
    1.2372   -4.0109   -1.6296 C   0  0  0  0  0  0  0  0  0  0  0  0
    1.1962   -4.8136   -0.5042 C   0  0  0  0  0  0  0  0  0  0  0  0
    1.1527   -4.2439    0.7544 C   0  0  0  0  0  0  0  0  0  0  0  0
    1.1506   -2.8650    0.8914 C   0  0  0  0  0  0  0  0  0  0  0  0
    1.1083   -2.3031    2.1287 O   0  0  0  0  0  0  0  0  0  0  0  0
    1.0669   -3.1944    3.2449 C   0  0  0  0  0  0  0  0  0  0  0  0
   -7.4161   -1.9244   -1.6559 H   0  0  0  0  0  0  0  0  0  0  0  0
   -5.9983   -1.2910   -0.7859 H   0  0  0  0  0  0  0  0  0  0  0  0
   -6.5818   -0.4701   -2.2535 H   0  0  0  0  0  0  0  0  0  0  0  0
   -5.3969   -3.2807   -2.1379 H   0  0  0  0  0  0  0  0  0  0  0  0
   -5.5088   -3.1436   -4.6112 H   0  0  0  0  0  0  0  0  0  0  0  0
   -7.1302   -3.0063   -3.8898 H   0  0  0  0  0  0  0  0  0  0  0  0
   -6.2959   -1.5520   -4.4874 H   0  0  0  0  0  0  0  0  0  0  0  0
   -3.1512   -2.4920   -0.7540 H   0  0  0  0  0  0  0  0  0  0  0  0
   -3.9162   -0.9089   -0.4767 H   0  0  0  0  0  0  0  0  0  0  0  0
   -1.5338   -1.0692    0.8286 H   0  0  0  0  0  0  0  0  0  0  0  0
   -0.9234    1.9169    0.2360 H   0  0  0  0  0  0  0  0  0  0  0  0
    1.2589   -2.0105   -2.3824 H   0  0  0  0  0  0  0  0  0  0  0  0
    1.2707   -4.4605   -2.6110 H   0  0  0  0  0  0  0  0  0  0  0  0
    1.1977   -5.8885   -0.6091 H   0  0  0  0  0  0  0  0  0  0  0  0
    1.1200   -4.8736    1.6312 H   0  0  0  0  0  0  0  0  0  0  0  0
    0.1774   -3.8206    3.1770 H   0  0  0  0  0  0  0  0  0  0  0  0
    1.9562   -3.8247    3.2397 H   0  0  0  0  0  0  0  0  0  0  0  0
    1.0357   -2.6178    4.1693 H   0  0  0  0  0  0  0  0  0  0  0  0
  1  2  1  0  0  0  0
  1 26  1  0  0  0  0
  1 27  1  0  0  0  0
  1 28  1  0  0  0  0
  2  3  1  0  0  0  0
  2  4  1  0  0  0  0
  2 29  1  0  0  0  0
  3 30  1  0  0  0  0
  3 31  1  0  0  0  0
  3 32  1  0  0  0  0
  4  5  1  0  0  0  0
  5  6  1  0  0  0  0
  5 33  1  0  0  0  0
  5 34  1  0  0  0  0
  6  7  2  0  0  0  0
  6  8  1  0  0  0  0
  8  9  1  0  0  0  0
  8 35  1  0  0  0  0
  9 17  1  0  0  0  0
  9 10  2  0  0  0  0
 10 11  1  0  0  0  0
 10 36  1  0  0  0  0
 11 12  2  0  0  0  0
 11 13  1  0  0  0  0
 13 14  1  0  0  0  0
 13 15  1  0  0  0  0
 15 16  2  0  0  0  0
 15 17  1  0  0  0  0
 17 18  1  0  0  0  0
 18 23  2  0  0  0  0
 18 19  1  0  0  0  0
 19 20  2  0  0  0  0
 19 37  1  0  0  0  0
 20 21  1  0  0  0  0
 20 38  1  0  0  0  0
 21 22  2  0  0  0  0
 21 39  1  0  0  0  0
 22 23  1  0  0  0  0
 22 40  1  0  0  0  0
 23 24  1  0  0  0  0
 24 25  1  0  0  0  0
 25 41  1  0  0  0  0
 25 42  1  0  0  0  0
 25 43  1  0  0  0  0
M  END
$$$$
ZINC01922492
  -OEChem-08230709453D

 41 42  0     1  0  0  0  0  0999 V2000
    3.2197    6.8340   11.3687 C   0  0  0  0  0  0  0  0  0  0  0  0
    2.5846    6.3274   10.0722 C   0  0  0  0  0  0  0  0  0  0  0  0
    1.1732    6.1955   10.2530 O   0  0  0  0  0  0  0  0  0  0  0  0
    0.4532    5.7526    9.1881 C   0  0  0  0  0  0  0  0  0  0  0  0
   -0.9216    5.6017    9.2952 C   0  0  0  0  0  0  0  0  0  0  0  0
   -1.6535    5.1519    8.2140 C   0  0  0  0  0  0  0  0  0  0  0  0
   -1.0131    4.8510    7.0194 C   0  0  0  0  0  0  0  0  0  0  0  0
    0.3637    4.9972    6.9145 C   0  0  0  0  0  0  0  0  0  0  0  0
    1.0937    5.4521    7.9948 C   0  0  0  0  0  0  0  0  0  0  0  0
   -1.7551    4.3946    5.9220 N   0  0  0  0  0  0  0  0  0  0  0  0
   -1.3743    4.7172    4.6700 C   0  0  0  0  0  0  0  0  0  0  0  0
   -0.4473    5.4797    4.4955 O   0  0  0  0  0  0  0  0  0  0  0  0
   -2.1003    4.1305    3.4869 C   0  0  1  0  0  0  0  0  0  0  0  0
   -2.0211    3.0437    3.5145 H   0  0  0  0  0  0  0  0  0  0  0  0
   -3.5746    4.5360    3.5409 C   0  0  0  0  0  0  0  0  0  0  0  0
   -1.5008    4.6326    2.2481 N   0  0  0  0  0  0  0  0  0  0  0  0
   -1.4152    5.9428    1.8709 C   0  0  0  0  0  0  0  0  0  0  0  0
   -0.8214    5.9907    0.7039 N   0  0  0  0  0  0  0  0  0  0  0  0
   -0.5118    4.6790    0.3213 N   0  0  0  0  0  0  0  0  0  0  0  0
   -0.9269    3.8725    1.2677 C   0  0  0  0  0  0  0  0  0  0  0  0
   -0.7781    2.1168    1.2718 S   0  0  0  0  0  0  0  0  0  0  0  0
    0.0568    1.7435   -0.2948 C   0  0  0  0  0  0  0  0  0  0  0  0
   -1.8806    7.0328    2.5952 N   0  0  0  0  0  0  0  0  0  0  0  0
    2.7943    7.8038   11.6269 H   0  0  0  0  0  0  0  0  0  0  0  0
    3.0210    6.1246   12.1720 H   0  0  0  0  0  0  0  0  0  0  0  0
    4.2963    6.9346   11.2307 H   0  0  0  0  0  0  0  0  0  0  0  0
    3.0100    5.3576    9.8140 H   0  0  0  0  0  0  0  0  0  0  0  0
    2.7833    7.0368    9.2688 H   0  0  0  0  0  0  0  0  0  0  0  0
   -1.4197    5.8358   10.2245 H   0  0  0  0  0  0  0  0  0  0  0  0
   -2.7238    5.0345    8.2976 H   0  0  0  0  0  0  0  0  0  0  0  0
    0.8630    4.7591    5.9869 H   0  0  0  0  0  0  0  0  0  0  0  0
    2.1640    5.5701    7.9119 H   0  0  0  0  0  0  0  0  0  0  0  0
   -2.5428    3.8465    6.0633 H   0  0  0  0  0  0  0  0  0  0  0  0
   -4.0207    4.1624    4.4627 H   0  0  0  0  0  0  0  0  0  0  0  0
   -3.6538    5.6228    3.5134 H   0  0  0  0  0  0  0  0  0  0  0  0
   -4.0997    4.1116    2.6852 H   0  0  0  0  0  0  0  0  0  0  0  0
    0.1955    0.6661   -0.3848 H   0  0  0  0  0  0  0  0  0  0  0  0
    1.0280    2.2379   -0.3157 H   0  0  0  0  0  0  0  0  0  0  0  0
   -0.5515    2.1022   -1.1251 H   0  0  0  0  0  0  0  0  0  0  0  0
   -1.7767    7.9301    2.2418 H   0  0  0  0  0  0  0  0  0  0  0  0
   -2.3096    6.8966    3.4545 H   0  0  0  0  0  0  0  0  0  0  0  0
  1  2  1  0  0  0  0
  1 24  1  0  0  0  0
  1 25  1  0  0  0  0
  1 26  1  0  0  0  0
  2  3  1  0  0  0  0
  2 27  1  0  0  0  0
  2 28  1  0  0  0  0
  3  4  1  0  0  0  0
  4  9  2  0  0  0  0
  4  5  1  0  0  0  0
  5  6  2  0  0  0  0
  5 29  1  0  0  0  0
  6  7  1  0  0  0  0
  6 30  1  0  0  0  0
  7  8  2  0  0  0  0
  7 10  1  0  0  0  0
  8  9  1  0  0  0  0
  8 31  1  0  0  0  0
  9 32  1  0  0  0  0
 10 11  1  0  0  0  0
 10 33  1  0  0  0  0
 11 12  2  0  0  0  0
 11 13  1  0  0  0  0
 13 14  1  0  0  0  0
 13 15  1  0  0  0  0
 13 16  1  0  0  0  0
 15 34  1  0  0  0  0
 15 35  1  0  0  0  0
 15 36  1  0  0  0  0
 16 20  1  0  0  0  0
 16 17  1  0  0  0  0
 17 18  2  0  0  0  0
 17 23  1  0  0  0  0
 18 19  1  0  0  0  0
 19 20  2  0  0  0  0
 20 21  1  0  0  0  0
 21 22  1  0  0  0  0
 22 37  1  0  0  0  0
 22 38  1  0  0  0  0
 22 39  1  0  0  0  0
 23 40  1  0  0  0  0
 23 41  1  0  0  0  0
M  END
$$$$
ZINC01930633
  -OEChem-08230709453D

 47 49  0     1  0  0  0  0  0999 V2000
  -10.1805   -2.6728   -0.0641 C   0  0  0  0  0  0  0  0  0  0  0  0
   -9.1898   -1.5412   -0.3448 C   0  0  1  0  0  0  0  0  0  0  0  0
   -9.2255   -1.2782   -1.4020 H   0  0  0  0  0  0  0  0  0  0  0  0
   -9.5512   -0.3170    0.5013 C   0  0  0  0  0  0  0  0  0  0  0  0
   -8.7275    0.8899    0.0489 C   0  0  0  0  0  0  0  0  0  0  0  0
   -7.2540    0.5019    0.0385 C   0  0  0  0  0  0  0  0  0  0  0  0
   -6.8762   -0.7949    0.0289 C   0  0  0  0  0  0  0  0  0  0  0  0
   -5.1064   -0.7506    0.0143 S   0  0  0  0  0  0  0  0  0  0  0  0
   -4.8694    0.9657    0.0303 C   0  0  0  0  0  0  0  0  0  0  0  0
   -6.1650    1.4637    0.0391 C   0  0  0  0  0  0  0  0  0  0  0  0
   -6.4249    2.9066    0.0492 C   0  0  0  0  0  0  0  0  0  0  0  0
   -6.5379    3.5119   -1.0007 O   0  0  0  0  0  0  0  0  0  0  0  0
   -6.5387    3.5626    1.2210 N   0  0  0  0  0  0  0  0  0  0  0  0
   -6.7984    5.0044    1.2310 C   0  0  0  0  0  0  0  0  0  0  0  0
   -6.8817    5.4975    2.6770 C   0  0  0  0  0  0  0  0  0  0  0  0
   -5.6099    5.3380    3.3087 O   0  0  0  0  0  0  0  0  0  0  0  0
   -3.6763    1.6701    0.0285 N   0  0  0  0  0  0  0  0  0  0  0  0
   -2.5027    1.0076    0.0193 C   0  0  0  0  0  0  0  0  0  0  0  0
   -2.4909   -0.2080    0.0126 O   0  0  0  0  0  0  0  0  0  0  0  0
   -1.2300    1.7589    0.0174 C   0  0  0  0  0  0  0  0  0  0  0  0
   -0.0126    1.0758    0.0080 C   0  0  0  0  0  0  0  0  0  0  0  0
    1.1717    1.7833    0.0004 C   0  0  0  0  0  0  0  0  0  0  0  0
    1.1547    3.1668    0.0085 C   0  0  0  0  0  0  0  0  0  0  0  0
   -0.0484    3.8501    0.0238 C   0  0  0  0  0  0  0  0  0  0  0  0
   -1.2399    3.1549    0.0314 C   0  0  0  0  0  0  0  0  0  0  0  0
   -7.7704   -1.9962    0.0248 C   0  0  0  0  0  0  0  0  0  0  0  0
  -10.1469   -2.9310    0.9943 H   0  0  0  0  0  0  0  0  0  0  0  0
  -11.1872   -2.3480   -0.3270 H   0  0  0  0  0  0  0  0  0  0  0  0
   -9.9133   -3.5458   -0.6597 H   0  0  0  0  0  0  0  0  0  0  0  0
  -10.6121   -0.0959    0.3837 H   0  0  0  0  0  0  0  0  0  0  0  0
   -9.3390   -0.5259    1.5498 H   0  0  0  0  0  0  0  0  0  0  0  0
   -8.8824    1.7182    0.7402 H   0  0  0  0  0  0  0  0  0  0  0  0
   -9.0344    1.1861   -0.9542 H   0  0  0  0  0  0  0  0  0  0  0  0
   -6.4486    3.0802    2.0576 H   0  0  0  0  0  0  0  0  0  0  0  0
   -5.9894    5.5229    0.7164 H   0  0  0  0  0  0  0  0  0  0  0  0
   -7.7411    5.2073    0.7230 H   0  0  0  0  0  0  0  0  0  0  0  0
   -7.1624    6.5507    2.6861 H   0  0  0  0  0  0  0  0  0  0  0  0
   -7.6305    4.9172    3.2161 H   0  0  0  0  0  0  0  0  0  0  0  0
   -5.5889    5.6310    4.2301 H   0  0  0  0  0  0  0  0  0  0  0  0
   -3.6858    2.6400    0.0338 H   0  0  0  0  0  0  0  0  0  0  0  0
    0.0021   -0.0041    0.0020 H   0  0  0  0  0  0  0  0  0  0  0  0
    2.1142    1.2561   -0.0114 H   0  0  0  0  0  0  0  0  0  0  0  0
    2.0847    3.7159    0.0033 H   0  0  0  0  0  0  0  0  0  0  0  0
   -0.0547    4.9300    0.0300 H   0  0  0  0  0  0  0  0  0  0  0  0
   -2.1783    3.6894    0.0433 H   0  0  0  0  0  0  0  0  0  0  0  0
   -7.4130   -2.7176   -0.7101 H   0  0  0  0  0  0  0  0  0  0  0  0
   -7.7771   -2.4524    1.0147 H   0  0  0  0  0  0  0  0  0  0  0  0
  1  2  1  0  0  0  0
  1 27  1  0  0  0  0
  1 28  1  0  0  0  0
  1 29  1  0  0  0  0
  2  3  1  0  0  0  0
  2 26  1  0  0  0  0
  2  4  1  0  0  0  0
  4  5  1  0  0  0  0
  4 30  1  0  0  0  0
  4 31  1  0  0  0  0
  5  6  1  0  0  0  0
  5 32  1  0  0  0  0
  5 33  1  0  0  0  0
  6 10  1  0  0  0  0
  6  7  2  0  0  0  0
  7  8  1  0  0  0  0
  7 26  1  0  0  0  0
  8  9  1  0  0  0  0
  9 10  2  0  0  0  0
  9 17  1  0  0  0  0
 10 11  1  0  0  0  0
 11 12  2  0  0  0  0
 11 13  1  0  0  0  0
 13 14  1  0  0  0  0
 13 34  1  0  0  0  0
 14 15  1  0  0  0  0
 14 35  1  0  0  0  0
 14 36  1  0  0  0  0
 15 16  1  0  0  0  0
 15 37  1  0  0  0  0
 15 38  1  0  0  0  0
 16 39  1  0  0  0  0
 17 18  1  0  0  0  0
 17 40  1  0  0  0  0
 18 19  2  0  0  0  0
 18 20  1  0  0  0  0
 20 25  2  0  0  0  0
 20 21  1  0  0  0  0
 21 22  2  0  0  0  0
 21 41  1  0  0  0  0
 22 23  1  0  0  0  0
 22 42  1  0  0  0  0
 23 24  2  0  0  0  0
 23 43  1  0  0  0  0
 24 25  1  0  0  0  0
 24 44  1  0  0  0  0
 25 45  1  0  0  0  0
 26 46  1  0  0  0  0
 26 47  1  0  0  0  0
M  END
$$$$
ZINC01933339
  -OEChem-08230709453D

 45 47  0     0  0  0  0  0  0999 V2000
   -6.4491   -0.4543    7.9999 C   0  0  0  0  0  0  0  0  0  0  0  0
   -5.9794   -0.8029    6.6111 C   0  0  0  0  0  0  0  0  0  0  0  0
   -6.7844   -0.5311    5.5206 C   0  0  0  0  0  0  0  0  0  0  0  0
   -6.3534   -0.8505    4.2466 C   0  0  0  0  0  0  0  0  0  0  0  0
   -5.1172   -1.4412    4.0630 C   0  0  0  0  0  0  0  0  0  0  0  0
   -4.3144   -1.7178    5.1539 C   0  0  0  0  0  0  0  0  0  0  0  0
   -4.7438   -1.3949    6.4276 C   0  0  0  0  0  0  0  0  0  0  0  0
   -4.5677   -1.8483    2.4391 S   0  0  0  0  0  0  0  0  0  0  0  0
   -5.7339   -1.9915    1.6398 O   0  0  0  0  0  0  0  0  0  0  0  0
   -3.6103   -2.8884    2.5831 O   0  0  0  0  0  0  0  0  0  0  0  0
   -3.6994   -0.4472    1.8165 C   0  0  0  0  0  0  0  0  0  0  0  0
   -4.2598    0.6224    1.0924 C   0  0  0  0  0  0  0  0  0  0  0  0
   -5.6080    0.9455    0.6336 C   0  0  0  0  0  0  0  0  0  0  0  0
   -5.8127    2.0525   -0.0235 N   0  0  0  0  0  0  0  0  0  0  0  0
   -4.7672    2.9332   -0.3104 N   0  0  0  0  0  0  0  0  0  0  0  0
   -4.9617    3.7702   -0.8219 H   0  0  0  0  0  0  0  0  0  0  0  0
   -3.5038    2.6840    0.0843 C   0  0  0  0  0  0  0  0  0  0  0  0
   -2.6121    3.4742   -0.1829 O   0  0  0  0  0  0  0  0  0  0  0  0
   -3.2142    1.5122    0.8041 C   0  0  0  0  0  0  0  0  0  0  0  0
   -2.0622    0.9766    1.3380 N   0  0  0  0  0  0  0  0  0  0  0  0
   -2.3686   -0.2051    1.9494 C   0  0  0  0  0  0  0  0  0  0  0  0
   -1.4650   -1.0280    2.6027 N   0  0  0  0  0  0  0  0  0  0  0  0
   -0.7288    1.5792    1.2668 C   0  0  0  0  0  0  0  0  0  0  0  0
   -0.0127    1.0858    0.0080 C   0  0  0  0  0  0  0  0  0  0  0  0
    1.4227    1.6154   -0.0028 C   0  0  0  0  0  0  0  0  0  0  0  0
   -0.7527    1.5927   -1.2315 C   0  0  0  0  0  0  0  0  0  0  0  0
   -6.9939   -1.2988    8.4219 H   0  0  0  0  0  0  0  0  0  0  0  0
   -5.5880   -0.2269    8.6283 H   0  0  0  0  0  0  0  0  0  0  0  0
   -7.1051    0.4150    7.9541 H   0  0  0  0  0  0  0  0  0  0  0  0
   -7.7499   -0.0689    5.6640 H   0  0  0  0  0  0  0  0  0  0  0  0
   -6.9823   -0.6381    3.3947 H   0  0  0  0  0  0  0  0  0  0  0  0
   -3.3505   -2.1834    5.0108 H   0  0  0  0  0  0  0  0  0  0  0  0
   -4.1150   -1.6076    7.2795 H   0  0  0  0  0  0  0  0  0  0  0  0
   -6.4302    0.2783    0.8462 H   0  0  0  0  0  0  0  0  0  0  0  0
   -0.5289   -0.7785    2.6510 H   0  0  0  0  0  0  0  0  0  0  0  0
   -1.7686   -1.8535    3.0116 H   0  0  0  0  0  0  0  0  0  0  0  0
   -0.1536    1.2938    2.1476 H   0  0  0  0  0  0  0  0  0  0  0  0
   -0.8222    2.6646    1.2299 H   0  0  0  0  0  0  0  0  0  0  0  0
    0.0021   -0.0041    0.0020 H   0  0  0  0  0  0  0  0  0  0  0  0
    1.4079    2.7053    0.0031 H   0  0  0  0  0  0  0  0  0  0  0  0
    1.9499    1.2543    0.8802 H   0  0  0  0  0  0  0  0  0  0  0  0
    1.9329    1.2639   -0.8996 H   0  0  0  0  0  0  0  0  0  0  0  0
   -0.2425    1.2411   -2.1283 H   0  0  0  0  0  0  0  0  0  0  0  0
   -1.7753    1.2154   -1.2238 H   0  0  0  0  0  0  0  0  0  0  0  0
   -0.7675    2.6825   -1.2255 H   0  0  0  0  0  0  0  0  0  0  0  0
  1  2  1  0  0  0  0
  1 27  1  0  0  0  0
  1 28  1  0  0  0  0
  1 29  1  0  0  0  0
  2  7  2  0  0  0  0
  2  3  1  0  0  0  0
  3  4  2  0  0  0  0
  3 30  1  0  0  0  0
  4  5  1  0  0  0  0
  4 31  1  0  0  0  0
  5  6  2  0  0  0  0
  5  8  1  0  0  0  0
  6  7  1  0  0  0  0
  6 32  1  0  0  0  0
  7 33  1  0  0  0  0
  8  9  2  0  0  0  0
  8 10  2  0  0  0  0
  8 11  1  0  0  0  0
 11 21  2  0  0  0  0
 11 12  1  0  0  0  0
 12 19  2  0  0  0  0
 12 13  1  0  0  0  0
 13 14  2  0  0  0  0
 13 34  1  0  0  0  0
 14 15  1  0  0  0  0
 15 16  1  0  0  0  0
 15 17  1  0  0  0  0
 17 18  2  0  0  0  0
 17 19  1  0  0  0  0
 19 20  1  0  0  0  0
 20 21  1  0  0  0  0
 20 23  1  0  0  0  0
 21 22  1  0  0  0  0
 22 35  1  0  0  0  0
 22 36  1  0  0  0  0
 23 24  1  0  0  0  0
 23 37  1  0  0  0  0
 23 38  1  0  0  0  0
 24 25  1  0  0  0  0
 24 26  1  0  0  0  0
 24 39  1  0  0  0  0
 25 40  1  0  0  0  0
 25 41  1  0  0  0  0
 25 42  1  0  0  0  0
 26 43  1  0  0  0  0
 26 44  1  0  0  0  0
 26 45  1  0  0  0  0
M  END
$$$$
ZINC01933339
  -OEChem-08230709453D

 45 47  0     0  0  0  0  0  0999 V2000
   -6.4353   -0.4456    8.0085 C   0  0  0  0  0  0  0  0  0  0  0  0
   -5.9693   -0.7957    6.6188 C   0  0  0  0  0  0  0  0  0  0  0  0
   -6.7764   -0.5234    5.5300 C   0  0  0  0  0  0  0  0  0  0  0  0
   -6.3488   -0.8441    4.2552 C   0  0  0  0  0  0  0  0  0  0  0  0
   -5.1139   -1.4366    4.0691 C   0  0  0  0  0  0  0  0  0  0  0  0
   -4.3089   -1.7138    5.1583 C   0  0  0  0  0  0  0  0  0  0  0  0
   -4.7349   -1.3895    6.4328 C   0  0  0  0  0  0  0  0  0  0  0  0
   -4.5687   -1.8454    2.4441 S   0  0  0  0  0  0  0  0  0  0  0  0
   -5.7369   -1.9874    1.6476 O   0  0  0  0  0  0  0  0  0  0  0  0
   -3.6124   -2.8868    2.5865 O   0  0  0  0  0  0  0  0  0  0  0  0
   -3.6998   -0.4459    1.8187 C   0  0  0  0  0  0  0  0  0  0  0  0
   -4.2604    0.6240    1.0953 C   0  0  0  0  0  0  0  0  0  0  0  0
   -5.6092    0.9488    0.6394 C   0  0  0  0  0  0  0  0  0  0  0  0
   -5.8138    2.0557   -0.0178 N   0  0  0  0  0  0  0  0  0  0  0  0
   -4.7654    2.9282   -0.3191 N   0  0  0  0  0  0  0  0  0  0  0  0
   -1.7430    3.1280    0.1707 H   0  0  0  0  0  0  0  0  0  0  0  0
   -3.5020    2.6789    0.0753 C   0  0  0  0  0  0  0  0  0  0  0  0
   -2.6095    3.4670   -0.1956 O   0  0  0  0  0  0  0  0  0  0  0  0
   -3.2133    1.5096    0.7995 C   0  0  0  0  0  0  0  0  0  0  0  0
   -2.0615    0.9746    1.3345 N   0  0  0  0  0  0  0  0  0  0  0  0
   -2.3687   -0.2048    1.9499 C   0  0  0  0  0  0  0  0  0  0  0  0
   -1.4652   -1.0272    2.6040 N   0  0  0  0  0  0  0  0  0  0  0  0
   -0.7273    1.5751    1.2596 C   0  0  0  0  0  0  0  0  0  0  0  0
   -0.0131    1.0757    0.0021 C   0  0  0  0  0  0  0  0  0  0  0  0
    1.4230    1.6033   -0.0122 C   0  0  0  0  0  0  0  0  0  0  0  0
   -0.7536    1.5786   -1.2387 C   0  0  0  0  0  0  0  0  0  0  0  0
   -6.9803   -1.2891    8.4322 H   0  0  0  0  0  0  0  0  0  0  0  0
   -5.5724   -0.2191    8.6347 H   0  0  0  0  0  0  0  0  0  0  0  0
   -7.0901    0.4246    7.9637 H   0  0  0  0  0  0  0  0  0  0  0  0
   -7.7409   -0.0597    5.6754 H   0  0  0  0  0  0  0  0  0  0  0  0
   -6.9794   -0.6313    3.4046 H   0  0  0  0  0  0  0  0  0  0  0  0
   -3.3460   -2.1808    5.0132 H   0  0  0  0  0  0  0  0  0  0  0  0
   -4.1045   -1.6026    7.2833 H   0  0  0  0  0  0  0  0  0  0  0  0
   -6.4300    0.2777    0.8451 H   0  0  0  0  0  0  0  0  0  0  0  0
   -0.5283   -0.7801    2.6481 H   0  0  0  0  0  0  0  0  0  0  0  0
   -1.7698   -1.8500    3.0177 H   0  0  0  0  0  0  0  0  0  0  0  0
   -0.1517    1.2924    2.1410 H   0  0  0  0  0  0  0  0  0  0  0  0
   -0.8193    2.6605    1.2184 H   0  0  0  0  0  0  0  0  0  0  0  0
    0.0002   -0.0143    0.0004 H   0  0  0  0  0  0  0  0  0  0  0  0
    1.4096    2.6932   -0.0107 H   0  0  0  0  0  0  0  0  0  0  0  0
    1.9505    1.2450    0.8717 H   0  0  0  0  0  0  0  0  0  0  0  0
    1.9318    1.2475   -0.9081 H   0  0  0  0  0  0  0  0  0  0  0  0
   -0.2448    1.2227   -2.1346 H   0  0  0  0  0  0  0  0  0  0  0  0
   -1.7767    1.2027   -1.2285 H   0  0  0  0  0  0  0  0  0  0  0  0
   -0.7670    2.6685   -1.2371 H   0  0  0  0  0  0  0  0  0  0  0  0
  1  2  1  0  0  0  0
  1 27  1  0  0  0  0
  1 28  1  0  0  0  0
  1 29  1  0  0  0  0
  2  7  2  0  0  0  0
  2  3  1  0  0  0  0
  3  4  2  0  0  0  0
  3 30  1  0  0  0  0
  4  5  1  0  0  0  0
  4 31  1  0  0  0  0
  5  6  2  0  0  0  0
  5  8  1  0  0  0  0
  6  7  1  0  0  0  0
  6 32  1  0  0  0  0
  7 33  1  0  0  0  0
  8  9  2  0  0  0  0
  8 10  2  0  0  0  0
  8 11  1  0  0  0  0
 11 21  2  0  0  0  0
 11 12  1  0  0  0  0
 12 19  2  0  0  0  0
 12 13  1  0  0  0  0
 13 34  1  0  0  0  0
 13 14  2  0  0  0  0
 14 15  1  0  0  0  0
 15 17  2  0  0  0  0
 16 18  1  0  0  0  0
 17 18  1  0  0  0  0
 17 19  1  0  0  0  0
 19 20  1  0  0  0  0
 20 21  1  0  0  0  0
 20 23  1  0  0  0  0
 21 22  1  0  0  0  0
 22 35  1  0  0  0  0
 22 36  1  0  0  0  0
 23 24  1  0  0  0  0
 23 37  1  0  0  0  0
 23 38  1  0  0  0  0
 24 25  1  0  0  0  0
 24 26  1  0  0  0  0
 24 39  1  0  0  0  0
 25 40  1  0  0  0  0
 25 41  1  0  0  0  0
 25 42  1  0  0  0  0
 26 43  1  0  0  0  0
 26 44  1  0  0  0  0
 26 45  1  0  0  0  0
M  END
$$$$
ZINC01933353
  -OEChem-08230709453D

 45 47  0     1  0  0  0  0  0999 V2000
   -0.0127    1.0858    0.0080 C   0  0  0  0  0  0  0  0  0  0  0  0
   -0.7288    1.5792    1.2668 C   0  0  0  0  0  0  0  0  0  0  0  0
   -0.7496    3.1091    1.2752 C   0  0  1  0  0  0  0  0  0  0  0  0
    0.2682    3.4868    1.1780 H   0  0  0  0  0  0  0  0  0  0  0  0
   -1.5951    3.6141    0.1043 C   0  0  0  0  0  0  0  0  0  0  0  0
   -1.3279    3.5827    2.5352 N   0  0  0  0  0  0  0  0  0  0  0  0
   -0.6912    4.3819    3.4597 C   0  0  0  0  0  0  0  0  0  0  0  0
   -1.5926    4.6005    4.5122 C   0  0  0  0  0  0  0  0  0  0  0  0
   -1.1723    5.4261    5.6412 C   0  0  0  0  0  0  0  0  0  0  0  0
    0.0255    5.9399    5.6480 N   0  0  0  0  0  0  0  0  0  0  0  0
    0.9190    5.7184    4.5974 N   0  0  0  0  0  0  0  0  0  0  0  0
    1.8300    6.1289    4.6379 H   0  0  0  0  0  0  0  0  0  0  0  0
    0.5851    4.9661    3.5313 C   0  0  0  0  0  0  0  0  0  0  0  0
    1.3891    4.7924    2.6289 O   0  0  0  0  0  0  0  0  0  0  0  0
   -2.7766    3.9115    4.1873 C   0  0  0  0  0  0  0  0  0  0  0  0
   -2.5882    3.3096    2.9834 C   0  0  0  0  0  0  0  0  0  0  0  0
   -3.5266    2.5373    2.3173 N   0  0  0  0  0  0  0  0  0  0  0  0
   -4.2424    3.8474    5.1629 S   0  0  0  0  0  0  0  0  0  0  0  0
   -4.9304    2.6629    4.7849 O   0  0  0  0  0  0  0  0  0  0  0  0
   -3.8493    4.1050    6.5039 O   0  0  0  0  0  0  0  0  0  0  0  0
   -5.2578    5.1994    4.6672 C   0  0  0  0  0  0  0  0  0  0  0  0
   -5.1404    6.4213    5.3028 C   0  0  0  0  0  0  0  0  0  0  0  0
   -5.9342    7.4831    4.9112 C   0  0  0  0  0  0  0  0  0  0  0  0
   -6.8512    7.3207    3.8896 C   0  0  0  0  0  0  0  0  0  0  0  0
   -6.9722    6.0973    3.2575 C   0  0  0  0  0  0  0  0  0  0  0  0
   -6.1757    5.0366    3.6465 C   0  0  0  0  0  0  0  0  0  0  0  0
   -7.7192    8.4772    3.4652 C   0  0  0  0  0  0  0  0  0  0  0  0
    0.0021   -0.0041    0.0020 H   0  0  0  0  0  0  0  0  0  0  0  0
    1.0099    1.4631    0.0003 H   0  0  0  0  0  0  0  0  0  0  0  0
   -0.5399    1.4469   -0.8751 H   0  0  0  0  0  0  0  0  0  0  0  0
   -1.7514    1.2020    1.2746 H   0  0  0  0  0  0  0  0  0  0  0  0
   -0.2017    1.2182    2.1499 H   0  0  0  0  0  0  0  0  0  0  0  0
   -2.6129    3.2364    0.2016 H   0  0  0  0  0  0  0  0  0  0  0  0
   -1.6098    4.7040    0.1103 H   0  0  0  0  0  0  0  0  0  0  0  0
   -1.1648    3.2617   -0.8331 H   0  0  0  0  0  0  0  0  0  0  0  0
   -1.8484    5.6097    6.4632 H   0  0  0  0  0  0  0  0  0  0  0  0
   -3.3077    2.1409    1.4594 H   0  0  0  0  0  0  0  0  0  0  0  0
   -4.4022    2.3932    2.7088 H   0  0  0  0  0  0  0  0  0  0  0  0
   -4.4264    6.5473    6.1032 H   0  0  0  0  0  0  0  0  0  0  0  0
   -5.8399    8.4389    5.4053 H   0  0  0  0  0  0  0  0  0  0  0  0
   -7.6888    5.9703    2.4595 H   0  0  0  0  0  0  0  0  0  0  0  0
   -6.2702    4.0808    3.1526 H   0  0  0  0  0  0  0  0  0  0  0  0
   -8.6406    8.4728    4.0475 H   0  0  0  0  0  0  0  0  0  0  0  0
   -7.1865    9.4129    3.6351 H   0  0  0  0  0  0  0  0  0  0  0  0
   -7.9583    8.3825    2.4060 H   0  0  0  0  0  0  0  0  0  0  0  0
  1  2  1  0  0  0  0
  1 28  1  0  0  0  0
  1 29  1  0  0  0  0
  1 30  1  0  0  0  0
  2  3  1  0  0  0  0
  2 31  1  0  0  0  0
  2 32  1  0  0  0  0
  3  4  1  0  0  0  0
  3  5  1  0  0  0  0
  3  6  1  0  0  0  0
  5 33  1  0  0  0  0
  5 34  1  0  0  0  0
  5 35  1  0  0  0  0
  6 16  1  0  0  0  0
  6  7  1  0  0  0  0
  7 13  1  0  0  0  0
  7  8  2  0  0  0  0
  8  9  1  0  0  0  0
  8 15  1  0  0  0  0
  9 10  2  0  0  0  0
  9 36  1  0  0  0  0
 10 11  1  0  0  0  0
 11 12  1  0  0  0  0
 11 13  1  0  0  0  0
 13 14  2  0  0  0  0
 15 16  2  0  0  0  0
 15 18  1  0  0  0  0
 16 17  1  0  0  0  0
 17 37  1  0  0  0  0
 17 38  1  0  0  0  0
 18 19  2  0  0  0  0
 18 20  2  0  0  0  0
 18 21  1  0  0  0  0
 21 26  2  0  0  0  0
 21 22  1  0  0  0  0
 22 23  2  0  0  0  0
 22 39  1  0  0  0  0
 23 24  1  0  0  0  0
 23 40  1  0  0  0  0
 24 25  2  0  0  0  0
 24 27  1  0  0  0  0
 25 26  1  0  0  0  0
 25 41  1  0  0  0  0
 26 42  1  0  0  0  0
 27 43  1  0  0  0  0
 27 44  1  0  0  0  0
 27 45  1  0  0  0  0
M  END
$$$$
ZINC01933353
  -OEChem-08230709453D

 45 47  0     1  0  0  0  0  0999 V2000
   -0.0129    1.0826    0.0104 C   0  0  0  0  0  0  0  0  0  0  0  0
   -0.7294    1.5772    1.2685 C   0  0  0  0  0  0  0  0  0  0  0  0
   -0.7487    3.1071    1.2763 C   0  0  1  0  0  0  0  0  0  0  0  0
    0.2695    3.4838    1.1797 H   0  0  0  0  0  0  0  0  0  0  0  0
   -1.5929    3.6125    0.1047 C   0  0  0  0  0  0  0  0  0  0  0  0
   -1.3275    3.5817    2.5358 N   0  0  0  0  0  0  0  0  0  0  0  0
   -0.6907    4.3806    3.4604 C   0  0  0  0  0  0  0  0  0  0  0  0
   -1.5923    4.5998    4.5126 C   0  0  0  0  0  0  0  0  0  0  0  0
   -1.1717    5.4248    5.6420 C   0  0  0  0  0  0  0  0  0  0  0  0
    0.0261    5.9386    5.6487 N   0  0  0  0  0  0  0  0  0  0  0  0
    0.9200    5.7160    4.5988 N   0  0  0  0  0  0  0  0  0  0  0  0
    0.9805    4.2103    1.9259 H   0  0  0  0  0  0  0  0  0  0  0  0
    0.5862    4.9636    3.5327 C   0  0  0  0  0  0  0  0  0  0  0  0
    1.3908    4.7884    2.6312 O   0  0  0  0  0  0  0  0  0  0  0  0
   -2.7764    3.9110    4.1876 C   0  0  0  0  0  0  0  0  0  0  0  0
   -2.5885    3.3102    2.9830 C   0  0  0  0  0  0  0  0  0  0  0  0
   -3.5273    2.5390    2.3163 N   0  0  0  0  0  0  0  0  0  0  0  0
   -4.2419    3.8462    5.1636 S   0  0  0  0  0  0  0  0  0  0  0  0
   -4.9300    2.6620    4.7850 O   0  0  0  0  0  0  0  0  0  0  0  0
   -3.8484    4.1030    6.5046 O   0  0  0  0  0  0  0  0  0  0  0  0
   -5.2575    5.1985    4.6690 C   0  0  0  0  0  0  0  0  0  0  0  0
   -5.1400    6.4200    5.3053 C   0  0  0  0  0  0  0  0  0  0  0  0
   -5.9339    7.4820    4.9145 C   0  0  0  0  0  0  0  0  0  0  0  0
   -6.8512    7.3202    3.8931 C   0  0  0  0  0  0  0  0  0  0  0  0
   -6.9723    6.0972    3.2603 C   0  0  0  0  0  0  0  0  0  0  0  0
   -6.1757    5.0363    3.6484 C   0  0  0  0  0  0  0  0  0  0  0  0
   -7.7193    8.4770    3.4696 C   0  0  0  0  0  0  0  0  0  0  0  0
    0.0008   -0.0073    0.0048 H   0  0  0  0  0  0  0  0  0  0  0  0
    1.0101    1.4589    0.0033 H   0  0  0  0  0  0  0  0  0  0  0  0
   -0.5391    1.4439   -0.8732 H   0  0  0  0  0  0  0  0  0  0  0  0
   -1.7524    1.2010    1.2757 H   0  0  0  0  0  0  0  0  0  0  0  0
   -0.2033    1.2160    2.1521 H   0  0  0  0  0  0  0  0  0  0  0  0
   -2.6112    3.2358    0.2014 H   0  0  0  0  0  0  0  0  0  0  0  0
   -1.6066    4.7024    0.1103 H   0  0  0  0  0  0  0  0  0  0  0  0
   -1.1623    3.2593   -0.8323 H   0  0  0  0  0  0  0  0  0  0  0  0
   -1.8474    5.6074    6.4645 H   0  0  0  0  0  0  0  0  0  0  0  0
   -3.3084    2.1426    1.4584 H   0  0  0  0  0  0  0  0  0  0  0  0
   -4.4032    2.3956    2.7074 H   0  0  0  0  0  0  0  0  0  0  0  0
   -4.4257    6.5456    6.1056 H   0  0  0  0  0  0  0  0  0  0  0  0
   -5.8395    8.4375    5.4092 H   0  0  0  0  0  0  0  0  0  0  0  0
   -7.6891    5.9707    2.4624 H   0  0  0  0  0  0  0  0  0  0  0  0
   -6.2703    4.0808    3.1540 H   0  0  0  0  0  0  0  0  0  0  0  0
   -8.6406    8.4722    4.0522 H   0  0  0  0  0  0  0  0  0  0  0  0
   -7.1866    9.4126    3.6400 H   0  0  0  0  0  0  0  0  0  0  0  0
   -7.9587    8.3829    2.4105 H   0  0  0  0  0  0  0  0  0  0  0  0
  1  2  1  0  0  0  0
  1 28  1  0  0  0  0
  1 29  1  0  0  0  0
  1 30  1  0  0  0  0
  2  3  1  0  0  0  0
  2 31  1  0  0  0  0
  2 32  1  0  0  0  0
  3  4  1  0  0  0  0
  3  5  1  0  0  0  0
  3  6  1  0  0  0  0
  5 33  1  0  0  0  0
  5 34  1  0  0  0  0
  5 35  1  0  0  0  0
  6 16  1  0  0  0  0
  6  7  1  0  0  0  0
  7 13  2  0  0  0  0
  7  8  1  0  0  0  0
  8 15  1  0  0  0  0
  8  9  2  0  0  0  0
  9 36  1  0  0  0  0
  9 10  1  0  0  0  0
 10 11  2  0  0  0  0
 11 13  1  0  0  0  0
 12 14  1  0  0  0  0
 13 14  1  0  0  0  0
 15 16  2  0  0  0  0
 15 18  1  0  0  0  0
 16 17  1  0  0  0  0
 17 37  1  0  0  0  0
 17 38  1  0  0  0  0
 18 19  2  0  0  0  0
 18 20  2  0  0  0  0
 18 21  1  0  0  0  0
 21 26  2  0  0  0  0
 21 22  1  0  0  0  0
 22 23  2  0  0  0  0
 22 39  1  0  0  0  0
 23 24  1  0  0  0  0
 23 40  1  0  0  0  0
 24 25  2  0  0  0  0
 24 27  1  0  0  0  0
 25 26  1  0  0  0  0
 25 41  1  0  0  0  0
 26 42  1  0  0  0  0
 27 43  1  0  0  0  0
 27 44  1  0  0  0  0
 27 45  1  0  0  0  0
M  END
$$$$
ZINC01950932
  -OEChem-08230709453D

 43 44  0     0  0  0  0  0  0999 V2000
    7.6035    0.0903    1.7303 C   0  0  0  0  0  0  0  0  0  0  0  0
    7.2360   -0.0068    0.2482 C   0  0  0  0  0  0  0  0  0  0  0  0
    5.9621   -0.7162    0.1065 N   0  0  0  0  0  0  0  0  0  0  0  0
    5.9480   -2.1731   -0.0466 C   0  0  0  0  0  0  0  0  0  0  0  0
    6.0192   -2.5305   -1.5326 C   0  0  0  0  0  0  0  0  0  0  0  0
    4.7656   -0.0062    0.1172 C   0  0  0  0  0  0  0  0  0  0  0  0
    4.7843    1.3821    0.2629 C   0  0  0  0  0  0  0  0  0  0  0  0
    3.6197    2.0893    0.2750 C   0  0  0  0  0  0  0  0  0  0  0  0
    2.3919    1.4218    0.1405 C   0  0  0  0  0  0  0  0  0  0  0  0
    1.1788    2.1544    0.1536 C   0  0  0  0  0  0  0  0  0  0  0  0
   -0.0129    1.4697    0.0184 C   0  0  0  0  0  0  0  0  0  0  0  0
    0.0210    0.0126   -0.1331 C   0  0  0  0  0  0  0  0  0  0  0  0
   -1.0182   -0.6096   -0.2537 O   0  0  0  0  0  0  0  0  0  0  0  0
    1.1962   -0.6385   -0.1388 O   0  0  0  0  0  0  0  0  0  0  0  0
    2.3671    0.0223   -0.0071 C   0  0  0  0  0  0  0  0  0  0  0  0
    3.5621   -0.6824   -0.0174 C   0  0  0  0  0  0  0  0  0  0  0  0
   -1.3009    2.1953    0.0202 C   0  0  0  0  0  0  0  0  0  0  0  0
   -1.5176    3.1734   -0.8632 C   0  0  0  0  0  0  0  0  0  0  0  0
   -2.2900    1.8584    0.9447 N   0  0  0  0  0  0  0  0  0  0  0  0
   -3.5107    2.5460    0.9464 N   0  0  0  0  0  0  0  0  0  0  0  0
   -4.4662    2.2205    1.8395 C   0  0  0  0  0  0  0  0  0  0  0  0
   -5.9578    3.0608    1.8416 S   0  0  0  0  0  0  0  0  0  0  0  0
   -4.2475    1.2336    2.7308 N   0  0  0  0  0  0  0  0  0  0  0  0
    7.6974   -0.9121    2.1478 H   0  0  0  0  0  0  0  0  0  0  0  0
    8.5513    0.6181    1.8358 H   0  0  0  0  0  0  0  0  0  0  0  0
    6.8235    0.6342    2.2631 H   0  0  0  0  0  0  0  0  0  0  0  0
    8.0160   -0.5507   -0.2846 H   0  0  0  0  0  0  0  0  0  0  0  0
    7.1421    0.9957   -0.1693 H   0  0  0  0  0  0  0  0  0  0  0  0
    6.8062   -2.6012    0.4715 H   0  0  0  0  0  0  0  0  0  0  0  0
    5.0288   -2.5744    0.3800 H   0  0  0  0  0  0  0  0  0  0  0  0
    6.0087   -3.6144   -1.6465 H   0  0  0  0  0  0  0  0  0  0  0  0
    5.1611   -2.1024   -2.0508 H   0  0  0  0  0  0  0  0  0  0  0  0
    6.9385   -2.1292   -1.9592 H   0  0  0  0  0  0  0  0  0  0  0  0
    5.7272    1.8984    0.3669 H   0  0  0  0  0  0  0  0  0  0  0  0
    3.6411    3.1632    0.3877 H   0  0  0  0  0  0  0  0  0  0  0  0
    1.1861    3.2284    0.2674 H   0  0  0  0  0  0  0  0  0  0  0  0
    3.5552   -1.7565   -0.1297 H   0  0  0  0  0  0  0  0  0  0  0  0
   -2.4204    3.7633   -0.8050 H   0  0  0  0  0  0  0  0  0  0  0  0
   -0.7902    3.3743   -1.6357 H   0  0  0  0  0  0  0  0  0  0  0  0
   -2.1326    1.1480    1.5862 H   0  0  0  0  0  0  0  0  0  0  0  0
   -3.6681    3.2563    0.3049 H   0  0  0  0  0  0  0  0  0  0  0  0
   -3.4023    0.7575    2.7296 H   0  0  0  0  0  0  0  0  0  0  0  0
   -4.9352    0.9993    3.3736 H   0  0  0  0  0  0  0  0  0  0  0  0
  1  2  1  0  0  0  0
  1 24  1  0  0  0  0
  1 25  1  0  0  0  0
  1 26  1  0  0  0  0
  2  3  1  0  0  0  0
  2 27  1  0  0  0  0
  2 28  1  0  0  0  0
  3  4  1  0  0  0  0
  3  6  1  0  0  0  0
  4  5  1  0  0  0  0
  4 29  1  0  0  0  0
  4 30  1  0  0  0  0
  5 31  1  0  0  0  0
  5 32  1  0  0  0  0
  5 33  1  0  0  0  0
  6 16  2  0  0  0  0
  6  7  1  0  0  0  0
  7  8  2  0  0  0  0
  7 34  1  0  0  0  0
  8  9  1  0  0  0  0
  8 35  1  0  0  0  0
  9 15  2  0  0  0  0
  9 10  1  0  0  0  0
 10 11  2  0  0  0  0
 10 36  1  0  0  0  0
 11 12  1  0  0  0  0
 11 17  1  0  0  0  0
 12 13  2  0  0  0  0
 12 14  1  0  0  0  0
 14 15  1  0  0  0  0
 15 16  1  0  0  0  0
 16 37  1  0  0  0  0
 17 18  2  0  0  0  0
 17 19  1  0  0  0  0
 18 38  1  0  0  0  0
 18 39  1  0  0  0  0
 19 20  1  0  0  0  0
 19 40  1  0  0  0  0
 20 21  1  0  0  0  0
 20 41  1  0  0  0  0
 21 22  2  0  0  0  0
 21 23  1  0  0  0  0
 23 42  1  0  0  0  0
 23 43  1  0  0  0  0
M  END
$$$$
ZINC02005264
  -OEChem-08230709453D

 45 47  0     0  0  0  0  0  0999 V2000
   -9.9835    0.9005    0.5197 C   0  0  0  0  0  0  0  0  0  0  0  0
   -9.8408    2.3223    0.5269 O   0  0  0  0  0  0  0  0  0  0  0  0
   -8.5812    2.8150    0.6496 C   0  0  0  0  0  0  0  0  0  0  0  0
   -7.5050    1.9449    0.7612 C   0  0  0  0  0  0  0  0  0  0  0  0
   -6.2246    2.4397    0.8801 C   0  0  0  0  0  0  0  0  0  0  0  0
   -6.0080    3.8199    0.9002 C   0  0  0  0  0  0  0  0  0  0  0  0
   -7.0912    4.6958    0.7883 C   0  0  0  0  0  0  0  0  0  0  0  0
   -8.3718    4.1931    0.6636 C   0  0  0  0  0  0  0  0  0  0  0  0
   -9.4281    5.0427    0.5541 O   0  0  0  0  0  0  0  0  0  0  0  0
   -9.1313    6.4363    0.4462 C   0  0  0  0  0  0  0  0  0  0  0  0
   -8.9940    7.0577    1.8516 C   0  0  0  0  0  0  0  0  0  0  0  0
   -9.6215    8.4671    1.7059 C   0  0  0  0  0  0  0  0  0  0  0  0
  -10.8203    8.2121    0.7589 C   0  0  0  0  0  0  0  0  0  0  0  0
  -10.2917    7.1702   -0.2485 C   0  0  0  0  0  0  0  0  0  0  0  0
   -4.6378    4.3515    1.0332 C   0  0  0  0  0  0  0  0  0  0  0  0
   -4.4503    5.5528    1.0455 O   0  0  0  0  0  0  0  0  0  0  0  0
   -3.5942    3.5055    1.1410 N   0  0  0  0  0  0  0  0  0  0  0  0
   -2.3111    4.0054    1.3617 C   0  0  0  0  0  0  0  0  0  0  0  0
   -1.9966    5.3258    1.1141 C   0  0  0  0  0  0  0  0  0  0  0  0
   -0.7312    5.7583    1.3389 C   0  0  0  0  0  0  0  0  0  0  0  0
    0.0817    4.3408    1.9168 S   0  0  0  0  0  0  0  0  0  0  0  0
   -1.2850    3.1966    1.8471 C   0  0  0  0  0  0  0  0  0  0  0  0
   -1.3175    1.8221    2.1899 C   0  0  0  0  0  0  0  0  0  0  0  0
   -2.3525    1.1905    2.0765 O   0  0  0  0  0  0  0  0  0  0  0  0
   -0.2028    1.2137    2.6415 N   0  0  0  0  0  0  0  0  0  0  0  0
   -9.5989    0.4920    1.4542 H   0  0  0  0  0  0  0  0  0  0  0  0
  -11.0372    0.6416    0.4163 H   0  0  0  0  0  0  0  0  0  0  0  0
   -9.4230    0.4833   -0.3170 H   0  0  0  0  0  0  0  0  0  0  0  0
   -7.6715    0.8779    0.7502 H   0  0  0  0  0  0  0  0  0  0  0  0
   -5.3888    1.7607    0.9623 H   0  0  0  0  0  0  0  0  0  0  0  0
   -6.9274    5.7632    0.7990 H   0  0  0  0  0  0  0  0  0  0  0  0
   -8.2090    6.5789   -0.1168 H   0  0  0  0  0  0  0  0  0  0  0  0
   -9.5453    6.4687    2.5846 H   0  0  0  0  0  0  0  0  0  0  0  0
   -7.9440    7.1340    2.1339 H   0  0  0  0  0  0  0  0  0  0  0  0
   -8.9123    9.1601    1.2533 H   0  0  0  0  0  0  0  0  0  0  0  0
   -9.9642    8.8391    2.6714 H   0  0  0  0  0  0  0  0  0  0  0  0
  -11.1025    9.1309    0.2448 H   0  0  0  0  0  0  0  0  0  0  0  0
  -11.6669    7.8096    1.3151 H   0  0  0  0  0  0  0  0  0  0  0  0
   -9.9324    7.6696   -1.1482 H   0  0  0  0  0  0  0  0  0  0  0  0
  -11.0813    6.4632   -0.5034 H   0  0  0  0  0  0  0  0  0  0  0  0
   -3.7356    2.5488    1.0650 H   0  0  0  0  0  0  0  0  0  0  0  0
   -2.7483    6.0058    0.7414 H   0  0  0  0  0  0  0  0  0  0  0  0
   -0.3268    6.7491    1.1933 H   0  0  0  0  0  0  0  0  0  0  0  0
   -0.2250    0.2728    2.8762 H   0  0  0  0  0  0  0  0  0  0  0  0
    0.6226    1.7158    2.7280 H   0  0  0  0  0  0  0  0  0  0  0  0
  1  2  1  0  0  0  0
  1 26  1  0  0  0  0
  1 27  1  0  0  0  0
  1 28  1  0  0  0  0
  2  3  1  0  0  0  0
  3  8  2  0  0  0  0
  3  4  1  0  0  0  0
  4  5  2  0  0  0  0
  4 29  1  0  0  0  0
  5  6  1  0  0  0  0
  5 30  1  0  0  0  0
  6  7  2  0  0  0  0
  6 15  1  0  0  0  0
  7  8  1  0  0  0  0
  7 31  1  0  0  0  0
  8  9  1  0  0  0  0
  9 10  1  0  0  0  0
 10 14  1  0  0  0  0
 10 11  1  0  0  0  0
 10 32  1  0  0  0  0
 11 12  1  0  0  0  0
 11 33  1  0  0  0  0
 11 34  1  0  0  0  0
 12 13  1  0  0  0  0
 12 35  1  0  0  0  0
 12 36  1  0  0  0  0
 13 14  1  0  0  0  0
 13 37  1  0  0  0  0
 13 38  1  0  0  0  0
 14 39  1  0  0  0  0
 14 40  1  0  0  0  0
 15 16  2  0  0  0  0
 15 17  1  0  0  0  0
 17 18  1  0  0  0  0
 17 41  1  0  0  0  0
 18 22  2  0  0  0  0
 18 19  1  0  0  0  0
 19 20  2  0  0  0  0
 19 42  1  0  0  0  0
 20 21  1  0  0  0  0
 20 43  1  0  0  0  0
 21 22  1  0  0  0  0
 22 23  1  0  0  0  0
 23 24  2  0  0  0  0
 23 25  1  0  0  0  0
 25 44  1  0  0  0  0
 25 45  1  0  0  0  0
M  END
$$$$
ZINC02050813
  -OEChem-08230709453D

 44 46  0     1  0  0  0  0  0999 V2000
   -2.8811   -8.5186   -2.7981 C   0  0  0  0  0  0  0  0  0  0  0  0
   -4.1528   -9.0532   -2.7306 C   0  0  0  0  0  0  0  0  0  0  0  0
   -5.1703   -8.3458   -2.1126 C   0  0  0  0  0  0  0  0  0  0  0  0
   -4.9140   -7.1038   -1.5566 C   0  0  0  0  0  0  0  0  0  0  0  0
   -3.6424   -6.5680   -1.6174 C   0  0  0  0  0  0  0  0  0  0  0  0
   -2.6208   -7.2756   -2.2366 C   0  0  0  0  0  0  0  0  0  0  0  0
   -1.3310   -6.7340   -2.2997 N   0  0  0  0  0  0  0  0  0  0  0  0
   -0.8619   -5.9899   -1.2786 C   0  0  0  0  0  0  0  0  0  0  0  0
   -1.5850   -5.7193   -0.3432 O   0  0  0  0  0  0  0  0  0  0  0  0
    0.5611   -5.4943   -1.2990 C   0  0  0  0  0  0  0  0  0  0  0  0
    0.8361   -4.6809   -0.0327 C   0  0  1  0  0  0  0  0  0  0  0  0
    0.6643   -5.2769    0.8636 H   0  0  0  0  0  0  0  0  0  0  0  0
    2.2392   -4.0891   -0.0467 C   0  0  0  0  0  0  0  0  0  0  0  0
    2.3131   -2.8165   -0.0423 N   0  0  0  0  0  0  0  0  0  0  0  0
    1.2288   -1.9895   -0.0139 C   0  0  0  0  0  0  0  0  0  0  0  0
    1.2047   -0.6839   -0.0019 N   0  0  0  0  0  0  0  0  0  0  0  0
   -0.0212   -0.0061    0.0211 N   0  0  0  0  0  0  0  0  0  0  0  0
   -0.0467    1.3783    0.0339 C   0  0  0  0  0  0  0  0  0  0  0  0
    1.0958    2.0147    0.0239 C   0  0  0  0  0  0  0  0  0  0  0  0
    1.2212    3.5102    0.0446 C   0  0  0  0  0  0  0  0  0  0  0  0
   -0.1100    4.1559   -0.3457 C   0  0  0  0  0  0  0  0  0  0  0  0
   -1.2243    3.5179    0.4931 C   0  0  0  0  0  0  0  0  0  0  0  0
   -1.3840    2.0595    0.0523 C   0  0  0  0  0  0  0  0  0  0  0  0
   -0.1524   -3.1261   -0.0051 S   0  0  0  0  0  0  0  0  0  0  0  0
    3.3404   -4.8669   -0.0688 O   0  0  0  0  0  0  0  0  0  0  0  0
   -6.4148   -8.8680   -2.0525 F   0  0  0  0  0  0  0  0  0  0  0  0
   -2.0887   -9.0688   -3.2837 H   0  0  0  0  0  0  0  0  0  0  0  0
   -4.3548  -10.0216   -3.1639 H   0  0  0  0  0  0  0  0  0  0  0  0
   -5.7090   -6.5535   -1.0754 H   0  0  0  0  0  0  0  0  0  0  0  0
   -3.4430   -5.5991   -1.1839 H   0  0  0  0  0  0  0  0  0  0  0  0
   -0.7753   -6.8943   -3.0784 H   0  0  0  0  0  0  0  0  0  0  0  0
    0.7140   -4.8647   -2.1756 H   0  0  0  0  0  0  0  0  0  0  0  0
    1.2416   -6.3448   -1.3395 H   0  0  0  0  0  0  0  0  0  0  0  0
   -0.8521   -0.5065    0.0281 H   0  0  0  0  0  0  0  0  0  0  0  0
    2.0031    1.4293   -0.0012 H   0  0  0  0  0  0  0  0  0  0  0  0
    1.5004    3.8355    1.0467 H   0  0  0  0  0  0  0  0  0  0  0  0
    1.9911    3.8181   -0.6629 H   0  0  0  0  0  0  0  0  0  0  0  0
   -0.0697    5.2269   -0.1474 H   0  0  0  0  0  0  0  0  0  0  0  0
   -0.3024    3.9866   -1.4052 H   0  0  0  0  0  0  0  0  0  0  0  0
   -0.9568    3.5586    1.5490 H   0  0  0  0  0  0  0  0  0  0  0  0
   -2.1592    4.0536    0.3282 H   0  0  0  0  0  0  0  0  0  0  0  0
   -1.8205    2.0256   -0.9459 H   0  0  0  0  0  0  0  0  0  0  0  0
   -2.0429    1.5431    0.7504 H   0  0  0  0  0  0  0  0  0  0  0  0
    4.1960   -4.4163   -0.0766 H   0  0  0  0  0  0  0  0  0  0  0  0
  1  6  2  0  0  0  0
  1  2  1  0  0  0  0
  1 27  1  0  0  0  0
  2  3  2  0  0  0  0
  2 28  1  0  0  0  0
  3  4  1  0  0  0  0
  3 26  1  0  0  0  0
  4  5  2  0  0  0  0
  4 29  1  0  0  0  0
  5  6  1  0  0  0  0
  5 30  1  0  0  0  0
  6  7  1  0  0  0  0
  7  8  1  0  0  0  0
  7 31  1  0  0  0  0
  8  9  2  0  0  0  0
  8 10  1  0  0  0  0
 10 11  1  0  0  0  0
 10 32  1  0  0  0  0
 10 33  1  0  0  0  0
 11 12  1  0  0  0  0
 11 24  1  0  0  0  0
 11 13  1  0  0  0  0
 13 14  2  0  0  0  0
 13 25  1  0  0  0  0
 14 15  1  0  0  0  0
 15 16  2  0  0  0  0
 15 24  1  0  0  0  0
 16 17  1  0  0  0  0
 17 18  1  0  0  0  0
 17 34  1  0  0  0  0
 18 23  1  0  0  0  0
 18 19  2  0  0  0  0
 19 20  1  0  0  0  0
 19 35  1  0  0  0  0
 20 21  1  0  0  0  0
 20 36  1  0  0  0  0
 20 37  1  0  0  0  0
 21 22  1  0  0  0  0
 21 38  1  0  0  0  0
 21 39  1  0  0  0  0
 22 23  1  0  0  0  0
 22 40  1  0  0  0  0
 22 41  1  0  0  0  0
 23 42  1  0  0  0  0
 23 43  1  0  0  0  0
 25 44  1  0  0  0  0
M  END
$$$$
ZINC02052064
  -OEChem-08230709453D

 43 44  0     1  0  0  0  0  0999 V2000
    9.7483    5.8982    6.2881 C   0  0  0  0  0  0  0  0  0  0  0  0
    8.6972    4.8932    6.6833 C   0  0  0  0  0  0  0  0  0  0  0  0
    9.0715    3.6235    7.0833 C   0  0  0  0  0  0  0  0  0  0  0  0
    8.1100    2.6984    7.4467 C   0  0  0  0  0  0  0  0  0  0  0  0
    6.7723    3.0400    7.4107 C   0  0  0  0  0  0  0  0  0  0  0  0
    6.3932    4.3143    7.0095 C   0  0  0  0  0  0  0  0  0  0  0  0
    7.3609    5.2395    6.6405 C   0  0  0  0  0  0  0  0  0  0  0  0
    5.0387    4.6634    6.9714 N   0  0  0  0  0  0  0  0  0  0  0  0
    4.1125    3.7364    6.6566 C   0  0  0  0  0  0  0  0  0  0  0  0
    4.4583    2.6257    6.3133 O   0  0  0  0  0  0  0  0  0  0  0  0
    2.6470    4.0799    6.7310 C   0  0  0  0  0  0  0  0  0  0  0  0
    1.8162    2.8607    6.3259 C   0  0  1  0  0  0  0  0  0  0  0  0
    2.1317    1.9703    6.8699 H   0  0  0  0  0  0  0  0  0  0  0  0
    0.3262    3.1205    6.5030 C   0  0  0  0  0  0  0  0  0  0  0  0
   -0.3820    3.0785    5.4439 N   0  0  0  0  0  0  0  0  0  0  0  0
    0.1182    2.8201    4.2015 C   0  0  0  0  0  0  0  0  0  0  0  0
   -0.5237    2.7560    3.0660 N   0  0  0  0  0  0  0  0  0  0  0  0
    0.1721    2.4750    1.8829 N   0  0  0  0  0  0  0  0  0  0  0  0
   -0.5085    2.4070    0.6790 C   0  0  0  0  0  0  0  0  0  0  0  0
   -1.8155    2.6074    0.6459 C   0  0  0  0  0  0  0  0  0  0  0  0
    0.2399    2.1047   -0.5936 C   0  0  0  0  0  0  0  0  0  0  0  0
    1.8649    2.5825    4.5051 S   0  0  0  0  0  0  0  0  0  0  0  0
   -0.2133    3.3797    7.7112 O   0  0  0  0  0  0  0  0  0  0  0  0
    8.5224    1.3158    7.8820 C   0  0  0  0  0  0  0  0  0  0  0  0
    9.9449    5.8170    5.2191 H   0  0  0  0  0  0  0  0  0  0  0  0
    9.3942    6.9034    6.5171 H   0  0  0  0  0  0  0  0  0  0  0  0
   10.6660    5.7012    6.8424 H   0  0  0  0  0  0  0  0  0  0  0  0
   10.1168    3.3537    7.1117 H   0  0  0  0  0  0  0  0  0  0  0  0
    6.0219    2.3170    7.6947 H   0  0  0  0  0  0  0  0  0  0  0  0
    7.0690    6.2300    6.3241 H   0  0  0  0  0  0  0  0  0  0  0  0
    4.7664    5.5726    7.1717 H   0  0  0  0  0  0  0  0  0  0  0  0
    2.4328    4.9068    6.0539 H   0  0  0  0  0  0  0  0  0  0  0  0
    2.3932    4.3701    7.7506 H   0  0  0  0  0  0  0  0  0  0  0  0
    1.1306    2.3280    1.9072 H   0  0  0  0  0  0  0  0  0  0  0  0
   -2.3463    2.5544   -0.2931 H   0  0  0  0  0  0  0  0  0  0  0  0
   -2.3519    2.8240    1.5579 H   0  0  0  0  0  0  0  0  0  0  0  0
    0.2626    1.0269   -0.7545 H   0  0  0  0  0  0  0  0  0  0  0  0
    1.2596    2.4817   -0.5138 H   0  0  0  0  0  0  0  0  0  0  0  0
   -0.2610    2.5870   -1.4330 H   0  0  0  0  0  0  0  0  0  0  0  0
   -1.1674    3.5342    7.7420 H   0  0  0  0  0  0  0  0  0  0  0  0
    8.5654    0.6590    7.0132 H   0  0  0  0  0  0  0  0  0  0  0  0
    9.5046    1.3608    8.3525 H   0  0  0  0  0  0  0  0  0  0  0  0
    7.7953    0.9275    8.5953 H   0  0  0  0  0  0  0  0  0  0  0  0
  1  2  1  0  0  0  0
  1 25  1  0  0  0  0
  1 26  1  0  0  0  0
  1 27  1  0  0  0  0
  2  7  2  0  0  0  0
  2  3  1  0  0  0  0
  3  4  2  0  0  0  0
  3 28  1  0  0  0  0
  4  5  1  0  0  0  0
  4 24  1  0  0  0  0
  5  6  2  0  0  0  0
  5 29  1  0  0  0  0
  6  7  1  0  0  0  0
  6  8  1  0  0  0  0
  7 30  1  0  0  0  0
  8  9  1  0  0  0  0
  8 31  1  0  0  0  0
  9 10  2  0  0  0  0
  9 11  1  0  0  0  0
 11 12  1  0  0  0  0
 11 32  1  0  0  0  0
 11 33  1  0  0  0  0
 12 13  1  0  0  0  0
 12 22  1  0  0  0  0
 12 14  1  0  0  0  0
 14 15  2  0  0  0  0
 14 23  1  0  0  0  0
 15 16  1  0  0  0  0
 16 17  2  0  0  0  0
 16 22  1  0  0  0  0
 17 18  1  0  0  0  0
 18 19  1  0  0  0  0
 18 34  1  0  0  0  0
 19 20  2  0  0  0  0
 19 21  1  0  0  0  0
 20 35  1  0  0  0  0
 20 36  1  0  0  0  0
 21 37  1  0  0  0  0
 21 38  1  0  0  0  0
 21 39  1  0  0  0  0
 23 40  1  0  0  0  0
 24 41  1  0  0  0  0
 24 42  1  0  0  0  0
 24 43  1  0  0  0  0
M  END
$$$$
ZINC02052066
  -OEChem-08230709453D

 43 44  0     1  0  0  0  0  0999 V2000
    6.3231   -6.6241   -3.6125 C   0  0  0  0  0  0  0  0  0  0  0  0
    6.0633   -5.3491   -2.8522 C   0  0  0  0  0  0  0  0  0  0  0  0
    7.0805   -4.7597   -2.1240 C   0  0  0  0  0  0  0  0  0  0  0  0
    6.8459   -3.5903   -1.4243 C   0  0  0  0  0  0  0  0  0  0  0  0
    5.5944   -3.0068   -1.4514 C   0  0  0  0  0  0  0  0  0  0  0  0
    4.5709   -3.5960   -2.1820 C   0  0  0  0  0  0  0  0  0  0  0  0
    4.8081   -4.7737   -2.8787 C   0  0  0  0  0  0  0  0  0  0  0  0
    3.3019   -3.0073   -2.2116 N   0  0  0  0  0  0  0  0  0  0  0  0
    2.8388   -2.3496   -1.1302 C   0  0  0  0  0  0  0  0  0  0  0  0
    3.4795   -2.3490   -0.1003 O   0  0  0  0  0  0  0  0  0  0  0  0
    1.5249   -1.6149   -1.2006 C   0  0  0  0  0  0  0  0  0  0  0  0
    1.2340   -0.9594    0.1509 C   0  0  2  0  0  0  0  0  0  0  0  0
    1.3449   -1.6733    0.9672 H   0  0  0  0  0  0  0  0  0  0  0  0
   -0.1420   -0.3072    0.1669 C   0  0  0  0  0  0  0  0  0  0  0  0
   -0.1642    0.9553    0.3415 N   0  0  0  0  0  0  0  0  0  0  0  0
    0.9515    1.7220    0.5088 C   0  0  0  0  0  0  0  0  0  0  0  0
    1.0285    3.0126    0.6926 N   0  0  0  0  0  0  0  0  0  0  0  0
    2.2793    3.6250    0.8453 N   0  0  0  0  0  0  0  0  0  0  0  0
    2.3610    4.9935    1.0402 C   0  0  0  0  0  0  0  0  0  0  0  0
    1.2582    5.7225    1.0822 C   0  0  0  0  0  0  0  0  0  0  0  0
    3.7064    5.6522    1.2044 C   0  0  0  0  0  0  0  0  0  0  0  0
    2.2835    0.5318    0.4155 S   0  0  0  0  0  0  0  0  0  0  0  0
   -1.2724   -1.0243    0.0053 O   0  0  0  0  0  0  0  0  0  0  0  0
    7.9572   -2.9516   -0.6317 C   0  0  0  0  0  0  0  0  0  0  0  0
    6.1124   -7.4793   -2.9705 H   0  0  0  0  0  0  0  0  0  0  0  0
    5.6783   -6.6613   -4.4905 H   0  0  0  0  0  0  0  0  0  0  0  0
    7.3665   -6.6537   -3.9264 H   0  0  0  0  0  0  0  0  0  0  0  0
    8.0601   -5.2139   -2.1015 H   0  0  0  0  0  0  0  0  0  0  0  0
    5.4119   -2.0935   -0.9047 H   0  0  0  0  0  0  0  0  0  0  0  0
    4.0129   -5.2369   -3.4439 H   0  0  0  0  0  0  0  0  0  0  0  0
    2.7554   -3.0726   -3.0104 H   0  0  0  0  0  0  0  0  0  0  0  0
    0.7279   -2.3181   -1.4424 H   0  0  0  0  0  0  0  0  0  0  0  0
    1.5788   -0.8473   -1.9726 H   0  0  0  0  0  0  0  0  0  0  0  0
    3.0881    3.0904    0.8145 H   0  0  0  0  0  0  0  0  0  0  0  0
    0.2940    5.2504    0.9645 H   0  0  0  0  0  0  0  0  0  0  0  0
    1.3219    6.7898    1.2342 H   0  0  0  0  0  0  0  0  0  0  0  0
    4.0856    5.9525    0.2276 H   0  0  0  0  0  0  0  0  0  0  0  0
    3.6053    6.5313    1.8409 H   0  0  0  0  0  0  0  0  0  0  0  0
    4.4015    4.9492    1.6636 H   0  0  0  0  0  0  0  0  0  0  0  0
   -2.1079   -0.5378    0.0276 H   0  0  0  0  0  0  0  0  0  0  0  0
    7.9517   -3.3458    0.3845 H   0  0  0  0  0  0  0  0  0  0  0  0
    8.9144   -3.1751   -1.1028 H   0  0  0  0  0  0  0  0  0  0  0  0
    7.8093   -1.8721   -0.6034 H   0  0  0  0  0  0  0  0  0  0  0  0
  1  2  1  0  0  0  0
  1 25  1  0  0  0  0
  1 26  1  0  0  0  0
  1 27  1  0  0  0  0
  2  7  2  0  0  0  0
  2  3  1  0  0  0  0
  3  4  2  0  0  0  0
  3 28  1  0  0  0  0
  4  5  1  0  0  0  0
  4 24  1  0  0  0  0
  5  6  2  0  0  0  0
  5 29  1  0  0  0  0
  6  7  1  0  0  0  0
  6  8  1  0  0  0  0
  7 30  1  0  0  0  0
  8  9  1  0  0  0  0
  8 31  1  0  0  0  0
  9 10  2  0  0  0  0
  9 11  1  0  0  0  0
 11 12  1  0  0  0  0
 11 32  1  0  0  0  0
 11 33  1  0  0  0  0
 12 13  1  0  0  0  0
 12 22  1  0  0  0  0
 12 14  1  0  0  0  0
 14 15  2  0  0  0  0
 14 23  1  0  0  0  0
 15 16  1  0  0  0  0
 16 17  2  0  0  0  0
 16 22  1  0  0  0  0
 17 18  1  0  0  0  0
 18 19  1  0  0  0  0
 18 34  1  0  0  0  0
 19 20  2  0  0  0  0
 19 21  1  0  0  0  0
 20 35  1  0  0  0  0
 20 36  1  0  0  0  0
 21 37  1  0  0  0  0
 21 38  1  0  0  0  0
 21 39  1  0  0  0  0
 23 40  1  0  0  0  0
 24 41  1  0  0  0  0
 24 42  1  0  0  0  0
 24 43  1  0  0  0  0
M  END
$$$$
ZINC02064738
  -OEChem-08230709453D

 41 43  0     1  0  0  0  0  0999 V2000
    8.4739   10.2526   -2.1468 C   0  0  0  0  0  0  0  0  0  0  0  0
    7.9424    9.1006   -1.5967 C   0  0  0  0  0  0  0  0  0  0  0  0
    6.5795    8.8801   -1.6353 C   0  0  0  0  0  0  0  0  0  0  0  0
    5.7427    9.8167   -2.2279 C   0  0  0  0  0  0  0  0  0  0  0  0
    6.2802   10.9699   -2.7845 C   0  0  0  0  0  0  0  0  0  0  0  0
    7.6433   11.1871   -2.7376 C   0  0  0  0  0  0  0  0  0  0  0  0
    4.3616    9.5962   -2.2692 N   0  0  0  0  0  0  0  0  0  0  0  0
    3.7481    8.9712   -1.2447 C   0  0  0  0  0  0  0  0  0  0  0  0
    4.4032    8.5256   -0.3264 O   0  0  0  0  0  0  0  0  0  0  0  0
    2.2481    8.8261   -1.2402 C   0  0  0  0  0  0  0  0  0  0  0  0
    1.8112    8.0849    0.0249 C   0  0  1  0  0  0  0  0  0  0  0  0
    2.1350    8.6121    0.9223 H   0  0  0  0  0  0  0  0  0  0  0  0
    0.3079    7.8416    0.0346 C   0  0  0  0  0  0  0  0  0  0  0  0
   -0.0648    6.6226    0.0303 N   0  0  0  0  0  0  0  0  0  0  0  0
    0.7936    5.5624    0.0300 C   0  0  0  0  0  0  0  0  0  0  0  0
    0.5084    4.2881    0.0311 N   0  0  0  0  0  0  0  0  0  0  0  0
    1.5394    3.3395    0.0237 N   0  0  0  0  0  0  0  0  0  0  0  0
    1.2371    1.9883    0.0249 C   0  0  0  0  0  0  0  0  0  0  0  0
    0.0141    1.4955    0.0321 C   0  0  0  0  0  0  0  0  0  0  0  0
    0.0420   -0.0153    0.0307 C   0  0  0  0  0  0  0  0  0  0  0  0
    1.4846   -0.3840    0.4468 C   0  0  0  0  0  0  0  0  0  0  0  0
    2.2643    0.8801    0.0175 C   0  0  0  0  0  0  0  0  0  0  0  0
    2.4042    6.3403    0.0199 S   0  0  0  0  0  0  0  0  0  0  0  0
   -0.5784    8.8578    0.0415 O   0  0  0  0  0  0  0  0  0  0  0  0
    9.5398   10.4230   -2.1146 H   0  0  0  0  0  0  0  0  0  0  0  0
    8.5937    8.3726   -1.1360 H   0  0  0  0  0  0  0  0  0  0  0  0
    6.1651    7.9802   -1.2055 H   0  0  0  0  0  0  0  0  0  0  0  0
    5.6324   11.6982   -3.2497 H   0  0  0  0  0  0  0  0  0  0  0  0
    8.0614   12.0859   -3.1663 H   0  0  0  0  0  0  0  0  0  0  0  0
    3.8457    9.8931   -3.0351 H   0  0  0  0  0  0  0  0  0  0  0  0
    1.9350    8.2616   -2.1185 H   0  0  0  0  0  0  0  0  0  0  0  0
    1.7874    9.8138   -1.2600 H   0  0  0  0  0  0  0  0  0  0  0  0
    2.4651    3.6294    0.0178 H   0  0  0  0  0  0  0  0  0  0  0  0
   -0.8866    2.0916    0.0342 H   0  0  0  0  0  0  0  0  0  0  0  0
   -0.6735   -0.4088    0.7527 H   0  0  0  0  0  0  0  0  0  0  0  0
   -0.1766   -0.3979   -0.9663 H   0  0  0  0  0  0  0  0  0  0  0  0
    1.5532   -0.5383    1.5236 H   0  0  0  0  0  0  0  0  0  0  0  0
    1.8352   -1.2622   -0.0953 H   0  0  0  0  0  0  0  0  0  0  0  0
    3.0601    1.0955    0.7305 H   0  0  0  0  0  0  0  0  0  0  0  0
    2.6772    0.7498   -0.9829 H   0  0  0  0  0  0  0  0  0  0  0  0
   -1.5162    8.6223    0.0475 H   0  0  0  0  0  0  0  0  0  0  0  0
  1  6  2  0  0  0  0
  1  2  1  0  0  0  0
  1 25  1  0  0  0  0
  2  3  2  0  0  0  0
  2 26  1  0  0  0  0
  3  4  1  0  0  0  0
  3 27  1  0  0  0  0
  4  5  2  0  0  0  0
  4  7  1  0  0  0  0
  5  6  1  0  0  0  0
  5 28  1  0  0  0  0
  6 29  1  0  0  0  0
  7  8  1  0  0  0  0
  7 30  1  0  0  0  0
  8  9  2  0  0  0  0
  8 10  1  0  0  0  0
 10 11  1  0  0  0  0
 10 31  1  0  0  0  0
 10 32  1  0  0  0  0
 11 12  1  0  0  0  0
 11 23  1  0  0  0  0
 11 13  1  0  0  0  0
 13 14  2  0  0  0  0
 13 24  1  0  0  0  0
 14 15  1  0  0  0  0
 15 16  2  0  0  0  0
 15 23  1  0  0  0  0
 16 17  1  0  0  0  0
 17 18  1  0  0  0  0
 17 33  1  0  0  0  0
 18 22  1  0  0  0  0
 18 19  2  0  0  0  0
 19 20  1  0  0  0  0
 19 34  1  0  0  0  0
 20 21  1  0  0  0  0
 20 35  1  0  0  0  0
 20 36  1  0  0  0  0
 21 22  1  0  0  0  0
 21 37  1  0  0  0  0
 21 38  1  0  0  0  0
 22 39  1  0  0  0  0
 22 40  1  0  0  0  0
 24 41  1  0  0  0  0
M  END
$$$$
ZINC02064740
  -OEChem-08230709453D

 41 43  0     1  0  0  0  0  0999 V2000
   -0.0118    1.0759   -0.0076 C   0  0  0  0  0  0  0  0  0  0  0  0
    0.9213    1.7722    0.7385 C   0  0  0  0  0  0  0  0  0  0  0  0
    0.9084    3.1533    0.7484 C   0  0  0  0  0  0  0  0  0  0  0  0
   -0.0496    3.8424    0.0165 C   0  0  0  0  0  0  0  0  0  0  0  0
   -0.9886    3.1401   -0.7276 C   0  0  0  0  0  0  0  0  0  0  0  0
   -0.9670    1.7592   -0.7376 C   0  0  0  0  0  0  0  0  0  0  0  0
   -0.0691    5.2415    0.0290 N   0  0  0  0  0  0  0  0  0  0  0  0
   -1.2418    5.9000   -0.0584 C   0  0  0  0  0  0  0  0  0  0  0  0
   -2.2858    5.2827   -0.0515 O   0  0  0  0  0  0  0  0  0  0  0  0
   -1.2558    7.4031   -0.1648 C   0  0  0  0  0  0  0  0  0  0  0  0
   -2.7021    7.8949   -0.2501 C   0  0  2  0  0  0  0  0  0  0  0  0
   -3.2382    7.4036   -1.0621 H   0  0  0  0  0  0  0  0  0  0  0  0
   -2.7663    9.4109   -0.3796 C   0  0  0  0  0  0  0  0  0  0  0  0
   -3.3497   10.0324    0.5682 N   0  0  0  0  0  0  0  0  0  0  0  0
   -3.9003    9.4210    1.6562 C   0  0  0  0  0  0  0  0  0  0  0  0
   -4.5139    9.9689    2.6703 N   0  0  0  0  0  0  0  0  0  0  0  0
   -5.0166    9.1656    3.7022 N   0  0  0  0  0  0  0  0  0  0  0  0
   -5.6673    9.7466    4.7776 C   0  0  0  0  0  0  0  0  0  0  0  0
   -5.8638   11.0425    4.9216 C   0  0  0  0  0  0  0  0  0  0  0  0
   -6.6055   11.3355    6.2051 C   0  0  0  0  0  0  0  0  0  0  0  0
   -6.4685   10.0441    7.0439 C   0  0  0  0  0  0  0  0  0  0  0  0
   -6.2533    8.9804    5.9407 C   0  0  0  0  0  0  0  0  0  0  0  0
   -3.5787    7.6854    1.3571 S   0  0  0  0  0  0  0  0  0  0  0  0
   -2.2359   10.0588   -1.4365 O   0  0  0  0  0  0  0  0  0  0  0  0
    0.0028   -0.0039   -0.0167 H   0  0  0  0  0  0  0  0  0  0  0  0
    1.6635    1.2356    1.3108 H   0  0  0  0  0  0  0  0  0  0  0  0
    1.6399    3.6966    1.3281 H   0  0  0  0  0  0  0  0  0  0  0  0
   -1.7347    3.6732   -1.2982 H   0  0  0  0  0  0  0  0  0  0  0  0
   -1.6972    1.2125   -1.3157 H   0  0  0  0  0  0  0  0  0  0  0  0
    0.7614    5.7375    0.1007 H   0  0  0  0  0  0  0  0  0  0  0  0
   -0.7768    7.8341    0.7144 H   0  0  0  0  0  0  0  0  0  0  0  0
   -0.7146    7.7091   -1.0601 H   0  0  0  0  0  0  0  0  0  0  0  0
   -4.9089    8.2024    3.6633 H   0  0  0  0  0  0  0  0  0  0  0  0
   -5.5389   11.7935    4.2166 H   0  0  0  0  0  0  0  0  0  0  0  0
   -6.1464   12.1763    6.7252 H   0  0  0  0  0  0  0  0  0  0  0  0
   -7.6547   11.5457    5.9976 H   0  0  0  0  0  0  0  0  0  0  0  0
   -5.6078   10.1006    7.7103 H   0  0  0  0  0  0  0  0  0  0  0  0
   -7.3815    9.8437    7.6045 H   0  0  0  0  0  0  0  0  0  0  0  0
   -7.2031    8.5273    5.6566 H   0  0  0  0  0  0  0  0  0  0  0  0
   -5.5547    8.2167    6.2825 H   0  0  0  0  0  0  0  0  0  0  0  0
   -2.3170   11.0224   -1.4465 H   0  0  0  0  0  0  0  0  0  0  0  0
  1  6  2  0  0  0  0
  1  2  1  0  0  0  0
  1 25  1  0  0  0  0
  2  3  2  0  0  0  0
  2 26  1  0  0  0  0
  3  4  1  0  0  0  0
  3 27  1  0  0  0  0
  4  5  2  0  0  0  0
  4  7  1  0  0  0  0
  5  6  1  0  0  0  0
  5 28  1  0  0  0  0
  6 29  1  0  0  0  0
  7  8  1  0  0  0  0
  7 30  1  0  0  0  0
  8  9  2  0  0  0  0
  8 10  1  0  0  0  0
 10 11  1  0  0  0  0
 10 31  1  0  0  0  0
 10 32  1  0  0  0  0
 11 12  1  0  0  0  0
 11 23  1  0  0  0  0
 11 13  1  0  0  0  0
 13 14  2  0  0  0  0
 13 24  1  0  0  0  0
 14 15  1  0  0  0  0
 15 16  2  0  0  0  0
 15 23  1  0  0  0  0
 16 17  1  0  0  0  0
 17 18  1  0  0  0  0
 17 33  1  0  0  0  0
 18 22  1  0  0  0  0
 18 19  2  0  0  0  0
 19 20  1  0  0  0  0
 19 34  1  0  0  0  0
 20 21  1  0  0  0  0
 20 35  1  0  0  0  0
 20 36  1  0  0  0  0
 21 22  1  0  0  0  0
 21 37  1  0  0  0  0
 21 38  1  0  0  0  0
 22 39  1  0  0  0  0
 22 40  1  0  0  0  0
 24 41  1  0  0  0  0
M  END
$$$$
ZINC02090392
  -OEChem-08230709453D

 49 52  0     0  0  0  0  0  0999 V2000
   -1.4990    0.7319    5.5626 C   0  0  0  0  0  0  0  0  0  0  0  0
   -1.5612    1.5862    4.2948 C   0  0  0  0  0  0  0  0  0  0  0  0
   -2.9277    1.4620    3.6718 C   0  0  0  0  0  0  0  0  0  0  0  0
   -3.1440    0.5428    2.6682 C   0  0  0  0  0  0  0  0  0  0  0  0
   -4.4085    0.4265    2.0902 C   0  0  0  0  0  0  0  0  0  0  0  0
   -5.4528    1.2502    2.5298 C   0  0  0  0  0  0  0  0  0  0  0  0
   -5.2263    2.1668    3.5418 C   0  0  0  0  0  0  0  0  0  0  0  0
   -3.9657    2.2751    4.1109 C   0  0  0  0  0  0  0  0  0  0  0  0
   -3.7452    3.1791    5.1001 O   0  0  0  0  0  0  0  0  0  0  0  0
   -4.8556    3.9830    5.5036 C   0  0  0  0  0  0  0  0  0  0  0  0
   -6.6846    1.1464    1.9682 O   0  0  0  0  0  0  0  0  0  0  0  0
   -4.6441   -0.5591    1.0129 C   0  0  0  0  0  0  0  0  0  0  0  0
   -3.7789   -0.6285   -0.0977 C   0  0  0  0  0  0  0  0  0  0  0  0
   -4.0445   -1.5804   -1.0815 C   0  0  0  0  0  0  0  0  0  0  0  0
   -5.0929   -2.3746   -0.9429 N   0  0  0  0  0  0  0  0  0  0  0  0
   -5.8901   -2.2794    0.1118 C   0  0  0  0  0  0  0  0  0  0  0  0
   -5.6802   -1.3926    1.0719 N   0  0  0  0  0  0  0  0  0  0  0  0
   -6.9752   -3.1326    0.2120 N   0  0  0  0  0  0  0  0  0  0  0  0
   -2.6148    0.2816   -0.2136 C   0  0  0  0  0  0  0  0  0  0  0  0
   -2.8002    1.6627   -0.1689 C   0  0  0  0  0  0  0  0  0  0  0  0
   -1.7159    2.5078   -0.2815 C   0  0  0  0  0  0  0  0  0  0  0  0
   -0.4372    1.9884   -0.4320 C   0  0  0  0  0  0  0  0  0  0  0  0
   -0.2460    0.6112   -0.4751 C   0  0  0  0  0  0  0  0  0  0  0  0
   -1.3320   -0.2412   -0.3671 C   0  0  0  0  0  0  0  0  0  0  0  0
    1.0011    0.0853   -0.6217 O   0  0  0  0  0  0  0  0  0  0  0  0
    2.0197    0.9692   -1.1023 C   0  0  0  0  0  0  0  0  0  0  0  0
    1.9198    2.2864   -0.3211 C   0  0  0  0  0  0  0  0  0  0  0  0
    0.6186    2.8409   -0.5417 O   0  0  0  0  0  0  0  0  0  0  0  0
   -0.5106    0.8218    6.0132 H   0  0  0  0  0  0  0  0  0  0  0  0
   -2.2535    1.0761    6.2700 H   0  0  0  0  0  0  0  0  0  0  0  0
   -1.6887   -0.3108    5.3077 H   0  0  0  0  0  0  0  0  0  0  0  0
   -0.8067    1.2421    3.5874 H   0  0  0  0  0  0  0  0  0  0  0  0
   -1.3715    2.6289    4.5497 H   0  0  0  0  0  0  0  0  0  0  0  0
   -2.3351   -0.0875    2.3294 H   0  0  0  0  0  0  0  0  0  0  0  0
   -6.0301    2.8008    3.8857 H   0  0  0  0  0  0  0  0  0  0  0  0
   -4.5437    4.6606    6.2985 H   0  0  0  0  0  0  0  0  0  0  0  0
   -5.2134    4.5620    4.6522 H   0  0  0  0  0  0  0  0  0  0  0  0
   -5.6565    3.3398    5.8680 H   0  0  0  0  0  0  0  0  0  0  0  0
   -7.2915    0.5718    2.4546 H   0  0  0  0  0  0  0  0  0  0  0  0
   -3.4023   -1.6681   -1.9453 H   0  0  0  0  0  0  0  0  0  0  0  0
   -7.1429   -3.7877   -0.4834 H   0  0  0  0  0  0  0  0  0  0  0  0
   -7.5680   -3.0755    0.9776 H   0  0  0  0  0  0  0  0  0  0  0  0
   -3.7930    2.0709   -0.0492 H   0  0  0  0  0  0  0  0  0  0  0  0
   -1.8614    3.5773   -0.2461 H   0  0  0  0  0  0  0  0  0  0  0  0
   -1.1851   -1.3105   -0.4023 H   0  0  0  0  0  0  0  0  0  0  0  0
    3.0004    0.5209   -0.9434 H   0  0  0  0  0  0  0  0  0  0  0  0
    1.8701    1.1591   -2.1652 H   0  0  0  0  0  0  0  0  0  0  0  0
    2.0621    2.0947    0.7424 H   0  0  0  0  0  0  0  0  0  0  0  0
    2.6807    2.9821   -0.6748 H   0  0  0  0  0  0  0  0  0  0  0  0
  1  2  1  0  0  0  0
  1 29  1  0  0  0  0
  1 30  1  0  0  0  0
  1 31  1  0  0  0  0
  2  3  1  0  0  0  0
  2 32  1  0  0  0  0
  2 33  1  0  0  0  0
  3  8  2  0  0  0  0
  3  4  1  0  0  0  0
  4  5  2  0  0  0  0
  4 34  1  0  0  0  0
  5  6  1  0  0  0  0
  5 12  1  0  0  0  0
  6  7  2  0  0  0  0
  6 11  1  0  0  0  0
  7  8  1  0  0  0  0
  7 35  1  0  0  0  0
  8  9  1  0  0  0  0
  9 10  1  0  0  0  0
 10 36  1  0  0  0  0
 10 37  1  0  0  0  0
 10 38  1  0  0  0  0
 11 39  1  0  0  0  0
 12 17  2  0  0  0  0
 12 13  1  0  0  0  0
 13 14  2  0  0  0  0
 13 19  1  0  0  0  0
 14 15  1  0  0  0  0
 14 40  1  0  0  0  0
 15 16  2  0  0  0  0
 16 17  1  0  0  0  0
 16 18  1  0  0  0  0
 18 41  1  0  0  0  0
 18 42  1  0  0  0  0
 19 24  2  0  0  0  0
 19 20  1  0  0  0  0
 20 21  2  0  0  0  0
 20 43  1  0  0  0  0
 21 22  1  0  0  0  0
 21 44  1  0  0  0  0
 22 28  1  0  0  0  0
 22 23  2  0  0  0  0
 23 24  1  0  0  0  0
 23 25  1  0  0  0  0
 24 45  1  0  0  0  0
 25 26  1  0  0  0  0
 26 27  1  0  0  0  0
 26 46  1  0  0  0  0
 26 47  1  0  0  0  0
 27 28  1  0  0  0  0
 27 48  1  0  0  0  0
 27 49  1  0  0  0  0
M  END
$$$$
ZINC02126377
  -OEChem-08230709453D

 47 49  0     0  0  0  0  0  0999 V2000
   -0.2250    2.6011    5.5651 C   0  0  0  0  0  0  0  0  0  0  0  0
   -0.9973    2.9815    4.3003 C   0  0  0  0  0  0  0  0  0  0  0  0
   -1.5699    1.7389    3.6686 C   0  0  0  0  0  0  0  0  0  0  0  0
   -0.8808    1.1010    2.6601 C   0  0  0  0  0  0  0  0  0  0  0  0
   -1.4094   -0.0496    2.0741 C   0  0  0  0  0  0  0  0  0  0  0  0
   -2.6432   -0.5487    2.5109 C   0  0  0  0  0  0  0  0  0  0  0  0
   -3.3252    0.0967    3.5278 C   0  0  0  0  0  0  0  0  0  0  0  0
   -2.7917    1.2401    4.1045 C   0  0  0  0  0  0  0  0  0  0  0  0
   -3.4658    1.8745    5.0983 O   0  0  0  0  0  0  0  0  0  0  0  0
   -4.7156    1.3087    5.4982 C   0  0  0  0  0  0  0  0  0  0  0  0
   -3.1663   -1.6649    1.9418 O   0  0  0  0  0  0  0  0  0  0  0  0
   -0.6725   -0.7364    0.9912 C   0  0  0  0  0  0  0  0  0  0  0  0
   -0.1822   -0.0122   -0.1142 C   0  0  0  0  0  0  0  0  0  0  0  0
    0.5106   -0.7090   -1.1037 C   0  0  0  0  0  0  0  0  0  0  0  0
    0.6777   -2.0147   -0.9749 N   0  0  0  0  0  0  0  0  0  0  0  0
    0.1988   -2.6666    0.0752 C   0  0  0  0  0  0  0  0  0  0  0  0
   -0.4649   -2.0502    1.0405 N   0  0  0  0  0  0  0  0  0  0  0  0
    0.3992   -4.0330    0.1653 N   0  0  0  0  0  0  0  0  0  0  0  0
   -0.3921    1.4512   -0.2191 C   0  0  0  0  0  0  0  0  0  0  0  0
   -1.6830    1.9769   -0.1759 C   0  0  0  0  0  0  0  0  0  0  0  0
   -1.8744    3.3394   -0.2685 C   0  0  0  0  0  0  0  0  0  0  0  0
   -0.7845    4.1866   -0.4157 C   0  0  0  0  0  0  0  0  0  0  0  0
    0.5016    3.6661   -0.4648 C   0  0  0  0  0  0  0  0  0  0  0  0
    0.7004    2.3050   -0.3671 C   0  0  0  0  0  0  0  0  0  0  0  0
   -0.9770    5.5284   -0.5123 O   0  0  0  0  0  0  0  0  0  0  0  0
   -2.3260    5.9961   -0.4543 C   0  0  0  0  0  0  0  0  0  0  0  0
   -0.8987    2.1130    6.2692 H   0  0  0  0  0  0  0  0  0  0  0  0
    0.5849    1.9195    5.3050 H   0  0  0  0  0  0  0  0  0  0  0  0
    0.1892    3.4999    6.0220 H   0  0  0  0  0  0  0  0  0  0  0  0
   -0.3235    3.4696    3.5961 H   0  0  0  0  0  0  0  0  0  0  0  0
   -1.8072    3.6631    4.5603 H   0  0  0  0  0  0  0  0  0  0  0  0
    0.0684    1.4913    2.3237 H   0  0  0  0  0  0  0  0  0  0  0  0
   -4.2750   -0.2873    3.8693 H   0  0  0  0  0  0  0  0  0  0  0  0
   -4.5561    0.2914    5.8556 H   0  0  0  0  0  0  0  0  0  0  0  0
   -5.1480    1.9110    6.2973 H   0  0  0  0  0  0  0  0  0  0  0  0
   -5.3961    1.2923    4.6468 H   0  0  0  0  0  0  0  0  0  0  0  0
   -2.9695   -2.4806    2.4224 H   0  0  0  0  0  0  0  0  0  0  0  0
    0.9059   -0.1892   -1.9638 H   0  0  0  0  0  0  0  0  0  0  0  0
    0.8839   -4.4993   -0.5337 H   0  0  0  0  0  0  0  0  0  0  0  0
    0.0550   -4.5245    0.9275 H   0  0  0  0  0  0  0  0  0  0  0  0
   -2.5316    1.3180   -0.0659 H   0  0  0  0  0  0  0  0  0  0  0  0
   -2.8736    3.7476   -0.2302 H   0  0  0  0  0  0  0  0  0  0  0  0
    1.3473    4.3279   -0.5794 H   0  0  0  0  0  0  0  0  0  0  0  0
    1.7011    1.9007   -0.4054 H   0  0  0  0  0  0  0  0  0  0  0  0
   -2.8978    5.5585   -1.2727 H   0  0  0  0  0  0  0  0  0  0  0  0
   -2.7712    5.7041    0.4968 H   0  0  0  0  0  0  0  0  0  0  0  0
   -2.3381    7.0825   -0.5429 H   0  0  0  0  0  0  0  0  0  0  0  0
  1  2  1  0  0  0  0
  1 27  1  0  0  0  0
  1 28  1  0  0  0  0
  1 29  1  0  0  0  0
  2  3  1  0  0  0  0
  2 30  1  0  0  0  0
  2 31  1  0  0  0  0
  3  8  2  0  0  0  0
  3  4  1  0  0  0  0
  4  5  2  0  0  0  0
  4 32  1  0  0  0  0
  5  6  1  0  0  0  0
  5 12  1  0  0  0  0
  6  7  2  0  0  0  0
  6 11  1  0  0  0  0
  7  8  1  0  0  0  0
  7 33  1  0  0  0  0
  8  9  1  0  0  0  0
  9 10  1  0  0  0  0
 10 34  1  0  0  0  0
 10 35  1  0  0  0  0
 10 36  1  0  0  0  0
 11 37  1  0  0  0  0
 12 17  2  0  0  0  0
 12 13  1  0  0  0  0
 13 14  2  0  0  0  0
 13 19  1  0  0  0  0
 14 15  1  0  0  0  0
 14 38  1  0  0  0  0
 15 16  2  0  0  0  0
 16 17  1  0  0  0  0
 16 18  1  0  0  0  0
 18 39  1  0  0  0  0
 18 40  1  0  0  0  0
 19 24  2  0  0  0  0
 19 20  1  0  0  0  0
 20 21  2  0  0  0  0
 20 41  1  0  0  0  0
 21 22  1  0  0  0  0
 21 42  1  0  0  0  0
 22 23  2  0  0  0  0
 22 25  1  0  0  0  0
 23 24  1  0  0  0  0
 23 43  1  0  0  0  0
 24 44  1  0  0  0  0
 25 26  1  0  0  0  0
 26 45  1  0  0  0  0
 26 46  1  0  0  0  0
 26 47  1  0  0  0  0
M  END
$$$$
ZINC02128451
  -OEChem-08230709453D

 44 47  0     1  0  0  0  0  0999 V2000
   -1.9531    6.6910    1.9597 C   0  0  0  0  0  0  0  0  0  0  0  0
   -2.0621    5.8465    3.1074 O   0  0  0  0  0  0  0  0  0  0  0  0
   -1.9315    4.5083    2.9038 C   0  0  0  0  0  0  0  0  0  0  0  0
   -1.7035    4.0191    1.6272 C   0  0  0  0  0  0  0  0  0  0  0  0
   -1.5713    2.6586    1.4214 C   0  0  0  0  0  0  0  0  0  0  0  0
   -1.6716    1.7821    2.4859 C   0  0  0  0  0  0  0  0  0  0  0  0
   -1.8935    2.2639    3.7635 C   0  0  0  0  0  0  0  0  0  0  0  0
   -2.0269    3.6276    3.9763 C   0  0  0  0  0  0  0  0  0  0  0  0
   -2.2502    4.1031    5.2310 O   0  0  0  0  0  0  0  0  0  0  0  0
   -3.6125    4.2368    5.6413 C   0  0  0  0  0  0  0  0  0  0  0  0
   -3.6618    4.7610    7.0159 C   0  0  0  0  0  0  0  0  0  0  0  0
   -3.7011    5.1791    8.1122 C   0  0  0  0  0  0  0  0  0  0  0  0
   -2.0113    1.1610    5.0990 Cl  0  0  0  0  0  0  0  0  0  0  0  0
   -1.3234    2.1291    0.0324 C   0  0  1  0  0  0  0  0  0  0  0  0
   -1.2736    2.9642   -0.6663 H   0  0  0  0  0  0  0  0  0  0  0  0
   -0.0167    1.3811    0.0096 C   0  0  0  0  0  0  0  0  0  0  0  0
    1.1723    2.0900    0.0021 C   0  0  0  0  0  0  0  0  0  0  0  0
    2.3836    1.4204   -0.0123 C   0  0  0  0  0  0  0  0  0  0  0  0
    2.4057    0.0274   -0.0200 C   0  0  0  0  0  0  0  0  0  0  0  0
    1.2163   -0.6798   -0.0130 C   0  0  0  0  0  0  0  0  0  0  0  0
    0.0021   -0.0041    0.0020 C   0  0  0  0  0  0  0  0  0  0  0  0
   -1.1531   -0.7156    0.0095 O   0  0  0  0  0  0  0  0  0  0  0  0
   -2.3042   -0.1287   -0.3576 C   0  0  0  0  0  0  0  0  0  0  0  0
   -2.4497    1.2176   -0.3712 C   0  0  0  0  0  0  0  0  0  0  0  0
   -3.7020    1.7839   -0.7734 C   0  0  0  0  0  0  0  0  0  0  0  0
   -4.6954    2.2332   -1.0924 N   0  0  0  0  0  0  0  0  0  0  0  0
   -3.3643   -0.9170   -0.7305 N   0  0  0  0  0  0  0  0  0  0  0  0
    3.7060   -0.3881   -0.0340 O   0  0  0  0  0  0  0  0  0  0  0  0
    4.4794    0.7542    0.3781 C   0  0  0  0  0  0  0  0  0  0  0  0
    3.6710    1.8768   -0.0213 O   0  0  0  0  0  0  0  0  0  0  0  0
   -2.0761    7.7313    2.2611 H   0  0  0  0  0  0  0  0  0  0  0  0
   -0.9724    6.5586    1.5030 H   0  0  0  0  0  0  0  0  0  0  0  0
   -2.7278    6.4273    1.2397 H   0  0  0  0  0  0  0  0  0  0  0  0
   -1.6294    4.7010    0.7931 H   0  0  0  0  0  0  0  0  0  0  0  0
   -1.5722    0.7195    2.3203 H   0  0  0  0  0  0  0  0  0  0  0  0
   -4.1278    4.9250    4.9713 H   0  0  0  0  0  0  0  0  0  0  0  0
   -4.0997    3.2624    5.6063 H   0  0  0  0  0  0  0  0  0  0  0  0
   -3.7362    5.5531    9.0927 H   0  0  0  0  0  0  0  0  0  0  0  0
    1.1547    3.1698    0.0074 H   0  0  0  0  0  0  0  0  0  0  0  0
    1.2317   -1.7597   -0.0196 H   0  0  0  0  0  0  0  0  0  0  0  0
   -3.2755   -1.8829   -0.7263 H   0  0  0  0  0  0  0  0  0  0  0  0
   -4.2022   -0.5081   -0.9982 H   0  0  0  0  0  0  0  0  0  0  0  0
    4.6224    0.7504    1.4586 H   0  0  0  0  0  0  0  0  0  0  0  0
    5.4402    0.7720   -0.1363 H   0  0  0  0  0  0  0  0  0  0  0  0
  1  2  1  0  0  0  0
  1 31  1  0  0  0  0
  1 32  1  0  0  0  0
  1 33  1  0  0  0  0
  2  3  1  0  0  0  0
  3  8  2  0  0  0  0
  3  4  1  0  0  0  0
  4  5  2  0  0  0  0
  4 34  1  0  0  0  0
  5  6  1  0  0  0  0
  5 14  1  0  0  0  0
  6  7  2  0  0  0  0
  6 35  1  0  0  0  0
  7  8  1  0  0  0  0
  7 13  1  0  0  0  0
  8  9  1  0  0  0  0
  9 10  1  0  0  0  0
 10 11  1  0  0  0  0
 10 36  1  0  0  0  0
 10 37  1  0  0  0  0
 11 12  3  0  0  0  0
 12 38  1  0  0  0  0
 14 15  1  0  0  0  0
 14 24  1  0  0  0  0
 14 16  1  0  0  0  0
 16 21  2  0  0  0  0
 16 17  1  0  0  0  0
 17 18  2  0  0  0  0
 17 39  1  0  0  0  0
 18 30  1  0  0  0  0
 18 19  1  0  0  0  0
 19 20  2  0  0  0  0
 19 28  1  0  0  0  0
 20 21  1  0  0  0  0
 20 40  1  0  0  0  0
 21 22  1  0  0  0  0
 22 23  1  0  0  0  0
 23 24  2  0  0  0  0
 23 27  1  0  0  0  0
 24 25  1  0  0  0  0
 25 26  3  0  0  0  0
 27 41  1  0  0  0  0
 27 42  1  0  0  0  0
 28 29  1  0  0  0  0
 29 30  1  0  0  0  0
 29 43  1  0  0  0  0
 29 44  1  0  0  0  0
M  END
$$$$
ZINC02128453
  -OEChem-08230709453D

 44 47  0     1  0  0  0  0  0999 V2000
   -1.6635    7.3143    6.1033 C   0  0  0  0  0  0  0  0  0  0  0  0
   -0.7340    8.0015    5.2631 O   0  0  0  0  0  0  0  0  0  0  0  0
   -0.8712    7.8300    3.9210 C   0  0  0  0  0  0  0  0  0  0  0  0
   -1.8823    7.0230    3.4238 C   0  0  0  0  0  0  0  0  0  0  0  0
   -2.0176    6.8453    2.0597 C   0  0  0  0  0  0  0  0  0  0  0  0
   -1.1530    7.4802    1.1875 C   0  0  0  0  0  0  0  0  0  0  0  0
   -0.1450    8.2916    1.6766 C   0  0  0  0  0  0  0  0  0  0  0  0
   -0.0007    8.4692    3.0442 C   0  0  0  0  0  0  0  0  0  0  0  0
    0.9900    9.2663    3.5273 O   0  0  0  0  0  0  0  0  0  0  0  0
    0.6790   10.6490    3.7102 C   0  0  0  0  0  0  0  0  0  0  0  0
    1.8606   11.3523    4.2357 C   0  0  0  0  0  0  0  0  0  0  0  0
    2.8029   11.9132    4.6549 C   0  0  0  0  0  0  0  0  0  0  0  0
    0.9393    9.0868    0.5786 Cl  0  0  0  0  0  0  0  0  0  0  0  0
   -3.1140    5.9624    1.5217 C   0  0  2  0  0  0  0  0  0  0  0  0
   -3.6916    5.5572    2.3525 H   0  0  0  0  0  0  0  0  0  0  0  0
   -2.5031    4.8278    0.7426 C   0  0  0  0  0  0  0  0  0  0  0  0
   -1.9266    3.7688    1.4226 C   0  0  0  0  0  0  0  0  0  0  0  0
   -1.3611    2.7161    0.7240 C   0  0  0  0  0  0  0  0  0  0  0  0
   -1.3717    2.7233   -0.6691 C   0  0  0  0  0  0  0  0  0  0  0  0
   -1.9474    3.7832   -1.3474 C   0  0  0  0  0  0  0  0  0  0  0  0
   -2.5146    4.8380   -0.6427 C   0  0  0  0  0  0  0  0  0  0  0  0
   -3.0739    5.8680   -1.3262 O   0  0  0  0  0  0  0  0  0  0  0  0
   -3.9476    6.6833   -0.7129 C   0  0  0  0  0  0  0  0  0  0  0  0
   -4.0174    6.7740    0.6365 C   0  0  0  0  0  0  0  0  0  0  0  0
   -4.9713    7.6606    1.2318 C   0  0  0  0  0  0  0  0  0  0  0  0
   -5.7281    8.3640    1.7040 N   0  0  0  0  0  0  0  0  0  0  0  0
   -4.7951    7.4468   -1.4765 N   0  0  0  0  0  0  0  0  0  0  0  0
   -0.7597    1.5878   -1.1158 O   0  0  0  0  0  0  0  0  0  0  0  0
   -0.0127    1.0858    0.0080 C   0  0  0  0  0  0  0  0  0  0  0  0
   -0.7381    1.5757    1.1513 O   0  0  0  0  0  0  0  0  0  0  0  0
   -1.4430    7.5368    7.1473 H   0  0  0  0  0  0  0  0  0  0  0  0
   -2.6764    7.6414    5.8682 H   0  0  0  0  0  0  0  0  0  0  0  0
   -1.5803    6.2406    5.9351 H   0  0  0  0  0  0  0  0  0  0  0  0
   -2.5622    6.5295    4.1026 H   0  0  0  0  0  0  0  0  0  0  0  0
   -1.2645    7.3421    0.1222 H   0  0  0  0  0  0  0  0  0  0  0  0
    0.3914   11.0863    2.7541 H   0  0  0  0  0  0  0  0  0  0  0  0
   -0.1454   10.7457    4.4167 H   0  0  0  0  0  0  0  0  0  0  0  0
    3.6457   12.4148    5.0297 H   0  0  0  0  0  0  0  0  0  0  0  0
   -1.9191    3.7633    2.5026 H   0  0  0  0  0  0  0  0  0  0  0  0
   -1.9563    3.7904   -2.4274 H   0  0  0  0  0  0  0  0  0  0  0  0
   -4.7574    7.3927   -2.4443 H   0  0  0  0  0  0  0  0  0  0  0  0
   -5.4316    8.0404   -1.0483 H   0  0  0  0  0  0  0  0  0  0  0  0
    0.0021   -0.0041    0.0020 H   0  0  0  0  0  0  0  0  0  0  0  0
    1.0029    1.4816    0.0004 H   0  0  0  0  0  0  0  0  0  0  0  0
  1  2  1  0  0  0  0
  1 31  1  0  0  0  0
  1 32  1  0  0  0  0
  1 33  1  0  0  0  0
  2  3  1  0  0  0  0
  3  8  2  0  0  0  0
  3  4  1  0  0  0  0
  4  5  2  0  0  0  0
  4 34  1  0  0  0  0
  5  6  1  0  0  0  0
  5 14  1  0  0  0  0
  6  7  2  0  0  0  0
  6 35  1  0  0  0  0
  7  8  1  0  0  0  0
  7 13  1  0  0  0  0
  8  9  1  0  0  0  0
  9 10  1  0  0  0  0
 10 11  1  0  0  0  0
 10 36  1  0  0  0  0
 10 37  1  0  0  0  0
 11 12  3  0  0  0  0
 12 38  1  0  0  0  0
 14 15  1  0  0  0  0
 14 24  1  0  0  0  0
 14 16  1  0  0  0  0
 16 21  2  0  0  0  0
 16 17  1  0  0  0  0
 17 18  2  0  0  0  0
 17 39  1  0  0  0  0
 18 30  1  0  0  0  0
 18 19  1  0  0  0  0
 19 20  2  0  0  0  0
 19 28  1  0  0  0  0
 20 21  1  0  0  0  0
 20 40  1  0  0  0  0
 21 22  1  0  0  0  0
 22 23  1  0  0  0  0
 23 24  2  0  0  0  0
 23 27  1  0  0  0  0
 24 25  1  0  0  0  0
 25 26  3  0  0  0  0
 27 41  1  0  0  0  0
 27 42  1  0  0  0  0
 28 29  1  0  0  0  0
 29 30  1  0  0  0  0
 29 43  1  0  0  0  0
 29 44  1  0  0  0  0
M  END
$$$$
ZINC02128707
  -OEChem-08230709453D

 44 47  0     1  0  0  0  0  0999 V2000
    7.9899    0.4557    1.8322 C   0  0  0  0  0  0  0  0  0  0  0  0
    7.3348    0.9776    2.9900 O   0  0  0  0  0  0  0  0  0  0  0  0
    6.1063    1.5314    2.8073 C   0  0  0  0  0  0  0  0  0  0  0  0
    5.5440    1.5714    1.5415 C   0  0  0  0  0  0  0  0  0  0  0  0
    4.2952    2.1352    1.3574 C   0  0  0  0  0  0  0  0  0  0  0  0
    3.6072    2.6650    2.4332 C   0  0  0  0  0  0  0  0  0  0  0  0
    4.1600    2.6232    3.6996 C   0  0  0  0  0  0  0  0  0  0  0  0
    5.4113    2.0596    3.8910 C   0  0  0  0  0  0  0  0  0  0  0  0
    5.9592    2.0230    5.1352 O   0  0  0  0  0  0  0  0  0  0  0  0
    5.1888    2.5838    6.2001 C   0  0  0  0  0  0  0  0  0  0  0  0
    5.9330    2.4570    7.4637 C   0  0  0  0  0  0  0  0  0  0  0  0
    6.5265    2.3559    8.4716 C   0  0  0  0  0  0  0  0  0  0  0  0
    3.6852    2.1778   -0.0199 C   0  0  1  0  0  0  0  0  0  0  0  0
    4.3690    1.7159   -0.7321 H   0  0  0  0  0  0  0  0  0  0  0  0
    2.3845    1.4190   -0.0131 C   0  0  0  0  0  0  0  0  0  0  0  0
    2.4050    0.0349   -0.0214 C   0  0  0  0  0  0  0  0  0  0  0  0
    1.2200   -0.6804   -0.0141 C   0  0  0  0  0  0  0  0  0  0  0  0
    0.0021   -0.0041    0.0020 C   0  0  0  0  0  0  0  0  0  0  0  0
   -0.0167    1.3796    0.0096 C   0  0  0  0  0  0  0  0  0  0  0  0
    1.1751    2.0943    0.0021 C   0  0  0  0  0  0  0  0  0  0  0  0
    1.1357    3.4506    0.0091 O   0  0  0  0  0  0  0  0  0  0  0  0
    2.2116    4.1544   -0.3798 C   0  0  0  0  0  0  0  0  0  0  0  0
    3.4503    3.6083   -0.4162 C   0  0  0  0  0  0  0  0  0  0  0  0
    4.5585    4.4100   -0.8402 C   0  0  0  0  0  0  0  0  0  0  0  0
    5.4376    5.0460   -1.1766 N   0  0  0  0  0  0  0  0  0  0  0  0
    2.0507    5.4659   -0.7518 N   0  0  0  0  0  0  0  0  0  0  0  0
   -1.0071   -0.9233    0.0074 O   0  0  0  0  0  0  0  0  0  0  0  0
   -0.3955   -2.1641    0.4067 C   0  0  0  0  0  0  0  0  0  0  0  0
    0.9727   -2.0237   -0.0193 O   0  0  0  0  0  0  0  0  0  0  0  0
    7.3769   -0.3305    1.3913 H   0  0  0  0  0  0  0  0  0  0  0  0
    8.1341    1.2548    1.1051 H   0  0  0  0  0  0  0  0  0  0  0  0
    8.9584    0.0445    2.1170 H   0  0  0  0  0  0  0  0  0  0  0  0
    6.0811    1.1619    0.6988 H   0  0  0  0  0  0  0  0  0  0  0  0
    2.6339    3.1088    2.2846 H   0  0  0  0  0  0  0  0  0  0  0  0
    3.6186    3.0337    4.5391 H   0  0  0  0  0  0  0  0  0  0  0  0
    4.9980    3.6372    5.9949 H   0  0  0  0  0  0  0  0  0  0  0  0
    4.2408    2.0521    6.2818 H   0  0  0  0  0  0  0  0  0  0  0  0
    7.0574    2.2655    9.3730 H   0  0  0  0  0  0  0  0  0  0  0  0
    3.3493   -0.4890   -0.0341 H   0  0  0  0  0  0  0  0  0  0  0  0
   -0.9600    1.9054    0.0169 H   0  0  0  0  0  0  0  0  0  0  0  0
    2.8180    5.9872   -1.0354 H   0  0  0  0  0  0  0  0  0  0  0  0
    1.1697    5.8713   -0.7312 H   0  0  0  0  0  0  0  0  0  0  0  0
   -0.4491   -2.2868    1.4885 H   0  0  0  0  0  0  0  0  0  0  0  0
   -0.8715   -3.0053   -0.0971 H   0  0  0  0  0  0  0  0  0  0  0  0
  1  2  1  0  0  0  0
  1 30  1  0  0  0  0
  1 31  1  0  0  0  0
  1 32  1  0  0  0  0
  2  3  1  0  0  0  0
  3  8  2  0  0  0  0
  3  4  1  0  0  0  0
  4  5  2  0  0  0  0
  4 33  1  0  0  0  0
  5  6  1  0  0  0  0
  5 13  1  0  0  0  0
  6  7  2  0  0  0  0
  6 34  1  0  0  0  0
  7  8  1  0  0  0  0
  7 35  1  0  0  0  0
  8  9  1  0  0  0  0
  9 10  1  0  0  0  0
 10 11  1  0  0  0  0
 10 36  1  0  0  0  0
 10 37  1  0  0  0  0
 11 12  3  0  0  0  0
 12 38  1  0  0  0  0
 13 14  1  0  0  0  0
 13 23  1  0  0  0  0
 13 15  1  0  0  0  0
 15 20  2  0  0  0  0
 15 16  1  0  0  0  0
 16 17  2  0  0  0  0
 16 39  1  0  0  0  0
 17 29  1  0  0  0  0
 17 18  1  0  0  0  0
 18 19  2  0  0  0  0
 18 27  1  0  0  0  0
 19 20  1  0  0  0  0
 19 40  1  0  0  0  0
 20 21  1  0  0  0  0
 21 22  1  0  0  0  0
 22 23  2  0  0  0  0
 22 26  1  0  0  0  0
 23 24  1  0  0  0  0
 24 25  3  0  0  0  0
 26 41  1  0  0  0  0
 26 42  1  0  0  0  0
 27 28  1  0  0  0  0
 28 29  1  0  0  0  0
 28 43  1  0  0  0  0
 28 44  1  0  0  0  0
M  END
$$$$
ZINC02128710
  -OEChem-08230709453D

 44 47  0     1  0  0  0  0  0999 V2000
    3.4517    3.5386   -0.0109 C   0  0  0  0  0  0  0  0  0  0  0  0
    3.5476    2.1129   -0.0199 O   0  0  0  0  0  0  0  0  0  0  0  0
    2.3801    1.4155   -0.0130 C   0  0  0  0  0  0  0  0  0  0  0  0
    1.1692    2.0888    0.0021 C   0  0  0  0  0  0  0  0  0  0  0  0
   -0.0167    1.3783    0.0096 C   0  0  0  0  0  0  0  0  0  0  0  0
    0.0021   -0.0041    0.0020 C   0  0  0  0  0  0  0  0  0  0  0  0
    1.2068   -0.6820   -0.0136 C   0  0  0  0  0  0  0  0  0  0  0  0
    2.3990    0.0241   -0.0211 C   0  0  0  0  0  0  0  0  0  0  0  0
    3.5850   -0.6413   -0.0369 O   0  0  0  0  0  0  0  0  0  0  0  0
    3.5277   -2.0691   -0.0449 C   0  0  0  0  0  0  0  0  0  0  0  0
    4.8947   -2.6149   -0.0618 C   0  0  0  0  0  0  0  0  0  0  0  0
    5.9849   -3.0502   -0.0752 C   0  0  0  0  0  0  0  0  0  0  0  0
   -1.3328    2.1123    0.0198 C   0  0  2  0  0  0  0  0  0  0  0  0
   -1.1471    3.1863    0.0304 H   0  0  0  0  0  0  0  0  0  0  0  0
   -2.1086    1.7281    1.2519 C   0  0  0  0  0  0  0  0  0  0  0  0
   -1.7511    2.2670    2.4759 C   0  0  0  0  0  0  0  0  0  0  0  0
   -2.4522    1.9262    3.6196 C   0  0  0  0  0  0  0  0  0  0  0  0
   -3.5216    1.0370    3.5382 C   0  0  0  0  0  0  0  0  0  0  0  0
   -3.8775    0.4988    2.3140 C   0  0  0  0  0  0  0  0  0  0  0  0
   -3.1713    0.8434    1.1678 C   0  0  0  0  0  0  0  0  0  0  0  0
   -3.5353    0.3046   -0.0229 O   0  0  0  0  0  0  0  0  0  0  0  0
   -3.1487    0.8887   -1.1690 C   0  0  0  0  0  0  0  0  0  0  0  0
   -2.1105    1.7570   -1.2160 C   0  0  0  0  0  0  0  0  0  0  0  0
   -1.7467    2.3486   -2.4683 C   0  0  0  0  0  0  0  0  0  0  0  0
   -1.4581    2.8180   -3.4617 N   0  0  0  0  0  0  0  0  0  0  0  0
   -3.8256    0.5965   -2.3269 N   0  0  0  0  0  0  0  0  0  0  0  0
   -4.0421    0.8652    4.7885 O   0  0  0  0  0  0  0  0  0  0  0  0
   -3.5435    1.9684    5.5678 C   0  0  0  0  0  0  0  0  0  0  0  0
   -2.3032    2.3109    4.9217 O   0  0  0  0  0  0  0  0  0  0  0  0
    4.4526    3.9702   -0.0178 H   0  0  0  0  0  0  0  0  0  0  0  0
    2.9063    3.8717   -0.8940 H   0  0  0  0  0  0  0  0  0  0  0  0
    2.9229    3.8615    0.8859 H   0  0  0  0  0  0  0  0  0  0  0  0
    1.1518    3.1686    0.0081 H   0  0  0  0  0  0  0  0  0  0  0  0
   -0.9265   -0.5556    0.0079 H   0  0  0  0  0  0  0  0  0  0  0  0
    1.2186   -1.7619   -0.0202 H   0  0  0  0  0  0  0  0  0  0  0  0
    3.0086   -2.4170    0.8481 H   0  0  0  0  0  0  0  0  0  0  0  0
    2.9909   -2.4062   -0.9317 H   0  0  0  0  0  0  0  0  0  0  0  0
    6.9600   -3.4395   -0.0873 H   0  0  0  0  0  0  0  0  0  0  0  0
   -0.9222    2.9564    2.5385 H   0  0  0  0  0  0  0  0  0  0  0  0
   -4.7064   -0.1904    2.2491 H   0  0  0  0  0  0  0  0  0  0  0  0
   -4.5712   -0.0237   -2.3095 H   0  0  0  0  0  0  0  0  0  0  0  0
   -3.5583    1.0103   -3.1625 H   0  0  0  0  0  0  0  0  0  0  0  0
   -4.2383    2.8074    5.5322 H   0  0  0  0  0  0  0  0  0  0  0  0
   -3.3661    1.6601    6.5982 H   0  0  0  0  0  0  0  0  0  0  0  0
  1  2  1  0  0  0  0
  1 30  1  0  0  0  0
  1 31  1  0  0  0  0
  1 32  1  0  0  0  0
  2  3  1  0  0  0  0
  3  8  2  0  0  0  0
  3  4  1  0  0  0  0
  4  5  2  0  0  0  0
  4 33  1  0  0  0  0
  5  6  1  0  0  0  0
  5 13  1  0  0  0  0
  6  7  2  0  0  0  0
  6 34  1  0  0  0  0
  7  8  1  0  0  0  0
  7 35  1  0  0  0  0
  8  9  1  0  0  0  0
  9 10  1  0  0  0  0
 10 11  1  0  0  0  0
 10 36  1  0  0  0  0
 10 37  1  0  0  0  0
 11 12  3  0  0  0  0
 12 38  1  0  0  0  0
 13 14  1  0  0  0  0
 13 23  1  0  0  0  0
 13 15  1  0  0  0  0
 15 20  2  0  0  0  0
 15 16  1  0  0  0  0
 16 17  2  0  0  0  0
 16 39  1  0  0  0  0
 17 29  1  0  0  0  0
 17 18  1  0  0  0  0
 18 19  2  0  0  0  0
 18 27  1  0  0  0  0
 19 20  1  0  0  0  0
 19 40  1  0  0  0  0
 20 21  1  0  0  0  0
 21 22  1  0  0  0  0
 22 23  2  0  0  0  0
 22 26  1  0  0  0  0
 23 24  1  0  0  0  0
 24 25  3  0  0  0  0
 26 41  1  0  0  0  0
 26 42  1  0  0  0  0
 27 28  1  0  0  0  0
 28 29  1  0  0  0  0
 28 43  1  0  0  0  0
 28 44  1  0  0  0  0
M  END
$$$$
ZINC02137081
  -OEChem-08230709453D

 46 46  0     0  0  0  0  0  0999 V2000
   -6.5199    3.6945    9.1491 C   0  0  0  0  0  0  0  0  0  0  0  0
   -5.0684    3.5146    9.5982 C   0  0  0  0  0  0  0  0  0  0  0  0
   -5.0178    2.5522   10.7865 C   0  0  0  0  0  0  0  0  0  0  0  0
   -4.2566    2.9511    8.4605 C   0  0  0  0  0  0  0  0  0  0  0  0
   -3.6933    1.8850    8.5875 O   0  0  0  0  0  0  0  0  0  0  0  0
   -4.1569    3.6321    7.3017 N   0  0  0  0  0  0  0  0  0  0  0  0
   -3.4309    3.1281    6.2842 C   0  0  0  0  0  0  0  0  0  0  0  0
   -2.6354    1.6228    6.4635 S   0  0  0  0  0  0  0  0  0  0  0  0
   -3.3312    3.8092    5.1254 N   0  0  0  0  0  0  0  0  0  0  0  0
   -2.6763    3.2350    4.0309 C   0  0  0  0  0  0  0  0  0  0  0  0
   -2.8862    1.8985    3.7171 C   0  0  0  0  0  0  0  0  0  0  0  0
   -2.2384    1.3347    2.6354 C   0  0  0  0  0  0  0  0  0  0  0  0
   -1.3817    2.0995    1.8652 C   0  0  0  0  0  0  0  0  0  0  0  0
   -1.1665    3.4292    2.1781 C   0  0  0  0  0  0  0  0  0  0  0  0
   -1.8152    4.0004    3.2553 C   0  0  0  0  0  0  0  0  0  0  0  0
   -0.5568    1.3762    0.4864 S   0  0  0  0  0  0  0  0  0  0  0  0
   -0.0815    0.1082    0.9169 O   0  0  0  0  0  0  0  0  0  0  0  0
    0.3064    2.3748   -0.0400 O   0  0  0  0  0  0  0  0  0  0  0  0
   -1.7036    1.0835   -0.6718 N   0  0  0  0  0  0  0  0  0  0  0  0
   -2.3448    2.2023   -1.3671 C   0  0  0  0  0  0  0  0  0  0  0  0
   -1.3088    2.9300   -2.2262 C   0  0  0  0  0  0  0  0  0  0  0  0
   -3.4668    1.6712   -2.2616 C   0  0  0  0  0  0  0  0  0  0  0  0
   -2.9285    3.1741   -0.3395 C   0  0  0  0  0  0  0  0  0  0  0  0
   -6.9308    2.7293    8.8527 H   0  0  0  0  0  0  0  0  0  0  0  0
   -7.1070    4.1021    9.9720 H   0  0  0  0  0  0  0  0  0  0  0  0
   -6.5560    4.3801    8.3025 H   0  0  0  0  0  0  0  0  0  0  0  0
   -4.6576    4.4798    9.8946 H   0  0  0  0  0  0  0  0  0  0  0  0
   -3.9837    2.4241   11.1065 H   0  0  0  0  0  0  0  0  0  0  0  0
   -5.6049    2.9598   11.6095 H   0  0  0  0  0  0  0  0  0  0  0  0
   -5.4286    1.5871   10.4902 H   0  0  0  0  0  0  0  0  0  0  0  0
   -4.6076    4.4850    7.2001 H   0  0  0  0  0  0  0  0  0  0  0  0
   -3.7135    4.6975    5.0505 H   0  0  0  0  0  0  0  0  0  0  0  0
   -3.5555    1.3007    4.3181 H   0  0  0  0  0  0  0  0  0  0  0  0
   -2.4015    0.2955    2.3907 H   0  0  0  0  0  0  0  0  0  0  0  0
   -0.4936    4.0227    1.5770 H   0  0  0  0  0  0  0  0  0  0  0  0
   -1.6502    5.0401    3.4964 H   0  0  0  0  0  0  0  0  0  0  0  0
   -1.9508    0.1712   -0.8899 H   0  0  0  0  0  0  0  0  0  0  0  0
   -0.7996    2.2111   -2.8681 H   0  0  0  0  0  0  0  0  0  0  0  0
   -1.8084    3.6774   -2.8426 H   0  0  0  0  0  0  0  0  0  0  0  0
   -0.5805    3.4199   -1.5800 H   0  0  0  0  0  0  0  0  0  0  0  0
   -4.2048    1.1528   -1.6495 H   0  0  0  0  0  0  0  0  0  0  0  0
   -3.9439    2.5036   -2.7788 H   0  0  0  0  0  0  0  0  0  0  0  0
   -3.0509    0.9789   -2.9936 H   0  0  0  0  0  0  0  0  0  0  0  0
   -2.1197    3.7273    0.1378 H   0  0  0  0  0  0  0  0  0  0  0  0
   -3.6001    3.8718   -0.8399 H   0  0  0  0  0  0  0  0  0  0  0  0
   -3.4817    2.6155    0.4155 H   0  0  0  0  0  0  0  0  0  0  0  0
  1  2  1  0  0  0  0
  1 24  1  0  0  0  0
  1 25  1  0  0  0  0
  1 26  1  0  0  0  0
  2  3  1  0  0  0  0
  2  4  1  0  0  0  0
  2 27  1  0  0  0  0
  3 28  1  0  0  0  0
  3 29  1  0  0  0  0
  3 30  1  0  0  0  0
  4  5  2  0  0  0  0
  4  6  1  0  0  0  0
  6  7  1  0  0  0  0
  6 31  1  0  0  0  0
  7  8  2  0  0  0  0
  7  9  1  0  0  0  0
  9 10  1  0  0  0  0
  9 32  1  0  0  0  0
 10 15  2  0  0  0  0
 10 11  1  0  0  0  0
 11 12  2  0  0  0  0
 11 33  1  0  0  0  0
 12 13  1  0  0  0  0
 12 34  1  0  0  0  0
 13 14  2  0  0  0  0
 13 16  1  0  0  0  0
 14 15  1  0  0  0  0
 14 35  1  0  0  0  0
 15 36  1  0  0  0  0
 16 17  2  0  0  0  0
 16 18  2  0  0  0  0
 16 19  1  0  0  0  0
 19 20  1  0  0  0  0
 19 37  1  0  0  0  0
 20 21  1  0  0  0  0
 20 22  1  0  0  0  0
 20 23  1  0  0  0  0
 21 38  1  0  0  0  0
 21 39  1  0  0  0  0
 21 40  1  0  0  0  0
 22 41  1  0  0  0  0
 22 42  1  0  0  0  0
 22 43  1  0  0  0  0
 23 44  1  0  0  0  0
 23 45  1  0  0  0  0
 23 46  1  0  0  0  0
M  END
$$$$
ZINC02163665
  -OEChem-08230709453D

 41 43  0     1  0  0  0  0  0999 V2000
   -2.5185    1.9562    0.0476 C   0  0  0  0  0  0  0  0  0  0  0  0
   -1.0626    2.3450    0.0304 C   0  0  0  0  0  0  0  0  0  0  0  0
   -0.0184    1.5032    0.0103 C   0  0  0  0  0  0  0  0  0  0  0  0
    1.1657    2.2728    0.0031 C   0  0  0  0  0  0  0  0  0  0  0  0
    0.8289    3.5298    0.0154 N   0  0  0  0  0  0  0  0  0  0  0  0
   -0.5728    3.6064    0.0294 N   0  0  0  0  0  0  0  0  0  0  0  0
   -1.1148    4.4467    0.0373 H   0  0  0  0  0  0  0  0  0  0  0  0
    2.3987    1.6990   -0.0149 O   0  0  0  0  0  0  0  0  0  0  0  0
    2.4667    0.3829   -0.2977 C   0  0  0  0  0  0  0  0  0  0  0  0
    1.4074   -0.4530   -0.3094 C   0  0  0  0  0  0  0  0  0  0  0  0
    0.0021   -0.0041    0.0020 C   0  0  1  0  0  0  0  0  0  0  0  0
   -0.6810   -0.3771   -0.7611 H   0  0  0  0  0  0  0  0  0  0  0  0
   -0.4118   -0.5259    1.3539 C   0  0  0  0  0  0  0  0  0  0  0  0
   -1.5246   -1.3385    1.4684 C   0  0  0  0  0  0  0  0  0  0  0  0
   -1.9069   -1.8194    2.7103 C   0  0  0  0  0  0  0  0  0  0  0  0
   -1.1689   -1.4828    3.8409 C   0  0  0  0  0  0  0  0  0  0  0  0
   -0.0542   -0.6677    3.7197 C   0  0  0  0  0  0  0  0  0  0  0  0
    0.3251   -0.1956    2.4755 C   0  0  0  0  0  0  0  0  0  0  0  0
    0.8695   -0.2450    5.1275 Cl  0  0  0  0  0  0  0  0  0  0  0  0
   -1.5407   -1.9521    5.0623 O   0  0  0  0  0  0  0  0  0  0  0  0
   -0.9859   -3.2034    5.4728 C   0  0  0  0  0  0  0  0  0  0  0  0
   -1.4957   -3.5513    6.8092 C   0  0  0  0  0  0  0  0  0  0  0  0
   -1.9022   -3.8287    7.8751 C   0  0  0  0  0  0  0  0  0  0  0  0
   -3.0015   -2.6184    2.8241 O   0  0  0  0  0  0  0  0  0  0  0  0
   -3.7110   -2.9220    1.6214 C   0  0  0  0  0  0  0  0  0  0  0  0
    1.6283   -1.8303   -0.6331 C   0  0  0  0  0  0  0  0  0  0  0  0
    1.8034   -2.9230   -0.8899 N   0  0  0  0  0  0  0  0  0  0  0  0
    3.6991   -0.1437   -0.5941 N   0  0  0  0  0  0  0  0  0  0  0  0
   -2.8555    1.8554    1.0793 H   0  0  0  0  0  0  0  0  0  0  0  0
   -3.1061    2.7258   -0.4529 H   0  0  0  0  0  0  0  0  0  0  0  0
   -2.6470    1.0062   -0.4710 H   0  0  0  0  0  0  0  0  0  0  0  0
   -2.0962   -1.5983    0.5896 H   0  0  0  0  0  0  0  0  0  0  0  0
    1.1963    0.4358    2.3813 H   0  0  0  0  0  0  0  0  0  0  0  0
   -1.2719   -3.9784    4.7618 H   0  0  0  0  0  0  0  0  0  0  0  0
    0.1007   -3.1252    5.5075 H   0  0  0  0  0  0  0  0  0  0  0  0
   -2.2658   -4.0769    8.8283 H   0  0  0  0  0  0  0  0  0  0  0  0
   -4.0689   -1.9978    1.1676 H   0  0  0  0  0  0  0  0  0  0  0  0
   -3.0455   -3.4341    0.9265 H   0  0  0  0  0  0  0  0  0  0  0  0
   -4.5597   -3.5655    1.8529 H   0  0  0  0  0  0  0  0  0  0  0  0
    3.7860   -1.0871   -0.8024 H   0  0  0  0  0  0  0  0  0  0  0  0
    4.4831    0.4275   -0.5953 H   0  0  0  0  0  0  0  0  0  0  0  0
  1  2  1  0  0  0  0
  1 29  1  0  0  0  0
  1 30  1  0  0  0  0
  1 31  1  0  0  0  0
  2  6  1  0  0  0  0
  2  3  2  0  0  0  0
  3 11  1  0  0  0  0
  3  4  1  0  0  0  0
  4  5  2  0  0  0  0
  4  8  1  0  0  0  0
  5  6  1  0  0  0  0
  6  7  1  0  0  0  0
  8  9  1  0  0  0  0
  9 10  2  0  0  0  0
  9 28  1  0  0  0  0
 10 11  1  0  0  0  0
 10 26  1  0  0  0  0
 11 12  1  0  0  0  0
 11 13  1  0  0  0  0
 13 18  2  0  0  0  0
 13 14  1  0  0  0  0
 14 15  2  0  0  0  0
 14 32  1  0  0  0  0
 15 16  1  0  0  0  0
 15 24  1  0  0  0  0
 16 17  2  0  0  0  0
 16 20  1  0  0  0  0
 17 18  1  0  0  0  0
 17 19  1  0  0  0  0
 18 33  1  0  0  0  0
 20 21  1  0  0  0  0
 21 22  1  0  0  0  0
 21 34  1  0  0  0  0
 21 35  1  0  0  0  0
 22 23  3  0  0  0  0
 23 36  1  0  0  0  0
 24 25  1  0  0  0  0
 25 37  1  0  0  0  0
 25 38  1  0  0  0  0
 25 39  1  0  0  0  0
 26 27  3  0  0  0  0
 28 40  1  0  0  0  0
 28 41  1  0  0  0  0
M  END
$$$$
ZINC02163665
  -OEChem-08230709453D

 41 43  0     1  0  0  0  0  0999 V2000
   -2.5186    1.9563    0.0400 C   0  0  0  0  0  0  0  0  0  0  0  0
   -1.0627    2.3450    0.0248 C   0  0  0  0  0  0  0  0  0  0  0  0
   -0.0184    1.5032    0.0133 C   0  0  0  0  0  0  0  0  0  0  0  0
    1.1657    2.2728    0.0081 C   0  0  0  0  0  0  0  0  0  0  0  0
    0.8288    3.5298    0.0100 N   0  0  0  0  0  0  0  0  0  0  0  0
   -0.5729    3.6064    0.0204 N   0  0  0  0  0  0  0  0  0  0  0  0
    1.4590    4.3063    0.0049 H   0  0  0  0  0  0  0  0  0  0  0  0
    2.3988    1.6990   -0.0067 O   0  0  0  0  0  0  0  0  0  0  0  0
    2.4674    0.3827   -0.2883 C   0  0  0  0  0  0  0  0  0  0  0  0
    1.4081   -0.4533   -0.3016 C   0  0  0  0  0  0  0  0  0  0  0  0
    0.0022   -0.0041    0.0064 C   0  0  1  0  0  0  0  0  0  0  0  0
   -0.6793   -0.3778   -0.7579 H   0  0  0  0  0  0  0  0  0  0  0  0
   -0.4147   -0.5248    1.3578 C   0  0  0  0  0  0  0  0  0  0  0  0
   -1.5278   -1.3373    1.4705 C   0  0  0  0  0  0  0  0  0  0  0  0
   -1.9128   -1.8171    2.7120 C   0  0  0  0  0  0  0  0  0  0  0  0
   -1.1773   -1.4795    3.8439 C   0  0  0  0  0  0  0  0  0  0  0  0
   -0.0623   -0.6645    3.7245 C   0  0  0  0  0  0  0  0  0  0  0  0
    0.3197   -0.1935    2.4807 C   0  0  0  0  0  0  0  0  0  0  0  0
    0.8583   -0.2406    5.1340 Cl  0  0  0  0  0  0  0  0  0  0  0  0
   -1.5518   -1.9478    5.0649 O   0  0  0  0  0  0  0  0  0  0  0  0
   -0.9979   -3.1987    5.4777 C   0  0  0  0  0  0  0  0  0  0  0  0
   -1.5106   -3.5455    6.8133 C   0  0  0  0  0  0  0  0  0  0  0  0
   -1.9194   -3.8220    7.8785 C   0  0  0  0  0  0  0  0  0  0  0  0
   -3.0076   -2.6160    2.8241 O   0  0  0  0  0  0  0  0  0  0  0  0
   -3.7145   -2.9207    1.6201 C   0  0  0  0  0  0  0  0  0  0  0  0
    1.6298   -1.8308   -0.6236 C   0  0  0  0  0  0  0  0  0  0  0  0
    1.8054   -2.9238   -0.8791 N   0  0  0  0  0  0  0  0  0  0  0  0
    3.7005   -0.1442   -0.5815 N   0  0  0  0  0  0  0  0  0  0  0  0
   -2.8580    1.8592    1.0712 H   0  0  0  0  0  0  0  0  0  0  0  0
   -3.1050    2.7240   -0.4647 H   0  0  0  0  0  0  0  0  0  0  0  0
   -2.6458    1.0044   -0.4754 H   0  0  0  0  0  0  0  0  0  0  0  0
   -2.0974   -1.5978    0.5907 H   0  0  0  0  0  0  0  0  0  0  0  0
    1.1911    0.4378    2.3879 H   0  0  0  0  0  0  0  0  0  0  0  0
   -1.2823   -3.9743    4.7667 H   0  0  0  0  0  0  0  0  0  0  0  0
    0.0887   -3.1205    5.5147 H   0  0  0  0  0  0  0  0  0  0  0  0
   -2.2851   -4.0694    8.8311 H   0  0  0  0  0  0  0  0  0  0  0  0
   -4.0714   -1.9968    1.1647 H   0  0  0  0  0  0  0  0  0  0  0  0
   -3.0474   -3.4333    0.9271 H   0  0  0  0  0  0  0  0  0  0  0  0
   -4.5637   -3.5640    1.8502 H   0  0  0  0  0  0  0  0  0  0  0  0
    3.7878   -1.0878   -0.7888 H   0  0  0  0  0  0  0  0  0  0  0  0
    4.4845    0.4270   -0.5814 H   0  0  0  0  0  0  0  0  0  0  0  0
  1  2  1  0  0  0  0
  1 29  1  0  0  0  0
  1 30  1  0  0  0  0
  1 31  1  0  0  0  0
  2  3  1  0  0  0  0
  2  6  2  0  0  0  0
  3 11  1  0  0  0  0
  3  4  2  0  0  0  0
  4  8  1  0  0  0  0
  4  5  1  0  0  0  0
  5  7  1  0  0  0  0
  5  6  1  0  0  0  0
  8  9  1  0  0  0  0
  9 10  2  0  0  0  0
  9 28  1  0  0  0  0
 10 11  1  0  0  0  0
 10 26  1  0  0  0  0
 11 12  1  0  0  0  0
 11 13  1  0  0  0  0
 13 18  2  0  0  0  0
 13 14  1  0  0  0  0
 14 15  2  0  0  0  0
 14 32  1  0  0  0  0
 15 16  1  0  0  0  0
 15 24  1  0  0  0  0
 16 17  2  0  0  0  0
 16 20  1  0  0  0  0
 17 18  1  0  0  0  0
 17 19  1  0  0  0  0
 18 33  1  0  0  0  0
 20 21  1  0  0  0  0
 21 22  1  0  0  0  0
 21 34  1  0  0  0  0
 21 35  1  0  0  0  0
 22 23  3  0  0  0  0
 23 36  1  0  0  0  0
 24 25  1  0  0  0  0
 25 37  1  0  0  0  0
 25 38  1  0  0  0  0
 25 39  1  0  0  0  0
 26 27  3  0  0  0  0
 28 40  1  0  0  0  0
 28 41  1  0  0  0  0
M  END
$$$$
ZINC02163668
  -OEChem-08230709453D

 41 43  0     1  0  0  0  0  0999 V2000
   -2.9532    1.8015    3.0726 C   0  0  0  0  0  0  0  0  0  0  0  0
   -2.7546    0.4116    2.5251 C   0  0  0  0  0  0  0  0  0  0  0  0
   -2.5714    0.0868    1.2364 C   0  0  0  0  0  0  0  0  0  0  0  0
   -2.4272   -1.3156    1.1535 C   0  0  0  0  0  0  0  0  0  0  0  0
   -2.5211   -1.8017    2.3571 N   0  0  0  0  0  0  0  0  0  0  0  0
   -2.7284   -0.7340    3.2446 N   0  0  0  0  0  0  0  0  0  0  0  0
   -2.8377   -0.8073    4.2359 H   0  0  0  0  0  0  0  0  0  0  0  0
   -2.2296   -1.9513   -0.0325 O   0  0  0  0  0  0  0  0  0  0  0  0
   -2.4421   -1.2430   -1.1593 C   0  0  0  0  0  0  0  0  0  0  0  0
   -2.5834    0.0990   -1.2057 C   0  0  0  0  0  0  0  0  0  0  0  0
   -2.5124    0.9747    0.0197 C   0  0  2  0  0  0  0  0  0  0  0  0
   -3.3552    1.6659    0.0274 H   0  0  0  0  0  0  0  0  0  0  0  0
   -1.2196    1.7491    0.0173 C   0  0  0  0  0  0  0  0  0  0  0  0
   -1.2436    3.1316    0.0298 C   0  0  0  0  0  0  0  0  0  0  0  0
   -0.0562    3.8456    0.0223 C   0  0  0  0  0  0  0  0  0  0  0  0
    1.1594    3.1687    0.0075 C   0  0  0  0  0  0  0  0  0  0  0  0
    1.1771    1.7826    0.0004 C   0  0  0  0  0  0  0  0  0  0  0  0
   -0.0126    1.0758    0.0080 C   0  0  0  0  0  0  0  0  0  0  0  0
    2.6913    0.9336   -0.0175 Cl  0  0  0  0  0  0  0  0  0  0  0  0
    2.3276    3.8654   -0.0003 O   0  0  0  0  0  0  0  0  0  0  0  0
    2.8723    4.2041   -1.2772 C   0  0  0  0  0  0  0  0  0  0  0  0
    4.1275    4.9506   -1.0928 C   0  0  0  0  0  0  0  0  0  0  0  0
    5.1286    5.5460   -0.9457 C   0  0  0  0  0  0  0  0  0  0  0  0
   -0.0788    5.2054    0.0298 O   0  0  0  0  0  0  0  0  0  0  0  0
   -1.3626    5.8328    0.0450 C   0  0  0  0  0  0  0  0  0  0  0  0
   -2.8108    0.7196   -2.4760 C   0  0  0  0  0  0  0  0  0  0  0  0
   -2.9913    1.2119   -3.4838 N   0  0  0  0  0  0  0  0  0  0  0  0
   -2.5208   -1.9341   -2.3427 N   0  0  0  0  0  0  0  0  0  0  0  0
   -4.0170    2.0386    3.0848 H   0  0  0  0  0  0  0  0  0  0  0  0
   -2.5579    1.8524    4.0871 H   0  0  0  0  0  0  0  0  0  0  0  0
   -2.4283    2.5190    2.4418 H   0  0  0  0  0  0  0  0  0  0  0  0
   -2.1882    3.6550    0.0413 H   0  0  0  0  0  0  0  0  0  0  0  0
    0.0021   -0.0041    0.0020 H   0  0  0  0  0  0  0  0  0  0  0  0
    3.0712    3.2925   -1.8408 H   0  0  0  0  0  0  0  0  0  0  0  0
    2.1596    4.8212   -1.8242 H   0  0  0  0  0  0  0  0  0  0  0  0
    6.0240    6.0784   -0.8142 H   0  0  0  0  0  0  0  0  0  0  0  0
   -1.2377    6.9157    0.0497 H   0  0  0  0  0  0  0  0  0  0  0  0
   -1.9228    5.5355   -0.8415 H   0  0  0  0  0  0  0  0  0  0  0  0
   -1.9065    5.5260    0.9383 H   0  0  0  0  0  0  0  0  0  0  0  0
   -2.4243   -2.8993   -2.3480 H   0  0  0  0  0  0  0  0  0  0  0  0
   -2.6729   -1.4574   -3.1736 H   0  0  0  0  0  0  0  0  0  0  0  0
  1  2  1  0  0  0  0
  1 29  1  0  0  0  0
  1 30  1  0  0  0  0
  1 31  1  0  0  0  0
  2  6  1  0  0  0  0
  2  3  2  0  0  0  0
  3 11  1  0  0  0  0
  3  4  1  0  0  0  0
  4  5  2  0  0  0  0
  4  8  1  0  0  0  0
  5  6  1  0  0  0  0
  6  7  1  0  0  0  0
  8  9  1  0  0  0  0
  9 10  2  0  0  0  0
  9 28  1  0  0  0  0
 10 11  1  0  0  0  0
 10 26  1  0  0  0  0
 11 12  1  0  0  0  0
 11 13  1  0  0  0  0
 13 18  2  0  0  0  0
 13 14  1  0  0  0  0
 14 15  2  0  0  0  0
 14 32  1  0  0  0  0
 15 16  1  0  0  0  0
 15 24  1  0  0  0  0
 16 17  2  0  0  0  0
 16 20  1  0  0  0  0
 17 18  1  0  0  0  0
 17 19  1  0  0  0  0
 18 33  1  0  0  0  0
 20 21  1  0  0  0  0
 21 22  1  0  0  0  0
 21 34  1  0  0  0  0
 21 35  1  0  0  0  0
 22 23  3  0  0  0  0
 23 36  1  0  0  0  0
 24 25  1  0  0  0  0
 25 37  1  0  0  0  0
 25 38  1  0  0  0  0
 25 39  1  0  0  0  0
 26 27  3  0  0  0  0
 28 40  1  0  0  0  0
 28 41  1  0  0  0  0
M  END
$$$$
ZINC02163668
  -OEChem-08230709453D

 41 43  0     1  0  0  0  0  0999 V2000
   -2.9539    1.8014    3.0725 C   0  0  0  0  0  0  0  0  0  0  0  0
   -2.7551    0.4116    2.5250 C   0  0  0  0  0  0  0  0  0  0  0  0
   -2.5719    0.0868    1.2363 C   0  0  0  0  0  0  0  0  0  0  0  0
   -2.4280   -1.3157    1.1534 C   0  0  0  0  0  0  0  0  0  0  0  0
   -2.5216   -1.8017    2.3570 N   0  0  0  0  0  0  0  0  0  0  0  0
   -2.7292   -0.7341    3.2445 N   0  0  0  0  0  0  0  0  0  0  0  0
   -2.4569   -2.7680    2.6064 H   0  0  0  0  0  0  0  0  0  0  0  0
   -2.2309   -1.9514   -0.0326 O   0  0  0  0  0  0  0  0  0  0  0  0
   -2.4436   -1.2431   -1.1594 C   0  0  0  0  0  0  0  0  0  0  0  0
   -2.5846    0.0989   -1.2058 C   0  0  0  0  0  0  0  0  0  0  0  0
   -2.5131    0.9746    0.0196 C   0  0  2  0  0  0  0  0  0  0  0  0
   -3.3557    1.6660    0.0276 H   0  0  0  0  0  0  0  0  0  0  0  0
   -1.2201    1.7488    0.0168 C   0  0  0  0  0  0  0  0  0  0  0  0
   -1.2438    3.1313    0.0293 C   0  0  0  0  0  0  0  0  0  0  0  0
   -0.0563    3.8451    0.0214 C   0  0  0  0  0  0  0  0  0  0  0  0
    1.1592    3.1679    0.0063 C   0  0  0  0  0  0  0  0  0  0  0  0
    1.1766    1.7818   -0.0008 C   0  0  0  0  0  0  0  0  0  0  0  0
   -0.0133    1.0752    0.0071 C   0  0  0  0  0  0  0  0  0  0  0  0
    2.6906    0.9325   -0.0192 Cl  0  0  0  0  0  0  0  0  0  0  0  0
    2.3275    3.8644   -0.0019 O   0  0  0  0  0  0  0  0  0  0  0  0
    2.8719    4.2030   -1.2790 C   0  0  0  0  0  0  0  0  0  0  0  0
    4.1273    4.9492   -1.0950 C   0  0  0  0  0  0  0  0  0  0  0  0
    5.1285    5.5444   -0.9482 C   0  0  0  0  0  0  0  0  0  0  0  0
   -0.0786    5.2049    0.0289 O   0  0  0  0  0  0  0  0  0  0  0  0
   -1.3623    5.8325    0.0445 C   0  0  0  0  0  0  0  0  0  0  0  0
   -2.8123    0.7196   -2.4760 C   0  0  0  0  0  0  0  0  0  0  0  0
   -2.9930    1.2119   -3.4837 N   0  0  0  0  0  0  0  0  0  0  0  0
   -2.5228   -1.9342   -2.3428 N   0  0  0  0  0  0  0  0  0  0  0  0
   -4.0177    2.0386    3.0843 H   0  0  0  0  0  0  0  0  0  0  0  0
   -2.5590    1.8523    4.0872 H   0  0  0  0  0  0  0  0  0  0  0  0
   -2.4287    2.5189    2.4420 H   0  0  0  0  0  0  0  0  0  0  0  0
   -2.1883    3.6549    0.0411 H   0  0  0  0  0  0  0  0  0  0  0  0
    0.0012   -0.0047    0.0011 H   0  0  0  0  0  0  0  0  0  0  0  0
    3.0704    3.2913   -1.8426 H   0  0  0  0  0  0  0  0  0  0  0  0
    2.1591    4.8202   -1.8258 H   0  0  0  0  0  0  0  0  0  0  0  0
    6.0241    6.0767   -0.8170 H   0  0  0  0  0  0  0  0  0  0  0  0
   -1.2372    6.9154    0.0492 H   0  0  0  0  0  0  0  0  0  0  0  0
   -1.9228    5.5353   -0.8418 H   0  0  0  0  0  0  0  0  0  0  0  0
   -1.9060    5.5258    0.9380 H   0  0  0  0  0  0  0  0  0  0  0  0
   -2.4265   -2.8994   -2.3481 H   0  0  0  0  0  0  0  0  0  0  0  0
   -2.6750   -1.4575   -3.1736 H   0  0  0  0  0  0  0  0  0  0  0  0
  1  2  1  0  0  0  0
  1 29  1  0  0  0  0
  1 30  1  0  0  0  0
  1 31  1  0  0  0  0
  2  3  1  0  0  0  0
  2  6  2  0  0  0  0
  3 11  1  0  0  0  0
  3  4  2  0  0  0  0
  4  8  1  0  0  0  0
  4  5  1  0  0  0  0
  5  7  1  0  0  0  0
  5  6  1  0  0  0  0
  8  9  1  0  0  0  0
  9 10  2  0  0  0  0
  9 28  1  0  0  0  0
 10 11  1  0  0  0  0
 10 26  1  0  0  0  0
 11 12  1  0  0  0  0
 11 13  1  0  0  0  0
 13 18  2  0  0  0  0
 13 14  1  0  0  0  0
 14 15  2  0  0  0  0
 14 32  1  0  0  0  0
 15 16  1  0  0  0  0
 15 24  1  0  0  0  0
 16 17  2  0  0  0  0
 16 20  1  0  0  0  0
 17 18  1  0  0  0  0
 17 19  1  0  0  0  0
 18 33  1  0  0  0  0
 20 21  1  0  0  0  0
 21 22  1  0  0  0  0
 21 34  1  0  0  0  0
 21 35  1  0  0  0  0
 22 23  3  0  0  0  0
 23 36  1  0  0  0  0
 24 25  1  0  0  0  0
 25 37  1  0  0  0  0
 25 38  1  0  0  0  0
 25 39  1  0  0  0  0
 26 27  3  0  0  0  0
 28 40  1  0  0  0  0
 28 41  1  0  0  0  0
M  END
$$$$
ZINC02163683
  -OEChem-08230709453D

 44 46  0     1  0  0  0  0  0999 V2000
   -5.5227    0.1975    2.0138 C   0  0  0  0  0  0  0  0  0  0  0  0
   -4.8686    0.7784    3.1438 O   0  0  0  0  0  0  0  0  0  0  0  0
   -3.6753    1.3907    2.9190 C   0  0  0  0  0  0  0  0  0  0  0  0
   -3.1459    1.4313    1.6391 C   0  0  0  0  0  0  0  0  0  0  0  0
   -1.9325    2.0536    1.4125 C   0  0  0  0  0  0  0  0  0  0  0  0
   -1.2419    2.6316    2.4616 C   0  0  0  0  0  0  0  0  0  0  0  0
   -1.7672    2.5996    3.7399 C   0  0  0  0  0  0  0  0  0  0  0  0
   -2.9830    1.9773    3.9740 C   0  0  0  0  0  0  0  0  0  0  0  0
   -3.4983    1.9397    5.2320 O   0  0  0  0  0  0  0  0  0  0  0  0
   -2.7327    2.5625    6.2655 C   0  0  0  0  0  0  0  0  0  0  0  0
   -3.4388    2.4251    7.5497 C   0  0  0  0  0  0  0  0  0  0  0  0
   -4.0020    2.3154    8.5740 C   0  0  0  0  0  0  0  0  0  0  0  0
   -1.3582    2.0969    0.0199 C   0  0  1  0  0  0  0  0  0  0  0  0
   -2.0348    1.5846   -0.6641 H   0  0  0  0  0  0  0  0  0  0  0  0
   -1.2048    3.5285   -0.4071 C   0  0  0  0  0  0  0  0  0  0  0  0
    0.0117    4.1254   -0.3834 C   0  0  0  0  0  0  0  0  0  0  0  0
    1.1060    3.4649    0.0260 O   0  0  0  0  0  0  0  0  0  0  0  0
    1.1229    2.1189    0.0027 C   0  0  0  0  0  0  0  0  0  0  0  0
   -0.0170    1.4039    0.0098 C   0  0  0  0  0  0  0  0  0  0  0  0
    0.0021   -0.0041    0.0020 C   0  0  0  0  0  0  0  0  0  0  0  0
   -1.0480   -0.6146   -0.0107 O   0  0  0  0  0  0  0  0  0  0  0  0
    1.2993   -0.7661    0.0097 C   0  0  0  0  0  0  0  0  0  0  0  0
    2.3706    0.0856    0.6992 C   0  0  0  0  0  0  0  0  0  0  0  0
    2.4659    1.4275   -0.0292 C   0  0  0  0  0  0  0  0  0  0  0  0
    0.1269    5.4327   -0.7861 N   0  0  0  0  0  0  0  0  0  0  0  0
   -2.3510    4.2663   -0.8459 C   0  0  0  0  0  0  0  0  0  0  0  0
   -3.2603    4.8515   -1.1940 N   0  0  0  0  0  0  0  0  0  0  0  0
   -5.7255    0.9716    1.2737 H   0  0  0  0  0  0  0  0  0  0  0  0
   -4.8801   -0.5656    1.5747 H   0  0  0  0  0  0  0  0  0  0  0  0
   -6.4614   -0.2566    2.3311 H   0  0  0  0  0  0  0  0  0  0  0  0
   -3.6813    0.9770    0.8186 H   0  0  0  0  0  0  0  0  0  0  0  0
   -0.2920    3.1127    2.2813 H   0  0  0  0  0  0  0  0  0  0  0  0
   -1.2279    3.0557    4.5569 H   0  0  0  0  0  0  0  0  0  0  0  0
   -1.7567    2.0822    6.3343 H   0  0  0  0  0  0  0  0  0  0  0  0
   -2.6020    3.6196    6.0340 H   0  0  0  0  0  0  0  0  0  0  0  0
   -4.5057    2.2174    9.4901 H   0  0  0  0  0  0  0  0  0  0  0  0
    1.1782   -1.6254    0.5067 H   0  0  0  0  0  0  0  0  0  0  0  0
    1.6036   -0.9793   -1.0150 H   0  0  0  0  0  0  0  0  0  0  0  0
    2.0921    0.2526    1.7397 H   0  0  0  0  0  0  0  0  0  0  0  0
    3.3311   -0.4277    0.6550 H   0  0  0  0  0  0  0  0  0  0  0  0
    3.2089    2.0553    0.4626 H   0  0  0  0  0  0  0  0  0  0  0  0
    2.7620    1.2581   -1.0645 H   0  0  0  0  0  0  0  0  0  0  0  0
    0.9928    5.8697   -0.7728 H   0  0  0  0  0  0  0  0  0  0  0  0
   -0.6575    5.9194   -1.0838 H   0  0  0  0  0  0  0  0  0  0  0  0
  1  2  1  0  0  0  0
  1 28  1  0  0  0  0
  1 29  1  0  0  0  0
  1 30  1  0  0  0  0
  2  3  1  0  0  0  0
  3  8  2  0  0  0  0
  3  4  1  0  0  0  0
  4  5  2  0  0  0  0
  4 31  1  0  0  0  0
  5  6  1  0  0  0  0
  5 13  1  0  0  0  0
  6  7  2  0  0  0  0
  6 32  1  0  0  0  0
  7  8  1  0  0  0  0
  7 33  1  0  0  0  0
  8  9  1  0  0  0  0
  9 10  1  0  0  0  0
 10 11  1  0  0  0  0
 10 34  1  0  0  0  0
 10 35  1  0  0  0  0
 11 12  3  0  0  0  0
 12 36  1  0  0  0  0
 13 14  1  0  0  0  0
 13 19  1  0  0  0  0
 13 15  1  0  0  0  0
 15 16  2  0  0  0  0
 15 26  1  0  0  0  0
 16 17  1  0  0  0  0
 16 25  1  0  0  0  0
 17 18  1  0  0  0  0
 18 24  1  0  0  0  0
 18 19  2  0  0  0  0
 19 20  1  0  0  0  0
 20 21  2  0  0  0  0
 20 22  1  0  0  0  0
 22 23  1  0  0  0  0
 22 37  1  0  0  0  0
 22 38  1  0  0  0  0
 23 24  1  0  0  0  0
 23 39  1  0  0  0  0
 23 40  1  0  0  0  0
 24 41  1  0  0  0  0
 24 42  1  0  0  0  0
 25 43  1  0  0  0  0
 25 44  1  0  0  0  0
 26 27  3  0  0  0  0
M  END
$$$$
ZINC02163686
  -OEChem-08230709453D

 44 46  0     1  0  0  0  0  0999 V2000
   -0.0127    1.0858    0.0080 C   0  0  0  0  0  0  0  0  0  0  0  0
   -0.6816    1.5467    1.1837 O   0  0  0  0  0  0  0  0  0  0  0  0
   -0.7875    2.8927    1.3463 C   0  0  0  0  0  0  0  0  0  0  0  0
   -0.2542    3.7507    0.3979 C   0  0  0  0  0  0  0  0  0  0  0  0
   -0.3682    5.1187    0.5616 C   0  0  0  0  0  0  0  0  0  0  0  0
   -1.0027    5.6341    1.6765 C   0  0  0  0  0  0  0  0  0  0  0  0
   -1.5319    4.7836    2.6293 C   0  0  0  0  0  0  0  0  0  0  0  0
   -1.4266    3.4114    2.4683 C   0  0  0  0  0  0  0  0  0  0  0  0
   -1.9462    2.5735    3.4049 O   0  0  0  0  0  0  0  0  0  0  0  0
   -2.5882    3.1765    4.5302 C   0  0  0  0  0  0  0  0  0  0  0  0
   -3.0861    2.1254    5.4324 C   0  0  0  0  0  0  0  0  0  0  0  0
   -3.4833    1.2871    6.1520 C   0  0  0  0  0  0  0  0  0  0  0  0
    0.2065    6.0503   -0.4743 C   0  0  2  0  0  0  0  0  0  0  0  0
    0.6671    5.4656   -1.2706 H   0  0  0  0  0  0  0  0  0  0  0  0
    1.2463    6.9271    0.1658 C   0  0  0  0  0  0  0  0  0  0  0  0
    0.9537    8.2087    0.4951 C   0  0  0  0  0  0  0  0  0  0  0  0
   -0.2625    8.7287    0.2686 O   0  0  0  0  0  0  0  0  0  0  0  0
   -1.0700    8.1705   -0.6526 C   0  0  0  0  0  0  0  0  0  0  0  0
   -0.9000    6.8978   -1.0544 C   0  0  0  0  0  0  0  0  0  0  0  0
   -1.7408    6.3174   -2.0235 C   0  0  0  0  0  0  0  0  0  0  0  0
   -1.5662    5.1601   -2.3485 O   0  0  0  0  0  0  0  0  0  0  0  0
   -2.8511    7.1051   -2.6640 C   0  0  0  0  0  0  0  0  0  0  0  0
   -2.4690    8.5892   -2.6640 C   0  0  0  0  0  0  0  0  0  0  0  0
   -2.1844    9.0163   -1.2232 C   0  0  0  0  0  0  0  0  0  0  0  0
    1.9222    8.9919    1.0722 N   0  0  0  0  0  0  0  0  0  0  0  0
    2.5537    6.4053    0.4287 C   0  0  0  0  0  0  0  0  0  0  0  0
    3.5908    5.9914    0.6372 N   0  0  0  0  0  0  0  0  0  0  0  0
    0.0021   -0.0041    0.0020 H   0  0  0  0  0  0  0  0  0  0  0  0
    1.0099    1.4631    0.0003 H   0  0  0  0  0  0  0  0  0  0  0  0
   -0.5399    1.4469   -0.8751 H   0  0  0  0  0  0  0  0  0  0  0  0
    0.2466    3.3507   -0.4714 H   0  0  0  0  0  0  0  0  0  0  0  0
   -1.0855    6.7034    1.8032 H   0  0  0  0  0  0  0  0  0  0  0  0
   -2.0278    5.1888    3.4990 H   0  0  0  0  0  0  0  0  0  0  0  0
   -1.8737    3.8041    5.0628 H   0  0  0  0  0  0  0  0  0  0  0  0
   -3.4236    3.7872    4.1878 H   0  0  0  0  0  0  0  0  0  0  0  0
   -3.8385    0.5373    6.7956 H   0  0  0  0  0  0  0  0  0  0  0  0
   -2.9847    6.7895   -3.6034 H   0  0  0  0  0  0  0  0  0  0  0  0
   -3.7724    6.9633   -2.0990 H   0  0  0  0  0  0  0  0  0  0  0  0
   -1.5774    8.7379   -3.2731 H   0  0  0  0  0  0  0  0  0  0  0  0
   -3.2915    9.1792   -3.0685 H   0  0  0  0  0  0  0  0  0  0  0  0
   -3.0836    8.8856   -0.6211 H   0  0  0  0  0  0  0  0  0  0  0  0
   -1.8879   10.0651   -1.2083 H   0  0  0  0  0  0  0  0  0  0  0  0
    2.8049    8.6265    1.2402 H   0  0  0  0  0  0  0  0  0  0  0  0
    1.7238    9.9106    1.3120 H   0  0  0  0  0  0  0  0  0  0  0  0
  1  2  1  0  0  0  0
  1 28  1  0  0  0  0
  1 29  1  0  0  0  0
  1 30  1  0  0  0  0
  2  3  1  0  0  0  0
  3  8  2  0  0  0  0
  3  4  1  0  0  0  0
  4  5  2  0  0  0  0
  4 31  1  0  0  0  0
  5  6  1  0  0  0  0
  5 13  1  0  0  0  0
  6  7  2  0  0  0  0
  6 32  1  0  0  0  0
  7  8  1  0  0  0  0
  7 33  1  0  0  0  0
  8  9  1  0  0  0  0
  9 10  1  0  0  0  0
 10 11  1  0  0  0  0
 10 34  1  0  0  0  0
 10 35  1  0  0  0  0
 11 12  3  0  0  0  0
 12 36  1  0  0  0  0
 13 14  1  0  0  0  0
 13 19  1  0  0  0  0
 13 15  1  0  0  0  0
 15 16  2  0  0  0  0
 15 26  1  0  0  0  0
 16 17  1  0  0  0  0
 16 25  1  0  0  0  0
 17 18  1  0  0  0  0
 18 24  1  0  0  0  0
 18 19  2  0  0  0  0
 19 20  1  0  0  0  0
 20 21  2  0  0  0  0
 20 22  1  0  0  0  0
 22 23  1  0  0  0  0
 22 37  1  0  0  0  0
 22 38  1  0  0  0  0
 23 24  1  0  0  0  0
 23 39  1  0  0  0  0
 23 40  1  0  0  0  0
 24 41  1  0  0  0  0
 24 42  1  0  0  0  0
 25 43  1  0  0  0  0
 25 44  1  0  0  0  0
 26 27  3  0  0  0  0
M  END
$$$$
ZINC02163693
  -OEChem-08230709453D

 44 46  0     1  0  0  0  0  0999 V2000
   -5.5227    0.1973    2.0126 C   0  0  0  0  0  0  0  0  0  0  0  0
   -4.8692    0.7779    3.1430 O   0  0  0  0  0  0  0  0  0  0  0  0
   -3.6758    1.3904    2.9190 C   0  0  0  0  0  0  0  0  0  0  0  0
   -3.1458    1.4313    1.6390 C   0  0  0  0  0  0  0  0  0  0  0  0
   -1.9325    2.0536    1.4125 C   0  0  0  0  0  0  0  0  0  0  0  0
   -1.2419    2.6316    2.4615 C   0  0  0  0  0  0  0  0  0  0  0  0
   -1.7677    2.5995    3.7407 C   0  0  0  0  0  0  0  0  0  0  0  0
   -2.9844    1.9766    3.9741 C   0  0  0  0  0  0  0  0  0  0  0  0
   -3.5008    1.9393    5.2319 O   0  0  0  0  0  0  0  0  0  0  0  0
   -3.1432    0.8216    6.0473 C   0  0  0  0  0  0  0  0  0  0  0  0
   -3.7887    0.9482    7.3641 C   0  0  0  0  0  0  0  0  0  0  0  0
   -4.3036    1.0492    8.4143 C   0  0  0  0  0  0  0  0  0  0  0  0
   -0.9015    3.3329    5.0542 Cl  0  0  0  0  0  0  0  0  0  0  0  0
   -1.3582    2.0969    0.0199 C   0  0  1  0  0  0  0  0  0  0  0  0
   -2.0348    1.5846   -0.6641 H   0  0  0  0  0  0  0  0  0  0  0  0
   -1.2046    3.5283   -0.4080 C   0  0  0  0  0  0  0  0  0  0  0  0
    0.0117    4.1254   -0.3834 C   0  0  0  0  0  0  0  0  0  0  0  0
    1.1060    3.4649    0.0260 O   0  0  0  0  0  0  0  0  0  0  0  0
    1.1229    2.1189    0.0027 C   0  0  0  0  0  0  0  0  0  0  0  0
   -0.0170    1.4039    0.0098 C   0  0  0  0  0  0  0  0  0  0  0  0
    0.0021   -0.0041    0.0020 C   0  0  0  0  0  0  0  0  0  0  0  0
   -1.0480   -0.6146   -0.0107 O   0  0  0  0  0  0  0  0  0  0  0  0
    1.2993   -0.7661    0.0097 C   0  0  0  0  0  0  0  0  0  0  0  0
    2.3706    0.0856    0.6992 C   0  0  0  0  0  0  0  0  0  0  0  0
    2.4659    1.4275   -0.0292 C   0  0  0  0  0  0  0  0  0  0  0  0
    0.1269    5.4327   -0.7861 N   0  0  0  0  0  0  0  0  0  0  0  0
   -2.3505    4.2654   -0.8485 C   0  0  0  0  0  0  0  0  0  0  0  0
   -3.2596    4.8502   -1.1980 N   0  0  0  0  0  0  0  0  0  0  0  0
   -4.8798   -0.5656    1.5736 H   0  0  0  0  0  0  0  0  0  0  0  0
   -6.4615   -0.2570    2.3294 H   0  0  0  0  0  0  0  0  0  0  0  0
   -5.7252    0.9716    1.2726 H   0  0  0  0  0  0  0  0  0  0  0  0
   -3.6807    0.9765    0.8185 H   0  0  0  0  0  0  0  0  0  0  0  0
   -0.2921    3.1131    2.2812 H   0  0  0  0  0  0  0  0  0  0  0  0
   -3.4746   -0.0992    5.5672 H   0  0  0  0  0  0  0  0  0  0  0  0
   -2.0609    0.7959    6.1741 H   0  0  0  0  0  0  0  0  0  0  0  0
   -4.7641    1.1396    9.3536 H   0  0  0  0  0  0  0  0  0  0  0  0
    1.1782   -1.6254    0.5067 H   0  0  0  0  0  0  0  0  0  0  0  0
    1.6036   -0.9793   -1.0150 H   0  0  0  0  0  0  0  0  0  0  0  0
    2.0921    0.2526    1.7397 H   0  0  0  0  0  0  0  0  0  0  0  0
    3.3311   -0.4277    0.6550 H   0  0  0  0  0  0  0  0  0  0  0  0
    3.2089    2.0553    0.4626 H   0  0  0  0  0  0  0  0  0  0  0  0
    2.7626    1.2582   -1.0643 H   0  0  0  0  0  0  0  0  0  0  0  0
    0.9928    5.8697   -0.7728 H   0  0  0  0  0  0  0  0  0  0  0  0
   -0.6575    5.9194   -1.0838 H   0  0  0  0  0  0  0  0  0  0  0  0
  1  2  1  0  0  0  0
  1 29  1  0  0  0  0
  1 30  1  0  0  0  0
  1 31  1  0  0  0  0
  2  3  1  0  0  0  0
  3  8  2  0  0  0  0
  3  4  1  0  0  0  0
  4  5  2  0  0  0  0
  4 32  1  0  0  0  0
  5  6  1  0  0  0  0
  5 14  1  0  0  0  0
  6  7  2  0  0  0  0
  6 33  1  0  0  0  0
  7  8  1  0  0  0  0
  7 13  1  0  0  0  0
  8  9  1  0  0  0  0
  9 10  1  0  0  0  0
 10 11  1  0  0  0  0
 10 34  1  0  0  0  0
 10 35  1  0  0  0  0
 11 12  3  0  0  0  0
 12 36  1  0  0  0  0
 14 15  1  0  0  0  0
 14 20  1  0  0  0  0
 14 16  1  0  0  0  0
 16 17  2  0  0  0  0
 16 27  1  0  0  0  0
 17 18  1  0  0  0  0
 17 26  1  0  0  0  0
 18 19  1  0  0  0  0
 19 25  1  0  0  0  0
 19 20  2  0  0  0  0
 20 21  1  0  0  0  0
 21 22  2  0  0  0  0
 21 23  1  0  0  0  0
 23 24  1  0  0  0  0
 23 37  1  0  0  0  0
 23 38  1  0  0  0  0
 24 25  1  0  0  0  0
 24 39  1  0  0  0  0
 24 40  1  0  0  0  0
 25 41  1  0  0  0  0
 25 42  1  0  0  0  0
 26 43  1  0  0  0  0
 26 44  1  0  0  0  0
 27 28  3  0  0  0  0
M  END
$$$$
ZINC02163695
  -OEChem-08230709453D

 44 46  0     1  0  0  0  0  0999 V2000
   -5.4873    1.0329    2.1404 C   0  0  0  0  0  0  0  0  0  0  0  0
   -4.7927    0.4595    3.2498 O   0  0  0  0  0  0  0  0  0  0  0  0
   -3.5887   -0.1182    2.9926 C   0  0  0  0  0  0  0  0  0  0  0  0
   -3.0844   -0.1272    1.7017 C   0  0  0  0  0  0  0  0  0  0  0  0
   -1.8629   -0.7192    1.4405 C   0  0  0  0  0  0  0  0  0  0  0  0
   -1.1359   -1.2936    2.4667 C   0  0  0  0  0  0  0  0  0  0  0  0
   -1.6306   -1.2832    3.7585 C   0  0  0  0  0  0  0  0  0  0  0  0
   -2.8580   -0.6959    4.0258 C   0  0  0  0  0  0  0  0  0  0  0  0
   -3.3465   -0.6850    5.2952 O   0  0  0  0  0  0  0  0  0  0  0  0
   -3.0002    0.4337    6.1141 C   0  0  0  0  0  0  0  0  0  0  0  0
   -3.6121    0.2767    7.4436 C   0  0  0  0  0  0  0  0  0  0  0  0
   -4.1001    0.1515    8.5040 C   0  0  0  0  0  0  0  0  0  0  0  0
   -0.7155   -2.0059    5.0446 Cl  0  0  0  0  0  0  0  0  0  0  0  0
   -1.3194   -0.7331    0.0350 C   0  0  2  0  0  0  0  0  0  0  0  0
   -2.0249   -0.2326   -0.6282 H   0  0  0  0  0  0  0  0  0  0  0  0
   -1.1359   -2.1557   -0.4145 C   0  0  0  0  0  0  0  0  0  0  0  0
    0.0963   -2.7196   -0.4202 C   0  0  0  0  0  0  0  0  0  0  0  0
    1.1806   -2.0337   -0.0263 O   0  0  0  0  0  0  0  0  0  0  0  0
    1.1606   -0.6876   -0.0346 C   0  0  0  0  0  0  0  0  0  0  0  0
    0.0021   -0.0041    0.0020 C   0  0  0  0  0  0  0  0  0  0  0  0
   -0.0170    1.4040    0.0098 C   0  0  0  0  0  0  0  0  0  0  0  0
   -1.0833    1.9858    0.0179 O   0  0  0  0  0  0  0  0  0  0  0  0
    1.2591    2.2009    0.0019 C   0  0  0  0  0  0  0  0  0  0  0  0
    2.3657    1.3714    0.6617 C   0  0  0  0  0  0  0  0  0  0  0  0
    2.4835    0.0405   -0.0836 C   0  0  0  0  0  0  0  0  0  0  0  0
    0.2386   -4.0195   -0.8381 N   0  0  0  0  0  0  0  0  0  0  0  0
   -2.2702   -2.9198   -0.8389 C   0  0  0  0  0  0  0  0  0  0  0  0
   -3.1700   -3.5260   -1.1756 N   0  0  0  0  0  0  0  0  0  0  0  0
   -4.8754    1.8171    1.6946 H   0  0  0  0  0  0  0  0  0  0  0  0
   -5.6858    0.2605    1.3974 H   0  0  0  0  0  0  0  0  0  0  0  0
   -6.4305    1.4586    2.4829 H   0  0  0  0  0  0  0  0  0  0  0  0
   -3.6478    0.3249    0.8989 H   0  0  0  0  0  0  0  0  0  0  0  0
   -0.1797   -1.7509    2.2595 H   0  0  0  0  0  0  0  0  0  0  0  0
   -1.9164    0.4870    6.2169 H   0  0  0  0  0  0  0  0  0  0  0  0
   -3.3667    1.3500    5.6513 H   0  0  0  0  0  0  0  0  0  0  0  0
   -4.5366    0.0395    9.4524 H   0  0  0  0  0  0  0  0  0  0  0  0
    1.5123    2.4154   -0.9414 H   0  0  0  0  0  0  0  0  0  0  0  0
    1.1150    3.1264    0.5593 H   0  0  0  0  0  0  0  0  0  0  0  0
    2.1114    1.1857    1.7052 H   0  0  0  0  0  0  0  0  0  0  0  0
    3.3129    1.9079    0.6054 H   0  0  0  0  0  0  0  0  0  0  0  0
    3.2525   -0.5721    0.3870 H   0  0  0  0  0  0  0  0  0  0  0  0
    2.7554    0.2296   -1.1221 H   0  0  0  0  0  0  0  0  0  0  0  0
    1.1160   -4.4330   -0.8465 H   0  0  0  0  0  0  0  0  0  0  0  0
   -0.5383   -4.5245   -1.1249 H   0  0  0  0  0  0  0  0  0  0  0  0
  1  2  1  0  0  0  0
  1 29  1  0  0  0  0
  1 30  1  0  0  0  0
  1 31  1  0  0  0  0
  2  3  1  0  0  0  0
  3  8  2  0  0  0  0
  3  4  1  0  0  0  0
  4  5  2  0  0  0  0
  4 32  1  0  0  0  0
  5  6  1  0  0  0  0
  5 14  1  0  0  0  0
  6  7  2  0  0  0  0
  6 33  1  0  0  0  0
  7  8  1  0  0  0  0
  7 13  1  0  0  0  0
  8  9  1  0  0  0  0
  9 10  1  0  0  0  0
 10 11  1  0  0  0  0
 10 34  1  0  0  0  0
 10 35  1  0  0  0  0
 11 12  3  0  0  0  0
 12 36  1  0  0  0  0
 14 15  1  0  0  0  0
 14 20  1  0  0  0  0
 14 16  1  0  0  0  0
 16 17  2  0  0  0  0
 16 27  1  0  0  0  0
 17 18  1  0  0  0  0
 17 26  1  0  0  0  0
 18 19  1  0  0  0  0
 19 25  1  0  0  0  0
 19 20  2  0  0  0  0
 20 21  1  0  0  0  0
 21 22  2  0  0  0  0
 21 23  1  0  0  0  0
 23 24  1  0  0  0  0
 23 37  1  0  0  0  0
 23 38  1  0  0  0  0
 24 25  1  0  0  0  0
 24 39  1  0  0  0  0
 24 40  1  0  0  0  0
 25 41  1  0  0  0  0
 25 42  1  0  0  0  0
 26 43  1  0  0  0  0
 26 44  1  0  0  0  0
 27 28  3  0  0  0  0
M  END
$$$$
ZINC02201898
  -OEChem-08230709453D

 46 49  0     1  0  0  0  0  0999 V2000
   -0.9853   -6.3090   -0.0234 C   0  0  0  0  0  0  0  0  0  0  0  0
   -1.2063   -4.7951   -0.0126 C   0  0  0  0  0  0  0  0  0  0  0  0
    0.0580   -4.1290   -0.0211 O   0  0  0  0  0  0  0  0  0  0  0  0
    0.0396   -2.7702   -0.0132 C   0  0  0  0  0  0  0  0  0  0  0  0
    1.2308   -2.0591   -0.0208 C   0  0  0  0  0  0  0  0  0  0  0  0
    1.2094   -0.6778   -0.0131 C   0  0  0  0  0  0  0  0  0  0  0  0
    0.0021   -0.0041    0.0020 C   0  0  0  0  0  0  0  0  0  0  0  0
   -1.1864   -0.7105    0.0153 C   0  0  0  0  0  0  0  0  0  0  0  0
   -1.1705   -2.0918    0.0020 C   0  0  0  0  0  0  0  0  0  0  0  0
   -0.0184    1.5028    0.0103 C   0  0  1  0  0  0  0  0  0  0  0  0
    1.0034    1.8823    0.0026 H   0  0  0  0  0  0  0  0  0  0  0  0
   -0.7635    2.0119   -1.2223 C   0  0  0  0  0  0  0  0  0  0  0  0
   -1.1047    3.4711   -1.1004 C   0  0  0  0  0  0  0  0  0  0  0  0
   -1.0063    4.1935   -2.0697 O   0  0  0  0  0  0  0  0  0  0  0  0
   -1.5204    3.9870    0.0804 N   0  0  0  0  0  0  0  0  0  0  0  0
   -1.4183    3.1896    1.1977 C   0  0  0  0  0  0  0  0  0  0  0  0
   -0.7393    1.9983    1.2616 C   0  0  0  0  0  0  0  0  0  0  0  0
   -0.7585    1.3055    2.4799 C   0  0  0  0  0  0  0  0  0  0  0  0
   -1.4512    1.9360    3.5519 C   0  0  0  0  0  0  0  0  0  0  0  0
   -2.0563    3.4315    2.8322 S   0  0  0  0  0  0  0  0  0  0  0  0
   -1.5598    1.4135    4.8142 C   0  0  0  0  0  0  0  0  0  0  0  0
   -0.9261    0.1655    4.9956 C   0  0  0  0  0  0  0  0  0  0  0  0
   -0.2552   -0.4333    3.9143 C   0  0  0  0  0  0  0  0  0  0  0  0
    0.3545   -1.6604    4.1240 N   0  0  0  0  0  0  0  0  0  0  0  0
   -0.9664   -0.4860    6.2702 C   0  0  0  0  0  0  0  0  0  0  0  0
   -0.9984   -1.0029    7.2813 N   0  0  0  0  0  0  0  0  0  0  0  0
   -2.2984    2.1175    5.9232 C   0  0  0  0  0  0  0  0  0  0  0  0
   -1.9496   -6.8170   -0.0169 H   0  0  0  0  0  0  0  0  0  0  0  0
   -0.4330   -6.5892   -0.9204 H   0  0  0  0  0  0  0  0  0  0  0  0
   -0.4157   -6.5993    0.8595 H   0  0  0  0  0  0  0  0  0  0  0  0
   -1.7585   -4.5149    0.8844 H   0  0  0  0  0  0  0  0  0  0  0  0
   -1.7758   -4.5047   -0.8954 H   0  0  0  0  0  0  0  0  0  0  0  0
    2.1741   -2.5849   -0.0322 H   0  0  0  0  0  0  0  0  0  0  0  0
    2.1364   -0.1238   -0.0194 H   0  0  0  0  0  0  0  0  0  0  0  0
   -2.1281   -0.1819    0.0319 H   0  0  0  0  0  0  0  0  0  0  0  0
   -2.0991   -2.6431    0.0079 H   0  0  0  0  0  0  0  0  0  0  0  0
   -0.1372    1.8654   -2.1023 H   0  0  0  0  0  0  0  0  0  0  0  0
   -1.6837    1.4403   -1.3430 H   0  0  0  0  0  0  0  0  0  0  0  0
   -1.8773    4.8871    0.1371 H   0  0  0  0  0  0  0  0  0  0  0  0
    0.3106   -2.0809    4.9970 H   0  0  0  0  0  0  0  0  0  0  0  0
    0.8250   -2.0986    3.3977 H   0  0  0  0  0  0  0  0  0  0  0  0
   -3.3435    1.8078    5.9175 H   0  0  0  0  0  0  0  0  0  0  0  0
   -1.8480    1.8586    6.8813 H   0  0  0  0  0  0  0  0  0  0  0  0
   -2.2382    3.1954    5.7728 H   0  0  0  0  0  0  0  0  0  0  0  0
   -0.1397    0.0732    2.6658 N   0  3  0  0  0  0  0  0  0  0  0  0
    0.3644   -0.4128    1.9149 H   0  0  0  0  0  0  0  0  0  0  0  0
  1  2  1  0  0  0  0
  1 28  1  0  0  0  0
  1 29  1  0  0  0  0
  1 30  1  0  0  0  0
  2  3  1  0  0  0  0
  2 31  1  0  0  0  0
  2 32  1  0  0  0  0
  3  4  1  0  0  0  0
  4  9  2  0  0  0  0
  4  5  1  0  0  0  0
  5  6  2  0  0  0  0
  5 33  1  0  0  0  0
  6  7  1  0  0  0  0
  6 34  1  0  0  0  0
  7  8  2  0  0  0  0
  7 10  1  0  0  0  0
  8  9  1  0  0  0  0
  8 35  1  0  0  0  0
  9 36  1  0  0  0  0
 10 11  1  0  0  0  0
 10 17  1  0  0  0  0
 10 12  1  0  0  0  0
 12 13  1  0  0  0  0
 12 37  1  0  0  0  0
 12 38  1  0  0  0  0
 13 14  2  0  0  0  0
 13 15  1  0  0  0  0
 15 16  1  0  0  0  0
 15 39  1  0  0  0  0
 16 20  1  0  0  0  0
 16 17  2  0  0  0  0
 17 18  1  0  0  0  0
 18 19  2  0  0  0  0
 18 45  1  0  0  0  0
 19 20  1  0  0  0  0
 19 21  1  0  0  0  0
 21 22  2  0  0  0  0
 21 27  1  0  0  0  0
 22 23  1  0  0  0  0
 22 25  1  0  0  0  0
 23 24  1  0  0  0  0
 23 45  2  0  0  0  0
 24 40  1  0  0  0  0
 24 41  1  0  0  0  0
 25 26  3  0  0  0  0
 27 42  1  0  0  0  0
 27 43  1  0  0  0  0
 27 44  1  0  0  0  0
 45 46  1  0  0  0  0
M  CHG  1  45   1
M  END
$$$$
ZINC02213593
  -OEChem-08230709453D

 48 51  0     1  0  0  0  0  0999 V2000
    1.4532    6.1935    2.2889 C   0  0  0  0  0  0  0  0  0  0  0  0
    1.7636    5.3209    1.1001 C   0  0  0  0  0  0  0  0  0  0  0  0
    2.4302    5.8526    0.0099 C   0  0  0  0  0  0  0  0  0  0  0  0
    2.7198    5.0610   -1.0853 C   0  0  0  0  0  0  0  0  0  0  0  0
    2.3429    3.7279   -1.0976 C   0  0  0  0  0  0  0  0  0  0  0  0
    1.6687    3.1867    0.0028 C   0  0  0  0  0  0  0  0  0  0  0  0
    1.3772    3.9963    1.1002 C   0  0  0  0  0  0  0  0  0  0  0  0
    1.2620    1.7643   -0.0005 C   0  0  0  0  0  0  0  0  0  0  0  0
    2.0864    0.6849   -0.0142 C   0  0  0  0  0  0  0  0  0  0  0  0
    1.2428   -0.4490   -0.0122 C   0  0  0  0  0  0  0  0  0  0  0  0
    0.0021   -0.0041    0.0020 N   0  0  0  0  0  0  0  0  0  0  0  0
   -0.0154    1.2813    0.0091 N   0  0  0  0  0  0  0  0  0  0  0  0
   -0.8419    1.8441    0.0200 H   0  0  0  0  0  0  0  0  0  0  0  0
    2.0981   -1.6494   -0.0272 C   0  0  0  0  0  0  0  0  0  0  0  0
    1.6873   -2.7935   -0.0290 O   0  0  0  0  0  0  0  0  0  0  0  0
    3.3961   -1.3008   -0.0367 N   0  0  0  0  0  0  0  0  0  0  0  0
    3.4973    0.1632   -0.0301 C   0  0  1  0  0  0  0  0  0  0  0  0
    4.0302    0.4983    0.8597 H   0  0  0  0  0  0  0  0  0  0  0  0
    4.2107    0.6382   -1.2696 C   0  0  0  0  0  0  0  0  0  0  0  0
    4.2577   -0.1674   -2.3918 C   0  0  0  0  0  0  0  0  0  0  0  0
    4.9116    0.2682   -3.5290 C   0  0  0  0  0  0  0  0  0  0  0  0
    5.5189    1.5103   -3.5456 C   0  0  0  0  0  0  0  0  0  0  0  0
    5.4736    2.3171   -2.4248 C   0  0  0  0  0  0  0  0  0  0  0  0
    4.8143    1.8839   -1.2867 C   0  0  0  0  0  0  0  0  0  0  0  0
    4.7641    2.6745   -0.1923 F   0  0  0  0  0  0  0  0  0  0  0  0
    4.5270   -2.2319   -0.0518 C   0  0  0  0  0  0  0  0  0  0  0  0
    4.9338   -2.5635    1.3854 C   0  0  0  0  0  0  0  0  0  0  0  0
    3.8716   -3.2693    2.0303 O   0  0  0  0  0  0  0  0  0  0  0  0
    2.6270    2.9489   -2.1737 O   0  0  0  0  0  0  0  0  0  0  0  0
    3.4460    5.6488   -2.2678 C   0  0  0  0  0  0  0  0  0  0  0  0
    0.4786    6.6618    2.1512 H   0  0  0  0  0  0  0  0  0  0  0  0
    1.4392    5.5845    3.1928 H   0  0  0  0  0  0  0  0  0  0  0  0
    2.2172    6.9652    2.3825 H   0  0  0  0  0  0  0  0  0  0  0  0
    2.7253    6.8916    0.0150 H   0  0  0  0  0  0  0  0  0  0  0  0
    0.8529    3.5861    1.9506 H   0  0  0  0  0  0  0  0  0  0  0  0
    3.7837   -1.1377   -2.3800 H   0  0  0  0  0  0  0  0  0  0  0  0
    4.9478   -0.3619   -4.4054 H   0  0  0  0  0  0  0  0  0  0  0  0
    6.0292    1.8498   -4.4348 H   0  0  0  0  0  0  0  0  0  0  0  0
    5.9483    3.2871   -2.4379 H   0  0  0  0  0  0  0  0  0  0  0  0
    4.2373   -3.1473   -0.5678 H   0  0  0  0  0  0  0  0  0  0  0  0
    5.3685   -1.7730   -0.5708 H   0  0  0  0  0  0  0  0  0  0  0  0
    5.8294   -3.1848    1.3754 H   0  0  0  0  0  0  0  0  0  0  0  0
    5.1381   -1.6402    1.9274 H   0  0  0  0  0  0  0  0  0  0  0  0
    4.0605   -3.5124    2.9469 H   0  0  0  0  0  0  0  0  0  0  0  0
    1.9358    2.9451   -2.8500 H   0  0  0  0  0  0  0  0  0  0  0  0
    2.7214    6.0488   -2.9771 H   0  0  0  0  0  0  0  0  0  0  0  0
    4.1032    6.4497   -1.9292 H   0  0  0  0  0  0  0  0  0  0  0  0
    4.0387    4.8729   -2.7525 H   0  0  0  0  0  0  0  0  0  0  0  0
  1  2  1  0  0  0  0
  1 31  1  0  0  0  0
  1 32  1  0  0  0  0
  1 33  1  0  0  0  0
  2  7  2  0  0  0  0
  2  3  1  0  0  0  0
  3  4  2  0  0  0  0
  3 34  1  0  0  0  0
  4  5  1  0  0  0  0
  4 30  1  0  0  0  0
  5  6  2  0  0  0  0
  5 29  1  0  0  0  0
  6  7  1  0  0  0  0
  6  8  1  0  0  0  0
  7 35  1  0  0  0  0
  8 12  1  0  0  0  0
  8  9  2  0  0  0  0
  9 17  1  0  0  0  0
  9 10  1  0  0  0  0
 10 11  2  0  0  0  0
 10 14  1  0  0  0  0
 11 12  1  0  0  0  0
 12 13  1  0  0  0  0
 14 15  2  0  0  0  0
 14 16  1  0  0  0  0
 16 17  1  0  0  0  0
 16 26  1  0  0  0  0
 17 18  1  0  0  0  0
 17 19  1  0  0  0  0
 19 24  2  0  0  0  0
 19 20  1  0  0  0  0
 20 21  2  0  0  0  0
 20 36  1  0  0  0  0
 21 22  1  0  0  0  0
 21 37  1  0  0  0  0
 22 23  2  0  0  0  0
 22 38  1  0  0  0  0
 23 24  1  0  0  0  0
 23 39  1  0  0  0  0
 24 25  1  0  0  0  0
 26 27  1  0  0  0  0
 26 40  1  0  0  0  0
 26 41  1  0  0  0  0
 27 28  1  0  0  0  0
 27 42  1  0  0  0  0
 27 43  1  0  0  0  0
 28 44  1  0  0  0  0
 29 45  1  0  0  0  0
 30 46  1  0  0  0  0
 30 47  1  0  0  0  0
 30 48  1  0  0  0  0
M  END
$$$$
ZINC02213593
  -OEChem-08230709453D

 48 51  0     1  0  0  0  0  0999 V2000
    1.4526    6.1939    2.2878 C   0  0  0  0  0  0  0  0  0  0  0  0
    1.7633    5.3211    1.0992 C   0  0  0  0  0  0  0  0  0  0  0  0
    2.4302    5.8526    0.0091 C   0  0  0  0  0  0  0  0  0  0  0  0
    2.7201    5.0608   -1.0859 C   0  0  0  0  0  0  0  0  0  0  0  0
    2.3432    3.7277   -1.0981 C   0  0  0  0  0  0  0  0  0  0  0  0
    1.6687    3.1867    0.0023 C   0  0  0  0  0  0  0  0  0  0  0  0
    1.3769    3.9965    1.0994 C   0  0  0  0  0  0  0  0  0  0  0  0
    1.2620    1.7643   -0.0009 C   0  0  0  0  0  0  0  0  0  0  0  0
    2.0864    0.6849   -0.0137 C   0  0  0  0  0  0  0  0  0  0  0  0
    1.2428   -0.4490   -0.0114 C   0  0  0  0  0  0  0  0  0  0  0  0
    0.0021   -0.0041    0.0016 N   0  0  0  0  0  0  0  0  0  0  0  0
   -0.0154    1.2813    0.0085 N   0  0  0  0  0  0  0  0  0  0  0  0
   -0.8117   -0.5852    0.0056 H   0  0  0  0  0  0  0  0  0  0  0  0
    2.0981   -1.6494   -0.0258 C   0  0  0  0  0  0  0  0  0  0  0  0
    1.6873   -2.7935   -0.0272 O   0  0  0  0  0  0  0  0  0  0  0  0
    3.3961   -1.3008   -0.0352 N   0  0  0  0  0  0  0  0  0  0  0  0
    3.4973    0.1632   -0.0292 C   0  0  1  0  0  0  0  0  0  0  0  0
    4.0301    0.4986    0.8606 H   0  0  0  0  0  0  0  0  0  0  0  0
    4.2109    0.6377   -1.2687 C   0  0  0  0  0  0  0  0  0  0  0  0
    4.2581   -0.1683   -2.3906 C   0  0  0  0  0  0  0  0  0  0  0  0
    4.9121    0.2669   -3.5279 C   0  0  0  0  0  0  0  0  0  0  0  0
    5.5194    1.5090   -3.5449 C   0  0  0  0  0  0  0  0  0  0  0  0
    5.4740    2.3162   -2.4244 C   0  0  0  0  0  0  0  0  0  0  0  0
    4.8145    1.8834   -1.2862 C   0  0  0  0  0  0  0  0  0  0  0  0
    4.7641    2.6744   -0.1921 F   0  0  0  0  0  0  0  0  0  0  0  0
    4.5270   -2.2319   -0.0498 C   0  0  0  0  0  0  0  0  0  0  0  0
    4.9336   -2.5630    1.3876 C   0  0  0  0  0  0  0  0  0  0  0  0
    3.8713   -3.2685    2.0326 O   0  0  0  0  0  0  0  0  0  0  0  0
    2.6275    2.9485   -2.1740 O   0  0  0  0  0  0  0  0  0  0  0  0
    3.4465    5.6484   -2.2684 C   0  0  0  0  0  0  0  0  0  0  0  0
    0.4781    6.6622    2.1498 H   0  0  0  0  0  0  0  0  0  0  0  0
    1.4384    5.5851    3.1918 H   0  0  0  0  0  0  0  0  0  0  0  0
    2.2166    6.9656    2.3814 H   0  0  0  0  0  0  0  0  0  0  0  0
    2.7253    6.8916    0.0141 H   0  0  0  0  0  0  0  0  0  0  0  0
    0.8524    3.5864    1.9498 H   0  0  0  0  0  0  0  0  0  0  0  0
    3.7841   -1.1386   -2.3785 H   0  0  0  0  0  0  0  0  0  0  0  0
    4.9484   -0.3636   -4.4040 H   0  0  0  0  0  0  0  0  0  0  0  0
    6.0298    1.8481   -4.4341 H   0  0  0  0  0  0  0  0  0  0  0  0
    5.9486    3.2862   -2.4378 H   0  0  0  0  0  0  0  0  0  0  0  0
    4.2374   -3.1475   -0.5655 H   0  0  0  0  0  0  0  0  0  0  0  0
    5.3686   -1.7732   -0.5688 H   0  0  0  0  0  0  0  0  0  0  0  0
    5.8292   -3.1843    1.3780 H   0  0  0  0  0  0  0  0  0  0  0  0
    5.1378   -1.6394    1.9293 H   0  0  0  0  0  0  0  0  0  0  0  0
    4.0601   -3.5113    2.9493 H   0  0  0  0  0  0  0  0  0  0  0  0
    1.9365    2.9446   -2.8504 H   0  0  0  0  0  0  0  0  0  0  0  0
    2.7221    6.0483   -2.9779 H   0  0  0  0  0  0  0  0  0  0  0  0
    4.1037    6.4494   -1.9297 H   0  0  0  0  0  0  0  0  0  0  0  0
    4.0394    4.8724   -2.7528 H   0  0  0  0  0  0  0  0  0  0  0  0
  1  2  1  0  0  0  0
  1 31  1  0  0  0  0
  1 32  1  0  0  0  0
  1 33  1  0  0  0  0
  2  7  2  0  0  0  0
  2  3  1  0  0  0  0
  3  4  2  0  0  0  0
  3 34  1  0  0  0  0
  4  5  1  0  0  0  0
  4 30  1  0  0  0  0
  5  6  2  0  0  0  0
  5 29  1  0  0  0  0
  6  7  1  0  0  0  0
  6  8  1  0  0  0  0
  7 35  1  0  0  0  0
  8  9  1  0  0  0  0
  8 12  2  0  0  0  0
  9 17  1  0  0  0  0
  9 10  2  0  0  0  0
 10 14  1  0  0  0  0
 10 11  1  0  0  0  0
 11 13  1  0  0  0  0
 11 12  1  0  0  0  0
 14 15  2  0  0  0  0
 14 16  1  0  0  0  0
 16 17  1  0  0  0  0
 16 26  1  0  0  0  0
 17 18  1  0  0  0  0
 17 19  1  0  0  0  0
 19 24  2  0  0  0  0
 19 20  1  0  0  0  0
 20 21  2  0  0  0  0
 20 36  1  0  0  0  0
 21 22  1  0  0  0  0
 21 37  1  0  0  0  0
 22 23  2  0  0  0  0
 22 38  1  0  0  0  0
 23 24  1  0  0  0  0
 23 39  1  0  0  0  0
 24 25  1  0  0  0  0
 26 27  1  0  0  0  0
 26 40  1  0  0  0  0
 26 41  1  0  0  0  0
 27 28  1  0  0  0  0
 27 42  1  0  0  0  0
 27 43  1  0  0  0  0
 28 44  1  0  0  0  0
 29 45  1  0  0  0  0
 30 46  1  0  0  0  0
 30 47  1  0  0  0  0
 30 48  1  0  0  0  0
M  END
$$$$
ZINC02216447
  -OEChem-08230709453D

 46 48  0     1  0  0  0  0  0999 V2000
   -1.3795   -4.0841   -4.7922 C   0  0  0  0  0  0  0  0  0  0  0  0
   -0.7103   -3.5922   -3.5347 C   0  0  0  0  0  0  0  0  0  0  0  0
   -1.3687   -3.6647   -2.3581 C   0  0  0  0  0  0  0  0  0  0  0  0
   -0.7471   -3.2056   -1.1783 C   0  0  0  0  0  0  0  0  0  0  0  0
    0.5283   -2.6877   -1.2539 C   0  0  0  0  0  0  0  0  0  0  0  0
    1.1727   -2.6328   -2.4964 C   0  0  0  0  0  0  0  0  0  0  0  0
    2.3026   -2.1769   -2.5781 O   0  0  0  0  0  0  0  0  0  0  0  0
    0.5472   -3.0814   -3.6006 N   0  0  0  0  0  0  0  0  0  0  0  0
    1.2330   -3.0184   -4.8936 C   0  0  0  0  0  0  0  0  0  0  0  0
    0.9254   -1.6806   -5.5694 C   0  0  0  0  0  0  0  0  0  0  0  0
    1.5206   -0.5413   -4.7396 C   0  0  0  0  0  0  0  0  0  0  0  0
    1.5382   -1.6646   -6.9712 C   0  0  0  0  0  0  0  0  0  0  0  0
    1.2286   -2.1860   -0.0210 C   0  0  2  0  0  0  0  0  0  0  0  0
    2.2617   -2.5334   -0.0280 H   0  0  0  0  0  0  0  0  0  0  0  0
    0.5381   -2.7001    1.2117 C   0  0  0  0  0  0  0  0  0  0  0  0
   -0.7156   -3.2080    1.1540 C   0  0  0  0  0  0  0  0  0  0  0  0
   -1.4019   -3.2784   -0.0001 O   0  0  0  0  0  0  0  0  0  0  0  0
   -1.3031   -3.6649    2.3073 N   0  0  0  0  0  0  0  0  0  0  0  0
    1.2195   -2.6522    2.4703 C   0  0  0  0  0  0  0  0  0  0  0  0
    1.7600   -2.6142    3.4688 N   0  0  0  0  0  0  0  0  0  0  0  0
    1.2083   -0.6792   -0.0132 C   0  0  0  0  0  0  0  0  0  0  0  0
    0.0021   -0.0041    0.0020 C   0  0  0  0  0  0  0  0  0  0  0  0
   -0.0167    1.3780    0.0096 C   0  0  0  0  0  0  0  0  0  0  0  0
    1.1709    2.0861    0.0021 C   0  0  0  0  0  0  0  0  0  0  0  0
    2.3773    1.4123   -0.0131 C   0  0  0  0  0  0  0  0  0  0  0  0
    2.3967    0.0287   -0.0208 C   0  0  0  0  0  0  0  0  0  0  0  0
    3.9119   -0.8184   -0.0404 Cl  0  0  0  0  0  0  0  0  0  0  0  0
   -2.3754   -4.4563   -4.5521 H   0  0  0  0  0  0  0  0  0  0  0  0
   -1.4603   -3.2639   -5.5055 H   0  0  0  0  0  0  0  0  0  0  0  0
   -0.7866   -4.8880   -5.2286 H   0  0  0  0  0  0  0  0  0  0  0  0
   -2.3678   -4.0732   -2.3205 H   0  0  0  0  0  0  0  0  0  0  0  0
    2.3082   -3.1088   -4.7394 H   0  0  0  0  0  0  0  0  0  0  0  0
    0.8872   -3.8341   -5.5285 H   0  0  0  0  0  0  0  0  0  0  0  0
   -0.1543   -1.5507   -5.6433 H   0  0  0  0  0  0  0  0  0  0  0  0
    2.6003   -0.6713   -4.6657 H   0  0  0  0  0  0  0  0  0  0  0  0
    1.3015    0.4118   -5.2210 H   0  0  0  0  0  0  0  0  0  0  0  0
    1.0840   -0.5527   -3.7409 H   0  0  0  0  0  0  0  0  0  0  0  0
    1.1141   -2.4762   -7.5624 H   0  0  0  0  0  0  0  0  0  0  0  0
    1.3190   -0.7115   -7.4527 H   0  0  0  0  0  0  0  0  0  0  0  0
    2.6179   -1.7945   -6.8973 H   0  0  0  0  0  0  0  0  0  0  0  0
   -0.8206   -3.6211    3.1476 H   0  0  0  0  0  0  0  0  0  0  0  0
   -2.2008   -4.0315    2.2820 H   0  0  0  0  0  0  0  0  0  0  0  0
   -0.9258   -0.5566    0.0076 H   0  0  0  0  0  0  0  0  0  0  0  0
   -0.9593    1.9050    0.0170 H   0  0  0  0  0  0  0  0  0  0  0  0
    1.1556    3.1659    0.0081 H   0  0  0  0  0  0  0  0  0  0  0  0
    3.3048    1.9655   -0.0194 H   0  0  0  0  0  0  0  0  0  0  0  0
  1  2  1  0  0  0  0
  1 28  1  0  0  0  0
  1 29  1  0  0  0  0
  1 30  1  0  0  0  0
  2  8  1  0  0  0  0
  2  3  2  0  0  0  0
  3  4  1  0  0  0  0
  3 31  1  0  0  0  0
  4 17  1  0  0  0  0
  4  5  2  0  0  0  0
  5  6  1  0  0  0  0
  5 13  1  0  0  0  0
  6  7  2  0  0  0  0
  6  8  1  0  0  0  0
  8  9  1  0  0  0  0
  9 10  1  0  0  0  0
  9 32  1  0  0  0  0
  9 33  1  0  0  0  0
 10 11  1  0  0  0  0
 10 12  1  0  0  0  0
 10 34  1  0  0  0  0
 11 35  1  0  0  0  0
 11 36  1  0  0  0  0
 11 37  1  0  0  0  0
 12 38  1  0  0  0  0
 12 39  1  0  0  0  0
 12 40  1  0  0  0  0
 13 14  1  0  0  0  0
 13 15  1  0  0  0  0
 13 21  1  0  0  0  0
 15 16  2  0  0  0  0
 15 19  1  0  0  0  0
 16 17  1  0  0  0  0
 16 18  1  0  0  0  0
 18 41  1  0  0  0  0
 18 42  1  0  0  0  0
 19 20  3  0  0  0  0
 21 26  2  0  0  0  0
 21 22  1  0  0  0  0
 22 23  2  0  0  0  0
 22 43  1  0  0  0  0
 23 24  1  0  0  0  0
 23 44  1  0  0  0  0
 24 25  2  0  0  0  0
 24 45  1  0  0  0  0
 25 26  1  0  0  0  0
 25 46  1  0  0  0  0
 26 27  1  0  0  0  0
M  END
$$$$
ZINC02227227
  -OEChem-08230709453D

 46 49  0     1  0  0  0  0  0999 V2000
    0.0146   10.3991    0.2954 C   0  0  0  0  0  0  0  0  0  0  0  0
   -0.0310    8.8775    0.4491 C   0  0  0  0  0  0  0  0  0  0  0  0
   -0.3894    8.5448    1.7918 O   0  0  0  0  0  0  0  0  0  0  0  0
   -0.4751    7.2227    2.0984 C   0  0  0  0  0  0  0  0  0  0  0  0
   -0.2142    6.2669    1.1297 C   0  0  0  0  0  0  0  0  0  0  0  0
   -0.3069    4.9233    1.4417 C   0  0  0  0  0  0  0  0  0  0  0  0
   -0.6494    4.5299    2.7220 C   0  0  0  0  0  0  0  0  0  0  0  0
   -0.9054    5.4783    3.6946 C   0  0  0  0  0  0  0  0  0  0  0  0
   -0.8194    6.8267    3.3872 C   0  0  0  0  0  0  0  0  0  0  0  0
   -1.0714    7.7609    4.3428 O   0  0  0  0  0  0  0  0  0  0  0  0
   -0.0279    3.8853    0.3855 C   0  0  1  0  0  0  0  0  0  0  0  0
    0.2201    4.3775   -0.5549 H   0  0  0  0  0  0  0  0  0  0  0  0
    1.1481    3.0040    0.8295 C   0  0  2  0  0  0  0  0  0  0  0  0
    1.0366    2.7599    1.7928 H   0  0  0  0  0  0  0  0  0  0  0  0
    2.4339    3.7684    0.6616 C   0  0  0  0  0  0  0  0  0  0  0  0
    2.8236    4.5108    1.5306 O   0  0  0  0  0  0  0  0  0  0  0  0
    3.2299    3.5933   -0.6122 C   0  0  0  0  0  0  0  0  0  0  0  0
    3.4872    2.0926   -0.7955 C   0  0  0  0  0  0  0  0  0  0  0  0
    2.1846    1.3506   -0.7115 C   0  0  0  0  0  0  0  0  0  0  0  0
    1.1652    1.7454    0.0003 C   0  0  0  0  0  0  0  0  0  0  0  0
   -0.0111    0.9658    0.0074 N   0  0  0  0  0  0  0  0  0  0  0  0
   -1.1917    1.7029    0.0166 C   0  0  0  0  0  0  0  0  0  0  0  0
   -1.2112    3.0447    0.2007 N   0  0  0  0  0  0  0  0  0  0  0  0
   -2.5540    3.4295    0.1659 N   0  0  0  0  0  0  0  0  0  0  0  0
   -3.2571    2.3367   -0.0480 C   0  0  0  0  0  0  0  0  0  0  0  0
   -2.4227    1.2903   -0.1313 N   0  0  0  0  0  0  0  0  0  0  0  0
   -5.0121    2.2592   -0.1848 S   0  0  0  0  0  0  0  0  0  0  0  0
   -5.3542    0.4978   -0.4514 C   0  0  0  0  0  0  0  0  0  0  0  0
    0.7542   10.8116    0.9818 H   0  0  0  0  0  0  0  0  0  0  0  0
    0.2880   10.6528   -0.7287 H   0  0  0  0  0  0  0  0  0  0  0  0
   -0.9659   10.8169    0.5239 H   0  0  0  0  0  0  0  0  0  0  0  0
    0.9495    8.4597    0.2206 H   0  0  0  0  0  0  0  0  0  0  0  0
   -0.7705    8.4650   -0.2373 H   0  0  0  0  0  0  0  0  0  0  0  0
    0.0576    6.5716    0.1298 H   0  0  0  0  0  0  0  0  0  0  0  0
   -0.7168    3.4792    2.9629 H   0  0  0  0  0  0  0  0  0  0  0  0
   -1.1721    5.1683    4.6942 H   0  0  0  0  0  0  0  0  0  0  0  0
   -0.2907    8.0286    4.8467 H   0  0  0  0  0  0  0  0  0  0  0  0
    4.0936    4.0917   -0.5367 H   0  0  0  0  0  0  0  0  0  0  0  0
    2.6615    3.9772   -1.4593 H   0  0  0  0  0  0  0  0  0  0  0  0
    4.1578    1.7402   -0.0117 H   0  0  0  0  0  0  0  0  0  0  0  0
    3.9430    1.9182   -1.7702 H   0  0  0  0  0  0  0  0  0  0  0  0
    2.0855    0.4346   -1.2750 H   0  0  0  0  0  0  0  0  0  0  0  0
    0.0021   -0.0041    0.0020 H   0  0  0  0  0  0  0  0  0  0  0  0
   -4.8562    0.1647   -1.3620 H   0  0  0  0  0  0  0  0  0  0  0  0
   -4.9826   -0.0769    0.3970 H   0  0  0  0  0  0  0  0  0  0  0  0
   -6.4293    0.3472   -0.5493 H   0  0  0  0  0  0  0  0  0  0  0  0
  1  2  1  0  0  0  0
  1 29  1  0  0  0  0
  1 30  1  0  0  0  0
  1 31  1  0  0  0  0
  2  3  1  0  0  0  0
  2 32  1  0  0  0  0
  2 33  1  0  0  0  0
  3  4  1  0  0  0  0
  4  9  2  0  0  0  0
  4  5  1  0  0  0  0
  5  6  2  0  0  0  0
  5 34  1  0  0  0  0
  6  7  1  0  0  0  0
  6 11  1  0  0  0  0
  7  8  2  0  0  0  0
  7 35  1  0  0  0  0
  8  9  1  0  0  0  0
  8 36  1  0  0  0  0
  9 10  1  0  0  0  0
 10 37  1  0  0  0  0
 11 12  1  0  0  0  0
 11 23  1  0  0  0  0
 11 13  1  0  0  0  0
 13 14  1  0  0  0  0
 13 20  1  0  0  0  0
 13 15  1  0  0  0  0
 15 16  2  0  0  0  0
 15 17  1  0  0  0  0
 17 18  1  0  0  0  0
 17 38  1  0  0  0  0
 17 39  1  0  0  0  0
 18 19  1  0  0  0  0
 18 40  1  0  0  0  0
 18 41  1  0  0  0  0
 19 20  2  0  0  0  0
 19 42  1  0  0  0  0
 20 21  1  0  0  0  0
 21 22  1  0  0  0  0
 21 43  1  0  0  0  0
 22 26  2  0  0  0  0
 22 23  1  0  0  0  0
 23 24  1  0  0  0  0
 24 25  2  0  0  0  0
 25 26  1  0  0  0  0
 25 27  1  0  0  0  0
 27 28  1  0  0  0  0
 28 44  1  0  0  0  0
 28 45  1  0  0  0  0
 28 46  1  0  0  0  0
M  END
$$$$
ZINC02235611
  -OEChem-08230709453D

 46 49  0     1  0  0  0  0  0999 V2000
   -5.7723    2.7674   -6.8194 C   0  0  0  0  0  0  0  0  0  0  0  0
   -5.6346    2.4571   -5.3275 C   0  0  0  0  0  0  0  0  0  0  0  0
   -3.8919    2.1441   -4.9334 S   0  0  0  0  0  0  0  0  0  0  0  0
   -3.8999    1.8071   -3.2039 C   0  0  0  0  0  0  0  0  0  0  0  0
   -4.9857    1.7998   -2.4171 N   0  0  0  0  0  0  0  0  0  0  0  0
   -4.6328    1.5139   -1.1918 C   0  0  0  0  0  0  0  0  0  0  0  0
   -3.2924    1.3249   -1.1689 N   0  0  0  0  0  0  0  0  0  0  0  0
   -2.8423    1.5222   -2.4769 N   0  0  0  0  0  0  0  0  0  0  0  0
   -2.5128    0.9779    0.0198 C   0  0  2  0  0  0  0  0  0  0  0  0
   -2.2991   -0.0910    0.0164 H   0  0  0  0  0  0  0  0  0  0  0  0
   -3.3233    1.3374    1.2728 C   0  0  2  0  0  0  0  0  0  0  0  0
   -3.2996    2.3273    1.4124 H   0  0  0  0  0  0  0  0  0  0  0  0
   -2.7158    0.6574    2.4705 C   0  0  0  0  0  0  0  0  0  0  0  0
   -1.7994    1.1702    3.0669 O   0  0  0  0  0  0  0  0  0  0  0  0
   -3.2697   -0.6775    2.9154 C   0  0  0  0  0  0  0  0  0  0  0  0
   -4.7797   -0.5068    3.1219 C   0  0  0  0  0  0  0  0  0  0  0  0
   -5.3863    0.0925    1.8861 C   0  0  0  0  0  0  0  0  0  0  0  0
   -4.7531    0.9003    1.0811 C   0  0  0  0  0  0  0  0  0  0  0  0
   -5.4243    1.4071   -0.0519 N   0  0  0  0  0  0  0  0  0  0  0  0
   -1.2190    1.7507    0.0173 C   0  0  0  0  0  0  0  0  0  0  0  0
   -1.2413    3.1330    0.0298 C   0  0  0  0  0  0  0  0  0  0  0  0
   -0.0572    3.8465    0.0223 C   0  0  0  0  0  0  0  0  0  0  0  0
    1.1554    3.1762    0.0076 C   0  0  0  0  0  0  0  0  0  0  0  0
    1.1779    1.7849    0.0004 C   0  0  0  0  0  0  0  0  0  0  0  0
   -0.0126    1.0758    0.0080 C   0  0  0  0  0  0  0  0  0  0  0  0
    2.3655    1.1226   -0.0136 O   0  0  0  0  0  0  0  0  0  0  0  0
    2.3119   -0.3054   -0.0198 C   0  0  0  0  0  0  0  0  0  0  0  0
    2.3211    3.8766    0.0007 O   0  0  0  0  0  0  0  0  0  0  0  0
   -5.1805    3.6497   -7.0631 H   0  0  0  0  0  0  0  0  0  0  0  0
   -5.4150    1.9181   -7.4017 H   0  0  0  0  0  0  0  0  0  0  0  0
   -6.8195    2.9555   -7.0562 H   0  0  0  0  0  0  0  0  0  0  0  0
   -6.2264    1.5748   -5.0838 H   0  0  0  0  0  0  0  0  0  0  0  0
   -5.9919    3.3065   -4.7453 H   0  0  0  0  0  0  0  0  0  0  0  0
   -2.8269   -0.9546    3.7681 H   0  0  0  0  0  0  0  0  0  0  0  0
   -3.0839   -1.4293    2.1483 H   0  0  0  0  0  0  0  0  0  0  0  0
   -4.9585    0.1525    3.9712 H   0  0  0  0  0  0  0  0  0  0  0  0
   -5.2327   -1.4794    3.3144 H   0  0  0  0  0  0  0  0  0  0  0  0
   -6.4090   -0.1610    1.6491 H   0  0  0  0  0  0  0  0  0  0  0  0
   -6.3607    1.6599   -0.0377 H   0  0  0  0  0  0  0  0  0  0  0  0
   -2.1858    3.6566    0.0412 H   0  0  0  0  0  0  0  0  0  0  0  0
   -0.0774    4.9263    0.0276 H   0  0  0  0  0  0  0  0  0  0  0  0
    0.0021   -0.0041    0.0020 H   0  0  0  0  0  0  0  0  0  0  0  0
    1.7930   -0.6534    0.8733 H   0  0  0  0  0  0  0  0  0  0  0  0
    1.7767   -0.6451   -0.9065 H   0  0  0  0  0  0  0  0  0  0  0  0
    3.3252   -0.7070   -0.0309 H   0  0  0  0  0  0  0  0  0  0  0  0
    2.6504    4.0837   -0.8847 H   0  0  0  0  0  0  0  0  0  0  0  0
  1  2  1  0  0  0  0
  1 29  1  0  0  0  0
  1 30  1  0  0  0  0
  1 31  1  0  0  0  0
  2  3  1  0  0  0  0
  2 32  1  0  0  0  0
  2 33  1  0  0  0  0
  3  4  1  0  0  0  0
  4  8  2  0  0  0  0
  4  5  1  0  0  0  0
  5  6  2  0  0  0  0
  6 19  1  0  0  0  0
  6  7  1  0  0  0  0
  7  8  1  0  0  0  0
  7  9  1  0  0  0  0
  9 10  1  0  0  0  0
  9 11  1  0  0  0  0
  9 20  1  0  0  0  0
 11 12  1  0  0  0  0
 11 18  1  0  0  0  0
 11 13  1  0  0  0  0
 13 14  2  0  0  0  0
 13 15  1  0  0  0  0
 15 16  1  0  0  0  0
 15 34  1  0  0  0  0
 15 35  1  0  0  0  0
 16 17  1  0  0  0  0
 16 36  1  0  0  0  0
 16 37  1  0  0  0  0
 17 18  2  0  0  0  0
 17 38  1  0  0  0  0
 18 19  1  0  0  0  0
 19 39  1  0  0  0  0
 20 25  2  0  0  0  0
 20 21  1  0  0  0  0
 21 22  2  0  0  0  0
 21 40  1  0  0  0  0
 22 23  1  0  0  0  0
 22 41  1  0  0  0  0
 23 24  2  0  0  0  0
 23 28  1  0  0  0  0
 24 25  1  0  0  0  0
 24 26  1  0  0  0  0
 25 42  1  0  0  0  0
 26 27  1  0  0  0  0
 27 43  1  0  0  0  0
 27 44  1  0  0  0  0
 27 45  1  0  0  0  0
 28 46  1  0  0  0  0
M  END
$$$$
ZINC02236764
  -OEChem-08230709453D

 42 45  0     1  0  0  0  0  0999 V2000
   -4.4823    3.3663    5.9595 C   0  0  0  0  0  0  0  0  0  0  0  0
   -3.2317    3.0595    5.1332 C   0  0  0  0  0  0  0  0  0  0  0  0
   -3.7226    2.4188    3.5086 S   0  0  0  0  0  0  0  0  0  0  0  0
   -2.1922    2.1180    2.6889 C   0  0  0  0  0  0  0  0  0  0  0  0
   -0.9750    2.3361    3.2076 N   0  0  0  0  0  0  0  0  0  0  0  0
   -0.0634    2.0078    2.3308 C   0  0  0  0  0  0  0  0  0  0  0  0
   -0.6880    1.5595    1.2165 N   0  0  0  0  0  0  0  0  0  0  0  0
   -2.0595    1.6436    1.4700 N   0  0  0  0  0  0  0  0  0  0  0  0
   -0.0127    1.0858    0.0080 C   0  0  2  0  0  0  0  0  0  0  0  0
    0.0021   -0.0041    0.0020 H   0  0  0  0  0  0  0  0  0  0  0  0
    1.4268    1.6190   -0.0029 C   0  0  2  0  0  0  0  0  0  0  0  0
    1.4220    2.5863   -0.2564 H   0  0  0  0  0  0  0  0  0  0  0  0
    2.2364    0.8462   -1.0094 C   0  0  0  0  0  0  0  0  0  0  0  0
    2.2364    1.1686   -2.1732 O   0  0  0  0  0  0  0  0  0  0  0  0
    3.0474   -0.3358   -0.5624 C   0  0  0  0  0  0  0  0  0  0  0  0
    3.9561    0.1343    0.5800 C   0  0  0  0  0  0  0  0  0  0  0  0
    3.1253    0.8184    1.6270 C   0  0  0  0  0  0  0  0  0  0  0  0
    2.0226    1.4678    1.3733 C   0  0  0  0  0  0  0  0  0  0  0  0
    1.3226    2.0748    2.4376 N   0  0  0  0  0  0  0  0  0  0  0  0
   -0.7451    1.5868   -1.2101 C   0  0  0  0  0  0  0  0  0  0  0  0
   -0.8959    2.9459   -1.4143 C   0  0  0  0  0  0  0  0  0  0  0  0
   -1.5619    3.4077   -2.5330 C   0  0  0  0  0  0  0  0  0  0  0  0
   -2.0894    2.5063   -3.4462 C   0  0  0  0  0  0  0  0  0  0  0  0
   -1.9416    1.1430   -3.2361 C   0  0  0  0  0  0  0  0  0  0  0  0
   -1.2699    0.6863   -2.1187 C   0  0  0  0  0  0  0  0  0  0  0  0
   -2.7495    2.9581   -4.5449 O   0  0  0  0  0  0  0  0  0  0  0  0
   -5.0858    4.1121    5.4420 H   0  0  0  0  0  0  0  0  0  0  0  0
   -5.0647    2.4542    6.0895 H   0  0  0  0  0  0  0  0  0  0  0  0
   -4.1874    3.7514    6.9356 H   0  0  0  0  0  0  0  0  0  0  0  0
   -2.6283    2.3138    5.6507 H   0  0  0  0  0  0  0  0  0  0  0  0
   -2.6493    3.9716    5.0031 H   0  0  0  0  0  0  0  0  0  0  0  0
    3.5913   -0.6761   -1.3294 H   0  0  0  0  0  0  0  0  0  0  0  0
    2.3843   -1.1245   -0.2069 H   0  0  0  0  0  0  0  0  0  0  0  0
    4.6979    0.8319    0.1912 H   0  0  0  0  0  0  0  0  0  0  0  0
    4.4608   -0.7255    1.0206 H   0  0  0  0  0  0  0  0  0  0  0  0
    3.4612    0.7702    2.6523 H   0  0  0  0  0  0  0  0  0  0  0  0
    1.7710    2.5040    3.1831 H   0  0  0  0  0  0  0  0  0  0  0  0
   -0.4889    3.6471   -0.7008 H   0  0  0  0  0  0  0  0  0  0  0  0
   -1.6757    4.4695   -2.6943 H   0  0  0  0  0  0  0  0  0  0  0  0
   -2.3511    0.4393   -3.9457 H   0  0  0  0  0  0  0  0  0  0  0  0
   -1.1542   -0.3749   -1.9549 H   0  0  0  0  0  0  0  0  0  0  0  0
   -3.7000    3.0760   -4.4119 H   0  0  0  0  0  0  0  0  0  0  0  0
  1  2  1  0  0  0  0
  1 27  1  0  0  0  0
  1 28  1  0  0  0  0
  1 29  1  0  0  0  0
  2  3  1  0  0  0  0
  2 30  1  0  0  0  0
  2 31  1  0  0  0  0
  3  4  1  0  0  0  0
  4  8  2  0  0  0  0
  4  5  1  0  0  0  0
  5  6  2  0  0  0  0
  6 19  1  0  0  0  0
  6  7  1  0  0  0  0
  7  8  1  0  0  0  0
  7  9  1  0  0  0  0
  9 10  1  0  0  0  0
  9 11  1  0  0  0  0
  9 20  1  0  0  0  0
 11 12  1  0  0  0  0
 11 18  1  0  0  0  0
 11 13  1  0  0  0  0
 13 14  2  0  0  0  0
 13 15  1  0  0  0  0
 15 16  1  0  0  0  0
 15 32  1  0  0  0  0
 15 33  1  0  0  0  0
 16 17  1  0  0  0  0
 16 34  1  0  0  0  0
 16 35  1  0  0  0  0
 17 18  2  0  0  0  0
 17 36  1  0  0  0  0
 18 19  1  0  0  0  0
 19 37  1  0  0  0  0
 20 25  2  0  0  0  0
 20 21  1  0  0  0  0
 21 22  2  0  0  0  0
 21 38  1  0  0  0  0
 22 23  1  0  0  0  0
 22 39  1  0  0  0  0
 23 24  2  0  0  0  0
 23 26  1  0  0  0  0
 24 25  1  0  0  0  0
 24 40  1  0  0  0  0
 25 41  1  0  0  0  0
 26 42  1  0  0  0  0
M  END
$$$$
ZINC02245091
  -OEChem-08230709453D

 43 47  0     1  0  0  0  0  0999 V2000
   -0.5916   -2.6389   -0.0842 C   0  0  0  0  0  0  0  0  0  0  0  0
   -0.5790   -1.9598    1.1198 C   0  0  0  0  0  0  0  0  0  0  0  0
    0.0118   -0.7080    1.2035 C   0  0  0  0  0  0  0  0  0  0  0  0
    0.5917   -0.1378    0.0721 C   0  0  0  0  0  0  0  0  0  0  0  0
    0.5707   -0.8215   -1.1322 C   0  0  0  0  0  0  0  0  0  0  0  0
   -0.0159   -2.0727   -1.2074 C   0  0  0  0  0  0  0  0  0  0  0  0
   -0.0352   -2.9307   -2.7164 Cl  0  0  0  0  0  0  0  0  0  0  0  0
    1.1718    1.0896    0.1488 O   0  0  0  0  0  0  0  0  0  0  0  0
    0.0252   -0.0177    2.4234 N   0  0  0  0  0  0  0  0  0  0  0  0
   -0.0563   -0.6983    3.5838 C   0  0  0  0  0  0  0  0  0  0  0  0
   -0.0400   -1.9112    3.5779 O   0  0  0  0  0  0  0  0  0  0  0  0
   -0.1676    0.0474    4.8886 C   0  0  0  0  0  0  0  0  0  0  0  0
   -0.2412   -0.9110    5.9941 N   0  0  0  0  0  0  0  0  0  0  0  0
    0.8449   -1.3706    6.6285 C   0  0  0  0  0  0  0  0  0  0  0  0
    1.9896   -1.0614    6.3763 O   0  0  0  0  0  0  0  0  0  0  0  0
    0.4153   -2.3382    7.7102 C   0  0  1  0  0  0  0  0  0  0  0  0
    0.8378   -3.3277    7.5359 H   0  0  0  0  0  0  0  0  0  0  0  0
    0.8522   -1.7932    9.0767 C   0  0  1  0  0  0  0  0  0  0  0  0
    1.9365   -1.7172    9.1584 H   0  0  0  0  0  0  0  0  0  0  0  0
    0.1691   -0.4417    9.2528 C   0  0  0  0  0  0  0  0  0  0  0  0
   -1.1541   -0.4564    9.1499 C   0  0  0  0  0  0  0  0  0  0  0  0
   -1.7723   -1.8221    8.8729 C   0  0  1  0  0  0  0  0  0  0  0  0
   -2.8585   -1.7718    8.7976 H   0  0  0  0  0  0  0  0  0  0  0  0
   -1.1180   -2.3568    7.5919 C   0  0  1  0  0  0  0  0  0  0  0  0
   -1.4771   -3.3605    7.3645 H   0  0  0  0  0  0  0  0  0  0  0  0
   -1.4003   -1.3955    6.4574 C   0  0  0  0  0  0  0  0  0  0  0  0
   -2.5001   -1.1114    6.0341 O   0  0  0  0  0  0  0  0  0  0  0  0
   -1.3110   -2.7434   10.0340 C   0  0  2  0  0  0  0  0  0  0  0  0
   -1.9335   -2.7670   10.9284 H   0  0  0  0  0  0  0  0  0  0  0  0
    0.2375   -2.7266   10.1537 C   0  0  1  0  0  0  0  0  0  0  0  0
    0.7152   -2.7386   11.1334 H   0  0  0  0  0  0  0  0  0  0  0  0
   -0.5112   -3.9844    9.6324 C   0  0  0  0  0  0  0  0  0  0  0  0
   -1.0517   -3.6139   -0.1480 H   0  0  0  0  0  0  0  0  0  0  0  0
   -1.0288   -2.4042    1.9953 H   0  0  0  0  0  0  0  0  0  0  0  0
    1.0155   -0.3799   -2.0117 H   0  0  0  0  0  0  0  0  0  0  0  0
    2.1114    1.0670    0.3763 H   0  0  0  0  0  0  0  0  0  0  0  0
    0.0931    0.9499    2.4324 H   0  0  0  0  0  0  0  0  0  0  0  0
    0.7068    0.6852    5.0183 H   0  0  0  0  0  0  0  0  0  0  0  0
   -1.0677    0.6621    4.8801 H   0  0  0  0  0  0  0  0  0  0  0  0
    0.7232    0.4645    9.4482 H   0  0  0  0  0  0  0  0  0  0  0  0
   -1.7515    0.4371    9.2553 H   0  0  0  0  0  0  0  0  0  0  0  0
   -0.5579   -4.8477   10.2962 H   0  0  0  0  0  0  0  0  0  0  0  0
   -0.4414   -4.2137    8.5690 H   0  0  0  0  0  0  0  0  0  0  0  0
  1  6  2  0  0  0  0
  1  2  1  0  0  0  0
  1 33  1  0  0  0  0
  2  3  2  0  0  0  0
  2 34  1  0  0  0  0
  3  4  1  0  0  0  0
  3  9  1  0  0  0  0
  4  5  2  0  0  0  0
  4  8  1  0  0  0  0
  5  6  1  0  0  0  0
  5 35  1  0  0  0  0
  6  7  1  0  0  0  0
  8 36  1  0  0  0  0
  9 10  1  0  0  0  0
  9 37  1  0  0  0  0
 10 11  2  0  0  0  0
 10 12  1  0  0  0  0
 12 13  1  0  0  0  0
 12 38  1  0  0  0  0
 12 39  1  0  0  0  0
 13 26  1  0  0  0  0
 13 14  1  0  0  0  0
 14 15  2  0  0  0  0
 14 16  1  0  0  0  0
 16 17  1  0  0  0  0
 16 24  1  0  0  0  0
 16 18  1  0  0  0  0
 18 19  1  0  0  0  0
 18 30  1  0  0  0  0
 18 20  1  0  0  0  0
 20 21  2  0  0  0  0
 20 40  1  0  0  0  0
 21 22  1  0  0  0  0
 21 41  1  0  0  0  0
 22 23  1  0  0  0  0
 22 24  1  0  0  0  0
 22 28  1  0  0  0  0
 24 25  1  0  0  0  0
 24 26  1  0  0  0  0
 26 27  2  0  0  0  0
 28 29  1  0  0  0  0
 28 32  1  0  0  0  0
 28 30  1  0  0  0  0
 30 31  1  0  0  0  0
 30 32  1  0  0  0  0
 32 42  1  0  0  0  0
 32 43  1  0  0  0  0
M  END
$$$$
ZINC02245170
  -OEChem-08230709453D

 46 48  0     1  0  0  0  0  0999 V2000
    6.6103    1.3049   -2.4758 C   0  0  0  0  0  0  0  0  0  0  0  0
    6.2095    2.0109   -3.7725 C   0  0  0  0  0  0  0  0  0  0  0  0
    5.9898    3.4996   -3.4958 C   0  0  0  0  0  0  0  0  0  0  0  0
    5.6991    4.2253   -4.8110 C   0  0  0  0  0  0  0  0  0  0  0  0
    6.9373    4.1706   -5.7082 C   0  0  0  0  0  0  0  0  0  0  0  0
    4.8538    3.6647   -2.5856 N   0  0  0  0  0  0  0  0  0  0  0  0
    4.8956    4.2561   -1.3451 C   0  0  0  0  0  0  0  0  0  0  0  0
    3.6448    4.2043   -0.8383 C   0  0  0  0  0  0  0  0  0  0  0  0
    2.8184    3.5664   -1.7932 C   0  0  0  0  0  0  0  0  0  0  0  0
    3.5453    3.2484   -2.8291 N   0  0  0  0  0  0  0  0  0  0  0  0
    1.4877    3.3238   -1.6541 O   0  0  0  0  0  0  0  0  0  0  0  0
    3.1108    4.6946    0.4711 C   0  0  2  0  0  0  0  0  0  0  0  0
    2.8260    5.7410    0.3609 H   0  0  0  0  0  0  0  0  0  0  0  0
    4.2921    4.5576    1.8154 S   0  0  0  0  0  0  0  0  0  0  0  0
    5.6062    5.7269    1.4425 C   0  0  0  0  0  0  0  0  0  0  0  0
    6.4208    5.3264    0.2760 C   0  0  0  0  0  0  0  0  0  0  0  0
    7.6073    5.5561    0.3794 O   0  0  0  0  0  0  0  0  0  0  0  0
    6.0679    4.7679   -0.8427 N   0  0  0  0  0  0  0  0  0  0  0  0
    1.8830    3.8947    0.8227 C   0  0  0  0  0  0  0  0  0  0  0  0
    1.9863    2.5356    1.0542 C   0  0  0  0  0  0  0  0  0  0  0  0
    0.8602    1.8018    1.3763 C   0  0  0  0  0  0  0  0  0  0  0  0
   -0.3705    2.4260    1.4618 C   0  0  0  0  0  0  0  0  0  0  0  0
   -0.4729    3.7858    1.2360 C   0  0  0  0  0  0  0  0  0  0  0  0
    0.6535    4.5197    0.9134 C   0  0  0  0  0  0  0  0  0  0  0  0
   -1.7894    4.4552    1.3336 N   0  3  0  0  0  0  0  0  0  0  0  0
   -1.8805    5.6525    1.1297 O   0  0  0  0  0  0  0  0  0  0  0  0
   -2.7818    3.8086    1.6179 O   0  5  0  0  0  0  0  0  0  0  0  0
    5.7795    1.3400   -1.7711 H   0  0  0  0  0  0  0  0  0  0  0  0
    6.8612    0.2661   -2.6902 H   0  0  0  0  0  0  0  0  0  0  0  0
    7.4760    1.8056   -2.0421 H   0  0  0  0  0  0  0  0  0  0  0  0
    5.2877    1.5726   -4.1550 H   0  0  0  0  0  0  0  0  0  0  0  0
    7.0022    1.8918   -4.5111 H   0  0  0  0  0  0  0  0  0  0  0  0
    6.8856    3.9203   -3.0390 H   0  0  0  0  0  0  0  0  0  0  0  0
    4.8630    3.7415   -5.3159 H   0  0  0  0  0  0  0  0  0  0  0  0
    5.4461    5.2652   -4.6040 H   0  0  0  0  0  0  0  0  0  0  0  0
    6.7686    4.7775   -6.5977 H   0  0  0  0  0  0  0  0  0  0  0  0
    7.7985    4.5568   -5.1629 H   0  0  0  0  0  0  0  0  0  0  0  0
    7.1270    3.1385   -6.0030 H   0  0  0  0  0  0  0  0  0  0  0  0
    1.2838    2.4708   -1.2468 H   0  0  0  0  0  0  0  0  0  0  0  0
    5.1620    6.7019    1.2424 H   0  0  0  0  0  0  0  0  0  0  0  0
    6.2584    5.8108    2.3118 H   0  0  0  0  0  0  0  0  0  0  0  0
    6.8042    4.6948   -1.4700 H   0  0  0  0  0  0  0  0  0  0  0  0
    2.9469    2.0472    0.9830 H   0  0  0  0  0  0  0  0  0  0  0  0
    0.9408    0.7401    1.5568 H   0  0  0  0  0  0  0  0  0  0  0  0
   -1.2512    1.8519    1.7091 H   0  0  0  0  0  0  0  0  0  0  0  0
    0.5728    5.5814    0.7326 H   0  0  0  0  0  0  0  0  0  0  0  0
  1  2  1  0  0  0  0
  1 28  1  0  0  0  0
  1 29  1  0  0  0  0
  1 30  1  0  0  0  0
  2  3  1  0  0  0  0
  2 31  1  0  0  0  0
  2 32  1  0  0  0  0
  3  4  1  0  0  0  0
  3  6  1  0  0  0  0
  3 33  1  0  0  0  0
  4  5  1  0  0  0  0
  4 34  1  0  0  0  0
  4 35  1  0  0  0  0
  5 36  1  0  0  0  0
  5 37  1  0  0  0  0
  5 38  1  0  0  0  0
  6 10  1  0  0  0  0
  6  7  1  0  0  0  0
  7 18  1  0  0  0  0
  7  8  2  0  0  0  0
  8  9  1  0  0  0  0
  8 12  1  0  0  0  0
  9 10  2  0  0  0  0
  9 11  1  0  0  0  0
 11 39  1  0  0  0  0
 12 13  1  0  0  0  0
 12 14  1  0  0  0  0
 12 19  1  0  0  0  0
 14 15  1  0  0  0  0
 15 16  1  0  0  0  0
 15 40  1  0  0  0  0
 15 41  1  0  0  0  0
 16 17  2  0  0  0  0
 16 18  1  0  0  0  0
 18 42  1  0  0  0  0
 19 24  2  0  0  0  0
 19 20  1  0  0  0  0
 20 21  2  0  0  0  0
 20 43  1  0  0  0  0
 21 22  1  0  0  0  0
 21 44  1  0  0  0  0
 22 23  2  0  0  0  0
 22 45  1  0  0  0  0
 23 24  1  0  0  0  0
 23 25  1  0  0  0  0
 24 46  1  0  0  0  0
 25 26  2  0  0  0  0
 25 27  1  0  0  0  0
M  CHG  2  25   1  27  -1
M  END
$$$$
ZINC02245171
  -OEChem-08230709453D

 46 48  0     1  0  0  0  0  0999 V2000
    7.0206    2.0950    1.6461 C   0  0  0  0  0  0  0  0  0  0  0  0
    5.7980    1.7793    0.7821 C   0  0  0  0  0  0  0  0  0  0  0  0
    4.6253    2.6609    1.2161 C   0  0  0  0  0  0  0  0  0  0  0  0
    4.9560    4.1270    0.9292 C   0  0  0  0  0  0  0  0  0  0  0  0
    3.8389    5.0181    1.4758 C   0  0  0  0  0  0  0  0  0  0  0  0
    3.4237    2.2766    0.4714 N   0  0  0  0  0  0  0  0  0  0  0  0
    2.2482    1.8207    1.0199 C   0  0  0  0  0  0  0  0  0  0  0  0
    1.3980    1.5853   -0.0028 C   0  0  0  0  0  0  0  0  0  0  0  0
    2.0723    1.9011   -1.2058 C   0  0  0  0  0  0  0  0  0  0  0  0
    3.2763    2.3112   -0.9149 N   0  0  0  0  0  0  0  0  0  0  0  0
    1.5519    1.7948   -2.4576 O   0  0  0  0  0  0  0  0  0  0  0  0
   -0.0127    1.0858    0.0080 C   0  0  1  0  0  0  0  0  0  0  0  0
    0.0021   -0.0041    0.0020 H   0  0  0  0  0  0  0  0  0  0  0  0
   -0.9516    1.6413    1.4333 S   0  0  0  0  0  0  0  0  0  0  0  0
   -0.2163    0.8284    2.8590 C   0  0  0  0  0  0  0  0  0  0  0  0
    1.1397    1.3273    3.1709 C   0  0  0  0  0  0  0  0  0  0  0  0
    1.3870    1.4261    4.3542 O   0  0  0  0  0  0  0  0  0  0  0  0
    2.1091    1.6764    2.3795 N   0  0  0  0  0  0  0  0  0  0  0  0
   -0.7053    1.5660   -1.2413 C   0  0  0  0  0  0  0  0  0  0  0  0
   -0.8541    2.9210   -1.4719 C   0  0  0  0  0  0  0  0  0  0  0  0
   -1.4890    3.3614   -2.6178 C   0  0  0  0  0  0  0  0  0  0  0  0
   -1.9752    2.4469   -3.5336 C   0  0  0  0  0  0  0  0  0  0  0  0
   -1.8265    1.0923   -3.3032 C   0  0  0  0  0  0  0  0  0  0  0  0
   -1.1868    0.6518   -2.1593 C   0  0  0  0  0  0  0  0  0  0  0  0
   -2.3467    0.1132   -4.2838 N   0  3  0  0  0  0  0  0  0  0  0  0
   -2.9058    0.5012   -5.2939 O   0  0  0  0  0  0  0  0  0  0  0  0
   -2.2156   -1.0806   -4.0807 O   0  5  0  0  0  0  0  0  0  0  0  0
    6.7864    1.8989    2.6924 H   0  0  0  0  0  0  0  0  0  0  0  0
    7.8560    1.4669    1.3369 H   0  0  0  0  0  0  0  0  0  0  0  0
    7.2903    3.1441    1.5245 H   0  0  0  0  0  0  0  0  0  0  0  0
    5.5283    0.7302    0.9036 H   0  0  0  0  0  0  0  0  0  0  0  0
    6.0322    1.9753   -0.2643 H   0  0  0  0  0  0  0  0  0  0  0  0
    4.4484    2.5305    2.2837 H   0  0  0  0  0  0  0  0  0  0  0  0
    5.8979    4.3881    1.4116 H   0  0  0  0  0  0  0  0  0  0  0  0
    5.0455    4.2754   -0.1469 H   0  0  0  0  0  0  0  0  0  0  0  0
    4.0744    6.0626    1.2715 H   0  0  0  0  0  0  0  0  0  0  0  0
    2.8969    4.7570    0.9934 H   0  0  0  0  0  0  0  0  0  0  0  0
    3.7493    4.8697    2.5519 H   0  0  0  0  0  0  0  0  0  0  0  0
    1.1057    2.5948   -2.7673 H   0  0  0  0  0  0  0  0  0  0  0  0
   -0.1599   -0.2423    2.6628 H   0  0  0  0  0  0  0  0  0  0  0  0
   -0.8579    0.9908    3.7251 H   0  0  0  0  0  0  0  0  0  0  0  0
    2.9253    1.8841    2.8608 H   0  0  0  0  0  0  0  0  0  0  0  0
   -0.4740    3.6354   -0.7567 H   0  0  0  0  0  0  0  0  0  0  0  0
   -1.6049    4.4199   -2.7981 H   0  0  0  0  0  0  0  0  0  0  0  0
   -2.4710    2.7910   -4.4293 H   0  0  0  0  0  0  0  0  0  0  0  0
   -1.0666   -0.4066   -1.9814 H   0  0  0  0  0  0  0  0  0  0  0  0
  1  2  1  0  0  0  0
  1 28  1  0  0  0  0
  1 29  1  0  0  0  0
  1 30  1  0  0  0  0
  2  3  1  0  0  0  0
  2 31  1  0  0  0  0
  2 32  1  0  0  0  0
  3  4  1  0  0  0  0
  3  6  1  0  0  0  0
  3 33  1  0  0  0  0
  4  5  1  0  0  0  0
  4 34  1  0  0  0  0
  4 35  1  0  0  0  0
  5 36  1  0  0  0  0
  5 37  1  0  0  0  0
  5 38  1  0  0  0  0
  6 10  1  0  0  0  0
  6  7  1  0  0  0  0
  7 18  1  0  0  0  0
  7  8  2  0  0  0  0
  8  9  1  0  0  0  0
  8 12  1  0  0  0  0
  9 10  2  0  0  0  0
  9 11  1  0  0  0  0
 11 39  1  0  0  0  0
 12 13  1  0  0  0  0
 12 14  1  0  0  0  0
 12 19  1  0  0  0  0
 14 15  1  0  0  0  0
 15 16  1  0  0  0  0
 15 40  1  0  0  0  0
 15 41  1  0  0  0  0
 16 17  2  0  0  0  0
 16 18  1  0  0  0  0
 18 42  1  0  0  0  0
 19 24  2  0  0  0  0
 19 20  1  0  0  0  0
 20 21  2  0  0  0  0
 20 43  1  0  0  0  0
 21 22  1  0  0  0  0
 21 44  1  0  0  0  0
 22 23  2  0  0  0  0
 22 45  1  0  0  0  0
 23 24  1  0  0  0  0
 23 25  1  0  0  0  0
 24 46  1  0  0  0  0
 25 26  2  0  0  0  0
 25 27  1  0  0  0  0
M  CHG  2  25   1  27  -1
M  END
$$$$
ZINC02263915
  -OEChem-08230709453D

 44 45  0     0  0  0  0  0  0999 V2000
   -5.9364   -1.3792    0.1117 C   0  0  0  0  0  0  0  0  0  0  0  0
   -4.6461   -0.6102   -0.0106 C   0  0  0  0  0  0  0  0  0  0  0  0
   -3.5080   -1.1680    0.3579 C   0  0  0  0  0  0  0  0  0  0  0  0
   -3.4989   -2.5737    0.9010 C   0  0  0  0  0  0  0  0  0  0  0  0
   -3.0938   -2.5129    2.3616 C   0  0  0  0  0  0  0  0  0  0  0  0
   -3.7278   -1.8608    3.1632 O   0  0  0  0  0  0  0  0  0  0  0  0
   -2.0008   -3.2114    2.7356 N   0  0  0  0  0  0  0  0  0  0  0  0
   -1.2904   -3.9356    1.8634 C   0  0  0  0  0  0  0  0  0  0  0  0
   -0.3210   -4.5336    2.2859 O   0  0  0  0  0  0  0  0  0  0  0  0
   -1.5693   -4.0490    0.5598 N   0  0  0  0  0  0  0  0  0  0  0  0
   -2.6249   -3.4230   -0.0024 C   0  0  0  0  0  0  0  0  0  0  0  0
   -2.8658   -3.5357   -1.1852 O   0  0  0  0  0  0  0  0  0  0  0  0
   -0.7034   -4.8778   -0.2827 C   0  0  0  0  0  0  0  0  0  0  0  0
   -1.5806   -3.1761    4.1386 C   0  0  0  0  0  0  0  0  0  0  0  0
   -2.3187   -0.4592    0.2452 N   0  0  0  0  0  0  0  0  0  0  0  0
   -2.3271    0.8477   -0.2596 N   0  0  0  0  0  0  0  0  0  0  0  0
   -1.1732    1.5353   -0.3690 C   0  0  0  0  0  0  0  0  0  0  0  0
   -1.1836    3.1323   -0.9859 S   0  0  0  0  0  0  0  0  0  0  0  0
   -0.0111    0.9658    0.0074 N   0  0  0  0  0  0  0  0  0  0  0  0
    1.1746    1.7074   -0.0269 C   0  0  0  0  0  0  0  0  0  0  0  0
    1.4754    2.4881   -1.1354 C   0  0  0  0  0  0  0  0  0  0  0  0
    2.6441    3.2235   -1.1636 C   0  0  0  0  0  0  0  0  0  0  0  0
    3.5195    3.1746   -0.0943 C   0  0  0  0  0  0  0  0  0  0  0  0
    3.2259    2.3934    1.0083 C   0  0  0  0  0  0  0  0  0  0  0  0
    2.0562    1.6601    1.0452 C   0  0  0  0  0  0  0  0  0  0  0  0
   -5.8787   -2.2842   -0.4931 H   0  0  0  0  0  0  0  0  0  0  0  0
   -6.1011   -1.6491    1.1548 H   0  0  0  0  0  0  0  0  0  0  0  0
   -6.7627   -0.7604   -0.2383 H   0  0  0  0  0  0  0  0  0  0  0  0
   -4.6526    0.3972   -0.3998 H   0  0  0  0  0  0  0  0  0  0  0  0
   -4.5165   -2.9610    0.8501 H   0  0  0  0  0  0  0  0  0  0  0  0
    0.1016   -4.2656   -0.6894 H   0  0  0  0  0  0  0  0  0  0  0  0
   -0.2796   -5.6848    0.3150 H   0  0  0  0  0  0  0  0  0  0  0  0
   -1.2878   -5.2995   -1.1004 H   0  0  0  0  0  0  0  0  0  0  0  0
   -0.6889   -3.7897    4.2663 H   0  0  0  0  0  0  0  0  0  0  0  0
   -1.3586   -2.1483    4.4256 H   0  0  0  0  0  0  0  0  0  0  0  0
   -2.3818   -3.5640    4.7677 H   0  0  0  0  0  0  0  0  0  0  0  0
   -1.4823   -0.8691    0.5161 H   0  0  0  0  0  0  0  0  0  0  0  0
   -3.1635    1.2576   -0.5305 H   0  0  0  0  0  0  0  0  0  0  0  0
    0.0038    0.0406    0.2981 H   0  0  0  0  0  0  0  0  0  0  0  0
    0.7940    2.5235   -1.9726 H   0  0  0  0  0  0  0  0  0  0  0  0
    2.8764    3.8343   -2.0235 H   0  0  0  0  0  0  0  0  0  0  0  0
    4.4347    3.7474   -0.1206 H   0  0  0  0  0  0  0  0  0  0  0  0
    3.9119    2.3571    1.8417 H   0  0  0  0  0  0  0  0  0  0  0  0
    1.8275    1.0502    1.9067 H   0  0  0  0  0  0  0  0  0  0  0  0
  1  2  1  0  0  0  0
  1 26  1  0  0  0  0
  1 27  1  0  0  0  0
  1 28  1  0  0  0  0
  2  3  2  0  0  0  0
  2 29  1  0  0  0  0
  3  4  1  0  0  0  0
  3 15  1  0  0  0  0
  4 11  1  0  0  0  0
  4  5  1  0  0  0  0
  4 30  1  0  0  0  0
  5  6  2  0  0  0  0
  5  7  1  0  0  0  0
  7  8  1  0  0  0  0
  7 14  1  0  0  0  0
  8  9  2  0  0  0  0
  8 10  1  0  0  0  0
 10 11  1  0  0  0  0
 10 13  1  0  0  0  0
 11 12  2  0  0  0  0
 13 31  1  0  0  0  0
 13 32  1  0  0  0  0
 13 33  1  0  0  0  0
 14 34  1  0  0  0  0
 14 35  1  0  0  0  0
 14 36  1  0  0  0  0
 15 16  1  0  0  0  0
 15 37  1  0  0  0  0
 16 17  1  0  0  0  0
 16 38  1  0  0  0  0
 17 18  2  0  0  0  0
 17 19  1  0  0  0  0
 19 20  1  0  0  0  0
 19 39  1  0  0  0  0
 20 25  2  0  0  0  0
 20 21  1  0  0  0  0
 21 22  2  0  0  0  0
 21 40  1  0  0  0  0
 22 23  1  0  0  0  0
 22 41  1  0  0  0  0
 23 24  2  0  0  0  0
 23 42  1  0  0  0  0
 24 25  1  0  0  0  0
 24 43  1  0  0  0  0
 25 44  1  0  0  0  0
M  END
$$$$
ZINC02270859
  -OEChem-08230709453D

 43 45  0     0  0  0  0  0  0999 V2000
   -0.5834   -0.1025    0.0642 C   0  0  0  0  0  0  0  0  0  0  0  0
   -0.4560    1.4221    0.0794 C   0  0  0  0  0  0  0  0  0  0  0  0
   -1.0653    2.0039   -1.1886 C   0  0  0  0  0  0  0  0  0  0  0  0
   -1.1626    3.5004   -1.1766 C   0  0  0  0  0  0  0  0  0  0  0  0
   -1.1651    4.3201   -0.0864 C   0  0  0  0  0  0  0  0  0  0  0  0
   -1.2929    5.7123   -0.2774 C   0  0  0  0  0  0  0  0  0  0  0  0
   -1.3780    5.4971   -2.5681 C   0  0  0  0  0  0  0  0  0  0  0  0
   -1.2661    4.1054   -2.4543 C   0  0  0  0  0  0  0  0  0  0  0  0
   -1.2559    3.2914   -3.6324 C   0  0  0  0  0  0  0  0  0  0  0  0
   -1.2478    2.6457   -4.5669 N   0  0  0  0  0  0  0  0  0  0  0  0
   -1.4727    6.0831   -3.8184 N   0  0  0  0  0  0  0  0  0  0  0  0
   -1.5897    7.5385   -3.9383 C   0  0  0  0  0  0  0  0  0  0  0  0
   -1.6780    7.9229   -5.4166 C   0  0  0  0  0  0  0  0  0  0  0  0
   -2.8854    7.3994   -5.9736 O   0  0  0  0  0  0  0  0  0  0  0  0
   -1.3160    6.5953    0.9029 C   0  0  0  0  0  0  0  0  0  0  0  0
   -2.1402    7.6638    1.0861 C   0  0  0  0  0  0  0  0  0  0  0  0
   -1.8205    8.2113    2.3424 C   0  0  0  0  0  0  0  0  0  0  0  0
   -0.8277    7.4596    2.8607 C   0  0  0  0  0  0  0  0  0  0  0  0
   -0.5293    6.4821    1.9912 O   0  0  0  0  0  0  0  0  0  0  0  0
   -1.0166    3.8772    1.3477 C   0  0  0  0  0  0  0  0  0  0  0  0
   -1.3729    2.1046    1.4974 S   0  0  0  0  0  0  0  0  0  0  0  0
    1.0187    1.8184    0.1756 C   0  0  0  0  0  0  0  0  0  0  0  0
   -0.1596   -0.5117    0.9812 H   0  0  0  0  0  0  0  0  0  0  0  0
   -1.6357   -0.3784   -0.0045 H   0  0  0  0  0  0  0  0  0  0  0  0
   -0.0459   -0.5035   -0.7951 H   0  0  0  0  0  0  0  0  0  0  0  0
   -0.4551    1.7010   -2.0394 H   0  0  0  0  0  0  0  0  0  0  0  0
   -2.0667    1.5924   -1.3147 H   0  0  0  0  0  0  0  0  0  0  0  0
   -1.4617    5.5301   -4.6152 H   0  0  0  0  0  0  0  0  0  0  0  0
   -2.4884    7.8746   -3.4212 H   0  0  0  0  0  0  0  0  0  0  0  0
   -0.7151    8.0113   -3.4915 H   0  0  0  0  0  0  0  0  0  0  0  0
   -1.6756    9.0089   -5.5104 H   0  0  0  0  0  0  0  0  0  0  0  0
   -0.8224    7.5101   -5.9511 H   0  0  0  0  0  0  0  0  0  0  0  0
   -3.0078    7.6052   -6.9105 H   0  0  0  0  0  0  0  0  0  0  0  0
   -2.8936    8.0216    0.4000 H   0  0  0  0  0  0  0  0  0  0  0  0
   -2.2826    9.0713    2.8043 H   0  0  0  0  0  0  0  0  0  0  0  0
   -0.3541    7.6161    3.8186 H   0  0  0  0  0  0  0  0  0  0  0  0
    0.0034    4.0688    1.6810 H   0  0  0  0  0  0  0  0  0  0  0  0
   -1.7120    4.4375    1.9726 H   0  0  0  0  0  0  0  0  0  0  0  0
    1.5587    1.4204   -0.6834 H   0  0  0  0  0  0  0  0  0  0  0  0
    1.1029    2.9051    0.1861 H   0  0  0  0  0  0  0  0  0  0  0  0
    1.4450    1.4122    1.0929 H   0  0  0  0  0  0  0  0  0  0  0  0
   -1.3991    6.3253   -1.4897 N   0  3  0  0  0  0  0  0  0  0  0  0
   -1.4891    7.3438   -1.5827 H   0  0  0  0  0  0  0  0  0  0  0  0
  1  2  1  0  0  0  0
  1 23  1  0  0  0  0
  1 24  1  0  0  0  0
  1 25  1  0  0  0  0
  2 21  1  0  0  0  0
  2  3  1  0  0  0  0
  2 22  1  0  0  0  0
  3  4  1  0  0  0  0
  3 26  1  0  0  0  0
  3 27  1  0  0  0  0
  4  8  2  0  0  0  0
  4  5  1  0  0  0  0
  5  6  2  0  0  0  0
  5 20  1  0  0  0  0
  6 15  1  0  0  0  0
  6 42  1  0  0  0  0
  7  8  1  0  0  0  0
  7 11  1  0  0  0  0
  7 42  2  0  0  0  0
  8  9  1  0  0  0  0
  9 10  3  0  0  0  0
 11 12  1  0  0  0  0
 11 28  1  0  0  0  0
 12 13  1  0  0  0  0
 12 29  1  0  0  0  0
 12 30  1  0  0  0  0
 13 14  1  0  0  0  0
 13 31  1  0  0  0  0
 13 32  1  0  0  0  0
 14 33  1  0  0  0  0
 15 19  1  0  0  0  0
 15 16  2  0  0  0  0
 16 17  1  0  0  0  0
 16 34  1  0  0  0  0
 17 18  2  0  0  0  0
 17 35  1  0  0  0  0
 18 19  1  0  0  0  0
 18 36  1  0  0  0  0
 20 21  1  0  0  0  0
 20 37  1  0  0  0  0
 20 38  1  0  0  0  0
 22 39  1  0  0  0  0
 22 40  1  0  0  0  0
 22 41  1  0  0  0  0
 42 43  1  0  0  0  0
M  CHG  1  42   1
M  END
$$$$
ZINC02281331
  -OEChem-08230709453D

 48 51  0     0  0  0  0  0  0999 V2000
    1.9904    0.1753    1.9127 C   0  0  0  0  0  0  0  0  0  0  0  0
    2.3482    0.2346    0.4263 C   0  0  0  0  0  0  0  0  0  0  0  0
    2.4622    1.6978   -0.0105 C   0  0  0  0  0  0  0  0  0  0  0  0
    1.0628    2.3089    0.0043 C   0  0  0  0  0  0  0  0  0  0  0  0
   -0.0182    1.4924    0.0102 C   0  0  0  0  0  0  0  0  0  0  0  0
   -1.4198    2.5775    0.0218 S   0  0  0  0  0  0  0  0  0  0  0  0
   -0.5584    4.1187    0.0269 C   0  0  0  0  0  0  0  0  0  0  0  0
    0.8035    3.7363    0.0124 C   0  0  0  0  0  0  0  0  0  0  0  0
    1.7770    4.7881    0.0067 C   0  0  0  0  0  0  0  0  0  0  0  0
    2.9746    4.5609   -0.0054 O   0  0  0  0  0  0  0  0  0  0  0  0
    1.2854    6.0494    0.0161 N   0  0  0  0  0  0  0  0  0  0  0  0
   -0.0467    6.3258    0.0300 C   0  0  0  0  0  0  0  0  0  0  0  0
   -0.9743    5.3792    0.0356 N   0  0  0  0  0  0  0  0  0  0  0  0
   -0.4464    7.6390    0.0391 N   0  0  0  0  0  0  0  0  0  0  0  0
   -1.7769    7.9479    0.0536 N   0  0  0  0  0  0  0  0  0  0  0  0
    2.2312    7.1681    0.0114 C   0  0  0  0  0  0  0  0  0  0  0  0
    2.5744    7.5519    1.4522 C   0  0  0  0  0  0  0  0  0  0  0  0
    3.5473    8.7027    1.4474 C   0  0  0  0  0  0  0  0  0  0  0  0
    4.9078    8.4576    1.4390 C   0  0  0  0  0  0  0  0  0  0  0  0
    5.8002    9.5132    1.4293 C   0  0  0  0  0  0  0  0  0  0  0  0
    5.3323   10.8139    1.4389 C   0  0  0  0  0  0  0  0  0  0  0  0
    3.9719   11.0590    1.4530 C   0  0  0  0  0  0  0  0  0  0  0  0
    3.0795   10.0034    1.4570 C   0  0  0  0  0  0  0  0  0  0  0  0
    0.0021   -0.0041    0.0020 C   0  0  0  0  0  0  0  0  0  0  0  0
    1.3330   -0.4278   -0.3326 O   0  0  0  0  0  0  0  0  0  0  0  0
    3.6895   -0.4657    0.1991 C   0  0  0  0  0  0  0  0  0  0  0  0
    1.9205   -0.8656    2.2283 H   0  0  0  0  0  0  0  0  0  0  0  0
    2.7631    0.6798    2.4928 H   0  0  0  0  0  0  0  0  0  0  0  0
    1.0327    0.6696    2.0758 H   0  0  0  0  0  0  0  0  0  0  0  0
    3.1075    2.2391    0.6815 H   0  0  0  0  0  0  0  0  0  0  0  0
    2.8766    1.7500   -1.0173 H   0  0  0  0  0  0  0  0  0  0  0  0
    0.2160    8.3476    0.0352 H   0  0  0  0  0  0  0  0  0  0  0  0
   -1.9161    8.9473    0.0588 H   0  0  0  0  0  0  0  0  0  0  0  0
   -2.2559    7.5202   -0.7247 H   0  0  0  0  0  0  0  0  0  0  0  0
    3.1404    6.8730   -0.5123 H   0  0  0  0  0  0  0  0  0  0  0  0
    1.7813    8.0222   -0.4947 H   0  0  0  0  0  0  0  0  0  0  0  0
    1.6652    7.8470    1.9760 H   0  0  0  0  0  0  0  0  0  0  0  0
    3.0243    6.6978    1.9584 H   0  0  0  0  0  0  0  0  0  0  0  0
    5.2733    7.4413    1.4360 H   0  0  0  0  0  0  0  0  0  0  0  0
    6.8630    9.3217    1.4179 H   0  0  0  0  0  0  0  0  0  0  0  0
    6.0296   11.6387    1.4350 H   0  0  0  0  0  0  0  0  0  0  0  0
    3.6064   12.0752    1.4605 H   0  0  0  0  0  0  0  0  0  0  0  0
    2.0166   10.1949    1.4680 H   0  0  0  0  0  0  0  0  0  0  0  0
   -0.2678   -0.3817    0.9883 H   0  0  0  0  0  0  0  0  0  0  0  0
   -0.7023   -0.3780   -0.7410 H   0  0  0  0  0  0  0  0  0  0  0  0
    3.9439   -0.4287   -0.8601 H   0  0  0  0  0  0  0  0  0  0  0  0
    4.4646    0.0378    0.7768 H   0  0  0  0  0  0  0  0  0  0  0  0
    3.6154   -1.5051    0.5189 H   0  0  0  0  0  0  0  0  0  0  0  0
  1  2  1  0  0  0  0
  1 27  1  0  0  0  0
  1 28  1  0  0  0  0
  1 29  1  0  0  0  0
  2 25  1  0  0  0  0
  2  3  1  0  0  0  0
  2 26  1  0  0  0  0
  3  4  1  0  0  0  0
  3 30  1  0  0  0  0
  3 31  1  0  0  0  0
  4  8  1  0  0  0  0
  4  5  2  0  0  0  0
  5  6  1  0  0  0  0
  5 24  1  0  0  0  0
  6  7  1  0  0  0  0
  7 13  1  0  0  0  0
  7  8  2  0  0  0  0
  8  9  1  0  0  0  0
  9 10  2  0  0  0  0
  9 11  1  0  0  0  0
 11 12  1  0  0  0  0
 11 16  1  0  0  0  0
 12 13  2  0  0  0  0
 12 14  1  0  0  0  0
 14 15  1  0  0  0  0
 14 32  1  0  0  0  0
 15 33  1  0  0  0  0
 15 34  1  0  0  0  0
 16 17  1  0  0  0  0
 16 35  1  0  0  0  0
 16 36  1  0  0  0  0
 17 18  1  0  0  0  0
 17 37  1  0  0  0  0
 17 38  1  0  0  0  0
 18 23  2  0  0  0  0
 18 19  1  0  0  0  0
 19 20  2  0  0  0  0
 19 39  1  0  0  0  0
 20 21  1  0  0  0  0
 20 40  1  0  0  0  0
 21 22  2  0  0  0  0
 21 41  1  0  0  0  0
 22 23  1  0  0  0  0
 22 42  1  0  0  0  0
 23 43  1  0  0  0  0
 24 25  1  0  0  0  0
 24 44  1  0  0  0  0
 24 45  1  0  0  0  0
 26 46  1  0  0  0  0
 26 47  1  0  0  0  0
 26 48  1  0  0  0  0
M  END
$$$$
ZINC02288985
  -OEChem-08230709453D

 45 47  0     1  0  0  0  0  0999 V2000
   -7.8683   -0.3612    1.9468 C   0  0  0  0  0  0  0  0  0  0  0  0
   -7.2303    0.2022    3.0947 O   0  0  0  0  0  0  0  0  0  0  0  0
   -6.0391    0.8270    2.8946 C   0  0  0  0  0  0  0  0  0  0  0  0
   -5.4966    0.8959    1.6203 C   0  0  0  0  0  0  0  0  0  0  0  0
   -4.2859    1.5308    1.4159 C   0  0  0  0  0  0  0  0  0  0  0  0
   -3.6081    2.0940    2.4808 C   0  0  0  0  0  0  0  0  0  0  0  0
   -4.1462    2.0340    3.7574 C   0  0  0  0  0  0  0  0  0  0  0  0
   -5.3635    1.3970    3.9671 C   0  0  0  0  0  0  0  0  0  0  0  0
   -5.8923    1.3312    5.2193 O   0  0  0  0  0  0  0  0  0  0  0  0
   -5.5342    0.2004    6.0162 C   0  0  0  0  0  0  0  0  0  0  0  0
   -3.4813    2.5934    4.8036 O   0  0  0  0  0  0  0  0  0  0  0  0
   -2.2359    3.2315    4.5142 C   0  0  0  0  0  0  0  0  0  0  0  0
   -3.7003    1.6037    0.0292 C   0  0  1  0  0  0  0  0  0  0  0  0
   -4.3675    1.0983   -0.6691 H   0  0  0  0  0  0  0  0  0  0  0  0
   -3.5548    3.0468   -0.3756 C   0  0  0  0  0  0  0  0  0  0  0  0
   -4.6745    3.7595   -0.7677 C   0  0  0  0  0  0  0  0  0  0  0  0
   -4.5611    5.0832   -1.1425 C   0  0  0  0  0  0  0  0  0  0  0  0
   -3.3183    5.7050   -1.1267 C   0  0  0  0  0  0  0  0  0  0  0  0
   -2.1948    4.9930   -0.7338 C   0  0  0  0  0  0  0  0  0  0  0  0
   -2.3124    3.6616   -0.3571 C   0  0  0  0  0  0  0  0  0  0  0  0
   -1.2043    2.9792    0.0294 O   0  0  0  0  0  0  0  0  0  0  0  0
   -1.2090    1.6359    0.0167 C   0  0  0  0  0  0  0  0  0  0  0  0
   -2.3604    0.9233    0.0183 C   0  0  0  0  0  0  0  0  0  0  0  0
   -2.3000   -0.5074    0.0089 C   0  0  0  0  0  0  0  0  0  0  0  0
   -2.2521   -1.6424    0.0014 N   0  0  0  0  0  0  0  0  0  0  0  0
   -0.0111    0.9658    0.0074 N   0  0  0  0  0  0  0  0  0  0  0  0
   -3.2011    7.0444   -1.5051 N   0  0  0  0  0  0  0  0  0  0  0  0
   -8.8070   -0.8279    2.2452 H   0  0  0  0  0  0  0  0  0  0  0  0
   -8.0688    0.4257    1.2197 H   0  0  0  0  0  0  0  0  0  0  0  0
   -7.2156   -1.1111    1.4998 H   0  0  0  0  0  0  0  0  0  0  0  0
   -6.0210    0.4532    0.7863 H   0  0  0  0  0  0  0  0  0  0  0  0
   -2.6603    2.5853    2.3176 H   0  0  0  0  0  0  0  0  0  0  0  0
   -5.8537   -0.7132    5.5149 H   0  0  0  0  0  0  0  0  0  0  0  0
   -4.4530    0.1804    6.1534 H   0  0  0  0  0  0  0  0  0  0  0  0
   -6.0225    0.2714    6.9881 H   0  0  0  0  0  0  0  0  0  0  0  0
   -2.3993    4.0420    3.8040 H   0  0  0  0  0  0  0  0  0  0  0  0
   -1.8116    3.6343    5.4339 H   0  0  0  0  0  0  0  0  0  0  0  0
   -1.5467    2.5049    4.0839 H   0  0  0  0  0  0  0  0  0  0  0  0
   -5.6410    3.2778   -0.7809 H   0  0  0  0  0  0  0  0  0  0  0  0
   -5.4377    5.6353   -1.4475 H   0  0  0  0  0  0  0  0  0  0  0  0
   -1.2282    5.4743   -0.7203 H   0  0  0  0  0  0  0  0  0  0  0  0
    0.0021   -0.0041    0.0020 H   0  0  0  0  0  0  0  0  0  0  0  0
    0.8223    1.4622    0.0021 H   0  0  0  0  0  0  0  0  0  0  0  0
   -3.9876    7.5415   -1.7794 H   0  0  0  0  0  0  0  0  0  0  0  0
   -2.3332    7.4774   -1.4937 H   0  0  0  0  0  0  0  0  0  0  0  0
  1  2  1  0  0  0  0
  1 28  1  0  0  0  0
  1 29  1  0  0  0  0
  1 30  1  0  0  0  0
  2  3  1  0  0  0  0
  3  8  2  0  0  0  0
  3  4  1  0  0  0  0
  4  5  2  0  0  0  0
  4 31  1  0  0  0  0
  5  6  1  0  0  0  0
  5 13  1  0  0  0  0
  6  7  2  0  0  0  0
  6 32  1  0  0  0  0
  7  8  1  0  0  0  0
  7 11  1  0  0  0  0
  8  9  1  0  0  0  0
  9 10  1  0  0  0  0
 10 33  1  0  0  0  0
 10 34  1  0  0  0  0
 10 35  1  0  0  0  0
 11 12  1  0  0  0  0
 12 36  1  0  0  0  0
 12 37  1  0  0  0  0
 12 38  1  0  0  0  0
 13 14  1  0  0  0  0
 13 23  1  0  0  0  0
 13 15  1  0  0  0  0
 15 20  2  0  0  0  0
 15 16  1  0  0  0  0
 16 17  2  0  0  0  0
 16 39  1  0  0  0  0
 17 18  1  0  0  0  0
 17 40  1  0  0  0  0
 18 19  2  0  0  0  0
 18 27  1  0  0  0  0
 19 20  1  0  0  0  0
 19 41  1  0  0  0  0
 20 21  1  0  0  0  0
 21 22  1  0  0  0  0
 22 23  2  0  0  0  0
 22 26  1  0  0  0  0
 23 24  1  0  0  0  0
 24 25  3  0  0  0  0
 26 42  1  0  0  0  0
 26 43  1  0  0  0  0
 27 44  1  0  0  0  0
 27 45  1  0  0  0  0
M  END
$$$$
ZINC02288986
  -OEChem-08230709453D

 45 47  0     1  0  0  0  0  0999 V2000
   -3.6054    2.1086    0.0301 C   0  0  0  0  0  0  0  0  0  0  0  0
   -2.3983    1.3439    0.0202 O   0  0  0  0  0  0  0  0  0  0  0  0
   -1.2282    2.0371    0.0189 C   0  0  0  0  0  0  0  0  0  0  0  0
   -1.2426    3.4236    0.0324 C   0  0  0  0  0  0  0  0  0  0  0  0
   -0.0540    4.1291    0.0244 C   0  0  0  0  0  0  0  0  0  0  0  0
    1.1534    3.4562    0.0097 C   0  0  0  0  0  0  0  0  0  0  0  0
    1.1765    2.0698    0.0019 C   0  0  0  0  0  0  0  0  0  0  0  0
   -0.0164    1.3567    0.0095 C   0  0  0  0  0  0  0  0  0  0  0  0
    0.0021   -0.0041    0.0020 O   0  0  0  0  0  0  0  0  0  0  0  0
    0.0230   -0.6596    1.2716 C   0  0  0  0  0  0  0  0  0  0  0  0
    2.3649    1.4087   -0.0126 O   0  0  0  0  0  0  0  0  0  0  0  0
    3.5508    2.2060   -0.0196 C   0  0  0  0  0  0  0  0  0  0  0  0
   -0.0744    5.6360    0.0322 C   0  0  2  0  0  0  0  0  0  0  0  0
    0.9490    6.0110    0.0245 H   0  0  0  0  0  0  0  0  0  0  0  0
   -0.7733    6.1189    1.2756 C   0  0  0  0  0  0  0  0  0  0  0  0
   -0.1072    6.0818    2.4882 C   0  0  0  0  0  0  0  0  0  0  0  0
   -0.7311    6.5204    3.6388 C   0  0  0  0  0  0  0  0  0  0  0  0
   -2.0337    7.0015    3.5819 C   0  0  0  0  0  0  0  0  0  0  0  0
   -2.7034    7.0394    2.3678 C   0  0  0  0  0  0  0  0  0  0  0  0
   -2.0729    6.5972    1.2123 C   0  0  0  0  0  0  0  0  0  0  0  0
   -2.7413    6.6410    0.0333 O   0  0  0  0  0  0  0  0  0  0  0  0
   -2.0613    6.5965   -1.1244 C   0  0  0  0  0  0  0  0  0  0  0  0
   -0.7950    6.1304   -1.1904 C   0  0  0  0  0  0  0  0  0  0  0  0
   -0.1254    6.1089   -2.4560 C   0  0  0  0  0  0  0  0  0  0  0  0
    0.4057    6.0918   -3.4601 N   0  0  0  0  0  0  0  0  0  0  0  0
   -2.6715    7.0363   -2.2726 N   0  0  0  0  0  0  0  0  0  0  0  0
   -2.6669    7.4464    4.7446 N   0  0  0  0  0  0  0  0  0  0  0  0
   -4.4623    1.4350    0.0301 H   0  0  0  0  0  0  0  0  0  0  0  0
   -3.6333    2.7319    0.9239 H   0  0  0  0  0  0  0  0  0  0  0  0
   -3.6413    2.7423   -0.8561 H   0  0  0  0  0  0  0  0  0  0  0  0
   -2.1839    3.9530    0.0443 H   0  0  0  0  0  0  0  0  0  0  0  0
    2.0800    4.0111    0.0038 H   0  0  0  0  0  0  0  0  0  0  0  0
   -0.8655   -0.3818    1.8386 H   0  0  0  0  0  0  0  0  0  0  0  0
    0.0363   -1.7393    1.1229 H   0  0  0  0  0  0  0  0  0  0  0  0
    0.9142   -0.3576    1.8218 H   0  0  0  0  0  0  0  0  0  0  0  0
    3.5573    2.8396   -0.9065 H   0  0  0  0  0  0  0  0  0  0  0  0
    3.5740    2.8306    0.8734 H   0  0  0  0  0  0  0  0  0  0  0  0
    4.4256    1.5559   -0.0311 H   0  0  0  0  0  0  0  0  0  0  0  0
    0.9051    5.7085    2.5344 H   0  0  0  0  0  0  0  0  0  0  0  0
   -0.2072    6.4899    4.5827 H   0  0  0  0  0  0  0  0  0  0  0  0
   -3.7156    7.4131    2.3212 H   0  0  0  0  0  0  0  0  0  0  0  0
   -3.5807    7.3728   -2.2402 H   0  0  0  0  0  0  0  0  0  0  0  0
   -2.1936    7.0106   -3.1163 H   0  0  0  0  0  0  0  0  0  0  0  0
   -2.1975    7.4198    5.5930 H   0  0  0  0  0  0  0  0  0  0  0  0
   -3.5760    7.7821    4.7036 H   0  0  0  0  0  0  0  0  0  0  0  0
  1  2  1  0  0  0  0
  1 28  1  0  0  0  0
  1 29  1  0  0  0  0
  1 30  1  0  0  0  0
  2  3  1  0  0  0  0
  3  8  2  0  0  0  0
  3  4  1  0  0  0  0
  4  5  2  0  0  0  0
  4 31  1  0  0  0  0
  5  6  1  0  0  0  0
  5 13  1  0  0  0  0
  6  7  2  0  0  0  0
  6 32  1  0  0  0  0
  7  8  1  0  0  0  0
  7 11  1  0  0  0  0
  8  9  1  0  0  0  0
  9 10  1  0  0  0  0
 10 33  1  0  0  0  0
 10 34  1  0  0  0  0
 10 35  1  0  0  0  0
 11 12  1  0  0  0  0
 12 36  1  0  0  0  0
 12 37  1  0  0  0  0
 12 38  1  0  0  0  0
 13 14  1  0  0  0  0
 13 23  1  0  0  0  0
 13 15  1  0  0  0  0
 15 20  2  0  0  0  0
 15 16  1  0  0  0  0
 16 17  2  0  0  0  0
 16 39  1  0  0  0  0
 17 18  1  0  0  0  0
 17 40  1  0  0  0  0
 18 19  2  0  0  0  0
 18 27  1  0  0  0  0
 19 20  1  0  0  0  0
 19 41  1  0  0  0  0
 20 21  1  0  0  0  0
 21 22  1  0  0  0  0
 22 23  2  0  0  0  0
 22 26  1  0  0  0  0
 23 24  1  0  0  0  0
 24 25  3  0  0  0  0
 26 42  1  0  0  0  0
 26 43  1  0  0  0  0
 27 44  1  0  0  0  0
 27 45  1  0  0  0  0
M  END
$$$$
ZINC02295307
  -OEChem-08230709453D

 50 53  0     0  0  0  0  0  0999 V2000
    4.9128   -4.0522   -0.0877 C   0  0  0  0  0  0  0  0  0  0  0  0
    4.8951   -2.7057    0.2309 C   0  0  0  0  0  0  0  0  0  0  0  0
    3.7011   -2.0127    0.2418 C   0  0  0  0  0  0  0  0  0  0  0  0
    2.5166   -2.6751   -0.0694 C   0  0  0  0  0  0  0  0  0  0  0  0
    2.5404   -4.0274   -0.4085 C   0  0  0  0  0  0  0  0  0  0  0  0
    3.7393   -4.7110   -0.4081 C   0  0  0  0  0  0  0  0  0  0  0  0
    1.2635   -4.7338   -0.7770 C   0  0  0  0  0  0  0  0  0  0  0  0
    0.0962   -4.2130    0.0592 C   0  0  0  0  0  0  0  0  0  0  0  0
   -1.2154   -4.7764   -0.4972 C   0  0  0  0  0  0  0  0  0  0  0  0
   -1.1725   -6.3047   -0.4521 C   0  0  0  0  0  0  0  0  0  0  0  0
   -0.9977   -6.7678    0.9956 C   0  0  0  0  0  0  0  0  0  0  0  0
    0.3086   -6.2027    1.5567 C   0  0  0  0  0  0  0  0  0  0  0  0
    0.2659   -4.6744    1.5098 C   0  0  0  0  0  0  0  0  0  0  0  0
    0.0472   -2.7098    0.0175 C   0  0  0  0  0  0  0  0  0  0  0  0
    1.2169   -1.9688   -0.0151 C   0  0  0  0  0  0  0  0  0  0  0  0
    1.1593   -0.6318   -0.0317 N   0  0  0  0  0  0  0  0  0  0  0  0
    0.0013   -0.0044   -0.0363 C   0  0  0  0  0  0  0  0  0  0  0  0
   -1.1768   -0.6857   -0.0297 N   0  0  0  0  0  0  0  0  0  0  0  0
    2.0073   -0.1018   -0.0406 H   0  0  0  0  0  0  0  0  0  0  0  0
   -1.1812   -2.0358    0.0052 C   0  0  0  0  0  0  0  0  0  0  0  0
   -2.2324   -2.6552    0.0348 O   0  0  0  0  0  0  0  0  0  0  0  0
   -0.0179    1.3650   -0.0482 N   0  0  0  0  0  0  0  0  0  0  0  0
    1.2405    2.1151   -0.0554 C   0  0  0  0  0  0  0  0  0  0  0  0
    0.9401    3.6153   -0.0682 C   0  0  0  0  0  0  0  0  0  0  0  0
    2.2542    4.3986   -0.0759 C   0  0  0  0  0  0  0  0  0  0  0  0
    1.9736    5.7996   -0.0879 O   0  0  0  0  0  0  0  0  0  0  0  0
    5.8483   -4.5918   -0.0863 H   0  0  0  0  0  0  0  0  0  0  0  0
    5.8165   -2.1964    0.4719 H   0  0  0  0  0  0  0  0  0  0  0  0
    3.6858   -0.9619    0.4908 H   0  0  0  0  0  0  0  0  0  0  0  0
    3.7614   -5.7616   -0.6577 H   0  0  0  0  0  0  0  0  0  0  0  0
    1.3816   -5.8032   -0.6016 H   0  0  0  0  0  0  0  0  0  0  0  0
    1.0523   -4.5645   -1.8328 H   0  0  0  0  0  0  0  0  0  0  0  0
   -2.0496   -4.4181    0.1059 H   0  0  0  0  0  0  0  0  0  0  0  0
   -1.3441   -4.4467   -1.5281 H   0  0  0  0  0  0  0  0  0  0  0  0
   -0.3356   -6.6626   -1.0516 H   0  0  0  0  0  0  0  0  0  0  0  0
   -2.1038   -6.7062   -0.8519 H   0  0  0  0  0  0  0  0  0  0  0  0
   -0.9659   -7.8569    1.0275 H   0  0  0  0  0  0  0  0  0  0  0  0
   -1.8351   -6.4108    1.5951 H   0  0  0  0  0  0  0  0  0  0  0  0
    1.1462   -6.5612    0.9582 H   0  0  0  0  0  0  0  0  0  0  0  0
    0.4328   -6.5311    2.5886 H   0  0  0  0  0  0  0  0  0  0  0  0
    1.1954   -4.2723    1.9127 H   0  0  0  0  0  0  0  0  0  0  0  0
   -0.5735   -4.3159    2.1057 H   0  0  0  0  0  0  0  0  0  0  0  0
   -0.8645    1.8382   -0.0558 H   0  0  0  0  0  0  0  0  0  0  0  0
    1.8163    1.8675    0.8363 H   0  0  0  0  0  0  0  0  0  0  0  0
    1.8152    1.8520   -0.9436 H   0  0  0  0  0  0  0  0  0  0  0  0
    0.3642    3.8628   -0.9600 H   0  0  0  0  0  0  0  0  0  0  0  0
    0.3654    3.8783    0.8199 H   0  0  0  0  0  0  0  0  0  0  0  0
    2.8300    4.1509    0.8159 H   0  0  0  0  0  0  0  0  0  0  0  0
    2.8288    4.1356   -0.9641 H   0  0  0  0  0  0  0  0  0  0  0  0
    2.7625    6.3588   -0.0932 H   0  0  0  0  0  0  0  0  0  0  0  0
  1  6  2  0  0  0  0
  1  2  1  0  0  0  0
  1 27  1  0  0  0  0
  2  3  2  0  0  0  0
  2 28  1  0  0  0  0
  3  4  1  0  0  0  0
  3 29  1  0  0  0  0
  4 15  1  0  0  0  0
  4  5  2  0  0  0  0
  5  6  1  0  0  0  0
  5  7  1  0  0  0  0
  6 30  1  0  0  0  0
  7  8  1  0  0  0  0
  7 31  1  0  0  0  0
  7 32  1  0  0  0  0
  8 13  1  0  0  0  0
  8  9  1  0  0  0  0
  8 14  1  0  0  0  0
  9 10  1  0  0  0  0
  9 33  1  0  0  0  0
  9 34  1  0  0  0  0
 10 11  1  0  0  0  0
 10 35  1  0  0  0  0
 10 36  1  0  0  0  0
 11 12  1  0  0  0  0
 11 37  1  0  0  0  0
 11 38  1  0  0  0  0
 12 13  1  0  0  0  0
 12 39  1  0  0  0  0
 12 40  1  0  0  0  0
 13 41  1  0  0  0  0
 13 42  1  0  0  0  0
 14 20  1  0  0  0  0
 14 15  2  0  0  0  0
 15 16  1  0  0  0  0
 16 19  1  0  0  0  0
 16 17  1  0  0  0  0
 17 22  1  0  0  0  0
 17 18  2  0  0  0  0
 18 20  1  0  0  0  0
 20 21  2  0  0  0  0
 22 23  1  0  0  0  0
 22 43  1  0  0  0  0
 23 24  1  0  0  0  0
 23 44  1  0  0  0  0
 23 45  1  0  0  0  0
 24 25  1  0  0  0  0
 24 46  1  0  0  0  0
 24 47  1  0  0  0  0
 25 26  1  0  0  0  0
 25 48  1  0  0  0  0
 25 49  1  0  0  0  0
 26 50  1  0  0  0  0
M  END
$$$$
ZINC02296899
  -OEChem-08230709453D

 49 51  0     0  0  0  0  0  0999 V2000
    0.1717   -0.2535   -1.4002 C   0  0  0  0  0  0  0  0  0  0  0  0
   -0.1875    0.1855    0.0208 C   0  0  0  0  0  0  0  0  0  0  0  0
    0.1927    1.6550    0.2121 C   0  0  0  0  0  0  0  0  0  0  0  0
   -0.4336    2.4852   -0.9045 C   0  0  0  0  0  0  0  0  0  0  0  0
   -0.2772    3.9562   -0.6259 C   0  0  0  0  0  0  0  0  0  0  0  0
   -0.0573    4.8421   -1.6609 C   0  0  0  0  0  0  0  0  0  0  0  0
    0.0664    6.1952   -1.4004 C   0  0  0  0  0  0  0  0  0  0  0  0
   -0.0312    6.6704   -0.1046 C   0  0  0  0  0  0  0  0  0  0  0  0
   -0.2441    5.7934    0.9402 C   0  0  0  0  0  0  0  0  0  0  0  0
   -0.3583    4.4297    0.6832 C   0  0  0  0  0  0  0  0  0  0  0  0
   -0.5359    3.4630    1.7899 C   0  0  0  0  0  0  0  0  0  0  0  0
   -0.2904    2.1197    1.5572 C   0  0  0  0  0  0  0  0  0  0  0  0
   -0.4985    1.2053    2.5987 C   0  0  0  0  0  0  0  0  0  0  0  0
   -0.3014    0.0128    2.4297 O   0  0  0  0  0  0  0  0  0  0  0  0
   -0.9214    1.6718    3.7934 N   0  0  0  0  0  0  0  0  0  0  0  0
   -1.0866    1.0352    4.5467 H   0  0  0  0  0  0  0  0  0  0  0  0
   -1.1236    3.0051    3.9759 C   0  0  0  0  0  0  0  0  0  0  0  0
   -0.9326    3.8690    3.0017 N   0  0  0  0  0  0  0  0  0  0  0  0
   -1.5327    3.4584    5.2019 N   0  0  0  0  0  0  0  0  0  0  0  0
   -1.7553    4.8903    5.4166 C   0  0  0  0  0  0  0  0  0  0  0  0
   -2.2037    5.1260    6.8603 C   0  0  0  0  0  0  0  0  0  0  0  0
   -2.4362    6.6215    7.0845 C   0  0  0  0  0  0  0  0  0  0  0  0
   -2.8550    6.8415    8.4329 O   0  0  0  0  0  0  0  0  0  0  0  0
    1.7152    1.7933    0.1488 C   0  0  0  0  0  0  0  0  0  0  0  0
    2.3502    0.9521    1.2578 C   0  0  0  0  0  0  0  0  0  0  0  0
    1.2243   -0.0435   -1.5901 H   0  0  0  0  0  0  0  0  0  0  0  0
   -0.0105   -1.3228   -1.5072 H   0  0  0  0  0  0  0  0  0  0  0  0
   -0.4427    0.2932   -2.1156 H   0  0  0  0  0  0  0  0  0  0  0  0
    0.3573   -0.4273    0.7390 H   0  0  0  0  0  0  0  0  0  0  0  0
   -1.2592    0.0639    0.1786 H   0  0  0  0  0  0  0  0  0  0  0  0
    0.0555    2.2446   -1.8484 H   0  0  0  0  0  0  0  0  0  0  0  0
   -1.4942    2.2447   -0.9790 H   0  0  0  0  0  0  0  0  0  0  0  0
    0.0179    4.4788   -2.6751 H   0  0  0  0  0  0  0  0  0  0  0  0
    0.2397    6.8846   -2.2134 H   0  0  0  0  0  0  0  0  0  0  0  0
    0.0591    7.7290    0.0898 H   0  0  0  0  0  0  0  0  0  0  0  0
   -0.3211    6.1632    1.9520 H   0  0  0  0  0  0  0  0  0  0  0  0
   -1.6749    2.8312    5.9281 H   0  0  0  0  0  0  0  0  0  0  0  0
   -0.8291    5.4340    5.2305 H   0  0  0  0  0  0  0  0  0  0  0  0
   -2.5278    5.2443    4.7339 H   0  0  0  0  0  0  0  0  0  0  0  0
   -3.1300    4.5823    7.0464 H   0  0  0  0  0  0  0  0  0  0  0  0
   -1.4312    4.7720    7.5430 H   0  0  0  0  0  0  0  0  0  0  0  0
   -1.5100    7.1651    6.8984 H   0  0  0  0  0  0  0  0  0  0  0  0
   -3.2087    6.9754    6.4018 H   0  0  0  0  0  0  0  0  0  0  0  0
   -3.0212    7.7699    8.6466 H   0  0  0  0  0  0  0  0  0  0  0  0
    2.0716    1.4451   -0.8206 H   0  0  0  0  0  0  0  0  0  0  0  0
    1.9909    2.8393    0.2831 H   0  0  0  0  0  0  0  0  0  0  0  0
    2.1168   -0.1001    1.0947 H   0  0  0  0  0  0  0  0  0  0  0  0
    3.4313    1.0906    1.2451 H   0  0  0  0  0  0  0  0  0  0  0  0
    1.9550    1.2664    2.2238 H   0  0  0  0  0  0  0  0  0  0  0  0
  1  2  1  0  0  0  0
  1 26  1  0  0  0  0
  1 27  1  0  0  0  0
  1 28  1  0  0  0  0
  2  3  1  0  0  0  0
  2 29  1  0  0  0  0
  2 30  1  0  0  0  0
  3 12  1  0  0  0  0
  3  4  1  0  0  0  0
  3 24  1  0  0  0  0
  4  5  1  0  0  0  0
  4 31  1  0  0  0  0
  4 32  1  0  0  0  0
  5 10  2  0  0  0  0
  5  6  1  0  0  0  0
  6  7  2  0  0  0  0
  6 33  1  0  0  0  0
  7  8  1  0  0  0  0
  7 34  1  0  0  0  0
  8  9  2  0  0  0  0
  8 35  1  0  0  0  0
  9 10  1  0  0  0  0
  9 36  1  0  0  0  0
 10 11  1  0  0  0  0
 11 18  1  0  0  0  0
 11 12  2  0  0  0  0
 12 13  1  0  0  0  0
 13 14  2  0  0  0  0
 13 15  1  0  0  0  0
 15 16  1  0  0  0  0
 15 17  1  0  0  0  0
 17 18  2  0  0  0  0
 17 19  1  0  0  0  0
 19 20  1  0  0  0  0
 19 37  1  0  0  0  0
 20 21  1  0  0  0  0
 20 38  1  0  0  0  0
 20 39  1  0  0  0  0
 21 22  1  0  0  0  0
 21 40  1  0  0  0  0
 21 41  1  0  0  0  0
 22 23  1  0  0  0  0
 22 42  1  0  0  0  0
 22 43  1  0  0  0  0
 23 44  1  0  0  0  0
 24 25  1  0  0  0  0
 24 45  1  0  0  0  0
 24 46  1  0  0  0  0
 25 47  1  0  0  0  0
 25 48  1  0  0  0  0
 25 49  1  0  0  0  0
M  END
$$$$
ZINC02296899
  -OEChem-08230709453D

 49 51  0     0  0  0  0  0  0999 V2000
    0.1198   -0.2636   -1.4058 C   0  0  0  0  0  0  0  0  0  0  0  0
   -0.2221    0.1781    0.0186 C   0  0  0  0  0  0  0  0  0  0  0  0
    0.1525    1.6503    0.1998 C   0  0  0  0  0  0  0  0  0  0  0  0
   -0.4912    2.4724   -0.9110 C   0  0  0  0  0  0  0  0  0  0  0  0
   -0.3418    3.9454   -0.6396 C   0  0  0  0  0  0  0  0  0  0  0  0
   -0.1412    4.8291   -1.6804 C   0  0  0  0  0  0  0  0  0  0  0  0
   -0.0239    6.1840   -1.4263 C   0  0  0  0  0  0  0  0  0  0  0  0
   -0.1085    6.6632   -0.1311 C   0  0  0  0  0  0  0  0  0  0  0  0
   -0.3020    5.7885    0.9194 C   0  0  0  0  0  0  0  0  0  0  0  0
   -0.4045    4.4238    0.6701 C   0  0  0  0  0  0  0  0  0  0  0  0
   -0.5666    3.4592    1.7810 C   0  0  0  0  0  0  0  0  0  0  0  0
   -0.3145    2.1168    1.5500 C   0  0  0  0  0  0  0  0  0  0  0  0
   -0.4887    1.2065    2.6015 C   0  0  0  0  0  0  0  0  0  0  0  0
   -0.2875    0.0145    2.4337 O   0  0  0  0  0  0  0  0  0  0  0  0
   -0.9118    1.6729    3.7962 N   0  0  0  0  0  0  0  0  0  0  0  0
    0.0188   -0.1429    1.4948 H   0  0  0  0  0  0  0  0  0  0  0  0
   -1.1281    3.0046    3.9745 C   0  0  0  0  0  0  0  0  0  0  0  0
   -0.9508    3.8668    2.9963 N   0  0  0  0  0  0  0  0  0  0  0  0
   -1.5394    3.4576    5.1999 N   0  0  0  0  0  0  0  0  0  0  0  0
   -1.7644    4.8893    5.4139 C   0  0  0  0  0  0  0  0  0  0  0  0
   -2.2151    5.1247    6.8569 C   0  0  0  0  0  0  0  0  0  0  0  0
   -2.4501    6.6199    7.0804 C   0  0  0  0  0  0  0  0  0  0  0  0
   -2.8710    6.8397    8.4281 O   0  0  0  0  0  0  0  0  0  0  0  0
    1.6732    1.7969    0.1149 C   0  0  0  0  0  0  0  0  0  0  0  0
    2.3282    0.9629    1.2177 C   0  0  0  0  0  0  0  0  0  0  0  0
    1.1685   -0.0484   -1.6110 H   0  0  0  0  0  0  0  0  0  0  0  0
   -0.0579   -1.3343   -1.5068 H   0  0  0  0  0  0  0  0  0  0  0  0
   -0.5076    0.2772   -2.1144 H   0  0  0  0  0  0  0  0  0  0  0  0
    0.3361   -0.4293    0.7312 H   0  0  0  0  0  0  0  0  0  0  0  0
   -1.2908    0.0511    0.1917 H   0  0  0  0  0  0  0  0  0  0  0  0
   -0.0124    2.2318   -1.8601 H   0  0  0  0  0  0  0  0  0  0  0  0
   -1.5510    2.2241   -0.9713 H   0  0  0  0  0  0  0  0  0  0  0  0
   -0.0762    4.4627   -2.6942 H   0  0  0  0  0  0  0  0  0  0  0  0
    0.1343    6.8716   -2.2439 H   0  0  0  0  0  0  0  0  0  0  0  0
   -0.0233    7.7231    0.0584 H   0  0  0  0  0  0  0  0  0  0  0  0
   -0.3689    6.1614    1.9308 H   0  0  0  0  0  0  0  0  0  0  0  0
   -1.6817    2.8304    5.9261 H   0  0  0  0  0  0  0  0  0  0  0  0
   -0.8388    5.4343    5.2288 H   0  0  0  0  0  0  0  0  0  0  0  0
   -2.5366    5.2419    4.7300 H   0  0  0  0  0  0  0  0  0  0  0  0
   -3.1408    4.5797    7.0420 H   0  0  0  0  0  0  0  0  0  0  0  0
   -1.4429    4.7721    7.5407 H   0  0  0  0  0  0  0  0  0  0  0  0
   -1.5245    7.1649    6.8953 H   0  0  0  0  0  0  0  0  0  0  0  0
   -3.2222    6.9725    6.3965 H   0  0  0  0  0  0  0  0  0  0  0  0
   -3.0388    7.7679    8.6413 H   0  0  0  0  0  0  0  0  0  0  0  0
    2.0180    1.4474   -0.8582 H   0  0  0  0  0  0  0  0  0  0  0  0
    1.9448    2.8448    0.2419 H   0  0  0  0  0  0  0  0  0  0  0  0
    2.0985   -0.0911    1.0613 H   0  0  0  0  0  0  0  0  0  0  0  0
    3.4082    1.1074    1.1895 H   0  0  0  0  0  0  0  0  0  0  0  0
    1.9447    1.2783    2.1880 H   0  0  0  0  0  0  0  0  0  0  0  0
  1  2  1  0  0  0  0
  1 26  1  0  0  0  0
  1 27  1  0  0  0  0
  1 28  1  0  0  0  0
  2  3  1  0  0  0  0
  2 29  1  0  0  0  0
  2 30  1  0  0  0  0
  3 12  1  0  0  0  0
  3  4  1  0  0  0  0
  3 24  1  0  0  0  0
  4  5  1  0  0  0  0
  4 31  1  0  0  0  0
  4 32  1  0  0  0  0
  5 10  2  0  0  0  0
  5  6  1  0  0  0  0
  6  7  2  0  0  0  0
  6 33  1  0  0  0  0
  7  8  1  0  0  0  0
  7 34  1  0  0  0  0
  8  9  2  0  0  0  0
  8 35  1  0  0  0  0
  9 10  1  0  0  0  0
  9 36  1  0  0  0  0
 10 11  1  0  0  0  0
 11 12  2  0  0  0  0
 11 18  1  0  0  0  0
 12 13  1  0  0  0  0
 13 15  2  0  0  0  0
 13 14  1  0  0  0  0
 14 16  1  0  0  0  0
 15 17  1  0  0  0  0
 17 19  1  0  0  0  0
 17 18  2  0  0  0  0
 19 20  1  0  0  0  0
 19 37  1  0  0  0  0
 20 21  1  0  0  0  0
 20 38  1  0  0  0  0
 20 39  1  0  0  0  0
 21 22  1  0  0  0  0
 21 40  1  0  0  0  0
 21 41  1  0  0  0  0
 22 23  1  0  0  0  0
 22 42  1  0  0  0  0
 22 43  1  0  0  0  0
 23 44  1  0  0  0  0
 24 25  1  0  0  0  0
 24 45  1  0  0  0  0
 24 46  1  0  0  0  0
 25 47  1  0  0  0  0
 25 48  1  0  0  0  0
 25 49  1  0  0  0  0
M  END
$$$$
ZINC02296899
  -OEChem-08230709453D

 49 51  0     0  0  0  0  0  0999 V2000
    0.1612   -0.2549   -1.4019 C   0  0  0  0  0  0  0  0  0  0  0  0
   -0.1951    0.1845    0.0197 C   0  0  0  0  0  0  0  0  0  0  0  0
    0.1850    1.6542    0.2097 C   0  0  0  0  0  0  0  0  0  0  0  0
   -0.4439    2.4838   -0.9058 C   0  0  0  0  0  0  0  0  0  0  0  0
   -0.2873    3.9550   -0.6280 C   0  0  0  0  0  0  0  0  0  0  0  0
   -0.0699    4.8406   -1.6638 C   0  0  0  0  0  0  0  0  0  0  0  0
    0.0540    6.1938   -1.4040 C   0  0  0  0  0  0  0  0  0  0  0  0
   -0.0410    6.6694   -0.1081 C   0  0  0  0  0  0  0  0  0  0  0  0
   -0.2514    5.7927    0.9374 C   0  0  0  0  0  0  0  0  0  0  0  0
   -0.3658    4.4289    0.6811 C   0  0  0  0  0  0  0  0  0  0  0  0
   -0.5407    3.4625    1.7885 C   0  0  0  0  0  0  0  0  0  0  0  0
   -0.2953    2.1192    1.5557 C   0  0  0  0  0  0  0  0  0  0  0  0
   -0.5008    1.2050    2.5980 C   0  0  0  0  0  0  0  0  0  0  0  0
   -0.3038    0.0125    2.4289 O   0  0  0  0  0  0  0  0  0  0  0  0
   -0.9259    1.6712    3.7920 N   0  0  0  0  0  0  0  0  0  0  0  0
   -1.0906    4.8423    3.1681 H   0  0  0  0  0  0  0  0  0  0  0  0
   -1.1280    3.0045    3.9746 C   0  0  0  0  0  0  0  0  0  0  0  0
   -0.9371    3.8684    3.0004 N   0  0  0  0  0  0  0  0  0  0  0  0
   -1.5393    3.4575    5.2000 N   0  0  0  0  0  0  0  0  0  0  0  0
   -1.7618    4.8894    5.4147 C   0  0  0  0  0  0  0  0  0  0  0  0
   -2.2129    5.1248    6.8577 C   0  0  0  0  0  0  0  0  0  0  0  0
   -2.4454    6.6203    7.0819 C   0  0  0  0  0  0  0  0  0  0  0  0
   -2.8667    6.8399    8.4296 O   0  0  0  0  0  0  0  0  0  0  0  0
    1.7074    1.7929    0.1431 C   0  0  0  0  0  0  0  0  0  0  0  0
    2.3450    0.9522    1.2510 C   0  0  0  0  0  0  0  0  0  0  0  0
    1.2133   -0.0446   -1.5941 H   0  0  0  0  0  0  0  0  0  0  0  0
   -0.0210   -1.3243   -1.5082 H   0  0  0  0  0  0  0  0  0  0  0  0
   -0.4549    0.2914   -2.1162 H   0  0  0  0  0  0  0  0  0  0  0  0
    0.3514   -0.4279    0.7369 H   0  0  0  0  0  0  0  0  0  0  0  0
   -1.2665    0.0626    0.1798 H   0  0  0  0  0  0  0  0  0  0  0  0
    0.0433    2.2431   -1.8507 H   0  0  0  0  0  0  0  0  0  0  0  0
   -1.5046    2.2430   -0.9780 H   0  0  0  0  0  0  0  0  0  0  0  0
    0.0032    4.4770   -2.6780 H   0  0  0  0  0  0  0  0  0  0  0  0
    0.2253    6.8830   -2.2176 H   0  0  0  0  0  0  0  0  0  0  0  0
    0.0494    7.7281    0.0857 H   0  0  0  0  0  0  0  0  0  0  0  0
   -0.3264    6.1628    1.9493 H   0  0  0  0  0  0  0  0  0  0  0  0
   -1.6831    2.8301    5.9257 H   0  0  0  0  0  0  0  0  0  0  0  0
   -0.8351    5.4329    5.2306 H   0  0  0  0  0  0  0  0  0  0  0  0
   -2.5329    5.2439    4.7307 H   0  0  0  0  0  0  0  0  0  0  0  0
   -3.1398    4.5813    7.0418 H   0  0  0  0  0  0  0  0  0  0  0  0
   -1.4419    4.7703    7.5417 H   0  0  0  0  0  0  0  0  0  0  0  0
   -1.5186    7.1636    6.8978 H   0  0  0  0  0  0  0  0  0  0  0  0
   -3.2164    6.9747    6.3979 H   0  0  0  0  0  0  0  0  0  0  0  0
   -3.0330    7.7683    8.6433 H   0  0  0  0  0  0  0  0  0  0  0  0
    2.0618    1.4445   -0.8269 H   0  0  0  0  0  0  0  0  0  0  0  0
    1.9830    2.8390    0.2765 H   0  0  0  0  0  0  0  0  0  0  0  0
    2.1115   -0.1001    1.0888 H   0  0  0  0  0  0  0  0  0  0  0  0
    3.4260    1.0910    1.2360 H   0  0  0  0  0  0  0  0  0  0  0  0
    1.9518    1.2667    2.2178 H   0  0  0  0  0  0  0  0  0  0  0  0
  1  2  1  0  0  0  0
  1 26  1  0  0  0  0
  1 27  1  0  0  0  0
  1 28  1  0  0  0  0
  2  3  1  0  0  0  0
  2 29  1  0  0  0  0
  2 30  1  0  0  0  0
  3 12  1  0  0  0  0
  3  4  1  0  0  0  0
  3 24  1  0  0  0  0
  4  5  1  0  0  0  0
  4 31  1  0  0  0  0
  4 32  1  0  0  0  0
  5 10  2  0  0  0  0
  5  6  1  0  0  0  0
  6  7  2  0  0  0  0
  6 33  1  0  0  0  0
  7  8  1  0  0  0  0
  7 34  1  0  0  0  0
  8  9  2  0  0  0  0
  8 35  1  0  0  0  0
  9 10  1  0  0  0  0
  9 36  1  0  0  0  0
 10 11  1  0  0  0  0
 11 12  2  0  0  0  0
 11 18  1  0  0  0  0
 12 13  1  0  0  0  0
 13 15  1  0  0  0  0
 13 14  2  0  0  0  0
 15 17  2  0  0  0  0
 16 18  1  0  0  0  0
 17 19  1  0  0  0  0
 17 18  1  0  0  0  0
 19 20  1  0  0  0  0
 19 37  1  0  0  0  0
 20 21  1  0  0  0  0
 20 38  1  0  0  0  0
 20 39  1  0  0  0  0
 21 22  1  0  0  0  0
 21 40  1  0  0  0  0
 21 41  1  0  0  0  0
 22 23  1  0  0  0  0
 22 42  1  0  0  0  0
 22 43  1  0  0  0  0
 23 44  1  0  0  0  0
 24 25  1  0  0  0  0
 24 45  1  0  0  0  0
 24 46  1  0  0  0  0
 25 47  1  0  0  0  0
 25 48  1  0  0  0  0
 25 49  1  0  0  0  0
M  END
$$$$
ZINC02296899
  -OEChem-08230709453D

 49 51  0     0  0  0  0  0  0999 V2000
    0.1198   -0.2636   -1.4058 C   0  0  0  0  0  0  0  0  0  0  0  0
   -0.2221    0.1781    0.0186 C   0  0  0  0  0  0  0  0  0  0  0  0
    0.1525    1.6503    0.1998 C   0  0  0  0  0  0  0  0  0  0  0  0
   -0.4912    2.4724   -0.9110 C   0  0  0  0  0  0  0  0  0  0  0  0
   -0.3418    3.9454   -0.6396 C   0  0  0  0  0  0  0  0  0  0  0  0
   -0.1412    4.8291   -1.6804 C   0  0  0  0  0  0  0  0  0  0  0  0
   -0.0239    6.1840   -1.4263 C   0  0  0  0  0  0  0  0  0  0  0  0
   -0.1085    6.6632   -0.1311 C   0  0  0  0  0  0  0  0  0  0  0  0
   -0.3020    5.7885    0.9194 C   0  0  0  0  0  0  0  0  0  0  0  0
   -0.4045    4.4238    0.6701 C   0  0  0  0  0  0  0  0  0  0  0  0
   -0.5666    3.4592    1.7810 C   0  0  0  0  0  0  0  0  0  0  0  0
   -0.3145    2.1168    1.5500 C   0  0  0  0  0  0  0  0  0  0  0  0
   -0.4887    1.2065    2.6015 C   0  0  0  0  0  0  0  0  0  0  0  0
   -0.2875    0.0145    2.4337 O   0  0  0  0  0  0  0  0  0  0  0  0
   -0.9118    1.6729    3.7962 N   0  0  0  0  0  0  0  0  0  0  0  0
    0.0188   -0.1429    1.4948 H   0  0  0  0  0  0  0  0  0  0  0  0
   -1.1281    3.0046    3.9745 C   0  0  0  0  0  0  0  0  0  0  0  0
   -0.9508    3.8668    2.9963 N   0  0  0  0  0  0  0  0  0  0  0  0
   -1.5394    3.4576    5.1999 N   0  0  0  0  0  0  0  0  0  0  0  0
   -1.7644    4.8893    5.4139 C   0  0  0  0  0  0  0  0  0  0  0  0
   -2.2151    5.1247    6.8569 C   0  0  0  0  0  0  0  0  0  0  0  0
   -2.4501    6.6199    7.0804 C   0  0  0  0  0  0  0  0  0  0  0  0
   -2.8710    6.8397    8.4281 O   0  0  0  0  0  0  0  0  0  0  0  0
    1.6732    1.7969    0.1149 C   0  0  0  0  0  0  0  0  0  0  0  0
    2.3282    0.9629    1.2177 C   0  0  0  0  0  0  0  0  0  0  0  0
    1.1685   -0.0484   -1.6110 H   0  0  0  0  0  0  0  0  0  0  0  0
   -0.0579   -1.3343   -1.5068 H   0  0  0  0  0  0  0  0  0  0  0  0
   -0.5076    0.2772   -2.1144 H   0  0  0  0  0  0  0  0  0  0  0  0
    0.3361   -0.4293    0.7312 H   0  0  0  0  0  0  0  0  0  0  0  0
   -1.2908    0.0511    0.1917 H   0  0  0  0  0  0  0  0  0  0  0  0
   -0.0124    2.2318   -1.8601 H   0  0  0  0  0  0  0  0  0  0  0  0
   -1.5510    2.2241   -0.9713 H   0  0  0  0  0  0  0  0  0  0  0  0
   -0.0762    4.4627   -2.6942 H   0  0  0  0  0  0  0  0  0  0  0  0
    0.1343    6.8716   -2.2439 H   0  0  0  0  0  0  0  0  0  0  0  0
   -0.0233    7.7231    0.0584 H   0  0  0  0  0  0  0  0  0  0  0  0
   -0.3689    6.1614    1.9308 H   0  0  0  0  0  0  0  0  0  0  0  0
   -1.6817    2.8304    5.9261 H   0  0  0  0  0  0  0  0  0  0  0  0
   -0.8388    5.4343    5.2288 H   0  0  0  0  0  0  0  0  0  0  0  0
   -2.5366    5.2419    4.7300 H   0  0  0  0  0  0  0  0  0  0  0  0
   -3.1408    4.5797    7.0420 H   0  0  0  0  0  0  0  0  0  0  0  0
   -1.4429    4.7721    7.5407 H   0  0  0  0  0  0  0  0  0  0  0  0
   -1.5245    7.1649    6.8953 H   0  0  0  0  0  0  0  0  0  0  0  0
   -3.2222    6.9725    6.3965 H   0  0  0  0  0  0  0  0  0  0  0  0
   -3.0388    7.7679    8.6413 H   0  0  0  0  0  0  0  0  0  0  0  0
    2.0180    1.4474   -0.8582 H   0  0  0  0  0  0  0  0  0  0  0  0
    1.9448    2.8448    0.2419 H   0  0  0  0  0  0  0  0  0  0  0  0
    2.0985   -0.0911    1.0613 H   0  0  0  0  0  0  0  0  0  0  0  0
    3.4082    1.1074    1.1895 H   0  0  0  0  0  0  0  0  0  0  0  0
    1.9447    1.2783    2.1880 H   0  0  0  0  0  0  0  0  0  0  0  0
  1  2  1  0  0  0  0
  1 26  1  0  0  0  0
  1 27  1  0  0  0  0
  1 28  1  0  0  0  0
  2  3  1  0  0  0  0
  2 29  1  0  0  0  0
  2 30  1  0  0  0  0
  3 12  1  0  0  0  0
  3  4  1  0  0  0  0
  3 24  1  0  0  0  0
  4  5  1  0  0  0  0
  4 31  1  0  0  0  0
  4 32  1  0  0  0  0
  5 10  2  0  0  0  0
  5  6  1  0  0  0  0
  6  7  2  0  0  0  0
  6 33  1  0  0  0  0
  7  8  1  0  0  0  0
  7 34  1  0  0  0  0
  8  9  2  0  0  0  0
  8 35  1  0  0  0  0
  9 10  1  0  0  0  0
  9 36  1  0  0  0  0
 10 11  1  0  0  0  0
 11 12  2  0  0  0  0
 11 18  1  0  0  0  0
 12 13  1  0  0  0  0
 13 15  2  0  0  0  0
 13 14  1  0  0  0  0
 14 16  1  0  0  0  0
 15 17  1  0  0  0  0
 17 19  1  0  0  0  0
 17 18  2  0  0  0  0
 19 20  1  0  0  0  0
 19 37  1  0  0  0  0
 20 21  1  0  0  0  0
 20 38  1  0  0  0  0
 20 39  1  0  0  0  0
 21 22  1  0  0  0  0
 21 40  1  0  0  0  0
 21 41  1  0  0  0  0
 22 23  1  0  0  0  0
 22 42  1  0  0  0  0
 22 43  1  0  0  0  0
 23 44  1  0  0  0  0
 24 25  1  0  0  0  0
 24 45  1  0  0  0  0
 24 46  1  0  0  0  0
 25 47  1  0  0  0  0
 25 48  1  0  0  0  0
 25 49  1  0  0  0  0
M  END
$$$$
ZINC02300303
  -OEChem-08230709453D

 46 48  0     0  0  0  0  0  0999 V2000
    6.0452   -3.7046    1.4706 C   0  0  0  0  0  0  0  0  0  0  0  0
    4.9102   -3.3411    2.4300 C   0  0  0  0  0  0  0  0  0  0  0  0
    4.2607   -2.1255    1.9730 O   0  0  0  0  0  0  0  0  0  0  0  0
    3.2316   -1.6659    2.7131 C   0  0  0  0  0  0  0  0  0  0  0  0
    2.8867   -2.2652    3.7132 O   0  0  0  0  0  0  0  0  0  0  0  0
    2.5277   -0.4421    2.3114 C   0  0  0  0  0  0  0  0  0  0  0  0
    1.4364   -0.3567    1.4946 C   0  0  0  0  0  0  0  0  0  0  0  0
    1.0755    0.9401    1.3561 N   0  0  0  0  0  0  0  0  0  0  0  0
    1.9132    1.7531    2.0856 C   0  0  0  0  0  0  0  0  0  0  0  0
    2.8553    0.9381    2.7144 C   0  0  0  0  0  0  0  0  0  0  0  0
    3.8494    1.4934    3.5352 C   0  0  0  0  0  0  0  0  0  0  0  0
    3.9152    2.8380    3.7345 C   0  0  0  0  0  0  0  0  0  0  0  0
    2.9776    3.6946    3.1138 C   0  0  0  0  0  0  0  0  0  0  0  0
    1.9695    3.1498    2.2843 C   0  0  0  0  0  0  0  0  0  0  0  0
    1.0401    4.0093    1.6695 C   0  0  0  0  0  0  0  0  0  0  0  0
    1.1256    5.3672    1.8857 C   0  0  0  0  0  0  0  0  0  0  0  0
    2.1203    5.8939    2.7038 C   0  0  0  0  0  0  0  0  0  0  0  0
    3.0324    5.0837    3.3098 C   0  0  0  0  0  0  0  0  0  0  0  0
    0.0657    3.5037    0.8694 O   0  0  0  0  0  0  0  0  0  0  0  0
    4.8851    3.3585    4.5319 O   0  0  0  0  0  0  0  0  0  0  0  0
   -0.0520    1.4118    0.5484 C   0  0  0  0  0  0  0  0  0  0  0  0
   -1.2048    1.8169    1.4691 C   0  0  0  0  0  0  0  0  0  0  0  0
   -2.3714    2.3374    0.6271 C   0  0  0  0  0  0  0  0  0  0  0  0
   -3.4481    2.7157    1.4871 O   0  0  0  0  0  0  0  0  0  0  0  0
    0.7430   -1.5263    0.8449 C   0  0  0  0  0  0  0  0  0  0  0  0
    6.5327   -4.6171    1.8136 H   0  0  0  0  0  0  0  0  0  0  0  0
    5.6396   -3.8629    0.4713 H   0  0  0  0  0  0  0  0  0  0  0  0
    6.7719   -2.8926    1.4432 H   0  0  0  0  0  0  0  0  0  0  0  0
    5.3158   -3.1827    3.4292 H   0  0  0  0  0  0  0  0  0  0  0  0
    4.1835   -4.1530    2.4573 H   0  0  0  0  0  0  0  0  0  0  0  0
    4.5700    0.8466    4.0135 H   0  0  0  0  0  0  0  0  0  0  0  0
    0.4138    6.0294    1.4154 H   0  0  0  0  0  0  0  0  0  0  0  0
    2.1704    6.9613    2.8602 H   0  0  0  0  0  0  0  0  0  0  0  0
    3.7978    5.5100    3.9413 H   0  0  0  0  0  0  0  0  0  0  0  0
   -0.8276    3.7815    1.1140 H   0  0  0  0  0  0  0  0  0  0  0  0
    5.6994    3.5867    4.0629 H   0  0  0  0  0  0  0  0  0  0  0  0
   -0.3815    0.6137   -0.1168 H   0  0  0  0  0  0  0  0  0  0  0  0
    0.2599    2.2724   -0.0434 H   0  0  0  0  0  0  0  0  0  0  0  0
   -0.8691    2.6004    2.1485 H   0  0  0  0  0  0  0  0  0  0  0  0
   -1.5307    0.9512    2.0457 H   0  0  0  0  0  0  0  0  0  0  0  0
   -2.0455    3.2031    0.0505 H   0  0  0  0  0  0  0  0  0  0  0  0
   -2.7071    1.5539   -0.0523 H   0  0  0  0  0  0  0  0  0  0  0  0
   -4.2235    3.0559    1.0201 H   0  0  0  0  0  0  0  0  0  0  0  0
    1.1956   -1.7229   -0.1270 H   0  0  0  0  0  0  0  0  0  0  0  0
    0.8458   -2.4073    1.4785 H   0  0  0  0  0  0  0  0  0  0  0  0
   -0.3140   -1.2947    0.7133 H   0  0  0  0  0  0  0  0  0  0  0  0
  1  2  1  0  0  0  0
  1 26  1  0  0  0  0
  1 27  1  0  0  0  0
  1 28  1  0  0  0  0
  2  3  1  0  0  0  0
  2 29  1  0  0  0  0
  2 30  1  0  0  0  0
  3  4  1  0  0  0  0
  4  5  2  0  0  0  0
  4  6  1  0  0  0  0
  6 10  1  0  0  0  0
  6  7  2  0  0  0  0
  7  8  1  0  0  0  0
  7 25  1  0  0  0  0
  8  9  1  0  0  0  0
  8 21  1  0  0  0  0
  9 14  2  0  0  0  0
  9 10  1  0  0  0  0
 10 11  2  0  0  0  0
 11 12  1  0  0  0  0
 11 31  1  0  0  0  0
 12 13  2  0  0  0  0
 12 20  1  0  0  0  0
 13 18  1  0  0  0  0
 13 14  1  0  0  0  0
 14 15  1  0  0  0  0
 15 16  2  0  0  0  0
 15 19  1  0  0  0  0
 16 17  1  0  0  0  0
 16 32  1  0  0  0  0
 17 18  2  0  0  0  0
 17 33  1  0  0  0  0
 18 34  1  0  0  0  0
 19 35  1  0  0  0  0
 20 36  1  0  0  0  0
 21 22  1  0  0  0  0
 21 37  1  0  0  0  0
 21 38  1  0  0  0  0
 22 23  1  0  0  0  0
 22 39  1  0  0  0  0
 22 40  1  0  0  0  0
 23 24  1  0  0  0  0
 23 41  1  0  0  0  0
 23 42  1  0  0  0  0
 24 43  1  0  0  0  0
 25 44  1  0  0  0  0
 25 45  1  0  0  0  0
 25 46  1  0  0  0  0
M  END
$$$$
ZINC02323661
  -OEChem-08230709453D

 42 43  0     0  0  0  0  0  0999 V2000
   10.3218   12.1924   -0.6665 C   0  0  0  0  0  0  0  0  0  0  0  0
    8.8677   11.7352   -0.5344 C   0  0  0  0  0  0  0  0  0  0  0  0
    8.8109   10.2063   -0.5439 C   0  0  0  0  0  0  0  0  0  0  0  0
    7.3568    9.7492   -0.4118 C   0  0  0  0  0  0  0  0  0  0  0  0
    7.3008    8.2432   -0.4212 C   0  0  0  0  0  0  0  0  0  0  0  0
    8.3233    7.5990   -0.5234 O   0  0  0  0  0  0  0  0  0  0  0  0
    6.1145    7.6123   -0.3159 N   0  0  0  0  0  0  0  0  0  0  0  0
    6.0625    6.2123   -0.3246 N   0  0  0  0  0  0  0  0  0  0  0  0
    4.8760    5.5812   -0.2194 C   0  0  0  0  0  0  0  0  0  0  0  0
    4.8329    4.2035   -0.1110 C   0  0  0  0  0  0  0  0  0  0  0  0
    6.0621    3.4056    0.0460 C   0  0  0  0  0  0  0  0  0  0  0  0
    7.1538    3.9411    0.0850 O   0  0  0  0  0  0  0  0  0  0  0  0
    5.9438    2.0655    0.1456 N   0  0  0  0  0  0  0  0  0  0  0  0
    4.7473    1.4628    0.1045 C   0  0  0  0  0  0  0  0  0  0  0  0
    4.7093    0.2518    0.1997 O   0  0  0  0  0  0  0  0  0  0  0  0
    3.5904    2.1249   -0.0365 N   0  0  0  0  0  0  0  0  0  0  0  0
    3.5565    3.4684   -0.1531 C   0  0  0  0  0  0  0  0  0  0  0  0
    2.5002    4.0576   -0.2851 O   0  0  0  0  0  0  0  0  0  0  0  0
    2.3880    1.4039   -0.0694 C   0  0  0  0  0  0  0  0  0  0  0  0
    2.1211    0.5455   -1.1273 C   0  0  0  0  0  0  0  0  0  0  0  0
    0.9364   -0.1638   -1.1579 C   0  0  0  0  0  0  0  0  0  0  0  0
    0.0149   -0.0188   -0.1345 C   0  0  0  0  0  0  0  0  0  0  0  0
    0.2790    0.8377    0.9211 C   0  0  0  0  0  0  0  0  0  0  0  0
    1.4628    1.5483    0.9554 C   0  0  0  0  0  0  0  0  0  0  0  0
   -1.1434   -0.7134   -0.1662 F   0  0  0  0  0  0  0  0  0  0  0  0
   10.3623   13.2816   -0.6598 H   0  0  0  0  0  0  0  0  0  0  0  0
   10.9027   11.8020    0.1691 H   0  0  0  0  0  0  0  0  0  0  0  0
   10.7364   11.8192   -1.6030 H   0  0  0  0  0  0  0  0  0  0  0  0
    8.2868   12.1256   -1.3701 H   0  0  0  0  0  0  0  0  0  0  0  0
    8.4532   12.1084    0.4020 H   0  0  0  0  0  0  0  0  0  0  0  0
    9.3918    9.8159    0.2917 H   0  0  0  0  0  0  0  0  0  0  0  0
    9.2254    9.8331   -1.4804 H   0  0  0  0  0  0  0  0  0  0  0  0
    6.7759   10.1395   -1.2475 H   0  0  0  0  0  0  0  0  0  0  0  0
    6.9422   10.1223    0.5246 H   0  0  0  0  0  0  0  0  0  0  0  0
    5.2967    8.1275   -0.2342 H   0  0  0  0  0  0  0  0  0  0  0  0
    6.8803    5.6971   -0.4064 H   0  0  0  0  0  0  0  0  0  0  0  0
    3.9590    6.1518   -0.2196 H   0  0  0  0  0  0  0  0  0  0  0  0
    6.7430    1.5257    0.2497 H   0  0  0  0  0  0  0  0  0  0  0  0
    2.8397    0.4319   -1.9254 H   0  0  0  0  0  0  0  0  0  0  0  0
    0.7306   -0.8354   -1.9783 H   0  0  0  0  0  0  0  0  0  0  0  0
   -0.4411    0.9498    1.7182 H   0  0  0  0  0  0  0  0  0  0  0  0
    1.6687    2.2156    1.7792 H   0  0  0  0  0  0  0  0  0  0  0  0
  1  2  1  0  0  0  0
  1 26  1  0  0  0  0
  1 27  1  0  0  0  0
  1 28  1  0  0  0  0
  2  3  1  0  0  0  0
  2 29  1  0  0  0  0
  2 30  1  0  0  0  0
  3  4  1  0  0  0  0
  3 31  1  0  0  0  0
  3 32  1  0  0  0  0
  4  5  1  0  0  0  0
  4 33  1  0  0  0  0
  4 34  1  0  0  0  0
  5  6  2  0  0  0  0
  5  7  1  0  0  0  0
  7  8  1  0  0  0  0
  7 35  1  0  0  0  0
  8  9  1  0  0  0  0
  8 36  1  0  0  0  0
  9 10  2  0  0  0  0
  9 37  1  0  0  0  0
 10 17  1  0  0  0  0
 10 11  1  0  0  0  0
 11 12  2  0  0  0  0
 11 13  1  0  0  0  0
 13 14  1  0  0  0  0
 13 38  1  0  0  0  0
 14 15  2  0  0  0  0
 14 16  1  0  0  0  0
 16 17  1  0  0  0  0
 16 19  1  0  0  0  0
 17 18  2  0  0  0  0
 19 24  2  0  0  0  0
 19 20  1  0  0  0  0
 20 21  2  0  0  0  0
 20 39  1  0  0  0  0
 21 22  1  0  0  0  0
 21 40  1  0  0  0  0
 22 23  2  0  0  0  0
 22 25  1  0  0  0  0
 23 24  1  0  0  0  0
 23 41  1  0  0  0  0
 24 42  1  0  0  0  0
M  END
$$$$
ZINC02325924
  -OEChem-08230709453D

 47 49  0     1  0  0  0  0  0999 V2000
    0.8574    7.8256    4.7914 C   0  0  0  0  0  0  0  0  0  0  0  0
    0.1519    6.4682    4.7630 C   0  0  0  0  0  0  0  0  0  0  0  0
   -0.6579    6.3641    3.5467 N   0  0  0  0  0  0  0  0  0  0  0  0
   -1.9625    6.7433    3.5772 C   0  0  0  0  0  0  0  0  0  0  0  0
   -2.7350    6.6598    2.4730 C   0  0  0  0  0  0  0  0  0  0  0  0
   -2.1854    6.1729    1.2689 C   0  0  0  0  0  0  0  0  0  0  0  0
   -0.8610    5.7896    1.2462 C   0  0  0  0  0  0  0  0  0  0  0  0
   -0.0982    5.8938    2.4164 C   0  0  0  0  0  0  0  0  0  0  0  0
    1.0759    5.5581    2.4111 O   0  0  0  0  0  0  0  0  0  0  0  0
   -0.2345    5.2642   -0.0161 C   0  0  2  0  0  0  0  0  0  0  0  0
    0.7520    5.7101   -0.1426 H   0  0  0  0  0  0  0  0  0  0  0  0
   -1.0911    5.6109   -1.2022 C   0  0  0  0  0  0  0  0  0  0  0  0
   -2.3796    5.9971   -1.0488 C   0  0  0  0  0  0  0  0  0  0  0  0
   -2.9548    6.0893    0.1630 O   0  0  0  0  0  0  0  0  0  0  0  0
   -3.1204    6.3031   -2.1630 N   0  0  0  0  0  0  0  0  0  0  0  0
   -0.5332    5.5321   -2.5187 C   0  0  0  0  0  0  0  0  0  0  0  0
   -0.0907    5.4695   -3.5631 N   0  0  0  0  0  0  0  0  0  0  0  0
   -0.0972    3.7665    0.0802 C   0  0  0  0  0  0  0  0  0  0  0  0
   -1.2195    2.9788    0.2499 C   0  0  0  0  0  0  0  0  0  0  0  0
   -1.0948    1.6045    0.3326 C   0  0  0  0  0  0  0  0  0  0  0  0
    0.1540    1.0154    0.2564 C   0  0  0  0  0  0  0  0  0  0  0  0
    1.2791    1.7985    0.0868 C   0  0  0  0  0  0  0  0  0  0  0  0
    1.1560    3.1777   -0.0018 C   0  0  0  0  0  0  0  0  0  0  0  0
    2.2616    3.9504   -0.1683 O   0  0  0  0  0  0  0  0  0  0  0  0
    3.5191    3.2759   -0.2440 C   0  0  0  0  0  0  0  0  0  0  0  0
    4.6381    4.3026   -0.4303 C   0  0  0  0  0  0  0  0  0  0  0  0
   -2.5550    7.2645    4.8611 C   0  0  0  0  0  0  0  0  0  0  0  0
    0.1134    8.6220    4.7809 H   0  0  0  0  0  0  0  0  0  0  0  0
    1.4599    7.9030    5.6964 H   0  0  0  0  0  0  0  0  0  0  0  0
    1.5015    7.9186    3.9170 H   0  0  0  0  0  0  0  0  0  0  0  0
   -0.4922    6.3752    5.6374 H   0  0  0  0  0  0  0  0  0  0  0  0
    0.8960    5.6717    4.7735 H   0  0  0  0  0  0  0  0  0  0  0  0
   -3.7702    6.9653    2.5116 H   0  0  0  0  0  0  0  0  0  0  0  0
   -4.0450    6.5811   -2.0693 H   0  0  0  0  0  0  0  0  0  0  0  0
   -2.7194    6.2414   -3.0440 H   0  0  0  0  0  0  0  0  0  0  0  0
   -2.1955    3.4368    0.3138 H   0  0  0  0  0  0  0  0  0  0  0  0
   -1.9737    0.9901    0.4611 H   0  0  0  0  0  0  0  0  0  0  0  0
    0.2492   -0.0582    0.3250 H   0  0  0  0  0  0  0  0  0  0  0  0
    2.2538    1.3376    0.0235 H   0  0  0  0  0  0  0  0  0  0  0  0
    3.6879    2.7175    0.6768 H   0  0  0  0  0  0  0  0  0  0  0  0
    3.5123    2.5884   -1.0898 H   0  0  0  0  0  0  0  0  0  0  0  0
    4.4692    4.8609   -1.3511 H   0  0  0  0  0  0  0  0  0  0  0  0
    4.6449    4.9901    0.4154 H   0  0  0  0  0  0  0  0  0  0  0  0
    5.5973    3.7881   -0.4881 H   0  0  0  0  0  0  0  0  0  0  0  0
   -1.9678    8.1122    5.2144 H   0  0  0  0  0  0  0  0  0  0  0  0
   -3.5824    7.5827    4.6842 H   0  0  0  0  0  0  0  0  0  0  0  0
   -2.5433    6.4757    5.6133 H   0  0  0  0  0  0  0  0  0  0  0  0
  1  2  1  0  0  0  0
  1 28  1  0  0  0  0
  1 29  1  0  0  0  0
  1 30  1  0  0  0  0
  2  3  1  0  0  0  0
  2 31  1  0  0  0  0
  2 32  1  0  0  0  0
  3  8  1  0  0  0  0
  3  4  1  0  0  0  0
  4  5  2  0  0  0  0
  4 27  1  0  0  0  0
  5  6  1  0  0  0  0
  5 33  1  0  0  0  0
  6 14  1  0  0  0  0
  6  7  2  0  0  0  0
  7  8  1  0  0  0  0
  7 10  1  0  0  0  0
  8  9  2  0  0  0  0
 10 11  1  0  0  0  0
 10 12  1  0  0  0  0
 10 18  1  0  0  0  0
 12 13  2  0  0  0  0
 12 16  1  0  0  0  0
 13 14  1  0  0  0  0
 13 15  1  0  0  0  0
 15 34  1  0  0  0  0
 15 35  1  0  0  0  0
 16 17  3  0  0  0  0
 18 23  2  0  0  0  0
 18 19  1  0  0  0  0
 19 20  2  0  0  0  0
 19 36  1  0  0  0  0
 20 21  1  0  0  0  0
 20 37  1  0  0  0  0
 21 22  2  0  0  0  0
 21 38  1  0  0  0  0
 22 23  1  0  0  0  0
 22 39  1  0  0  0  0
 23 24  1  0  0  0  0
 24 25  1  0  0  0  0
 25 26  1  0  0  0  0
 25 40  1  0  0  0  0
 25 41  1  0  0  0  0
 26 42  1  0  0  0  0
 26 43  1  0  0  0  0
 26 44  1  0  0  0  0
 27 45  1  0  0  0  0
 27 46  1  0  0  0  0
 27 47  1  0  0  0  0
M  END
$$$$
ZINC02334233
  -OEChem-08230709453D

 42 44  0     0  0  0  0  0  0999 V2000
    2.7900   -6.3231    5.1864 C   0  0  0  0  0  0  0  0  0  0  0  0
    3.7053   -5.4803    4.2959 C   0  0  0  0  0  0  0  0  0  0  0  0
    2.9066   -4.9442    3.1061 C   0  0  0  0  0  0  0  0  0  0  0  0
    3.8219   -4.1014    2.2157 C   0  0  0  0  0  0  0  0  0  0  0  0
    3.0352   -3.5734    1.0438 C   0  0  0  0  0  0  0  0  0  0  0  0
    2.5662   -2.2769    1.0590 C   0  0  0  0  0  0  0  0  0  0  0  0
    1.8371   -1.7867   -0.0255 C   0  0  0  0  0  0  0  0  0  0  0  0
    1.5806   -2.6182   -1.1240 C   0  0  0  0  0  0  0  0  0  0  0  0
    2.0606   -3.9158   -1.1309 C   0  0  0  0  0  0  0  0  0  0  0  0
    2.7845   -4.3944   -0.0481 C   0  0  0  0  0  0  0  0  0  0  0  0
    3.2503   -5.6708   -0.0563 O   0  0  0  0  0  0  0  0  0  0  0  0
    0.8670   -2.1501   -2.1808 O   0  0  0  0  0  0  0  0  0  0  0  0
    1.3327   -0.3990   -0.0128 C   0  0  0  0  0  0  0  0  0  0  0  0
    0.0021   -0.0041    0.0020 C   0  0  0  0  0  0  0  0  0  0  0  0
   -0.0170    1.4015    0.0097 C   0  0  0  0  0  0  0  0  0  0  0  0
    1.2158    1.8347    0.0003 N   0  0  0  0  0  0  0  0  0  0  0  0
    2.0859    0.7384   -0.0139 N   0  0  0  0  0  0  0  0  0  0  0  0
    3.0849    0.7814   -0.0232 H   0  0  0  0  0  0  0  0  0  0  0  0
   -1.1808   -0.8995    0.0078 C   0  0  0  0  0  0  0  0  0  0  0  0
   -2.4513   -0.3905    0.0276 C   0  0  0  0  0  0  0  0  0  0  0  0
   -3.4101   -1.8983    0.0232 S   0  0  0  0  0  0  0  0  0  0  0  0
   -2.0805   -3.0146    0.0049 C   0  0  0  0  0  0  0  0  0  0  0  0
   -1.0407   -2.2156   -0.0006 N   0  0  0  0  0  0  0  0  0  0  0  0
   -2.1131   -4.5212   -0.0036 C   0  0  0  0  0  0  0  0  0  0  0  0
    2.3914   -7.1583    4.6104 H   0  0  0  0  0  0  0  0  0  0  0  0
    3.3590   -6.7050    6.0340 H   0  0  0  0  0  0  0  0  0  0  0  0
    1.9676   -5.7065    5.5490 H   0  0  0  0  0  0  0  0  0  0  0  0
    4.5277   -6.0969    3.9333 H   0  0  0  0  0  0  0  0  0  0  0  0
    4.1039   -4.6451    4.8719 H   0  0  0  0  0  0  0  0  0  0  0  0
    2.0842   -4.3276    3.4688 H   0  0  0  0  0  0  0  0  0  0  0  0
    2.5080   -5.7794    2.5302 H   0  0  0  0  0  0  0  0  0  0  0  0
    4.6443   -4.7180    1.8531 H   0  0  0  0  0  0  0  0  0  0  0  0
    4.2205   -3.2662    2.7916 H   0  0  0  0  0  0  0  0  0  0  0  0
    2.7626   -1.6412    1.9097 H   0  0  0  0  0  0  0  0  0  0  0  0
    1.8684   -4.5578   -1.9779 H   0  0  0  0  0  0  0  0  0  0  0  0
    2.6363   -6.3159    0.3205 H   0  0  0  0  0  0  0  0  0  0  0  0
    1.4075   -1.7395   -2.8695 H   0  0  0  0  0  0  0  0  0  0  0  0
   -0.9024    2.0199    0.0175 H   0  0  0  0  0  0  0  0  0  0  0  0
   -2.7824    0.6374    0.0411 H   0  0  0  0  0  0  0  0  0  0  0  0
   -2.1110   -4.8904    1.0220 H   0  0  0  0  0  0  0  0  0  0  0  0
   -3.0157   -4.8622   -0.5107 H   0  0  0  0  0  0  0  0  0  0  0  0
   -1.2362   -4.9007   -0.5282 H   0  0  0  0  0  0  0  0  0  0  0  0
  1  2  1  0  0  0  0
  1 25  1  0  0  0  0
  1 26  1  0  0  0  0
  1 27  1  0  0  0  0
  2  3  1  0  0  0  0
  2 28  1  0  0  0  0
  2 29  1  0  0  0  0
  3  4  1  0  0  0  0
  3 30  1  0  0  0  0
  3 31  1  0  0  0  0
  4  5  1  0  0  0  0
  4 32  1  0  0  0  0
  4 33  1  0  0  0  0
  5 10  2  0  0  0  0
  5  6  1  0  0  0  0
  6  7  2  0  0  0  0
  6 34  1  0  0  0  0
  7  8  1  0  0  0  0
  7 13  1  0  0  0  0
  8  9  2  0  0  0  0
  8 12  1  0  0  0  0
  9 10  1  0  0  0  0
  9 35  1  0  0  0  0
 10 11  1  0  0  0  0
 11 36  1  0  0  0  0
 12 37  1  0  0  0  0
 13 17  1  0  0  0  0
 13 14  2  0  0  0  0
 14 15  1  0  0  0  0
 14 19  1  0  0  0  0
 15 16  2  0  0  0  0
 15 38  1  0  0  0  0
 16 17  1  0  0  0  0
 17 18  1  0  0  0  0
 19 23  1  0  0  0  0
 19 20  2  0  0  0  0
 20 21  1  0  0  0  0
 20 39  1  0  0  0  0
 21 22  1  0  0  0  0
 22 23  2  0  0  0  0
 22 24  1  0  0  0  0
 24 40  1  0  0  0  0
 24 41  1  0  0  0  0
 24 42  1  0  0  0  0
M  END
$$$$
ZINC02334233
  -OEChem-08230709453D

 42 44  0     0  0  0  0  0  0999 V2000
    2.7870   -6.3232    5.1880 C   0  0  0  0  0  0  0  0  0  0  0  0
    3.7028   -5.4803    4.2980 C   0  0  0  0  0  0  0  0  0  0  0  0
    2.9048   -4.9442    3.1077 C   0  0  0  0  0  0  0  0  0  0  0  0
    3.8206   -4.1014    2.2179 C   0  0  0  0  0  0  0  0  0  0  0  0
    3.0346   -3.5734    1.0455 C   0  0  0  0  0  0  0  0  0  0  0  0
    2.5656   -2.2769    1.0605 C   0  0  0  0  0  0  0  0  0  0  0  0
    1.8371   -1.7867   -0.0245 C   0  0  0  0  0  0  0  0  0  0  0  0
    1.5812   -2.6182   -1.1231 C   0  0  0  0  0  0  0  0  0  0  0  0
    2.0612   -3.9158   -1.1297 C   0  0  0  0  0  0  0  0  0  0  0  0
    2.7845   -4.3944   -0.0465 C   0  0  0  0  0  0  0  0  0  0  0  0
    3.2503   -5.6708   -0.0545 O   0  0  0  0  0  0  0  0  0  0  0  0
    0.8683   -2.1501   -2.1803 O   0  0  0  0  0  0  0  0  0  0  0  0
    1.3327   -0.3990   -0.0120 C   0  0  0  0  0  0  0  0  0  0  0  0
    0.0021   -0.0041    0.0025 C   0  0  0  0  0  0  0  0  0  0  0  0
   -0.0170    1.4015    0.0105 C   0  0  0  0  0  0  0  0  0  0  0  0
    1.2158    1.8347    0.0003 N   0  0  0  0  0  0  0  0  0  0  0  0
    2.0859    0.7384   -0.0127 N   0  0  0  0  0  0  0  0  0  0  0  0
    1.4931    2.7955    0.0015 H   0  0  0  0  0  0  0  0  0  0  0  0
   -1.1808   -0.8995    0.0085 C   0  0  0  0  0  0  0  0  0  0  0  0
   -2.4513   -0.3905    0.0288 C   0  0  0  0  0  0  0  0  0  0  0  0
   -3.4101   -1.8983    0.0244 S   0  0  0  0  0  0  0  0  0  0  0  0
   -2.0805   -3.0146    0.0055 C   0  0  0  0  0  0  0  0  0  0  0  0
   -1.0407   -2.2156   -0.0002 N   0  0  0  0  0  0  0  0  0  0  0  0
   -2.1131   -4.5212   -0.0034 C   0  0  0  0  0  0  0  0  0  0  0  0
    2.3887   -7.1583    4.6117 H   0  0  0  0  0  0  0  0  0  0  0  0
    3.3555   -6.7051    6.0359 H   0  0  0  0  0  0  0  0  0  0  0  0
    1.9644   -5.7066    5.5501 H   0  0  0  0  0  0  0  0  0  0  0  0
    4.5254   -6.0969    3.9359 H   0  0  0  0  0  0  0  0  0  0  0  0
    4.1011   -4.6452    4.8742 H   0  0  0  0  0  0  0  0  0  0  0  0
    2.0822   -4.3276    3.4700 H   0  0  0  0  0  0  0  0  0  0  0  0
    2.5065   -5.7794    2.5316 H   0  0  0  0  0  0  0  0  0  0  0  0
    4.6432   -4.7180    1.8557 H   0  0  0  0  0  0  0  0  0  0  0  0
    4.2189   -3.2662    2.7940 H   0  0  0  0  0  0  0  0  0  0  0  0
    2.7615   -1.6412    1.9113 H   0  0  0  0  0  0  0  0  0  0  0  0
    1.8695   -4.5578   -1.9769 H   0  0  0  0  0  0  0  0  0  0  0  0
    2.6361   -6.3159    0.3220 H   0  0  0  0  0  0  0  0  0  0  0  0
    1.4092   -1.7395   -2.8687 H   0  0  0  0  0  0  0  0  0  0  0  0
   -0.9024    2.0199    0.0227 H   0  0  0  0  0  0  0  0  0  0  0  0
   -2.7824    0.6374    0.0427 H   0  0  0  0  0  0  0  0  0  0  0  0
   -2.1107   -4.8906    1.0222 H   0  0  0  0  0  0  0  0  0  0  0  0
   -3.0159   -4.8621   -0.5102 H   0  0  0  0  0  0  0  0  0  0  0  0
   -1.2364   -4.9006   -0.5283 H   0  0  0  0  0  0  0  0  0  0  0  0
  1  2  1  0  0  0  0
  1 25  1  0  0  0  0
  1 26  1  0  0  0  0
  1 27  1  0  0  0  0
  2  3  1  0  0  0  0
  2 28  1  0  0  0  0
  2 29  1  0  0  0  0
  3  4  1  0  0  0  0
  3 30  1  0  0  0  0
  3 31  1  0  0  0  0
  4  5  1  0  0  0  0
  4 32  1  0  0  0  0
  4 33  1  0  0  0  0
  5 10  2  0  0  0  0
  5  6  1  0  0  0  0
  6  7  2  0  0  0  0
  6 34  1  0  0  0  0
  7  8  1  0  0  0  0
  7 13  1  0  0  0  0
  8  9  2  0  0  0  0
  8 12  1  0  0  0  0
  9 10  1  0  0  0  0
  9 35  1  0  0  0  0
 10 11  1  0  0  0  0
 11 36  1  0  0  0  0
 12 37  1  0  0  0  0
 13 14  1  0  0  0  0
 13 17  2  0  0  0  0
 14 19  1  0  0  0  0
 14 15  2  0  0  0  0
 15 38  1  0  0  0  0
 15 16  1  0  0  0  0
 16 18  1  0  0  0  0
 16 17  1  0  0  0  0
 19 23  1  0  0  0  0
 19 20  2  0  0  0  0
 20 21  1  0  0  0  0
 20 39  1  0  0  0  0
 21 22  1  0  0  0  0
 22 23  2  0  0  0  0
 22 24  1  0  0  0  0
 24 40  1  0  0  0  0
 24 41  1  0  0  0  0
 24 42  1  0  0  0  0
M  END
$$$$
ZINC02335666
  -OEChem-08230709453D

 45 46  0     0  0  0  0  0  0999 V2000
   -7.4002   -6.9836   -3.3506 C   0  0  0  0  0  0  0  0  0  0  0  0
   -7.2404   -5.6338   -4.0530 C   0  0  0  0  0  0  0  0  0  0  0  0
   -6.1919   -4.7970   -3.3172 C   0  0  0  0  0  0  0  0  0  0  0  0
   -6.0321   -3.4472   -4.0197 C   0  0  0  0  0  0  0  0  0  0  0  0
   -4.9993   -2.6230   -3.2949 C   0  0  0  0  0  0  0  0  0  0  0  0
   -4.4457   -3.0710   -2.3133 O   0  0  0  0  0  0  0  0  0  0  0  0
   -4.6910   -1.3879   -3.7377 N   0  0  0  0  0  0  0  0  0  0  0  0
   -3.7309   -0.6216   -3.0640 N   0  0  0  0  0  0  0  0  0  0  0  0
   -3.4225    0.6137   -3.5068 C   0  0  0  0  0  0  0  0  0  0  0  0
   -2.4014    1.3278   -2.9079 C   0  0  0  0  0  0  0  0  0  0  0  0
   -1.9471    2.6212   -3.4491 C   0  0  0  0  0  0  0  0  0  0  0  0
   -2.4613    3.0975   -4.4435 O   0  0  0  0  0  0  0  0  0  0  0  0
   -0.9455    3.2623   -2.8123 N   0  0  0  0  0  0  0  0  0  0  0  0
   -0.3700    2.7486   -1.7162 C   0  0  0  0  0  0  0  0  0  0  0  0
    0.5274    3.3766   -1.1894 O   0  0  0  0  0  0  0  0  0  0  0  0
   -0.7319    1.5793   -1.1699 N   0  0  0  0  0  0  0  0  0  0  0  0
   -1.7162    0.8266   -1.7031 C   0  0  0  0  0  0  0  0  0  0  0  0
   -2.0322   -0.2356   -1.2009 O   0  0  0  0  0  0  0  0  0  0  0  0
   -0.0385    1.1049    0.0302 C   0  0  0  0  0  0  0  0  0  0  0  0
   -0.7495    1.6165    1.2565 C   0  0  0  0  0  0  0  0  0  0  0  0
   -0.3837    2.8285    1.8118 C   0  0  0  0  0  0  0  0  0  0  0  0
   -1.0383    3.3009    2.9335 C   0  0  0  0  0  0  0  0  0  0  0  0
   -2.0538    2.5549    3.5073 C   0  0  0  0  0  0  0  0  0  0  0  0
   -2.4159    1.3387    2.9533 C   0  0  0  0  0  0  0  0  0  0  0  0
   -1.7634    0.8708    1.8285 C   0  0  0  0  0  0  0  0  0  0  0  0
   -2.6913    3.0136    4.6066 F   0  0  0  0  0  0  0  0  0  0  0  0
   -6.4462   -7.5107   -3.3550 H   0  0  0  0  0  0  0  0  0  0  0  0
   -7.7212   -6.8219   -2.3215 H   0  0  0  0  0  0  0  0  0  0  0  0
   -8.1472   -7.5797   -3.8747 H   0  0  0  0  0  0  0  0  0  0  0  0
   -8.1944   -5.1066   -4.0486 H   0  0  0  0  0  0  0  0  0  0  0  0
   -6.9194   -5.7955   -5.0820 H   0  0  0  0  0  0  0  0  0  0  0  0
   -5.2379   -5.3241   -3.3217 H   0  0  0  0  0  0  0  0  0  0  0  0
   -6.5129   -4.6353   -2.2882 H   0  0  0  0  0  0  0  0  0  0  0  0
   -6.9861   -2.9200   -4.0152 H   0  0  0  0  0  0  0  0  0  0  0  0
   -5.7111   -3.6089   -5.0487 H   0  0  0  0  0  0  0  0  0  0  0  0
   -5.1338   -1.0295   -4.5228 H   0  0  0  0  0  0  0  0  0  0  0  0
   -3.2881   -0.9800   -2.2788 H   0  0  0  0  0  0  0  0  0  0  0  0
   -3.9731    1.0455   -4.3295 H   0  0  0  0  0  0  0  0  0  0  0  0
   -0.6345    4.1144   -3.1558 H   0  0  0  0  0  0  0  0  0  0  0  0
   -0.0346    0.0150    0.0407 H   0  0  0  0  0  0  0  0  0  0  0  0
    0.9879    1.4719    0.0258 H   0  0  0  0  0  0  0  0  0  0  0  0
    0.4113    3.4083    1.3665 H   0  0  0  0  0  0  0  0  0  0  0  0
   -0.7551    4.2497    3.3647 H   0  0  0  0  0  0  0  0  0  0  0  0
   -3.2081    0.7561    3.3998 H   0  0  0  0  0  0  0  0  0  0  0  0
   -2.0458   -0.0777    1.3960 H   0  0  0  0  0  0  0  0  0  0  0  0
  1  2  1  0  0  0  0
  1 27  1  0  0  0  0
  1 28  1  0  0  0  0
  1 29  1  0  0  0  0
  2  3  1  0  0  0  0
  2 30  1  0  0  0  0
  2 31  1  0  0  0  0
  3  4  1  0  0  0  0
  3 32  1  0  0  0  0
  3 33  1  0  0  0  0
  4  5  1  0  0  0  0
  4 34  1  0  0  0  0
  4 35  1  0  0  0  0
  5  6  2  0  0  0  0
  5  7  1  0  0  0  0
  7  8  1  0  0  0  0
  7 36  1  0  0  0  0
  8  9  1  0  0  0  0
  8 37  1  0  0  0  0
  9 10  2  0  0  0  0
  9 38  1  0  0  0  0
 10 17  1  0  0  0  0
 10 11  1  0  0  0  0
 11 12  2  0  0  0  0
 11 13  1  0  0  0  0
 13 14  1  0  0  0  0
 13 39  1  0  0  0  0
 14 15  2  0  0  0  0
 14 16  1  0  0  0  0
 16 17  1  0  0  0  0
 16 19  1  0  0  0  0
 17 18  2  0  0  0  0
 19 20  1  0  0  0  0
 19 40  1  0  0  0  0
 19 41  1  0  0  0  0
 20 25  2  0  0  0  0
 20 21  1  0  0  0  0
 21 22  2  0  0  0  0
 21 42  1  0  0  0  0
 22 23  1  0  0  0  0
 22 43  1  0  0  0  0
 23 24  2  0  0  0  0
 23 26  1  0  0  0  0
 24 25  1  0  0  0  0
 24 44  1  0  0  0  0
 25 45  1  0  0  0  0
M  END
$$$$
ZINC02340544
  -OEChem-08230709453D

 44 46  0     1  0  0  0  0  0999 V2000
    2.4568    1.0256   -0.0162 C   0  0  0  0  0  0  0  0  0  0  0  0
    1.1461    1.7691    0.0006 C   0  0  0  0  0  0  0  0  0  0  0  0
   -0.0126    1.0758    0.0080 C   0  0  0  0  0  0  0  0  0  0  0  0
   -1.2420    1.7667    0.0175 C   0  0  0  0  0  0  0  0  0  0  0  0
   -1.2331    3.1455    0.0299 C   0  0  0  0  0  0  0  0  0  0  0  0
   -0.0066    3.8221    0.0217 C   0  0  0  0  0  0  0  0  0  0  0  0
    0.0165    5.0431    0.0269 O   0  0  0  0  0  0  0  0  0  0  0  0
    1.1465    3.1279    0.0078 N   0  0  0  0  0  0  0  0  0  0  0  0
    2.4220    3.8486    0.0006 C   0  0  0  0  0  0  0  0  0  0  0  0
    2.8536    4.1071   -1.4443 C   0  0  0  0  0  0  0  0  0  0  0  0
    1.9184    4.9875   -2.0706 O   0  0  0  0  0  0  0  0  0  0  0  0
    2.2308    5.2952   -3.4307 C   0  0  0  0  0  0  0  0  0  0  0  0
   -2.5209    3.9224    0.0450 C   0  0  2  0  0  0  0  0  0  0  0  0
   -2.4377    4.7460    0.7541 H   0  0  0  0  0  0  0  0  0  0  0  0
   -3.6598    3.0286    0.4505 C   0  0  0  0  0  0  0  0  0  0  0  0
   -3.5385    1.6804    0.4223 C   0  0  0  0  0  0  0  0  0  0  0  0
   -2.4020    1.0766    0.0330 O   0  0  0  0  0  0  0  0  0  0  0  0
   -4.6070    0.9073    0.8025 N   0  0  0  0  0  0  0  0  0  0  0  0
   -4.8957    3.6141    0.8750 C   0  0  0  0  0  0  0  0  0  0  0  0
   -5.8762    4.0786    1.2118 N   0  0  0  0  0  0  0  0  0  0  0  0
   -2.7879    4.4737   -1.3319 C   0  0  0  0  0  0  0  0  0  0  0  0
   -2.9214    3.6141   -2.4066 C   0  0  0  0  0  0  0  0  0  0  0  0
   -3.1711    4.1181   -3.6693 C   0  0  0  0  0  0  0  0  0  0  0  0
   -3.2772    5.4828   -3.8607 C   0  0  0  0  0  0  0  0  0  0  0  0
   -3.1385    6.3448   -2.7863 C   0  0  0  0  0  0  0  0  0  0  0  0
   -2.8935    5.8384   -1.5209 C   0  0  0  0  0  0  0  0  0  0  0  0
   -3.2415    7.6789   -2.9723 F   0  0  0  0  0  0  0  0  0  0  0  0
    2.2658   -0.0475   -0.0204 H   0  0  0  0  0  0  0  0  0  0  0  0
    3.0177    1.2983   -0.9102 H   0  0  0  0  0  0  0  0  0  0  0  0
    3.0350    1.2883    0.8697 H   0  0  0  0  0  0  0  0  0  0  0  0
    0.0021   -0.0041    0.0020 H   0  0  0  0  0  0  0  0  0  0  0  0
    2.3049    4.7995    0.5205 H   0  0  0  0  0  0  0  0  0  0  0  0
    3.1805    3.2498    0.5048 H   0  0  0  0  0  0  0  0  0  0  0  0
    3.8434    4.5635   -1.4517 H   0  0  0  0  0  0  0  0  0  0  0  0
    2.8847    3.1632   -1.9886 H   0  0  0  0  0  0  0  0  0  0  0  0
    3.2076    5.7763   -3.4792 H   0  0  0  0  0  0  0  0  0  0  0  0
    2.2489    4.3760   -4.0162 H   0  0  0  0  0  0  0  0  0  0  0  0
    1.4740    5.9680   -3.8340 H   0  0  0  0  0  0  0  0  0  0  0  0
   -5.4336    1.3282    1.0862 H   0  0  0  0  0  0  0  0  0  0  0  0
   -4.5355   -0.0600    0.7877 H   0  0  0  0  0  0  0  0  0  0  0  0
   -2.8345    2.5478   -2.2587 H   0  0  0  0  0  0  0  0  0  0  0  0
   -3.2792    3.4454   -4.5073 H   0  0  0  0  0  0  0  0  0  0  0  0
   -3.4678    5.8766   -4.8481 H   0  0  0  0  0  0  0  0  0  0  0  0
   -2.7855    6.5099   -0.6819 H   0  0  0  0  0  0  0  0  0  0  0  0
  1  2  1  0  0  0  0
  1 28  1  0  0  0  0
  1 29  1  0  0  0  0
  1 30  1  0  0  0  0
  2  8  1  0  0  0  0
  2  3  2  0  0  0  0
  3  4  1  0  0  0  0
  3 31  1  0  0  0  0
  4 17  1  0  0  0  0
  4  5  2  0  0  0  0
  5  6  1  0  0  0  0
  5 13  1  0  0  0  0
  6  7  2  0  0  0  0
  6  8  1  0  0  0  0
  8  9  1  0  0  0  0
  9 10  1  0  0  0  0
  9 32  1  0  0  0  0
  9 33  1  0  0  0  0
 10 11  1  0  0  0  0
 10 34  1  0  0  0  0
 10 35  1  0  0  0  0
 11 12  1  0  0  0  0
 12 36  1  0  0  0  0
 12 37  1  0  0  0  0
 12 38  1  0  0  0  0
 13 14  1  0  0  0  0
 13 15  1  0  0  0  0
 13 21  1  0  0  0  0
 15 16  2  0  0  0  0
 15 19  1  0  0  0  0
 16 17  1  0  0  0  0
 16 18  1  0  0  0  0
 18 39  1  0  0  0  0
 18 40  1  0  0  0  0
 19 20  3  0  0  0  0
 21 26  2  0  0  0  0
 21 22  1  0  0  0  0
 22 23  2  0  0  0  0
 22 41  1  0  0  0  0
 23 24  1  0  0  0  0
 23 42  1  0  0  0  0
 24 25  2  0  0  0  0
 24 43  1  0  0  0  0
 25 26  1  0  0  0  0
 25 27  1  0  0  0  0
 26 44  1  0  0  0  0
M  END
$$$$
ZINC02340546
  -OEChem-08230709453D

 44 46  0     1  0  0  0  0  0999 V2000
   -1.0355   -0.8856    2.6090 C   0  0  0  0  0  0  0  0  0  0  0  0
   -2.2266   -0.2096    1.9804 C   0  0  0  0  0  0  0  0  0  0  0  0
   -3.4426   -0.7905    2.0635 C   0  0  0  0  0  0  0  0  0  0  0  0
   -4.5607   -0.1619    1.4772 C   0  0  0  0  0  0  0  0  0  0  0  0
   -4.3856    1.0413    0.8271 C   0  0  0  0  0  0  0  0  0  0  0  0
   -3.1063    1.6091    0.7708 C   0  0  0  0  0  0  0  0  0  0  0  0
   -2.9372    2.6768    0.2029 O   0  0  0  0  0  0  0  0  0  0  0  0
   -2.0622    0.9766    1.3380 N   0  0  0  0  0  0  0  0  0  0  0  0
   -0.7288    1.5792    1.2668 C   0  0  0  0  0  0  0  0  0  0  0  0
   -0.0127    1.0858    0.0080 C   0  0  0  0  0  0  0  0  0  0  0  0
   -0.7038    1.5592   -1.1497 O   0  0  0  0  0  0  0  0  0  0  0  0
   -0.1136    1.1523   -2.3859 C   0  0  0  0  0  0  0  0  0  0  0  0
   -5.5506    1.7470    0.1891 C   0  0  1  0  0  0  0  0  0  0  0  0
   -5.2538    2.1214   -0.7906 H   0  0  0  0  0  0  0  0  0  0  0  0
   -6.7067    0.7989    0.0310 C   0  0  0  0  0  0  0  0  0  0  0  0
   -6.7547   -0.3698    0.7127 C   0  0  0  0  0  0  0  0  0  0  0  0
   -5.7777   -0.7401    1.5591 O   0  0  0  0  0  0  0  0  0  0  0  0
   -7.8326   -1.2008    0.5350 N   0  0  0  0  0  0  0  0  0  0  0  0
   -7.7775    1.1387   -0.8570 C   0  0  0  0  0  0  0  0  0  0  0  0
   -8.6270    1.4083   -1.5614 N   0  0  0  0  0  0  0  0  0  0  0  0
   -5.9716    2.9032    1.0591 C   0  0  0  0  0  0  0  0  0  0  0  0
   -5.9420    4.1917    0.5583 C   0  0  0  0  0  0  0  0  0  0  0  0
   -6.3279    5.2531    1.3551 C   0  0  0  0  0  0  0  0  0  0  0  0
   -6.7439    5.0276    2.6538 C   0  0  0  0  0  0  0  0  0  0  0  0
   -6.7740    3.7380    3.1564 C   0  0  0  0  0  0  0  0  0  0  0  0
   -6.3925    2.6748    2.3553 C   0  0  0  0  0  0  0  0  0  0  0  0
   -7.1808    3.5164    4.4254 F   0  0  0  0  0  0  0  0  0  0  0  0
   -0.9279   -0.5476    3.6397 H   0  0  0  0  0  0  0  0  0  0  0  0
   -1.1810   -1.9658    2.5942 H   0  0  0  0  0  0  0  0  0  0  0  0
   -0.1360   -0.6325    2.0479 H   0  0  0  0  0  0  0  0  0  0  0  0
   -3.5587   -1.7332    2.5776 H   0  0  0  0  0  0  0  0  0  0  0  0
   -0.1536    1.2938    2.1476 H   0  0  0  0  0  0  0  0  0  0  0  0
   -0.8222    2.6646    1.2299 H   0  0  0  0  0  0  0  0  0  0  0  0
    0.0021   -0.0041    0.0020 H   0  0  0  0  0  0  0  0  0  0  0  0
    1.0099    1.4631    0.0003 H   0  0  0  0  0  0  0  0  0  0  0  0
    0.9069    1.5310   -2.4433 H   0  0  0  0  0  0  0  0  0  0  0  0
   -0.1009    0.0638   -2.4415 H   0  0  0  0  0  0  0  0  0  0  0  0
   -0.6966    1.5518   -3.2157 H   0  0  0  0  0  0  0  0  0  0  0  0
   -8.5455   -0.9474   -0.0719 H   0  0  0  0  0  0  0  0  0  0  0  0
   -7.8814   -2.0416    1.0164 H   0  0  0  0  0  0  0  0  0  0  0  0
   -5.6174    4.3688   -0.4565 H   0  0  0  0  0  0  0  0  0  0  0  0
   -6.3047    6.2590    0.9627 H   0  0  0  0  0  0  0  0  0  0  0  0
   -7.0457    5.8571    3.2761 H   0  0  0  0  0  0  0  0  0  0  0  0
   -6.4198    1.6679    2.7448 H   0  0  0  0  0  0  0  0  0  0  0  0
  1  2  1  0  0  0  0
  1 28  1  0  0  0  0
  1 29  1  0  0  0  0
  1 30  1  0  0  0  0
  2  8  1  0  0  0  0
  2  3  2  0  0  0  0
  3  4  1  0  0  0  0
  3 31  1  0  0  0  0
  4 17  1  0  0  0  0
  4  5  2  0  0  0  0
  5  6  1  0  0  0  0
  5 13  1  0  0  0  0
  6  7  2  0  0  0  0
  6  8  1  0  0  0  0
  8  9  1  0  0  0  0
  9 10  1  0  0  0  0
  9 32  1  0  0  0  0
  9 33  1  0  0  0  0
 10 11  1  0  0  0  0
 10 34  1  0  0  0  0
 10 35  1  0  0  0  0
 11 12  1  0  0  0  0
 12 36  1  0  0  0  0
 12 37  1  0  0  0  0
 12 38  1  0  0  0  0
 13 14  1  0  0  0  0
 13 15  1  0  0  0  0
 13 21  1  0  0  0  0
 15 16  2  0  0  0  0
 15 19  1  0  0  0  0
 16 17  1  0  0  0  0
 16 18  1  0  0  0  0
 18 39  1  0  0  0  0
 18 40  1  0  0  0  0
 19 20  3  0  0  0  0
 21 26  2  0  0  0  0
 21 22  1  0  0  0  0
 22 23  2  0  0  0  0
 22 41  1  0  0  0  0
 23 24  1  0  0  0  0
 23 42  1  0  0  0  0
 24 25  2  0  0  0  0
 24 43  1  0  0  0  0
 25 26  1  0  0  0  0
 25 27  1  0  0  0  0
 26 44  1  0  0  0  0
M  END
$$$$
ZINC02346333
  -OEChem-08230709453D

 44 46  0     1  0  0  0  0  0999 V2000
    5.5152   -0.4763   -3.4511 C   0  0  0  0  0  0  0  0  0  0  0  0
    5.7409   -0.2933   -1.9489 C   0  0  0  0  0  0  0  0  0  0  0  0
    4.5671    0.3500   -1.3535 N   0  0  0  0  0  0  0  0  0  0  0  0
    4.5303    1.7040   -1.2433 C   0  0  0  0  0  0  0  0  0  0  0  0
    3.4629    2.3268   -0.6994 C   0  0  0  0  0  0  0  0  0  0  0  0
    2.3685    1.5663   -0.2378 C   0  0  0  0  0  0  0  0  0  0  0  0
    2.4137    0.1930   -0.3527 C   0  0  0  0  0  0  0  0  0  0  0  0
    3.5421   -0.4093   -0.9238 C   0  0  0  0  0  0  0  0  0  0  0  0
    3.5958   -1.6244   -1.0323 O   0  0  0  0  0  0  0  0  0  0  0  0
    1.2692   -0.6565    0.1275 C   0  0  2  0  0  0  0  0  0  0  0  0
    1.0609   -1.4322   -0.6094 H   0  0  0  0  0  0  0  0  0  0  0  0
    0.0417    0.1901    0.3205 C   0  0  0  0  0  0  0  0  0  0  0  0
    0.1244    1.5393    0.3976 C   0  0  0  0  0  0  0  0  0  0  0  0
    1.2994    2.1861    0.3054 O   0  0  0  0  0  0  0  0  0  0  0  0
   -1.0258    2.2684    0.5692 N   0  0  0  0  0  0  0  0  0  0  0  0
   -1.2387   -0.4426    0.4252 C   0  0  0  0  0  0  0  0  0  0  0  0
   -2.2544   -0.9444    0.5083 N   0  0  0  0  0  0  0  0  0  0  0  0
    1.6416   -1.3025    1.4371 C   0  0  0  0  0  0  0  0  0  0  0  0
    1.9500   -0.5151    2.5315 C   0  0  0  0  0  0  0  0  0  0  0  0
    2.2870   -1.1035    3.7344 C   0  0  0  0  0  0  0  0  0  0  0  0
    2.3263   -2.4886    3.8416 C   0  0  0  0  0  0  0  0  0  0  0  0
    2.0209   -3.2765    2.7383 C   0  0  0  0  0  0  0  0  0  0  0  0
    1.6797   -2.6811    1.5400 C   0  0  0  0  0  0  0  0  0  0  0  0
    2.7628   -3.2438    5.3725 S   0  0  0  0  0  0  0  0  0  0  0  0
    3.0659   -1.8417    6.4829 C   0  0  0  0  0  0  0  0  0  0  0  0
    5.6967    2.5216   -1.7354 C   0  0  0  0  0  0  0  0  0  0  0  0
    4.6370   -1.1013   -3.6131 H   0  0  0  0  0  0  0  0  0  0  0  0
    5.3592    0.4971   -3.9163 H   0  0  0  0  0  0  0  0  0  0  0  0
    6.3885   -0.9549   -3.8941 H   0  0  0  0  0  0  0  0  0  0  0  0
    6.6191    0.3317   -1.7869 H   0  0  0  0  0  0  0  0  0  0  0  0
    5.8969   -1.2666   -1.4837 H   0  0  0  0  0  0  0  0  0  0  0  0
    3.4471    3.4036   -0.6183 H   0  0  0  0  0  0  0  0  0  0  0  0
   -1.8816    1.8163    0.6335 H   0  0  0  0  0  0  0  0  0  0  0  0
   -0.9828    3.2358    0.6263 H   0  0  0  0  0  0  0  0  0  0  0  0
    1.9235    0.5612    2.4462 H   0  0  0  0  0  0  0  0  0  0  0  0
    2.5237   -0.4881    4.5898 H   0  0  0  0  0  0  0  0  0  0  0  0
    2.0508   -4.3531    2.8179 H   0  0  0  0  0  0  0  0  0  0  0  0
    1.4426   -3.2928    0.6821 H   0  0  0  0  0  0  0  0  0  0  0  0
    3.8734   -1.2289    6.0822 H   0  0  0  0  0  0  0  0  0  0  0  0
    2.1602   -1.2408    6.5649 H   0  0  0  0  0  0  0  0  0  0  0  0
    3.3462   -2.2129    7.4687 H   0  0  0  0  0  0  0  0  0  0  0  0
    5.8849    2.2916   -2.7842 H   0  0  0  0  0  0  0  0  0  0  0  0
    5.4666    3.5819   -1.6317 H   0  0  0  0  0  0  0  0  0  0  0  0
    6.5822    2.2826   -1.1465 H   0  0  0  0  0  0  0  0  0  0  0  0
  1  2  1  0  0  0  0
  1 27  1  0  0  0  0
  1 28  1  0  0  0  0
  1 29  1  0  0  0  0
  2  3  1  0  0  0  0
  2 30  1  0  0  0  0
  2 31  1  0  0  0  0
  3  8  1  0  0  0  0
  3  4  1  0  0  0  0
  4  5  2  0  0  0  0
  4 26  1  0  0  0  0
  5  6  1  0  0  0  0
  5 32  1  0  0  0  0
  6 14  1  0  0  0  0
  6  7  2  0  0  0  0
  7  8  1  0  0  0  0
  7 10  1  0  0  0  0
  8  9  2  0  0  0  0
 10 11  1  0  0  0  0
 10 12  1  0  0  0  0
 10 18  1  0  0  0  0
 12 13  2  0  0  0  0
 12 16  1  0  0  0  0
 13 14  1  0  0  0  0
 13 15  1  0  0  0  0
 15 33  1  0  0  0  0
 15 34  1  0  0  0  0
 16 17  3  0  0  0  0
 18 23  2  0  0  0  0
 18 19  1  0  0  0  0
 19 20  2  0  0  0  0
 19 35  1  0  0  0  0
 20 21  1  0  0  0  0
 20 36  1  0  0  0  0
 21 22  2  0  0  0  0
 21 24  1  0  0  0  0
 22 23  1  0  0  0  0
 22 37  1  0  0  0  0
 23 38  1  0  0  0  0
 24 25  1  0  0  0  0
 25 39  1  0  0  0  0
 25 40  1  0  0  0  0
 25 41  1  0  0  0  0
 26 42  1  0  0  0  0
 26 43  1  0  0  0  0
 26 44  1  0  0  0  0
M  END
$$$$
ZINC02352470
  -OEChem-08230709453D

 44 46  0     1  0  0  0  0  0999 V2000
    5.6762    2.6229   -1.6003 C   0  0  0  0  0  0  0  0  0  0  0  0
    4.5205    1.7524   -1.1787 C   0  0  0  0  0  0  0  0  0  0  0  0
    3.4453    2.3142   -0.5859 C   0  0  0  0  0  0  0  0  0  0  0  0
    2.3608    1.5041   -0.1901 C   0  0  0  0  0  0  0  0  0  0  0  0
    2.4237    0.1457   -0.4184 C   0  0  0  0  0  0  0  0  0  0  0  0
    3.5596   -0.3926   -1.0365 C   0  0  0  0  0  0  0  0  0  0  0  0
    3.6289   -1.5938   -1.2453 O   0  0  0  0  0  0  0  0  0  0  0  0
    4.5747    0.4128   -1.4008 N   0  0  0  0  0  0  0  0  0  0  0  0
    5.7566   -0.1638   -2.0464 C   0  0  0  0  0  0  0  0  0  0  0  0
    5.5024   -0.2980   -3.5492 C   0  0  0  0  0  0  0  0  0  0  0  0
    5.3532    1.0013   -4.1249 O   0  0  0  0  0  0  0  0  0  0  0  0
    5.1106    0.9887   -5.5331 C   0  0  0  0  0  0  0  0  0  0  0  0
    1.2902   -0.7553   -0.0114 C   0  0  2  0  0  0  0  0  0  0  0  0
    1.0919   -1.4698   -0.8103 H   0  0  0  0  0  0  0  0  0  0  0  0
    0.0520    0.0565    0.2501 C   0  0  0  0  0  0  0  0  0  0  0  0
    0.1173    1.3957    0.4389 C   0  0  0  0  0  0  0  0  0  0  0  0
    1.2840    2.0629    0.4018 O   0  0  0  0  0  0  0  0  0  0  0  0
   -1.0421    2.0932    0.6694 N   0  0  0  0  0  0  0  0  0  0  0  0
   -1.2201   -0.5989    0.3008 C   0  0  0  0  0  0  0  0  0  0  0  0
   -2.2293   -1.1189    0.3411 N   0  0  0  0  0  0  0  0  0  0  0  0
    1.6711   -1.5028    1.2405 C   0  0  0  0  0  0  0  0  0  0  0  0
    1.9696   -0.8065    2.3969 C   0  0  0  0  0  0  0  0  0  0  0  0
    2.3135   -1.4912    3.5471 C   0  0  0  0  0  0  0  0  0  0  0  0
    2.3705   -2.8746    3.5377 C   0  0  0  0  0  0  0  0  0  0  0  0
    2.0769   -3.5706    2.3774 C   0  0  0  0  0  0  0  0  0  0  0  0
    1.7273   -2.8841    1.2301 C   0  0  0  0  0  0  0  0  0  0  0  0
    2.7128   -3.5447    4.6597 F   0  0  0  0  0  0  0  0  0  0  0  0
    5.5660    2.8891   -2.6515 H   0  0  0  0  0  0  0  0  0  0  0  0
    5.6879    3.5294   -0.9952 H   0  0  0  0  0  0  0  0  0  0  0  0
    6.6106    2.0797   -1.4590 H   0  0  0  0  0  0  0  0  0  0  0  0
    3.4157    3.3803   -0.4159 H   0  0  0  0  0  0  0  0  0  0  0  0
    6.6153    0.4866   -1.8799 H   0  0  0  0  0  0  0  0  0  0  0  0
    5.9584   -1.1476   -1.6228 H   0  0  0  0  0  0  0  0  0  0  0  0
    6.3451   -0.8078   -4.0161 H   0  0  0  0  0  0  0  0  0  0  0  0
    4.5923   -0.8750   -3.7136 H   0  0  0  0  0  0  0  0  0  0  0  0
    5.9452    0.5056   -6.0413 H   0  0  0  0  0  0  0  0  0  0  0  0
    4.1924    0.4384   -5.7388 H   0  0  0  0  0  0  0  0  0  0  0  0
    5.0091    2.0124   -5.8936 H   0  0  0  0  0  0  0  0  0  0  0  0
   -1.8920    1.6265    0.6951 H   0  0  0  0  0  0  0  0  0  0  0  0
   -1.0115    3.0530    0.8065 H   0  0  0  0  0  0  0  0  0  0  0  0
    1.9300    0.2727    2.4026 H   0  0  0  0  0  0  0  0  0  0  0  0
    2.5426   -0.9472    4.4515 H   0  0  0  0  0  0  0  0  0  0  0  0
    2.1207   -4.6497    2.3690 H   0  0  0  0  0  0  0  0  0  0  0  0
    1.4982   -3.4268    0.3249 H   0  0  0  0  0  0  0  0  0  0  0  0
  1  2  1  0  0  0  0
  1 28  1  0  0  0  0
  1 29  1  0  0  0  0
  1 30  1  0  0  0  0
  2  8  1  0  0  0  0
  2  3  2  0  0  0  0
  3  4  1  0  0  0  0
  3 31  1  0  0  0  0
  4 17  1  0  0  0  0
  4  5  2  0  0  0  0
  5  6  1  0  0  0  0
  5 13  1  0  0  0  0
  6  7  2  0  0  0  0
  6  8  1  0  0  0  0
  8  9  1  0  0  0  0
  9 10  1  0  0  0  0
  9 32  1  0  0  0  0
  9 33  1  0  0  0  0
 10 11  1  0  0  0  0
 10 34  1  0  0  0  0
 10 35  1  0  0  0  0
 11 12  1  0  0  0  0
 12 36  1  0  0  0  0
 12 37  1  0  0  0  0
 12 38  1  0  0  0  0
 13 14  1  0  0  0  0
 13 15  1  0  0  0  0
 13 21  1  0  0  0  0
 15 16  2  0  0  0  0
 15 19  1  0  0  0  0
 16 17  1  0  0  0  0
 16 18  1  0  0  0  0
 18 39  1  0  0  0  0
 18 40  1  0  0  0  0
 19 20  3  0  0  0  0
 21 26  2  0  0  0  0
 21 22  1  0  0  0  0
 22 23  2  0  0  0  0
 22 41  1  0  0  0  0
 23 24  1  0  0  0  0
 23 42  1  0  0  0  0
 24 25  2  0  0  0  0
 24 27  1  0  0  0  0
 25 26  1  0  0  0  0
 25 43  1  0  0  0  0
 26 44  1  0  0  0  0
M  END
$$$$
ZINC02352472
  -OEChem-08230709453D

 44 46  0     1  0  0  0  0  0999 V2000
   -2.5717   -1.6993    4.8589 C   0  0  0  0  0  0  0  0  0  0  0  0
   -1.9116   -1.3259    3.5566 C   0  0  0  0  0  0  0  0  0  0  0  0
   -2.5382   -1.5952    2.3913 C   0  0  0  0  0  0  0  0  0  0  0  0
   -1.9248   -1.2480    1.1697 C   0  0  0  0  0  0  0  0  0  0  0  0
   -0.6895   -0.6358    1.1931 C   0  0  0  0  0  0  0  0  0  0  0  0
   -0.0776   -0.3759    2.4261 C   0  0  0  0  0  0  0  0  0  0  0  0
    1.0163    0.1657    2.4620 O   0  0  0  0  0  0  0  0  0  0  0  0
   -0.6943   -0.7223    3.5713 N   0  0  0  0  0  0  0  0  0  0  0  0
   -0.0430   -0.4438    4.8537 C   0  0  0  0  0  0  0  0  0  0  0  0
    0.8289   -1.6361    5.2525 C   0  0  0  0  0  0  0  0  0  0  0  0
    1.8943   -1.7830    4.3115 O   0  0  0  0  0  0  0  0  0  0  0  0
    2.7725   -2.8744    4.5936 C   0  0  0  0  0  0  0  0  0  0  0  0
    0.0002   -0.2475   -0.0859 C   0  0  1  0  0  0  0  0  0  0  0  0
    1.0545   -0.5174   -0.0243 H   0  0  0  0  0  0  0  0  0  0  0  0
   -0.6274   -0.9627   -1.2500 C   0  0  0  0  0  0  0  0  0  0  0  0
   -1.8444   -1.5464   -1.1421 C   0  0  0  0  0  0  0  0  0  0  0  0
   -2.5483   -1.5165    0.0030 O   0  0  0  0  0  0  0  0  0  0  0  0
   -2.3754   -2.1865   -2.2340 N   0  0  0  0  0  0  0  0  0  0  0  0
    0.0749   -1.0273   -2.4963 C   0  0  0  0  0  0  0  0  0  0  0  0
    0.6320   -1.0786   -3.4849 N   0  0  0  0  0  0  0  0  0  0  0  0
   -0.1235    1.2407   -0.2882 C   0  0  0  0  0  0  0  0  0  0  0  0
   -1.3733    1.8216   -0.3963 C   0  0  0  0  0  0  0  0  0  0  0  0
   -1.4881    3.1869   -0.5771 C   0  0  0  0  0  0  0  0  0  0  0  0
   -0.3505    3.9716   -0.6605 C   0  0  0  0  0  0  0  0  0  0  0  0
    0.9009    3.3881   -0.5574 C   0  0  0  0  0  0  0  0  0  0  0  0
    1.0131    2.0233   -0.3714 C   0  0  0  0  0  0  0  0  0  0  0  0
   -0.4613    5.3058   -0.8420 F   0  0  0  0  0  0  0  0  0  0  0  0
   -3.1128   -0.8386    5.2519 H   0  0  0  0  0  0  0  0  0  0  0  0
   -3.2684   -2.5206    4.6907 H   0  0  0  0  0  0  0  0  0  0  0  0
   -1.8114   -2.0089    5.5760 H   0  0  0  0  0  0  0  0  0  0  0  0
   -3.5059   -2.0746    2.3946 H   0  0  0  0  0  0  0  0  0  0  0  0
    0.5794    0.4461    4.7594 H   0  0  0  0  0  0  0  0  0  0  0  0
   -0.8020   -0.2770    5.6180 H   0  0  0  0  0  0  0  0  0  0  0  0
    1.2429   -1.4671    6.2465 H   0  0  0  0  0  0  0  0  0  0  0  0
    0.2235   -2.5425    5.2603 H   0  0  0  0  0  0  0  0  0  0  0  0
    2.2074   -3.8064    4.5877 H   0  0  0  0  0  0  0  0  0  0  0  0
    3.5533   -2.9181    3.8342 H   0  0  0  0  0  0  0  0  0  0  0  0
    3.2269   -2.7311    5.5740 H   0  0  0  0  0  0  0  0  0  0  0  0
   -3.2464   -2.6089   -2.1724 H   0  0  0  0  0  0  0  0  0  0  0  0
   -1.8796   -2.2165   -3.0672 H   0  0  0  0  0  0  0  0  0  0  0  0
   -2.2605    1.2087   -0.3354 H   0  0  0  0  0  0  0  0  0  0  0  0
   -2.4647    3.6410   -0.6574 H   0  0  0  0  0  0  0  0  0  0  0  0
    1.7890    3.9992   -0.6227 H   0  0  0  0  0  0  0  0  0  0  0  0
    1.9891    1.5679   -0.2913 H   0  0  0  0  0  0  0  0  0  0  0  0
  1  2  1  0  0  0  0
  1 28  1  0  0  0  0
  1 29  1  0  0  0  0
  1 30  1  0  0  0  0
  2  8  1  0  0  0  0
  2  3  2  0  0  0  0
  3  4  1  0  0  0  0
  3 31  1  0  0  0  0
  4 17  1  0  0  0  0
  4  5  2  0  0  0  0
  5  6  1  0  0  0  0
  5 13  1  0  0  0  0
  6  7  2  0  0  0  0
  6  8  1  0  0  0  0
  8  9  1  0  0  0  0
  9 10  1  0  0  0  0
  9 32  1  0  0  0  0
  9 33  1  0  0  0  0
 10 11  1  0  0  0  0
 10 34  1  0  0  0  0
 10 35  1  0  0  0  0
 11 12  1  0  0  0  0
 12 36  1  0  0  0  0
 12 37  1  0  0  0  0
 12 38  1  0  0  0  0
 13 14  1  0  0  0  0
 13 15  1  0  0  0  0
 13 21  1  0  0  0  0
 15 16  2  0  0  0  0
 15 19  1  0  0  0  0
 16 17  1  0  0  0  0
 16 18  1  0  0  0  0
 18 39  1  0  0  0  0
 18 40  1  0  0  0  0
 19 20  3  0  0  0  0
 21 26  2  0  0  0  0
 21 22  1  0  0  0  0
 22 23  2  0  0  0  0
 22 41  1  0  0  0  0
 23 24  1  0  0  0  0
 23 42  1  0  0  0  0
 24 25  2  0  0  0  0
 24 27  1  0  0  0  0
 25 26  1  0  0  0  0
 25 43  1  0  0  0  0
 26 44  1  0  0  0  0
M  END
$$$$
ZINC02354327
  -OEChem-08230709453D

 44 46  0     1  0  0  0  0  0999 V2000
   -1.3795   -4.0841   -4.7922 C   0  0  0  0  0  0  0  0  0  0  0  0
   -0.7103   -3.5922   -3.5347 C   0  0  0  0  0  0  0  0  0  0  0  0
   -1.3687   -3.6647   -2.3581 C   0  0  0  0  0  0  0  0  0  0  0  0
   -0.7471   -3.2056   -1.1783 C   0  0  0  0  0  0  0  0  0  0  0  0
    0.5283   -2.6877   -1.2539 C   0  0  0  0  0  0  0  0  0  0  0  0
    1.1727   -2.6328   -2.4964 C   0  0  0  0  0  0  0  0  0  0  0  0
    2.3026   -2.1769   -2.5781 O   0  0  0  0  0  0  0  0  0  0  0  0
    0.5472   -3.0814   -3.6006 N   0  0  0  0  0  0  0  0  0  0  0  0
    1.2330   -3.0184   -4.8936 C   0  0  0  0  0  0  0  0  0  0  0  0
    0.9254   -1.6806   -5.5694 C   0  0  0  0  0  0  0  0  0  0  0  0
    1.4813   -0.6165   -4.7943 O   0  0  0  0  0  0  0  0  0  0  0  0
    1.2495    0.6833   -5.3410 C   0  0  0  0  0  0  0  0  0  0  0  0
    1.2286   -2.1860   -0.0210 C   0  0  2  0  0  0  0  0  0  0  0  0
    2.2617   -2.5334   -0.0280 H   0  0  0  0  0  0  0  0  0  0  0  0
    0.5381   -2.7001    1.2117 C   0  0  0  0  0  0  0  0  0  0  0  0
   -0.7156   -3.2080    1.1540 C   0  0  0  0  0  0  0  0  0  0  0  0
   -1.4019   -3.2784   -0.0001 O   0  0  0  0  0  0  0  0  0  0  0  0
   -1.3031   -3.6649    2.3073 N   0  0  0  0  0  0  0  0  0  0  0  0
    1.2195   -2.6522    2.4703 C   0  0  0  0  0  0  0  0  0  0  0  0
    1.7600   -2.6142    3.4688 N   0  0  0  0  0  0  0  0  0  0  0  0
    1.2083   -0.6792   -0.0132 C   0  0  0  0  0  0  0  0  0  0  0  0
    0.0021   -0.0041    0.0020 C   0  0  0  0  0  0  0  0  0  0  0  0
   -0.0167    1.3780    0.0096 C   0  0  0  0  0  0  0  0  0  0  0  0
    1.1709    2.0861    0.0021 C   0  0  0  0  0  0  0  0  0  0  0  0
    2.3773    1.4123   -0.0131 C   0  0  0  0  0  0  0  0  0  0  0  0
    2.3967    0.0287   -0.0208 C   0  0  0  0  0  0  0  0  0  0  0  0
    3.9119   -0.8184   -0.0404 Cl  0  0  0  0  0  0  0  0  0  0  0  0
   -2.3754   -4.4563   -4.5521 H   0  0  0  0  0  0  0  0  0  0  0  0
   -1.4603   -3.2639   -5.5055 H   0  0  0  0  0  0  0  0  0  0  0  0
   -0.7866   -4.8880   -5.2286 H   0  0  0  0  0  0  0  0  0  0  0  0
   -2.3678   -4.0732   -2.3205 H   0  0  0  0  0  0  0  0  0  0  0  0
    2.3082   -3.1088   -4.7394 H   0  0  0  0  0  0  0  0  0  0  0  0
    0.8872   -3.8341   -5.5285 H   0  0  0  0  0  0  0  0  0  0  0  0
    1.3619   -1.6692   -6.5681 H   0  0  0  0  0  0  0  0  0  0  0  0
   -0.1543   -1.5507   -5.6433 H   0  0  0  0  0  0  0  0  0  0  0  0
    1.7024    1.4353   -4.6948 H   0  0  0  0  0  0  0  0  0  0  0  0
    1.6927    0.7438   -6.3350 H   0  0  0  0  0  0  0  0  0  0  0  0
    0.1765    0.8623   -5.4102 H   0  0  0  0  0  0  0  0  0  0  0  0
   -0.8206   -3.6211    3.1476 H   0  0  0  0  0  0  0  0  0  0  0  0
   -2.2008   -4.0315    2.2820 H   0  0  0  0  0  0  0  0  0  0  0  0
   -0.9258   -0.5566    0.0076 H   0  0  0  0  0  0  0  0  0  0  0  0
   -0.9593    1.9050    0.0170 H   0  0  0  0  0  0  0  0  0  0  0  0
    1.1556    3.1659    0.0081 H   0  0  0  0  0  0  0  0  0  0  0  0
    3.3048    1.9655   -0.0194 H   0  0  0  0  0  0  0  0  0  0  0  0
  1  2  1  0  0  0  0
  1 28  1  0  0  0  0
  1 29  1  0  0  0  0
  1 30  1  0  0  0  0
  2  8  1  0  0  0  0
  2  3  2  0  0  0  0
  3  4  1  0  0  0  0
  3 31  1  0  0  0  0
  4 17  1  0  0  0  0
  4  5  2  0  0  0  0
  5  6  1  0  0  0  0
  5 13  1  0  0  0  0
  6  7  2  0  0  0  0
  6  8  1  0  0  0  0
  8  9  1  0  0  0  0
  9 10  1  0  0  0  0
  9 32  1  0  0  0  0
  9 33  1  0  0  0  0
 10 11  1  0  0  0  0
 10 34  1  0  0  0  0
 10 35  1  0  0  0  0
 11 12  1  0  0  0  0
 12 36  1  0  0  0  0
 12 37  1  0  0  0  0
 12 38  1  0  0  0  0
 13 14  1  0  0  0  0
 13 15  1  0  0  0  0
 13 21  1  0  0  0  0
 15 16  2  0  0  0  0
 15 19  1  0  0  0  0
 16 17  1  0  0  0  0
 16 18  1  0  0  0  0
 18 39  1  0  0  0  0
 18 40  1  0  0  0  0
 19 20  3  0  0  0  0
 21 26  2  0  0  0  0
 21 22  1  0  0  0  0
 22 23  2  0  0  0  0
 22 41  1  0  0  0  0
 23 24  1  0  0  0  0
 23 42  1  0  0  0  0
 24 25  2  0  0  0  0
 24 43  1  0  0  0  0
 25 26  1  0  0  0  0
 25 44  1  0  0  0  0
 26 27  1  0  0  0  0
M  END
$$$$
ZINC02354328
  -OEChem-08230709453D

 44 46  0     1  0  0  0  0  0999 V2000
    2.4568    1.0256   -0.0167 C   0  0  0  0  0  0  0  0  0  0  0  0
    1.1461    1.7691    0.0006 C   0  0  0  0  0  0  0  0  0  0  0  0
   -0.0126    1.0758    0.0080 C   0  0  0  0  0  0  0  0  0  0  0  0
   -1.2420    1.7667    0.0175 C   0  0  0  0  0  0  0  0  0  0  0  0
   -1.2331    3.1455    0.0318 C   0  0  0  0  0  0  0  0  0  0  0  0
   -0.0066    3.8221    0.0238 C   0  0  0  0  0  0  0  0  0  0  0  0
    0.0165    5.0430    0.0314 O   0  0  0  0  0  0  0  0  0  0  0  0
    1.1465    3.1279    0.0082 N   0  0  0  0  0  0  0  0  0  0  0  0
    2.4220    3.8486   -0.0004 C   0  0  0  0  0  0  0  0  0  0  0  0
    2.8518    4.1075   -1.4457 C   0  0  0  0  0  0  0  0  0  0  0  0
    1.9158    4.9881   -2.0706 O   0  0  0  0  0  0  0  0  0  0  0  0
    2.2265    5.2962   -3.4310 C   0  0  0  0  0  0  0  0  0  0  0  0
   -2.5208    3.9224    0.0497 C   0  0  1  0  0  0  0  0  0  0  0  0
   -2.4520    4.7522   -0.6537 H   0  0  0  0  0  0  0  0  0  0  0  0
   -3.6674    3.0328   -0.3436 C   0  0  0  0  0  0  0  0  0  0  0  0
   -3.5460    1.6844   -0.3314 C   0  0  0  0  0  0  0  0  0  0  0  0
   -2.4022    1.0766    0.0291 O   0  0  0  0  0  0  0  0  0  0  0  0
   -4.6221    0.9153   -0.6982 N   0  0  0  0  0  0  0  0  0  0  0  0
   -4.9111    3.6228   -0.7381 C   0  0  0  0  0  0  0  0  0  0  0  0
   -5.8978    4.0908   -1.0510 N   0  0  0  0  0  0  0  0  0  0  0  0
   -2.7597    4.4615    1.4365 C   0  0  0  0  0  0  0  0  0  0  0  0
   -2.8771    3.5927    2.5053 C   0  0  0  0  0  0  0  0  0  0  0  0
   -3.0967    4.0870    3.7773 C   0  0  0  0  0  0  0  0  0  0  0  0
   -3.1982    5.4507    3.9816 C   0  0  0  0  0  0  0  0  0  0  0  0
   -3.0806    6.3203    2.9140 C   0  0  0  0  0  0  0  0  0  0  0  0
   -2.8559    5.8263    1.6412 C   0  0  0  0  0  0  0  0  0  0  0  0
   -2.7009    6.9184    0.3006 Cl  0  0  0  0  0  0  0  0  0  0  0  0
    2.2658   -0.0475   -0.0211 H   0  0  0  0  0  0  0  0  0  0  0  0
    3.0176    1.2985   -0.9106 H   0  0  0  0  0  0  0  0  0  0  0  0
    3.0351    1.2881    0.8692 H   0  0  0  0  0  0  0  0  0  0  0  0
    0.0021   -0.0041    0.0020 H   0  0  0  0  0  0  0  0  0  0  0  0
    2.3056    4.7993    0.5199 H   0  0  0  0  0  0  0  0  0  0  0  0
    3.1811    3.2497    0.5027 H   0  0  0  0  0  0  0  0  0  0  0  0
    3.8416    4.5639   -1.4542 H   0  0  0  0  0  0  0  0  0  0  0  0
    2.8822    3.1638   -1.9903 H   0  0  0  0  0  0  0  0  0  0  0  0
    3.2033    5.7773   -3.4806 H   0  0  0  0  0  0  0  0  0  0  0  0
    2.2439    4.3771   -4.0168 H   0  0  0  0  0  0  0  0  0  0  0  0
    1.4692    5.9691   -3.8332 H   0  0  0  0  0  0  0  0  0  0  0  0
   -5.4540    1.3392   -0.9611 H   0  0  0  0  0  0  0  0  0  0  0  0
   -4.5506   -0.0520   -0.6946 H   0  0  0  0  0  0  0  0  0  0  0  0
   -2.7976    2.5274    2.3464 H   0  0  0  0  0  0  0  0  0  0  0  0
   -3.1888    3.4078    4.6119 H   0  0  0  0  0  0  0  0  0  0  0  0
   -3.3698    5.8364    4.9757 H   0  0  0  0  0  0  0  0  0  0  0  0
   -3.1595    7.3855    3.0738 H   0  0  0  0  0  0  0  0  0  0  0  0
  1  2  1  0  0  0  0
  1 28  1  0  0  0  0
  1 29  1  0  0  0  0
  1 30  1  0  0  0  0
  2  8  1  0  0  0  0
  2  3  2  0  0  0  0
  3  4  1  0  0  0  0
  3 31  1  0  0  0  0
  4 17  1  0  0  0  0
  4  5  2  0  0  0  0
  5  6  1  0  0  0  0
  5 13  1  0  0  0  0
  6  7  2  0  0  0  0
  6  8  1  0  0  0  0
  8  9  1  0  0  0  0
  9 10  1  0  0  0  0
  9 32  1  0  0  0  0
  9 33  1  0  0  0  0
 10 11  1  0  0  0  0
 10 34  1  0  0  0  0
 10 35  1  0  0  0  0
 11 12  1  0  0  0  0
 12 36  1  0  0  0  0
 12 37  1  0  0  0  0
 12 38  1  0  0  0  0
 13 14  1  0  0  0  0
 13 15  1  0  0  0  0
 13 21  1  0  0  0  0
 15 16  2  0  0  0  0
 15 19  1  0  0  0  0
 16 17  1  0  0  0  0
 16 18  1  0  0  0  0
 18 39  1  0  0  0  0
 18 40  1  0  0  0  0
 19 20  3  0  0  0  0
 21 26  2  0  0  0  0
 21 22  1  0  0  0  0
 22 23  2  0  0  0  0
 22 41  1  0  0  0  0
 23 24  1  0  0  0  0
 23 42  1  0  0  0  0
 24 25  2  0  0  0  0
 24 43  1  0  0  0  0
 25 26  1  0  0  0  0
 25 44  1  0  0  0  0
 26 27  1  0  0  0  0
M  END
$$$$
ZINC02362449
  -OEChem-08230709453D

 43 46  0     1  0  0  0  0  0999 V2000
   -2.0331   -4.5168   -1.0341 C   0  0  0  0  0  0  0  0  0  0  0  0
   -1.8553   -3.7286   -0.0030 C   0  0  0  0  0  0  0  0  0  0  0  0
   -0.7309   -2.7252   -0.0067 C   0  0  0  0  0  0  0  0  0  0  0  0
   -1.4184   -1.0466    0.0079 S   0  0  0  0  0  0  0  0  0  0  0  0
    0.0021   -0.0041    0.0020 C   0  0  0  0  0  0  0  0  0  0  0  0
    1.2757   -0.4236   -0.0101 N   0  0  0  0  0  0  0  0  0  0  0  0
    2.0743    0.6108   -0.0092 C   0  0  0  0  0  0  0  0  0  0  0  0
    1.3162    1.7324   -0.0012 N   0  0  0  0  0  0  0  0  0  0  0  0
   -0.0158    1.3105    0.0092 N   0  0  0  0  0  0  0  0  0  0  0  0
    1.8385    3.0991   -0.0082 C   0  0  2  0  0  0  0  0  0  0  0  0
    1.7891    3.5032   -1.0193 H   0  0  0  0  0  0  0  0  0  0  0  0
    3.2983    3.0794    0.4662 C   0  0  2  0  0  0  0  0  0  0  0  0
    3.3247    2.9597    1.4587 H   0  0  0  0  0  0  0  0  0  0  0  0
    3.9566    4.3843    0.1063 C   0  0  0  0  0  0  0  0  0  0  0  0
    3.8594    5.3416    0.8361 O   0  0  0  0  0  0  0  0  0  0  0  0
    4.7373    4.4960   -1.1715 C   0  0  0  0  0  0  0  0  0  0  0  0
    5.7817    3.3731   -1.1734 C   0  0  0  0  0  0  0  0  0  0  0  0
    5.1014    2.0607   -0.9098 C   0  0  0  0  0  0  0  0  0  0  0  0
    4.0189    1.9315   -0.1932 C   0  0  0  0  0  0  0  0  0  0  0  0
    3.4656    0.6464   -0.0099 N   0  0  0  0  0  0  0  0  0  0  0  0
    1.0167    3.9576    0.9185 C   0  0  0  0  0  0  0  0  0  0  0  0
    0.9284    3.6361    2.2604 C   0  0  0  0  0  0  0  0  0  0  0  0
    0.1804    4.4247    3.1130 C   0  0  0  0  0  0  0  0  0  0  0  0
   -0.4918    5.5335    2.6197 C   0  0  0  0  0  0  0  0  0  0  0  0
   -0.4062    5.8507    1.2719 C   0  0  0  0  0  0  0  0  0  0  0  0
    0.3478    5.0622    0.4244 C   0  0  0  0  0  0  0  0  0  0  0  0
   -1.2324    6.3079    3.4555 O   0  0  0  0  0  0  0  0  0  0  0  0
   -2.8389   -5.2359   -1.0314 H   0  0  0  0  0  0  0  0  0  0  0  0
   -1.3739   -4.4476   -1.8868 H   0  0  0  0  0  0  0  0  0  0  0  0
   -2.5145   -3.7978    0.8497 H   0  0  0  0  0  0  0  0  0  0  0  0
   -0.1250   -2.8618   -0.9024 H   0  0  0  0  0  0  0  0  0  0  0  0
   -0.1105   -2.8714    0.8775 H   0  0  0  0  0  0  0  0  0  0  0  0
    5.1809    5.3912   -1.2139 H   0  0  0  0  0  0  0  0  0  0  0  0
    4.0678    4.3797   -2.0237 H   0  0  0  0  0  0  0  0  0  0  0  0
    6.5208    3.5625   -0.3949 H   0  0  0  0  0  0  0  0  0  0  0  0
    6.2762    3.3379   -2.1441 H   0  0  0  0  0  0  0  0  0  0  0  0
    5.5348    1.1696   -1.3392 H   0  0  0  0  0  0  0  0  0  0  0  0
    4.0106   -0.1476    0.1058 H   0  0  0  0  0  0  0  0  0  0  0  0
    1.4483    2.7702    2.6431 H   0  0  0  0  0  0  0  0  0  0  0  0
    0.1153    4.1756    4.1619 H   0  0  0  0  0  0  0  0  0  0  0  0
   -0.9282    6.7136    0.8855 H   0  0  0  0  0  0  0  0  0  0  0  0
    0.4150    5.3089   -0.6249 H   0  0  0  0  0  0  0  0  0  0  0  0
   -2.1554    6.0303    3.5343 H   0  0  0  0  0  0  0  0  0  0  0  0
  1  2  2  0  0  0  0
  1 28  1  0  0  0  0
  1 29  1  0  0  0  0
  2  3  1  0  0  0  0
  2 30  1  0  0  0  0
  3  4  1  0  0  0  0
  3 31  1  0  0  0  0
  3 32  1  0  0  0  0
  4  5  1  0  0  0  0
  5  9  2  0  0  0  0
  5  6  1  0  0  0  0
  6  7  2  0  0  0  0
  7 20  1  0  0  0  0
  7  8  1  0  0  0  0
  8  9  1  0  0  0  0
  8 10  1  0  0  0  0
 10 11  1  0  0  0  0
 10 12  1  0  0  0  0
 10 21  1  0  0  0  0
 12 13  1  0  0  0  0
 12 19  1  0  0  0  0
 12 14  1  0  0  0  0
 14 15  2  0  0  0  0
 14 16  1  0  0  0  0
 16 17  1  0  0  0  0
 16 33  1  0  0  0  0
 16 34  1  0  0  0  0
 17 18  1  0  0  0  0
 17 35  1  0  0  0  0
 17 36  1  0  0  0  0
 18 19  2  0  0  0  0
 18 37  1  0  0  0  0
 19 20  1  0  0  0  0
 20 38  1  0  0  0  0
 21 26  2  0  0  0  0
 21 22  1  0  0  0  0
 22 23  2  0  0  0  0
 22 39  1  0  0  0  0
 23 24  1  0  0  0  0
 23 40  1  0  0  0  0
 24 25  2  0  0  0  0
 24 27  1  0  0  0  0
 25 26  1  0  0  0  0
 25 41  1  0  0  0  0
 26 42  1  0  0  0  0
 27 43  1  0  0  0  0
M  END
$$$$
ZINC02362451
  -OEChem-08230709453D

 43 46  0     1  0  0  0  0  0999 V2000
   -9.1252   -0.3434   -1.1717 C   0  0  0  0  0  0  0  0  0  0  0  0
   -8.4568    0.7742   -1.3148 C   0  0  0  0  0  0  0  0  0  0  0  0
   -7.0472    0.8813   -0.7927 C   0  0  0  0  0  0  0  0  0  0  0  0
   -5.9033    1.1074   -2.1822 S   0  0  0  0  0  0  0  0  0  0  0  0
   -4.3195    1.2140   -1.4174 C   0  0  0  0  0  0  0  0  0  0  0  0
   -4.0845    1.1379   -0.0994 N   0  0  0  0  0  0  0  0  0  0  0  0
   -2.8016    1.2533    0.1209 C   0  0  0  0  0  0  0  0  0  0  0  0
   -2.1788    1.4143   -1.0702 N   0  0  0  0  0  0  0  0  0  0  0  0
   -3.1774    1.3816   -2.0469 N   0  0  0  0  0  0  0  0  0  0  0  0
   -0.7482    1.5909   -1.2411 C   0  0  1  0  0  0  0  0  0  0  0  0
   -0.5274    2.6476   -1.3919 H   0  0  0  0  0  0  0  0  0  0  0  0
   -0.0127    1.0858    0.0080 C   0  0  1  0  0  0  0  0  0  0  0  0
    0.0042    0.0860    0.0034 H   0  0  0  0  0  0  0  0  0  0  0  0
    1.4006    1.6034   -0.0027 C   0  0  0  0  0  0  0  0  0  0  0  0
    2.2653    1.0112   -0.6027 O   0  0  0  0  0  0  0  0  0  0  0  0
    1.7222    2.8754    0.7491 C   0  0  0  0  0  0  0  0  0  0  0  0
    1.2435    2.6925    2.1946 C   0  0  0  0  0  0  0  0  0  0  0  0
   -0.1944    2.2606    2.1920 C   0  0  0  0  0  0  0  0  0  0  0  0
   -0.7466    1.5682    1.2330 C   0  0  0  0  0  0  0  0  0  0  0  0
   -2.1122    1.2265    1.3295 N   0  0  0  0  0  0  0  0  0  0  0  0
   -0.2978    0.8033   -2.4444 C   0  0  0  0  0  0  0  0  0  0  0  0
   -0.4758   -0.5674   -2.4781 C   0  0  0  0  0  0  0  0  0  0  0  0
   -0.0689   -1.2910   -3.5823 C   0  0  0  0  0  0  0  0  0  0  0  0
    0.5290   -0.6426   -4.6532 C   0  0  0  0  0  0  0  0  0  0  0  0
    0.7116    0.7321   -4.6145 C   0  0  0  0  0  0  0  0  0  0  0  0
    0.2979    1.4518   -3.5103 C   0  0  0  0  0  0  0  0  0  0  0  0
    0.9348   -1.3529   -5.7384 O   0  0  0  0  0  0  0  0  0  0  0  0
   -8.6660   -1.1880   -0.6796 H   0  0  0  0  0  0  0  0  0  0  0  0
  -10.1354   -0.4201   -1.5459 H   0  0  0  0  0  0  0  0  0  0  0  0
   -8.9160    1.6188   -1.8070 H   0  0  0  0  0  0  0  0  0  0  0  0
   -6.7890   -0.0305   -0.2541 H   0  0  0  0  0  0  0  0  0  0  0  0
   -6.9733    1.7347   -0.1186 H   0  0  0  0  0  0  0  0  0  0  0  0
    2.7086    3.0375    0.7233 H   0  0  0  0  0  0  0  0  0  0  0  0
    1.2038    3.7174    0.2904 H   0  0  0  0  0  0  0  0  0  0  0  0
    1.8509    1.9319    2.6853 H   0  0  0  0  0  0  0  0  0  0  0  0
    1.3391    3.6363    2.7315 H   0  0  0  0  0  0  0  0  0  0  0  0
   -0.8122    2.5488    3.0297 H   0  0  0  0  0  0  0  0  0  0  0  0
   -2.5359    0.9918    2.1699 H   0  0  0  0  0  0  0  0  0  0  0  0
   -0.9374   -1.0723   -1.6423 H   0  0  0  0  0  0  0  0  0  0  0  0
   -0.2122   -2.3611   -3.6100 H   0  0  0  0  0  0  0  0  0  0  0  0
    1.1772    1.2391   -5.4467 H   0  0  0  0  0  0  0  0  0  0  0  0
    0.4395    2.5221   -3.4799 H   0  0  0  0  0  0  0  0  0  0  0  0
    1.8450   -1.6742   -5.6803 H   0  0  0  0  0  0  0  0  0  0  0  0
  1  2  2  0  0  0  0
  1 28  1  0  0  0  0
  1 29  1  0  0  0  0
  2  3  1  0  0  0  0
  2 30  1  0  0  0  0
  3  4  1  0  0  0  0
  3 31  1  0  0  0  0
  3 32  1  0  0  0  0
  4  5  1  0  0  0  0
  5  9  2  0  0  0  0
  5  6  1  0  0  0  0
  6  7  2  0  0  0  0
  7 20  1  0  0  0  0
  7  8  1  0  0  0  0
  8  9  1  0  0  0  0
  8 10  1  0  0  0  0
 10 11  1  0  0  0  0
 10 12  1  0  0  0  0
 10 21  1  0  0  0  0
 12 13  1  0  0  0  0
 12 19  1  0  0  0  0
 12 14  1  0  0  0  0
 14 15  2  0  0  0  0
 14 16  1  0  0  0  0
 16 17  1  0  0  0  0
 16 33  1  0  0  0  0
 16 34  1  0  0  0  0
 17 18  1  0  0  0  0
 17 35  1  0  0  0  0
 17 36  1  0  0  0  0
 18 19  2  0  0  0  0
 18 37  1  0  0  0  0
 19 20  1  0  0  0  0
 20 38  1  0  0  0  0
 21 26  2  0  0  0  0
 21 22  1  0  0  0  0
 22 23  2  0  0  0  0
 22 39  1  0  0  0  0
 23 24  1  0  0  0  0
 23 40  1  0  0  0  0
 24 25  2  0  0  0  0
 24 27  1  0  0  0  0
 25 26  1  0  0  0  0
 25 41  1  0  0  0  0
 26 42  1  0  0  0  0
 27 43  1  0  0  0  0
M  END
$$$$
ZINC02364815
  -OEChem-08230709453D

 41 42  0     0  0  0  0  0  0999 V2000
    1.5939    3.0534    2.7561 C   0  0  0  0  0  0  0  0  0  0  0  0
    1.0046    1.7182    3.1316 C   0  0  0  0  0  0  0  0  0  0  0  0
    0.0000    1.0800    2.4877 C   0  0  0  0  0  0  0  0  0  0  0  0
   -0.2464   -0.1220    3.1591 C   0  0  0  0  0  0  0  0  0  0  0  0
    0.5870   -0.2071    4.1641 N   0  0  0  0  0  0  0  0  0  0  0  0
    1.3845    0.9446    4.1700 N   0  0  0  0  0  0  0  0  0  0  0  0
    2.1076    1.1561    4.8276 H   0  0  0  0  0  0  0  0  0  0  0  0
   -1.2887   -1.1446    2.7865 C   0  0  0  0  0  0  0  0  0  0  0  0
   -0.7288    1.5792    1.2668 C   0  0  0  0  0  0  0  0  0  0  0  0
   -0.0127    1.0858    0.0080 C   0  0  0  0  0  0  0  0  0  0  0  0
   -0.7416    1.5850   -1.2129 C   0  0  0  0  0  0  0  0  0  0  0  0
   -1.7359    2.2682   -1.0884 O   0  0  0  0  0  0  0  0  0  0  0  0
   -0.2884    1.2723   -2.4431 N   0  0  0  0  0  0  0  0  0  0  0  0
   -0.9661    1.7364   -3.5781 N   0  0  0  0  0  0  0  0  0  0  0  0
   -0.4969    1.4127   -4.8517 C   0  0  0  0  0  0  0  0  0  0  0  0
    0.5963    0.6615   -4.9885 C   0  0  0  0  0  0  0  0  0  0  0  0
   -1.2133    1.9033   -6.0516 C   0  0  0  0  0  0  0  0  0  0  0  0
   -2.3601    2.6842   -5.9114 C   0  0  0  0  0  0  0  0  0  0  0  0
   -3.0205    3.1429   -7.0326 C   0  0  0  0  0  0  0  0  0  0  0  0
   -2.5531    2.8198   -8.2950 C   0  0  0  0  0  0  0  0  0  0  0  0
   -1.4181    2.0406   -8.4400 C   0  0  0  0  0  0  0  0  0  0  0  0
   -0.7466    1.5812   -7.3257 C   0  0  0  0  0  0  0  0  0  0  0  0
   -3.4681    3.4457   -9.8269 Br  0  0  0  0  0  0  0  0  0  0  0  0
    1.0501    3.8474    3.2677 H   0  0  0  0  0  0  0  0  0  0  0  0
    2.6430    3.0833    3.0506 H   0  0  0  0  0  0  0  0  0  0  0  0
    1.5150    3.1951    1.6782 H   0  0  0  0  0  0  0  0  0  0  0  0
   -0.8573   -1.8676    2.0942 H   0  0  0  0  0  0  0  0  0  0  0  0
   -1.6294   -1.6600    3.6845 H   0  0  0  0  0  0  0  0  0  0  0  0
   -2.1335   -0.6459    2.3113 H   0  0  0  0  0  0  0  0  0  0  0  0
   -0.7436    2.6691    1.2728 H   0  0  0  0  0  0  0  0  0  0  0  0
   -1.7514    1.2020    1.2746 H   0  0  0  0  0  0  0  0  0  0  0  0
    0.0021   -0.0041    0.0020 H   0  0  0  0  0  0  0  0  0  0  0  0
    1.0099    1.4631    0.0003 H   0  0  0  0  0  0  0  0  0  0  0  0
    0.5068    0.7259   -2.5426 H   0  0  0  0  0  0  0  0  0  0  0  0
   -1.7613    2.2828   -3.4786 H   0  0  0  0  0  0  0  0  0  0  0  0
    0.9594    0.4109   -5.9743 H   0  0  0  0  0  0  0  0  0  0  0  0
    1.1187    0.3038   -4.1136 H   0  0  0  0  0  0  0  0  0  0  0  0
   -2.7284    2.9328   -4.9271 H   0  0  0  0  0  0  0  0  0  0  0  0
   -3.9062    3.7514   -6.9253 H   0  0  0  0  0  0  0  0  0  0  0  0
   -1.0574    1.7921   -9.4271 H   0  0  0  0  0  0  0  0  0  0  0  0
    0.1389    0.9737   -7.4399 H   0  0  0  0  0  0  0  0  0  0  0  0
  1  2  1  0  0  0  0
  1 24  1  0  0  0  0
  1 25  1  0  0  0  0
  1 26  1  0  0  0  0
  2  6  1  0  0  0  0
  2  3  2  0  0  0  0
  3  4  1  0  0  0  0
  3  9  1  0  0  0  0
  4  5  2  0  0  0  0
  4  8  1  0  0  0  0
  5  6  1  0  0  0  0
  6  7  1  0  0  0  0
  8 27  1  0  0  0  0
  8 28  1  0  0  0  0
  8 29  1  0  0  0  0
  9 10  1  0  0  0  0
  9 30  1  0  0  0  0
  9 31  1  0  0  0  0
 10 11  1  0  0  0  0
 10 32  1  0  0  0  0
 10 33  1  0  0  0  0
 11 12  2  0  0  0  0
 11 13  1  0  0  0  0
 13 14  1  0  0  0  0
 13 34  1  0  0  0  0
 14 15  1  0  0  0  0
 14 35  1  0  0  0  0
 15 16  2  0  0  0  0
 15 17  1  0  0  0  0
 16 36  1  0  0  0  0
 16 37  1  0  0  0  0
 17 22  2  0  0  0  0
 17 18  1  0  0  0  0
 18 19  2  0  0  0  0
 18 38  1  0  0  0  0
 19 20  1  0  0  0  0
 19 39  1  0  0  0  0
 20 21  2  0  0  0  0
 20 23  1  0  0  0  0
 21 22  1  0  0  0  0
 21 40  1  0  0  0  0
 22 41  1  0  0  0  0
M  END
$$$$
ZINC02437177
  -OEChem-08230709453D

 48 50  0     0  0  0  0  0  0999 V2000
    3.5359    2.2651    0.3162 C   0  0  0  0  0  0  0  0  0  0  0  0
    2.2828    1.4452    0.1474 C   0  0  0  0  0  0  0  0  0  0  0  0
    2.3601    0.0619   -0.0148 C   0  0  0  0  0  0  0  0  0  0  0  0
    1.1590   -0.6587   -0.1684 C   0  0  0  0  0  0  0  0  0  0  0  0
    0.0055    0.0059   -0.1525 N   0  0  0  0  0  0  0  0  0  0  0  0
   -0.0156    1.3198    0.0044 C   0  0  0  0  0  0  0  0  0  0  0  0
    1.0957    2.0277    0.1514 N   0  0  0  0  0  0  0  0  0  0  0  0
   -1.2344    1.9754    0.0097 N   0  0  0  0  0  0  0  0  0  0  0  0
    1.1793   -2.1272   -0.3435 C   0  0  0  0  0  0  0  0  0  0  0  0
    2.0107   -2.7064   -1.3032 C   0  0  0  0  0  0  0  0  0  0  0  0
    2.0277   -4.0745   -1.4636 C   0  0  0  0  0  0  0  0  0  0  0  0
    1.2187   -4.8816   -0.6720 C   0  0  0  0  0  0  0  0  0  0  0  0
    0.3896   -4.3150    0.2846 C   0  0  0  0  0  0  0  0  0  0  0  0
    0.3687   -2.9415    0.4571 C   0  0  0  0  0  0  0  0  0  0  0  0
   -0.4385   -2.3854    1.3966 O   0  0  0  0  0  0  0  0  0  0  0  0
    1.2407   -6.2297   -0.8357 O   0  0  0  0  0  0  0  0  0  0  0  0
    2.1176   -6.7473   -1.8382 C   0  0  0  0  0  0  0  0  0  0  0  0
    3.6702   -0.6310   -0.0259 C   0  0  0  0  0  0  0  0  0  0  0  0
    4.0133   -1.4925    1.0153 C   0  0  0  0  0  0  0  0  0  0  0  0
    5.2310   -2.1418    1.0013 C   0  0  0  0  0  0  0  0  0  0  0  0
    6.1204   -1.9306   -0.0413 C   0  0  0  0  0  0  0  0  0  0  0  0
    5.7857   -1.0670   -1.0811 C   0  0  0  0  0  0  0  0  0  0  0  0
    4.5640   -0.4182   -1.0746 C   0  0  0  0  0  0  0  0  0  0  0  0
    6.6594   -0.8618   -2.1028 O   0  0  0  0  0  0  0  0  0  0  0  0
    6.2501    0.0367   -3.1359 C   0  0  0  0  0  0  0  0  0  0  0  0
    7.3218   -2.5677   -0.0482 O   0  0  0  0  0  0  0  0  0  0  0  0
    7.6002   -3.4394    1.0493 C   0  0  0  0  0  0  0  0  0  0  0  0
    3.8950    2.5854   -0.6618 H   0  0  0  0  0  0  0  0  0  0  0  0
    3.3176    3.1406    0.9277 H   0  0  0  0  0  0  0  0  0  0  0  0
    4.3014    1.6623    0.8049 H   0  0  0  0  0  0  0  0  0  0  0  0
   -2.0563    1.4722   -0.1007 H   0  0  0  0  0  0  0  0  0  0  0  0
   -1.2668    2.9381    0.1237 H   0  0  0  0  0  0  0  0  0  0  0  0
    2.6407   -2.0823   -1.9197 H   0  0  0  0  0  0  0  0  0  0  0  0
    2.6713   -4.5214   -2.2069 H   0  0  0  0  0  0  0  0  0  0  0  0
   -0.2367   -4.9458    0.8979 H   0  0  0  0  0  0  0  0  0  0  0  0
   -1.3223   -2.1624    1.0737 H   0  0  0  0  0  0  0  0  0  0  0  0
    2.0379   -7.8341   -1.8647 H   0  0  0  0  0  0  0  0  0  0  0  0
    1.8399   -6.3388   -2.8099 H   0  0  0  0  0  0  0  0  0  0  0  0
    3.1439   -6.4639   -1.6048 H   0  0  0  0  0  0  0  0  0  0  0  0
    3.3243   -1.6549    1.8310 H   0  0  0  0  0  0  0  0  0  0  0  0
    5.4936   -2.8123    1.8062 H   0  0  0  0  0  0  0  0  0  0  0  0
    4.3028    0.2517   -1.8806 H   0  0  0  0  0  0  0  0  0  0  0  0
    5.3376   -0.3361   -3.6012 H   0  0  0  0  0  0  0  0  0  0  0  0
    6.0634    1.0216   -2.7079 H   0  0  0  0  0  0  0  0  0  0  0  0
    7.0370    0.1100   -3.8866 H   0  0  0  0  0  0  0  0  0  0  0  0
    7.5750   -2.8718    1.9796 H   0  0  0  0  0  0  0  0  0  0  0  0
    6.8500   -4.2293    1.0853 H   0  0  0  0  0  0  0  0  0  0  0  0
    8.5879   -3.8819    0.9204 H   0  0  0  0  0  0  0  0  0  0  0  0
  1  2  1  0  0  0  0
  1 28  1  0  0  0  0
  1 29  1  0  0  0  0
  1 30  1  0  0  0  0
  2  7  2  0  0  0  0
  2  3  1  0  0  0  0
  3  4  2  0  0  0  0
  3 18  1  0  0  0  0
  4  5  1  0  0  0  0
  4  9  1  0  0  0  0
  5  6  2  0  0  0  0
  6  7  1  0  0  0  0
  6  8  1  0  0  0  0
  8 31  1  0  0  0  0
  8 32  1  0  0  0  0
  9 14  2  0  0  0  0
  9 10  1  0  0  0  0
 10 11  2  0  0  0  0
 10 33  1  0  0  0  0
 11 12  1  0  0  0  0
 11 34  1  0  0  0  0
 12 13  2  0  0  0  0
 12 16  1  0  0  0  0
 13 14  1  0  0  0  0
 13 35  1  0  0  0  0
 14 15  1  0  0  0  0
 15 36  1  0  0  0  0
 16 17  1  0  0  0  0
 17 37  1  0  0  0  0
 17 38  1  0  0  0  0
 17 39  1  0  0  0  0
 18 23  2  0  0  0  0
 18 19  1  0  0  0  0
 19 20  2  0  0  0  0
 19 40  1  0  0  0  0
 20 21  1  0  0  0  0
 20 41  1  0  0  0  0
 21 22  2  0  0  0  0
 21 26  1  0  0  0  0
 22 23  1  0  0  0  0
 22 24  1  0  0  0  0
 23 42  1  0  0  0  0
 24 25  1  0  0  0  0
 25 43  1  0  0  0  0
 25 44  1  0  0  0  0
 25 45  1  0  0  0  0
 26 27  1  0  0  0  0
 27 46  1  0  0  0  0
 27 47  1  0  0  0  0
 27 48  1  0  0  0  0
M  END
$$$$
ZINC02444207
  -OEChem-08230709453D

 46 49  0     0  0  0  0  0  0999 V2000
   11.7619   -1.7092   -3.2447 C   0  0  0  0  0  0  0  0  0  0  0  0
   11.3661   -3.1642   -3.5040 C   0  0  0  0  0  0  0  0  0  0  0  0
    9.8514   -3.2487   -3.7128 C   0  0  0  0  0  0  0  0  0  0  0  0
    9.1726   -2.9715   -2.3735 C   0  0  0  0  0  0  0  0  0  0  0  0
    9.8875   -3.0659   -1.2322 C   0  0  0  0  0  0  0  0  0  0  0  0
    8.7456   -2.6714    0.0617 S   0  0  0  0  0  0  0  0  0  0  0  0
    7.3054   -2.3797   -0.9332 C   0  0  0  0  0  0  0  0  0  0  0  0
    7.7642   -2.6003   -2.2482 C   0  0  0  0  0  0  0  0  0  0  0  0
    6.7916   -2.4305   -3.2727 C   0  0  0  0  0  0  0  0  0  0  0  0
    5.5577   -2.0876   -2.9428 N   0  0  0  0  0  0  0  0  0  0  0  0
    5.1922   -1.8952   -1.6816 C   0  0  0  0  0  0  0  0  0  0  0  0
    6.0568   -2.0344   -0.6861 N   0  0  0  0  0  0  0  0  0  0  0  0
    3.8841   -1.5366   -1.4004 N   0  0  0  0  0  0  0  0  0  0  0  0
    3.4658   -1.3208   -0.0130 C   0  0  0  0  0  0  0  0  0  0  0  0
    2.0073   -0.9429    0.0189 C   0  0  0  0  0  0  0  0  0  0  0  0
    1.0408   -1.9257    0.1237 C   0  0  0  0  0  0  0  0  0  0  0  0
   -0.2970   -1.5790    0.1530 C   0  0  0  0  0  0  0  0  0  0  0  0
   -0.6684   -0.2496    0.0775 C   0  0  0  0  0  0  0  0  0  0  0  0
    0.2981    0.7332   -0.0267 C   0  0  0  0  0  0  0  0  0  0  0  0
    1.6360    0.3865   -0.0561 C   0  0  0  0  0  0  0  0  0  0  0  0
    7.1328   -2.6225   -4.5991 N   0  0  0  0  0  0  0  0  0  0  0  0
    6.2641   -2.2561   -5.5877 N   0  0  0  0  0  0  0  0  0  0  0  0
   11.3359   -3.4298   -1.1218 C   0  0  0  0  0  0  0  0  0  0  0  0
   11.7543   -3.9676   -2.3863 O   0  0  0  0  0  0  0  0  0  0  0  0
   12.0778   -3.6670   -4.7616 C   0  0  0  0  0  0  0  0  0  0  0  0
   12.8413   -1.6452   -3.1074 H   0  0  0  0  0  0  0  0  0  0  0  0
   11.4668   -1.0952   -4.0956 H   0  0  0  0  0  0  0  0  0  0  0  0
   11.2594   -1.3506   -2.3463 H   0  0  0  0  0  0  0  0  0  0  0  0
    9.5831   -4.2457   -4.0622 H   0  0  0  0  0  0  0  0  0  0  0  0
    9.5384   -2.5046   -4.4452 H   0  0  0  0  0  0  0  0  0  0  0  0
    3.2450   -1.4283   -2.1220 H   0  0  0  0  0  0  0  0  0  0  0  0
    4.0589   -0.5177    0.4245 H   0  0  0  0  0  0  0  0  0  0  0  0
    3.6165   -2.2366    0.5585 H   0  0  0  0  0  0  0  0  0  0  0  0
    1.3310   -2.9643    0.1823 H   0  0  0  0  0  0  0  0  0  0  0  0
   -1.0521   -2.3469    0.2345 H   0  0  0  0  0  0  0  0  0  0  0  0
   -1.7138    0.0208    0.0956 H   0  0  0  0  0  0  0  0  0  0  0  0
    0.0079    1.7718   -0.0860 H   0  0  0  0  0  0  0  0  0  0  0  0
    2.3911    1.1544   -0.1376 H   0  0  0  0  0  0  0  0  0  0  0  0
    7.9889   -3.0172   -4.8275 H   0  0  0  0  0  0  0  0  0  0  0  0
    6.6484   -2.4560   -6.4990 H   0  0  0  0  0  0  0  0  0  0  0  0
    5.3685   -2.7047   -5.4666 H   0  0  0  0  0  0  0  0  0  0  0  0
   11.9224   -2.5416   -0.8868 H   0  0  0  0  0  0  0  0  0  0  0  0
   11.4697   -4.1773   -0.3399 H   0  0  0  0  0  0  0  0  0  0  0  0
   11.8007   -4.7051   -4.9454 H   0  0  0  0  0  0  0  0  0  0  0  0
   11.7831   -3.0558   -5.6147 H   0  0  0  0  0  0  0  0  0  0  0  0
   13.1564   -3.5983   -4.6207 H   0  0  0  0  0  0  0  0  0  0  0  0
  1  2  1  0  0  0  0
  1 26  1  0  0  0  0
  1 27  1  0  0  0  0
  1 28  1  0  0  0  0
  2 24  1  0  0  0  0
  2  3  1  0  0  0  0
  2 25  1  0  0  0  0
  3  4  1  0  0  0  0
  3 29  1  0  0  0  0
  3 30  1  0  0  0  0
  4  8  1  0  0  0  0
  4  5  2  0  0  0  0
  5  6  1  0  0  0  0
  5 23  1  0  0  0  0
  6  7  1  0  0  0  0
  7 12  2  0  0  0  0
  7  8  1  0  0  0  0
  8  9  2  0  0  0  0
  9 10  1  0  0  0  0
  9 21  1  0  0  0  0
 10 11  2  0  0  0  0
 11 12  1  0  0  0  0
 11 13  1  0  0  0  0
 13 14  1  0  0  0  0
 13 31  1  0  0  0  0
 14 15  1  0  0  0  0
 14 32  1  0  0  0  0
 14 33  1  0  0  0  0
 15 20  2  0  0  0  0
 15 16  1  0  0  0  0
 16 17  2  0  0  0  0
 16 34  1  0  0  0  0
 17 18  1  0  0  0  0
 17 35  1  0  0  0  0
 18 19  2  0  0  0  0
 18 36  1  0  0  0  0
 19 20  1  0  0  0  0
 19 37  1  0  0  0  0
 20 38  1  0  0  0  0
 21 22  1  0  0  0  0
 21 39  1  0  0  0  0
 22 40  1  0  0  0  0
 22 41  1  0  0  0  0
 23 24  1  0  0  0  0
 23 42  1  0  0  0  0
 23 43  1  0  0  0  0
 25 44  1  0  0  0  0
 25 45  1  0  0  0  0
 25 46  1  0  0  0  0
M  END
$$$$
ZINC02448311
  -OEChem-08230709453D

 41 42  0     0  0  0  0  0  0999 V2000
  -11.5809   -0.9910    0.1745 C   0  0  0  0  0  0  0  0  0  0  0  0
  -11.0215    0.4280    0.0541 C   0  0  0  0  0  0  0  0  0  0  0  0
  -11.4972    1.2663    1.2423 C   0  0  0  0  0  0  0  0  0  0  0  0
  -11.5153    1.0621   -1.2478 C   0  0  0  0  0  0  0  0  0  0  0  0
   -9.5154    0.3753    0.0475 C   0  0  0  0  0  0  0  0  0  0  0  0
   -8.6747    1.4361    0.0591 C   0  0  0  0  0  0  0  0  0  0  0  0
   -7.3712    0.8859    0.0467 C   0  0  0  0  0  0  0  0  0  0  0  0
   -7.5072   -0.4251    0.0281 N   0  0  0  0  0  0  0  0  0  0  0  0
   -8.7530   -0.7390    0.0289 N   0  0  0  0  0  0  0  0  0  0  0  0
   -6.7513   -1.0796    0.0153 H   0  0  0  0  0  0  0  0  0  0  0  0
   -6.0996    1.6376    0.0498 C   0  0  0  0  0  0  0  0  0  0  0  0
   -6.1122    2.8532    0.0591 O   0  0  0  0  0  0  0  0  0  0  0  0
   -4.9255    0.9758    0.0426 N   0  0  0  0  0  0  0  0  0  0  0  0
   -3.7195    1.6889    0.0456 N   0  0  0  0  0  0  0  0  0  0  0  0
   -2.5040    1.0037    0.0380 C   0  0  0  0  0  0  0  0  0  0  0  0
   -2.4902   -0.3296    0.0280 C   0  0  0  0  0  0  0  0  0  0  0  0
   -1.2290    1.7576    0.0412 C   0  0  0  0  0  0  0  0  0  0  0  0
   -0.0125    1.0754    0.0338 C   0  0  0  0  0  0  0  0  0  0  0  0
    1.1722    1.7827    0.0305 C   0  0  0  0  0  0  0  0  0  0  0  0
    1.1556    3.1660    0.0406 C   0  0  0  0  0  0  0  0  0  0  0  0
   -0.0481    3.8488    0.0539 C   0  0  0  0  0  0  0  0  0  0  0  0
   -1.2403    3.1515    0.0572 C   0  0  0  0  0  0  0  0  0  0  0  0
   -0.0606    5.7397    0.0669 Br  0  0  0  0  0  0  0  0  0  0  0  0
  -11.2291   -1.4427    1.1020 H   0  0  0  0  0  0  0  0  0  0  0  0
  -12.6702   -0.9528    0.1793 H   0  0  0  0  0  0  0  0  0  0  0  0
  -11.2419   -1.5882   -0.6719 H   0  0  0  0  0  0  0  0  0  0  0  0
  -11.0987    2.2772    1.1565 H   0  0  0  0  0  0  0  0  0  0  0  0
  -12.5866    1.3044    1.2470 H   0  0  0  0  0  0  0  0  0  0  0  0
  -11.1454    0.8145    2.1698 H   0  0  0  0  0  0  0  0  0  0  0  0
  -11.1763    0.4649   -2.0942 H   0  0  0  0  0  0  0  0  0  0  0  0
  -12.6046    1.1002   -1.2430 H   0  0  0  0  0  0  0  0  0  0  0  0
  -11.1167    2.0730   -1.3335 H   0  0  0  0  0  0  0  0  0  0  0  0
   -8.9425    2.4823    0.0746 H   0  0  0  0  0  0  0  0  0  0  0  0
   -4.9155    0.0059    0.0352 H   0  0  0  0  0  0  0  0  0  0  0  0
   -3.7296    2.6588    0.0530 H   0  0  0  0  0  0  0  0  0  0  0  0
   -3.4199   -0.8792    0.0256 H   0  0  0  0  0  0  0  0  0  0  0  0
   -1.5494   -0.8598    0.0221 H   0  0  0  0  0  0  0  0  0  0  0  0
    0.0022   -0.0045    0.0259 H   0  0  0  0  0  0  0  0  0  0  0  0
    2.1147    1.2552    0.0198 H   0  0  0  0  0  0  0  0  0  0  0  0
    2.0856    3.7151    0.0376 H   0  0  0  0  0  0  0  0  0  0  0  0
   -2.1793    3.6851    0.0680 H   0  0  0  0  0  0  0  0  0  0  0  0
  1  2  1  0  0  0  0
  1 24  1  0  0  0  0
  1 25  1  0  0  0  0
  1 26  1  0  0  0  0
  2  3  1  0  0  0  0
  2  4  1  0  0  0  0
  2  5  1  0  0  0  0
  3 27  1  0  0  0  0
  3 28  1  0  0  0  0
  3 29  1  0  0  0  0
  4 30  1  0  0  0  0
  4 31  1  0  0  0  0
  4 32  1  0  0  0  0
  5  6  1  0  0  0  0
  5  9  2  0  0  0  0
  6 33  1  0  0  0  0
  6  7  2  0  0  0  0
  7 11  1  0  0  0  0
  7  8  1  0  0  0  0
  8 10  1  0  0  0  0
  8  9  1  0  0  0  0
 11 12  2  0  0  0  0
 11 13  1  0  0  0  0
 13 14  1  0  0  0  0
 13 34  1  0  0  0  0
 14 15  1  0  0  0  0
 14 35  1  0  0  0  0
 15 16  2  0  0  0  0
 15 17  1  0  0  0  0
 16 36  1  0  0  0  0
 16 37  1  0  0  0  0
 17 22  2  0  0  0  0
 17 18  1  0  0  0  0
 18 19  2  0  0  0  0
 18 38  1  0  0  0  0
 19 20  1  0  0  0  0
 19 39  1  0  0  0  0
 20 21  2  0  0  0  0
 20 40  1  0  0  0  0
 21 22  1  0  0  0  0
 21 23  1  0  0  0  0
 22 41  1  0  0  0  0
M  END
$$$$
ZINC02454017
  -OEChem-08230709453D

 41 42  0     0  0  0  0  0  0999 V2000
   -6.6109   -1.2351   -0.1243 C   0  0  0  0  0  0  0  0  0  0  0  0
   -6.0803    0.1811   -0.3565 C   0  0  0  0  0  0  0  0  0  0  0  0
   -6.6408    1.1178    0.7155 C   0  0  0  0  0  0  0  0  0  0  0  0
   -6.5171    0.6691   -1.7392 C   0  0  0  0  0  0  0  0  0  0  0  0
   -4.5753    0.1726   -0.2790 C   0  0  0  0  0  0  0  0  0  0  0  0
   -3.7625    1.2539   -0.3287 C   0  0  0  0  0  0  0  0  0  0  0  0
   -2.4473    0.7440   -0.2175 C   0  0  0  0  0  0  0  0  0  0  0  0
   -2.5502   -0.5659   -0.1138 N   0  0  0  0  0  0  0  0  0  0  0  0
   -3.7861   -0.9151   -0.1470 N   0  0  0  0  0  0  0  0  0  0  0  0
   -1.7790   -1.1959   -0.0226 H   0  0  0  0  0  0  0  0  0  0  0  0
   -1.1966    1.5297   -0.2219 C   0  0  0  0  0  0  0  0  0  0  0  0
   -1.2392    2.7395   -0.3344 O   0  0  0  0  0  0  0  0  0  0  0  0
   -0.0082    0.9056   -0.1014 N   0  0  0  0  0  0  0  0  0  0  0  0
    1.1785    1.6504   -0.1114 N   0  0  0  0  0  0  0  0  0  0  0  0
    2.4090    1.0036    0.0077 C   0  0  0  0  0  0  0  0  0  0  0  0
    2.4558   -0.3234    0.1310 C   0  0  0  0  0  0  0  0  0  0  0  0
    3.6634    1.7909   -0.0030 C   0  0  0  0  0  0  0  0  0  0  0  0
    4.6560    1.5139   -0.9425 C   0  0  0  0  0  0  0  0  0  0  0  0
    5.8204    2.2539   -0.9506 C   0  0  0  0  0  0  0  0  0  0  0  0
    6.0097    3.2624   -0.0224 C   0  0  0  0  0  0  0  0  0  0  0  0
    5.0320    3.5393    0.9155 C   0  0  0  0  0  0  0  0  0  0  0  0
    3.8595    2.8091    0.9308 C   0  0  0  0  0  0  0  0  0  0  0  0
    2.6330    3.1570    2.1091 Cl  0  0  0  0  0  0  0  0  0  0  0  0
   -6.2997   -1.5827    0.8608 H   0  0  0  0  0  0  0  0  0  0  0  0
   -7.6994   -1.2289   -0.1803 H   0  0  0  0  0  0  0  0  0  0  0  0
   -6.2116   -1.9024   -0.8880 H   0  0  0  0  0  0  0  0  0  0  0  0
   -6.2628    2.1267    0.5501 H   0  0  0  0  0  0  0  0  0  0  0  0
   -7.7294    1.1240    0.6595 H   0  0  0  0  0  0  0  0  0  0  0  0
   -6.3296    0.7702    1.7006 H   0  0  0  0  0  0  0  0  0  0  0  0
   -6.1177    0.0017   -2.5029 H   0  0  0  0  0  0  0  0  0  0  0  0
   -7.6056    0.6752   -1.7952 H   0  0  0  0  0  0  0  0  0  0  0  0
   -6.1391    1.6780   -1.9046 H   0  0  0  0  0  0  0  0  0  0  0  0
   -4.0561    2.2882   -0.4316 H   0  0  0  0  0  0  0  0  0  0  0  0
    0.0258   -0.0597   -0.0116 H   0  0  0  0  0  0  0  0  0  0  0  0
    1.1445    2.6156   -0.2011 H   0  0  0  0  0  0  0  0  0  0  0  0
    3.3999   -0.8161    0.3102 H   0  0  0  0  0  0  0  0  0  0  0  0
    1.5494   -0.9053    0.0518 H   0  0  0  0  0  0  0  0  0  0  0  0
    4.5119    0.7241   -1.6649 H   0  0  0  0  0  0  0  0  0  0  0  0
    6.5881    2.0424   -1.6804 H   0  0  0  0  0  0  0  0  0  0  0  0
    6.9249    3.8357   -0.0303 H   0  0  0  0  0  0  0  0  0  0  0  0
    5.1856    4.3274    1.6378 H   0  0  0  0  0  0  0  0  0  0  0  0
  1  2  1  0  0  0  0
  1 24  1  0  0  0  0
  1 25  1  0  0  0  0
  1 26  1  0  0  0  0
  2  3  1  0  0  0  0
  2  4  1  0  0  0  0
  2  5  1  0  0  0  0
  3 27  1  0  0  0  0
  3 28  1  0  0  0  0
  3 29  1  0  0  0  0
  4 30  1  0  0  0  0
  4 31  1  0  0  0  0
  4 32  1  0  0  0  0
  5  6  1  0  0  0  0
  5  9  2  0  0  0  0
  6 33  1  0  0  0  0
  6  7  2  0  0  0  0
  7 11  1  0  0  0  0
  7  8  1  0  0  0  0
  8 10  1  0  0  0  0
  8  9  1  0  0  0  0
 11 12  2  0  0  0  0
 11 13  1  0  0  0  0
 13 14  1  0  0  0  0
 13 34  1  0  0  0  0
 14 15  1  0  0  0  0
 14 35  1  0  0  0  0
 15 16  2  0  0  0  0
 15 17  1  0  0  0  0
 16 36  1  0  0  0  0
 16 37  1  0  0  0  0
 17 22  2  0  0  0  0
 17 18  1  0  0  0  0
 18 19  2  0  0  0  0
 18 38  1  0  0  0  0
 19 20  1  0  0  0  0
 19 39  1  0  0  0  0
 20 21  2  0  0  0  0
 20 40  1  0  0  0  0
 21 22  1  0  0  0  0
 21 41  1  0  0  0  0
 22 23  1  0  0  0  0
M  END
$$$$
ZINC02458349
  -OEChem-08230709453D

 42 44  0     1  0  0  0  0  0999 V2000
    0.5372    7.3131    0.0733 C   0  0  0  0  0  0  0  0  0  0  0  0
    0.8314    5.8354    0.0432 C   0  0  0  0  0  0  0  0  0  0  0  0
   -0.1694    4.9915    0.0967 N   0  0  0  0  0  0  0  0  0  0  0  0
   -0.0576    3.6619    0.0792 C   0  0  0  0  0  0  0  0  0  0  0  0
    1.1825    3.0451   -0.0005 C   0  0  0  0  0  0  0  0  0  0  0  0
    1.2700    1.6542   -0.0165 C   0  0  0  0  0  0  0  0  0  0  0  0
    2.3567    1.1049   -0.0861 O   0  0  0  0  0  0  0  0  0  0  0  0
    0.1375    0.9225    0.0463 N   0  0  0  0  0  0  0  0  0  0  0  0
    0.1926   -0.0760    0.0395 H   0  0  0  0  0  0  0  0  0  0  0  0
   -1.0639    1.5219    0.1179 C   0  0  0  0  0  0  0  0  0  0  0  0
   -2.0663    0.8356    0.1678 O   0  0  0  0  0  0  0  0  0  0  0  0
   -1.1850    2.8618    0.1407 N   0  0  0  0  0  0  0  0  0  0  0  0
   -2.0912    3.2801    0.2022 H   0  0  0  0  0  0  0  0  0  0  0  0
    2.4155    3.9170   -0.0678 C   0  0  2  0  0  0  0  0  0  0  0  0
    3.0590    3.6641    0.7748 H   0  0  0  0  0  0  0  0  0  0  0  0
    2.1616    5.4156   -0.0404 C   0  0  0  0  0  0  0  0  0  0  0  0
    3.1898    6.3134   -0.0947 C   0  0  0  0  0  0  0  0  0  0  0  0
    4.4657    5.8803   -0.0526 O   0  0  0  0  0  0  0  0  0  0  0  0
    2.9286    7.6324   -0.1904 O   0  0  0  0  0  0  0  0  0  0  0  0
    4.0700    8.5283   -0.2435 C   0  0  0  0  0  0  0  0  0  0  0  0
    3.5868    9.9518   -0.3486 C   0  0  0  0  0  0  0  0  0  0  0  0
    4.1294   10.8843    0.3945 C   0  0  0  0  0  0  0  0  0  0  0  0
    3.1560    3.5904   -1.3390 C   0  0  0  0  0  0  0  0  0  0  0  0
    2.5343    3.7563   -2.5626 C   0  0  0  0  0  0  0  0  0  0  0  0
    3.2141    3.4617   -3.7292 C   0  0  0  0  0  0  0  0  0  0  0  0
    4.5147    2.9903   -3.6717 C   0  0  0  0  0  0  0  0  0  0  0  0
    5.1345    2.8195   -2.4454 C   0  0  0  0  0  0  0  0  0  0  0  0
    4.4546    3.1198   -1.2804 C   0  0  0  0  0  0  0  0  0  0  0  0
    5.1786    2.6975   -4.8113 F   0  0  0  0  0  0  0  0  0  0  0  0
    0.8695    7.7688   -0.8594 H   0  0  0  0  0  0  0  0  0  0  0  0
   -0.5353    7.4677    0.1914 H   0  0  0  0  0  0  0  0  0  0  0  0
    1.0646    7.7716    0.9098 H   0  0  0  0  0  0  0  0  0  0  0  0
    5.1592    6.5529   -0.0939 H   0  0  0  0  0  0  0  0  0  0  0  0
    4.6652    8.4126    0.6623 H   0  0  0  0  0  0  0  0  0  0  0  0
    4.6812    8.2869   -1.1132 H   0  0  0  0  0  0  0  0  0  0  0  0
    2.7932   10.2033   -1.0366 H   0  0  0  0  0  0  0  0  0  0  0  0
    4.9230   10.6328    1.0825 H   0  0  0  0  0  0  0  0  0  0  0  0
    3.7831   11.9045    0.3192 H   0  0  0  0  0  0  0  0  0  0  0  0
    1.5184    4.1202   -2.6070 H   0  0  0  0  0  0  0  0  0  0  0  0
    2.7297    3.5953   -4.6852 H   0  0  0  0  0  0  0  0  0  0  0  0
    6.1491    2.4522   -2.3994 H   0  0  0  0  0  0  0  0  0  0  0  0
    4.9379    2.9870   -0.3238 H   0  0  0  0  0  0  0  0  0  0  0  0
  1  2  1  0  0  0  0
  1 30  1  0  0  0  0
  1 31  1  0  0  0  0
  1 32  1  0  0  0  0
  2 16  1  0  0  0  0
  2  3  2  0  0  0  0
  3  4  1  0  0  0  0
  4 12  1  0  0  0  0
  4  5  2  0  0  0  0
  5  6  1  0  0  0  0
  5 14  1  0  0  0  0
  6  7  2  0  0  0  0
  6  8  1  0  0  0  0
  8  9  1  0  0  0  0
  8 10  1  0  0  0  0
 10 11  2  0  0  0  0
 10 12  1  0  0  0  0
 12 13  1  0  0  0  0
 14 15  1  0  0  0  0
 14 16  1  0  0  0  0
 14 23  1  0  0  0  0
 16 17  2  0  0  0  0
 17 18  1  0  0  0  0
 17 19  1  0  0  0  0
 18 33  1  0  0  0  0
 19 20  1  0  0  0  0
 20 21  1  0  0  0  0
 20 34  1  0  0  0  0
 20 35  1  0  0  0  0
 21 22  2  0  0  0  0
 21 36  1  0  0  0  0
 22 37  1  0  0  0  0
 22 38  1  0  0  0  0
 23 28  2  0  0  0  0
 23 24  1  0  0  0  0
 24 25  2  0  0  0  0
 24 39  1  0  0  0  0
 25 26  1  0  0  0  0
 25 40  1  0  0  0  0
 26 27  2  0  0  0  0
 26 29  1  0  0  0  0
 27 28  1  0  0  0  0
 27 41  1  0  0  0  0
 28 42  1  0  0  0  0
M  END
$$$$
ZINC02458357
  -OEChem-08230709453D

 42 44  0     1  0  0  0  0  0999 V2000
    0.5372    7.3131    0.0733 C   0  0  0  0  0  0  0  0  0  0  0  0
    0.8314    5.8354    0.0432 C   0  0  0  0  0  0  0  0  0  0  0  0
   -0.1694    4.9915    0.0967 N   0  0  0  0  0  0  0  0  0  0  0  0
   -0.0576    3.6619    0.0792 C   0  0  0  0  0  0  0  0  0  0  0  0
    1.1825    3.0451   -0.0005 C   0  0  0  0  0  0  0  0  0  0  0  0
    1.2700    1.6542   -0.0165 C   0  0  0  0  0  0  0  0  0  0  0  0
    2.3567    1.1049   -0.0861 O   0  0  0  0  0  0  0  0  0  0  0  0
    0.1375    0.9225    0.0463 N   0  0  0  0  0  0  0  0  0  0  0  0
    0.1926   -0.0760    0.0395 H   0  0  0  0  0  0  0  0  0  0  0  0
   -1.0639    1.5219    0.1179 C   0  0  0  0  0  0  0  0  0  0  0  0
   -2.0663    0.8356    0.1678 O   0  0  0  0  0  0  0  0  0  0  0  0
   -1.1850    2.8618    0.1407 N   0  0  0  0  0  0  0  0  0  0  0  0
   -2.0912    3.2801    0.2022 H   0  0  0  0  0  0  0  0  0  0  0  0
    2.4155    3.9170   -0.0678 C   0  0  2  0  0  0  0  0  0  0  0  0
    3.0590    3.6642    0.7748 H   0  0  0  0  0  0  0  0  0  0  0  0
    2.1616    5.4156   -0.0404 C   0  0  0  0  0  0  0  0  0  0  0  0
    3.1898    6.3134   -0.0947 C   0  0  0  0  0  0  0  0  0  0  0  0
    4.4657    5.8803   -0.0526 O   0  0  0  0  0  0  0  0  0  0  0  0
    2.9286    7.6324   -0.1904 O   0  0  0  0  0  0  0  0  0  0  0  0
    4.0700    8.5283   -0.2435 C   0  0  0  0  0  0  0  0  0  0  0  0
    3.5868    9.9518   -0.3486 C   0  0  0  0  0  0  0  0  0  0  0  0
    4.1294   10.8843    0.3945 C   0  0  0  0  0  0  0  0  0  0  0  0
    3.1560    3.5904   -1.3390 C   0  0  0  0  0  0  0  0  0  0  0  0
    2.5346    3.7563   -2.5627 C   0  0  0  0  0  0  0  0  0  0  0  0
    3.2153    3.4623   -3.7292 C   0  0  0  0  0  0  0  0  0  0  0  0
    4.5149    2.9912   -3.6714 C   0  0  0  0  0  0  0  0  0  0  0  0
    5.1343    2.8201   -2.4462 C   0  0  0  0  0  0  0  0  0  0  0  0
    4.4545    3.1198   -1.2807 C   0  0  0  0  0  0  0  0  0  0  0  0
    5.3682    2.6156   -5.1358 Cl  0  0  0  0  0  0  0  0  0  0  0  0
    0.8695    7.7688   -0.8594 H   0  0  0  0  0  0  0  0  0  0  0  0
   -0.5353    7.4677    0.1914 H   0  0  0  0  0  0  0  0  0  0  0  0
    1.0646    7.7716    0.9098 H   0  0  0  0  0  0  0  0  0  0  0  0
    5.1592    6.5529   -0.0939 H   0  0  0  0  0  0  0  0  0  0  0  0
    4.6652    8.4126    0.6623 H   0  0  0  0  0  0  0  0  0  0  0  0
    4.6812    8.2869   -1.1132 H   0  0  0  0  0  0  0  0  0  0  0  0
    2.7932   10.2033   -1.0366 H   0  0  0  0  0  0  0  0  0  0  0  0
    4.9230   10.6328    1.0825 H   0  0  0  0  0  0  0  0  0  0  0  0
    3.7831   11.9045    0.3192 H   0  0  0  0  0  0  0  0  0  0  0  0
    1.5186    4.1198   -2.6074 H   0  0  0  0  0  0  0  0  0  0  0  0
    2.7312    3.5961   -4.6853 H   0  0  0  0  0  0  0  0  0  0  0  0
    6.1489    2.4528   -2.4005 H   0  0  0  0  0  0  0  0  0  0  0  0
    4.9381    2.9866   -0.3242 H   0  0  0  0  0  0  0  0  0  0  0  0
  1  2  1  0  0  0  0
  1 30  1  0  0  0  0
  1 31  1  0  0  0  0
  1 32  1  0  0  0  0
  2 16  1  0  0  0  0
  2  3  2  0  0  0  0
  3  4  1  0  0  0  0
  4 12  1  0  0  0  0
  4  5  2  0  0  0  0
  5  6  1  0  0  0  0
  5 14  1  0  0  0  0
  6  7  2  0  0  0  0
  6  8  1  0  0  0  0
  8  9  1  0  0  0  0
  8 10  1  0  0  0  0
 10 11  2  0  0  0  0
 10 12  1  0  0  0  0
 12 13  1  0  0  0  0
 14 15  1  0  0  0  0
 14 16  1  0  0  0  0
 14 23  1  0  0  0  0
 16 17  2  0  0  0  0
 17 18  1  0  0  0  0
 17 19  1  0  0  0  0
 18 33  1  0  0  0  0
 19 20  1  0  0  0  0
 20 21  1  0  0  0  0
 20 34  1  0  0  0  0
 20 35  1  0  0  0  0
 21 22  2  0  0  0  0
 21 36  1  0  0  0  0
 22 37  1  0  0  0  0
 22 38  1  0  0  0  0
 23 28  2  0  0  0  0
 23 24  1  0  0  0  0
 24 25  2  0  0  0  0
 24 39  1  0  0  0  0
 25 26  1  0  0  0  0
 25 40  1  0  0  0  0
 26 27  2  0  0  0  0
 26 29  1  0  0  0  0
 27 28  1  0  0  0  0
 27 41  1  0  0  0  0
 28 42  1  0  0  0  0
M  END
$$$$
ZINC02460796
  -OEChem-08230709453D

 45 48  0     0  0  0  0  0  0999 V2000
   -1.2276    2.1751    0.0197 C   0  0  0  0  0  0  0  0  0  0  0  0
   -1.2533    3.5544    0.0322 C   0  0  0  0  0  0  0  0  0  0  0  0
   -0.0559    4.2717    0.0242 C   0  0  0  0  0  0  0  0  0  0  0  0
    1.1604    3.5873    0.0093 C   0  0  0  0  0  0  0  0  0  0  0  0
    1.1721    2.2078    0.0027 C   0  0  0  0  0  0  0  0  0  0  0  0
   -0.0184    1.5028    0.0103 C   0  0  0  0  0  0  0  0  0  0  0  0
    0.0021   -0.0041    0.0020 C   0  0  0  0  0  0  0  0  0  0  0  0
    0.0219   -0.4998    1.3805 N   0  0  0  0  0  0  0  0  0  0  0  0
    1.2024   -0.7177    2.0029 C   0  0  0  0  0  0  0  0  0  0  0  0
    2.2538   -0.5048    1.4260 O   0  0  0  0  0  0  0  0  0  0  0  0
    1.1983   -1.1863    3.3208 C   0  0  0  0  0  0  0  0  0  0  0  0
    0.0050   -1.4437    4.0011 C   0  0  0  0  0  0  0  0  0  0  0  0
    0.1636   -1.9112    5.3027 C   0  0  0  0  0  0  0  0  0  0  0  0
    1.4051   -2.0824    5.8127 C   0  0  0  0  0  0  0  0  0  0  0  0
    2.4450   -1.6024    4.5103 S   0  0  0  0  0  0  0  0  0  0  0  0
   -1.1773   -1.1977    3.2838 N   0  0  0  0  0  0  0  0  0  0  0  0
   -2.0625   -1.3638    3.7184 H   0  0  0  0  0  0  0  0  0  0  0  0
   -1.1332   -0.7427    2.0231 C   0  0  0  0  0  0  0  0  0  0  0  0
   -2.1801   -0.5424    1.4378 O   0  0  0  0  0  0  0  0  0  0  0  0
   -0.0760    5.7500    0.0308 C   0  0  0  0  0  0  0  0  0  0  0  0
    0.9683    6.3720    0.0234 O   0  0  0  0  0  0  0  0  0  0  0  0
   -1.2522    6.4079    0.0451 N   0  0  0  0  0  0  0  0  0  0  0  0
   -1.2720    7.8728    0.0517 C   0  0  0  0  0  0  0  0  0  0  0  0
   -1.2103    8.3956    1.5018 C   0  0  0  0  0  0  0  0  0  0  0  0
   -2.1347    9.6384    1.4971 C   0  0  0  0  0  0  0  0  0  0  0  0
   -3.2913    9.2006    0.5646 C   0  0  0  0  0  0  0  0  0  0  0  0
   -2.5952    8.3847   -0.5441 C   0  0  0  0  0  0  0  0  0  0  0  0
   -2.1533    1.6189    0.0214 H   0  0  0  0  0  0  0  0  0  0  0  0
   -2.1978    4.0780    0.0436 H   0  0  0  0  0  0  0  0  0  0  0  0
    2.0904    4.1364    0.0034 H   0  0  0  0  0  0  0  0  0  0  0  0
    2.1126    1.6770   -0.0087 H   0  0  0  0  0  0  0  0  0  0  0  0
   -0.8878   -0.3767   -0.5053 H   0  0  0  0  0  0  0  0  0  0  0  0
    0.8920   -0.3525   -0.5222 H   0  0  0  0  0  0  0  0  0  0  0  0
   -0.7039   -2.1368    5.9051 H   0  0  0  0  0  0  0  0  0  0  0  0
    1.6822   -2.4336    6.7958 H   0  0  0  0  0  0  0  0  0  0  0  0
   -2.0855    5.9115    0.0511 H   0  0  0  0  0  0  0  0  0  0  0  0
   -0.4298    8.2599   -0.5217 H   0  0  0  0  0  0  0  0  0  0  0  0
   -1.5864    7.6431    2.1949 H   0  0  0  0  0  0  0  0  0  0  0  0
   -0.1906    8.6795    1.7619 H   0  0  0  0  0  0  0  0  0  0  0  0
   -1.6151   10.5047    1.0877 H   0  0  0  0  0  0  0  0  0  0  0  0
   -2.5056    9.8477    2.5005 H   0  0  0  0  0  0  0  0  0  0  0  0
   -3.7903   10.0721    0.1407 H   0  0  0  0  0  0  0  0  0  0  0  0
   -4.0034    8.5782    1.1064 H   0  0  0  0  0  0  0  0  0  0  0  0
   -2.3950    9.0209   -1.4062 H   0  0  0  0  0  0  0  0  0  0  0  0
   -3.2225    7.5432   -0.8382 H   0  0  0  0  0  0  0  0  0  0  0  0
  1  6  2  0  0  0  0
  1  2  1  0  0  0  0
  1 28  1  0  0  0  0
  2  3  2  0  0  0  0
  2 29  1  0  0  0  0
  3  4  1  0  0  0  0
  3 20  1  0  0  0  0
  4  5  2  0  0  0  0
  4 30  1  0  0  0  0
  5  6  1  0  0  0  0
  5 31  1  0  0  0  0
  6  7  1  0  0  0  0
  7  8  1  0  0  0  0
  7 32  1  0  0  0  0
  7 33  1  0  0  0  0
  8 18  1  0  0  0  0
  8  9  1  0  0  0  0
  9 10  2  0  0  0  0
  9 11  1  0  0  0  0
 11 15  1  0  0  0  0
 11 12  2  0  0  0  0
 12 13  1  0  0  0  0
 12 16  1  0  0  0  0
 13 14  2  0  0  0  0
 13 34  1  0  0  0  0
 14 15  1  0  0  0  0
 14 35  1  0  0  0  0
 16 17  1  0  0  0  0
 16 18  1  0  0  0  0
 18 19  2  0  0  0  0
 20 21  2  0  0  0  0
 20 22  1  0  0  0  0
 22 23  1  0  0  0  0
 22 36  1  0  0  0  0
 23 27  1  0  0  0  0
 23 24  1  0  0  0  0
 23 37  1  0  0  0  0
 24 25  1  0  0  0  0
 24 38  1  0  0  0  0
 24 39  1  0  0  0  0
 25 26  1  0  0  0  0
 25 40  1  0  0  0  0
 25 41  1  0  0  0  0
 26 27  1  0  0  0  0
 26 42  1  0  0  0  0
 26 43  1  0  0  0  0
 27 44  1  0  0  0  0
 27 45  1  0  0  0  0
M  END
$$$$
ZINC02461453
  -OEChem-08230709453D

 39 41  0     0  0  0  0  0  0999 V2000
   -4.1712   -3.1055    5.3803 C   0  0  0  0  0  0  0  0  0  0  0  0
   -4.2234   -4.4005    4.5672 C   0  0  0  0  0  0  0  0  0  0  0  0
   -5.4186   -4.3557    3.6130 C   0  0  0  0  0  0  0  0  0  0  0  0
   -2.9513   -4.5463    3.7725 C   0  0  0  0  0  0  0  0  0  0  0  0
   -2.1348   -5.6443    3.9728 C   0  0  0  0  0  0  0  0  0  0  0  0
   -0.9686   -5.7813    3.2459 C   0  0  0  0  0  0  0  0  0  0  0  0
   -0.6161   -4.8146    2.3127 C   0  0  0  0  0  0  0  0  0  0  0  0
   -1.4359   -3.7103    2.1177 C   0  0  0  0  0  0  0  0  0  0  0  0
   -2.6034   -3.5822    2.8442 C   0  0  0  0  0  0  0  0  0  0  0  0
    0.5629   -4.9498    1.5761 N   0  0  0  0  0  0  0  0  0  0  0  0
    0.4982   -5.4112   -0.0130 S   0  0  0  0  0  0  0  0  0  0  0  0
    1.8430   -5.5351   -0.4550 O   0  0  0  0  0  0  0  0  0  0  0  0
   -0.4362   -4.5495   -0.6483 O   0  0  0  0  0  0  0  0  0  0  0  0
   -0.1977   -7.0293   -0.0577 C   0  0  0  0  0  0  0  0  0  0  0  0
    0.6075   -8.1439    0.1278 C   0  0  0  0  0  0  0  0  0  0  0  0
    0.0915   -9.4131    0.0972 C   0  0  0  0  0  0  0  0  0  0  0  0
   -1.2882   -9.6269   -0.1259 C   0  0  0  0  0  0  0  0  0  0  0  0
   -2.0773   -8.4690   -0.3106 C   0  0  0  0  0  0  0  0  0  0  0  0
   -1.5518   -7.2014   -0.2784 C   0  0  0  0  0  0  0  0  0  0  0  0
   -3.6992   -9.1520   -0.5543 S   0  0  0  0  0  0  0  0  0  0  0  0
   -3.2434  -10.8733   -0.4010 C   0  0  0  0  0  0  0  0  0  0  0  0
   -1.9515  -10.8025   -0.1859 N   0  0  0  0  0  0  0  0  0  0  0  0
   -4.0308  -11.9706   -0.4857 O   0  0  0  0  0  0  0  0  0  0  0  0
   -4.0653   -2.2565    4.7050 H   0  0  0  0  0  0  0  0  0  0  0  0
   -5.0913   -3.0000    5.9551 H   0  0  0  0  0  0  0  0  0  0  0  0
   -3.3197   -3.1374    6.0601 H   0  0  0  0  0  0  0  0  0  0  0  0
   -4.3293   -5.2495    5.2425 H   0  0  0  0  0  0  0  0  0  0  0  0
   -6.3387   -4.2502    4.1878 H   0  0  0  0  0  0  0  0  0  0  0  0
   -5.3127   -3.5066    2.9377 H   0  0  0  0  0  0  0  0  0  0  0  0
   -5.4558   -5.2782    3.0337 H   0  0  0  0  0  0  0  0  0  0  0  0
   -2.4096   -6.3957    4.6983 H   0  0  0  0  0  0  0  0  0  0  0  0
   -0.3315   -6.6392    3.4026 H   0  0  0  0  0  0  0  0  0  0  0  0
   -1.1626   -2.9547    1.3961 H   0  0  0  0  0  0  0  0  0  0  0  0
   -3.2434   -2.7259    2.6902 H   0  0  0  0  0  0  0  0  0  0  0  0
    1.4197   -4.7734    1.9954 H   0  0  0  0  0  0  0  0  0  0  0  0
    1.6650   -8.0082    0.3001 H   0  0  0  0  0  0  0  0  0  0  0  0
    0.7460  -10.2593    0.2453 H   0  0  0  0  0  0  0  0  0  0  0  0
   -2.1920   -6.3439   -0.4242 H   0  0  0  0  0  0  0  0  0  0  0  0
   -4.4070  -12.2510    0.3598 H   0  0  0  0  0  0  0  0  0  0  0  0
  1  2  1  0  0  0  0
  1 24  1  0  0  0  0
  1 25  1  0  0  0  0
  1 26  1  0  0  0  0
  2  3  1  0  0  0  0
  2  4  1  0  0  0  0
  2 27  1  0  0  0  0
  3 28  1  0  0  0  0
  3 29  1  0  0  0  0
  3 30  1  0  0  0  0
  4  9  2  0  0  0  0
  4  5  1  0  0  0  0
  5  6  2  0  0  0  0
  5 31  1  0  0  0  0
  6  7  1  0  0  0  0
  6 32  1  0  0  0  0
  7  8  2  0  0  0  0
  7 10  1  0  0  0  0
  8  9  1  0  0  0  0
  8 33  1  0  0  0  0
  9 34  1  0  0  0  0
 10 11  1  0  0  0  0
 10 35  1  0  0  0  0
 11 12  2  0  0  0  0
 11 13  2  0  0  0  0
 11 14  1  0  0  0  0
 14 19  2  0  0  0  0
 14 15  1  0  0  0  0
 15 16  2  0  0  0  0
 15 36  1  0  0  0  0
 16 17  1  0  0  0  0
 16 37  1  0  0  0  0
 17 22  1  0  0  0  0
 17 18  2  0  0  0  0
 18 19  1  0  0  0  0
 18 20  1  0  0  0  0
 19 38  1  0  0  0  0
 20 21  1  0  0  0  0
 21 22  2  0  0  0  0
 21 23  1  0  0  0  0
 23 39  1  0  0  0  0
M  END
$$$$
ZINC02461461
  -OEChem-08230709453D

 40 42  0     0  0  0  0  0  0999 V2000
   -0.9022   -2.2489   -0.0022 C   0  0  0  0  0  0  0  0  0  0  0  0
   -1.0976   -0.8922    0.0073 C   0  0  0  0  0  0  0  0  0  0  0  0
    0.0021   -0.0041    0.0020 C   0  0  0  0  0  0  0  0  0  0  0  0
    1.2845   -0.5986   -0.0134 C   0  0  0  0  0  0  0  0  0  0  0  0
    1.4707   -1.9580   -0.0229 C   0  0  0  0  0  0  0  0  0  0  0  0
    0.3716   -2.7976   -0.0173 C   0  0  0  0  0  0  0  0  0  0  0  0
    0.5873   -4.5463   -0.0298 S   0  0  0  0  0  0  0  0  0  0  0  0
   -0.6042   -5.0987   -0.5725 O   0  0  0  0  0  0  0  0  0  0  0  0
    1.8677   -4.7935   -0.5945 O   0  0  0  0  0  0  0  0  0  0  0  0
    0.6625   -5.0417    1.5486 N   0  0  0  0  0  0  0  0  0  0  0  0
   -0.5065   -4.8943    2.4190 C   0  0  0  0  0  0  0  0  0  0  0  0
   -0.3165   -5.7448    3.6766 C   0  0  0  0  0  0  0  0  0  0  0  0
   -1.5191   -5.5931    4.5721 C   0  0  0  0  0  0  0  0  0  0  0  0
   -2.4611   -6.4759    4.4779 C   0  0  0  0  0  0  0  0  0  0  0  0
   -3.7201   -6.4524    5.2941 C   0  0  0  0  0  0  0  0  0  0  0  0
   -3.5463   -5.5325    6.5047 C   0  0  0  0  0  0  0  0  0  0  0  0
   -2.9765   -4.1938    6.0189 C   0  0  0  0  0  0  0  0  0  0  0  0
   -1.5472   -4.4315    5.5217 C   0  0  0  0  0  0  0  0  0  0  0  0
    2.3574    0.8176   -0.0161 S   0  0  0  0  0  0  0  0  0  0  0  0
    1.0798    2.0673    0.0029 C   0  0  0  0  0  0  0  0  0  0  0  0
   -0.0162    1.3470    0.0094 N   0  0  0  0  0  0  0  0  0  0  0  0
    1.2102    3.4142    0.0085 O   0  0  0  0  0  0  0  0  0  0  0  0
   -1.7597   -2.9056    0.0021 H   0  0  0  0  0  0  0  0  0  0  0  0
   -2.1028   -0.4974    0.0190 H   0  0  0  0  0  0  0  0  0  0  0  0
    2.4690   -2.3697   -0.0350 H   0  0  0  0  0  0  0  0  0  0  0  0
    1.4806   -5.4295    1.8967 H   0  0  0  0  0  0  0  0  0  0  0  0
   -0.6193   -3.8477    2.7018 H   0  0  0  0  0  0  0  0  0  0  0  0
   -1.3990   -5.2254    1.8880 H   0  0  0  0  0  0  0  0  0  0  0  0
   -0.2037   -6.7914    3.3938 H   0  0  0  0  0  0  0  0  0  0  0  0
    0.5760   -5.4137    4.2077 H   0  0  0  0  0  0  0  0  0  0  0  0
   -2.3328   -7.2796    3.7680 H   0  0  0  0  0  0  0  0  0  0  0  0
   -4.5429   -6.0882    4.6788 H   0  0  0  0  0  0  0  0  0  0  0  0
   -3.9460   -7.4614    5.6391 H   0  0  0  0  0  0  0  0  0  0  0  0
   -4.5126   -5.3680    6.9816 H   0  0  0  0  0  0  0  0  0  0  0  0
   -2.8566   -5.9882    7.2151 H   0  0  0  0  0  0  0  0  0  0  0  0
   -3.5914   -3.8072    5.2062 H   0  0  0  0  0  0  0  0  0  0  0  0
   -2.9662   -3.4796    6.8423 H   0  0  0  0  0  0  0  0  0  0  0  0
   -0.8964   -4.6426    6.3702 H   0  0  0  0  0  0  0  0  0  0  0  0
   -1.1914   -3.5375    5.0097 H   0  0  0  0  0  0  0  0  0  0  0  0
    1.2567    3.8012    0.8934 H   0  0  0  0  0  0  0  0  0  0  0  0
  1  6  2  0  0  0  0
  1  2  1  0  0  0  0
  1 23  1  0  0  0  0
  2  3  2  0  0  0  0
  2 24  1  0  0  0  0
  3 21  1  0  0  0  0
  3  4  1  0  0  0  0
  4  5  2  0  0  0  0
  4 19  1  0  0  0  0
  5  6  1  0  0  0  0
  5 25  1  0  0  0  0
  6  7  1  0  0  0  0
  7  8  2  0  0  0  0
  7  9  2  0  0  0  0
  7 10  1  0  0  0  0
 10 11  1  0  0  0  0
 10 26  1  0  0  0  0
 11 12  1  0  0  0  0
 11 27  1  0  0  0  0
 11 28  1  0  0  0  0
 12 13  1  0  0  0  0
 12 29  1  0  0  0  0
 12 30  1  0  0  0  0
 13 18  1  0  0  0  0
 13 14  2  0  0  0  0
 14 15  1  0  0  0  0
 14 31  1  0  0  0  0
 15 16  1  0  0  0  0
 15 32  1  0  0  0  0
 15 33  1  0  0  0  0
 16 17  1  0  0  0  0
 16 34  1  0  0  0  0
 16 35  1  0  0  0  0
 17 18  1  0  0  0  0
 17 36  1  0  0  0  0
 17 37  1  0  0  0  0
 18 38  1  0  0  0  0
 18 39  1  0  0  0  0
 19 20  1  0  0  0  0
 20 21  2  0  0  0  0
 20 22  1  0  0  0  0
 22 40  1  0  0  0  0
M  END
$$$$
ZINC02464064
  -OEChem-08230709453D

 46 49  0     1  0  0  0  0  0999 V2000
   -4.1879    3.7442    2.3354 C   0  0  0  0  0  0  0  0  0  0  0  0
   -4.2283    2.8572    1.3310 C   0  0  0  0  0  0  0  0  0  0  0  0
   -3.3797    1.6369    1.3161 C   0  0  0  0  0  0  0  0  0  0  0  0
   -3.2845    0.8271    2.3867 C   0  0  0  0  0  0  0  0  0  0  0  0
   -3.9721    1.1152    3.5167 O   0  0  0  0  0  0  0  0  0  0  0  0
   -2.5011   -0.2757    2.3337 O   0  0  0  0  0  0  0  0  0  0  0  0
   -2.5422   -1.1554    3.4590 C   0  0  0  0  0  0  0  0  0  0  0  0
   -1.5747   -0.6548    4.5333 C   0  0  0  0  0  0  0  0  0  0  0  0
   -1.6187   -1.5967    5.7382 C   0  0  0  0  0  0  0  0  0  0  0  0
   -1.2102   -3.0046    5.3002 C   0  0  0  0  0  0  0  0  0  0  0  0
   -2.1778   -3.5052    4.2258 C   0  0  0  0  0  0  0  0  0  0  0  0
   -2.1337   -2.5633    3.0209 C   0  0  0  0  0  0  0  0  0  0  0  0
   -2.6251    1.3502    0.0290 C   0  0  1  0  0  0  0  0  0  0  0  0
   -2.4008    0.2857   -0.0388 H   0  0  0  0  0  0  0  0  0  0  0  0
   -3.4826    1.7488   -1.0877 N   0  0  0  0  0  0  0  0  0  0  0  0
   -4.5908    2.5222   -0.9894 C   0  0  0  0  0  0  0  0  0  0  0  0
   -5.0674    2.6709   -2.1970 N   0  0  0  0  0  0  0  0  0  0  0  0
   -4.3392    2.0327   -3.0463 N   0  0  0  0  0  0  0  0  0  0  0  0
   -3.3575    1.4439   -2.4452 N   0  0  0  0  0  0  0  0  0  0  0  0
   -5.0815    3.0197    0.2129 N   0  0  0  0  0  0  0  0  0  0  0  0
   -1.3449    2.1448   -0.0008 C   0  0  0  0  0  0  0  0  0  0  0  0
   -1.3855    3.5242    0.0776 C   0  0  0  0  0  0  0  0  0  0  0  0
   -0.2117    4.2536    0.0455 C   0  0  0  0  0  0  0  0  0  0  0  0
    1.0043    3.6042   -0.0606 C   0  0  0  0  0  0  0  0  0  0  0  0
    1.0475    2.2251   -0.1347 C   0  0  0  0  0  0  0  0  0  0  0  0
   -0.1277    1.4933   -0.1022 C   0  0  0  0  0  0  0  0  0  0  0  0
   -0.0867    0.1449   -0.1750 F   0  0  0  0  0  0  0  0  0  0  0  0
   -4.8204    4.6192    2.3088 H   0  0  0  0  0  0  0  0  0  0  0  0
   -3.5228    3.5838    3.1711 H   0  0  0  0  0  0  0  0  0  0  0  0
   -3.8996    0.4393    4.2044 H   0  0  0  0  0  0  0  0  0  0  0  0
   -3.5538   -1.1801    3.8641 H   0  0  0  0  0  0  0  0  0  0  0  0
   -0.5631   -0.6301    4.1282 H   0  0  0  0  0  0  0  0  0  0  0  0
   -1.8657    0.3482    4.8454 H   0  0  0  0  0  0  0  0  0  0  0  0
   -2.6303   -1.6214    6.1433 H   0  0  0  0  0  0  0  0  0  0  0  0
   -0.9294   -1.2400    6.5036 H   0  0  0  0  0  0  0  0  0  0  0  0
   -1.2416   -3.6756    6.1585 H   0  0  0  0  0  0  0  0  0  0  0  0
   -0.1986   -2.9799    4.8950 H   0  0  0  0  0  0  0  0  0  0  0  0
   -3.1894   -3.5299    4.6309 H   0  0  0  0  0  0  0  0  0  0  0  0
   -1.8868   -4.5082    3.9137 H   0  0  0  0  0  0  0  0  0  0  0  0
   -2.8230   -2.9200    2.2556 H   0  0  0  0  0  0  0  0  0  0  0  0
   -1.1221   -2.5386    2.6158 H   0  0  0  0  0  0  0  0  0  0  0  0
   -5.9489    3.4484    0.2810 H   0  0  0  0  0  0  0  0  0  0  0  0
   -2.3348    4.0325    0.1601 H   0  0  0  0  0  0  0  0  0  0  0  0
   -0.2446    5.3315    0.1030 H   0  0  0  0  0  0  0  0  0  0  0  0
    1.9207    4.1751   -0.0859 H   0  0  0  0  0  0  0  0  0  0  0  0
    1.9975    1.7181   -0.2182 H   0  0  0  0  0  0  0  0  0  0  0  0
  1  2  2  0  0  0  0
  1 28  1  0  0  0  0
  1 29  1  0  0  0  0
  2 20  1  0  0  0  0
  2  3  1  0  0  0  0
  3  4  2  0  0  0  0
  3 13  1  0  0  0  0
  4  5  1  0  0  0  0
  4  6  1  0  0  0  0
  5 30  1  0  0  0  0
  6  7  1  0  0  0  0
  7 12  1  0  0  0  0
  7  8  1  0  0  0  0
  7 31  1  0  0  0  0
  8  9  1  0  0  0  0
  8 32  1  0  0  0  0
  8 33  1  0  0  0  0
  9 10  1  0  0  0  0
  9 34  1  0  0  0  0
  9 35  1  0  0  0  0
 10 11  1  0  0  0  0
 10 36  1  0  0  0  0
 10 37  1  0  0  0  0
 11 12  1  0  0  0  0
 11 38  1  0  0  0  0
 11 39  1  0  0  0  0
 12 40  1  0  0  0  0
 12 41  1  0  0  0  0
 13 14  1  0  0  0  0
 13 15  1  0  0  0  0
 13 21  1  0  0  0  0
 15 19  1  0  0  0  0
 15 16  1  0  0  0  0
 16 17  2  0  0  0  0
 16 20  1  0  0  0  0
 17 18  1  0  0  0  0
 18 19  2  0  0  0  0
 20 42  1  0  0  0  0
 21 26  2  0  0  0  0
 21 22  1  0  0  0  0
 22 23  2  0  0  0  0
 22 43  1  0  0  0  0
 23 24  1  0  0  0  0
 23 44  1  0  0  0  0
 24 25  2  0  0  0  0
 24 45  1  0  0  0  0
 25 26  1  0  0  0  0
 25 46  1  0  0  0  0
 26 27  1  0  0  0  0
M  END
$$$$
ZINC02479533
  -OEChem-08230709453D

 42 44  0     0  0  0  0  0  0999 V2000
    2.4845   -2.7131    0.6801 C   0  0  0  0  0  0  0  0  0  0  0  0
    2.5067   -4.0910    0.7712 C   0  0  0  0  0  0  0  0  0  0  0  0
    3.5765   -4.8024    0.2570 C   0  0  0  0  0  0  0  0  0  0  0  0
    4.6241   -4.1362   -0.3542 C   0  0  0  0  0  0  0  0  0  0  0  0
    4.6045   -2.7588   -0.4526 C   0  0  0  0  0  0  0  0  0  0  0  0
    3.5321   -2.0423    0.0625 C   0  0  0  0  0  0  0  0  0  0  0  0
    3.5098   -0.6469   -0.0354 N   0  0  0  0  0  0  0  0  0  0  0  0
    2.3078    0.0154   -0.1924 C   0  0  0  0  0  0  0  0  0  0  0  0
    1.1847   -0.6761   -0.3605 N   0  0  0  0  0  0  0  0  0  0  0  0
    0.0280   -0.0388   -0.5112 C   0  0  0  0  0  0  0  0  0  0  0  0
   -0.0059    1.2902   -0.4942 N   0  0  0  0  0  0  0  0  0  0  0  0
    1.1169    1.9816   -0.3261 C   0  0  0  0  0  0  0  0  0  0  0  0
    2.2738    1.3441   -0.1750 N   0  0  0  0  0  0  0  0  0  0  0  0
    1.0817    3.3611   -0.3084 N   0  0  0  0  0  0  0  0  0  0  0  0
    0.2662    3.8583    0.8291 C   0  0  0  0  0  0  0  0  0  0  0  0
    0.7573    5.3170    1.0066 C   0  0  0  0  0  0  0  0  0  0  0  0
    2.2731    5.2083    0.7228 C   0  0  0  0  0  0  0  0  0  0  0  0
    2.4352    3.9234   -0.1102 C   0  0  0  0  0  0  0  0  0  0  0  0
   -1.1377   -0.7567   -0.6857 N   0  0  0  0  0  0  0  0  0  0  0  0
   -1.1003   -2.2211   -0.7044 C   0  0  0  0  0  0  0  0  0  0  0  0
   -2.5155   -2.7648   -0.9109 C   0  0  0  0  0  0  0  0  0  0  0  0
   -2.9888   -2.3821   -2.2038 O   0  0  0  0  0  0  0  0  0  0  0  0
    3.6041   -6.5340    0.3785 Cl  0  0  0  0  0  0  0  0  0  0  0  0
    1.6513   -2.1580    1.0852 H   0  0  0  0  0  0  0  0  0  0  0  0
    1.6904   -4.6134    1.2477 H   0  0  0  0  0  0  0  0  0  0  0  0
    5.4577   -4.6939   -0.7550 H   0  0  0  0  0  0  0  0  0  0  0  0
    5.4222   -2.2393   -0.9301 H   0  0  0  0  0  0  0  0  0  0  0  0
    4.3385   -0.1445    0.0070 H   0  0  0  0  0  0  0  0  0  0  0  0
   -0.7948    3.8372    0.5800 H   0  0  0  0  0  0  0  0  0  0  0  0
    0.4630    3.2740    1.7279 H   0  0  0  0  0  0  0  0  0  0  0  0
    0.5793    5.6627    2.0249 H   0  0  0  0  0  0  0  0  0  0  0  0
    0.2760    5.9766    0.2845 H   0  0  0  0  0  0  0  0  0  0  0  0
    2.8280    5.1259    1.6574 H   0  0  0  0  0  0  0  0  0  0  0  0
    2.6161    6.0732    0.1549 H   0  0  0  0  0  0  0  0  0  0  0  0
    3.0591    3.2089    0.4268 H   0  0  0  0  0  0  0  0  0  0  0  0
    2.8852    4.1572   -1.0751 H   0  0  0  0  0  0  0  0  0  0  0  0
   -1.9818   -0.2916   -0.7960 H   0  0  0  0  0  0  0  0  0  0  0  0
   -0.4593   -2.5578   -1.5191 H   0  0  0  0  0  0  0  0  0  0  0  0
   -0.7054   -2.5866    0.2435 H   0  0  0  0  0  0  0  0  0  0  0  0
   -2.5015   -3.8521   -0.8363 H   0  0  0  0  0  0  0  0  0  0  0  0
   -3.1767   -2.3566   -0.1465 H   0  0  0  0  0  0  0  0  0  0  0  0
   -3.8823   -2.6934   -2.4036 H   0  0  0  0  0  0  0  0  0  0  0  0
  1  6  2  0  0  0  0
  1  2  1  0  0  0  0
  1 24  1  0  0  0  0
  2  3  2  0  0  0  0
  2 25  1  0  0  0  0
  3  4  1  0  0  0  0
  3 23  1  0  0  0  0
  4  5  2  0  0  0  0
  4 26  1  0  0  0  0
  5  6  1  0  0  0  0
  5 27  1  0  0  0  0
  6  7  1  0  0  0  0
  7  8  1  0  0  0  0
  7 28  1  0  0  0  0
  8 13  2  0  0  0  0
  8  9  1  0  0  0  0
  9 10  2  0  0  0  0
 10 11  1  0  0  0  0
 10 19  1  0  0  0  0
 11 12  2  0  0  0  0
 12 13  1  0  0  0  0
 12 14  1  0  0  0  0
 14 18  1  0  0  0  0
 14 15  1  0  0  0  0
 15 16  1  0  0  0  0
 15 29  1  0  0  0  0
 15 30  1  0  0  0  0
 16 17  1  0  0  0  0
 16 31  1  0  0  0  0
 16 32  1  0  0  0  0
 17 18  1  0  0  0  0
 17 33  1  0  0  0  0
 17 34  1  0  0  0  0
 18 35  1  0  0  0  0
 18 36  1  0  0  0  0
 19 20  1  0  0  0  0
 19 37  1  0  0  0  0
 20 21  1  0  0  0  0
 20 38  1  0  0  0  0
 20 39  1  0  0  0  0
 21 22  1  0  0  0  0
 21 40  1  0  0  0  0
 21 41  1  0  0  0  0
 22 42  1  0  0  0  0
M  END
$$$$
ZINC02490472
  -OEChem-08230709453D

 45 47  0     1  0  0  0  0  0999 V2000
    2.0644    5.5524   -2.5265 C   0  0  0  0  0  0  0  0  0  0  0  0
    1.5953    5.0116   -1.2005 C   0  0  0  0  0  0  0  0  0  0  0  0
    1.0578    3.7847   -1.1555 C   0  0  0  0  0  0  0  0  0  0  0  0
    0.5795    3.2015    0.1423 C   0  0  1  0  0  0  0  0  0  0  0  0
   -0.9276    3.1850    0.1923 C   0  0  0  0  0  0  0  0  0  0  0  0
   -1.8814    4.1768    0.1430 C   0  0  0  0  0  0  0  0  0  0  0  0
   -3.2238    3.8487    0.2144 C   0  0  0  0  0  0  0  0  0  0  0  0
   -3.6030    2.5242    0.3349 C   0  0  0  0  0  0  0  0  0  0  0  0
   -2.6501    1.5280    0.3837 C   0  0  0  0  0  0  0  0  0  0  0  0
   -1.2965    1.8496    0.3059 C   0  0  0  0  0  0  0  0  0  0  0  0
   -0.1624    1.0368    0.3395 N   0  0  0  0  0  0  0  0  0  0  0  0
    0.9754    1.7474    0.2442 C   0  0  0  0  0  0  0  0  0  0  0  0
    2.1047    1.3049    0.2407 O   0  0  0  0  0  0  0  0  0  0  0  0
    1.1352    3.9761    1.3028 C   0  0  0  0  0  0  0  0  0  0  0  0
    1.6766    5.2085    1.1112 C   0  0  0  0  0  0  0  0  0  0  0  0
    1.7304    5.7742   -0.1058 O   0  0  0  0  0  0  0  0  0  0  0  0
    2.1795    5.8906    2.1865 N   0  0  0  0  0  0  0  0  0  0  0  0
    1.0949    3.4248    2.5928 C   0  0  0  0  0  0  0  0  0  0  0  0
    1.6139    4.0146    3.5236 O   0  0  0  0  0  0  0  0  0  0  0  0
    0.4805    2.2404    2.8021 O   0  0  0  0  0  0  0  0  0  0  0  0
    0.4776    1.7386    4.1401 C   0  0  0  0  0  0  0  0  0  0  0  0
   -0.2472    0.4180    4.1797 C   0  0  0  0  0  0  0  0  0  0  0  0
    0.2627   -0.5894    4.8440 C   0  0  0  0  0  0  0  0  0  0  0  0
    0.9390    3.0289   -2.3479 C   0  0  0  0  0  0  0  0  0  0  0  0
   -0.1381    2.9386   -2.9061 O   0  0  0  0  0  0  0  0  0  0  0  0
    2.0205    2.4094   -2.8644 O   0  0  0  0  0  0  0  0  0  0  0  0
    1.8281    1.6647   -4.0688 C   0  0  0  0  0  0  0  0  0  0  0  0
    1.2661    6.1374   -2.9833 H   0  0  0  0  0  0  0  0  0  0  0  0
    2.9371    6.1870   -2.3719 H   0  0  0  0  0  0  0  0  0  0  0  0
    2.3294    4.7240   -3.1835 H   0  0  0  0  0  0  0  0  0  0  0  0
   -1.5819    5.2102    0.0491 H   0  0  0  0  0  0  0  0  0  0  0  0
   -3.9736    4.6251    0.1765 H   0  0  0  0  0  0  0  0  0  0  0  0
   -4.6508    2.2684    0.3908 H   0  0  0  0  0  0  0  0  0  0  0  0
   -2.9541    0.4959    0.4774 H   0  0  0  0  0  0  0  0  0  0  0  0
   -0.1916    0.0704    0.4184 H   0  0  0  0  0  0  0  0  0  0  0  0
    2.0479    6.8490    2.2577 H   0  0  0  0  0  0  0  0  0  0  0  0
    2.6675    5.4155    2.8772 H   0  0  0  0  0  0  0  0  0  0  0  0
    1.5045    1.5997    4.4783 H   0  0  0  0  0  0  0  0  0  0  0  0
   -0.0272    2.4499    4.7938 H   0  0  0  0  0  0  0  0  0  0  0  0
   -1.1871    0.3020    3.6605 H   0  0  0  0  0  0  0  0  0  0  0  0
   -0.2568   -1.5359    4.8724 H   0  0  0  0  0  0  0  0  0  0  0  0
    1.2025   -0.4735    5.3632 H   0  0  0  0  0  0  0  0  0  0  0  0
    2.7742    1.2186   -4.3753 H   0  0  0  0  0  0  0  0  0  0  0  0
    1.0943    0.8775   -3.8959 H   0  0  0  0  0  0  0  0  0  0  0  0
    1.4689    2.3301   -4.8539 H   0  0  0  0  0  0  0  0  0  0  0  0
  1  2  1  0  0  0  0
  1 28  1  0  0  0  0
  1 29  1  0  0  0  0
  1 30  1  0  0  0  0
  2 16  1  0  0  0  0
  2  3  2  0  0  0  0
  3  4  1  0  0  0  0
  3 24  1  0  0  0  0
  4 12  1  0  0  0  0
  4  5  1  0  0  0  0
  4 14  1  0  0  0  0
  5 10  2  0  0  0  0
  5  6  1  0  0  0  0
  6  7  2  0  0  0  0
  6 31  1  0  0  0  0
  7  8  1  0  0  0  0
  7 32  1  0  0  0  0
  8  9  2  0  0  0  0
  8 33  1  0  0  0  0
  9 10  1  0  0  0  0
  9 34  1  0  0  0  0
 10 11  1  0  0  0  0
 11 12  1  0  0  0  0
 11 35  1  0  0  0  0
 12 13  2  0  0  0  0
 14 15  2  0  0  0  0
 14 18  1  0  0  0  0
 15 16  1  0  0  0  0
 15 17  1  0  0  0  0
 17 36  1  0  0  0  0
 17 37  1  0  0  0  0
 18 19  2  0  0  0  0
 18 20  1  0  0  0  0
 20 21  1  0  0  0  0
 21 22  1  0  0  0  0
 21 38  1  0  0  0  0
 21 39  1  0  0  0  0
 22 23  2  0  0  0  0
 22 40  1  0  0  0  0
 23 41  1  0  0  0  0
 23 42  1  0  0  0  0
 24 25  2  0  0  0  0
 24 26  1  0  0  0  0
 26 27  1  0  0  0  0
 27 43  1  0  0  0  0
 27 44  1  0  0  0  0
 27 45  1  0  0  0  0
M  END
$$$$
ZINC02490475
  -OEChem-08230709453D

 45 47  0     1  0  0  0  0  0999 V2000
    0.5666    0.0612   -0.0167 C   0  0  0  0  0  0  0  0  0  0  0  0
    0.2515    1.5348    0.0012 C   0  0  0  0  0  0  0  0  0  0  0  0
    1.2621    2.4130   -0.0573 C   0  0  0  0  0  0  0  0  0  0  0  0
    1.0000    3.8910   -0.0392 C   0  0  2  0  0  0  0  0  0  0  0  0
    1.2380    4.4879   -1.4033 C   0  0  0  0  0  0  0  0  0  0  0  0
    0.6604    4.2789   -2.6357 C   0  0  0  0  0  0  0  0  0  0  0  0
    1.1008    4.9940   -3.7356 C   0  0  0  0  0  0  0  0  0  0  0  0
    2.1207    5.9171   -3.5929 C   0  0  0  0  0  0  0  0  0  0  0  0
    2.7010    6.1295   -2.3598 C   0  0  0  0  0  0  0  0  0  0  0  0
    2.2629    5.4139   -1.2474 C   0  0  0  0  0  0  0  0  0  0  0  0
    2.6831    5.4491    0.0833 N   0  0  0  0  0  0  0  0  0  0  0  0
    1.9958    4.5898    0.8564 C   0  0  0  0  0  0  0  0  0  0  0  0
    2.1467    4.4100    2.0463 O   0  0  0  0  0  0  0  0  0  0  0  0
   -0.4017    4.1706    0.4213 C   0  0  0  0  0  0  0  0  0  0  0  0
   -1.3274    3.1753    0.4535 C   0  0  0  0  0  0  0  0  0  0  0  0
   -1.0304    1.9217    0.0695 O   0  0  0  0  0  0  0  0  0  0  0  0
   -2.5961    3.4585    0.8835 N   0  0  0  0  0  0  0  0  0  0  0  0
   -0.7584    5.4676    0.8214 C   0  0  0  0  0  0  0  0  0  0  0  0
   -1.8683    5.6813    1.2755 O   0  0  0  0  0  0  0  0  0  0  0  0
    0.1290    6.4789    0.7029 O   0  0  0  0  0  0  0  0  0  0  0  0
   -0.3014    7.7730    1.1296 C   0  0  0  0  0  0  0  0  0  0  0  0
    0.8130    8.7663    0.9236 C   0  0  0  0  0  0  0  0  0  0  0  0
    0.5586    9.9345    0.3882 C   0  0  0  0  0  0  0  0  0  0  0  0
    2.5953    1.9403   -0.1367 C   0  0  0  0  0  0  0  0  0  0  0  0
    2.8122    0.7497   -0.2605 O   0  0  0  0  0  0  0  0  0  0  0  0
    3.6244    2.8107   -0.0751 O   0  0  0  0  0  0  0  0  0  0  0  0
    4.9420    2.2645   -0.1616 C   0  0  0  0  0  0  0  0  0  0  0  0
    1.2528   -0.1735    0.7970 H   0  0  0  0  0  0  0  0  0  0  0  0
   -0.3541   -0.5087    0.1087 H   0  0  0  0  0  0  0  0  0  0  0  0
    1.0288   -0.2000   -0.9686 H   0  0  0  0  0  0  0  0  0  0  0  0
   -0.1361    3.5576   -2.7437 H   0  0  0  0  0  0  0  0  0  0  0  0
    0.6488    4.8318   -4.7030 H   0  0  0  0  0  0  0  0  0  0  0  0
    2.4644    6.4748   -4.4515 H   0  0  0  0  0  0  0  0  0  0  0  0
    3.4965    6.8526   -2.2561 H   0  0  0  0  0  0  0  0  0  0  0  0
    3.3890    6.0272    0.4125 H   0  0  0  0  0  0  0  0  0  0  0  0
   -3.3574    3.0255    0.4667 H   0  0  0  0  0  0  0  0  0  0  0  0
   -2.7335    4.0922    1.6049 H   0  0  0  0  0  0  0  0  0  0  0  0
   -1.1713    8.0769    0.5473 H   0  0  0  0  0  0  0  0  0  0  0  0
   -0.5660    7.7377    2.1865 H   0  0  0  0  0  0  0  0  0  0  0  0
    1.8215    8.5150    1.2174 H   0  0  0  0  0  0  0  0  0  0  0  0
    1.3572   10.6463    0.2405 H   0  0  0  0  0  0  0  0  0  0  0  0
   -0.4499   10.1857    0.0944 H   0  0  0  0  0  0  0  0  0  0  0  0
    5.1002    1.5654    0.6597 H   0  0  0  0  0  0  0  0  0  0  0  0
    5.0571    1.7416   -1.1110 H   0  0  0  0  0  0  0  0  0  0  0  0
    5.6740    3.0698   -0.0992 H   0  0  0  0  0  0  0  0  0  0  0  0
  1  2  1  0  0  0  0
  1 28  1  0  0  0  0
  1 29  1  0  0  0  0
  1 30  1  0  0  0  0
  2 16  1  0  0  0  0
  2  3  2  0  0  0  0
  3  4  1  0  0  0  0
  3 24  1  0  0  0  0
  4 12  1  0  0  0  0
  4  5  1  0  0  0  0
  4 14  1  0  0  0  0
  5 10  2  0  0  0  0
  5  6  1  0  0  0  0
  6  7  2  0  0  0  0
  6 31  1  0  0  0  0
  7  8  1  0  0  0  0
  7 32  1  0  0  0  0
  8  9  2  0  0  0  0
  8 33  1  0  0  0  0
  9 10  1  0  0  0  0
  9 34  1  0  0  0  0
 10 11  1  0  0  0  0
 11 12  1  0  0  0  0
 11 35  1  0  0  0  0
 12 13  2  0  0  0  0
 14 15  2  0  0  0  0
 14 18  1  0  0  0  0
 15 16  1  0  0  0  0
 15 17  1  0  0  0  0
 17 36  1  0  0  0  0
 17 37  1  0  0  0  0
 18 19  2  0  0  0  0
 18 20  1  0  0  0  0
 20 21  1  0  0  0  0
 21 22  1  0  0  0  0
 21 38  1  0  0  0  0
 21 39  1  0  0  0  0
 22 23  2  0  0  0  0
 22 40  1  0  0  0  0
 23 41  1  0  0  0  0
 23 42  1  0  0  0  0
 24 25  2  0  0  0  0
 24 26  1  0  0  0  0
 26 27  1  0  0  0  0
 27 43  1  0  0  0  0
 27 44  1  0  0  0  0
 27 45  1  0  0  0  0
M  END
$$$$
ZINC02495376
  -OEChem-08230709453D

 43 45  0     0  0  0  0  0  0999 V2000
   -0.5571   -3.0505   -1.2950 C   0  0  0  0  0  0  0  0  0  0  0  0
   -0.0275   -2.7074    0.0988 C   0  0  0  0  0  0  0  0  0  0  0  0
    0.1516   -3.9939    0.9073 C   0  0  0  0  0  0  0  0  0  0  0  0
    1.2309   -2.0408   -0.0206 O   0  0  0  0  0  0  0  0  0  0  0  0
    1.2006   -0.6971   -0.2271 C   0  0  0  0  0  0  0  0  0  0  0  0
   -0.0118   -0.0529   -0.4240 C   0  0  0  0  0  0  0  0  0  0  0  0
   -0.0425    1.3121   -0.6338 C   0  0  0  0  0  0  0  0  0  0  0  0
    1.1390    2.0384   -0.6475 C   0  0  0  0  0  0  0  0  0  0  0  0
    2.3513    1.3943   -0.4501 C   0  0  0  0  0  0  0  0  0  0  0  0
    2.3821    0.0293   -0.2403 C   0  0  0  0  0  0  0  0  0  0  0  0
    1.1087    3.3820   -0.8544 O   0  0  0  0  0  0  0  0  0  0  0  0
    2.3631    4.0666   -0.8558 C   0  0  0  0  0  0  0  0  0  0  0  0
    2.1296    5.5585   -1.1020 C   0  0  0  0  0  0  0  0  0  0  0  0
    3.7184    6.4257   -1.1037 S   0  0  0  0  0  0  0  0  0  0  0  0
    3.1675    8.0730   -1.3995 C   0  0  0  0  0  0  0  0  0  0  0  0
    3.9802    9.1700   -1.4943 N   0  0  0  0  0  0  0  0  0  0  0  0
    4.9763    9.1781   -1.4068 H   0  0  0  0  0  0  0  0  0  0  0  0
    3.1744   10.2598   -1.7321 C   0  0  0  0  0  0  0  0  0  0  0  0
    1.8575    9.7726   -1.7652 C   0  0  0  0  0  0  0  0  0  0  0  0
    1.9173    8.4334   -1.5564 N   0  0  0  0  0  0  0  0  0  0  0  0
    0.8170   10.6884   -1.9896 C   0  0  0  0  0  0  0  0  0  0  0  0
    1.1262   11.9699   -2.1595 N   0  0  0  0  0  0  0  0  0  0  0  0
    2.3801   12.3814   -2.1200 C   0  0  0  0  0  0  0  0  0  0  0  0
    3.3872   11.5585   -1.9125 N   0  0  0  0  0  0  0  0  0  0  0  0
   -0.5021   10.2659   -2.0323 N   0  0  0  0  0  0  0  0  0  0  0  0
    0.1529   -3.7030   -1.8031 H   0  0  0  0  0  0  0  0  0  0  0  0
   -1.5170   -3.5589   -1.2040 H   0  0  0  0  0  0  0  0  0  0  0  0
   -0.6846   -2.1339   -1.8710 H   0  0  0  0  0  0  0  0  0  0  0  0
   -0.7375   -2.0548    0.6068 H   0  0  0  0  0  0  0  0  0  0  0  0
    0.5289   -3.7494    1.9002 H   0  0  0  0  0  0  0  0  0  0  0  0
   -0.8083   -4.5023    0.9983 H   0  0  0  0  0  0  0  0  0  0  0  0
    0.8616   -4.6464    0.3993 H   0  0  0  0  0  0  0  0  0  0  0  0
   -0.9317   -0.6185   -0.4138 H   0  0  0  0  0  0  0  0  0  0  0  0
   -0.9862    1.8130   -0.7916 H   0  0  0  0  0  0  0  0  0  0  0  0
    3.2713    1.9598   -0.4607 H   0  0  0  0  0  0  0  0  0  0  0  0
    3.3261   -0.4722   -0.0863 H   0  0  0  0  0  0  0  0  0  0  0  0
    2.8528    3.9297    0.1083 H   0  0  0  0  0  0  0  0  0  0  0  0
    2.9965    3.6628   -1.6456 H   0  0  0  0  0  0  0  0  0  0  0  0
    1.6399    5.6954   -2.0661 H   0  0  0  0  0  0  0  0  0  0  0  0
    1.4961    5.9623   -0.3121 H   0  0  0  0  0  0  0  0  0  0  0  0
    2.5875   13.4316   -2.2627 H   0  0  0  0  0  0  0  0  0  0  0  0
   -0.6145    9.5981   -2.7681 H   0  0  0  0  0  0  0  0  0  0  0  0
   -1.2123   10.9080   -2.1881 H   0  0  0  0  0  0  0  0  0  0  0  0
  1  2  1  0  0  0  0
  1 26  1  0  0  0  0
  1 27  1  0  0  0  0
  1 28  1  0  0  0  0
  2  3  1  0  0  0  0
  2  4  1  0  0  0  0
  2 29  1  0  0  0  0
  3 30  1  0  0  0  0
  3 31  1  0  0  0  0
  3 32  1  0  0  0  0
  4  5  1  0  0  0  0
  5 10  2  0  0  0  0
  5  6  1  0  0  0  0
  6  7  2  0  0  0  0
  6 33  1  0  0  0  0
  7  8  1  0  0  0  0
  7 34  1  0  0  0  0
  8  9  2  0  0  0  0
  8 11  1  0  0  0  0
  9 10  1  0  0  0  0
  9 35  1  0  0  0  0
 10 36  1  0  0  0  0
 11 12  1  0  0  0  0
 12 13  1  0  0  0  0
 12 37  1  0  0  0  0
 12 38  1  0  0  0  0
 13 14  1  0  0  0  0
 13 39  1  0  0  0  0
 13 40  1  0  0  0  0
 14 15  1  0  0  0  0
 15 20  2  0  0  0  0
 15 16  1  0  0  0  0
 16 17  1  0  0  0  0
 16 18  1  0  0  0  0
 18 24  2  0  0  0  0
 18 19  1  0  0  0  0
 19 20  1  0  0  0  0
 19 21  2  0  0  0  0
 21 22  1  0  0  0  0
 21 25  1  0  0  0  0
 22 23  2  0  0  0  0
 23 24  1  0  0  0  0
 23 41  1  0  0  0  0
 25 42  1  0  0  0  0
 25 43  1  0  0  0  0
M  END
$$$$
ZINC02502638
  -OEChem-08230709453D

 43 45  0     1  0  0  0  0  0999 V2000
    3.6947    6.7214   -6.7670 C   0  0  0  0  0  0  0  0  0  0  0  0
    3.5343    6.3059   -5.3033 C   0  0  0  0  0  0  0  0  0  0  0  0
    2.3699    5.4891   -5.1649 O   0  0  0  0  0  0  0  0  0  0  0  0
    2.0811    5.0320   -3.9170 C   0  0  0  0  0  0  0  0  0  0  0  0
    2.9006    5.3626   -2.8497 C   0  0  0  0  0  0  0  0  0  0  0  0
    2.6051    4.8972   -1.5812 C   0  0  0  0  0  0  0  0  0  0  0  0
    1.4926    4.1014   -1.3752 C   0  0  0  0  0  0  0  0  0  0  0  0
    0.6744    3.7640   -2.4372 C   0  0  0  0  0  0  0  0  0  0  0  0
    0.9619    4.2318   -3.7094 C   0  0  0  0  0  0  0  0  0  0  0  0
    0.1550    3.9044   -4.7542 O   0  0  0  0  0  0  0  0  0  0  0  0
   -0.9760    3.0796   -4.4668 C   0  0  0  0  0  0  0  0  0  0  0  0
    1.1753    3.5959    0.0086 C   0  0  2  0  0  0  0  0  0  0  0  0
    1.9322    3.9545    0.7063 H   0  0  0  0  0  0  0  0  0  0  0  0
    1.1764    2.0901    0.0021 C   0  0  0  0  0  0  0  0  0  0  0  0
    2.3817    1.4107   -0.0122 C   0  0  0  0  0  0  0  0  0  0  0  0
    2.4021    0.0301   -0.0199 C   0  0  0  0  0  0  0  0  0  0  0  0
    1.2104   -0.6813   -0.0130 C   0  0  0  0  0  0  0  0  0  0  0  0
    0.0021   -0.0041    0.0020 C   0  0  0  0  0  0  0  0  0  0  0  0
   -0.0168    1.3848    0.0097 C   0  0  0  0  0  0  0  0  0  0  0  0
   -1.2076    2.0328    0.0302 O   0  0  0  0  0  0  0  0  0  0  0  0
   -1.2669    3.3171    0.4151 C   0  0  0  0  0  0  0  0  0  0  0  0
   -0.1712    4.1126    0.4307 C   0  0  0  0  0  0  0  0  0  0  0  0
   -0.2983    5.4735    0.8576 C   0  0  0  0  0  0  0  0  0  0  0  0
   -0.3991    6.5532    1.1963 N   0  0  0  0  0  0  0  0  0  0  0  0
   -2.4739    3.8382    0.8098 N   0  0  0  0  0  0  0  0  0  0  0  0
    1.2288   -2.0401   -0.0204 O   0  0  0  0  0  0  0  0  0  0  0  0
    3.7245    5.3493   -0.1257 Br  0  0  0  0  0  0  0  0  0  0  0  0
    2.8165    7.2841   -7.0833 H   0  0  0  0  0  0  0  0  0  0  0  0
    4.5829    7.3444   -6.8726 H   0  0  0  0  0  0  0  0  0  0  0  0
    3.7992    5.8316   -7.3879 H   0  0  0  0  0  0  0  0  0  0  0  0
    3.4299    7.1956   -4.6824 H   0  0  0  0  0  0  0  0  0  0  0  0
    4.4126    5.7431   -4.9870 H   0  0  0  0  0  0  0  0  0  0  0  0
    3.7697    5.9838   -3.0083 H   0  0  0  0  0  0  0  0  0  0  0  0
   -0.1913    3.1391   -2.2745 H   0  0  0  0  0  0  0  0  0  0  0  0
   -0.6374    2.1311   -4.0499 H   0  0  0  0  0  0  0  0  0  0  0  0
   -1.6199    3.5841   -3.7464 H   0  0  0  0  0  0  0  0  0  0  0  0
   -1.5334    2.8945   -5.3851 H   0  0  0  0  0  0  0  0  0  0  0  0
    3.3101    1.9624   -0.0173 H   0  0  0  0  0  0  0  0  0  0  0  0
    3.3452   -0.4961   -0.0316 H   0  0  0  0  0  0  0  0  0  0  0  0
   -0.9260   -0.5564    0.0074 H   0  0  0  0  0  0  0  0  0  0  0  0
   -2.5328    4.7636    1.0944 H   0  0  0  0  0  0  0  0  0  0  0  0
   -3.2679    3.2810    0.8042 H   0  0  0  0  0  0  0  0  0  0  0  0
    1.2259   -2.4287   -0.9059 H   0  0  0  0  0  0  0  0  0  0  0  0
  1  2  1  0  0  0  0
  1 28  1  0  0  0  0
  1 29  1  0  0  0  0
  1 30  1  0  0  0  0
  2  3  1  0  0  0  0
  2 31  1  0  0  0  0
  2 32  1  0  0  0  0
  3  4  1  0  0  0  0
  4  9  2  0  0  0  0
  4  5  1  0  0  0  0
  5  6  2  0  0  0  0
  5 33  1  0  0  0  0
  6  7  1  0  0  0  0
  6 27  1  0  0  0  0
  7  8  2  0  0  0  0
  7 12  1  0  0  0  0
  8  9  1  0  0  0  0
  8 34  1  0  0  0  0
  9 10  1  0  0  0  0
 10 11  1  0  0  0  0
 11 35  1  0  0  0  0
 11 36  1  0  0  0  0
 11 37  1  0  0  0  0
 12 13  1  0  0  0  0
 12 22  1  0  0  0  0
 12 14  1  0  0  0  0
 14 19  2  0  0  0  0
 14 15  1  0  0  0  0
 15 16  2  0  0  0  0
 15 38  1  0  0  0  0
 16 17  1  0  0  0  0
 16 39  1  0  0  0  0
 17 18  2  0  0  0  0
 17 26  1  0  0  0  0
 18 19  1  0  0  0  0
 18 40  1  0  0  0  0
 19 20  1  0  0  0  0
 20 21  1  0  0  0  0
 21 22  2  0  0  0  0
 21 25  1  0  0  0  0
 22 23  1  0  0  0  0
 23 24  3  0  0  0  0
 25 41  1  0  0  0  0
 25 42  1  0  0  0  0
 26 43  1  0  0  0  0
M  END
$$$$
ZINC02502645
  -OEChem-08230709453D

 40 42  0     1  0  0  0  0  0999 V2000
   -0.9771    3.0810   -4.4664 C   0  0  0  0  0  0  0  0  0  0  0  0
    0.1538    3.9059   -4.7539 O   0  0  0  0  0  0  0  0  0  0  0  0
    0.9613    4.2325   -3.7092 C   0  0  0  0  0  0  0  0  0  0  0  0
    0.6744    3.7641   -2.4372 C   0  0  0  0  0  0  0  0  0  0  0  0
    1.4926    4.1014   -1.3752 C   0  0  0  0  0  0  0  0  0  0  0  0
    2.6053    4.8974   -1.5812 C   0  0  0  0  0  0  0  0  0  0  0  0
    2.9004    5.3631   -2.8500 C   0  0  0  0  0  0  0  0  0  0  0  0
    2.0806    5.0328   -3.9171 C   0  0  0  0  0  0  0  0  0  0  0  0
    2.3689    5.4901   -5.1649 O   0  0  0  0  0  0  0  0  0  0  0  0
    3.5332    6.3069   -5.3035 C   0  0  0  0  0  0  0  0  0  0  0  0
    3.6333    5.3120   -0.2452 Cl  0  0  0  0  0  0  0  0  0  0  0  0
    1.1753    3.5959    0.0086 C   0  0  2  0  0  0  0  0  0  0  0  0
    1.9322    3.9545    0.7063 H   0  0  0  0  0  0  0  0  0  0  0  0
    1.1764    2.0901    0.0021 C   0  0  0  0  0  0  0  0  0  0  0  0
    2.3817    1.4107   -0.0122 C   0  0  0  0  0  0  0  0  0  0  0  0
    2.4021    0.0301   -0.0199 C   0  0  0  0  0  0  0  0  0  0  0  0
    1.2104   -0.6813   -0.0130 C   0  0  0  0  0  0  0  0  0  0  0  0
    0.0021   -0.0041    0.0020 C   0  0  0  0  0  0  0  0  0  0  0  0
   -0.0168    1.3848    0.0097 C   0  0  0  0  0  0  0  0  0  0  0  0
   -1.2076    2.0328    0.0302 O   0  0  0  0  0  0  0  0  0  0  0  0
   -1.2669    3.3171    0.4151 C   0  0  0  0  0  0  0  0  0  0  0  0
   -0.1712    4.1126    0.4307 C   0  0  0  0  0  0  0  0  0  0  0  0
   -0.2983    5.4735    0.8576 C   0  0  0  0  0  0  0  0  0  0  0  0
   -0.3991    6.5532    1.1963 N   0  0  0  0  0  0  0  0  0  0  0  0
   -2.4739    3.8382    0.8098 N   0  0  0  0  0  0  0  0  0  0  0  0
    1.2288   -2.0401   -0.0204 O   0  0  0  0  0  0  0  0  0  0  0  0
   -1.5350    2.8966   -5.3845 H   0  0  0  0  0  0  0  0  0  0  0  0
   -0.6384    2.1323   -4.0502 H   0  0  0  0  0  0  0  0  0  0  0  0
   -1.6205    3.5851   -3.7453 H   0  0  0  0  0  0  0  0  0  0  0  0
   -0.1912    3.1389   -2.2746 H   0  0  0  0  0  0  0  0  0  0  0  0
    3.7695    5.9844   -3.0087 H   0  0  0  0  0  0  0  0  0  0  0  0
    3.6472    6.6031   -6.3463 H   0  0  0  0  0  0  0  0  0  0  0  0
    3.4291    7.1965   -4.6824 H   0  0  0  0  0  0  0  0  0  0  0  0
    4.4116    5.7440   -4.9877 H   0  0  0  0  0  0  0  0  0  0  0  0
    3.3101    1.9624   -0.0173 H   0  0  0  0  0  0  0  0  0  0  0  0
    3.3452   -0.4961   -0.0316 H   0  0  0  0  0  0  0  0  0  0  0  0
   -0.9260   -0.5564    0.0074 H   0  0  0  0  0  0  0  0  0  0  0  0
   -2.5328    4.7636    1.0944 H   0  0  0  0  0  0  0  0  0  0  0  0
   -3.2679    3.2810    0.8042 H   0  0  0  0  0  0  0  0  0  0  0  0
    1.2259   -2.4287   -0.9059 H   0  0  0  0  0  0  0  0  0  0  0  0
  1  2  1  0  0  0  0
  1 27  1  0  0  0  0
  1 28  1  0  0  0  0
  1 29  1  0  0  0  0
  2  3  1  0  0  0  0
  3  8  2  0  0  0  0
  3  4  1  0  0  0  0
  4  5  2  0  0  0  0
  4 30  1  0  0  0  0
  5  6  1  0  0  0  0
  5 12  1  0  0  0  0
  6  7  2  0  0  0  0
  6 11  1  0  0  0  0
  7  8  1  0  0  0  0
  7 31  1  0  0  0  0
  8  9  1  0  0  0  0
  9 10  1  0  0  0  0
 10 32  1  0  0  0  0
 10 33  1  0  0  0  0
 10 34  1  0  0  0  0
 12 13  1  0  0  0  0
 12 22  1  0  0  0  0
 12 14  1  0  0  0  0
 14 19  2  0  0  0  0
 14 15  1  0  0  0  0
 15 16  2  0  0  0  0
 15 35  1  0  0  0  0
 16 17  1  0  0  0  0
 16 36  1  0  0  0  0
 17 18  2  0  0  0  0
 17 26  1  0  0  0  0
 18 19  1  0  0  0  0
 18 37  1  0  0  0  0
 19 20  1  0  0  0  0
 20 21  1  0  0  0  0
 21 22  2  0  0  0  0
 21 25  1  0  0  0  0
 22 23  1  0  0  0  0
 23 24  3  0  0  0  0
 25 38  1  0  0  0  0
 25 39  1  0  0  0  0
 26 40  1  0  0  0  0
M  END
$$$$
ZINC02502658
  -OEChem-08230709453D

 40 42  0     1  0  0  0  0  0999 V2000
    2.5252   -2.6672   -0.0368 C   0  0  0  0  0  0  0  0  0  0  0  0
    1.2412   -2.0403   -0.0212 O   0  0  0  0  0  0  0  0  0  0  0  0
    1.2180   -0.6805   -0.0132 C   0  0  0  0  0  0  0  0  0  0  0  0
    2.4052    0.0340   -0.0207 C   0  0  0  0  0  0  0  0  0  0  0  0
    2.3803    1.4162   -0.0131 C   0  0  0  0  0  0  0  0  0  0  0  0
    1.1717    2.0890    0.0021 C   0  0  0  0  0  0  0  0  0  0  0  0
   -0.0167    1.3814    0.0096 C   0  0  0  0  0  0  0  0  0  0  0  0
    0.0021   -0.0041    0.0020 C   0  0  0  0  0  0  0  0  0  0  0  0
   -1.1655   -0.7014    0.0099 O   0  0  0  0  0  0  0  0  0  0  0  0
   -2.3752    0.0591    0.0260 C   0  0  0  0  0  0  0  0  0  0  0  0
    1.1443    3.9798    0.0125 Br  0  0  0  0  0  0  0  0  0  0  0  0
    3.6725    2.1915   -0.0207 C   0  0  1  0  0  0  0  0  0  0  0  0
    3.4530    3.2592   -0.0186 H   0  0  0  0  0  0  0  0  0  0  0  0
    4.4685    1.8466    1.2101 C   0  0  0  0  0  0  0  0  0  0  0  0
    4.1034    2.3878    2.4302 C   0  0  0  0  0  0  0  0  0  0  0  0
    4.8214    2.0828    3.5694 C   0  0  0  0  0  0  0  0  0  0  0  0
    5.9139    1.2301    3.4933 C   0  0  0  0  0  0  0  0  0  0  0  0
    6.2820    0.6876    2.2736 C   0  0  0  0  0  0  0  0  0  0  0  0
    5.5588    0.9952    1.1283 C   0  0  0  0  0  0  0  0  0  0  0  0
    5.9325    0.4554   -0.0580 O   0  0  0  0  0  0  0  0  0  0  0  0
    5.5190    1.0130   -1.2081 C   0  0  0  0  0  0  0  0  0  0  0  0
    4.4529    1.8463   -1.2578 C   0  0  0  0  0  0  0  0  0  0  0  0
    4.0613    2.4103   -2.5145 C   0  0  0  0  0  0  0  0  0  0  0  0
    3.7507    2.8578   -3.5113 N   0  0  0  0  0  0  0  0  0  0  0  0
    6.1977    0.7301   -2.3671 N   0  0  0  0  0  0  0  0  0  0  0  0
    6.6213    0.9286    4.6138 O   0  0  0  0  0  0  0  0  0  0  0  0
    3.0855   -2.3700    0.8497 H   0  0  0  0  0  0  0  0  0  0  0  0
    2.4008   -3.7501   -0.0418 H   0  0  0  0  0  0  0  0  0  0  0  0
    3.0688   -2.3598   -0.9302 H   0  0  0  0  0  0  0  0  0  0  0  0
    3.3500   -0.4889   -0.0329 H   0  0  0  0  0  0  0  0  0  0  0  0
   -0.9592    1.9087    0.0170 H   0  0  0  0  0  0  0  0  0  0  0  0
   -2.4182    0.6922   -0.8602 H   0  0  0  0  0  0  0  0  0  0  0  0
   -3.2297   -0.6176    0.0308 H   0  0  0  0  0  0  0  0  0  0  0  0
   -2.4005    0.6827    0.9196 H   0  0  0  0  0  0  0  0  0  0  0  0
    3.2536    3.0515    2.4915 H   0  0  0  0  0  0  0  0  0  0  0  0
    4.5333    2.5080    4.5195 H   0  0  0  0  0  0  0  0  0  0  0  0
    7.1321    0.0243    2.2131 H   0  0  0  0  0  0  0  0  0  0  0  0
    5.9115    1.1252   -3.2055 H   0  0  0  0  0  0  0  0  0  0  0  0
    6.9634    0.1350   -2.3478 H   0  0  0  0  0  0  0  0  0  0  0  0
    6.2966    0.1499    5.0862 H   0  0  0  0  0  0  0  0  0  0  0  0
  1  2  1  0  0  0  0
  1 27  1  0  0  0  0
  1 28  1  0  0  0  0
  1 29  1  0  0  0  0
  2  3  1  0  0  0  0
  3  8  2  0  0  0  0
  3  4  1  0  0  0  0
  4  5  2  0  0  0  0
  4 30  1  0  0  0  0
  5  6  1  0  0  0  0
  5 12  1  0  0  0  0
  6  7  2  0  0  0  0
  6 11  1  0  0  0  0
  7  8  1  0  0  0  0
  7 31  1  0  0  0  0
  8  9  1  0  0  0  0
  9 10  1  0  0  0  0
 10 32  1  0  0  0  0
 10 33  1  0  0  0  0
 10 34  1  0  0  0  0
 12 13  1  0  0  0  0
 12 22  1  0  0  0  0
 12 14  1  0  0  0  0
 14 19  2  0  0  0  0
 14 15  1  0  0  0  0
 15 16  2  0  0  0  0
 15 35  1  0  0  0  0
 16 17  1  0  0  0  0
 16 36  1  0  0  0  0
 17 18  2  0  0  0  0
 17 26  1  0  0  0  0
 18 19  1  0  0  0  0
 18 37  1  0  0  0  0
 19 20  1  0  0  0  0
 20 21  1  0  0  0  0
 21 22  2  0  0  0  0
 21 25  1  0  0  0  0
 22 23  1  0  0  0  0
 23 24  3  0  0  0  0
 25 38  1  0  0  0  0
 25 39  1  0  0  0  0
 26 40  1  0  0  0  0
M  END
$$$$
ZINC02502659
  -OEChem-08230709453D

 40 42  0     1  0  0  0  0  0999 V2000
   -0.9760    3.0796   -4.4668 C   0  0  0  0  0  0  0  0  0  0  0  0
    0.1550    3.9044   -4.7542 O   0  0  0  0  0  0  0  0  0  0  0  0
    0.9619    4.2318   -3.7094 C   0  0  0  0  0  0  0  0  0  0  0  0
    0.6744    3.7640   -2.4372 C   0  0  0  0  0  0  0  0  0  0  0  0
    1.4926    4.1014   -1.3752 C   0  0  0  0  0  0  0  0  0  0  0  0
    2.6051    4.8972   -1.5812 C   0  0  0  0  0  0  0  0  0  0  0  0
    2.9006    5.3626   -2.8497 C   0  0  0  0  0  0  0  0  0  0  0  0
    2.0811    5.0320   -3.9170 C   0  0  0  0  0  0  0  0  0  0  0  0
    2.3699    5.4891   -5.1649 O   0  0  0  0  0  0  0  0  0  0  0  0
    3.5343    6.3059   -5.3033 C   0  0  0  0  0  0  0  0  0  0  0  0
    3.7245    5.3493   -0.1257 Br  0  0  0  0  0  0  0  0  0  0  0  0
    1.1753    3.5959    0.0086 C   0  0  2  0  0  0  0  0  0  0  0  0
    1.9322    3.9545    0.7063 H   0  0  0  0  0  0  0  0  0  0  0  0
    1.1764    2.0901    0.0021 C   0  0  0  0  0  0  0  0  0  0  0  0
    2.3817    1.4107   -0.0122 C   0  0  0  0  0  0  0  0  0  0  0  0
    2.4021    0.0301   -0.0199 C   0  0  0  0  0  0  0  0  0  0  0  0
    1.2104   -0.6813   -0.0130 C   0  0  0  0  0  0  0  0  0  0  0  0
    0.0021   -0.0041    0.0020 C   0  0  0  0  0  0  0  0  0  0  0  0
   -0.0168    1.3848    0.0097 C   0  0  0  0  0  0  0  0  0  0  0  0
   -1.2076    2.0328    0.0302 O   0  0  0  0  0  0  0  0  0  0  0  0
   -1.2669    3.3171    0.4151 C   0  0  0  0  0  0  0  0  0  0  0  0
   -0.1712    4.1126    0.4307 C   0  0  0  0  0  0  0  0  0  0  0  0
   -0.2983    5.4735    0.8576 C   0  0  0  0  0  0  0  0  0  0  0  0
   -0.3991    6.5532    1.1963 N   0  0  0  0  0  0  0  0  0  0  0  0
   -2.4739    3.8382    0.8098 N   0  0  0  0  0  0  0  0  0  0  0  0
    1.2288   -2.0401   -0.0204 O   0  0  0  0  0  0  0  0  0  0  0  0
   -1.5334    2.8945   -5.3851 H   0  0  0  0  0  0  0  0  0  0  0  0
   -0.6374    2.1311   -4.0499 H   0  0  0  0  0  0  0  0  0  0  0  0
   -1.6199    3.5841   -3.7464 H   0  0  0  0  0  0  0  0  0  0  0  0
   -0.1913    3.1391   -2.2745 H   0  0  0  0  0  0  0  0  0  0  0  0
    3.7697    5.9838   -3.0083 H   0  0  0  0  0  0  0  0  0  0  0  0
    3.6486    6.6019   -6.3461 H   0  0  0  0  0  0  0  0  0  0  0  0
    3.4299    7.1956   -4.6824 H   0  0  0  0  0  0  0  0  0  0  0  0
    4.4126    5.7431   -4.9870 H   0  0  0  0  0  0  0  0  0  0  0  0
    3.3101    1.9624   -0.0173 H   0  0  0  0  0  0  0  0  0  0  0  0
    3.3452   -0.4961   -0.0316 H   0  0  0  0  0  0  0  0  0  0  0  0
   -0.9260   -0.5564    0.0074 H   0  0  0  0  0  0  0  0  0  0  0  0
   -2.5328    4.7636    1.0944 H   0  0  0  0  0  0  0  0  0  0  0  0
   -3.2679    3.2810    0.8042 H   0  0  0  0  0  0  0  0  0  0  0  0
    1.2259   -2.4287   -0.9059 H   0  0  0  0  0  0  0  0  0  0  0  0
  1  2  1  0  0  0  0
  1 27  1  0  0  0  0
  1 28  1  0  0  0  0
  1 29  1  0  0  0  0
  2  3  1  0  0  0  0
  3  8  2  0  0  0  0
  3  4  1  0  0  0  0
  4  5  2  0  0  0  0
  4 30  1  0  0  0  0
  5  6  1  0  0  0  0
  5 12  1  0  0  0  0
  6  7  2  0  0  0  0
  6 11  1  0  0  0  0
  7  8  1  0  0  0  0
  7 31  1  0  0  0  0
  8  9  1  0  0  0  0
  9 10  1  0  0  0  0
 10 32  1  0  0  0  0
 10 33  1  0  0  0  0
 10 34  1  0  0  0  0
 12 13  1  0  0  0  0
 12 22  1  0  0  0  0
 12 14  1  0  0  0  0
 14 19  2  0  0  0  0
 14 15  1  0  0  0  0
 15 16  2  0  0  0  0
 15 35  1  0  0  0  0
 16 17  1  0  0  0  0
 16 36  1  0  0  0  0
 17 18  2  0  0  0  0
 17 26  1  0  0  0  0
 18 19  1  0  0  0  0
 18 37  1  0  0  0  0
 19 20  1  0  0  0  0
 20 21  1  0  0  0  0
 21 22  2  0  0  0  0
 21 25  1  0  0  0  0
 22 23  1  0  0  0  0
 23 24  3  0  0  0  0
 25 38  1  0  0  0  0
 25 39  1  0  0  0  0
 26 40  1  0  0  0  0
M  END
$$$$
ZINC02504066
  -OEChem-08230709453D

 44 46  0     0  0  0  0  0  0999 V2000
   11.1557   -2.2782   -1.1328 C   0  0  0  0  0  0  0  0  0  0  0  0
   10.0225   -3.3056   -1.0984 C   0  0  0  0  0  0  0  0  0  0  0  0
    9.6828   -3.6417    0.3551 C   0  0  0  0  0  0  0  0  0  0  0  0
    8.5667   -4.6537    0.3890 C   0  0  0  0  0  0  0  0  0  0  0  0
    8.8561   -5.9839    0.4909 C   0  0  0  0  0  0  0  0  0  0  0  0
    7.7983   -6.9095    0.5212 C   0  0  0  0  0  0  0  0  0  0  0  0
    8.0212   -8.1056    0.6116 O   0  0  0  0  0  0  0  0  0  0  0  0
    6.5308   -6.4491    0.4535 N   0  0  0  0  0  0  0  0  0  0  0  0
    5.7625   -7.0886    0.4809 H   0  0  0  0  0  0  0  0  0  0  0  0
    6.3026   -5.1107    0.3478 C   0  0  0  0  0  0  0  0  0  0  0  0
    7.3011   -4.2490    0.3201 N   0  0  0  0  0  0  0  0  0  0  0  0
    4.6454   -4.5193    0.2539 S   0  0  0  0  0  0  0  0  0  0  0  0
    4.9529   -2.7392    0.1404 C   0  0  0  0  0  0  0  0  0  0  0  0
    3.6388   -2.0074    0.0477 C   0  0  0  0  0  0  0  0  0  0  0  0
    2.5968   -2.6283    0.0573 O   0  0  0  0  0  0  0  0  0  0  0  0
    3.6213   -0.6630   -0.0460 N   0  0  0  0  0  0  0  0  0  0  0  0
    2.4012    0.0251   -0.0209 C   0  0  0  0  0  0  0  0  0  0  0  0
    1.3458   -0.4598    0.7399 C   0  0  0  0  0  0  0  0  0  0  0  0
    0.1422    0.2175    0.7639 C   0  0  0  0  0  0  0  0  0  0  0  0
   -0.0160    1.3837    0.0296 C   0  0  0  0  0  0  0  0  0  0  0  0
    1.0398    1.8734   -0.7303 C   0  0  0  0  0  0  0  0  0  0  0  0
    2.2470    1.1919   -0.7559 C   0  0  0  0  0  0  0  0  0  0  0  0
    0.9062    3.0206   -1.4506 O   0  0  0  0  0  0  0  0  0  0  0  0
   -0.4291    3.4730   -1.6993 C   0  0  0  0  0  0  0  0  0  0  0  0
   -1.2157    3.3954   -0.3839 C   0  0  0  0  0  0  0  0  0  0  0  0
   -1.2127    2.0334    0.0592 O   0  0  0  0  0  0  0  0  0  0  0  0
   10.8408   -1.3725   -0.6145 H   0  0  0  0  0  0  0  0  0  0  0  0
   12.0358   -2.6913   -0.6402 H   0  0  0  0  0  0  0  0  0  0  0  0
   11.3977   -2.0387   -2.1683 H   0  0  0  0  0  0  0  0  0  0  0  0
   10.3374   -4.2113   -1.6167 H   0  0  0  0  0  0  0  0  0  0  0  0
    9.1423   -2.8925   -1.5910 H   0  0  0  0  0  0  0  0  0  0  0  0
    9.3679   -2.7360    0.8734 H   0  0  0  0  0  0  0  0  0  0  0  0
   10.5630   -4.0549    0.8477 H   0  0  0  0  0  0  0  0  0  0  0  0
    9.8809   -6.3198    0.5476 H   0  0  0  0  0  0  0  0  0  0  0  0
    5.5491   -2.5294   -0.7477 H   0  0  0  0  0  0  0  0  0  0  0  0
    5.4923   -2.4064    1.0271 H   0  0  0  0  0  0  0  0  0  0  0  0
    4.4534   -0.1719   -0.1309 H   0  0  0  0  0  0  0  0  0  0  0  0
    1.4658   -1.3674    1.3129 H   0  0  0  0  0  0  0  0  0  0  0  0
   -0.6777   -0.1619    1.3556 H   0  0  0  0  0  0  0  0  0  0  0  0
    3.0676    1.5694   -1.3479 H   0  0  0  0  0  0  0  0  0  0  0  0
   -0.4080    4.5032   -2.0547 H   0  0  0  0  0  0  0  0  0  0  0  0
   -0.8997    2.8356   -2.4479 H   0  0  0  0  0  0  0  0  0  0  0  0
   -0.7414    4.0284    0.3660 H   0  0  0  0  0  0  0  0  0  0  0  0
   -2.2414    3.7254   -0.5488 H   0  0  0  0  0  0  0  0  0  0  0  0
  1  2  1  0  0  0  0
  1 27  1  0  0  0  0
  1 28  1  0  0  0  0
  1 29  1  0  0  0  0
  2  3  1  0  0  0  0
  2 30  1  0  0  0  0
  2 31  1  0  0  0  0
  3  4  1  0  0  0  0
  3 32  1  0  0  0  0
  3 33  1  0  0  0  0
  4 11  1  0  0  0  0
  4  5  2  0  0  0  0
  5  6  1  0  0  0  0
  5 34  1  0  0  0  0
  6  7  2  0  0  0  0
  6  8  1  0  0  0  0
  8  9  1  0  0  0  0
  8 10  1  0  0  0  0
 10 11  2  0  0  0  0
 10 12  1  0  0  0  0
 12 13  1  0  0  0  0
 13 14  1  0  0  0  0
 13 35  1  0  0  0  0
 13 36  1  0  0  0  0
 14 15  2  0  0  0  0
 14 16  1  0  0  0  0
 16 17  1  0  0  0  0
 16 37  1  0  0  0  0
 17 22  2  0  0  0  0
 17 18  1  0  0  0  0
 18 19  2  0  0  0  0
 18 38  1  0  0  0  0
 19 20  1  0  0  0  0
 19 39  1  0  0  0  0
 20 26  1  0  0  0  0
 20 21  2  0  0  0  0
 21 22  1  0  0  0  0
 21 23  1  0  0  0  0
 22 40  1  0  0  0  0
 23 24  1  0  0  0  0
 24 25  1  0  0  0  0
 24 41  1  0  0  0  0
 24 42  1  0  0  0  0
 25 26  1  0  0  0  0
 25 43  1  0  0  0  0
 25 44  1  0  0  0  0
M  END
$$$$
ZINC02504066
  -OEChem-08230709453D

 44 46  0     0  0  0  0  0  0999 V2000
    7.4429  -10.4386    1.9417 C   0  0  0  0  0  0  0  0  0  0  0  0
    7.2066   -8.9311    1.8301 C   0  0  0  0  0  0  0  0  0  0  0  0
    7.9831   -8.3805    0.6323 C   0  0  0  0  0  0  0  0  0  0  0  0
    7.7504   -6.8956    0.5223 C   0  0  0  0  0  0  0  0  0  0  0  0
    8.8201   -6.0197    0.5076 C   0  0  0  0  0  0  0  0  0  0  0  0
    8.5606   -4.6539    0.4043 C   0  0  0  0  0  0  0  0  0  0  0  0
    7.3026   -4.2423    0.3030 N   0  0  0  0  0  0  0  0  0  0  0  0
    6.3032   -5.1121    0.3309 C   0  0  0  0  0  0  0  0  0  0  0  0
    6.5192   -6.4155    0.4387 N   0  0  0  0  0  0  0  0  0  0  0  0
    4.6466   -4.5216    0.2220 S   0  0  0  0  0  0  0  0  0  0  0  0
    4.9546   -2.7424    0.0980 C   0  0  0  0  0  0  0  0  0  0  0  0
    3.6411   -2.0113   -0.0083 C   0  0  0  0  0  0  0  0  0  0  0  0
    2.5992   -2.6322   -0.0011 O   0  0  0  0  0  0  0  0  0  0  0  0
    3.6241   -0.6676   -0.1116 N   0  0  0  0  0  0  0  0  0  0  0  0
    2.4039    0.0205   -0.0991 C   0  0  0  0  0  0  0  0  0  0  0  0
    1.3436   -0.4591    0.6581 C   0  0  0  0  0  0  0  0  0  0  0  0
    0.1401    0.2187    0.6702 C   0  0  0  0  0  0  0  0  0  0  0  0
   -0.0134    1.3797   -0.0732 C   0  0  0  0  0  0  0  0  0  0  0  0
    1.0471    1.8637   -0.8303 C   0  0  0  0  0  0  0  0  0  0  0  0
    2.2545    1.1821   -0.8433 C   0  0  0  0  0  0  0  0  0  0  0  0
    0.9181    3.0058   -1.5596 O   0  0  0  0  0  0  0  0  0  0  0  0
   -0.4157    3.4567   -1.8193 C   0  0  0  0  0  0  0  0  0  0  0  0
   -1.2100    3.3887   -0.5079 C   0  0  0  0  0  0  0  0  0  0  0  0
   -1.2099    2.0299   -0.0552 O   0  0  0  0  0  0  0  0  0  0  0  0
    9.5795   -3.7609    0.3814 O   0  0  0  0  0  0  0  0  0  0  0  0
    7.1003  -10.9286    1.0303 H   0  0  0  0  0  0  0  0  0  0  0  0
    8.5070  -10.6304    2.0794 H   0  0  0  0  0  0  0  0  0  0  0  0
    6.8896  -10.8309    2.7951 H   0  0  0  0  0  0  0  0  0  0  0  0
    7.5491   -8.4411    2.7415 H   0  0  0  0  0  0  0  0  0  0  0  0
    6.1424   -8.7393    1.6924 H   0  0  0  0  0  0  0  0  0  0  0  0
    7.6405   -8.8704   -0.2791 H   0  0  0  0  0  0  0  0  0  0  0  0
    9.0472   -8.5722    0.7699 H   0  0  0  0  0  0  0  0  0  0  0  0
    9.8340   -6.3855    0.5747 H   0  0  0  0  0  0  0  0  0  0  0  0
    5.5566   -2.5387   -0.7875 H   0  0  0  0  0  0  0  0  0  0  0  0
    5.4883   -2.4033    0.9860 H   0  0  0  0  0  0  0  0  0  0  0  0
    4.4568   -0.1770   -0.1944 H   0  0  0  0  0  0  0  0  0  0  0  0
    1.4600   -1.3627    1.2382 H   0  0  0  0  0  0  0  0  0  0  0  0
   -0.6835   -0.1563    1.2598 H   0  0  0  0  0  0  0  0  0  0  0  0
    3.0787    1.5555   -1.4326 H   0  0  0  0  0  0  0  0  0  0  0  0
   -0.3921    4.4844   -2.1818 H   0  0  0  0  0  0  0  0  0  0  0  0
   -0.8821    2.8142   -2.5661 H   0  0  0  0  0  0  0  0  0  0  0  0
   -0.7399    4.0270    0.2402 H   0  0  0  0  0  0  0  0  0  0  0  0
   -2.2346    3.7178   -0.6812 H   0  0  0  0  0  0  0  0  0  0  0  0
    5.7421   -7.0445    0.4571 H   0  0  0  0  0  0  0  0  0  0  0  0
  1  2  1  0  0  0  0
  1 26  1  0  0  0  0
  1 27  1  0  0  0  0
  1 28  1  0  0  0  0
  2  3  1  0  0  0  0
  2 29  1  0  0  0  0
  2 30  1  0  0  0  0
  3  4  1  0  0  0  0
  3 31  1  0  0  0  0
  3 32  1  0  0  0  0
  4  5  2  0  0  0  0
  4  9  1  0  0  0  0
  5 33  1  0  0  0  0
  5  6  1  0  0  0  0
  6  7  1  0  0  0  0
  6 25  2  0  0  0  0
  7  8  2  0  0  0  0
  8 10  1  0  0  0  0
  8  9  1  0  0  0  0
  9 44  1  0  0  0  0
 10 11  1  0  0  0  0
 11 12  1  0  0  0  0
 11 34  1  0  0  0  0
 11 35  1  0  0  0  0
 12 13  2  0  0  0  0
 12 14  1  0  0  0  0
 14 15  1  0  0  0  0
 14 36  1  0  0  0  0
 15 20  2  0  0  0  0
 15 16  1  0  0  0  0
 16 17  2  0  0  0  0
 16 37  1  0  0  0  0
 17 18  1  0  0  0  0
 17 38  1  0  0  0  0
 18 24  1  0  0  0  0
 18 19  2  0  0  0  0
 19 20  1  0  0  0  0
 19 21  1  0  0  0  0
 20 39  1  0  0  0  0
 21 22  1  0  0  0  0
 22 23  1  0  0  0  0
 22 40  1  0  0  0  0
 22 41  1  0  0  0  0
 23 24  1  0  0  0  0
 23 42  1  0  0  0  0
 23 43  1  0  0  0  0
M  END
$$$$
ZINC02504066
  -OEChem-08230709453D

 44 46  0     0  0  0  0  0  0999 V2000
    7.4261  -10.4140    2.0333 C   0  0  0  0  0  0  0  0  0  0  0  0
    7.1902   -8.9085    1.8968 C   0  0  0  0  0  0  0  0  0  0  0  0
    7.9815   -8.3747    0.7010 C   0  0  0  0  0  0  0  0  0  0  0  0
    7.7493   -6.8918    0.5665 C   0  0  0  0  0  0  0  0  0  0  0  0
    8.8190   -6.0162    0.5413 C   0  0  0  0  0  0  0  0  0  0  0  0
    8.5613   -4.6554    0.3819 C   0  0  0  0  0  0  0  0  0  0  0  0
    7.3023   -4.2423    0.3033 N   0  0  0  0  0  0  0  0  0  0  0  0
    6.3023   -5.1106    0.3525 C   0  0  0  0  0  0  0  0  0  0  0  0
    6.5184   -6.4131    0.4712 N   0  0  0  0  0  0  0  0  0  0  0  0
    4.6452   -4.5192    0.2578 S   0  0  0  0  0  0  0  0  0  0  0  0
    4.9526   -2.7392    0.1449 C   0  0  0  0  0  0  0  0  0  0  0  0
    3.6386   -2.0072    0.0517 C   0  0  0  0  0  0  0  0  0  0  0  0
    2.5967   -2.6281    0.0606 O   0  0  0  0  0  0  0  0  0  0  0  0
    3.6212   -0.6628   -0.0417 N   0  0  0  0  0  0  0  0  0  0  0  0
    2.4011    0.0253   -0.0169 C   0  0  0  0  0  0  0  0  0  0  0  0
    1.3453   -0.4598    0.7431 C   0  0  0  0  0  0  0  0  0  0  0  0
    0.1420    0.2180    0.7673 C   0  0  0  0  0  0  0  0  0  0  0  0
   -0.0158    1.3844    0.0333 C   0  0  0  0  0  0  0  0  0  0  0  0
    1.0402    1.8738   -0.7266 C   0  0  0  0  0  0  0  0  0  0  0  0
    2.2474    1.1923   -0.7517 C   0  0  0  0  0  0  0  0  0  0  0  0
    0.9070    3.0212   -1.4468 O   0  0  0  0  0  0  0  0  0  0  0  0
   -0.4282    3.4741   -1.6952 C   0  0  0  0  0  0  0  0  0  0  0  0
   -1.2147    3.3966   -0.3797 C   0  0  0  0  0  0  0  0  0  0  0  0
   -1.2121    2.0346    0.0631 O   0  0  0  0  0  0  0  0  0  0  0  0
    9.5804   -3.7629    0.3515 O   0  0  0  0  0  0  0  0  0  0  0  0
    7.0953  -10.9175    1.1249 H   0  0  0  0  0  0  0  0  0  0  0  0
    8.4884  -10.6029    2.1872 H   0  0  0  0  0  0  0  0  0  0  0  0
    6.8623  -10.7943    2.8853 H   0  0  0  0  0  0  0  0  0  0  0  0
    7.5209   -8.4050    2.8053 H   0  0  0  0  0  0  0  0  0  0  0  0
    6.1277   -8.7196    1.7429 H   0  0  0  0  0  0  0  0  0  0  0  0
    7.6507   -8.8781   -0.2074 H   0  0  0  0  0  0  0  0  0  0  0  0
    9.0439   -8.5635    0.8548 H   0  0  0  0  0  0  0  0  0  0  0  0
    9.8323   -6.3801    0.6262 H   0  0  0  0  0  0  0  0  0  0  0  0
    5.5494   -2.5291   -0.7427 H   0  0  0  0  0  0  0  0  0  0  0  0
    5.4916   -2.4066    1.0321 H   0  0  0  0  0  0  0  0  0  0  0  0
    4.4534   -0.1717   -0.1259 H   0  0  0  0  0  0  0  0  0  0  0  0
    1.4650   -1.3676    1.3159 H   0  0  0  0  0  0  0  0  0  0  0  0
   -0.6781   -0.1612    1.3590 H   0  0  0  0  0  0  0  0  0  0  0  0
    3.0682    1.5699   -1.3432 H   0  0  0  0  0  0  0  0  0  0  0  0
   -0.4067    4.5044   -2.0504 H   0  0  0  0  0  0  0  0  0  0  0  0
   -0.8992    2.8371   -2.4439 H   0  0  0  0  0  0  0  0  0  0  0  0
   -0.7401    4.0294    0.3702 H   0  0  0  0  0  0  0  0  0  0  0  0
   -2.2403    3.7271   -0.5445 H   0  0  0  0  0  0  0  0  0  0  0  0
   10.4515   -4.2491    0.4212 H   0  0  0  0  0  0  0  0  0  0  0  0
  1  2  1  0  0  0  0
  1 26  1  0  0  0  0
  1 27  1  0  0  0  0
  1 28  1  0  0  0  0
  2  3  1  0  0  0  0
  2 29  1  0  0  0  0
  2 30  1  0  0  0  0
  3  4  1  0  0  0  0
  3 31  1  0  0  0  0
  3 32  1  0  0  0  0
  4  5  2  0  0  0  0
  4  9  1  0  0  0  0
  5 33  1  0  0  0  0
  5  6  1  0  0  0  0
  6  7  2  0  0  0  0
  6 25  1  0  0  0  0
  7  8  1  0  0  0  0
  8 10  1  0  0  0  0
  8  9  2  0  0  0  0
 10 11  1  0  0  0  0
 11 12  1  0  0  0  0
 11 34  1  0  0  0  0
 11 35  1  0  0  0  0
 12 13  2  0  0  0  0
 12 14  1  0  0  0  0
 14 15  1  0  0  0  0
 14 36  1  0  0  0  0
 15 20  2  0  0  0  0
 15 16  1  0  0  0  0
 16 17  2  0  0  0  0
 16 37  1  0  0  0  0
 17 18  1  0  0  0  0
 17 38  1  0  0  0  0
 18 24  1  0  0  0  0
 18 19  2  0  0  0  0
 19 20  1  0  0  0  0
 19 21  1  0  0  0  0
 20 39  1  0  0  0  0
 21 22  1  0  0  0  0
 22 23  1  0  0  0  0
 22 40  1  0  0  0  0
 22 41  1  0  0  0  0
 23 24  1  0  0  0  0
 23 42  1  0  0  0  0
 23 43  1  0  0  0  0
 25 44  1  0  0  0  0
M  END
$$$$
ZINC02535918
  -OEChem-08230709453D

 44 45  0     0  0  0  0  0  0999 V2000
    2.5578    5.6549    0.0081 C   0  0  0  0  0  0  0  0  0  0  0  0
    2.5815    4.1251   -0.0004 C   0  0  0  0  0  0  0  0  0  0  0  0
    1.1472    3.5927    0.0105 C   0  0  0  0  0  0  0  0  0  0  0  0
    0.4062    4.0982   -1.2290 C   0  0  0  0  0  0  0  0  0  0  0  0
    0.4301    4.0847    1.2693 C   0  0  0  0  0  0  0  0  0  0  0  0
    1.1705    2.0859    0.0021 C   0  0  0  0  0  0  0  0  0  0  0  0
   -0.0167    1.3772    0.0096 C   0  0  0  0  0  0  0  0  0  0  0  0
    0.0021   -0.0041    0.0020 C   0  0  0  0  0  0  0  0  0  0  0  0
    1.2134   -0.6801   -0.0132 C   0  0  0  0  0  0  0  0  0  0  0  0
    2.4032    0.0333   -0.0208 C   0  0  0  0  0  0  0  0  0  0  0  0
    2.3791    1.4145   -0.0132 C   0  0  0  0  0  0  0  0  0  0  0  0
    1.2345   -2.0389   -0.0203 O   0  0  0  0  0  0  0  0  0  0  0  0
    2.5176   -2.6678   -0.0360 C   0  0  0  0  0  0  0  0  0  0  0  0
    2.3482   -4.1230   -0.0417 N   0  0  0  0  0  0  0  0  0  0  0  0
    1.1539   -4.7659   -0.0332 C   0  0  0  0  0  0  0  0  0  0  0  0
    1.4162   -6.0949   -0.0425 C   0  0  0  0  0  0  0  0  0  0  0  0
    2.8275   -6.2025   -0.0568 C   0  0  0  0  0  0  0  0  0  0  0  0
    3.3092   -4.9754   -0.0609 N   0  0  0  0  0  0  0  0  0  0  0  0
    3.6121   -7.4533   -0.0714 C   0  0  0  0  0  0  0  0  0  0  0  0
    3.0433   -8.5278   -0.0719 O   0  0  0  0  0  0  0  0  0  0  0  0
    4.9589   -7.4038   -0.0843 N   0  0  0  0  0  0  0  0  0  0  0  0
    5.6848   -8.5609   -0.0978 N   0  0  0  0  0  0  0  0  0  0  0  0
    0.2637   -7.3931   -0.0377 Cl  0  0  0  0  0  0  0  0  0  0  0  0
    3.5796    6.0342    0.0004 H   0  0  0  0  0  0  0  0  0  0  0  0
    2.0299    6.0150   -0.8749 H   0  0  0  0  0  0  0  0  0  0  0  0
    2.0469    6.0054    0.9049 H   0  0  0  0  0  0  0  0  0  0  0  0
    3.1094    3.7650    0.8826 H   0  0  0  0  0  0  0  0  0  0  0  0
    3.0924    3.7746   -0.8972 H   0  0  0  0  0  0  0  0  0  0  0  0
   -0.6157    3.7189   -1.2213 H   0  0  0  0  0  0  0  0  0  0  0  0
    0.3893    5.1880   -1.2230 H   0  0  0  0  0  0  0  0  0  0  0  0
    0.9170    3.7477   -2.1259 H   0  0  0  0  0  0  0  0  0  0  0  0
    0.9580    3.7246    2.1523 H   0  0  0  0  0  0  0  0  0  0  0  0
    0.4132    5.1745    1.2753 H   0  0  0  0  0  0  0  0  0  0  0  0
   -0.5918    3.7054    1.2770 H   0  0  0  0  0  0  0  0  0  0  0  0
   -0.9595    1.9040    0.0169 H   0  0  0  0  0  0  0  0  0  0  0  0
   -0.9255   -0.5572    0.0083 H   0  0  0  0  0  0  0  0  0  0  0  0
    3.3475   -0.4907   -0.0323 H   0  0  0  0  0  0  0  0  0  0  0  0
    3.3051    1.9703   -0.0187 H   0  0  0  0  0  0  0  0  0  0  0  0
    3.0613   -2.3618   -0.9298 H   0  0  0  0  0  0  0  0  0  0  0  0
    3.0787   -2.3708    0.8501 H   0  0  0  0  0  0  0  0  0  0  0  0
    0.1773   -4.3049   -0.0210 H   0  0  0  0  0  0  0  0  0  0  0  0
    5.4128   -6.5466   -0.0839 H   0  0  0  0  0  0  0  0  0  0  0  0
    5.4237   -9.1425   -0.8800 H   0  0  0  0  0  0  0  0  0  0  0  0
    6.6749   -8.3666   -0.1064 H   0  0  0  0  0  0  0  0  0  0  0  0
  1  2  1  0  0  0  0
  1 24  1  0  0  0  0
  1 25  1  0  0  0  0
  1 26  1  0  0  0  0
  2  3  1  0  0  0  0
  2 27  1  0  0  0  0
  2 28  1  0  0  0  0
  3  4  1  0  0  0  0
  3  5  1  0  0  0  0
  3  6  1  0  0  0  0
  4 29  1  0  0  0  0
  4 30  1  0  0  0  0
  4 31  1  0  0  0  0
  5 32  1  0  0  0  0
  5 33  1  0  0  0  0
  5 34  1  0  0  0  0
  6 11  2  0  0  0  0
  6  7  1  0  0  0  0
  7  8  2  0  0  0  0
  7 35  1  0  0  0  0
  8  9  1  0  0  0  0
  8 36  1  0  0  0  0
  9 10  2  0  0  0  0
  9 12  1  0  0  0  0
 10 11  1  0  0  0  0
 10 37  1  0  0  0  0
 11 38  1  0  0  0  0
 12 13  1  0  0  0  0
 13 14  1  0  0  0  0
 13 39  1  0  0  0  0
 13 40  1  0  0  0  0
 14 18  1  0  0  0  0
 14 15  1  0  0  0  0
 15 16  2  0  0  0  0
 15 41  1  0  0  0  0
 16 17  1  0  0  0  0
 16 23  1  0  0  0  0
 17 18  2  0  0  0  0
 17 19  1  0  0  0  0
 19 20  2  0  0  0  0
 19 21  1  0  0  0  0
 21 22  1  0  0  0  0
 21 42  1  0  0  0  0
 22 43  1  0  0  0  0
 22 44  1  0  0  0  0
M  END
$$$$
ZINC02535932
  -OEChem-08230709453D

 41 42  0     0  0  0  0  0  0999 V2000
    1.3541   -2.1796    0.0311 C   0  0  0  0  0  0  0  0  0  0  0  0
    1.2681   -0.6751    0.0118 C   0  0  0  0  0  0  0  0  0  0  0  0
    0.0573   -0.0500    0.2401 C   0  0  0  0  0  0  0  0  0  0  0  0
   -0.0212    1.3347    0.2227 C   0  0  0  0  0  0  0  0  0  0  0  0
    1.1171    2.0887   -0.0242 C   0  0  0  0  0  0  0  0  0  0  0  0
    2.3253    1.4590   -0.2514 C   0  0  0  0  0  0  0  0  0  0  0  0
    2.4008    0.0783   -0.2339 C   0  0  0  0  0  0  0  0  0  0  0  0
    3.7202   -0.6061   -0.4826 C   0  0  0  0  0  0  0  0  0  0  0  0
    4.3085   -0.1139   -1.8065 C   0  0  0  0  0  0  0  0  0  0  0  0
    4.6868   -0.2799    0.6576 C   0  0  0  0  0  0  0  0  0  0  0  0
   -1.2121    1.9518    0.4414 O   0  0  0  0  0  0  0  0  0  0  0  0
   -1.2182    3.3804    0.4087 C   0  0  0  0  0  0  0  0  0  0  0  0
   -2.5757    3.8689    0.6632 N   0  0  0  0  0  0  0  0  0  0  0  0
   -3.6547    3.0799    0.8933 C   0  0  0  0  0  0  0  0  0  0  0  0
   -4.7161    3.9003    1.0818 C   0  0  0  0  0  0  0  0  0  0  0  0
   -4.2069    5.2145    0.9509 C   0  0  0  0  0  0  0  0  0  0  0  0
   -2.9160    5.1070    0.7062 N   0  0  0  0  0  0  0  0  0  0  0  0
   -4.9755    6.4695    1.0725 C   0  0  0  0  0  0  0  0  0  0  0  0
   -6.1677    6.4319    1.3077 O   0  0  0  0  0  0  0  0  0  0  0  0
   -4.3553    7.6567    0.9227 N   0  0  0  0  0  0  0  0  0  0  0  0
   -5.0663    8.8177    1.0352 N   0  0  0  0  0  0  0  0  0  0  0  0
   -6.3558    3.4372    1.4141 Cl  0  0  0  0  0  0  0  0  0  0  0  0
    1.2713   -2.5613   -0.9865 H   0  0  0  0  0  0  0  0  0  0  0  0
    2.3107   -2.4833    0.4564 H   0  0  0  0  0  0  0  0  0  0  0  0
    0.5427   -2.5822    0.6374 H   0  0  0  0  0  0  0  0  0  0  0  0
   -0.8274   -0.6391    0.4316 H   0  0  0  0  0  0  0  0  0  0  0  0
    1.0586    3.1670   -0.0386 H   0  0  0  0  0  0  0  0  0  0  0  0
    3.2116    2.0454   -0.4436 H   0  0  0  0  0  0  0  0  0  0  0  0
    3.5667   -1.6841   -0.5317 H   0  0  0  0  0  0  0  0  0  0  0  0
    3.6198   -0.3463   -2.6188 H   0  0  0  0  0  0  0  0  0  0  0  0
    4.4619    0.9641   -1.7574 H   0  0  0  0  0  0  0  0  0  0  0  0
    5.2628   -0.6090   -1.9864 H   0  0  0  0  0  0  0  0  0  0  0  0
    4.2677   -0.6306    1.6007 H   0  0  0  0  0  0  0  0  0  0  0  0
    5.6411   -0.7750    0.4777 H   0  0  0  0  0  0  0  0  0  0  0  0
    4.8403    0.7981    0.7067 H   0  0  0  0  0  0  0  0  0  0  0  0
   -0.5444    3.7642    1.1747 H   0  0  0  0  0  0  0  0  0  0  0  0
   -0.8866    3.7229   -0.5715 H   0  0  0  0  0  0  0  0  0  0  0  0
   -3.6657    2.0003    0.9208 H   0  0  0  0  0  0  0  0  0  0  0  0
   -3.4041    7.6868    0.7351 H   0  0  0  0  0  0  0  0  0  0  0  0
   -4.4709    9.6209    0.8993 H   0  0  0  0  0  0  0  0  0  0  0  0
   -5.8428    8.8300    0.3909 H   0  0  0  0  0  0  0  0  0  0  0  0
  1  2  1  0  0  0  0
  1 23  1  0  0  0  0
  1 24  1  0  0  0  0
  1 25  1  0  0  0  0
  2  7  2  0  0  0  0
  2  3  1  0  0  0  0
  3  4  2  0  0  0  0
  3 26  1  0  0  0  0
  4  5  1  0  0  0  0
  4 11  1  0  0  0  0
  5  6  2  0  0  0  0
  5 27  1  0  0  0  0
  6  7  1  0  0  0  0
  6 28  1  0  0  0  0
  7  8  1  0  0  0  0
  8  9  1  0  0  0  0
  8 10  1  0  0  0  0
  8 29  1  0  0  0  0
  9 30  1  0  0  0  0
  9 31  1  0  0  0  0
  9 32  1  0  0  0  0
 10 33  1  0  0  0  0
 10 34  1  0  0  0  0
 10 35  1  0  0  0  0
 11 12  1  0  0  0  0
 12 13  1  0  0  0  0
 12 36  1  0  0  0  0
 12 37  1  0  0  0  0
 13 17  1  0  0  0  0
 13 14  1  0  0  0  0
 14 15  2  0  0  0  0
 14 38  1  0  0  0  0
 15 16  1  0  0  0  0
 15 22  1  0  0  0  0
 16 17  2  0  0  0  0
 16 18  1  0  0  0  0
 18 19  2  0  0  0  0
 18 20  1  0  0  0  0
 20 21  1  0  0  0  0
 20 39  1  0  0  0  0
 21 40  1  0  0  0  0
 21 41  1  0  0  0  0
M  END
$$$$
ZINC02535933
  -OEChem-08230709453D

 41 42  0     0  0  0  0  0  0999 V2000
   -8.3502    9.7999    1.3509 C   0  0  0  0  0  0  0  0  0  0  0  0
   -7.4778    9.7197    0.0966 C   0  0  0  0  0  0  0  0  0  0  0  0
   -6.4748   10.8750    0.0983 C   0  0  0  0  0  0  0  0  0  0  0  0
   -8.3633    9.8148   -1.1475 C   0  0  0  0  0  0  0  0  0  0  0  0
   -6.7342    8.4089    0.0849 C   0  0  0  0  0  0  0  0  0  0  0  0
   -7.4358    7.2175    0.0815 C   0  0  0  0  0  0  0  0  0  0  0  0
   -6.7565    6.0146    0.0708 C   0  0  0  0  0  0  0  0  0  0  0  0
   -5.3692    6.0028    0.0635 C   0  0  0  0  0  0  0  0  0  0  0  0
   -4.6676    7.1996    0.0728 C   0  0  0  0  0  0  0  0  0  0  0  0
   -5.3516    8.3998    0.0772 C   0  0  0  0  0  0  0  0  0  0  0  0
   -4.6987    4.8208    0.0530 O   0  0  0  0  0  0  0  0  0  0  0  0
   -3.2711    4.8848    0.0459 C   0  0  0  0  0  0  0  0  0  0  0  0
   -2.7215    3.5269    0.0349 N   0  0  0  0  0  0  0  0  0  0  0  0
   -3.4608    2.3897    0.0320 C   0  0  0  0  0  0  0  0  0  0  0  0
   -2.5930    1.3496    0.0217 C   0  0  0  0  0  0  0  0  0  0  0  0
   -1.3031    1.9324    0.0187 C   0  0  0  0  0  0  0  0  0  0  0  0
   -1.4692    3.2401    0.0324 N   0  0  0  0  0  0  0  0  0  0  0  0
   -0.0144    1.2116    0.0087 C   0  0  0  0  0  0  0  0  0  0  0  0
    0.0021   -0.0041    0.0020 O   0  0  0  0  0  0  0  0  0  0  0  0
    1.1435    1.9013    0.0014 N   0  0  0  0  0  0  0  0  0  0  0  0
    2.3356    1.2344   -0.0136 N   0  0  0  0  0  0  0  0  0  0  0  0
   -2.9812   -0.3425    0.0138 Cl  0  0  0  0  0  0  0  0  0  0  0  0
   -7.7194    9.7322    2.2372 H   0  0  0  0  0  0  0  0  0  0  0  0
   -8.8880   10.7480    1.3594 H   0  0  0  0  0  0  0  0  0  0  0  0
   -9.0648    8.9768    1.3497 H   0  0  0  0  0  0  0  0  0  0  0  0
   -5.8532   10.8179   -0.7953 H   0  0  0  0  0  0  0  0  0  0  0  0
   -7.0126   11.8231    0.1067 H   0  0  0  0  0  0  0  0  0  0  0  0
   -5.8439   10.8073    0.9846 H   0  0  0  0  0  0  0  0  0  0  0  0
   -9.0778    8.9917   -1.1487 H   0  0  0  0  0  0  0  0  0  0  0  0
   -8.9011   10.7628   -1.1390 H   0  0  0  0  0  0  0  0  0  0  0  0
   -7.7417    9.7576   -2.0411 H   0  0  0  0  0  0  0  0  0  0  0  0
   -8.5157    7.2272    0.0876 H   0  0  0  0  0  0  0  0  0  0  0  0
   -7.3049    5.0843    0.0678 H   0  0  0  0  0  0  0  0  0  0  0  0
   -3.5876    7.1930    0.0716 H   0  0  0  0  0  0  0  0  0  0  0  0
   -4.8059    9.3318    0.0792 H   0  0  0  0  0  0  0  0  0  0  0  0
   -2.9265    5.4090    0.9373 H   0  0  0  0  0  0  0  0  0  0  0  0
   -2.9358    5.4197   -0.8427 H   0  0  0  0  0  0  0  0  0  0  0  0
   -4.5389    2.3255    0.0365 H   0  0  0  0  0  0  0  0  0  0  0  0
    1.1303    2.8712    0.0067 H   0  0  0  0  0  0  0  0  0  0  0  0
    2.3868    0.6029   -0.7989 H   0  0  0  0  0  0  0  0  0  0  0  0
    3.1110    1.8800   -0.0175 H   0  0  0  0  0  0  0  0  0  0  0  0
  1  2  1  0  0  0  0
  1 23  1  0  0  0  0
  1 24  1  0  0  0  0
  1 25  1  0  0  0  0
  2  3  1  0  0  0  0
  2  4  1  0  0  0  0
  2  5  1  0  0  0  0
  3 26  1  0  0  0  0
  3 27  1  0  0  0  0
  3 28  1  0  0  0  0
  4 29  1  0  0  0  0
  4 30  1  0  0  0  0
  4 31  1  0  0  0  0
  5 10  2  0  0  0  0
  5  6  1  0  0  0  0
  6  7  2  0  0  0  0
  6 32  1  0  0  0  0
  7  8  1  0  0  0  0
  7 33  1  0  0  0  0
  8  9  2  0  0  0  0
  8 11  1  0  0  0  0
  9 10  1  0  0  0  0
  9 34  1  0  0  0  0
 10 35  1  0  0  0  0
 11 12  1  0  0  0  0
 12 13  1  0  0  0  0
 12 36  1  0  0  0  0
 12 37  1  0  0  0  0
 13 17  1  0  0  0  0
 13 14  1  0  0  0  0
 14 15  2  0  0  0  0
 14 38  1  0  0  0  0
 15 16  1  0  0  0  0
 15 22  1  0  0  0  0
 16 17  2  0  0  0  0
 16 18  1  0  0  0  0
 18 19  2  0  0  0  0
 18 20  1  0  0  0  0
 20 21  1  0  0  0  0
 20 39  1  0  0  0  0
 21 40  1  0  0  0  0
 21 41  1  0  0  0  0
M  END
$$$$
ZINC02551803
  -OEChem-08230709453D

 42 44  0     1  0  0  0  0  0999 V2000
   -5.7289   -3.2909    3.4467 C   0  0  0  0  0  0  0  0  0  0  0  0
   -6.1145   -4.1162    4.4799 C   0  0  0  0  0  0  0  0  0  0  0  0
   -5.7823   -5.4629    4.4569 C   0  0  0  0  0  0  0  0  0  0  0  0
   -5.0656   -5.9887    3.3919 C   0  0  0  0  0  0  0  0  0  0  0  0
   -4.6785   -5.1754    2.3498 C   0  0  0  0  0  0  0  0  0  0  0  0
   -5.0100   -3.8159    2.3669 C   0  0  0  0  0  0  0  0  0  0  0  0
   -4.5997   -2.9419    1.2583 C   0  0  0  0  0  0  0  0  0  0  0  0
   -3.9724   -3.3987    0.3263 O   0  0  0  0  0  0  0  0  0  0  0  0
   -4.9585   -1.4784    1.2800 C   0  0  0  0  0  0  0  0  0  0  0  0
   -4.4166   -0.8017    0.0193 C   0  0  1  0  0  0  0  0  0  0  0  0
   -4.8118   -1.2747   -0.8797 H   0  0  0  0  0  0  0  0  0  0  0  0
   -4.7052    0.6901    0.0290 C   0  0  0  0  0  0  0  0  0  0  0  0
   -5.8369    1.1263    0.0368 O   0  0  0  0  0  0  0  0  0  0  0  0
   -3.6480    1.4838    0.0336 N   0  0  0  0  0  0  0  0  0  0  0  0
   -2.3512    0.9842    0.0185 C   0  0  0  0  0  0  0  0  0  0  0  0
   -1.2338    1.6498    0.0169 N   0  0  0  0  0  0  0  0  0  0  0  0
   -0.0111    0.9658    0.0074 N   0  0  0  0  0  0  0  0  0  0  0  0
    1.1785    1.6744   -0.0002 C   0  0  0  0  0  0  0  0  0  0  0  0
    1.1163    2.9808    0.0021 C   0  0  0  0  0  0  0  0  0  0  0  0
    2.3207    3.8761   -0.0098 C   0  0  0  0  0  0  0  0  0  0  0  0
    3.5696    3.0867    0.3886 C   0  0  0  0  0  0  0  0  0  0  0  0
    3.6196    1.8017   -0.4471 C   0  0  0  0  0  0  0  0  0  0  0  0
    2.4626    0.8976   -0.0166 C   0  0  0  0  0  0  0  0  0  0  0  0
   -2.5805   -0.7873    0.0100 S   0  0  0  0  0  0  0  0  0  0  0  0
   -6.1586   -6.2658    5.4761 F   0  0  0  0  0  0  0  0  0  0  0  0
   -5.9844   -2.2417    3.4678 H   0  0  0  0  0  0  0  0  0  0  0  0
   -6.6729   -3.7132    5.3118 H   0  0  0  0  0  0  0  0  0  0  0  0
   -4.8104   -7.0381    3.3800 H   0  0  0  0  0  0  0  0  0  0  0  0
   -4.1206   -5.5860    1.5212 H   0  0  0  0  0  0  0  0  0  0  0  0
   -4.5561   -1.0485    2.0882 H   0  0  0  0  0  0  0  0  0  0  0  0
   -6.0426   -1.3706    1.3129 H   0  0  0  0  0  0  0  0  0  0  0  0
   -3.7815    2.4445    0.0441 H   0  0  0  0  0  0  0  0  0  0  0  0
    0.0021   -0.0041    0.0020 H   0  0  0  0  0  0  0  0  0  0  0  0
    0.1402    3.4428    0.0170 H   0  0  0  0  0  0  0  0  0  0  0  0
    2.1717    4.6955    0.6933 H   0  0  0  0  0  0  0  0  0  0  0  0
    2.4538    4.2806   -1.0131 H   0  0  0  0  0  0  0  0  0  0  0  0
    3.5203    2.8333    1.4476 H   0  0  0  0  0  0  0  0  0  0  0  0
    4.4609    3.6839    0.1960 H   0  0  0  0  0  0  0  0  0  0  0  0
    4.5670    1.2904   -0.2763 H   0  0  0  0  0  0  0  0  0  0  0  0
    3.5203    2.0450   -1.5050 H   0  0  0  0  0  0  0  0  0  0  0  0
    2.6613    0.5069    0.9813 H   0  0  0  0  0  0  0  0  0  0  0  0
    2.3734    0.0669   -0.7166 H   0  0  0  0  0  0  0  0  0  0  0  0
  1  6  2  0  0  0  0
  1  2  1  0  0  0  0
  1 26  1  0  0  0  0
  2  3  2  0  0  0  0
  2 27  1  0  0  0  0
  3  4  1  0  0  0  0
  3 25  1  0  0  0  0
  4  5  2  0  0  0  0
  4 28  1  0  0  0  0
  5  6  1  0  0  0  0
  5 29  1  0  0  0  0
  6  7  1  0  0  0  0
  7  8  2  0  0  0  0
  7  9  1  0  0  0  0
  9 10  1  0  0  0  0
  9 30  1  0  0  0  0
  9 31  1  0  0  0  0
 10 11  1  0  0  0  0
 10 24  1  0  0  0  0
 10 12  1  0  0  0  0
 12 13  2  0  0  0  0
 12 14  1  0  0  0  0
 14 15  1  0  0  0  0
 14 32  1  0  0  0  0
 15 16  2  0  0  0  0
 15 24  1  0  0  0  0
 16 17  1  0  0  0  0
 17 18  1  0  0  0  0
 17 33  1  0  0  0  0
 18 23  1  0  0  0  0
 18 19  2  0  0  0  0
 19 20  1  0  0  0  0
 19 34  1  0  0  0  0
 20 21  1  0  0  0  0
 20 35  1  0  0  0  0
 20 36  1  0  0  0  0
 21 22  1  0  0  0  0
 21 37  1  0  0  0  0
 21 38  1  0  0  0  0
 22 23  1  0  0  0  0
 22 39  1  0  0  0  0
 22 40  1  0  0  0  0
 23 41  1  0  0  0  0
 23 42  1  0  0  0  0
M  END
$$$$
ZINC02568517
  -OEChem-08230709453D

 40 42  0     0  0  0  0  0  0999 V2000
   -6.9512    1.8004   -5.1454 C   0  0  0  0  0  0  0  0  0  0  0  0
   -6.1773    1.2422   -3.9789 C   0  0  0  0  0  0  0  0  0  0  0  0
   -6.7378    0.2942   -3.1768 C   0  0  0  0  0  0  0  0  0  0  0  0
   -6.0391   -0.2356   -2.0931 C   0  0  0  0  0  0  0  0  0  0  0  0
   -4.7731    0.1823   -1.8069 C   0  0  0  0  0  0  0  0  0  0  0  0
   -4.1654    1.1501   -2.6138 C   0  0  0  0  0  0  0  0  0  0  0  0
   -4.8731    1.6972   -3.7140 C   0  0  0  0  0  0  0  0  0  0  0  0
   -4.2984    2.6246   -4.4822 N   0  0  0  0  0  0  0  0  0  0  0  0
   -3.0796    3.0685   -4.2570 C   0  0  0  0  0  0  0  0  0  0  0  0
   -2.2952    2.5980   -3.1922 C   0  0  0  0  0  0  0  0  0  0  0  0
   -2.8113    1.6323   -2.3406 C   0  0  0  0  0  0  0  0  0  0  0  0
   -2.0220    1.1067   -1.2055 C   0  0  0  0  0  0  0  0  0  0  0  0
   -2.5329    0.3387   -0.4140 O   0  0  0  0  0  0  0  0  0  0  0  0
   -0.7363    1.4793   -1.0488 N   0  0  0  0  0  0  0  0  0  0  0  0
   -0.0074    0.9938   -0.0005 N   0  0  0  0  0  0  0  0  0  0  0  0
   -2.5160    4.1002   -5.1592 C   0  0  0  0  0  0  0  0  0  0  0  0
   -1.2292    4.5921   -4.9408 C   0  0  0  0  0  0  0  0  0  0  0  0
   -0.7057    5.5476   -5.7853 C   0  0  0  0  0  0  0  0  0  0  0  0
   -1.4624    6.0288   -6.8459 C   0  0  0  0  0  0  0  0  0  0  0  0
   -2.7462    5.5452   -7.0626 C   0  0  0  0  0  0  0  0  0  0  0  0
   -3.2733    4.5855   -6.2252 C   0  0  0  0  0  0  0  0  0  0  0  0
   -0.9460    6.9747   -7.6726 O   0  0  0  0  0  0  0  0  0  0  0  0
    0.3799    7.4276   -7.3920 C   0  0  0  0  0  0  0  0  0  0  0  0
   -8.3482   -0.2626   -3.5093 Cl  0  0  0  0  0  0  0  0  0  0  0  0
   -6.7573    1.1970   -6.0322 H   0  0  0  0  0  0  0  0  0  0  0  0
   -8.0170    1.7795   -4.9176 H   0  0  0  0  0  0  0  0  0  0  0  0
   -6.6392    2.8283   -5.3299 H   0  0  0  0  0  0  0  0  0  0  0  0
   -6.5060   -0.9864   -1.4729 H   0  0  0  0  0  0  0  0  0  0  0  0
   -4.2409   -0.2348   -0.9648 H   0  0  0  0  0  0  0  0  0  0  0  0
   -1.2985    2.9843   -3.0375 H   0  0  0  0  0  0  0  0  0  0  0  0
   -0.3285    2.0922   -1.6804 H   0  0  0  0  0  0  0  0  0  0  0  0
   -0.0031   -0.0151    0.0005 H   0  0  0  0  0  0  0  0  0  0  0  0
    0.9330    1.3594   -0.0139 H   0  0  0  0  0  0  0  0  0  0  0  0
   -0.6420    4.2215   -4.1137 H   0  0  0  0  0  0  0  0  0  0  0  0
    0.2922    5.9257   -5.6194 H   0  0  0  0  0  0  0  0  0  0  0  0
   -3.3320    5.9212   -7.8884 H   0  0  0  0  0  0  0  0  0  0  0  0
   -4.2718    4.2101   -6.3940 H   0  0  0  0  0  0  0  0  0  0  0  0
    0.4115    7.8628   -6.3931 H   0  0  0  0  0  0  0  0  0  0  0  0
    1.0700    6.5854   -7.4434 H   0  0  0  0  0  0  0  0  0  0  0  0
    0.6697    8.1800   -8.1255 H   0  0  0  0  0  0  0  0  0  0  0  0
  1  2  1  0  0  0  0
  1 25  1  0  0  0  0
  1 26  1  0  0  0  0
  1 27  1  0  0  0  0
  2  7  2  0  0  0  0
  2  3  1  0  0  0  0
  3  4  2  0  0  0  0
  3 24  1  0  0  0  0
  4  5  1  0  0  0  0
  4 28  1  0  0  0  0
  5  6  2  0  0  0  0
  5 29  1  0  0  0  0
  6 11  1  0  0  0  0
  6  7  1  0  0  0  0
  7  8  1  0  0  0  0
  8  9  2  0  0  0  0
  9 10  1  0  0  0  0
  9 16  1  0  0  0  0
 10 11  2  0  0  0  0
 10 30  1  0  0  0  0
 11 12  1  0  0  0  0
 12 13  2  0  0  0  0
 12 14  1  0  0  0  0
 14 15  1  0  0  0  0
 14 31  1  0  0  0  0
 15 32  1  0  0  0  0
 15 33  1  0  0  0  0
 16 21  2  0  0  0  0
 16 17  1  0  0  0  0
 17 18  2  0  0  0  0
 17 34  1  0  0  0  0
 18 19  1  0  0  0  0
 18 35  1  0  0  0  0
 19 20  2  0  0  0  0
 19 22  1  0  0  0  0
 20 21  1  0  0  0  0
 20 36  1  0  0  0  0
 21 37  1  0  0  0  0
 22 23  1  0  0  0  0
 23 38  1  0  0  0  0
 23 39  1  0  0  0  0
 23 40  1  0  0  0  0
M  END
$$$$
ZINC02568525
  -OEChem-08230709453D

 43 45  0     0  0  0  0  0  0999 V2000
    3.7297   -0.8772    0.0356 C   0  0  0  0  0  0  0  0  0  0  0  0
    2.3092   -0.3091    0.0546 C   0  0  0  0  0  0  0  0  0  0  0  0
    2.3670    1.1187    0.0413 O   0  0  0  0  0  0  0  0  0  0  0  0
    1.1822    1.7843    0.0555 C   0  0  0  0  0  0  0  0  0  0  0  0
   -0.0116    1.0759    0.0816 C   0  0  0  0  0  0  0  0  0  0  0  0
   -1.2191    1.7485    0.0912 C   0  0  0  0  0  0  0  0  0  0  0  0
   -1.2449    3.1288    0.0856 C   0  0  0  0  0  0  0  0  0  0  0  0
   -0.0509    3.8477    0.0594 C   0  0  0  0  0  0  0  0  0  0  0  0
    1.1659    3.1690    0.0444 C   0  0  0  0  0  0  0  0  0  0  0  0
   -0.0757    5.3304    0.0481 C   0  0  0  0  0  0  0  0  0  0  0  0
   -1.3123    5.9946    0.0636 C   0  0  0  0  0  0  0  0  0  0  0  0
   -1.3428    7.3801    0.0536 C   0  0  0  0  0  0  0  0  0  0  0  0
   -0.1037    8.0721    0.0278 C   0  0  0  0  0  0  0  0  0  0  0  0
   -0.0539    9.4718    0.0168 C   0  0  0  0  0  0  0  0  0  0  0  0
    1.1529   10.1041   -0.0084 C   0  0  0  0  0  0  0  0  0  0  0  0
    2.3415    9.3750   -0.0226 C   0  0  0  0  0  0  0  0  0  0  0  0
    2.3293    8.0132   -0.0121 C   0  0  0  0  0  0  0  0  0  0  0  0
    1.1013    7.3262    0.0134 C   0  0  0  0  0  0  0  0  0  0  0  0
    1.0639    5.9921    0.0292 N   0  0  0  0  0  0  0  0  0  0  0  0
    3.6256    7.2449   -0.0283 C   0  0  0  0  0  0  0  0  0  0  0  0
    3.8599   10.2160   -0.0536 Cl  0  0  0  0  0  0  0  0  0  0  0  0
   -2.6265    8.1148    0.0698 C   0  0  0  0  0  0  0  0  0  0  0  0
   -2.6321    9.3262    0.1685 O   0  0  0  0  0  0  0  0  0  0  0  0
   -3.7899    7.4410   -0.0249 N   0  0  0  0  0  0  0  0  0  0  0  0
   -4.9753    8.1195   -0.0099 N   0  0  0  0  0  0  0  0  0  0  0  0
    4.2428   -0.5427   -0.8660 H   0  0  0  0  0  0  0  0  0  0  0  0
    4.2726   -0.5275    0.9137 H   0  0  0  0  0  0  0  0  0  0  0  0
    3.6856   -1.9663    0.0457 H   0  0  0  0  0  0  0  0  0  0  0  0
    1.7961   -0.6436    0.9562 H   0  0  0  0  0  0  0  0  0  0  0  0
    1.7663   -0.6589   -0.8235 H   0  0  0  0  0  0  0  0  0  0  0  0
    0.0033   -0.0039    0.0899 H   0  0  0  0  0  0  0  0  0  0  0  0
   -2.1449    1.1927    0.1073 H   0  0  0  0  0  0  0  0  0  0  0  0
   -2.1899    3.6514    0.0976 H   0  0  0  0  0  0  0  0  0  0  0  0
    2.0938    3.7213    0.0237 H   0  0  0  0  0  0  0  0  0  0  0  0
   -2.2328    5.4301    0.0827 H   0  0  0  0  0  0  0  0  0  0  0  0
   -0.9677   10.0473    0.0273 H   0  0  0  0  0  0  0  0  0  0  0  0
    1.1892   11.1835   -0.0172 H   0  0  0  0  0  0  0  0  0  0  0  0
    3.9210    7.0523   -1.0597 H   0  0  0  0  0  0  0  0  0  0  0  0
    4.4004    7.8290    0.4684 H   0  0  0  0  0  0  0  0  0  0  0  0
    3.4932    6.2978    0.4947 H   0  0  0  0  0  0  0  0  0  0  0  0
   -3.7853    6.4742   -0.1037 H   0  0  0  0  0  0  0  0  0  0  0  0
   -5.0018    8.8173   -0.7383 H   0  0  0  0  0  0  0  0  0  0  0  0
   -5.7560    7.4851   -0.0883 H   0  0  0  0  0  0  0  0  0  0  0  0
  1  2  1  0  0  0  0
  1 26  1  0  0  0  0
  1 27  1  0  0  0  0
  1 28  1  0  0  0  0
  2  3  1  0  0  0  0
  2 29  1  0  0  0  0
  2 30  1  0  0  0  0
  3  4  1  0  0  0  0
  4  9  2  0  0  0  0
  4  5  1  0  0  0  0
  5  6  2  0  0  0  0
  5 31  1  0  0  0  0
  6  7  1  0  0  0  0
  6 32  1  0  0  0  0
  7  8  2  0  0  0  0
  7 33  1  0  0  0  0
  8  9  1  0  0  0  0
  8 10  1  0  0  0  0
  9 34  1  0  0  0  0
 10 19  2  0  0  0  0
 10 11  1  0  0  0  0
 11 12  2  0  0  0  0
 11 35  1  0  0  0  0
 12 13  1  0  0  0  0
 12 22  1  0  0  0  0
 13 18  2  0  0  0  0
 13 14  1  0  0  0  0
 14 15  2  0  0  0  0
 14 36  1  0  0  0  0
 15 16  1  0  0  0  0
 15 37  1  0  0  0  0
 16 17  2  0  0  0  0
 16 21  1  0  0  0  0
 17 18  1  0  0  0  0
 17 20  1  0  0  0  0
 18 19  1  0  0  0  0
 20 38  1  0  0  0  0
 20 39  1  0  0  0  0
 20 40  1  0  0  0  0
 22 23  2  0  0  0  0
 22 24  1  0  0  0  0
 24 25  1  0  0  0  0
 24 41  1  0  0  0  0
 25 42  1  0  0  0  0
 25 43  1  0  0  0  0
M  END
$$$$
ZINC02595251
  -OEChem-08230709453D

 41 43  0     1  0  0  0  0  0999 V2000
   14.0135   -1.5353   -0.2310 C   0  0  0  0  0  0  0  0  0  0  0  0
   12.5715   -1.9668   -0.5053 C   0  0  1  0  0  0  0  0  0  0  0  0
   12.4539   -2.1962   -1.5643 H   0  0  0  0  0  0  0  0  0  0  0  0
   12.2395   -3.2076    0.3287 C   0  0  0  0  0  0  0  0  0  0  0  0
   10.8972   -3.7902   -0.1171 C   0  0  0  0  0  0  0  0  0  0  0  0
    9.8520   -2.6814   -0.1025 C   0  0  0  0  0  0  0  0  0  0  0  0
   10.2173   -1.3813   -0.0995 C   0  0  0  0  0  0  0  0  0  0  0  0
    8.6922   -0.4825   -0.0804 S   0  0  0  0  0  0  0  0  0  0  0  0
    7.5830   -1.8136   -0.0769 C   0  0  0  0  0  0  0  0  0  0  0  0
    8.4189   -2.9217   -0.0843 C   0  0  0  0  0  0  0  0  0  0  0  0
    7.8763   -4.2834   -0.0785 C   0  0  0  0  0  0  0  0  0  0  0  0
    7.6415   -4.8494   -1.1301 O   0  0  0  0  0  0  0  0  0  0  0  0
    7.6374   -4.9086    1.0914 N   0  0  0  0  0  0  0  0  0  0  0  0
    6.1978   -1.7801   -0.0639 N   0  0  0  0  0  0  0  0  0  0  0  0
    5.5525   -0.5969   -0.0524 C   0  0  0  0  0  0  0  0  0  0  0  0
    6.4441    0.8646   -0.0537 S   0  0  0  0  0  0  0  0  0  0  0  0
    4.2052   -0.5643   -0.0397 N   0  0  0  0  0  0  0  0  0  0  0  0
    3.5598    0.6188   -0.0282 C   0  0  0  0  0  0  0  0  0  0  0  0
    4.1935    1.6575   -0.0291 O   0  0  0  0  0  0  0  0  0  0  0  0
    2.0949    0.6543   -0.0144 C   0  0  0  0  0  0  0  0  0  0  0  0
    1.3190    1.7787   -0.0010 C   0  0  0  0  0  0  0  0  0  0  0  0
   -0.0163    1.3474    0.0094 C   0  0  0  0  0  0  0  0  0  0  0  0
    0.0021   -0.0041    0.0020 C   0  0  0  0  0  0  0  0  0  0  0  0
    1.2757   -0.4179   -0.0124 O   0  0  0  0  0  0  0  0  0  0  0  0
   11.6116   -0.8348   -0.1112 C   0  0  0  0  0  0  0  0  0  0  0  0
   14.6923   -2.3448   -0.4997 H   0  0  0  0  0  0  0  0  0  0  0  0
   14.2479   -0.6522   -0.8254 H   0  0  0  0  0  0  0  0  0  0  0  0
   14.1278   -1.3016    0.8275 H   0  0  0  0  0  0  0  0  0  0  0  0
   12.1826   -2.9316    1.3816 H   0  0  0  0  0  0  0  0  0  0  0  0
   13.0214   -3.9548    0.1932 H   0  0  0  0  0  0  0  0  0  0  0  0
   10.5977   -4.5836    0.5677 H   0  0  0  0  0  0  0  0  0  0  0  0
   10.9883   -4.1931   -1.1258 H   0  0  0  0  0  0  0  0  0  0  0  0
    7.8246   -4.4575    1.9294 H   0  0  0  0  0  0  0  0  0  0  0  0
    7.2784   -5.8097    1.0952 H   0  0  0  0  0  0  0  0  0  0  0  0
    5.6926   -2.6081   -0.0632 H   0  0  0  0  0  0  0  0  0  0  0  0
    3.7000   -1.3924   -0.0390 H   0  0  0  0  0  0  0  0  0  0  0  0
    1.6662    2.8014    0.0012 H   0  0  0  0  0  0  0  0  0  0  0  0
   -0.8937    1.9770    0.0172 H   0  0  0  0  0  0  0  0  0  0  0  0
   -0.8673   -0.6448    0.0072 H   0  0  0  0  0  0  0  0  0  0  0  0
   11.6822   -0.0242   -0.8366 H   0  0  0  0  0  0  0  0  0  0  0  0
   11.8691   -0.4639    0.8809 H   0  0  0  0  0  0  0  0  0  0  0  0
  1  2  1  0  0  0  0
  1 26  1  0  0  0  0
  1 27  1  0  0  0  0
  1 28  1  0  0  0  0
  2  3  1  0  0  0  0
  2 25  1  0  0  0  0
  2  4  1  0  0  0  0
  4  5  1  0  0  0  0
  4 29  1  0  0  0  0
  4 30  1  0  0  0  0
  5  6  1  0  0  0  0
  5 31  1  0  0  0  0
  5 32  1  0  0  0  0
  6 10  1  0  0  0  0
  6  7  2  0  0  0  0
  7  8  1  0  0  0  0
  7 25  1  0  0  0  0
  8  9  1  0  0  0  0
  9 10  2  0  0  0  0
  9 14  1  0  0  0  0
 10 11  1  0  0  0  0
 11 12  2  0  0  0  0
 11 13  1  0  0  0  0
 13 33  1  0  0  0  0
 13 34  1  0  0  0  0
 14 15  1  0  0  0  0
 14 35  1  0  0  0  0
 15 16  2  0  0  0  0
 15 17  1  0  0  0  0
 17 18  1  0  0  0  0
 17 36  1  0  0  0  0
 18 19  2  0  0  0  0
 18 20  1  0  0  0  0
 20 24  1  0  0  0  0
 20 21  2  0  0  0  0
 21 22  1  0  0  0  0
 21 37  1  0  0  0  0
 22 23  2  0  0  0  0
 22 38  1  0  0  0  0
 23 24  1  0  0  0  0
 23 39  1  0  0  0  0
 25 40  1  0  0  0  0
 25 41  1  0  0  0  0
M  END
$$$$
ZINC02604103
  -OEChem-08230709453D

 45 47  0     0  0  0  0  0  0999 V2000
    1.7467    7.5323    3.2622 C   0  0  0  0  0  0  0  0  0  0  0  0
    0.3927    7.1551    2.6578 C   0  0  0  0  0  0  0  0  0  0  0  0
    0.3815    7.5073    1.1677 C   0  0  0  0  0  0  0  0  0  0  0  0
   -0.9520    7.0723    0.5556 C   0  0  0  0  0  0  0  0  0  0  0  0
   -1.1659    5.2690    2.1602 C   0  0  0  0  0  0  0  0  0  0  0  0
    0.1612    5.6502    2.8202 C   0  0  0  0  0  0  0  0  0  0  0  0
   -2.3288    5.1490    0.0404 C   0  0  0  0  0  0  0  0  0  0  0  0
   -2.3441    3.6420    0.0381 C   0  0  0  0  0  0  0  0  0  0  0  0
   -3.5223    2.9778    0.0346 N   0  0  0  0  0  0  0  0  0  0  0  0
   -4.3609    3.4653    0.0335 H   0  0  0  0  0  0  0  0  0  0  0  0
   -3.5163    1.5981    0.0330 C   0  0  0  0  0  0  0  0  0  0  0  0
   -4.6545    0.9226    0.0292 N   0  0  0  0  0  0  0  0  0  0  0  0
   -4.6404   -0.4398   -0.0824 C   0  0  0  0  0  0  0  0  0  0  0  0
   -4.5931   -1.0402   -1.3433 C   0  0  0  0  0  0  0  0  0  0  0  0
   -4.5739   -2.4153   -1.4484 C   0  0  0  0  0  0  0  0  0  0  0  0
   -4.6124   -3.2006   -0.3085 C   0  0  0  0  0  0  0  0  0  0  0  0
   -4.6651   -2.6121    0.9439 C   0  0  0  0  0  0  0  0  0  0  0  0
   -4.6791   -1.2382    1.0637 C   0  0  0  0  0  0  0  0  0  0  0  0
   -4.5952   -4.9307   -0.4502 Cl  0  0  0  0  0  0  0  0  0  0  0  0
   -2.3416    0.9503    0.0350 N   0  0  0  0  0  0  0  0  0  0  0  0
   -1.2099    1.6353    0.0385 C   0  0  0  0  0  0  0  0  0  0  0  0
   -1.2176    2.9764    0.0451 N   0  0  0  0  0  0  0  0  0  0  0  0
   -0.0110    0.9641    0.0410 N   0  0  0  0  0  0  0  0  0  0  0  0
    1.9131    8.6027    3.1411 H   0  0  0  0  0  0  0  0  0  0  0  0
    1.7537    7.2812    4.3229 H   0  0  0  0  0  0  0  0  0  0  0  0
    2.5378    6.9818    2.7533 H   0  0  0  0  0  0  0  0  0  0  0  0
   -0.3994    7.7035    3.1677 H   0  0  0  0  0  0  0  0  0  0  0  0
    1.1987    6.9897    0.6653 H   0  0  0  0  0  0  0  0  0  0  0  0
    0.5035    8.5837    1.0467 H   0  0  0  0  0  0  0  0  0  0  0  0
   -0.9575    7.3088   -0.5084 H   0  0  0  0  0  0  0  0  0  0  0  0
   -1.7676    7.6006    1.0494 H   0  0  0  0  0  0  0  0  0  0  0  0
   -1.9806    5.8058    2.6463 H   0  0  0  0  0  0  0  0  0  0  0  0
   -1.3268    4.1957    2.2616 H   0  0  0  0  0  0  0  0  0  0  0  0
    0.9749    5.1034    2.3437 H   0  0  0  0  0  0  0  0  0  0  0  0
    0.1262    5.3998    3.8804 H   0  0  0  0  0  0  0  0  0  0  0  0
   -2.3229    5.5138   -0.9867 H   0  0  0  0  0  0  0  0  0  0  0  0
   -3.2162    5.5205    0.5529 H   0  0  0  0  0  0  0  0  0  0  0  0
   -4.5672   -0.4289   -2.2332 H   0  0  0  0  0  0  0  0  0  0  0  0
   -4.5329   -2.8807   -2.4221 H   0  0  0  0  0  0  0  0  0  0  0  0
   -4.6950   -3.2305    1.8289 H   0  0  0  0  0  0  0  0  0  0  0  0
   -4.7195   -0.7805    2.0411 H   0  0  0  0  0  0  0  0  0  0  0  0
    0.0018   -0.0059    0.0402 H   0  0  0  0  0  0  0  0  0  0  0  0
    0.8225    1.4601    0.0395 H   0  0  0  0  0  0  0  0  0  0  0  0
   -1.1029    5.6113    0.7233 N   0  3  0  0  0  0  0  0  0  0  0  0
   -0.2910    5.1425    0.3045 H   0  0  0  0  0  0  0  0  0  0  0  0
  1  2  1  0  0  0  0
  1 24  1  0  0  0  0
  1 25  1  0  0  0  0
  1 26  1  0  0  0  0
  2  6  1  0  0  0  0
  2  3  1  0  0  0  0
  2 27  1  0  0  0  0
  3  4  1  0  0  0  0
  3 28  1  0  0  0  0
  3 29  1  0  0  0  0
  4 30  1  0  0  0  0
  4 31  1  0  0  0  0
  4 44  1  0  0  0  0
  5  6  1  0  0  0  0
  5 32  1  0  0  0  0
  5 33  1  0  0  0  0
  5 44  1  0  0  0  0
  6 34  1  0  0  0  0
  6 35  1  0  0  0  0
  7  8  1  0  0  0  0
  7 36  1  0  0  0  0
  7 37  1  0  0  0  0
  7 44  1  0  0  0  0
  8 22  2  0  0  0  0
  8  9  1  0  0  0  0
  9 10  1  0  0  0  0
  9 11  1  0  0  0  0
 11 12  2  0  0  0  0
 11 20  1  0  0  0  0
 12 13  1  0  0  0  0
 13 18  2  0  0  0  0
 13 14  1  0  0  0  0
 14 15  2  0  0  0  0
 14 38  1  0  0  0  0
 15 16  1  0  0  0  0
 15 39  1  0  0  0  0
 16 17  2  0  0  0  0
 16 19  1  0  0  0  0
 17 18  1  0  0  0  0
 17 40  1  0  0  0  0
 18 41  1  0  0  0  0
 20 21  2  0  0  0  0
 21 22  1  0  0  0  0
 21 23  1  0  0  0  0
 23 42  1  0  0  0  0
 23 43  1  0  0  0  0
 44 45  1  0  0  0  0
M  CHG  1  44   1
M  END
$$$$
ZINC02607001
  -OEChem-08230709453D

 41 42  0     0  0  0  0  0  0999 V2000
   -0.5496    1.9462   -3.7218 C   0  0  0  0  0  0  0  0  0  0  0  0
    0.0642    1.2706   -2.4940 C   0  0  0  0  0  0  0  0  0  0  0  0
   -0.6465    1.7634   -1.2319 C   0  0  0  0  0  0  0  0  0  0  0  0
   -0.0327    1.0878   -0.0041 C   0  0  0  0  0  0  0  0  0  0  0  0
   -0.7327    1.5733    1.2390 C   0  0  0  0  0  0  0  0  0  0  0  0
   -0.2582    2.6867    1.9078 C   0  0  0  0  0  0  0  0  0  0  0  0
   -0.9004    3.1370    3.0446 C   0  0  0  0  0  0  0  0  0  0  0  0
   -2.0178    2.4644    3.5216 C   0  0  0  0  0  0  0  0  0  0  0  0
   -2.4887    1.3434    2.8506 C   0  0  0  0  0  0  0  0  0  0  0  0
   -1.8448    0.9010    1.7117 C   0  0  0  0  0  0  0  0  0  0  0  0
   -2.6681    2.9154    4.6756 N   0  0  0  0  0  0  0  0  0  0  0  0
   -3.2486    2.0314    5.5111 C   0  0  0  0  0  0  0  0  0  0  0  0
   -3.1260    0.8408    5.3148 O   0  0  0  0  0  0  0  0  0  0  0  0
   -4.0500    2.5223    6.6891 C   0  0  0  0  0  0  0  0  0  0  0  0
   -4.6970    1.1024    7.6142 S   0  0  0  0  0  0  0  0  0  0  0  0
   -5.5978    1.8326    8.9409 C   0  0  0  0  0  0  0  0  0  0  0  0
   -6.2848    0.9885    9.9326 C   0  0  0  0  0  0  0  0  0  0  0  0
   -6.2384   -0.2244    9.8482 O   0  0  0  0  0  0  0  0  0  0  0  0
   -6.9661    1.5786   10.9366 N   0  0  0  0  0  0  0  0  0  0  0  0
   -7.4372    1.0180   11.6176 H   0  0  0  0  0  0  0  0  0  0  0  0
   -7.0124    2.9210   11.0226 C   0  0  0  0  0  0  0  0  0  0  0  0
   -7.6304    3.4406   11.9323 O   0  0  0  0  0  0  0  0  0  0  0  0
   -6.3870    3.6976   10.1207 N   0  0  0  0  0  0  0  0  0  0  0  0
   -6.4356    4.6627   10.2055 H   0  0  0  0  0  0  0  0  0  0  0  0
   -5.6625    3.1338    9.0638 N   0  0  0  0  0  0  0  0  0  0  0  0
   -0.4336    3.0267   -3.6380 H   0  0  0  0  0  0  0  0  0  0  0  0
   -0.0433    1.5950   -4.6209 H   0  0  0  0  0  0  0  0  0  0  0  0
   -1.6093    1.6981   -3.7813 H   0  0  0  0  0  0  0  0  0  0  0  0
    1.1240    1.5187   -2.4345 H   0  0  0  0  0  0  0  0  0  0  0  0
   -0.0518    0.1900   -2.5778 H   0  0  0  0  0  0  0  0  0  0  0  0
   -1.7062    1.5153   -1.2914 H   0  0  0  0  0  0  0  0  0  0  0  0
   -0.5305    2.8440   -1.1481 H   0  0  0  0  0  0  0  0  0  0  0  0
   -0.1487    0.0073   -0.0879 H   0  0  0  0  0  0  0  0  0  0  0  0
    1.0271    1.3359    0.0554 H   0  0  0  0  0  0  0  0  0  0  0  0
    0.6133    3.2070    1.5387 H   0  0  0  0  0  0  0  0  0  0  0  0
   -0.5318    4.0091    3.5642 H   0  0  0  0  0  0  0  0  0  0  0  0
   -3.3576    0.8183    3.2189 H   0  0  0  0  0  0  0  0  0  0  0  0
   -2.2106    0.0293    1.1894 H   0  0  0  0  0  0  0  0  0  0  0  0
   -2.7011    3.8643    4.8742 H   0  0  0  0  0  0  0  0  0  0  0  0
   -3.4110    3.1192    7.3399 H   0  0  0  0  0  0  0  0  0  0  0  0
   -4.8798    3.1337    6.3346 H   0  0  0  0  0  0  0  0  0  0  0  0
  1  2  1  0  0  0  0
  1 26  1  0  0  0  0
  1 27  1  0  0  0  0
  1 28  1  0  0  0  0
  2  3  1  0  0  0  0
  2 29  1  0  0  0  0
  2 30  1  0  0  0  0
  3  4  1  0  0  0  0
  3 31  1  0  0  0  0
  3 32  1  0  0  0  0
  4  5  1  0  0  0  0
  4 33  1  0  0  0  0
  4 34  1  0  0  0  0
  5 10  2  0  0  0  0
  5  6  1  0  0  0  0
  6  7  2  0  0  0  0
  6 35  1  0  0  0  0
  7  8  1  0  0  0  0
  7 36  1  0  0  0  0
  8  9  2  0  0  0  0
  8 11  1  0  0  0  0
  9 10  1  0  0  0  0
  9 37  1  0  0  0  0
 10 38  1  0  0  0  0
 11 12  1  0  0  0  0
 11 39  1  0  0  0  0
 12 13  2  0  0  0  0
 12 14  1  0  0  0  0
 14 15  1  0  0  0  0
 14 40  1  0  0  0  0
 14 41  1  0  0  0  0
 15 16  1  0  0  0  0
 16 25  2  0  0  0  0
 16 17  1  0  0  0  0
 17 18  2  0  0  0  0
 17 19  1  0  0  0  0
 19 20  1  0  0  0  0
 19 21  1  0  0  0  0
 21 22  2  0  0  0  0
 21 23  1  0  0  0  0
 23 24  1  0  0  0  0
 23 25  1  0  0  0  0
M  END
$$$$
ZINC02616973
  -OEChem-08230709453D

 42 44  0     0  0  0  0  0  0999 V2000
   -1.2622   -0.6701    0.0105 C   0  0  0  0  0  0  0  0  0  0  0  0
    0.0021   -0.0041    0.0020 O   0  0  0  0  0  0  0  0  0  0  0  0
   -0.0164    1.3557    0.0095 C   0  0  0  0  0  0  0  0  0  0  0  0
   -1.2248    2.0337    0.0189 C   0  0  0  0  0  0  0  0  0  0  0  0
   -1.2417    3.4160    0.0319 C   0  0  0  0  0  0  0  0  0  0  0  0
   -0.0548    4.1250    0.0248 C   0  0  0  0  0  0  0  0  0  0  0  0
    1.1542    3.4548    0.0096 C   0  0  0  0  0  0  0  0  0  0  0  0
    1.1782    2.0694    0.0019 C   0  0  0  0  0  0  0  0  0  0  0  0
    2.3667    1.4085   -0.0135 O   0  0  0  0  0  0  0  0  0  0  0  0
    3.5524    2.2061   -0.0205 C   0  0  0  0  0  0  0  0  0  0  0  0
    4.7621    1.3075   -0.0374 C   0  0  0  0  0  0  0  0  0  0  0  0
    4.6226    0.1028   -0.0430 O   0  0  0  0  0  0  0  0  0  0  0  0
    5.9990    1.8427   -0.0464 N   0  0  0  0  0  0  0  0  0  0  0  0
    7.1121    1.0159   -0.0621 C   0  0  0  0  0  0  0  0  0  0  0  0
    8.4493    1.3736   -0.0787 C   0  0  0  0  0  0  0  0  0  0  0  0
    9.4384    0.2964   -0.0891 C   0  0  0  0  0  0  0  0  0  0  0  0
    8.9275   -0.9480   -0.0909 C   0  0  0  0  0  0  0  0  0  0  0  0
    7.1670   -0.7139   -0.0731 S   0  0  0  0  0  0  0  0  0  0  0  0
   10.0038   -1.9996   -0.1047 C   0  0  0  0  0  0  0  0  0  0  0  0
   11.2847   -1.2510    0.3253 C   0  0  0  0  0  0  0  0  0  0  0  0
   10.9641    0.1938   -0.1064 C   0  0  0  0  0  0  0  0  0  0  0  0
    8.8592    2.7814   -0.0817 C   0  0  0  0  0  0  0  0  0  0  0  0
    9.0433    3.3639    0.9710 O   0  0  0  0  0  0  0  0  0  0  0  0
    9.0320    3.4304   -1.2502 N   0  0  0  0  0  0  0  0  0  0  0  0
   -1.8316   -0.3800   -0.8725 H   0  0  0  0  0  0  0  0  0  0  0  0
   -1.1047   -1.7486    0.0032 H   0  0  0  0  0  0  0  0  0  0  0  0
   -1.8146   -0.3896    0.9073 H   0  0  0  0  0  0  0  0  0  0  0  0
   -2.1534    1.4823    0.0199 H   0  0  0  0  0  0  0  0  0  0  0  0
   -2.1842    3.9432    0.0430 H   0  0  0  0  0  0  0  0  0  0  0  0
   -0.0722    5.2048    0.0308 H   0  0  0  0  0  0  0  0  0  0  0  0
    2.0799    4.0110    0.0034 H   0  0  0  0  0  0  0  0  0  0  0  0
    3.5585    2.8403   -0.9069 H   0  0  0  0  0  0  0  0  0  0  0  0
    3.5759    2.8301    0.8729 H   0  0  0  0  0  0  0  0  0  0  0  0
    6.1106    2.8062   -0.0420 H   0  0  0  0  0  0  0  0  0  0  0  0
    9.7699   -2.7922    0.6060 H   0  0  0  0  0  0  0  0  0  0  0  0
   10.1217   -2.4097   -1.1077 H   0  0  0  0  0  0  0  0  0  0  0  0
   11.4292   -1.3129    1.4039 H   0  0  0  0  0  0  0  0  0  0  0  0
   12.1565   -1.6326   -0.2061 H   0  0  0  0  0  0  0  0  0  0  0  0
   11.3978    0.9031    0.5986 H   0  0  0  0  0  0  0  0  0  0  0  0
   11.3446    0.3806   -1.1106 H   0  0  0  0  0  0  0  0  0  0  0  0
    8.8853    2.9662   -2.0892 H   0  0  0  0  0  0  0  0  0  0  0  0
    9.3032    4.3617   -1.2522 H   0  0  0  0  0  0  0  0  0  0  0  0
  1  2  1  0  0  0  0
  1 25  1  0  0  0  0
  1 26  1  0  0  0  0
  1 27  1  0  0  0  0
  2  3  1  0  0  0  0
  3  8  2  0  0  0  0
  3  4  1  0  0  0  0
  4  5  2  0  0  0  0
  4 28  1  0  0  0  0
  5  6  1  0  0  0  0
  5 29  1  0  0  0  0
  6  7  2  0  0  0  0
  6 30  1  0  0  0  0
  7  8  1  0  0  0  0
  7 31  1  0  0  0  0
  8  9  1  0  0  0  0
  9 10  1  0  0  0  0
 10 11  1  0  0  0  0
 10 32  1  0  0  0  0
 10 33  1  0  0  0  0
 11 12  2  0  0  0  0
 11 13  1  0  0  0  0
 13 14  1  0  0  0  0
 13 34  1  0  0  0  0
 14 18  1  0  0  0  0
 14 15  2  0  0  0  0
 15 16  1  0  0  0  0
 15 22  1  0  0  0  0
 16 21  1  0  0  0  0
 16 17  2  0  0  0  0
 17 18  1  0  0  0  0
 17 19  1  0  0  0  0
 19 20  1  0  0  0  0
 19 35  1  0  0  0  0
 19 36  1  0  0  0  0
 20 21  1  0  0  0  0
 20 37  1  0  0  0  0
 20 38  1  0  0  0  0
 21 39  1  0  0  0  0
 21 40  1  0  0  0  0
 22 23  2  0  0  0  0
 22 24  1  0  0  0  0
 24 41  1  0  0  0  0
 24 42  1  0  0  0  0
M  END
$$$$
ZINC02622181
  -OEChem-08230709453D

 43 45  0     0  0  0  0  0  0999 V2000
    3.5204    2.2708    0.0427 C   0  0  0  0  0  0  0  0  0  0  0  0
    2.3012    1.4588    0.0217 N   0  0  0  0  0  0  0  0  0  0  0  0
    2.3981    0.1146    0.0094 C   0  0  0  0  0  0  0  0  0  0  0  0
    3.4900   -0.4240    0.0152 O   0  0  0  0  0  0  0  0  0  0  0  0
    1.2107   -0.6673   -0.0110 C   0  0  0  0  0  0  0  0  0  0  0  0
   -0.0237   -0.0060   -0.0175 C   0  0  0  0  0  0  0  0  0  0  0  0
   -0.0442    1.3617   -0.0041 N   0  0  0  0  0  0  0  0  0  0  0  0
    1.1016    2.0645    0.0150 C   0  0  0  0  0  0  0  0  0  0  0  0
    1.0513    3.2789    0.0265 O   0  0  0  0  0  0  0  0  0  0  0  0
   -1.3277    2.0678   -0.0169 C   0  0  0  0  0  0  0  0  0  0  0  0
   -1.7897    2.2957    1.3993 C   0  0  0  0  0  0  0  0  0  0  0  0
   -2.5831    1.3540    2.0275 C   0  0  0  0  0  0  0  0  0  0  0  0
   -3.0030    1.5608    3.3282 C   0  0  0  0  0  0  0  0  0  0  0  0
   -2.6381    2.7141    3.9972 C   0  0  0  0  0  0  0  0  0  0  0  0
   -1.8490    3.6583    3.3672 C   0  0  0  0  0  0  0  0  0  0  0  0
   -1.4249    3.4491    2.0683 C   0  0  0  0  0  0  0  0  0  0  0  0
   -1.1876   -0.7147   -0.0365 N   0  0  0  0  0  0  0  0  0  0  0  0
    1.2770   -2.1286   -0.0253 C   0  0  0  0  0  0  0  0  0  0  0  0
    1.3321   -2.9974    1.4488 S   0  0  0  0  0  0  0  0  0  0  0  0
    1.2947   -2.7909   -1.1990 N   0  0  0  0  0  0  0  0  0  0  0  0
    1.2412   -4.1375   -1.2137 C   0  0  0  0  0  0  0  0  0  0  0  0
    1.1772   -4.7531   -0.1711 O   0  0  0  0  0  0  0  0  0  0  0  0
    1.2610   -4.8781   -2.5261 C   0  0  0  0  0  0  0  0  0  0  0  0
   -0.0180   -5.6050   -2.9464 C   0  0  0  0  0  0  0  0  0  0  0  0
    1.1978   -6.4059   -2.4761 C   0  0  0  0  0  0  0  0  0  0  0  0
    4.3925    1.6169    0.0455 H   0  0  0  0  0  0  0  0  0  0  0  0
    3.5474    2.9087   -0.8407 H   0  0  0  0  0  0  0  0  0  0  0  0
    3.5285    2.8910    0.9391 H   0  0  0  0  0  0  0  0  0  0  0  0
   -1.2093    3.0278   -0.5193 H   0  0  0  0  0  0  0  0  0  0  0  0
   -2.0669    1.4684   -0.5482 H   0  0  0  0  0  0  0  0  0  0  0  0
   -2.8719    0.4550    1.5033 H   0  0  0  0  0  0  0  0  0  0  0  0
   -3.6197    0.8233    3.8203 H   0  0  0  0  0  0  0  0  0  0  0  0
   -2.9697    2.8778    5.0119 H   0  0  0  0  0  0  0  0  0  0  0  0
   -1.5642    4.5596    3.8897 H   0  0  0  0  0  0  0  0  0  0  0  0
   -0.8087    4.1869    1.5760 H   0  0  0  0  0  0  0  0  0  0  0  0
   -2.0379   -0.2528    0.0314 H   0  0  0  0  0  0  0  0  0  0  0  0
   -1.1658   -1.6810   -0.1178 H   0  0  0  0  0  0  0  0  0  0  0  0
    1.3460   -2.2984   -2.0331 H   0  0  0  0  0  0  0  0  0  0  0  0
    1.8643   -4.4248   -3.3126 H   0  0  0  0  0  0  0  0  0  0  0  0
   -0.8737   -5.5476   -2.2737 H   0  0  0  0  0  0  0  0  0  0  0  0
   -0.2564   -5.6299   -4.0097 H   0  0  0  0  0  0  0  0  0  0  0  0
    1.7592   -6.9578   -3.2299 H   0  0  0  0  0  0  0  0  0  0  0  0
    1.1423   -6.8755   -1.4940 H   0  0  0  0  0  0  0  0  0  0  0  0
  1  2  1  0  0  0  0
  1 26  1  0  0  0  0
  1 27  1  0  0  0  0
  1 28  1  0  0  0  0
  2  8  1  0  0  0  0
  2  3  1  0  0  0  0
  3  4  2  0  0  0  0
  3  5  1  0  0  0  0
  5  6  2  0  0  0  0
  5 18  1  0  0  0  0
  6  7  1  0  0  0  0
  6 17  1  0  0  0  0
  7  8  1  0  0  0  0
  7 10  1  0  0  0  0
  8  9  2  0  0  0  0
 10 11  1  0  0  0  0
 10 29  1  0  0  0  0
 10 30  1  0  0  0  0
 11 16  2  0  0  0  0
 11 12  1  0  0  0  0
 12 13  2  0  0  0  0
 12 31  1  0  0  0  0
 13 14  1  0  0  0  0
 13 32  1  0  0  0  0
 14 15  2  0  0  0  0
 14 33  1  0  0  0  0
 15 16  1  0  0  0  0
 15 34  1  0  0  0  0
 16 35  1  0  0  0  0
 17 36  1  0  0  0  0
 17 37  1  0  0  0  0
 18 19  2  0  0  0  0
 18 20  1  0  0  0  0
 20 21  1  0  0  0  0
 20 38  1  0  0  0  0
 21 22  2  0  0  0  0
 21 23  1  0  0  0  0
 23 25  1  0  0  0  0
 23 24  1  0  0  0  0
 23 39  1  0  0  0  0
 24 25  1  0  0  0  0
 24 40  1  0  0  0  0
 24 41  1  0  0  0  0
 25 42  1  0  0  0  0
 25 43  1  0  0  0  0
M  END
$$$$
ZINC02622456
  -OEChem-08230709453D

 46 47  0     1  0  0  0  0  0999 V2000
    1.2711   10.5331    2.0235 C   0  0  0  0  0  0  0  0  0  0  0  0
    1.1546   10.2072    0.5331 C   0  0  0  0  0  0  0  0  0  0  0  0
    0.7568   11.4690   -0.2353 C   0  0  0  0  0  0  0  0  0  0  0  0
    2.5014    9.6983    0.0156 C   0  0  0  0  0  0  0  0  0  0  0  0
    2.8400    8.3699    0.6951 C   0  0  0  0  0  0  0  0  0  0  0  0
    4.1869    7.8610    0.1775 C   0  0  1  0  0  0  0  0  0  0  0  0
    4.4902    6.4871    0.7415 C   0  0  0  0  0  0  0  0  0  0  0  0
    4.6247    6.1880    1.9086 O   0  0  0  0  0  0  0  0  0  0  0  0
    4.5786    5.6671   -0.3244 N   0  0  0  0  0  0  0  0  0  0  0  0
    4.3802    6.3261   -1.4717 C   0  0  0  0  0  0  0  0  0  0  0  0
    4.4147    5.8008   -2.5672 O   0  0  0  0  0  0  0  0  0  0  0  0
    4.1346    7.6344   -1.2771 N   0  0  0  0  0  0  0  0  0  0  0  0
    4.8629    4.2326   -0.2378 C   0  0  0  0  0  0  0  0  0  0  0  0
    3.5687    3.4704   -0.1155 C   0  0  0  0  0  0  0  0  0  0  0  0
    2.5126    4.0668   -0.1020 O   0  0  0  0  0  0  0  0  0  0  0  0
    3.5846    2.1261   -0.0211 N   0  0  0  0  0  0  0  0  0  0  0  0
    2.3812    1.4100   -0.0188 C   0  0  0  0  0  0  0  0  0  0  0  0
    2.2699    0.2400    0.7204 C   0  0  0  0  0  0  0  0  0  0  0  0
    1.0820   -0.4646    0.7217 C   0  0  0  0  0  0  0  0  0  0  0  0
    0.0024   -0.0048   -0.0136 C   0  0  0  0  0  0  0  0  0  0  0  0
    0.1114    1.1619   -0.7515 C   0  0  0  0  0  0  0  0  0  0  0  0
    1.2976    1.8694   -0.7554 C   0  0  0  0  0  0  0  0  0  0  0  0
   -1.1586   -0.6956   -0.0113 F   0  0  0  0  0  0  0  0  0  0  0  0
    5.3037    8.8458    0.5291 C   0  0  0  0  0  0  0  0  0  0  0  0
    0.3116   10.8957    2.3922 H   0  0  0  0  0  0  0  0  0  0  0  0
    1.5545    9.6342    2.5709 H   0  0  0  0  0  0  0  0  0  0  0  0
    2.0302   11.3017    2.1690 H   0  0  0  0  0  0  0  0  0  0  0  0
    0.3955    9.4387    0.3875 H   0  0  0  0  0  0  0  0  0  0  0  0
    0.6738   11.2368   -1.2970 H   0  0  0  0  0  0  0  0  0  0  0  0
   -0.2028   11.8316    0.1334 H   0  0  0  0  0  0  0  0  0  0  0  0
    1.5159   12.2376   -0.0897 H   0  0  0  0  0  0  0  0  0  0  0  0
    3.2773   10.4299    0.2411 H   0  0  0  0  0  0  0  0  0  0  0  0
    2.4439    9.5504   -1.0628 H   0  0  0  0  0  0  0  0  0  0  0  0
    2.0641    7.6383    0.4696 H   0  0  0  0  0  0  0  0  0  0  0  0
    2.8975    8.5178    1.7735 H   0  0  0  0  0  0  0  0  0  0  0  0
    3.9601    8.2994   -1.9614 H   0  0  0  0  0  0  0  0  0  0  0  0
    5.4836    4.0374    0.6367 H   0  0  0  0  0  0  0  0  0  0  0  0
    5.3900    3.9118   -1.1363 H   0  0  0  0  0  0  0  0  0  0  0  0
    4.4297    1.6545    0.0452 H   0  0  0  0  0  0  0  0  0  0  0  0
    3.1117   -0.1190    1.2940 H   0  0  0  0  0  0  0  0  0  0  0  0
    0.9936   -1.3723    1.3001 H   0  0  0  0  0  0  0  0  0  0  0  0
   -0.7319    1.5190   -1.3240 H   0  0  0  0  0  0  0  0  0  0  0  0
    1.3822    2.7790   -1.3314 H   0  0  0  0  0  0  0  0  0  0  0  0
    6.2478    8.4856    0.1202 H   0  0  0  0  0  0  0  0  0  0  0  0
    5.0733    9.8231    0.1048 H   0  0  0  0  0  0  0  0  0  0  0  0
    5.3858    8.9304    1.6127 H   0  0  0  0  0  0  0  0  0  0  0  0
  1  2  1  0  0  0  0
  1 25  1  0  0  0  0
  1 26  1  0  0  0  0
  1 27  1  0  0  0  0
  2  3  1  0  0  0  0
  2  4  1  0  0  0  0
  2 28  1  0  0  0  0
  3 29  1  0  0  0  0
  3 30  1  0  0  0  0
  3 31  1  0  0  0  0
  4  5  1  0  0  0  0
  4 32  1  0  0  0  0
  4 33  1  0  0  0  0
  5  6  1  0  0  0  0
  5 34  1  0  0  0  0
  5 35  1  0  0  0  0
  6 12  1  0  0  0  0
  6  7  1  0  0  0  0
  6 24  1  0  0  0  0
  7  8  2  0  0  0  0
  7  9  1  0  0  0  0
  9 10  1  0  0  0  0
  9 13  1  0  0  0  0
 10 11  2  0  0  0  0
 10 12  1  0  0  0  0
 12 36  1  0  0  0  0
 13 14  1  0  0  0  0
 13 37  1  0  0  0  0
 13 38  1  0  0  0  0
 14 15  2  0  0  0  0
 14 16  1  0  0  0  0
 16 17  1  0  0  0  0
 16 39  1  0  0  0  0
 17 22  2  0  0  0  0
 17 18  1  0  0  0  0
 18 19  2  0  0  0  0
 18 40  1  0  0  0  0
 19 20  1  0  0  0  0
 19 41  1  0  0  0  0
 20 21  2  0  0  0  0
 20 23  1  0  0  0  0
 21 22  1  0  0  0  0
 21 42  1  0  0  0  0
 22 43  1  0  0  0  0
 24 44  1  0  0  0  0
 24 45  1  0  0  0  0
 24 46  1  0  0  0  0
M  END
$$$$
ZINC02622457
  -OEChem-08230709453D

 46 47  0     1  0  0  0  0  0999 V2000
    0.6477   -2.4777    3.8423 C   0  0  0  0  0  0  0  0  0  0  0  0
    0.7246   -0.9508    3.7843 C   0  0  0  0  0  0  0  0  0  0  0  0
    2.1908   -0.5150    3.7481 C   0  0  0  0  0  0  0  0  0  0  0  0
    0.0130   -0.4518    2.5251 C   0  0  0  0  0  0  0  0  0  0  0  0
   -0.0192    1.0779    2.5298 C   0  0  0  0  0  0  0  0  0  0  0  0
   -0.7308    1.5769    1.2706 C   0  0  2  0  0  0  0  0  0  0  0  0
   -0.8233    3.0899    1.2745 C   0  0  0  0  0  0  0  0  0  0  0  0
    0.0963    3.8797    1.2824 O   0  0  0  0  0  0  0  0  0  0  0  0
   -2.1449    3.3709    1.2665 N   0  0  0  0  0  0  0  0  0  0  0  0
   -2.8871    2.2577    1.2611 C   0  0  0  0  0  0  0  0  0  0  0  0
   -4.1024    2.2561    1.2552 O   0  0  0  0  0  0  0  0  0  0  0  0
   -2.1377    1.1405    1.2631 N   0  0  0  0  0  0  0  0  0  0  0  0
   -2.6968    4.7280    1.2667 C   0  0  0  0  0  0  0  0  0  0  0  0
   -2.8928    5.1904    2.6876 C   0  0  0  0  0  0  0  0  0  0  0  0
   -2.6002    4.4583    3.6094 O   0  0  0  0  0  0  0  0  0  0  0  0
   -3.3931    6.4173    2.9341 N   0  0  0  0  0  0  0  0  0  0  0  0
   -3.6660    6.8108    4.2499 C   0  0  0  0  0  0  0  0  0  0  0  0
   -4.7506    7.6352    4.5183 C   0  0  0  0  0  0  0  0  0  0  0  0
   -5.0214    8.0174    5.8175 C   0  0  0  0  0  0  0  0  0  0  0  0
   -4.2055    7.5884    6.8508 C   0  0  0  0  0  0  0  0  0  0  0  0
   -3.1200    6.7708    6.5846 C   0  0  0  0  0  0  0  0  0  0  0  0
   -2.8491    6.3816    5.2875 C   0  0  0  0  0  0  0  0  0  0  0  0
   -4.4691    7.9676    8.1205 F   0  0  0  0  0  0  0  0  0  0  0  0
   -0.0079    1.0850    0.0151 C   0  0  0  0  0  0  0  0  0  0  0  0
    1.1305   -2.8996    2.9608 H   0  0  0  0  0  0  0  0  0  0  0  0
    1.1547   -2.8332    4.7394 H   0  0  0  0  0  0  0  0  0  0  0  0
   -0.3968   -2.7882    3.8681 H   0  0  0  0  0  0  0  0  0  0  0  0
    0.2418   -0.5289    4.6658 H   0  0  0  0  0  0  0  0  0  0  0  0
    2.2456    0.5729    3.7068 H   0  0  0  0  0  0  0  0  0  0  0  0
    2.6977   -0.8705    4.6452 H   0  0  0  0  0  0  0  0  0  0  0  0
    2.6736   -0.9368    2.8666 H   0  0  0  0  0  0  0  0  0  0  0  0
   -1.0066   -0.8366    2.5074 H   0  0  0  0  0  0  0  0  0  0  0  0
    0.5486   -0.8012    1.6425 H   0  0  0  0  0  0  0  0  0  0  0  0
    1.0005    1.4627    2.5475 H   0  0  0  0  0  0  0  0  0  0  0  0
   -0.5548    1.4273    3.4125 H   0  0  0  0  0  0  0  0  0  0  0  0
   -2.4609    0.2259    1.2605 H   0  0  0  0  0  0  0  0  0  0  0  0
   -2.0069    5.4009    0.7575 H   0  0  0  0  0  0  0  0  0  0  0  0
   -3.6557    4.7304    0.7483 H   0  0  0  0  0  0  0  0  0  0  0  0
   -3.5642    7.0278    2.1999 H   0  0  0  0  0  0  0  0  0  0  0  0
   -5.3846    7.9736    3.7121 H   0  0  0  0  0  0  0  0  0  0  0  0
   -5.8673    8.6553    6.0272 H   0  0  0  0  0  0  0  0  0  0  0  0
   -2.4847    6.4376    7.3919 H   0  0  0  0  0  0  0  0  0  0  0  0
   -2.0022    5.7443    5.0802 H   0  0  0  0  0  0  0  0  0  0  0  0
    0.0041   -0.0049    0.0062 H   0  0  0  0  0  0  0  0  0  0  0  0
    1.0157    1.4597    0.0149 H   0  0  0  0  0  0  0  0  0  0  0  0
   -0.5285    1.4499   -0.8704 H   0  0  0  0  0  0  0  0  0  0  0  0
  1  2  1  0  0  0  0
  1 25  1  0  0  0  0
  1 26  1  0  0  0  0
  1 27  1  0  0  0  0
  2  3  1  0  0  0  0
  2  4  1  0  0  0  0
  2 28  1  0  0  0  0
  3 29  1  0  0  0  0
  3 30  1  0  0  0  0
  3 31  1  0  0  0  0
  4  5  1  0  0  0  0
  4 32  1  0  0  0  0
  4 33  1  0  0  0  0
  5  6  1  0  0  0  0
  5 34  1  0  0  0  0
  5 35  1  0  0  0  0
  6 12  1  0  0  0  0
  6  7  1  0  0  0  0
  6 24  1  0  0  0  0
  7  8  2  0  0  0  0
  7  9  1  0  0  0  0
  9 10  1  0  0  0  0
  9 13  1  0  0  0  0
 10 11  2  0  0  0  0
 10 12  1  0  0  0  0
 12 36  1  0  0  0  0
 13 14  1  0  0  0  0
 13 37  1  0  0  0  0
 13 38  1  0  0  0  0
 14 15  2  0  0  0  0
 14 16  1  0  0  0  0
 16 17  1  0  0  0  0
 16 39  1  0  0  0  0
 17 22  2  0  0  0  0
 17 18  1  0  0  0  0
 18 19  2  0  0  0  0
 18 40  1  0  0  0  0
 19 20  1  0  0  0  0
 19 41  1  0  0  0  0
 20 21  2  0  0  0  0
 20 23  1  0  0  0  0
 21 22  1  0  0  0  0
 21 42  1  0  0  0  0
 22 43  1  0  0  0  0
 24 44  1  0  0  0  0
 24 45  1  0  0  0  0
 24 46  1  0  0  0  0
M  END
$$$$
ZINC02626432
  -OEChem-08230709453D

 45 48  0     0  0  0  0  0  0999 V2000
   -1.4564   -0.7583   -1.6649 C   0  0  0  0  0  0  0  0  0  0  0  0
   -2.5691    0.2197   -1.3885 C   0  0  0  0  0  0  0  0  0  0  0  0
   -2.4769    1.4267   -0.5705 C   0  0  0  0  0  0  0  0  0  0  0  0
   -1.4351    2.0327    0.1650 C   0  0  0  0  0  0  0  0  0  0  0  0
   -1.7192    3.2094    0.8489 C   0  0  0  0  0  0  0  0  0  0  0  0
   -3.0099    3.7472    0.7721 C   0  0  0  0  0  0  0  0  0  0  0  0
   -3.9652    3.1506    0.0713 N   0  0  0  0  0  0  0  0  0  0  0  0
   -3.7480    2.0266   -0.5924 C   0  0  0  0  0  0  0  0  0  0  0  0
   -4.5363    1.2454   -1.3589 O   0  0  0  0  0  0  0  0  0  0  0  0
   -3.7872    0.1451   -1.8335 N   0  0  0  0  0  0  0  0  0  0  0  0
   -3.3151    4.9988    1.4904 C   0  0  0  0  0  0  0  0  0  0  0  0
   -4.4958    5.6934    1.5529 C   0  0  0  0  0  0  0  0  0  0  0  0
   -4.5444    6.8490    2.2977 C   0  0  0  0  0  0  0  0  0  0  0  0
   -3.4228    7.2717    2.9388 C   0  0  0  0  0  0  0  0  0  0  0  0
   -2.2413    6.0079    2.4986 S   0  0  0  0  0  0  0  0  0  0  0  0
   -0.0845    1.4309    0.2114 C   0  0  0  0  0  0  0  0  0  0  0  0
    0.0426    0.2213    0.2105 O   0  0  0  0  0  0  0  0  0  0  0  0
    1.0052    2.2229    0.2492 N   0  0  0  0  0  0  0  0  0  0  0  0
    2.2845    1.6530    0.2874 N   0  0  0  0  0  0  0  0  0  0  0  0
    3.3261    2.4090    0.4277 C   0  0  0  0  0  0  0  0  0  0  0  0
    3.1582    3.9077    0.6692 C   0  0  0  0  0  0  0  0  0  0  0  0
    3.6003    4.1784    2.0974 C   0  0  0  0  0  0  0  0  0  0  0  0
    5.0966    4.4678    2.2282 C   0  0  0  0  0  0  0  0  0  0  0  0
    5.9667    3.5314    1.3893 C   0  0  0  0  0  0  0  0  0  0  0  0
    5.5237    2.0860    1.4520 C   0  0  0  0  0  0  0  0  0  0  0  0
    4.5464    1.8840    0.3566 N   0  0  0  0  0  0  0  0  0  0  0  0
   -1.3889   -1.4731   -0.8448 H   0  0  0  0  0  0  0  0  0  0  0  0
   -1.6622   -1.2897   -2.5941 H   0  0  0  0  0  0  0  0  0  0  0  0
   -0.5133   -0.2194   -1.7557 H   0  0  0  0  0  0  0  0  0  0  0  0
   -0.9535    3.7045    1.4276 H   0  0  0  0  0  0  0  0  0  0  0  0
   -5.3714    5.3386    1.0297 H   0  0  0  0  0  0  0  0  0  0  0  0
   -5.4612    7.4154    2.3689 H   0  0  0  0  0  0  0  0  0  0  0  0
   -3.2826    8.1469    3.5559 H   0  0  0  0  0  0  0  0  0  0  0  0
    0.9039    3.1876    0.2500 H   0  0  0  0  0  0  0  0  0  0  0  0
    3.7823    4.4680   -0.0270 H   0  0  0  0  0  0  0  0  0  0  0  0
    2.1130    4.1894    0.5413 H   0  0  0  0  0  0  0  0  0  0  0  0
    3.3581    3.3098    2.7096 H   0  0  0  0  0  0  0  0  0  0  0  0
    3.0447    5.0366    2.4755 H   0  0  0  0  0  0  0  0  0  0  0  0
    5.3825    4.3671    3.2752 H   0  0  0  0  0  0  0  0  0  0  0  0
    5.2835    5.4947    1.9140 H   0  0  0  0  0  0  0  0  0  0  0  0
    6.9951    3.5978    1.7445 H   0  0  0  0  0  0  0  0  0  0  0  0
    5.9360    3.8619    0.3511 H   0  0  0  0  0  0  0  0  0  0  0  0
    5.0518    1.8831    2.4134 H   0  0  0  0  0  0  0  0  0  0  0  0
    6.3805    1.4268    1.3122 H   0  0  0  0  0  0  0  0  0  0  0  0
    4.7993    1.3626   -0.4213 H   0  0  0  0  0  0  0  0  0  0  0  0
  1  2  1  0  0  0  0
  1 27  1  0  0  0  0
  1 28  1  0  0  0  0
  1 29  1  0  0  0  0
  2 10  2  0  0  0  0
  2  3  1  0  0  0  0
  3  8  2  0  0  0  0
  3  4  1  0  0  0  0
  4  5  2  0  0  0  0
  4 16  1  0  0  0  0
  5  6  1  0  0  0  0
  5 30  1  0  0  0  0
  6  7  2  0  0  0  0
  6 11  1  0  0  0  0
  7  8  1  0  0  0  0
  8  9  1  0  0  0  0
  9 10  1  0  0  0  0
 11 15  1  0  0  0  0
 11 12  2  0  0  0  0
 12 13  1  0  0  0  0
 12 31  1  0  0  0  0
 13 14  2  0  0  0  0
 13 32  1  0  0  0  0
 14 15  1  0  0  0  0
 14 33  1  0  0  0  0
 16 17  2  0  0  0  0
 16 18  1  0  0  0  0
 18 19  1  0  0  0  0
 18 34  1  0  0  0  0
 19 20  2  0  0  0  0
 20 26  1  0  0  0  0
 20 21  1  0  0  0  0
 21 22  1  0  0  0  0
 21 35  1  0  0  0  0
 21 36  1  0  0  0  0
 22 23  1  0  0  0  0
 22 37  1  0  0  0  0
 22 38  1  0  0  0  0
 23 24  1  0  0  0  0
 23 39  1  0  0  0  0
 23 40  1  0  0  0  0
 24 25  1  0  0  0  0
 24 41  1  0  0  0  0
 24 42  1  0  0  0  0
 25 26  1  0  0  0  0
 25 43  1  0  0  0  0
 25 44  1  0  0  0  0
 26 45  1  0  0  0  0
M  END
$$$$
ZINC02628760
  -OEChem-08230709453D

 42 43  0     0  0  0  0  0  0999 V2000
    0.0119    8.3334    3.6250 C   0  0  0  0  0  0  0  0  0  0  0  0
   -0.5280    8.9151    2.4366 O   0  0  0  0  0  0  0  0  0  0  0  0
   -0.0827    8.4214    1.2502 C   0  0  0  0  0  0  0  0  0  0  0  0
    0.8539    7.3991    1.2313 C   0  0  0  0  0  0  0  0  0  0  0  0
    1.3079    6.8973    0.0260 C   0  0  0  0  0  0  0  0  0  0  0  0
    0.8345    7.4154   -1.1649 C   0  0  0  0  0  0  0  0  0  0  0  0
   -0.1068    8.4337   -1.1546 C   0  0  0  0  0  0  0  0  0  0  0  0
   -0.5654    8.9413    0.0551 C   0  0  0  0  0  0  0  0  0  0  0  0
   -1.4850    9.9444    0.0694 O   0  0  0  0  0  0  0  0  0  0  0  0
   -0.9849   11.2830    0.0715 C   0  0  0  0  0  0  0  0  0  0  0  0
   -0.5757    8.9393   -2.3268 O   0  0  0  0  0  0  0  0  0  0  0  0
   -0.0601    8.3695   -3.5316 C   0  0  0  0  0  0  0  0  0  0  0  0
    2.3262    5.7866    0.0102 C   0  0  0  0  0  0  0  0  0  0  0  0
    1.6184    4.4561    0.0102 C   0  0  0  0  0  0  0  0  0  0  0  0
    0.4064    4.4140    0.0219 O   0  0  0  0  0  0  0  0  0  0  0  0
    2.3323    3.3130   -0.0028 N   0  0  0  0  0  0  0  0  0  0  0  0
    1.6810    2.0888   -0.0028 C   0  0  0  0  0  0  0  0  0  0  0  0
    2.2370    0.8151   -0.0149 C   0  0  0  0  0  0  0  0  0  0  0  0
    1.3152   -0.2957   -0.0121 C   0  0  0  0  0  0  0  0  0  0  0  0
    0.0021   -0.0041    0.0020 C   0  0  0  0  0  0  0  0  0  0  0  0
   -0.0221    1.7765    0.0118 S   0  0  0  0  0  0  0  0  0  0  0  0
    3.6887    0.6097   -0.0304 C   0  0  0  0  0  0  0  0  0  0  0  0
    4.4389    1.5681   -0.0328 O   0  0  0  0  0  0  0  0  0  0  0  0
    4.1924   -0.6403   -0.0418 N   0  0  0  0  0  0  0  0  0  0  0  0
   -0.4264    8.8173    4.4979 H   0  0  0  0  0  0  0  0  0  0  0  0
   -0.2192    7.2684    3.6456 H   0  0  0  0  0  0  0  0  0  0  0  0
    1.0931    8.4709    3.6379 H   0  0  0  0  0  0  0  0  0  0  0  0
    1.2295    6.9946    2.1596 H   0  0  0  0  0  0  0  0  0  0  0  0
    1.1950    7.0237   -2.1046 H   0  0  0  0  0  0  0  0  0  0  0  0
   -0.3852   11.4482   -0.8236 H   0  0  0  0  0  0  0  0  0  0  0  0
   -1.8204   11.9830    0.0834 H   0  0  0  0  0  0  0  0  0  0  0  0
   -0.3677   11.4389    0.9562 H   0  0  0  0  0  0  0  0  0  0  0  0
    1.0207    8.5068   -3.5649 H   0  0  0  0  0  0  0  0  0  0  0  0
   -0.2920    7.3048   -3.5582 H   0  0  0  0  0  0  0  0  0  0  0  0
   -0.5156    8.8622   -4.3905 H   0  0  0  0  0  0  0  0  0  0  0  0
    2.9592    5.8614    0.8943 H   0  0  0  0  0  0  0  0  0  0  0  0
    2.9417    5.8706   -0.8855 H   0  0  0  0  0  0  0  0  0  0  0  0
    3.3017    3.3467   -0.0122 H   0  0  0  0  0  0  0  0  0  0  0  0
    1.6649   -1.3175   -0.0206 H   0  0  0  0  0  0  0  0  0  0  0  0
   -0.8357   -0.6856    0.0067 H   0  0  0  0  0  0  0  0  0  0  0  0
    3.5945   -1.4041   -0.0399 H   0  0  0  0  0  0  0  0  0  0  0  0
    5.1528   -0.7762   -0.0520 H   0  0  0  0  0  0  0  0  0  0  0  0
  1  2  1  0  0  0  0
  1 25  1  0  0  0  0
  1 26  1  0  0  0  0
  1 27  1  0  0  0  0
  2  3  1  0  0  0  0
  3  8  2  0  0  0  0
  3  4  1  0  0  0  0
  4  5  2  0  0  0  0
  4 28  1  0  0  0  0
  5  6  1  0  0  0  0
  5 13  1  0  0  0  0
  6  7  2  0  0  0  0
  6 29  1  0  0  0  0
  7  8  1  0  0  0  0
  7 11  1  0  0  0  0
  8  9  1  0  0  0  0
  9 10  1  0  0  0  0
 10 30  1  0  0  0  0
 10 31  1  0  0  0  0
 10 32  1  0  0  0  0
 11 12  1  0  0  0  0
 12 33  1  0  0  0  0
 12 34  1  0  0  0  0
 12 35  1  0  0  0  0
 13 14  1  0  0  0  0
 13 36  1  0  0  0  0
 13 37  1  0  0  0  0
 14 15  2  0  0  0  0
 14 16  1  0  0  0  0
 16 17  1  0  0  0  0
 16 38  1  0  0  0  0
 17 21  1  0  0  0  0
 17 18  2  0  0  0  0
 18 19  1  0  0  0  0
 18 22  1  0  0  0  0
 19 20  2  0  0  0  0
 19 39  1  0  0  0  0
 20 21  1  0  0  0  0
 20 40  1  0  0  0  0
 22 23  2  0  0  0  0
 22 24  1  0  0  0  0
 24 41  1  0  0  0  0
 24 42  1  0  0  0  0
M  END
$$$$
ZINC02636918
  -OEChem-08230709453D

 43 45  0     0  0  0  0  0  0999 V2000
   11.7594    9.8023   -0.0611 C   0  0  0  0  0  0  0  0  0  0  0  0
   10.6682    8.7630   -0.0556 C   0  0  0  0  0  0  0  0  0  0  0  0
   10.5069    7.9261   -1.1445 C   0  0  0  0  0  0  0  0  0  0  0  0
    9.5077    6.9725   -1.1424 C   0  0  0  0  0  0  0  0  0  0  0  0
    8.6648    6.8548   -0.0455 C   0  0  0  0  0  0  0  0  0  0  0  0
    8.8259    7.7000    1.0442 C   0  0  0  0  0  0  0  0  0  0  0  0
    9.8300    8.6484    1.0382 C   0  0  0  0  0  0  0  0  0  0  0  0
    7.6496    5.8884   -0.0405 N   0  0  0  0  0  0  0  0  0  0  0  0
    7.8581    4.5373   -0.0496 C   0  0  0  0  0  0  0  0  0  0  0  0
    6.6712    3.9081   -0.0412 C   0  0  0  0  0  0  0  0  0  0  0  0
    5.6444    4.9590   -0.0258 C   0  0  0  0  0  0  0  0  0  0  0  0
    6.3300    6.1593   -0.0318 C   0  0  0  0  0  0  0  0  0  0  0  0
    5.7092    7.5325   -0.0264 C   0  0  0  0  0  0  0  0  0  0  0  0
    4.1921    4.7729   -0.0130 C   0  0  0  0  0  0  0  0  0  0  0  0
    3.4568    5.7382   -0.0012 O   0  0  0  0  0  0  0  0  0  0  0  0
    3.6105    3.3827   -0.0145 C   0  0  0  0  0  0  0  0  0  0  0  0
    1.7994    3.4848    0.0031 S   0  0  0  0  0  0  0  0  0  0  0  0
    1.2775    1.8019   -0.0005 C   0  0  0  0  0  0  0  0  0  0  0  0
   -0.0164    1.3619    0.0095 N   0  0  0  0  0  0  0  0  0  0  0  0
   -0.8089    1.9213    0.0165 H   0  0  0  0  0  0  0  0  0  0  0  0
    0.0021   -0.0041    0.0020 C   0  0  0  0  0  0  0  0  0  0  0  0
    1.2534   -0.3924   -0.0120 N   0  0  0  0  0  0  0  0  0  0  0  0
    2.0620    0.7517   -0.0136 N   0  0  0  0  0  0  0  0  0  0  0  0
   -1.1105   -0.8355    0.0082 N   0  0  0  0  0  0  0  0  0  0  0  0
    9.2049    3.8614   -0.0658 C   0  0  0  0  0  0  0  0  0  0  0  0
   11.3759   10.7296   -0.4867 H   0  0  0  0  0  0  0  0  0  0  0  0
   12.0946    9.9827    0.9603 H   0  0  0  0  0  0  0  0  0  0  0  0
   12.5971    9.4464   -0.6608 H   0  0  0  0  0  0  0  0  0  0  0  0
   11.1632    8.0179   -1.9973 H   0  0  0  0  0  0  0  0  0  0  0  0
    9.3820    6.3194   -1.9933 H   0  0  0  0  0  0  0  0  0  0  0  0
    8.1691    7.6134    1.8971 H   0  0  0  0  0  0  0  0  0  0  0  0
    9.9579    9.3039    1.8869 H   0  0  0  0  0  0  0  0  0  0  0  0
    6.5047    2.8410   -0.0455 H   0  0  0  0  0  0  0  0  0  0  0  0
    5.5689    7.8637    1.0025 H   0  0  0  0  0  0  0  0  0  0  0  0
    6.3657    8.2301   -0.5464 H   0  0  0  0  0  0  0  0  0  0  0  0
    4.7439    7.4967   -0.5314 H   0  0  0  0  0  0  0  0  0  0  0  0
    3.9244    2.8892    0.7966 H   0  0  0  0  0  0  0  0  0  0  0  0
    3.9359    2.8537   -0.9103 H   0  0  0  0  0  0  0  0  0  0  0  0
   -2.0018   -0.4529    0.0187 H   0  0  0  0  0  0  0  0  0  0  0  0
   -0.9962   -1.7987    0.0019 H   0  0  0  0  0  0  0  0  0  0  0  0
    9.5200    3.7039   -1.0973 H   0  0  0  0  0  0  0  0  0  0  0  0
    9.9337    4.4912    0.4446 H   0  0  0  0  0  0  0  0  0  0  0  0
    9.1353    2.9003    0.4437 H   0  0  0  0  0  0  0  0  0  0  0  0
  1  2  1  0  0  0  0
  1 26  1  0  0  0  0
  1 27  1  0  0  0  0
  1 28  1  0  0  0  0
  2  7  2  0  0  0  0
  2  3  1  0  0  0  0
  3  4  2  0  0  0  0
  3 29  1  0  0  0  0
  4  5  1  0  0  0  0
  4 30  1  0  0  0  0
  5  6  2  0  0  0  0
  5  8  1  0  0  0  0
  6  7  1  0  0  0  0
  6 31  1  0  0  0  0
  7 32  1  0  0  0  0
  8 12  1  0  0  0  0
  8  9  1  0  0  0  0
  9 10  2  0  0  0  0
  9 25  1  0  0  0  0
 10 11  1  0  0  0  0
 10 33  1  0  0  0  0
 11 12  2  0  0  0  0
 11 14  1  0  0  0  0
 12 13  1  0  0  0  0
 13 34  1  0  0  0  0
 13 35  1  0  0  0  0
 13 36  1  0  0  0  0
 14 15  2  0  0  0  0
 14 16  1  0  0  0  0
 16 17  1  0  0  0  0
 16 37  1  0  0  0  0
 16 38  1  0  0  0  0
 17 18  1  0  0  0  0
 18 23  2  0  0  0  0
 18 19  1  0  0  0  0
 19 20  1  0  0  0  0
 19 21  1  0  0  0  0
 21 22  2  0  0  0  0
 21 24  1  0  0  0  0
 22 23  1  0  0  0  0
 24 39  1  0  0  0  0
 24 40  1  0  0  0  0
 25 41  1  0  0  0  0
 25 42  1  0  0  0  0
 25 43  1  0  0  0  0
M  END
$$$$
ZINC02637648
  -OEChem-08230709453D

 43 46  0     0  0  0  0  0  0999 V2000
    1.7374    3.2932    0.0032 C   0  0  0  0  0  0  0  0  0  0  0  0
    1.2657    1.8619   -0.0000 C   0  0  0  0  0  0  0  0  0  0  0  0
   -0.0178    1.4650    0.0101 C   0  0  0  0  0  0  0  0  0  0  0  0
    0.0021   -0.0041    0.0020 C   0  0  0  0  0  0  0  0  0  0  0  0
    1.3367   -0.3651   -0.0127 C   0  0  0  0  0  0  0  0  0  0  0  0
    2.0756    0.7609   -0.0137 N   0  0  0  0  0  0  0  0  0  0  0  0
    3.4777    0.7984   -0.0261 C   0  0  0  0  0  0  0  0  0  0  0  0
    4.1753    0.3146   -1.1246 C   0  0  0  0  0  0  0  0  0  0  0  0
    5.5562    0.3512   -1.1387 C   0  0  0  0  0  0  0  0  0  0  0  0
    6.2491    0.8704   -0.0567 C   0  0  0  0  0  0  0  0  0  0  0  0
    5.5518    1.3562    1.0470 C   0  0  0  0  0  0  0  0  0  0  0  0
    4.1675    1.3245    1.0573 C   0  0  0  0  0  0  0  0  0  0  0  0
    6.4526    1.8079    1.9679 O   0  0  0  0  0  0  0  0  0  0  0  0
    7.7128    1.2208    1.5934 C   0  0  0  0  0  0  0  0  0  0  0  0
    7.5871    1.0181    0.1734 O   0  0  0  0  0  0  0  0  0  0  0  0
    1.8717   -1.7738   -0.0261 C   0  0  0  0  0  0  0  0  0  0  0  0
   -1.1544   -0.9019    0.0087 C   0  0  0  0  0  0  0  0  0  0  0  0
   -0.9893   -2.1041    0.0010 O   0  0  0  0  0  0  0  0  0  0  0  0
   -2.5499   -0.3331    0.0250 C   0  0  0  0  0  0  0  0  0  0  0  0
   -3.7554   -1.6885    0.0298 S   0  0  0  0  0  0  0  0  0  0  0  0
   -5.3161   -0.8709    0.0490 C   0  0  0  0  0  0  0  0  0  0  0  0
   -6.5409   -1.4774    0.0577 N   0  0  0  0  0  0  0  0  0  0  0  0
   -6.7036   -2.4336    0.0535 H   0  0  0  0  0  0  0  0  0  0  0  0
   -7.4956   -0.5004    0.0727 C   0  0  0  0  0  0  0  0  0  0  0  0
   -6.8878    0.6603    0.0732 N   0  0  0  0  0  0  0  0  0  0  0  0
   -5.5066    0.4260    0.0631 N   0  0  0  0  0  0  0  0  0  0  0  0
   -8.8698   -0.7022    0.0856 N   0  0  0  0  0  0  0  0  0  0  0  0
    1.8614    3.6326    1.0315 H   0  0  0  0  0  0  0  0  0  0  0  0
    2.6912    3.3626   -0.5198 H   0  0  0  0  0  0  0  0  0  0  0  0
    1.0008    3.9196   -0.4999 H   0  0  0  0  0  0  0  0  0  0  0  0
   -0.8913    2.1001    0.0179 H   0  0  0  0  0  0  0  0  0  0  0  0
    3.6378   -0.0906   -1.9692 H   0  0  0  0  0  0  0  0  0  0  0  0
    6.0968   -0.0252   -1.9946 H   0  0  0  0  0  0  0  0  0  0  0  0
    3.6248    1.7054    1.9098 H   0  0  0  0  0  0  0  0  0  0  0  0
    7.8590    0.2693    2.1046 H   0  0  0  0  0  0  0  0  0  0  0  0
    8.5335    1.9040    1.8115 H   0  0  0  0  0  0  0  0  0  0  0  0
    1.9906   -2.1075   -1.0569 H   0  0  0  0  0  0  0  0  0  0  0  0
    2.8377   -1.8005    0.4782 H   0  0  0  0  0  0  0  0  0  0  0  0
    1.1737   -2.4325    0.4908 H   0  0  0  0  0  0  0  0  0  0  0  0
   -2.6728    0.2251    0.8456 H   0  0  0  0  0  0  0  0  0  0  0  0
   -2.7009    0.2844   -0.8605 H   0  0  0  0  0  0  0  0  0  0  0  0
   -9.2276   -1.6038    0.0845 H   0  0  0  0  0  0  0  0  0  0  0  0
   -9.4716    0.0585    0.0958 H   0  0  0  0  0  0  0  0  0  0  0  0
  1  2  1  0  0  0  0
  1 28  1  0  0  0  0
  1 29  1  0  0  0  0
  1 30  1  0  0  0  0
  2  6  1  0  0  0  0
  2  3  2  0  0  0  0
  3  4  1  0  0  0  0
  3 31  1  0  0  0  0
  4  5  2  0  0  0  0
  4 17  1  0  0  0  0
  5  6  1  0  0  0  0
  5 16  1  0  0  0  0
  6  7  1  0  0  0  0
  7 12  2  0  0  0  0
  7  8  1  0  0  0  0
  8  9  2  0  0  0  0
  8 32  1  0  0  0  0
  9 10  1  0  0  0  0
  9 33  1  0  0  0  0
 10 15  1  0  0  0  0
 10 11  2  0  0  0  0
 11 12  1  0  0  0  0
 11 13  1  0  0  0  0
 12 34  1  0  0  0  0
 13 14  1  0  0  0  0
 14 15  1  0  0  0  0
 14 35  1  0  0  0  0
 14 36  1  0  0  0  0
 16 37  1  0  0  0  0
 16 38  1  0  0  0  0
 16 39  1  0  0  0  0
 17 18  2  0  0  0  0
 17 19  1  0  0  0  0
 19 20  1  0  0  0  0
 19 40  1  0  0  0  0
 19 41  1  0  0  0  0
 20 21  1  0  0  0  0
 21 26  2  0  0  0  0
 21 22  1  0  0  0  0
 22 23  1  0  0  0  0
 22 24  1  0  0  0  0
 24 25  2  0  0  0  0
 24 27  1  0  0  0  0
 25 26  1  0  0  0  0
 27 42  1  0  0  0  0
 27 43  1  0  0  0  0
M  END
$$$$
ZINC02641931
  -OEChem-08230709453D

 47 48  0     1  0  0  0  0  0999 V2000
   -2.0736    1.0045   -0.8297 C   0  0  0  0  0  0  0  0  0  0  0  0
   -0.6991    0.9374   -0.1609 C   0  0  0  0  0  0  0  0  0  0  0  0
   -0.1836   -0.5026   -0.1980 C   0  0  0  0  0  0  0  0  0  0  0  0
   -0.8162    1.3999    1.2928 C   0  0  1  0  0  0  0  0  0  0  0  0
    0.1407    1.2616    1.7962 H   0  0  0  0  0  0  0  0  0  0  0  0
   -1.1957    2.8579    1.3271 C   0  0  0  0  0  0  0  0  0  0  0  0
   -2.3579    3.1791    1.4579 O   0  0  0  0  0  0  0  0  0  0  0  0
   -0.2437    3.8050    1.2123 N   0  0  0  0  0  0  0  0  0  0  0  0
   -0.6019    5.1423    1.1349 C   0  0  0  0  0  0  0  0  0  0  0  0
    0.2262    6.2527    1.0204 C   0  0  0  0  0  0  0  0  0  0  0  0
   -0.4210    7.5413    0.9557 C   0  0  0  0  0  0  0  0  0  0  0  0
   -1.7645    7.5578    1.0217 C   0  0  0  0  0  0  0  0  0  0  0  0
   -2.1889    5.8343    1.1652 S   0  0  0  0  0  0  0  0  0  0  0  0
    1.6854    6.1213    0.9644 C   0  0  0  0  0  0  0  0  0  0  0  0
    2.1998    5.0195    1.0183 O   0  0  0  0  0  0  0  0  0  0  0  0
    2.4573    7.2205    0.8531 N   0  0  0  0  0  0  0  0  0  0  0  0
   -1.8453    0.6112    1.9748 N   0  0  0  0  0  0  0  0  0  0  0  0
   -1.5313   -0.5827    2.5154 C   0  0  0  0  0  0  0  0  0  0  0  0
   -0.3939   -1.0053    2.4371 O   0  0  0  0  0  0  0  0  0  0  0  0
   -2.5682   -1.3774    3.2026 C   0  0  0  0  0  0  0  0  0  0  0  0
   -3.8745   -0.8908    3.2987 C   0  0  0  0  0  0  0  0  0  0  0  0
   -4.8400   -1.6372    3.9367 C   0  0  0  0  0  0  0  0  0  0  0  0
   -4.5141   -2.8683    4.4936 C   0  0  0  0  0  0  0  0  0  0  0  0
   -3.2147   -3.3536    4.4043 C   0  0  0  0  0  0  0  0  0  0  0  0
   -2.2446   -2.6155    3.7637 C   0  0  0  0  0  0  0  0  0  0  0  0
   -5.4673   -3.5987    5.1258 O   0  0  0  0  0  0  0  0  0  0  0  0
   -6.7818   -3.0408    5.1811 C   0  0  0  0  0  0  0  0  0  0  0  0
   -2.0001    0.6275   -1.8498 H   0  0  0  0  0  0  0  0  0  0  0  0
   -2.7814    0.3955   -0.2674 H   0  0  0  0  0  0  0  0  0  0  0  0
   -2.4185    2.0383   -0.8484 H   0  0  0  0  0  0  0  0  0  0  0  0
   -0.0038    1.5861   -0.6937 H   0  0  0  0  0  0  0  0  0  0  0  0
   -0.1002   -0.8321   -1.2337 H   0  0  0  0  0  0  0  0  0  0  0  0
    0.7956   -0.5504    0.2784 H   0  0  0  0  0  0  0  0  0  0  0  0
   -0.8790   -1.1513    0.3347 H   0  0  0  0  0  0  0  0  0  0  0  0
    0.6920    3.5511    1.1838 H   0  0  0  0  0  0  0  0  0  0  0  0
    0.1493    8.4537    0.8628 H   0  0  0  0  0  0  0  0  0  0  0  0
   -2.4263    8.4109    0.9943 H   0  0  0  0  0  0  0  0  0  0  0  0
    2.0474    8.0986    0.8102 H   0  0  0  0  0  0  0  0  0  0  0  0
    3.4226    7.1336    0.8160 H   0  0  0  0  0  0  0  0  0  0  0  0
   -2.7527    0.9484    2.0373 H   0  0  0  0  0  0  0  0  0  0  0  0
   -4.1275    0.0675    2.8698 H   0  0  0  0  0  0  0  0  0  0  0  0
   -5.8508   -1.2635    4.0082 H   0  0  0  0  0  0  0  0  0  0  0  0
   -2.9654   -4.3106    4.8383 H   0  0  0  0  0  0  0  0  0  0  0  0
   -1.2352   -2.9932    3.6947 H   0  0  0  0  0  0  0  0  0  0  0  0
   -6.7492   -2.0855    5.7051 H   0  0  0  0  0  0  0  0  0  0  0  0
   -7.1542   -2.8872    4.1683 H   0  0  0  0  0  0  0  0  0  0  0  0
   -7.4444   -3.7241    5.7122 H   0  0  0  0  0  0  0  0  0  0  0  0
  1  2  1  0  0  0  0
  1 28  1  0  0  0  0
  1 29  1  0  0  0  0
  1 30  1  0  0  0  0
  2  3  1  0  0  0  0
  2  4  1  0  0  0  0
  2 31  1  0  0  0  0
  3 32  1  0  0  0  0
  3 33  1  0  0  0  0
  3 34  1  0  0  0  0
  4  5  1  0  0  0  0
  4  6  1  0  0  0  0
  4 17  1  0  0  0  0
  6  7  2  0  0  0  0
  6  8  1  0  0  0  0
  8  9  1  0  0  0  0
  8 35  1  0  0  0  0
  9 13  1  0  0  0  0
  9 10  2  0  0  0  0
 10 11  1  0  0  0  0
 10 14  1  0  0  0  0
 11 12  2  0  0  0  0
 11 36  1  0  0  0  0
 12 13  1  0  0  0  0
 12 37  1  0  0  0  0
 14 15  2  0  0  0  0
 14 16  1  0  0  0  0
 16 38  1  0  0  0  0
 16 39  1  0  0  0  0
 17 18  1  0  0  0  0
 17 40  1  0  0  0  0
 18 19  2  0  0  0  0
 18 20  1  0  0  0  0
 20 25  2  0  0  0  0
 20 21  1  0  0  0  0
 21 22  2  0  0  0  0
 21 41  1  0  0  0  0
 22 23  1  0  0  0  0
 22 42  1  0  0  0  0
 23 24  2  0  0  0  0
 23 26  1  0  0  0  0
 24 25  1  0  0  0  0
 24 43  1  0  0  0  0
 25 44  1  0  0  0  0
 26 27  1  0  0  0  0
 27 45  1  0  0  0  0
 27 46  1  0  0  0  0
 27 47  1  0  0  0  0
M  END
$$$$
ZINC02644437
  -OEChem-08230709453D

 46 48  0     0  0  0  0  0  0999 V2000
    0.9098    4.1002   -1.4399 C   0  0  0  0  0  0  0  0  0  0  0  0
    1.1432    3.5928   -0.0155 C   0  0  0  0  0  0  0  0  0  0  0  0
    0.0133    4.0833    0.8921 C   0  0  0  0  0  0  0  0  0  0  0  0
    2.4809    4.1247    0.5026 C   0  0  0  0  0  0  0  0  0  0  0  0
    1.1682    2.0860   -0.0167 C   0  0  0  0  0  0  0  0  0  0  0  0
    2.1113    1.4123   -0.7709 C   0  0  0  0  0  0  0  0  0  0  0  0
    2.1370    0.0314   -0.7742 C   0  0  0  0  0  0  0  0  0  0  0  0
    1.2143   -0.6805   -0.0189 C   0  0  0  0  0  0  0  0  0  0  0  0
    0.2684   -0.0009    0.7374 C   0  0  0  0  0  0  0  0  0  0  0  0
    0.2481    1.3801    0.7364 C   0  0  0  0  0  0  0  0  0  0  0  0
    1.2373   -2.0795   -0.0204 N   0  0  0  0  0  0  0  0  0  0  0  0
    2.4096   -2.7341   -0.1369 C   0  0  0  0  0  0  0  0  0  0  0  0
    3.4521   -2.1143   -0.1440 O   0  0  0  0  0  0  0  0  0  0  0  0
    2.4252   -4.2361   -0.2581 C   0  0  0  0  0  0  0  0  0  0  0  0
    4.1353   -4.8125   -0.3976 S   0  0  0  0  0  0  0  0  0  0  0  0
    3.8637   -6.5490   -0.5220 C   0  0  0  0  0  0  0  0  0  0  0  0
    2.7037   -7.1396   -0.5004 N   0  0  0  0  0  0  0  0  0  0  0  0
    2.9167   -8.5191   -0.6283 N   0  0  0  0  0  0  0  0  0  0  0  0
    2.2325   -9.2065   -0.6460 H   0  0  0  0  0  0  0  0  0  0  0  0
    4.2484   -8.7154   -0.7166 C   0  0  0  0  0  0  0  0  0  0  0  0
    4.8114   -9.7895   -0.8338 O   0  0  0  0  0  0  0  0  0  0  0  0
    4.8431   -7.5075   -0.6522 N   0  0  0  0  0  0  0  0  0  0  0  0
    6.2854   -7.2575   -0.7101 C   0  0  0  0  0  0  0  0  0  0  0  0
    7.1934   -8.4376   -1.0617 C   0  0  0  0  0  0  0  0  0  0  0  0
    7.1576   -7.8993    0.3708 C   0  0  0  0  0  0  0  0  0  0  0  0
   -0.0432    3.7212   -1.8090 H   0  0  0  0  0  0  0  0  0  0  0  0
    0.8917    5.1900   -1.4390 H   0  0  0  0  0  0  0  0  0  0  0  0
    1.7148    3.7507   -2.0865 H   0  0  0  0  0  0  0  0  0  0  0  0
    0.1795    3.7219    1.9069 H   0  0  0  0  0  0  0  0  0  0  0  0
   -0.0048    5.1732    0.8930 H   0  0  0  0  0  0  0  0  0  0  0  0
   -0.9397    3.7044    0.5230 H   0  0  0  0  0  0  0  0  0  0  0  0
    3.2858    3.7753   -0.1439 H   0  0  0  0  0  0  0  0  0  0  0  0
    2.4628    5.2146    0.5035 H   0  0  0  0  0  0  0  0  0  0  0  0
    2.6471    3.7633    1.5174 H   0  0  0  0  0  0  0  0  0  0  0  0
    2.8315    1.9666   -1.3546 H   0  0  0  0  0  0  0  0  0  0  0  0
    2.8736   -0.4942   -1.3637 H   0  0  0  0  0  0  0  0  0  0  0  0
   -0.4507   -0.5517    1.3255 H   0  0  0  0  0  0  0  0  0  0  0  0
   -0.4870    1.9092    1.3247 H   0  0  0  0  0  0  0  0  0  0  0  0
    0.4094   -2.5783    0.0623 H   0  0  0  0  0  0  0  0  0  0  0  0
    1.9642   -4.6768    0.6259 H   0  0  0  0  0  0  0  0  0  0  0  0
    1.8676   -4.5348   -1.1458 H   0  0  0  0  0  0  0  0  0  0  0  0
    6.5776   -6.2721   -1.0731 H   0  0  0  0  0  0  0  0  0  0  0  0
    6.7177   -9.4001   -1.2500 H   0  0  0  0  0  0  0  0  0  0  0  0
    8.0831   -8.2286   -1.6558 H   0  0  0  0  0  0  0  0  0  0  0  0
    8.0237   -7.3363    0.7186 H   0  0  0  0  0  0  0  0  0  0  0  0
    6.6582   -8.5072    1.1252 H   0  0  0  0  0  0  0  0  0  0  0  0
  1  2  1  0  0  0  0
  1 26  1  0  0  0  0
  1 27  1  0  0  0  0
  1 28  1  0  0  0  0
  2  3  1  0  0  0  0
  2  4  1  0  0  0  0
  2  5  1  0  0  0  0
  3 29  1  0  0  0  0
  3 30  1  0  0  0  0
  3 31  1  0  0  0  0
  4 32  1  0  0  0  0
  4 33  1  0  0  0  0
  4 34  1  0  0  0  0
  5 10  2  0  0  0  0
  5  6  1  0  0  0  0
  6  7  2  0  0  0  0
  6 35  1  0  0  0  0
  7  8  1  0  0  0  0
  7 36  1  0  0  0  0
  8  9  2  0  0  0  0
  8 11  1  0  0  0  0
  9 10  1  0  0  0  0
  9 37  1  0  0  0  0
 10 38  1  0  0  0  0
 11 12  1  0  0  0  0
 11 39  1  0  0  0  0
 12 13  2  0  0  0  0
 12 14  1  0  0  0  0
 14 15  1  0  0  0  0
 14 40  1  0  0  0  0
 14 41  1  0  0  0  0
 15 16  1  0  0  0  0
 16 22  1  0  0  0  0
 16 17  2  0  0  0  0
 17 18  1  0  0  0  0
 18 19  1  0  0  0  0
 18 20  1  0  0  0  0
 20 21  2  0  0  0  0
 20 22  1  0  0  0  0
 22 23  1  0  0  0  0
 23 25  1  0  0  0  0
 23 24  1  0  0  0  0
 23 42  1  0  0  0  0
 24 25  1  0  0  0  0
 24 43  1  0  0  0  0
 24 44  1  0  0  0  0
 25 45  1  0  0  0  0
 25 46  1  0  0  0  0
M  END
$$$$
ZINC02647894
  -OEChem-08230709453D

 44 46  0     0  0  0  0  0  0999 V2000
    5.5232   -2.5472    0.3333 C   0  0  0  0  0  0  0  0  0  0  0  0
    5.6137   -3.2116   -0.8791 C   0  0  0  0  0  0  0  0  0  0  0  0
    4.7010   -2.9589   -1.8839 C   0  0  0  0  0  0  0  0  0  0  0  0
    3.6828   -2.0390   -1.6830 C   0  0  0  0  0  0  0  0  0  0  0  0
    3.5907   -1.3612   -0.4597 C   0  0  0  0  0  0  0  0  0  0  0  0
    4.5205   -1.6268    0.5485 C   0  0  0  0  0  0  0  0  0  0  0  0
    2.5137   -0.3768   -0.2357 C   0  0  0  0  0  0  0  0  0  0  0  0
    2.7629    0.8145   -0.2616 O   0  0  0  0  0  0  0  0  0  0  0  0
    1.1431   -0.8341    0.0181 C   0  0  0  0  0  0  0  0  0  0  0  0
    0.7193   -2.1756    0.1824 C   0  0  0  0  0  0  0  0  0  0  0  0
   -0.5660   -2.1790    0.3892 N   0  0  0  0  0  0  0  0  0  0  0  0
   -1.0411   -0.8631    0.3768 N   0  0  0  0  0  0  0  0  0  0  0  0
    0.0105   -0.0308    0.1426 C   0  0  0  0  0  0  0  0  0  0  0  0
   -0.0349    1.3420    0.0519 N   0  0  0  0  0  0  0  0  0  0  0  0
   -2.3211   -0.4844    0.5627 C   0  0  0  0  0  0  0  0  0  0  0  0
   -2.7625    1.1596    0.3803 S   0  0  0  0  0  0  0  0  0  0  0  0
   -3.2537   -1.4000    0.8921 N   0  0  0  0  0  0  0  0  0  0  0  0
   -4.6451   -0.9883    1.0941 C   0  0  0  0  0  0  0  0  0  0  0  0
   -4.8286   -0.4992    2.5321 C   0  0  0  0  0  0  0  0  0  0  0  0
   -6.2817   -0.0693    2.7431 C   0  0  0  0  0  0  0  0  0  0  0  0
   -7.2080   -1.2598    2.4872 C   0  0  0  0  0  0  0  0  0  0  0  0
   -7.0246   -1.7490    1.0492 C   0  0  0  0  0  0  0  0  0  0  0  0
   -5.5714   -2.1789    0.8382 C   0  0  0  0  0  0  0  0  0  0  0  0
    2.7825   -1.7931   -2.6677 O   0  0  0  0  0  0  0  0  0  0  0  0
    6.2415   -2.7518    1.1134 H   0  0  0  0  0  0  0  0  0  0  0  0
    6.4026   -3.9317   -1.0391 H   0  0  0  0  0  0  0  0  0  0  0  0
    4.7779   -3.4811   -2.8261 H   0  0  0  0  0  0  0  0  0  0  0  0
    4.4538   -1.1112    1.4952 H   0  0  0  0  0  0  0  0  0  0  0  0
    1.3549   -3.0479    0.1433 H   0  0  0  0  0  0  0  0  0  0  0  0
    0.7875    1.8504   -0.0260 H   0  0  0  0  0  0  0  0  0  0  0  0
   -0.8895    1.8007    0.0618 H   0  0  0  0  0  0  0  0  0  0  0  0
   -3.0036   -2.3315    0.9954 H   0  0  0  0  0  0  0  0  0  0  0  0
   -4.8897   -0.1824    0.4022 H   0  0  0  0  0  0  0  0  0  0  0  0
   -4.5840   -1.3051    3.2240 H   0  0  0  0  0  0  0  0  0  0  0  0
   -4.1686    0.3490    2.7144 H   0  0  0  0  0  0  0  0  0  0  0  0
   -6.5263    0.7367    2.0512 H   0  0  0  0  0  0  0  0  0  0  0  0
   -6.4124    0.2792    3.7676 H   0  0  0  0  0  0  0  0  0  0  0  0
   -8.2433   -0.9535    2.6375 H   0  0  0  0  0  0  0  0  0  0  0  0
   -6.9635   -2.0657    3.1792 H   0  0  0  0  0  0  0  0  0  0  0  0
   -7.2691   -0.9430    0.3573 H   0  0  0  0  0  0  0  0  0  0  0  0
   -7.6845   -2.5971    0.8670 H   0  0  0  0  0  0  0  0  0  0  0  0
   -5.4407   -2.5274   -0.1862 H   0  0  0  0  0  0  0  0  0  0  0  0
   -5.3269   -2.9848    1.5302 H   0  0  0  0  0  0  0  0  0  0  0  0
    3.0417   -1.0814   -3.2688 H   0  0  0  0  0  0  0  0  0  0  0  0
  1  6  2  0  0  0  0
  1  2  1  0  0  0  0
  1 25  1  0  0  0  0
  2  3  2  0  0  0  0
  2 26  1  0  0  0  0
  3  4  1  0  0  0  0
  3 27  1  0  0  0  0
  4  5  2  0  0  0  0
  4 24  1  0  0  0  0
  5  6  1  0  0  0  0
  5  7  1  0  0  0  0
  6 28  1  0  0  0  0
  7  8  2  0  0  0  0
  7  9  1  0  0  0  0
  9 13  2  0  0  0  0
  9 10  1  0  0  0  0
 10 11  2  0  0  0  0
 10 29  1  0  0  0  0
 11 12  1  0  0  0  0
 12 13  1  0  0  0  0
 12 15  1  0  0  0  0
 13 14  1  0  0  0  0
 14 30  1  0  0  0  0
 14 31  1  0  0  0  0
 15 16  2  0  0  0  0
 15 17  1  0  0  0  0
 17 18  1  0  0  0  0
 17 32  1  0  0  0  0
 18 23  1  0  0  0  0
 18 19  1  0  0  0  0
 18 33  1  0  0  0  0
 19 20  1  0  0  0  0
 19 34  1  0  0  0  0
 19 35  1  0  0  0  0
 20 21  1  0  0  0  0
 20 36  1  0  0  0  0
 20 37  1  0  0  0  0
 21 22  1  0  0  0  0
 21 38  1  0  0  0  0
 21 39  1  0  0  0  0
 22 23  1  0  0  0  0
 22 40  1  0  0  0  0
 22 41  1  0  0  0  0
 23 42  1  0  0  0  0
 23 43  1  0  0  0  0
 24 44  1  0  0  0  0
M  END
$$$$
ZINC02649491
  -OEChem-08230709453D

 42 44  0     0  0  0  0  0  0999 V2000
    0.9372   -2.2624   -4.2329 C   0  0  0  0  0  0  0  0  0  0  0  0
    0.9823   -3.7687   -4.2406 C   0  0  0  0  0  0  0  0  0  0  0  0
    1.2381   -4.4340   -5.3766 C   0  0  0  0  0  0  0  0  0  0  0  0
    1.1831   -6.1451   -4.8788 S   0  0  0  0  0  0  0  0  0  0  0  0
    0.8179   -5.9205   -3.1582 C   0  0  0  0  0  0  0  0  0  0  0  0
    0.7486   -4.5168   -3.0178 C   0  0  0  0  0  0  0  0  0  0  0  0
    0.4613   -4.0491   -1.7060 C   0  0  0  0  0  0  0  0  0  0  0  0
    0.2883   -4.9274   -0.7314 N   0  0  0  0  0  0  0  0  0  0  0  0
    0.3627   -6.2301   -0.9370 C   0  0  0  0  0  0  0  0  0  0  0  0
    0.6262   -6.7243   -2.1311 N   0  0  0  0  0  0  0  0  0  0  0  0
    0.1484   -7.1721    0.2197 C   0  0  0  0  0  0  0  0  0  0  0  0
    0.3693   -2.6927   -1.4508 N   0  0  0  0  0  0  0  0  0  0  0  0
   -0.0600   -2.2232   -0.1311 C   0  0  0  0  0  0  0  0  0  0  0  0
   -0.0759   -0.7164   -0.1148 C   0  0  0  0  0  0  0  0  0  0  0  0
   -1.2224   -0.0333   -0.4751 C   0  0  0  0  0  0  0  0  0  0  0  0
   -1.2373    1.3489   -0.4592 C   0  0  0  0  0  0  0  0  0  0  0  0
   -0.1057    2.0480   -0.0831 C   0  0  0  0  0  0  0  0  0  0  0  0
    1.0413    1.3649    0.2759 C   0  0  0  0  0  0  0  0  0  0  0  0
    1.0559   -0.0172    0.2609 C   0  0  0  0  0  0  0  0  0  0  0  0
   -0.1244    3.8098   -0.0634 S   0  0  0  0  0  0  0  0  0  0  0  0
    1.2256    4.2319   -0.1996 O   0  0  0  0  0  0  0  0  0  0  0  0
   -1.1442    4.2152   -0.9662 O   0  0  0  0  0  0  0  0  0  0  0  0
   -0.6164    4.2773    1.4472 N   0  0  0  0  0  0  0  0  0  0  0  0
    1.5072   -3.8696   -6.7478 C   0  0  0  0  0  0  0  0  0  0  0  0
    1.8946   -1.8720   -3.8878 H   0  0  0  0  0  0  0  0  0  0  0  0
    0.7393   -1.8997   -5.2416 H   0  0  0  0  0  0  0  0  0  0  0  0
    0.1452   -1.9259   -3.5639 H   0  0  0  0  0  0  0  0  0  0  0  0
    1.1024   -7.3702    0.7084 H   0  0  0  0  0  0  0  0  0  0  0  0
   -0.5389   -6.7194    0.9344 H   0  0  0  0  0  0  0  0  0  0  0  0
   -0.2731   -8.1079   -0.1472 H   0  0  0  0  0  0  0  0  0  0  0  0
    0.5890   -2.0525   -2.1455 H   0  0  0  0  0  0  0  0  0  0  0  0
    0.6329   -2.5875    0.6273 H   0  0  0  0  0  0  0  0  0  0  0  0
   -1.0609   -2.5994    0.0805 H   0  0  0  0  0  0  0  0  0  0  0  0
   -2.1067   -0.5795   -0.7686 H   0  0  0  0  0  0  0  0  0  0  0  0
   -2.1317    1.8826   -0.7450 H   0  0  0  0  0  0  0  0  0  0  0  0
    1.9254    1.9112    0.5697 H   0  0  0  0  0  0  0  0  0  0  0  0
    1.9514   -0.5509    0.5430 H   0  0  0  0  0  0  0  0  0  0  0  0
   -0.8283    3.6084    2.1169 H   0  0  0  0  0  0  0  0  0  0  0  0
   -0.6926    5.2201    1.6623 H   0  0  0  0  0  0  0  0  0  0  0  0
    2.5778   -3.7043   -6.8690 H   0  0  0  0  0  0  0  0  0  0  0  0
    1.1602   -4.5729   -7.5047 H   0  0  0  0  0  0  0  0  0  0  0  0
    0.9784   -2.9233   -6.8614 H   0  0  0  0  0  0  0  0  0  0  0  0
  1  2  1  0  0  0  0
  1 25  1  0  0  0  0
  1 26  1  0  0  0  0
  1 27  1  0  0  0  0
  2  6  1  0  0  0  0
  2  3  2  0  0  0  0
  3  4  1  0  0  0  0
  3 24  1  0  0  0  0
  4  5  1  0  0  0  0
  5 10  2  0  0  0  0
  5  6  1  0  0  0  0
  6  7  2  0  0  0  0
  7  8  1  0  0  0  0
  7 12  1  0  0  0  0
  8  9  2  0  0  0  0
  9 10  1  0  0  0  0
  9 11  1  0  0  0  0
 11 28  1  0  0  0  0
 11 29  1  0  0  0  0
 11 30  1  0  0  0  0
 12 13  1  0  0  0  0
 12 31  1  0  0  0  0
 13 14  1  0  0  0  0
 13 32  1  0  0  0  0
 13 33  1  0  0  0  0
 14 19  2  0  0  0  0
 14 15  1  0  0  0  0
 15 16  2  0  0  0  0
 15 34  1  0  0  0  0
 16 17  1  0  0  0  0
 16 35  1  0  0  0  0
 17 18  2  0  0  0  0
 17 20  1  0  0  0  0
 18 19  1  0  0  0  0
 18 36  1  0  0  0  0
 19 37  1  0  0  0  0
 20 21  2  0  0  0  0
 20 22  2  0  0  0  0
 20 23  1  0  0  0  0
 23 38  1  0  0  0  0
 23 39  1  0  0  0  0
 24 40  1  0  0  0  0
 24 41  1  0  0  0  0
 24 42  1  0  0  0  0
M  END
$$$$
ZINC02650873
  -OEChem-08230709453D

 46 48  0     0  0  0  0  0  0999 V2000
    0.0588   -4.2774   -0.0209 C   0  0  0  0  0  0  0  0  0  0  0  0
    0.0393   -2.7706   -0.0130 C   0  0  0  0  0  0  0  0  0  0  0  0
    0.5471   -2.0794    1.0719 C   0  0  0  0  0  0  0  0  0  0  0  0
    0.5297   -0.6986    1.0825 C   0  0  0  0  0  0  0  0  0  0  0  0
    0.0021   -0.0041    0.0020 C   0  0  0  0  0  0  0  0  0  0  0  0
   -0.5117   -0.7006   -1.0833 C   0  0  0  0  0  0  0  0  0  0  0  0
   -0.4868   -2.0818   -1.0903 C   0  0  0  0  0  0  0  0  0  0  0  0
   -1.0387   -2.8387   -2.2708 C   0  0  0  0  0  0  0  0  0  0  0  0
   -0.0169    1.3974    0.0097 N   0  0  0  0  0  0  0  0  0  0  0  0
   -1.1499    2.1625    0.0187 C   0  0  0  0  0  0  0  0  0  0  0  0
   -0.8048    3.4608    0.0284 C   0  0  0  0  0  0  0  0  0  0  0  0
    0.6640    3.5001    0.0145 C   0  0  0  0  0  0  0  0  0  0  0  0
    1.0785    2.1814    0.0035 C   0  0  0  0  0  0  0  0  0  0  0  0
    2.5077    1.7038   -0.0123 C   0  0  0  0  0  0  0  0  0  0  0  0
    1.5144    4.6920    0.0132 C   0  0  0  0  0  0  0  0  0  0  0  0
    2.7223    4.5756    0.0015 O   0  0  0  0  0  0  0  0  0  0  0  0
    0.8898    6.0634    0.0265 C   0  0  0  0  0  0  0  0  0  0  0  0
    2.1955    7.3227    0.0214 S   0  0  0  0  0  0  0  0  0  0  0  0
    1.3155    8.8491    0.0379 C   0  0  0  0  0  0  0  0  0  0  0  0
    1.8721   10.0975    0.0396 N   0  0  0  0  0  0  0  0  0  0  0  0
    2.8210   10.2987    0.0330 H   0  0  0  0  0  0  0  0  0  0  0  0
    0.8574   11.0121    0.0531 C   0  0  0  0  0  0  0  0  0  0  0  0
   -0.2778   10.3579    0.0595 N   0  0  0  0  0  0  0  0  0  0  0  0
    0.0120    8.9872    0.0449 N   0  0  0  0  0  0  0  0  0  0  0  0
    1.0036   12.3933    0.0587 N   0  0  0  0  0  0  0  0  0  0  0  0
   -2.5610    1.6337    0.0211 C   0  0  0  0  0  0  0  0  0  0  0  0
   -0.8636   -4.6551    0.4203 H   0  0  0  0  0  0  0  0  0  0  0  0
    0.1434   -4.6343   -1.0473 H   0  0  0  0  0  0  0  0  0  0  0  0
    0.9109   -4.6327    0.5586 H   0  0  0  0  0  0  0  0  0  0  0  0
    0.9574   -2.6202    1.9120 H   0  0  0  0  0  0  0  0  0  0  0  0
    0.9258   -0.1595    1.9303 H   0  0  0  0  0  0  0  0  0  0  0  0
   -0.9271   -0.1632   -1.9230 H   0  0  0  0  0  0  0  0  0  0  0  0
   -2.0988   -3.0362   -2.1123 H   0  0  0  0  0  0  0  0  0  0  0  0
   -0.9111   -2.2441   -3.1754 H   0  0  0  0  0  0  0  0  0  0  0  0
   -0.5052   -3.7831   -2.3785 H   0  0  0  0  0  0  0  0  0  0  0  0
   -1.4745    4.3081    0.0393 H   0  0  0  0  0  0  0  0  0  0  0  0
    2.8427    1.5939   -1.0437 H   0  0  0  0  0  0  0  0  0  0  0  0
    3.1392    2.4301    0.4994 H   0  0  0  0  0  0  0  0  0  0  0  0
    2.5750    0.7420    0.4960 H   0  0  0  0  0  0  0  0  0  0  0  0
    0.3151    6.1758   -0.7841 H   0  0  0  0  0  0  0  0  0  0  0  0
    0.2798    6.1761    0.9228 H   0  0  0  0  0  0  0  0  0  0  0  0
    1.8899   12.7872    0.0528 H   0  0  0  0  0  0  0  0  0  0  0  0
    0.2192   12.9640    0.0685 H   0  0  0  0  0  0  0  0  0  0  0  0
   -2.8972    1.5001    1.0493 H   0  0  0  0  0  0  0  0  0  0  0  0
   -3.2156    2.3427   -0.4859 H   0  0  0  0  0  0  0  0  0  0  0  0
   -2.5910    0.6759   -0.4983 H   0  0  0  0  0  0  0  0  0  0  0  0
  1  2  1  0  0  0  0
  1 27  1  0  0  0  0
  1 28  1  0  0  0  0
  1 29  1  0  0  0  0
  2  7  2  0  0  0  0
  2  3  1  0  0  0  0
  3  4  2  0  0  0  0
  3 30  1  0  0  0  0
  4  5  1  0  0  0  0
  4 31  1  0  0  0  0
  5  6  2  0  0  0  0
  5  9  1  0  0  0  0
  6  7  1  0  0  0  0
  6 32  1  0  0  0  0
  7  8  1  0  0  0  0
  8 33  1  0  0  0  0
  8 34  1  0  0  0  0
  8 35  1  0  0  0  0
  9 13  1  0  0  0  0
  9 10  1  0  0  0  0
 10 11  2  0  0  0  0
 10 26  1  0  0  0  0
 11 12  1  0  0  0  0
 11 36  1  0  0  0  0
 12 13  2  0  0  0  0
 12 15  1  0  0  0  0
 13 14  1  0  0  0  0
 14 37  1  0  0  0  0
 14 38  1  0  0  0  0
 14 39  1  0  0  0  0
 15 16  2  0  0  0  0
 15 17  1  0  0  0  0
 17 18  1  0  0  0  0
 17 40  1  0  0  0  0
 17 41  1  0  0  0  0
 18 19  1  0  0  0  0
 19 24  2  0  0  0  0
 19 20  1  0  0  0  0
 20 21  1  0  0  0  0
 20 22  1  0  0  0  0
 22 23  2  0  0  0  0
 22 25  1  0  0  0  0
 23 24  1  0  0  0  0
 25 42  1  0  0  0  0
 25 43  1  0  0  0  0
 26 44  1  0  0  0  0
 26 45  1  0  0  0  0
 26 46  1  0  0  0  0
M  END
$$$$
ZINC02652804
  -OEChem-08230709453D

 51 53  0     0  0  0  0  0  0999 V2000
    4.2229   -1.7292   -3.2292 C   0  0  0  0  0  0  0  0  0  0  0  0
    3.6664   -0.9814   -2.0160 C   0  0  0  0  0  0  0  0  0  0  0  0
    2.1795   -0.6931   -2.2325 C   0  0  0  0  0  0  0  0  0  0  0  0
    1.6466    0.0229   -1.0708 N   0  0  0  0  0  0  0  0  0  0  0  0
    1.6746    1.3988   -1.0431 C   0  0  0  0  0  0  0  0  0  0  0  0
    1.1748    2.0581    0.0469 C   0  0  0  0  0  0  0  0  0  0  0  0
    0.6443    1.3095    1.1128 C   0  0  0  0  0  0  0  0  0  0  0  0
    0.1927    1.8748    2.0947 O   0  0  0  0  0  0  0  0  0  0  0  0
    0.6375   -0.0362    1.0424 N   0  0  0  0  0  0  0  0  0  0  0  0
    0.2606   -0.5699    1.7994 H   0  0  0  0  0  0  0  0  0  0  0  0
    1.1330   -0.6683   -0.0368 C   0  0  0  0  0  0  0  0  0  0  0  0
    1.1161   -1.8836   -0.0787 O   0  0  0  0  0  0  0  0  0  0  0  0
    1.1919    3.4712    0.1010 N   0  0  0  0  0  0  0  0  0  0  0  0
   -0.1716    4.0117    0.1712 C   0  0  0  0  0  0  0  0  0  0  0  0
   -0.1218    5.5387    0.0815 C   0  0  0  0  0  0  0  0  0  0  0  0
    0.7240    6.0855    1.2348 C   0  0  0  0  0  0  0  0  0  0  0  0
    2.1244    5.4699    1.1668 C   0  0  0  0  0  0  0  0  0  0  0  0
    2.0095    3.9450    1.2251 C   0  0  0  0  0  0  0  0  0  0  0  0
    0.8281    7.6073    1.1158 C   0  0  0  0  0  0  0  0  0  0  0  0
   -0.5354    8.2204    1.3056 C   0  0  0  0  0  0  0  0  0  0  0  0
   -1.3577    8.4283    0.2140 C   0  0  0  0  0  0  0  0  0  0  0  0
   -2.6102    8.9866    0.3886 C   0  0  0  0  0  0  0  0  0  0  0  0
   -3.0365    9.3459    1.6536 C   0  0  0  0  0  0  0  0  0  0  0  0
   -2.2123    9.1424    2.7445 C   0  0  0  0  0  0  0  0  0  0  0  0
   -0.9616    8.5800    2.5705 C   0  0  0  0  0  0  0  0  0  0  0  0
    2.2053    2.1043   -2.0987 N   0  0  0  0  0  0  0  0  0  0  0  0
    3.6851   -2.6689   -3.3549 H   0  0  0  0  0  0  0  0  0  0  0  0
    4.0978   -1.1168   -4.1222 H   0  0  0  0  0  0  0  0  0  0  0  0
    5.2822   -1.9346   -3.0749 H   0  0  0  0  0  0  0  0  0  0  0  0
    4.2042   -0.0417   -1.8903 H   0  0  0  0  0  0  0  0  0  0  0  0
    3.7915   -1.5938   -1.1230 H   0  0  0  0  0  0  0  0  0  0  0  0
    1.6417   -1.6329   -2.3582 H   0  0  0  0  0  0  0  0  0  0  0  0
    2.0544   -0.0807   -3.1255 H   0  0  0  0  0  0  0  0  0  0  0  0
   -0.7613    3.6183   -0.6568 H   0  0  0  0  0  0  0  0  0  0  0  0
   -0.6305    3.7182    1.1153 H   0  0  0  0  0  0  0  0  0  0  0  0
   -1.1328    5.9404    0.1494 H   0  0  0  0  0  0  0  0  0  0  0  0
    0.3244    5.8330   -0.8684 H   0  0  0  0  0  0  0  0  0  0  0  0
    0.2572    5.8245    2.1846 H   0  0  0  0  0  0  0  0  0  0  0  0
    2.7183    5.8226    2.0101 H   0  0  0  0  0  0  0  0  0  0  0  0
    2.6059    5.7632    0.2340 H   0  0  0  0  0  0  0  0  0  0  0  0
    1.5404    3.6518    2.1642 H   0  0  0  0  0  0  0  0  0  0  0  0
    3.0040    3.5033    1.1624 H   0  0  0  0  0  0  0  0  0  0  0  0
    1.5063    7.9860    1.8805 H   0  0  0  0  0  0  0  0  0  0  0  0
    1.2102    7.8693    0.1292 H   0  0  0  0  0  0  0  0  0  0  0  0
   -1.0230    8.1514   -0.7747 H   0  0  0  0  0  0  0  0  0  0  0  0
   -3.2543    9.1453   -0.4636 H   0  0  0  0  0  0  0  0  0  0  0  0
   -4.0137    9.7852    1.7896 H   0  0  0  0  0  0  0  0  0  0  0  0
   -2.5454    9.4230    3.7328 H   0  0  0  0  0  0  0  0  0  0  0  0
   -0.3175    8.4214    3.4227 H   0  0  0  0  0  0  0  0  0  0  0  0
    2.6464    1.6341   -2.8235 H   0  0  0  0  0  0  0  0  0  0  0  0
    2.1384    3.0718   -2.1180 H   0  0  0  0  0  0  0  0  0  0  0  0
  1  2  1  0  0  0  0
  1 27  1  0  0  0  0
  1 28  1  0  0  0  0
  1 29  1  0  0  0  0
  2  3  1  0  0  0  0
  2 30  1  0  0  0  0
  2 31  1  0  0  0  0
  3  4  1  0  0  0  0
  3 32  1  0  0  0  0
  3 33  1  0  0  0  0
  4 11  1  0  0  0  0
  4  5  1  0  0  0  0
  5  6  2  0  0  0  0
  5 26  1  0  0  0  0
  6  7  1  0  0  0  0
  6 13  1  0  0  0  0
  7  8  2  0  0  0  0
  7  9  1  0  0  0  0
  9 10  1  0  0  0  0
  9 11  1  0  0  0  0
 11 12  2  0  0  0  0
 13 18  1  0  0  0  0
 13 14  1  0  0  0  0
 14 15  1  0  0  0  0
 14 34  1  0  0  0  0
 14 35  1  0  0  0  0
 15 16  1  0  0  0  0
 15 36  1  0  0  0  0
 15 37  1  0  0  0  0
 16 17  1  0  0  0  0
 16 19  1  0  0  0  0
 16 38  1  0  0  0  0
 17 18  1  0  0  0  0
 17 39  1  0  0  0  0
 17 40  1  0  0  0  0
 18 41  1  0  0  0  0
 18 42  1  0  0  0  0
 19 20  1  0  0  0  0
 19 43  1  0  0  0  0
 19 44  1  0  0  0  0
 20 25  2  0  0  0  0
 20 21  1  0  0  0  0
 21 22  2  0  0  0  0
 21 45  1  0  0  0  0
 22 23  1  0  0  0  0
 22 46  1  0  0  0  0
 23 24  2  0  0  0  0
 23 47  1  0  0  0  0
 24 25  1  0  0  0  0
 24 48  1  0  0  0  0
 25 49  1  0  0  0  0
 26 50  1  0  0  0  0
 26 51  1  0  0  0  0
M  END
$$$$
ZINC02655311
  -OEChem-08230709453D

 45 46  0     0  0  0  0  0  0999 V2000
    0.8204   -8.9377   -0.0566 C   0  0  0  0  0  0  0  0  0  0  0  0
    2.2810   -8.4820   -0.0682 C   0  0  0  0  0  0  0  0  0  0  0  0
    2.3358   -7.0181   -0.0604 N   0  0  0  0  0  0  0  0  0  0  0  0
    3.5273   -6.3883   -0.0684 C   0  0  0  0  0  0  0  0  0  0  0  0
    4.9768   -7.2991   -0.0877 S   0  0  0  0  0  0  0  0  0  0  0  0
    3.5778   -5.0415   -0.0611 N   0  0  0  0  0  0  0  0  0  0  0  0
    2.3916   -4.2962   -0.0453 N   0  0  0  0  0  0  0  0  0  0  0  0
    2.4421   -2.9494   -0.0381 C   0  0  0  0  0  0  0  0  0  0  0  0
    3.5170   -2.3812   -0.0453 O   0  0  0  0  0  0  0  0  0  0  0  0
    1.1921   -2.1639   -0.0215 C   0  0  0  0  0  0  0  0  0  0  0  0
    1.2371   -0.6928   -0.0135 C   0  0  0  0  0  0  0  0  0  0  0  0
    2.4284    0.0245   -0.0210 C   0  0  0  0  0  0  0  0  0  0  0  0
    2.3886    1.4027   -0.0132 C   0  0  0  0  0  0  0  0  0  0  0  0
    1.1757    2.0789    0.0020 C   0  0  0  0  0  0  0  0  0  0  0  0
   -0.0168    1.3871    0.0097 C   0  0  0  0  0  0  0  0  0  0  0  0
    0.0021   -0.0041    0.0020 C   0  0  0  0  0  0  0  0  0  0  0  0
   -1.2206   -0.8191    0.0088 C   0  0  0  0  0  0  0  0  0  0  0  0
   -2.3190   -0.2943    0.0225 O   0  0  0  0  0  0  0  0  0  0  0  0
   -1.0976   -2.1624    0.0000 N   0  0  0  0  0  0  0  0  0  0  0  0
    0.0290   -2.7685   -0.0140 N   0  0  0  0  0  0  0  0  0  0  0  0
   -2.3195   -2.9705    0.0073 C   0  0  0  0  0  0  0  0  0  0  0  0
   -2.7587   -3.2441   -1.4325 C   0  0  0  0  0  0  0  0  0  0  0  0
   -1.7065   -4.1075   -2.1313 C   0  0  0  0  0  0  0  0  0  0  0  0
   -4.0999   -3.9803   -1.4255 C   0  0  0  0  0  0  0  0  0  0  0  0
    0.3293   -8.5606    0.8404 H   0  0  0  0  0  0  0  0  0  0  0  0
    0.3119   -8.5504   -0.9394 H   0  0  0  0  0  0  0  0  0  0  0  0
    0.7796  -10.0270   -0.0624 H   0  0  0  0  0  0  0  0  0  0  0  0
    2.7721   -8.8592   -0.9652 H   0  0  0  0  0  0  0  0  0  0  0  0
    2.7895   -8.8694    0.8147 H   0  0  0  0  0  0  0  0  0  0  0  0
    1.5145   -6.5020   -0.0494 H   0  0  0  0  0  0  0  0  0  0  0  0
    4.4354   -4.5883   -0.0669 H   0  0  0  0  0  0  0  0  0  0  0  0
    1.5341   -4.7494   -0.0396 H   0  0  0  0  0  0  0  0  0  0  0  0
    3.3762   -0.4933   -0.0324 H   0  0  0  0  0  0  0  0  0  0  0  0
    3.3118    1.9631   -0.0190 H   0  0  0  0  0  0  0  0  0  0  0  0
    1.1665    3.1589    0.0079 H   0  0  0  0  0  0  0  0  0  0  0  0
   -0.9563    1.9197    0.0170 H   0  0  0  0  0  0  0  0  0  0  0  0
   -2.1268   -3.9160    0.5143 H   0  0  0  0  0  0  0  0  0  0  0  0
   -3.1085   -2.4313    0.5316 H   0  0  0  0  0  0  0  0  0  0  0  0
   -2.8656   -2.2993   -1.9655 H   0  0  0  0  0  0  0  0  0  0  0  0
   -2.0194   -4.3024   -3.1571 H   0  0  0  0  0  0  0  0  0  0  0  0
   -0.7511   -3.5830   -2.1363 H   0  0  0  0  0  0  0  0  0  0  0  0
   -1.5996   -5.0523   -1.5983 H   0  0  0  0  0  0  0  0  0  0  0  0
   -4.8495   -3.3651   -0.9277 H   0  0  0  0  0  0  0  0  0  0  0  0
   -4.4128   -4.1752   -2.4513 H   0  0  0  0  0  0  0  0  0  0  0  0
   -3.9929   -4.9251   -0.8925 H   0  0  0  0  0  0  0  0  0  0  0  0
  1  2  1  0  0  0  0
  1 25  1  0  0  0  0
  1 26  1  0  0  0  0
  1 27  1  0  0  0  0
  2  3  1  0  0  0  0
  2 28  1  0  0  0  0
  2 29  1  0  0  0  0
  3  4  1  0  0  0  0
  3 30  1  0  0  0  0
  4  5  2  0  0  0  0
  4  6  1  0  0  0  0
  6  7  1  0  0  0  0
  6 31  1  0  0  0  0
  7  8  1  0  0  0  0
  7 32  1  0  0  0  0
  8  9  2  0  0  0  0
  8 10  1  0  0  0  0
 10 20  2  0  0  0  0
 10 11  1  0  0  0  0
 11 16  2  0  0  0  0
 11 12  1  0  0  0  0
 12 13  2  0  0  0  0
 12 33  1  0  0  0  0
 13 14  1  0  0  0  0
 13 34  1  0  0  0  0
 14 15  2  0  0  0  0
 14 35  1  0  0  0  0
 15 16  1  0  0  0  0
 15 36  1  0  0  0  0
 16 17  1  0  0  0  0
 17 18  2  0  0  0  0
 17 19  1  0  0  0  0
 19 20  1  0  0  0  0
 19 21  1  0  0  0  0
 21 22  1  0  0  0  0
 21 37  1  0  0  0  0
 21 38  1  0  0  0  0
 22 23  1  0  0  0  0
 22 24  1  0  0  0  0
 22 39  1  0  0  0  0
 23 40  1  0  0  0  0
 23 41  1  0  0  0  0
 23 42  1  0  0  0  0
 24 43  1  0  0  0  0
 24 44  1  0  0  0  0
 24 45  1  0  0  0  0
M  END
$$$$
ZINC02655324
  -OEChem-08230709453D

 45 47  0     0  0  0  0  0  0999 V2000
  -13.6998   -2.2787    6.2241 C   0  0  0  0  0  0  0  0  0  0  0  0
  -12.2654   -1.8314    5.9353 C   0  0  0  0  0  0  0  0  0  0  0  0
  -11.3345   -2.3689    7.0240 C   0  0  0  0  0  0  0  0  0  0  0  0
  -11.8259   -2.3752    4.5744 C   0  0  0  0  0  0  0  0  0  0  0  0
  -10.4609   -1.8346    4.2344 C   0  0  0  0  0  0  0  0  0  0  0  0
   -9.8953   -1.0878    5.0048 O   0  0  0  0  0  0  0  0  0  0  0  0
   -9.8687   -2.1809    3.0743 N   0  0  0  0  0  0  0  0  0  0  0  0
   -8.5632   -1.7576    2.8016 C   0  0  0  0  0  0  0  0  0  0  0  0
   -7.6988   -2.5866    2.0961 C   0  0  0  0  0  0  0  0  0  0  0  0
   -6.4122   -2.1734    1.8259 C   0  0  0  0  0  0  0  0  0  0  0  0
   -5.9772   -0.9192    2.2617 C   0  0  0  0  0  0  0  0  0  0  0  0
   -6.8473   -0.0910    2.9752 C   0  0  0  0  0  0  0  0  0  0  0  0
   -8.1342   -0.5089    3.2365 C   0  0  0  0  0  0  0  0  0  0  0  0
   -4.5991   -0.4726    1.9743 C   0  0  0  0  0  0  0  0  0  0  0  0
   -3.7884   -1.2863    1.2954 C   0  0  0  0  0  0  0  0  0  0  0  0
   -2.1427   -0.7826    0.9254 S   0  0  0  0  0  0  0  0  0  0  0  0
   -2.1605    0.9529    1.2266 C   0  0  0  0  0  0  0  0  0  0  0  0
   -3.1218    1.4980    1.8927 N   0  0  0  0  0  0  0  0  0  0  0  0
   -4.1914    0.7903    2.4241 N   0  0  0  0  0  0  0  0  0  0  0  0
   -1.1330    1.7428    0.7377 N   0  0  0  0  0  0  0  0  0  0  0  0
   -0.0372    1.1331   -0.0197 C   0  0  0  0  0  0  0  0  0  0  0  0
    0.4298    1.8497   -1.2883 C   0  0  0  0  0  0  0  0  0  0  0  0
    1.3055    1.8664   -0.0339 C   0  0  0  0  0  0  0  0  0  0  0  0
  -13.7454   -3.3677    6.2361 H   0  0  0  0  0  0  0  0  0  0  0  0
  -14.0129   -1.8913    7.1937 H   0  0  0  0  0  0  0  0  0  0  0  0
  -14.3630   -1.8957    5.4485 H   0  0  0  0  0  0  0  0  0  0  0  0
  -12.2199   -0.7424    5.9233 H   0  0  0  0  0  0  0  0  0  0  0  0
  -10.3127   -2.0502    6.8182 H   0  0  0  0  0  0  0  0  0  0  0  0
  -11.6476   -1.9815    7.9936 H   0  0  0  0  0  0  0  0  0  0  0  0
  -11.3801   -3.4579    7.0360 H   0  0  0  0  0  0  0  0  0  0  0  0
  -12.5399   -2.0650    3.8114 H   0  0  0  0  0  0  0  0  0  0  0  0
  -11.7862   -3.4637    4.6137 H   0  0  0  0  0  0  0  0  0  0  0  0
  -10.3475   -2.7236    2.4284 H   0  0  0  0  0  0  0  0  0  0  0  0
   -8.0358   -3.5559    1.7595 H   0  0  0  0  0  0  0  0  0  0  0  0
   -5.7409   -2.8183    1.2784 H   0  0  0  0  0  0  0  0  0  0  0  0
   -6.5131    0.8771    3.3179 H   0  0  0  0  0  0  0  0  0  0  0  0
   -8.8089    0.1326    3.7840 H   0  0  0  0  0  0  0  0  0  0  0  0
   -4.1429   -2.2529    0.9690 H   0  0  0  0  0  0  0  0  0  0  0  0
   -4.6875    1.1952    3.1527 H   0  0  0  0  0  0  0  0  0  0  0  0
   -1.1390    2.6997    0.8968 H   0  0  0  0  0  0  0  0  0  0  0  0
   -0.0155    0.0433   -0.0203 H   0  0  0  0  0  0  0  0  0  0  0  0
    0.7587    1.2313   -2.1235 H   0  0  0  0  0  0  0  0  0  0  0  0
   -0.0784    2.7750   -1.5597 H   0  0  0  0  0  0  0  0  0  0  0  0
    1.3735    2.8027    0.5200 H   0  0  0  0  0  0  0  0  0  0  0  0
    2.2106    1.2591   -0.0438 H   0  0  0  0  0  0  0  0  0  0  0  0
  1  2  1  0  0  0  0
  1 24  1  0  0  0  0
  1 25  1  0  0  0  0
  1 26  1  0  0  0  0
  2  3  1  0  0  0  0
  2  4  1  0  0  0  0
  2 27  1  0  0  0  0
  3 28  1  0  0  0  0
  3 29  1  0  0  0  0
  3 30  1  0  0  0  0
  4  5  1  0  0  0  0
  4 31  1  0  0  0  0
  4 32  1  0  0  0  0
  5  6  2  0  0  0  0
  5  7  1  0  0  0  0
  7  8  1  0  0  0  0
  7 33  1  0  0  0  0
  8 13  2  0  0  0  0
  8  9  1  0  0  0  0
  9 10  2  0  0  0  0
  9 34  1  0  0  0  0
 10 11  1  0  0  0  0
 10 35  1  0  0  0  0
 11 12  2  0  0  0  0
 11 14  1  0  0  0  0
 12 13  1  0  0  0  0
 12 36  1  0  0  0  0
 13 37  1  0  0  0  0
 14 19  1  0  0  0  0
 14 15  2  0  0  0  0
 15 16  1  0  0  0  0
 15 38  1  0  0  0  0
 16 17  1  0  0  0  0
 17 18  2  0  0  0  0
 17 20  1  0  0  0  0
 18 19  1  0  0  0  0
 19 39  1  0  0  0  0
 20 21  1  0  0  0  0
 20 40  1  0  0  0  0
 21 23  1  0  0  0  0
 21 22  1  0  0  0  0
 21 41  1  0  0  0  0
 22 23  1  0  0  0  0
 22 42  1  0  0  0  0
 22 43  1  0  0  0  0
 23 44  1  0  0  0  0
 23 45  1  0  0  0  0
M  END
$$$$
ZINC02662213
  -OEChem-08230709453D

 41 43  0     0  0  0  0  0  0999 V2000
   -8.2855   -2.1302    0.6027 C   0  0  0  0  0  0  0  0  0  0  0  0
   -7.1761   -1.1175    0.4807 C   0  0  0  0  0  0  0  0  0  0  0  0
   -7.4598    0.2368    0.3966 C   0  0  0  0  0  0  0  0  0  0  0  0
   -6.4630    1.0994    0.2898 N   0  0  0  0  0  0  0  0  0  0  0  0
   -5.2053    0.6815    0.2630 C   0  0  0  0  0  0  0  0  0  0  0  0
   -4.9006   -0.6065    0.3363 N   0  0  0  0  0  0  0  0  0  0  0  0
   -5.8501   -1.5203    0.4496 C   0  0  0  0  0  0  0  0  0  0  0  0
   -5.4948   -2.9821    0.5377 C   0  0  0  0  0  0  0  0  0  0  0  0
   -3.9083    1.8654    0.1191 S   0  0  0  0  0  0  0  0  0  0  0  0
   -2.4731    0.7627    0.1334 C   0  0  0  0  0  0  0  0  0  0  0  0
   -1.2114    1.5787    0.0176 C   0  0  0  0  0  0  0  0  0  0  0  0
   -1.2762    2.7869   -0.0663 O   0  0  0  0  0  0  0  0  0  0  0  0
   -0.0111    0.9658    0.0074 N   0  0  0  0  0  0  0  0  0  0  0  0
    1.1643    1.7278   -0.0085 C   0  0  0  0  0  0  0  0  0  0  0  0
    2.2883    1.2838    0.6788 C   0  0  0  0  0  0  0  0  0  0  0  0
    3.4508    2.0278    0.6633 C   0  0  0  0  0  0  0  0  0  0  0  0
    3.4957    3.2271   -0.0317 C   0  0  0  0  0  0  0  0  0  0  0  0
    2.3669    3.6784   -0.7186 C   0  0  0  0  0  0  0  0  0  0  0  0
    1.2026    2.9264   -0.7051 C   0  0  0  0  0  0  0  0  0  0  0  0
    2.7132    4.8912   -1.3097 N   0  0  0  0  0  0  0  0  0  0  0  0
    2.1308    5.4440   -1.8539 H   0  0  0  0  0  0  0  0  0  0  0  0
    3.9936    5.1658   -0.9973 C   0  0  0  0  0  0  0  0  0  0  0  0
    4.6061    6.1539   -1.3570 O   0  0  0  0  0  0  0  0  0  0  0  0
    4.4939    4.1813   -0.2273 N   0  0  0  0  0  0  0  0  0  0  0  0
    5.3947    4.1422    0.1303 H   0  0  0  0  0  0  0  0  0  0  0  0
   -8.8868    0.7202    0.4259 C   0  0  0  0  0  0  0  0  0  0  0  0
   -8.5988   -2.4475   -0.3919 H   0  0  0  0  0  0  0  0  0  0  0  0
   -7.9290   -2.9938    1.1641 H   0  0  0  0  0  0  0  0  0  0  0  0
   -9.1311   -1.6817    1.1242 H   0  0  0  0  0  0  0  0  0  0  0  0
   -5.4553   -3.4075   -0.4651 H   0  0  0  0  0  0  0  0  0  0  0  0
   -4.5222   -3.0914    1.0173 H   0  0  0  0  0  0  0  0  0  0  0  0
   -6.2501   -3.5049    1.1245 H   0  0  0  0  0  0  0  0  0  0  0  0
   -2.5374    0.0717   -0.7072 H   0  0  0  0  0  0  0  0  0  0  0  0
   -2.4571    0.1993    1.0664 H   0  0  0  0  0  0  0  0  0  0  0  0
    0.0389   -0.0029    0.0069 H   0  0  0  0  0  0  0  0  0  0  0  0
    2.2529    0.3518    1.2233 H   0  0  0  0  0  0  0  0  0  0  0  0
    4.3236    1.6779    1.1945 H   0  0  0  0  0  0  0  0  0  0  0  0
    0.3277    3.2731   -1.2351 H   0  0  0  0  0  0  0  0  0  0  0  0
   -9.2768    0.7632   -0.5910 H   0  0  0  0  0  0  0  0  0  0  0  0
   -9.4911    0.0331    1.0181 H   0  0  0  0  0  0  0  0  0  0  0  0
   -8.9246    1.7141    0.8719 H   0  0  0  0  0  0  0  0  0  0  0  0
  1  2  1  0  0  0  0
  1 27  1  0  0  0  0
  1 28  1  0  0  0  0
  1 29  1  0  0  0  0
  2  7  2  0  0  0  0
  2  3  1  0  0  0  0
  3  4  2  0  0  0  0
  3 26  1  0  0  0  0
  4  5  1  0  0  0  0
  5  6  2  0  0  0  0
  5  9  1  0  0  0  0
  6  7  1  0  0  0  0
  7  8  1  0  0  0  0
  8 30  1  0  0  0  0
  8 31  1  0  0  0  0
  8 32  1  0  0  0  0
  9 10  1  0  0  0  0
 10 11  1  0  0  0  0
 10 33  1  0  0  0  0
 10 34  1  0  0  0  0
 11 12  2  0  0  0  0
 11 13  1  0  0  0  0
 13 14  1  0  0  0  0
 13 35  1  0  0  0  0
 14 19  2  0  0  0  0
 14 15  1  0  0  0  0
 15 16  2  0  0  0  0
 15 36  1  0  0  0  0
 16 17  1  0  0  0  0
 16 37  1  0  0  0  0
 17 24  1  0  0  0  0
 17 18  2  0  0  0  0
 18 19  1  0  0  0  0
 18 20  1  0  0  0  0
 19 38  1  0  0  0  0
 20 21  1  0  0  0  0
 20 22  1  0  0  0  0
 22 23  2  0  0  0  0
 22 24  1  0  0  0  0
 24 25  1  0  0  0  0
 26 39  1  0  0  0  0
 26 40  1  0  0  0  0
 26 41  1  0  0  0  0
M  END
$$$$
ZINC02662222
  -OEChem-08230709453D

 43 45  0     0  0  0  0  0  0999 V2000
    4.7742    3.7773   -0.0232 C   0  0  0  0  0  0  0  0  0  0  0  0
    3.5319    2.8842   -0.0162 C   0  0  0  0  0  0  0  0  0  0  0  0
    2.3588    3.7001   -0.0006 O   0  0  0  0  0  0  0  0  0  0  0  0
    1.1651    3.0605    0.0074 C   0  0  0  0  0  0  0  0  0  0  0  0
   -0.0248    3.8045    0.0223 C   0  0  0  0  0  0  0  0  0  0  0  0
   -1.2468    3.1220    0.0303 C   0  0  0  0  0  0  0  0  0  0  0  0
   -1.2266    1.7384    0.0174 C   0  0  0  0  0  0  0  0  0  0  0  0
   -0.0126    1.0758    0.0080 C   0  0  0  0  0  0  0  0  0  0  0  0
    1.1277    1.7390    0.0006 N   0  0  0  0  0  0  0  0  0  0  0  0
    0.0117    5.2788    0.0289 C   0  0  0  0  0  0  0  0  0  0  0  0
    1.0794    5.8606    0.0214 O   0  0  0  0  0  0  0  0  0  0  0  0
   -1.1384    5.9813    0.0432 N   0  0  0  0  0  0  0  0  0  0  0  0
   -1.1042    7.3663    0.0494 C   0  0  0  0  0  0  0  0  0  0  0  0
   -2.1700    8.2554    0.0581 C   0  0  0  0  0  0  0  0  0  0  0  0
   -1.8601    9.6750    0.0671 C   0  0  0  0  0  0  0  0  0  0  0  0
   -0.5436    9.9765    0.0553 C   0  0  0  0  0  0  0  0  0  0  0  0
    0.2795    8.4091    0.0405 S   0  0  0  0  0  0  0  0  0  0  0  0
    0.0703   11.3425    0.0546 C   0  0  0  0  0  0  0  0  0  0  0  0
   -1.0191   12.3621   -0.3084 C   0  0  0  0  0  0  0  0  0  0  0  0
   -2.2625   12.0785    0.5393 C   0  0  0  0  0  0  0  0  0  0  0  0
   -2.9165   10.7731    0.0831 C   0  0  0  0  0  0  0  0  0  0  0  0
   -3.5568    7.7799    0.0623 C   0  0  0  0  0  0  0  0  0  0  0  0
   -4.1278    7.5783    1.1181 O   0  0  0  0  0  0  0  0  0  0  0  0
   -4.1994    7.5659   -1.1029 N   0  0  0  0  0  0  0  0  0  0  0  0
    4.7608    4.4113   -0.9097 H   0  0  0  0  0  0  0  0  0  0  0  0
    4.7778    4.4018    0.8701 H   0  0  0  0  0  0  0  0  0  0  0  0
    5.6690    3.1549   -0.0351 H   0  0  0  0  0  0  0  0  0  0  0  0
    3.5453    2.2502    0.8703 H   0  0  0  0  0  0  0  0  0  0  0  0
    3.5283    2.2597   -0.9095 H   0  0  0  0  0  0  0  0  0  0  0  0
   -2.1821    3.6618    0.0417 H   0  0  0  0  0  0  0  0  0  0  0  0
   -2.1513    1.1805    0.0184 H   0  0  0  0  0  0  0  0  0  0  0  0
    0.0021   -0.0041    0.0020 H   0  0  0  0  0  0  0  0  0  0  0  0
   -1.9902    5.5172    0.0491 H   0  0  0  0  0  0  0  0  0  0  0  0
    0.4680   11.5668    1.0444 H   0  0  0  0  0  0  0  0  0  0  0  0
    0.8729   11.3840   -0.6817 H   0  0  0  0  0  0  0  0  0  0  0  0
   -0.6590   13.3702   -0.1031 H   0  0  0  0  0  0  0  0  0  0  0  0
   -1.2669   12.2711   -1.3660 H   0  0  0  0  0  0  0  0  0  0  0  0
   -1.9745   11.9924    1.5871 H   0  0  0  0  0  0  0  0  0  0  0  0
   -2.9730   12.8972    0.4253 H   0  0  0  0  0  0  0  0  0  0  0  0
   -3.7142   10.5027    0.7749 H   0  0  0  0  0  0  0  0  0  0  0  0
   -3.3286   10.9012   -0.9178 H   0  0  0  0  0  0  0  0  0  0  0  0
   -3.7443    7.7265   -1.9444 H   0  0  0  0  0  0  0  0  0  0  0  0
   -5.1169    7.2513   -1.1001 H   0  0  0  0  0  0  0  0  0  0  0  0
  1  2  1  0  0  0  0
  1 25  1  0  0  0  0
  1 26  1  0  0  0  0
  1 27  1  0  0  0  0
  2  3  1  0  0  0  0
  2 28  1  0  0  0  0
  2 29  1  0  0  0  0
  3  4  1  0  0  0  0
  4  9  2  0  0  0  0
  4  5  1  0  0  0  0
  5  6  2  0  0  0  0
  5 10  1  0  0  0  0
  6  7  1  0  0  0  0
  6 30  1  0  0  0  0
  7  8  2  0  0  0  0
  7 31  1  0  0  0  0
  8  9  1  0  0  0  0
  8 32  1  0  0  0  0
 10 11  2  0  0  0  0
 10 12  1  0  0  0  0
 12 13  1  0  0  0  0
 12 33  1  0  0  0  0
 13 17  1  0  0  0  0
 13 14  2  0  0  0  0
 14 15  1  0  0  0  0
 14 22  1  0  0  0  0
 15 21  1  0  0  0  0
 15 16  2  0  0  0  0
 16 17  1  0  0  0  0
 16 18  1  0  0  0  0
 18 19  1  0  0  0  0
 18 34  1  0  0  0  0
 18 35  1  0  0  0  0
 19 20  1  0  0  0  0
 19 36  1  0  0  0  0
 19 37  1  0  0  0  0
 20 21  1  0  0  0  0
 20 38  1  0  0  0  0
 20 39  1  0  0  0  0
 21 40  1  0  0  0  0
 21 41  1  0  0  0  0
 22 23  2  0  0  0  0
 22 24  1  0  0  0  0
 24 42  1  0  0  0  0
 24 43  1  0  0  0  0
M  END
$$$$
ZINC02662513
  -OEChem-08230709453D

 42 44  0     0  0  0  0  0  0999 V2000
   -0.9395    4.0050    5.5344 C   0  0  0  0  0  0  0  0  0  0  0  0
   -2.1663    4.0842    4.6235 C   0  0  0  0  0  0  0  0  0  0  0  0
   -2.2468    5.4652    3.9311 C   0  0  0  0  0  0  0  0  0  0  0  0
   -1.5245    5.2034    2.6235 C   0  0  0  0  0  0  0  0  0  0  0  0
   -0.9989    6.0510    1.6715 C   0  0  0  0  0  0  0  0  0  0  0  0
   -0.3679    5.5333    0.5549 C   0  0  0  0  0  0  0  0  0  0  0  0
   -0.2646    4.1634    0.3970 C   0  0  0  0  0  0  0  0  0  0  0  0
   -0.7931    3.3096    1.3486 C   0  0  0  0  0  0  0  0  0  0  0  0
   -1.4405    3.8271    2.4734 C   0  0  0  0  0  0  0  0  0  0  0  0
   -2.0360    3.1796    3.5136 O   0  0  0  0  0  0  0  0  0  0  0  0
   -0.6872    1.9636    1.1860 O   0  0  0  0  0  0  0  0  0  0  0  0
   -0.0184    1.5028    0.0103 C   0  0  0  0  0  0  0  0  0  0  0  0
    0.0021   -0.0041    0.0020 C   0  0  0  0  0  0  0  0  0  0  0  0
   -0.5061   -0.6224    0.9132 O   0  0  0  0  0  0  0  0  0  0  0  0
    0.5851   -0.6645   -1.0180 N   0  0  0  0  0  0  0  0  0  0  0  0
    0.6039   -2.0510   -1.0256 C   0  0  0  0  0  0  0  0  0  0  0  0
    1.1461   -2.9018   -1.9815 C   0  0  0  0  0  0  0  0  0  0  0  0
    1.0262   -4.3186   -1.7324 C   0  0  0  0  0  0  0  0  0  0  0  0
    0.3934   -4.6927   -0.6058 C   0  0  0  0  0  0  0  0  0  0  0  0
   -0.0492   -3.1421    0.1497 S   0  0  0  0  0  0  0  0  0  0  0  0
    1.8107   -2.3856   -3.1822 C   0  0  0  0  0  0  0  0  0  0  0  0
    1.8978   -1.1848   -3.3609 O   0  0  0  0  0  0  0  0  0  0  0  0
    2.3251   -3.2408   -4.0881 N   0  0  0  0  0  0  0  0  0  0  0  0
   -3.4468    3.7965    5.4099 C   0  0  0  0  0  0  0  0  0  0  0  0
   -1.0044    4.7788    6.2993 H   0  0  0  0  0  0  0  0  0  0  0  0
   -0.9033    3.0253    6.0107 H   0  0  0  0  0  0  0  0  0  0  0  0
   -0.0369    4.1546    4.9419 H   0  0  0  0  0  0  0  0  0  0  0  0
   -1.7292    6.2252    4.5165 H   0  0  0  0  0  0  0  0  0  0  0  0
   -3.2830    5.7524    3.7528 H   0  0  0  0  0  0  0  0  0  0  0  0
   -1.0803    7.1205    1.7977 H   0  0  0  0  0  0  0  0  0  0  0  0
    0.0426    6.1970   -0.1916 H   0  0  0  0  0  0  0  0  0  0  0  0
    0.2311    3.7583   -0.4728 H   0  0  0  0  0  0  0  0  0  0  0  0
    1.0042    1.8801    0.0026 H   0  0  0  0  0  0  0  0  0  0  0  0
   -0.5455    1.8639   -0.8728 H   0  0  0  0  0  0  0  0  0  0  0  0
    0.9915   -0.1699   -1.7467 H   0  0  0  0  0  0  0  0  0  0  0  0
    1.4239   -5.0473   -2.4232 H   0  0  0  0  0  0  0  0  0  0  0  0
    0.2006   -5.6926   -0.2460 H   0  0  0  0  0  0  0  0  0  0  0  0
    2.2556   -4.1977   -3.9457 H   0  0  0  0  0  0  0  0  0  0  0  0
    2.7647   -2.8993   -4.8824 H   0  0  0  0  0  0  0  0  0  0  0  0
   -4.2991    3.8001    4.7304 H   0  0  0  0  0  0  0  0  0  0  0  0
   -3.3678    2.8203    5.8884 H   0  0  0  0  0  0  0  0  0  0  0  0
   -3.5858    4.5641    6.1712 H   0  0  0  0  0  0  0  0  0  0  0  0
  1  2  1  0  0  0  0
  1 25  1  0  0  0  0
  1 26  1  0  0  0  0
  1 27  1  0  0  0  0
  2 10  1  0  0  0  0
  2  3  1  0  0  0  0
  2 24  1  0  0  0  0
  3  4  1  0  0  0  0
  3 28  1  0  0  0  0
  3 29  1  0  0  0  0
  4  9  2  0  0  0  0
  4  5  1  0  0  0  0
  5  6  2  0  0  0  0
  5 30  1  0  0  0  0
  6  7  1  0  0  0  0
  6 31  1  0  0  0  0
  7  8  2  0  0  0  0
  7 32  1  0  0  0  0
  8  9  1  0  0  0  0
  8 11  1  0  0  0  0
  9 10  1  0  0  0  0
 11 12  1  0  0  0  0
 12 13  1  0  0  0  0
 12 33  1  0  0  0  0
 12 34  1  0  0  0  0
 13 14  2  0  0  0  0
 13 15  1  0  0  0  0
 15 16  1  0  0  0  0
 15 35  1  0  0  0  0
 16 20  1  0  0  0  0
 16 17  2  0  0  0  0
 17 18  1  0  0  0  0
 17 21  1  0  0  0  0
 18 19  2  0  0  0  0
 18 36  1  0  0  0  0
 19 20  1  0  0  0  0
 19 37  1  0  0  0  0
 21 22  2  0  0  0  0
 21 23  1  0  0  0  0
 23 38  1  0  0  0  0
 23 39  1  0  0  0  0
 24 40  1  0  0  0  0
 24 41  1  0  0  0  0
 24 42  1  0  0  0  0
M  END
$$$$
ZINC02679227
  -OEChem-08230709453D

 44 48  0     0  0  0  0  0  0999 V2000
   -1.0453   -8.9674    0.2931 C   0  0  0  0  0  0  0  0  0  0  0  0
   -1.9881   -7.9831    0.5572 C   0  0  0  0  0  0  0  0  0  0  0  0
   -1.6566   -6.6489    0.4629 C   0  0  0  0  0  0  0  0  0  0  0  0
   -0.3607   -6.2868    0.0984 C   0  0  0  0  0  0  0  0  0  0  0  0
    0.5984   -7.2873   -0.1702 C   0  0  0  0  0  0  0  0  0  0  0  0
    0.2411   -8.6311   -0.0686 C   0  0  0  0  0  0  0  0  0  0  0  0
    1.9552   -6.8745   -0.5513 C   0  0  0  0  0  0  0  0  0  0  0  0
    2.2571   -5.6090   -0.6357 N   0  0  0  0  0  0  0  0  0  0  0  0
    1.3346   -4.5882   -0.3762 N   0  0  0  0  0  0  0  0  0  0  0  0
    0.0476   -4.8801   -0.0170 C   0  0  0  0  0  0  0  0  0  0  0  0
   -0.8283   -3.9198    0.2270 N   0  0  0  0  0  0  0  0  0  0  0  0
   -0.4859   -2.6464    0.1333 C   0  0  0  0  0  0  0  0  0  0  0  0
    0.8159   -2.2494   -0.2275 C   0  0  0  0  0  0  0  0  0  0  0  0
    1.7399   -3.3055   -0.4867 C   0  0  0  0  0  0  0  0  0  0  0  0
    2.8893   -3.0506   -0.8067 O   0  0  0  0  0  0  0  0  0  0  0  0
    1.0475   -0.8053   -0.2889 C   0  0  0  0  0  0  0  0  0  0  0  0
    0.0021   -0.0041    0.0020 C   0  0  0  0  0  0  0  0  0  0  0  0
   -1.3360   -1.1067    0.3707 S   0  0  0  0  0  0  0  0  0  0  0  0
   -0.0182    1.4943    0.0103 C   0  0  0  0  0  0  0  0  0  0  0  0
    1.4320    1.9985   -0.0009 C   0  0  0  0  0  0  0  0  0  0  0  0
    2.2062    1.2435   -1.0852 C   0  0  0  0  0  0  0  0  0  0  0  0
    2.4033   -0.2131   -0.6638 C   0  0  0  0  0  0  0  0  0  0  0  0
    2.9192   -7.8347   -0.8231 N   0  0  0  0  0  0  0  0  0  0  0  0
    4.2734   -7.4257   -1.2040 C   0  0  0  0  0  0  0  0  0  0  0  0
    5.1323   -8.6685   -1.4463 C   0  0  0  0  0  0  0  0  0  0  0  0
    4.6236   -9.3870   -2.5720 O   0  0  0  0  0  0  0  0  0  0  0  0
   -1.3231  -10.0081    0.3721 H   0  0  0  0  0  0  0  0  0  0  0  0
   -2.9916   -8.2659    0.8391 H   0  0  0  0  0  0  0  0  0  0  0  0
   -2.3957   -5.8891    0.6695 H   0  0  0  0  0  0  0  0  0  0  0  0
    0.9678   -9.4036   -0.2724 H   0  0  0  0  0  0  0  0  0  0  0  0
   -0.5406    1.8592   -0.8741 H   0  0  0  0  0  0  0  0  0  0  0  0
   -0.5235    1.8496    0.9083 H   0  0  0  0  0  0  0  0  0  0  0  0
    1.4460    3.0665   -0.2181 H   0  0  0  0  0  0  0  0  0  0  0  0
    1.8904    1.8146    0.9708 H   0  0  0  0  0  0  0  0  0  0  0  0
    3.1790    1.7136   -1.2295 H   0  0  0  0  0  0  0  0  0  0  0  0
    1.6453    1.2776   -2.0192 H   0  0  0  0  0  0  0  0  0  0  0  0
    3.0715   -0.2573    0.1962 H   0  0  0  0  0  0  0  0  0  0  0  0
    2.8323   -0.7779   -1.4915 H   0  0  0  0  0  0  0  0  0  0  0  0
    2.6965   -8.7767   -0.7608 H   0  0  0  0  0  0  0  0  0  0  0  0
    4.2302   -6.8305   -2.1161 H   0  0  0  0  0  0  0  0  0  0  0  0
    4.7124   -6.8313   -0.4027 H   0  0  0  0  0  0  0  0  0  0  0  0
    6.1611   -8.3666   -1.6426 H   0  0  0  0  0  0  0  0  0  0  0  0
    5.1033   -9.3078   -0.5639 H   0  0  0  0  0  0  0  0  0  0  0  0
    5.1208  -10.1888   -2.7841 H   0  0  0  0  0  0  0  0  0  0  0  0
  1  6  2  0  0  0  0
  1  2  1  0  0  0  0
  1 27  1  0  0  0  0
  2  3  2  0  0  0  0
  2 28  1  0  0  0  0
  3  4  1  0  0  0  0
  3 29  1  0  0  0  0
  4 10  1  0  0  0  0
  4  5  2  0  0  0  0
  5  6  1  0  0  0  0
  5  7  1  0  0  0  0
  6 30  1  0  0  0  0
  7  8  2  0  0  0  0
  7 23  1  0  0  0  0
  8  9  1  0  0  0  0
  9 14  1  0  0  0  0
  9 10  1  0  0  0  0
 10 11  2  0  0  0  0
 11 12  1  0  0  0  0
 12 18  1  0  0  0  0
 12 13  2  0  0  0  0
 13 14  1  0  0  0  0
 13 16  1  0  0  0  0
 14 15  2  0  0  0  0
 16 22  1  0  0  0  0
 16 17  2  0  0  0  0
 17 18  1  0  0  0  0
 17 19  1  0  0  0  0
 19 20  1  0  0  0  0
 19 31  1  0  0  0  0
 19 32  1  0  0  0  0
 20 21  1  0  0  0  0
 20 33  1  0  0  0  0
 20 34  1  0  0  0  0
 21 22  1  0  0  0  0
 21 35  1  0  0  0  0
 21 36  1  0  0  0  0
 22 37  1  0  0  0  0
 22 38  1  0  0  0  0
 23 24  1  0  0  0  0
 23 39  1  0  0  0  0
 24 25  1  0  0  0  0
 24 40  1  0  0  0  0
 24 41  1  0  0  0  0
 25 26  1  0  0  0  0
 25 42  1  0  0  0  0
 25 43  1  0  0  0  0
 26 44  1  0  0  0  0
M  END
$$$$
ZINC02728265
  -OEChem-08230709453D

 44 45  0     0  0  0  0  0  0999 V2000
   -2.9776    4.1998    0.2018 C   0  0  0  0  0  0  0  0  0  0  0  0
   -2.6082    2.7508    0.0138 C   0  0  0  0  0  0  0  0  0  0  0  0
   -1.3533    2.2520   -0.0715 C   0  0  0  0  0  0  0  0  0  0  0  0
   -1.4514    0.8678   -0.2470 C   0  0  0  0  0  0  0  0  0  0  0  0
   -2.7195    0.5460   -0.2569 N   0  0  0  0  0  0  0  0  0  0  0  0
   -3.4697    1.7177   -0.0939 N   0  0  0  0  0  0  0  0  0  0  0  0
   -4.9313    1.8060   -0.0485 C   0  0  0  0  0  0  0  0  0  0  0  0
   -5.4063    1.6598    1.3986 C   0  0  0  0  0  0  0  0  0  0  0  0
   -6.8680    1.7481    1.4440 N   0  0  0  0  0  0  0  0  0  0  0  0
   -7.5129    1.6456    2.6230 C   0  0  0  0  0  0  0  0  0  0  0  0
   -6.6241    1.4123    4.0675 S   0  0  0  0  0  0  0  0  0  0  0  0
   -8.8576    1.7268    2.6648 N   0  0  0  0  0  0  0  0  0  0  0  0
   -9.5349    1.5300    3.8778 C   0  0  0  0  0  0  0  0  0  0  0  0
   -9.1009    2.1729    5.0275 C   0  0  0  0  0  0  0  0  0  0  0  0
   -9.7685    1.9799    6.2219 C   0  0  0  0  0  0  0  0  0  0  0  0
  -10.8737    1.1431    6.2740 C   0  0  0  0  0  0  0  0  0  0  0  0
  -11.3112    0.4977    5.1272 C   0  0  0  0  0  0  0  0  0  0  0  0
  -10.6473    0.6933    3.9273 C   0  0  0  0  0  0  0  0  0  0  0  0
  -11.0780    0.0657    2.8005 O   0  0  0  0  0  0  0  0  0  0  0  0
  -12.2250   -0.7774    2.9257 C   0  0  0  0  0  0  0  0  0  0  0  0
  -11.5290    0.9559    7.4506 O   0  0  0  0  0  0  0  0  0  0  0  0
  -11.0245    1.6521    8.5920 C   0  0  0  0  0  0  0  0  0  0  0  0
   -0.3164   -0.0715   -0.3903 N   0  3  0  0  0  0  0  0  0  0  0  0
   -0.5261   -1.2627   -0.5335 O   0  0  0  0  0  0  0  0  0  0  0  0
    0.8271    0.3475   -0.3700 O   0  5  0  0  0  0  0  0  0  0  0  0
   -3.0428    4.4229    1.2667 H   0  0  0  0  0  0  0  0  0  0  0  0
   -2.2159    4.8311   -0.2557 H   0  0  0  0  0  0  0  0  0  0  0  0
   -3.9411    4.3932   -0.2697 H   0  0  0  0  0  0  0  0  0  0  0  0
   -0.4377    2.8222   -0.0163 H   0  0  0  0  0  0  0  0  0  0  0  0
   -5.2493    2.7725   -0.4394 H   0  0  0  0  0  0  0  0  0  0  0  0
   -5.3625    1.0092   -0.6546 H   0  0  0  0  0  0  0  0  0  0  0  0
   -5.0884    0.6933    1.7895 H   0  0  0  0  0  0  0  0  0  0  0  0
   -4.9752    2.4566    2.0047 H   0  0  0  0  0  0  0  0  0  0  0  0
   -7.3716    1.8803    0.6256 H   0  0  0  0  0  0  0  0  0  0  0  0
   -9.3571    1.9212    1.8564 H   0  0  0  0  0  0  0  0  0  0  0  0
   -8.2409    2.8251    4.9892 H   0  0  0  0  0  0  0  0  0  0  0  0
   -9.4295    2.4816    7.1162 H   0  0  0  0  0  0  0  0  0  0  0  0
  -12.1719   -0.1533    5.1685 H   0  0  0  0  0  0  0  0  0  0  0  0
  -12.0154   -1.5721    3.6416 H   0  0  0  0  0  0  0  0  0  0  0  0
  -13.0728   -0.1881    3.2749 H   0  0  0  0  0  0  0  0  0  0  0  0
  -12.4617   -1.2152    1.9559 H   0  0  0  0  0  0  0  0  0  0  0  0
   -9.9950    1.3464    8.7783 H   0  0  0  0  0  0  0  0  0  0  0  0
  -11.0568    2.7257    8.4064 H   0  0  0  0  0  0  0  0  0  0  0  0
  -11.6370    1.4152    9.4620 H   0  0  0  0  0  0  0  0  0  0  0  0
  1  2  1  0  0  0  0
  1 26  1  0  0  0  0
  1 27  1  0  0  0  0
  1 28  1  0  0  0  0
  2  6  1  0  0  0  0
  2  3  2  0  0  0  0
  3  4  1  0  0  0  0
  3 29  1  0  0  0  0
  4  5  2  0  0  0  0
  4 23  1  0  0  0  0
  5  6  1  0  0  0  0
  6  7  1  0  0  0  0
  7  8  1  0  0  0  0
  7 30  1  0  0  0  0
  7 31  1  0  0  0  0
  8  9  1  0  0  0  0
  8 32  1  0  0  0  0
  8 33  1  0  0  0  0
  9 10  1  0  0  0  0
  9 34  1  0  0  0  0
 10 11  2  0  0  0  0
 10 12  1  0  0  0  0
 12 13  1  0  0  0  0
 12 35  1  0  0  0  0
 13 18  2  0  0  0  0
 13 14  1  0  0  0  0
 14 15  2  0  0  0  0
 14 36  1  0  0  0  0
 15 16  1  0  0  0  0
 15 37  1  0  0  0  0
 16 17  2  0  0  0  0
 16 21  1  0  0  0  0
 17 18  1  0  0  0  0
 17 38  1  0  0  0  0
 18 19  1  0  0  0  0
 19 20  1  0  0  0  0
 20 39  1  0  0  0  0
 20 40  1  0  0  0  0
 20 41  1  0  0  0  0
 21 22  1  0  0  0  0
 22 42  1  0  0  0  0
 22 43  1  0  0  0  0
 22 44  1  0  0  0  0
 23 24  2  0  0  0  0
 23 25  1  0  0  0  0
M  CHG  2  23   1  25  -1
M  END
$$$$
ZINC02736025
  -OEChem-08230709453D

 41 42  0     0  0  0  0  0  0999 V2000
   -6.6904  -10.1168    1.0697 C   0  0  0  0  0  0  0  0  0  0  0  0
   -6.0236   -8.7717    0.9388 C   0  0  0  0  0  0  0  0  0  0  0  0
   -4.6927   -8.5402    0.8525 C   0  0  0  0  0  0  0  0  0  0  0  0
   -4.5593   -7.1355    0.7459 C   0  0  0  0  0  0  0  0  0  0  0  0
   -5.7761   -6.6300    0.7792 N   0  0  0  0  0  0  0  0  0  0  0  0
   -6.6424   -7.5726    0.8862 N   0  0  0  0  0  0  0  0  0  0  0  0
   -8.0926   -7.3747    0.9490 C   0  0  0  0  0  0  0  0  0  0  0  0
   -3.2962   -6.3791    0.6264 C   0  0  0  0  0  0  0  0  0  0  0  0
   -2.2333   -6.9691    0.6129 O   0  0  0  0  0  0  0  0  0  0  0  0
   -3.3220   -5.0349    0.5323 N   0  0  0  0  0  0  0  0  0  0  0  0
   -2.0693   -4.2847    0.4138 C   0  0  0  0  0  0  0  0  0  0  0  0
   -2.3773   -2.7887    0.3236 C   0  0  0  0  0  0  0  0  0  0  0  0
   -1.1246   -2.0385    0.2051 N   0  0  0  0  0  0  0  0  0  0  0  0
   -1.1504   -0.6943    0.1110 C   0  0  0  0  0  0  0  0  0  0  0  0
   -2.6472    0.1365    0.1300 S   0  0  0  0  0  0  0  0  0  0  0  0
    0.0021   -0.0041    0.0020 N   0  0  0  0  0  0  0  0  0  0  0  0
   -0.0158    1.3946    0.0210 C   0  0  0  0  0  0  0  0  0  0  0  0
    0.7885    2.1127   -0.8544 C   0  0  0  0  0  0  0  0  0  0  0  0
    0.7642    3.4935   -0.8371 C   0  0  0  0  0  0  0  0  0  0  0  0
   -0.0515    4.1610    0.0581 C   0  0  0  0  0  0  0  0  0  0  0  0
   -0.8489    3.4489    0.9352 C   0  0  0  0  0  0  0  0  0  0  0  0
   -0.8335    2.0680    0.9191 C   0  0  0  0  0  0  0  0  0  0  0  0
   -6.7971  -10.3683    2.1249 H   0  0  0  0  0  0  0  0  0  0  0  0
   -7.6749  -10.0812    0.6033 H   0  0  0  0  0  0  0  0  0  0  0  0
   -6.0814  -10.8738    0.5755 H   0  0  0  0  0  0  0  0  0  0  0  0
   -3.8997   -9.2733    0.8626 H   0  0  0  0  0  0  0  0  0  0  0  0
   -8.3980   -7.2527    1.9882 H   0  0  0  0  0  0  0  0  0  0  0  0
   -8.3623   -6.4825    0.3839 H   0  0  0  0  0  0  0  0  0  0  0  0
   -8.5965   -8.2416    0.5216 H   0  0  0  0  0  0  0  0  0  0  0  0
   -4.1701   -4.5642    0.5431 H   0  0  0  0  0  0  0  0  0  0  0  0
   -1.5397   -4.6014   -0.4847 H   0  0  0  0  0  0  0  0  0  0  0  0
   -1.4474   -4.4755    1.2884 H   0  0  0  0  0  0  0  0  0  0  0  0
   -2.9069   -2.4720    1.2222 H   0  0  0  0  0  0  0  0  0  0  0  0
   -2.9992   -2.5978   -0.5509 H   0  0  0  0  0  0  0  0  0  0  0  0
   -0.2765   -2.5092    0.1944 H   0  0  0  0  0  0  0  0  0  0  0  0
    0.8439   -0.4772   -0.0896 H   0  0  0  0  0  0  0  0  0  0  0  0
    1.4288    1.5920   -1.5510 H   0  0  0  0  0  0  0  0  0  0  0  0
    1.3860    4.0526   -1.5206 H   0  0  0  0  0  0  0  0  0  0  0  0
   -0.0656    5.2408    0.0724 H   0  0  0  0  0  0  0  0  0  0  0  0
   -1.4845    3.9732    1.6334 H   0  0  0  0  0  0  0  0  0  0  0  0
   -1.4565    1.5124    1.6044 H   0  0  0  0  0  0  0  0  0  0  0  0
  1  2  1  0  0  0  0
  1 23  1  0  0  0  0
  1 24  1  0  0  0  0
  1 25  1  0  0  0  0
  2  6  1  0  0  0  0
  2  3  2  0  0  0  0
  3  4  1  0  0  0  0
  3 26  1  0  0  0  0
  4  5  2  0  0  0  0
  4  8  1  0  0  0  0
  5  6  1  0  0  0  0
  6  7  1  0  0  0  0
  7 27  1  0  0  0  0
  7 28  1  0  0  0  0
  7 29  1  0  0  0  0
  8  9  2  0  0  0  0
  8 10  1  0  0  0  0
 10 11  1  0  0  0  0
 10 30  1  0  0  0  0
 11 12  1  0  0  0  0
 11 31  1  0  0  0  0
 11 32  1  0  0  0  0
 12 13  1  0  0  0  0
 12 33  1  0  0  0  0
 12 34  1  0  0  0  0
 13 14  1  0  0  0  0
 13 35  1  0  0  0  0
 14 15  2  0  0  0  0
 14 16  1  0  0  0  0
 16 17  1  0  0  0  0
 16 36  1  0  0  0  0
 17 22  2  0  0  0  0
 17 18  1  0  0  0  0
 18 19  2  0  0  0  0
 18 37  1  0  0  0  0
 19 20  1  0  0  0  0
 19 38  1  0  0  0  0
 20 21  2  0  0  0  0
 20 39  1  0  0  0  0
 21 22  1  0  0  0  0
 21 40  1  0  0  0  0
 22 41  1  0  0  0  0
M  END
$$$$
ZINC02747175
  -OEChem-08230709453D

 42 43  0     0  0  0  0  0  0999 V2000
   -1.3166    2.1436    0.0200 C   0  0  0  0  0  0  0  0  0  0  0  0
   -0.0167    1.3813    0.0096 C   0  0  0  0  0  0  0  0  0  0  0  0
    0.0021   -0.0041    0.0020 C   0  0  0  0  0  0  0  0  0  0  0  0
    1.2486   -0.6387   -0.0133 C   0  0  0  0  0  0  0  0  0  0  0  0
    2.3604    0.6911   -0.0168 S   0  0  0  0  0  0  0  0  0  0  0  0
    1.1876    2.0337    0.0016 C   0  0  0  0  0  0  0  0  0  0  0  0
    1.4468    3.4727    0.0065 C   0  0  0  0  0  0  0  0  0  0  0  0
    0.5177    4.2580    0.0192 O   0  0  0  0  0  0  0  0  0  0  0  0
    2.7163    3.9296   -0.0031 O   0  0  0  0  0  0  0  0  0  0  0  0
    2.8956    5.3473    0.0024 C   0  0  0  0  0  0  0  0  0  0  0  0
    2.9731    5.8459    1.4467 C   0  0  0  0  0  0  0  0  0  0  0  0
    4.1922    5.7002   -0.7293 C   0  0  0  0  0  0  0  0  0  0  0  0
    1.5252   -1.9908   -0.0236 N   0  0  0  0  0  0  0  0  0  0  0  0
    2.8037   -2.4170   -0.0380 C   0  0  0  0  0  0  0  0  0  0  0  0
    3.7132   -1.6106   -0.0420 O   0  0  0  0  0  0  0  0  0  0  0  0
    3.0995   -3.8633   -0.0490 C   0  0  0  0  0  0  0  0  0  0  0  0
    2.0571   -4.7932   -0.0388 C   0  0  0  0  0  0  0  0  0  0  0  0
    2.3401   -6.1422   -0.0540 C   0  0  0  0  0  0  0  0  0  0  0  0
    3.6542   -6.5785   -0.0693 C   0  0  0  0  0  0  0  0  0  0  0  0
    4.6927   -5.6665   -0.0743 C   0  0  0  0  0  0  0  0  0  0  0  0
    4.4248   -4.3096   -0.0640 C   0  0  0  0  0  0  0  0  0  0  0  0
    5.4401   -3.4183   -0.0680 F   0  0  0  0  0  0  0  0  0  0  0  0
   -1.2450   -0.7803    0.0102 C   0  0  0  0  0  0  0  0  0  0  0  0
   -1.7719   -1.0961   -1.0400 O   0  0  0  0  0  0  0  0  0  0  0  0
   -1.8055   -1.1427    1.1811 N   0  0  0  0  0  0  0  0  0  0  0  0
   -1.6251    2.3218    1.0502 H   0  0  0  0  0  0  0  0  0  0  0  0
   -1.1823    3.0979   -0.4893 H   0  0  0  0  0  0  0  0  0  0  0  0
   -2.0827    1.5625   -0.4933 H   0  0  0  0  0  0  0  0  0  0  0  0
    2.0535    5.8220   -0.5012 H   0  0  0  0  0  0  0  0  0  0  0  0
    3.1099    6.9273    1.4509 H   0  0  0  0  0  0  0  0  0  0  0  0
    2.0495    5.5945    1.9680 H   0  0  0  0  0  0  0  0  0  0  0  0
    3.8153    5.3712    1.9503 H   0  0  0  0  0  0  0  0  0  0  0  0
    4.1369    5.3449   -1.7583 H   0  0  0  0  0  0  0  0  0  0  0  0
    4.3290    6.7815   -0.7251 H   0  0  0  0  0  0  0  0  0  0  0  0
    5.0343    5.2255   -0.2257 H   0  0  0  0  0  0  0  0  0  0  0  0
    0.7994   -2.6343   -0.0204 H   0  0  0  0  0  0  0  0  0  0  0  0
    1.0312   -4.4558   -0.0227 H   0  0  0  0  0  0  0  0  0  0  0  0
    1.5343   -6.8613   -0.0495 H   0  0  0  0  0  0  0  0  0  0  0  0
    3.8687   -7.6369   -0.0770 H   0  0  0  0  0  0  0  0  0  0  0  0
    5.7152   -6.0140   -0.0859 H   0  0  0  0  0  0  0  0  0  0  0  0
   -1.3854   -0.8909    2.0184 H   0  0  0  0  0  0  0  0  0  0  0  0
   -2.6290   -1.6553    1.1865 H   0  0  0  0  0  0  0  0  0  0  0  0
  1  2  1  0  0  0  0
  1 26  1  0  0  0  0
  1 27  1  0  0  0  0
  1 28  1  0  0  0  0
  2  6  2  0  0  0  0
  2  3  1  0  0  0  0
  3  4  2  0  0  0  0
  3 23  1  0  0  0  0
  4  5  1  0  0  0  0
  4 13  1  0  0  0  0
  5  6  1  0  0  0  0
  6  7  1  0  0  0  0
  7  8  2  0  0  0  0
  7  9  1  0  0  0  0
  9 10  1  0  0  0  0
 10 11  1  0  0  0  0
 10 12  1  0  0  0  0
 10 29  1  0  0  0  0
 11 30  1  0  0  0  0
 11 31  1  0  0  0  0
 11 32  1  0  0  0  0
 12 33  1  0  0  0  0
 12 34  1  0  0  0  0
 12 35  1  0  0  0  0
 13 14  1  0  0  0  0
 13 36  1  0  0  0  0
 14 15  2  0  0  0  0
 14 16  1  0  0  0  0
 16 21  2  0  0  0  0
 16 17  1  0  0  0  0
 17 18  2  0  0  0  0
 17 37  1  0  0  0  0
 18 19  1  0  0  0  0
 18 38  1  0  0  0  0
 19 20  2  0  0  0  0
 19 39  1  0  0  0  0
 20 21  1  0  0  0  0
 20 40  1  0  0  0  0
 21 22  1  0  0  0  0
 23 24  2  0  0  0  0
 23 25  1  0  0  0  0
 25 41  1  0  0  0  0
 25 42  1  0  0  0  0
M  END
$$$$
ZINC02748536
  -OEChem-08230709453D

 42 43  0     0  0  0  0  0  0999 V2000
   -3.8189   -0.7825    0.2474 C   0  0  0  0  0  0  0  0  0  0  0  0
   -4.9176   -0.1156   -0.2632 C   0  0  0  0  0  0  0  0  0  0  0  0
   -4.8005    1.1971   -0.6814 C   0  0  0  0  0  0  0  0  0  0  0  0
   -3.5839    1.8466   -0.5907 C   0  0  0  0  0  0  0  0  0  0  0  0
   -2.4786    1.1790   -0.0782 C   0  0  0  0  0  0  0  0  0  0  0  0
   -2.5990   -0.1409    0.3359 C   0  0  0  0  0  0  0  0  0  0  0  0
   -1.2450    1.8336    0.0153 N   0  0  0  0  0  0  0  0  0  0  0  0
   -0.1012    1.1210    0.0007 C   0  0  0  0  0  0  0  0  0  0  0  0
   -0.1420   -0.0910   -0.0207 O   0  0  0  0  0  0  0  0  0  0  0  0
    1.2285    1.8302    0.0047 C   0  0  0  0  0  0  0  0  0  0  0  0
    2.3573    0.7977   -0.0212 C   0  0  0  0  0  0  0  0  0  0  0  0
    3.6870    1.5069   -0.0172 C   0  0  0  0  0  0  0  0  0  0  0  0
    3.7278    2.7188    0.0042 O   0  0  0  0  0  0  0  0  0  0  0  0
    4.8308    0.7943   -0.0374 N   0  0  0  0  0  0  0  0  0  0  0  0
    6.0670    1.4536   -0.0337 N   0  0  0  0  0  0  0  0  0  0  0  0
    7.2429    0.7255   -0.1628 C   0  0  0  0  0  0  0  0  0  0  0  0
    7.1489   -0.5559   -0.3906 C   0  0  0  0  0  0  0  0  0  0  0  0
    8.3304   -1.4687   -0.5432 C   0  0  0  0  0  0  0  0  0  0  0  0
    9.5948   -0.6522   -0.8190 C   0  0  0  0  0  0  0  0  0  0  0  0
    9.6848    0.4709    0.2217 C   0  0  0  0  0  0  0  0  0  0  0  0
    8.5452    1.4609   -0.0381 C   0  0  0  0  0  0  0  0  0  0  0  0
   -3.4240    3.6416   -1.1639 Br  0  0  0  0  0  0  0  0  0  0  0  0
   -3.9138   -1.8078    0.5731 H   0  0  0  0  0  0  0  0  0  0  0  0
   -5.8691   -0.6213   -0.3357 H   0  0  0  0  0  0  0  0  0  0  0  0
   -5.6603    1.7151   -1.0796 H   0  0  0  0  0  0  0  0  0  0  0  0
   -1.7406   -0.6641    0.7306 H   0  0  0  0  0  0  0  0  0  0  0  0
   -1.2134    2.8002    0.0906 H   0  0  0  0  0  0  0  0  0  0  0  0
    1.3015    2.4704   -0.8745 H   0  0  0  0  0  0  0  0  0  0  0  0
    1.3131    2.4386    0.9051 H   0  0  0  0  0  0  0  0  0  0  0  0
    2.2843    0.1575    0.8580 H   0  0  0  0  0  0  0  0  0  0  0  0
    2.2727    0.1893   -0.9216 H   0  0  0  0  0  0  0  0  0  0  0  0
    4.7982   -0.1750   -0.0545 H   0  0  0  0  0  0  0  0  0  0  0  0
    6.1017    2.4186    0.0590 H   0  0  0  0  0  0  0  0  0  0  0  0
    6.1615   -0.9854   -0.4746 H   0  0  0  0  0  0  0  0  0  0  0  0
    8.4641   -2.0431    0.3735 H   0  0  0  0  0  0  0  0  0  0  0  0
    8.1548   -2.1511   -1.3748 H   0  0  0  0  0  0  0  0  0  0  0  0
   10.4709   -1.2958   -0.7401 H   0  0  0  0  0  0  0  0  0  0  0  0
    9.5419   -0.2216   -1.8190 H   0  0  0  0  0  0  0  0  0  0  0  0
    9.5888    0.0510    1.2230 H   0  0  0  0  0  0  0  0  0  0  0  0
   10.6438    0.9805    0.1287 H   0  0  0  0  0  0  0  0  0  0  0  0
    8.7408    2.0083   -0.9602 H   0  0  0  0  0  0  0  0  0  0  0  0
    8.4845    2.1651    0.7917 H   0  0  0  0  0  0  0  0  0  0  0  0
  1  6  2  0  0  0  0
  1  2  1  0  0  0  0
  1 23  1  0  0  0  0
  2  3  2  0  0  0  0
  2 24  1  0  0  0  0
  3  4  1  0  0  0  0
  3 25  1  0  0  0  0
  4  5  2  0  0  0  0
  4 22  1  0  0  0  0
  5  6  1  0  0  0  0
  5  7  1  0  0  0  0
  6 26  1  0  0  0  0
  7  8  1  0  0  0  0
  7 27  1  0  0  0  0
  8  9  2  0  0  0  0
  8 10  1  0  0  0  0
 10 11  1  0  0  0  0
 10 28  1  0  0  0  0
 10 29  1  0  0  0  0
 11 12  1  0  0  0  0
 11 30  1  0  0  0  0
 11 31  1  0  0  0  0
 12 13  2  0  0  0  0
 12 14  1  0  0  0  0
 14 15  1  0  0  0  0
 14 32  1  0  0  0  0
 15 16  1  0  0  0  0
 15 33  1  0  0  0  0
 16 21  1  0  0  0  0
 16 17  2  0  0  0  0
 17 18  1  0  0  0  0
 17 34  1  0  0  0  0
 18 19  1  0  0  0  0
 18 35  1  0  0  0  0
 18 36  1  0  0  0  0
 19 20  1  0  0  0  0
 19 37  1  0  0  0  0
 19 38  1  0  0  0  0
 20 21  1  0  0  0  0
 20 39  1  0  0  0  0
 20 40  1  0  0  0  0
 21 41  1  0  0  0  0
 21 42  1  0  0  0  0
M  END
$$$$
ZINC02785804
  -OEChem-08230709453D

 46 47  0     0  0  0  0  0  0999 V2000
   -4.9601    3.7341    0.0469 C   0  0  0  0  0  0  0  0  0  0  0  0
   -3.6449    2.9985    0.0366 C   0  0  0  0  0  0  0  0  0  0  0  0
   -3.6279    1.6157    0.0285 C   0  0  0  0  0  0  0  0  0  0  0  0
   -2.4244    0.9384    0.0186 C   0  0  0  0  0  0  0  0  0  0  0  0
   -1.2300    1.6477    0.0168 C   0  0  0  0  0  0  0  0  0  0  0  0
   -1.2507    3.0366    0.0303 C   0  0  0  0  0  0  0  0  0  0  0  0
   -2.4577    3.7076    0.0348 C   0  0  0  0  0  0  0  0  0  0  0  0
   -0.0111    0.9658    0.0074 N   0  0  0  0  0  0  0  0  0  0  0  0
    1.2475    1.7155   -0.0006 C   0  0  0  0  0  0  0  0  0  0  0  0
    2.4061    0.7519   -0.0169 C   0  0  0  0  0  0  0  0  0  0  0  0
    2.2007   -0.4434   -0.0213 O   0  0  0  0  0  0  0  0  0  0  0  0
    3.6705    1.2184   -0.0264 N   0  0  0  0  0  0  0  0  0  0  0  0
    4.7476    0.3226   -0.0415 N   0  0  0  0  0  0  0  0  0  0  0  0
    6.0120    0.7891   -0.0511 C   0  0  0  0  0  0  0  0  0  0  0  0
    7.3282   -0.3056   -0.0696 S   0  0  0  0  0  0  0  0  0  0  0  0
    6.2403    2.1174   -0.0462 N   0  0  0  0  0  0  0  0  0  0  0  0
    7.6147    2.6245   -0.0566 C   0  0  0  0  0  0  0  0  0  0  0  0
    8.1504    2.6753    1.3757 C   0  0  0  0  0  0  0  0  0  0  0  0
    9.5858    3.2049    1.3648 C   0  0  0  0  0  0  0  0  0  0  0  0
    9.6060    4.6112    0.7625 C   0  0  0  0  0  0  0  0  0  0  0  0
    9.0703    4.5604   -0.6697 C   0  0  0  0  0  0  0  0  0  0  0  0
    7.6349    4.0308   -0.6589 C   0  0  0  0  0  0  0  0  0  0  0  0
   -5.2725    3.9056    1.0770 H   0  0  0  0  0  0  0  0  0  0  0  0
   -4.8450    4.6912   -0.4620 H   0  0  0  0  0  0  0  0  0  0  0  0
   -5.7140    3.1378   -0.4670 H   0  0  0  0  0  0  0  0  0  0  0  0
   -4.5569    1.0649    0.0303 H   0  0  0  0  0  0  0  0  0  0  0  0
   -2.4119   -0.1415    0.0120 H   0  0  0  0  0  0  0  0  0  0  0  0
   -0.3238    3.5910    0.0334 H   0  0  0  0  0  0  0  0  0  0  0  0
   -2.4745    4.7875    0.0411 H   0  0  0  0  0  0  0  0  0  0  0  0
    0.0021   -0.0041    0.0020 H   0  0  0  0  0  0  0  0  0  0  0  0
    1.2883    2.3477   -0.8877 H   0  0  0  0  0  0  0  0  0  0  0  0
    1.3053    2.3381    0.8922 H   0  0  0  0  0  0  0  0  0  0  0  0
    3.8348    2.1744   -0.0229 H   0  0  0  0  0  0  0  0  0  0  0  0
    4.5833   -0.6334   -0.0451 H   0  0  0  0  0  0  0  0  0  0  0  0
    5.4946    2.7376   -0.0357 H   0  0  0  0  0  0  0  0  0  0  0  0
    8.2412    1.9636   -0.6556 H   0  0  0  0  0  0  0  0  0  0  0  0
    7.5238    3.3362    1.9747 H   0  0  0  0  0  0  0  0  0  0  0  0
    8.1360    1.6735    1.8048 H   0  0  0  0  0  0  0  0  0  0  0  0
   10.2123    2.5441    0.7658 H   0  0  0  0  0  0  0  0  0  0  0  0
    9.9674    3.2412    2.3852 H   0  0  0  0  0  0  0  0  0  0  0  0
   10.6286    4.9885    0.7548 H   0  0  0  0  0  0  0  0  0  0  0  0
    8.9794    5.2721    1.3615 H   0  0  0  0  0  0  0  0  0  0  0  0
    9.6968    3.8995   -1.2687 H   0  0  0  0  0  0  0  0  0  0  0  0
    9.0847    5.5623   -1.0988 H   0  0  0  0  0  0  0  0  0  0  0  0
    7.2533    3.9946   -1.6792 H   0  0  0  0  0  0  0  0  0  0  0  0
    7.0083    4.6916   -0.0598 H   0  0  0  0  0  0  0  0  0  0  0  0
  1  2  1  0  0  0  0
  1 23  1  0  0  0  0
  1 24  1  0  0  0  0
  1 25  1  0  0  0  0
  2  7  2  0  0  0  0
  2  3  1  0  0  0  0
  3  4  2  0  0  0  0
  3 26  1  0  0  0  0
  4  5  1  0  0  0  0
  4 27  1  0  0  0  0
  5  6  2  0  0  0  0
  5  8  1  0  0  0  0
  6  7  1  0  0  0  0
  6 28  1  0  0  0  0
  7 29  1  0  0  0  0
  8  9  1  0  0  0  0
  8 30  1  0  0  0  0
  9 10  1  0  0  0  0
  9 31  1  0  0  0  0
  9 32  1  0  0  0  0
 10 11  2  0  0  0  0
 10 12  1  0  0  0  0
 12 13  1  0  0  0  0
 12 33  1  0  0  0  0
 13 14  1  0  0  0  0
 13 34  1  0  0  0  0
 14 15  2  0  0  0  0
 14 16  1  0  0  0  0
 16 17  1  0  0  0  0
 16 35  1  0  0  0  0
 17 22  1  0  0  0  0
 17 18  1  0  0  0  0
 17 36  1  0  0  0  0
 18 19  1  0  0  0  0
 18 37  1  0  0  0  0
 18 38  1  0  0  0  0
 19 20  1  0  0  0  0
 19 39  1  0  0  0  0
 19 40  1  0  0  0  0
 20 21  1  0  0  0  0
 20 41  1  0  0  0  0
 20 42  1  0  0  0  0
 21 22  1  0  0  0  0
 21 43  1  0  0  0  0
 21 44  1  0  0  0  0
 22 45  1  0  0  0  0
 22 46  1  0  0  0  0
M  END
$$$$
ZINC02795643
  -OEChem-08230709453D

 42 43  0     1  0  0  0  0  0999 V2000
    6.3188    3.4903    2.3166 C   0  0  0  0  0  0  0  0  0  0  0  0
    5.3818    2.8211    1.3443 C   0  0  0  0  0  0  0  0  0  0  0  0
    5.5555    2.7445   -0.0419 C   0  0  0  0  0  0  0  0  0  0  0  0
    4.5057    2.0617   -0.5559 C   0  0  0  0  0  0  0  0  0  0  0  0
    3.6923    1.7262    0.4682 N   0  0  0  0  0  0  0  0  0  0  0  0
    4.2655    2.2111    1.6508 N   0  0  0  0  0  0  0  0  0  0  0  0
    2.4355    0.9810    0.3621 C   0  0  0  0  0  0  0  0  0  0  0  0
    1.2768    1.9606    0.1660 C   0  0  1  0  0  0  0  0  0  0  0  0
    1.2805    2.6939    0.9724 H   0  0  0  0  0  0  0  0  0  0  0  0
    1.4367    2.6777   -1.1761 C   0  0  0  0  0  0  0  0  0  0  0  0
   -0.0273    1.2054    0.1797 C   0  0  0  0  0  0  0  0  0  0  0  0
   -0.0297    0.0022    0.3314 O   0  0  0  0  0  0  0  0  0  0  0  0
   -1.1906    1.8665    0.0178 N   0  0  0  0  0  0  0  0  0  0  0  0
   -2.3868    1.1576   -0.0856 C   0  0  0  0  0  0  0  0  0  0  0  0
   -2.4041   -0.0881   -0.7051 C   0  0  0  0  0  0  0  0  0  0  0  0
   -3.5826   -0.7928   -0.8046 C   0  0  0  0  0  0  0  0  0  0  0  0
   -4.7643   -0.2509   -0.2920 C   0  0  0  0  0  0  0  0  0  0  0  0
   -4.7444    1.0029    0.3250 C   0  0  0  0  0  0  0  0  0  0  0  0
   -3.5616    1.7000    0.4258 C   0  0  0  0  0  0  0  0  0  0  0  0
   -6.0306   -1.0014   -0.4014 C   0  0  0  0  0  0  0  0  0  0  0  0
   -7.0579   -0.5288    0.0454 O   0  0  0  0  0  0  0  0  0  0  0  0
   -6.0481   -2.2104   -0.9967 N   0  0  0  0  0  0  0  0  0  0  0  0
    4.2834    1.7368   -2.0105 C   0  0  0  0  0  0  0  0  0  0  0  0
    7.0040    3.4620   -1.0232 Br  0  0  0  0  0  0  0  0  0  0  0  0
    7.0580    2.7685    2.6641 H   0  0  0  0  0  0  0  0  0  0  0  0
    6.8250    4.3190    1.8215 H   0  0  0  0  0  0  0  0  0  0  0  0
    5.7512    3.8673    3.1673 H   0  0  0  0  0  0  0  0  0  0  0  0
    2.2754    0.4068    1.2746 H   0  0  0  0  0  0  0  0  0  0  0  0
    2.4861    0.3028   -0.4897 H   0  0  0  0  0  0  0  0  0  0  0  0
    0.6112    3.3756   -1.3158 H   0  0  0  0  0  0  0  0  0  0  0  0
    2.3799    3.2239   -1.1860 H   0  0  0  0  0  0  0  0  0  0  0  0
    1.4330    1.9444   -1.9826 H   0  0  0  0  0  0  0  0  0  0  0  0
   -1.1957    2.8355   -0.0267 H   0  0  0  0  0  0  0  0  0  0  0  0
   -1.4912   -0.5045   -1.1047 H   0  0  0  0  0  0  0  0  0  0  0  0
   -3.5945   -1.7615   -1.2819 H   0  0  0  0  0  0  0  0  0  0  0  0
   -5.6559    1.4243    0.7225 H   0  0  0  0  0  0  0  0  0  0  0  0
   -3.5455    2.6688    0.9028 H   0  0  0  0  0  0  0  0  0  0  0  0
   -5.2285   -2.5874   -1.3532 H   0  0  0  0  0  0  0  0  0  0  0  0
   -6.8802   -2.7036   -1.0686 H   0  0  0  0  0  0  0  0  0  0  0  0
    3.7164    2.5407   -2.4799 H   0  0  0  0  0  0  0  0  0  0  0  0
    5.2462    1.6312   -2.5105 H   0  0  0  0  0  0  0  0  0  0  0  0
    3.7268    0.8033   -2.0933 H   0  0  0  0  0  0  0  0  0  0  0  0
  1  2  1  0  0  0  0
  1 25  1  0  0  0  0
  1 26  1  0  0  0  0
  1 27  1  0  0  0  0
  2  6  2  0  0  0  0
  2  3  1  0  0  0  0
  3  4  2  0  0  0  0
  3 24  1  0  0  0  0
  4  5  1  0  0  0  0
  4 23  1  0  0  0  0
  5  6  1  0  0  0  0
  5  7  1  0  0  0  0
  7  8  1  0  0  0  0
  7 28  1  0  0  0  0
  7 29  1  0  0  0  0
  8  9  1  0  0  0  0
  8 10  1  0  0  0  0
  8 11  1  0  0  0  0
 10 30  1  0  0  0  0
 10 31  1  0  0  0  0
 10 32  1  0  0  0  0
 11 12  2  0  0  0  0
 11 13  1  0  0  0  0
 13 14  1  0  0  0  0
 13 33  1  0  0  0  0
 14 19  2  0  0  0  0
 14 15  1  0  0  0  0
 15 16  2  0  0  0  0
 15 34  1  0  0  0  0
 16 17  1  0  0  0  0
 16 35  1  0  0  0  0
 17 18  2  0  0  0  0
 17 20  1  0  0  0  0
 18 19  1  0  0  0  0
 18 36  1  0  0  0  0
 19 37  1  0  0  0  0
 20 21  2  0  0  0  0
 20 22  1  0  0  0  0
 22 38  1  0  0  0  0
 22 39  1  0  0  0  0
 23 40  1  0  0  0  0
 23 41  1  0  0  0  0
 23 42  1  0  0  0  0
M  END
$$$$
ZINC02795644
  -OEChem-08230709453D

 42 43  0     1  0  0  0  0  0999 V2000
    3.7697   -9.4895   -1.9874 C   0  0  0  0  0  0  0  0  0  0  0  0
    3.8298   -8.2726   -1.1004 C   0  0  0  0  0  0  0  0  0  0  0  0
    3.9448   -8.2788    0.2940 C   0  0  0  0  0  0  0  0  0  0  0  0
    3.9707   -6.9926    0.7153 C   0  0  0  0  0  0  0  0  0  0  0  0
    3.8667   -6.2011   -0.3736 N   0  0  0  0  0  0  0  0  0  0  0  0
    3.7830   -7.0280   -1.5013 N   0  0  0  0  0  0  0  0  0  0  0  0
    3.8508   -4.7362   -0.3760 C   0  0  0  0  0  0  0  0  0  0  0  0
    2.4077   -4.2417   -0.2580 C   0  0  2  0  0  0  0  0  0  0  0  0
    1.9445   -4.6800    0.6260 H   0  0  0  0  0  0  0  0  0  0  0  0
    1.6228   -4.6570   -1.5040 C   0  0  0  0  0  0  0  0  0  0  0  0
    2.3997   -2.7396   -0.1368 C   0  0  0  0  0  0  0  0  0  0  0  0
    3.4453   -2.1251   -0.1441 O   0  0  0  0  0  0  0  0  0  0  0  0
    1.2307   -2.0791   -0.0204 N   0  0  0  0  0  0  0  0  0  0  0  0
    1.2162   -0.6849   -0.0047 C   0  0  0  0  0  0  0  0  0  0  0  0
    2.2554    0.0133    0.6022 C   0  0  0  0  0  0  0  0  0  0  0  0
    2.2444    1.3898    0.6191 C   0  0  0  0  0  0  0  0  0  0  0  0
    1.1878    2.0859    0.0257 C   0  0  0  0  0  0  0  0  0  0  0  0
    0.1458    1.3815   -0.5835 C   0  0  0  0  0  0  0  0  0  0  0  0
    0.1628    0.0050   -0.5964 C   0  0  0  0  0  0  0  0  0  0  0  0
    1.1725    3.5617    0.0423 C   0  0  0  0  0  0  0  0  0  0  0  0
    2.0797    4.1732    0.5727 O   0  0  0  0  0  0  0  0  0  0  0  0
    0.1528    4.2315   -0.5304 N   0  0  0  0  0  0  0  0  0  0  0  0
    4.0912   -6.5276    2.1436 C   0  0  0  0  0  0  0  0  0  0  0  0
    4.0519   -9.8126    1.3949 Br  0  0  0  0  0  0  0  0  0  0  0  0
    4.7794   -9.7719   -2.2856 H   0  0  0  0  0  0  0  0  0  0  0  0
    3.3078  -10.3132   -1.4433 H   0  0  0  0  0  0  0  0  0  0  0  0
    3.1786   -9.2634   -2.8748 H   0  0  0  0  0  0  0  0  0  0  0  0
    4.2856   -4.3696   -1.3058 H   0  0  0  0  0  0  0  0  0  0  0  0
    4.4321   -4.3652    0.4681 H   0  0  0  0  0  0  0  0  0  0  0  0
    0.5948   -4.3047   -1.4199 H   0  0  0  0  0  0  0  0  0  0  0  0
    2.0860   -4.2187   -2.3880 H   0  0  0  0  0  0  0  0  0  0  0  0
    1.6286   -5.7435   -1.5916 H   0  0  0  0  0  0  0  0  0  0  0  0
    0.3994   -2.5737    0.0525 H   0  0  0  0  0  0  0  0  0  0  0  0
    3.0718   -0.5252    1.0604 H   0  0  0  0  0  0  0  0  0  0  0  0
    3.0491    1.9311    1.0943 H   0  0  0  0  0  0  0  0  0  0  0  0
   -0.6718    1.9165   -1.0436 H   0  0  0  0  0  0  0  0  0  0  0  0
   -0.6424   -0.5399   -1.0667 H   0  0  0  0  0  0  0  0  0  0  0  0
   -0.5710    3.7437   -0.9536 H   0  0  0  0  0  0  0  0  0  0  0  0
    0.1427    5.2014   -0.5195 H   0  0  0  0  0  0  0  0  0  0  0  0
    3.0966   -6.4262    2.5779 H   0  0  0  0  0  0  0  0  0  0  0  0
    4.6649   -7.2566    2.7159 H   0  0  0  0  0  0  0  0  0  0  0  0
    4.5992   -5.5636    2.1703 H   0  0  0  0  0  0  0  0  0  0  0  0
  1  2  1  0  0  0  0
  1 25  1  0  0  0  0
  1 26  1  0  0  0  0
  1 27  1  0  0  0  0
  2  6  2  0  0  0  0
  2  3  1  0  0  0  0
  3  4  2  0  0  0  0
  3 24  1  0  0  0  0
  4  5  1  0  0  0  0
  4 23  1  0  0  0  0
  5  6  1  0  0  0  0
  5  7  1  0  0  0  0
  7  8  1  0  0  0  0
  7 28  1  0  0  0  0
  7 29  1  0  0  0  0
  8  9  1  0  0  0  0
  8 10  1  0  0  0  0
  8 11  1  0  0  0  0
 10 30  1  0  0  0  0
 10 31  1  0  0  0  0
 10 32  1  0  0  0  0
 11 12  2  0  0  0  0
 11 13  1  0  0  0  0
 13 14  1  0  0  0  0
 13 33  1  0  0  0  0
 14 19  2  0  0  0  0
 14 15  1  0  0  0  0
 15 16  2  0  0  0  0
 15 34  1  0  0  0  0
 16 17  1  0  0  0  0
 16 35  1  0  0  0  0
 17 18  2  0  0  0  0
 17 20  1  0  0  0  0
 18 19  1  0  0  0  0
 18 36  1  0  0  0  0
 19 37  1  0  0  0  0
 20 21  2  0  0  0  0
 20 22  1  0  0  0  0
 22 38  1  0  0  0  0
 22 39  1  0  0  0  0
 23 40  1  0  0  0  0
 23 41  1  0  0  0  0
 23 42  1  0  0  0  0
M  END
$$$$
ZINC02799660
  -OEChem-08230709453D

 42 43  0     0  0  0  0  0  0999 V2000
   -2.5074    0.0216   -0.0806 C   0  0  0  0  0  0  0  0  0  0  0  0
   -1.1914   -0.7124   -0.1030 C   0  0  0  0  0  0  0  0  0  0  0  0
   -1.1704   -2.0936   -0.1301 C   0  0  0  0  0  0  0  0  0  0  0  0
    0.0364   -2.7675   -0.1512 C   0  0  0  0  0  0  0  0  0  0  0  0
    1.2255   -2.0614   -0.1456 C   0  0  0  0  0  0  0  0  0  0  0  0
    1.2099   -0.6805   -0.1238 C   0  0  0  0  0  0  0  0  0  0  0  0
   -0.0001   -0.0019   -0.0969 C   0  0  0  0  0  0  0  0  0  0  0  0
   -0.0181    1.3568   -0.0701 O   0  0  0  0  0  0  0  0  0  0  0  0
    1.2465    2.0223   -0.0654 C   0  0  0  0  0  0  0  0  0  0  0  0
    1.0293    3.5133   -0.0348 C   0  0  0  0  0  0  0  0  0  0  0  0
   -0.0975    3.9617   -0.0186 O   0  0  0  0  0  0  0  0  0  0  0  0
    2.0871    4.3483   -0.0253 N   0  0  0  0  0  0  0  0  0  0  0  0
    1.8852    5.7344    0.0031 N   0  0  0  0  0  0  0  0  0  0  0  0
    2.9431    6.5694    0.0125 C   0  0  0  0  0  0  0  0  0  0  0  0
    2.6964    8.2632    0.0473 S   0  0  0  0  0  0  0  0  0  0  0  0
    4.1952    6.0710   -0.0054 N   0  0  0  0  0  0  0  0  0  0  0  0
    5.2973    6.9401   -0.1175 C   0  0  0  0  0  0  0  0  0  0  0  0
    5.2862    8.1771   -0.6764 C   0  0  0  0  0  0  0  0  0  0  0  0
    6.5441    8.6812   -0.5810 N   0  0  0  0  0  0  0  0  0  0  0  0
    7.3466    7.7193    0.0457 N   0  0  0  0  0  0  0  0  0  0  0  0
    6.6030    6.6791    0.3229 C   0  0  0  0  0  0  0  0  0  0  0  0
    7.0699    5.4161    0.9994 C   0  0  0  0  0  0  0  0  0  0  0  0
    6.9846    9.9954   -1.0553 C   0  0  0  0  0  0  0  0  0  0  0  0
   -2.8312    0.2183   -1.1026 H   0  0  0  0  0  0  0  0  0  0  0  0
   -3.2550   -0.5885    0.4264 H   0  0  0  0  0  0  0  0  0  0  0  0
   -2.3878    0.9658    0.4508 H   0  0  0  0  0  0  0  0  0  0  0  0
   -2.0977   -2.6473   -0.1353 H   0  0  0  0  0  0  0  0  0  0  0  0
    0.0507   -3.8472   -0.1724 H   0  0  0  0  0  0  0  0  0  0  0  0
    2.1670   -2.5902   -0.1624 H   0  0  0  0  0  0  0  0  0  0  0  0
    2.1387   -0.1294   -0.1240 H   0  0  0  0  0  0  0  0  0  0  0  0
    1.8131    1.7195    0.8152 H   0  0  0  0  0  0  0  0  0  0  0  0
    1.8015    1.7544   -0.9644 H   0  0  0  0  0  0  0  0  0  0  0  0
    2.9883    3.9896   -0.0383 H   0  0  0  0  0  0  0  0  0  0  0  0
    0.9841    6.0931    0.0160 H   0  0  0  0  0  0  0  0  0  0  0  0
    4.3371    5.1136    0.0589 H   0  0  0  0  0  0  0  0  0  0  0  0
    4.4320    8.6717   -1.1146 H   0  0  0  0  0  0  0  0  0  0  0  0
    7.4102    4.7051    0.2465 H   0  0  0  0  0  0  0  0  0  0  0  0
    7.8915    5.6491    1.6768 H   0  0  0  0  0  0  0  0  0  0  0  0
    6.2457    4.9805    1.5643 H   0  0  0  0  0  0  0  0  0  0  0  0
    7.3211    9.9147   -2.0889 H   0  0  0  0  0  0  0  0  0  0  0  0
    6.1546   10.6996   -0.9973 H   0  0  0  0  0  0  0  0  0  0  0  0
    7.8060   10.3499   -0.4325 H   0  0  0  0  0  0  0  0  0  0  0  0
  1  2  1  0  0  0  0
  1 24  1  0  0  0  0
  1 25  1  0  0  0  0
  1 26  1  0  0  0  0
  2  7  2  0  0  0  0
  2  3  1  0  0  0  0
  3  4  2  0  0  0  0
  3 27  1  0  0  0  0
  4  5  1  0  0  0  0
  4 28  1  0  0  0  0
  5  6  2  0  0  0  0
  5 29  1  0  0  0  0
  6  7  1  0  0  0  0
  6 30  1  0  0  0  0
  7  8  1  0  0  0  0
  8  9  1  0  0  0  0
  9 10  1  0  0  0  0
  9 31  1  0  0  0  0
  9 32  1  0  0  0  0
 10 11  2  0  0  0  0
 10 12  1  0  0  0  0
 12 13  1  0  0  0  0
 12 33  1  0  0  0  0
 13 14  1  0  0  0  0
 13 34  1  0  0  0  0
 14 15  2  0  0  0  0
 14 16  1  0  0  0  0
 16 17  1  0  0  0  0
 16 35  1  0  0  0  0
 17 21  1  0  0  0  0
 17 18  2  0  0  0  0
 18 19  1  0  0  0  0
 18 36  1  0  0  0  0
 19 20  1  0  0  0  0
 19 23  1  0  0  0  0
 20 21  2  0  0  0  0
 21 22  1  0  0  0  0
 22 37  1  0  0  0  0
 22 38  1  0  0  0  0
 22 39  1  0  0  0  0
 23 40  1  0  0  0  0
 23 41  1  0  0  0  0
 23 42  1  0  0  0  0
M  END
$$$$
ZINC02802716
  -OEChem-08230709453D

 40 41  0     0  0  0  0  0  0999 V2000
    0.2709    1.0125   -6.3096 C   0  0  0  0  0  0  0  0  0  0  0  0
   -0.0301    0.4531   -4.9177 C   0  0  0  0  0  0  0  0  0  0  0  0
   -1.0422    1.2723   -4.2753 O   0  0  0  0  0  0  0  0  0  0  0  0
   -1.4233    0.9124   -3.0339 C   0  0  0  0  0  0  0  0  0  0  0  0
   -0.9235   -0.0595   -2.5028 O   0  0  0  0  0  0  0  0  0  0  0  0
   -2.4510    1.6943   -2.3225 C   0  0  0  0  0  0  0  0  0  0  0  0
   -3.0231    2.8163   -2.9298 C   0  0  0  0  0  0  0  0  0  0  0  0
   -3.9864    3.5404   -2.2651 C   0  0  0  0  0  0  0  0  0  0  0  0
   -4.3829    3.1639   -0.9853 C   0  0  0  0  0  0  0  0  0  0  0  0
   -3.8115    2.0509   -0.3755 C   0  0  0  0  0  0  0  0  0  0  0  0
   -2.8518    1.3188   -1.0366 C   0  0  0  0  0  0  0  0  0  0  0  0
   -5.3538    3.9029   -0.3129 N   0  0  0  0  0  0  0  0  0  0  0  0
   -5.2830    5.2487   -0.2936 C   0  0  0  0  0  0  0  0  0  0  0  0
   -4.0635    6.0546   -1.1848 S   0  0  0  0  0  0  0  0  0  0  0  0
   -6.1723    5.9600    0.4273 N   0  0  0  0  0  0  0  0  0  0  0  0
   -6.1783    7.3657    0.3488 C   0  0  0  0  0  0  0  0  0  0  0  0
   -7.2482    8.1448    0.0474 C   0  0  0  0  0  0  0  0  0  0  0  0
   -6.8344    9.4384    0.0766 N   0  0  0  0  0  0  0  0  0  0  0  0
   -7.4014   10.2420   -0.1046 H   0  0  0  0  0  0  0  0  0  0  0  0
   -5.4729    9.4472    0.4054 N   0  0  0  0  0  0  0  0  0  0  0  0
   -5.0815    8.2102    0.5741 C   0  0  0  0  0  0  0  0  0  0  0  0
   -3.6889    7.7680    0.9431 C   0  0  0  0  0  0  0  0  0  0  0  0
   -8.6417    7.6625   -0.2637 C   0  0  0  0  0  0  0  0  0  0  0  0
   -0.6390    1.0028   -6.9097 H   0  0  0  0  0  0  0  0  0  0  0  0
    0.6355    2.0357   -6.2189 H   0  0  0  0  0  0  0  0  0  0  0  0
    1.0307    0.3974   -6.7919 H   0  0  0  0  0  0  0  0  0  0  0  0
    0.8798    0.4627   -4.3177 H   0  0  0  0  0  0  0  0  0  0  0  0
   -0.3947   -0.5701   -5.0084 H   0  0  0  0  0  0  0  0  0  0  0  0
   -2.7126    3.1117   -3.9212 H   0  0  0  0  0  0  0  0  0  0  0  0
   -4.4319    4.4046   -2.7354 H   0  0  0  0  0  0  0  0  0  0  0  0
   -4.1213    1.7617    0.6179 H   0  0  0  0  0  0  0  0  0  0  0  0
   -2.4091    0.4551   -0.5629 H   0  0  0  0  0  0  0  0  0  0  0  0
   -6.0807    3.4489    0.1414 H   0  0  0  0  0  0  0  0  0  0  0  0
   -6.8081    5.5035    1.0002 H   0  0  0  0  0  0  0  0  0  0  0  0
   -3.0626    7.7580    0.0511 H   0  0  0  0  0  0  0  0  0  0  0  0
   -3.2696    8.4598    1.6737 H   0  0  0  0  0  0  0  0  0  0  0  0
   -3.7272    6.7664    1.3715 H   0  0  0  0  0  0  0  0  0  0  0  0
   -9.2191    7.6006    0.6588 H   0  0  0  0  0  0  0  0  0  0  0  0
   -9.1236    8.3609   -0.9478 H   0  0  0  0  0  0  0  0  0  0  0  0
   -8.5901    6.6772   -0.7269 H   0  0  0  0  0  0  0  0  0  0  0  0
  1  2  1  0  0  0  0
  1 24  1  0  0  0  0
  1 25  1  0  0  0  0
  1 26  1  0  0  0  0
  2  3  1  0  0  0  0
  2 27  1  0  0  0  0
  2 28  1  0  0  0  0
  3  4  1  0  0  0  0
  4  5  2  0  0  0  0
  4  6  1  0  0  0  0
  6 11  2  0  0  0  0
  6  7  1  0  0  0  0
  7  8  2  0  0  0  0
  7 29  1  0  0  0  0
  8  9  1  0  0  0  0
  8 30  1  0  0  0  0
  9 10  2  0  0  0  0
  9 12  1  0  0  0  0
 10 11  1  0  0  0  0
 10 31  1  0  0  0  0
 11 32  1  0  0  0  0
 12 13  1  0  0  0  0
 12 33  1  0  0  0  0
 13 14  2  0  0  0  0
 13 15  1  0  0  0  0
 15 16  1  0  0  0  0
 15 34  1  0  0  0  0
 16 21  1  0  0  0  0
 16 17  2  0  0  0  0
 17 18  1  0  0  0  0
 17 23  1  0  0  0  0
 18 19  1  0  0  0  0
 18 20  1  0  0  0  0
 20 21  2  0  0  0  0
 21 22  1  0  0  0  0
 22 35  1  0  0  0  0
 22 36  1  0  0  0  0
 22 37  1  0  0  0  0
 23 38  1  0  0  0  0
 23 39  1  0  0  0  0
 23 40  1  0  0  0  0
M  END
$$$$
ZINC02807219
  -OEChem-08230709453D

 43 45  0     1  0  0  0  0  0999 V2000
    3.4634   -1.5287    2.3921 C   0  0  0  0  0  0  0  0  0  0  0  0
    3.1320   -0.7644    1.1362 C   0  0  0  0  0  0  0  0  0  0  0  0
    2.9475    0.5624    1.2125 C   0  0  0  0  0  0  0  0  0  0  0  0
    2.6188    1.3621   -0.0149 C   0  0  1  0  0  0  0  0  0  0  0  0
    1.1700    1.7809    0.0005 C   0  0  0  0  0  0  0  0  0  0  0  0
   -0.0126    1.0758    0.0080 C   0  0  0  0  0  0  0  0  0  0  0  0
   -1.2200    1.7519    0.0174 C   0  0  0  0  0  0  0  0  0  0  0  0
   -1.2340    3.1348    0.0292 C   0  0  0  0  0  0  0  0  0  0  0  0
   -0.0510    3.8441    0.0227 C   0  0  0  0  0  0  0  0  0  0  0  0
    1.1689    3.1708    0.0077 C   0  0  0  0  0  0  0  0  0  0  0  0
    2.4781    3.6545   -0.0025 N   0  0  0  0  0  0  0  0  0  0  0  0
    3.3864    2.6627   -0.0169 C   0  0  0  0  0  0  0  0  0  0  0  0
    4.5927    2.7888   -0.0288 O   0  0  0  0  0  0  0  0  0  0  0  0
    2.9241    0.5716   -1.2545 C   0  0  0  0  0  0  0  0  0  0  0  0
    3.1126   -0.7604   -1.1871 C   0  0  0  0  0  0  0  0  0  0  0  0
    3.0316   -1.4312   -0.0222 O   0  0  0  0  0  0  0  0  0  0  0  0
    3.3964   -1.4580   -2.3456 N   0  0  0  0  0  0  0  0  0  0  0  0
    3.0161    1.2391   -2.5180 C   0  0  0  0  0  0  0  0  0  0  0  0
    3.0916    1.7864   -3.5540 C   0  0  0  0  0  0  0  0  0  0  0  0
    3.0637    1.2150    2.4634 C   0  0  0  0  0  0  0  0  0  0  0  0
    3.3299    0.5730    3.4621 O   0  0  0  0  0  0  0  0  0  0  0  0
    2.8792    2.5490    2.5482 O   0  0  0  0  0  0  0  0  0  0  0  0
    3.0117    3.1413    3.8419 C   0  0  0  0  0  0  0  0  0  0  0  0
    3.5117    4.5799    3.6953 C   0  0  0  0  0  0  0  0  0  0  0  0
    1.6521    3.1429    4.5437 C   0  0  0  0  0  0  0  0  0  0  0  0
    3.5804   -2.5859    2.1538 H   0  0  0  0  0  0  0  0  0  0  0  0
    4.3923   -1.1467    2.8154 H   0  0  0  0  0  0  0  0  0  0  0  0
    2.6571   -1.4064    3.1153 H   0  0  0  0  0  0  0  0  0  0  0  0
    0.0021   -0.0041    0.0020 H   0  0  0  0  0  0  0  0  0  0  0  0
   -2.1489    1.2010    0.0187 H   0  0  0  0  0  0  0  0  0  0  0  0
   -2.1764    3.6622    0.0407 H   0  0  0  0  0  0  0  0  0  0  0  0
   -0.0703    4.9239    0.0289 H   0  0  0  0  0  0  0  0  0  0  0  0
    2.7066    4.5973    0.0004 H   0  0  0  0  0  0  0  0  0  0  0  0
    3.4575   -0.9881   -3.1920 H   0  0  0  0  0  0  0  0  0  0  0  0
    3.5346   -2.4175   -2.3124 H   0  0  0  0  0  0  0  0  0  0  0  0
    3.1591    2.2758   -4.4804 H   0  0  0  0  0  0  0  0  0  0  0  0
    3.7251    2.5672    4.4330 H   0  0  0  0  0  0  0  0  0  0  0  0
    2.7983    5.1540    3.1041 H   0  0  0  0  0  0  0  0  0  0  0  0
    3.6127    5.0317    4.6821 H   0  0  0  0  0  0  0  0  0  0  0  0
    4.4802    4.5787    3.1953 H   0  0  0  0  0  0  0  0  0  0  0  0
    0.9387    3.7171    3.9525 H   0  0  0  0  0  0  0  0  0  0  0  0
    1.2959    2.1181    4.6481 H   0  0  0  0  0  0  0  0  0  0  0  0
    1.7532    3.5947    5.5305 H   0  0  0  0  0  0  0  0  0  0  0  0
  1  2  1  0  0  0  0
  1 26  1  0  0  0  0
  1 27  1  0  0  0  0
  1 28  1  0  0  0  0
  2 16  1  0  0  0  0
  2  3  2  0  0  0  0
  3  4  1  0  0  0  0
  3 20  1  0  0  0  0
  4 12  1  0  0  0  0
  4  5  1  0  0  0  0
  4 14  1  0  0  0  0
  5 10  2  0  0  0  0
  5  6  1  0  0  0  0
  6  7  2  0  0  0  0
  6 29  1  0  0  0  0
  7  8  1  0  0  0  0
  7 30  1  0  0  0  0
  8  9  2  0  0  0  0
  8 31  1  0  0  0  0
  9 10  1  0  0  0  0
  9 32  1  0  0  0  0
 10 11  1  0  0  0  0
 11 12  1  0  0  0  0
 11 33  1  0  0  0  0
 12 13  2  0  0  0  0
 14 15  2  0  0  0  0
 14 18  1  0  0  0  0
 15 16  1  0  0  0  0
 15 17  1  0  0  0  0
 17 34  1  0  0  0  0
 17 35  1  0  0  0  0
 18 19  3  0  0  0  0
 19 36  1  0  0  0  0
 20 21  2  0  0  0  0
 20 22  1  0  0  0  0
 22 23  1  0  0  0  0
 23 24  1  0  0  0  0
 23 25  1  0  0  0  0
 23 37  1  0  0  0  0
 24 38  1  0  0  0  0
 24 39  1  0  0  0  0
 24 40  1  0  0  0  0
 25 41  1  0  0  0  0
 25 42  1  0  0  0  0
 25 43  1  0  0  0  0
M  END
$$$$
ZINC02826730
  -OEChem-08230709453D

 44 46  0     0  0  0  0  0  0999 V2000
    1.2515   -2.1095   -0.9268 C   0  0  0  0  0  0  0  0  0  0  0  0
    1.2278   -0.6234   -0.6780 C   0  0  0  0  0  0  0  0  0  0  0  0
    0.2776   -0.0804    0.1673 C   0  0  0  0  0  0  0  0  0  0  0  0
    0.2532    1.2811    0.3975 C   0  0  0  0  0  0  0  0  0  0  0  0
    1.1844    2.1053   -0.2213 C   0  0  0  0  0  0  0  0  0  0  0  0
    2.1380    1.5566   -1.0690 C   0  0  0  0  0  0  0  0  0  0  0  0
    2.1566    0.1943   -1.2952 C   0  0  0  0  0  0  0  0  0  0  0  0
    1.1621    3.4843    0.0092 N   0  0  0  0  0  0  0  0  0  0  0  0
    2.3471    4.1876    0.1059 C   0  0  0  0  0  0  0  0  0  0  0  0
    2.3278    5.5144    0.2132 N   0  0  0  0  0  0  0  0  0  0  0  0
    3.4608    6.1880    0.3062 C   0  0  0  0  0  0  0  0  0  0  0  0
    4.6171    5.5480    0.2937 N   0  0  0  0  0  0  0  0  0  0  0  0
    4.6445    4.2216    0.1868 C   0  0  0  0  0  0  0  0  0  0  0  0
    3.5072    3.5404    0.0976 N   0  0  0  0  0  0  0  0  0  0  0  0
    5.8523    3.5543    0.1734 N   0  0  0  0  0  0  0  0  0  0  0  0
    3.4344    7.6899    0.4274 C   0  0  0  0  0  0  0  0  0  0  0  0
    3.3663    8.1530    2.1758 S   0  0  0  0  0  0  0  0  0  0  0  0
    3.3456    9.9085    2.0268 C   0  0  0  0  0  0  0  0  0  0  0  0
    3.3852   10.4561    0.8202 N   0  0  0  0  0  0  0  0  0  0  0  0
    3.3655   11.7704    0.6735 C   0  0  0  0  0  0  0  0  0  0  0  0
    3.3142   12.5761    1.8003 C   0  0  0  0  0  0  0  0  0  0  0  0
    3.2795   11.9709    3.0470 C   0  0  0  0  0  0  0  0  0  0  0  0
    3.2963   10.6506    3.1240 N   0  0  0  0  0  0  0  0  0  0  0  0
    3.2228   12.8072    4.2993 C   0  0  0  0  0  0  0  0  0  0  0  0
    3.4046   12.3847   -0.7021 C   0  0  0  0  0  0  0  0  0  0  0  0
    0.6192   -2.3447   -1.7829 H   0  0  0  0  0  0  0  0  0  0  0  0
    2.2737   -2.4273   -1.1318 H   0  0  0  0  0  0  0  0  0  0  0  0
    0.8786   -2.6314   -0.0454 H   0  0  0  0  0  0  0  0  0  0  0  0
   -0.4464   -0.7217    0.6479 H   0  0  0  0  0  0  0  0  0  0  0  0
   -0.4920    1.7051    1.0543 H   0  0  0  0  0  0  0  0  0  0  0  0
    2.8637    2.1947   -1.5514 H   0  0  0  0  0  0  0  0  0  0  0  0
    2.8976   -0.2329   -1.9546 H   0  0  0  0  0  0  0  0  0  0  0  0
    0.3146    3.9471    0.1012 H   0  0  0  0  0  0  0  0  0  0  0  0
    6.6821    4.0520    0.2419 H   0  0  0  0  0  0  0  0  0  0  0  0
    5.8715    2.5876    0.0955 H   0  0  0  0  0  0  0  0  0  0  0  0
    4.3346    8.1067   -0.0241 H   0  0  0  0  0  0  0  0  0  0  0  0
    2.5559    8.0804   -0.0864 H   0  0  0  0  0  0  0  0  0  0  0  0
    3.3018   13.6521    1.7090 H   0  0  0  0  0  0  0  0  0  0  0  0
    4.2361   13.0240    4.6376 H   0  0  0  0  0  0  0  0  0  0  0  0
    2.7022   13.7415    4.0891 H   0  0  0  0  0  0  0  0  0  0  0  0
    2.6892   12.2610    5.0771 H   0  0  0  0  0  0  0  0  0  0  0  0
    4.4409   12.5480   -0.9978 H   0  0  0  0  0  0  0  0  0  0  0  0
    2.9252   11.7127   -1.4139 H   0  0  0  0  0  0  0  0  0  0  0  0
    2.8759   13.3378   -0.6895 H   0  0  0  0  0  0  0  0  0  0  0  0
  1  2  1  0  0  0  0
  1 26  1  0  0  0  0
  1 27  1  0  0  0  0
  1 28  1  0  0  0  0
  2  7  2  0  0  0  0
  2  3  1  0  0  0  0
  3  4  2  0  0  0  0
  3 29  1  0  0  0  0
  4  5  1  0  0  0  0
  4 30  1  0  0  0  0
  5  6  2  0  0  0  0
  5  8  1  0  0  0  0
  6  7  1  0  0  0  0
  6 31  1  0  0  0  0
  7 32  1  0  0  0  0
  8  9  1  0  0  0  0
  8 33  1  0  0  0  0
  9 14  2  0  0  0  0
  9 10  1  0  0  0  0
 10 11  2  0  0  0  0
 11 12  1  0  0  0  0
 11 16  1  0  0  0  0
 12 13  2  0  0  0  0
 13 14  1  0  0  0  0
 13 15  1  0  0  0  0
 15 34  1  0  0  0  0
 15 35  1  0  0  0  0
 16 17  1  0  0  0  0
 16 36  1  0  0  0  0
 16 37  1  0  0  0  0
 17 18  1  0  0  0  0
 18 23  2  0  0  0  0
 18 19  1  0  0  0  0
 19 20  2  0  0  0  0
 20 21  1  0  0  0  0
 20 25  1  0  0  0  0
 21 22  2  0  0  0  0
 21 38  1  0  0  0  0
 22 23  1  0  0  0  0
 22 24  1  0  0  0  0
 24 39  1  0  0  0  0
 24 40  1  0  0  0  0
 24 41  1  0  0  0  0
 25 42  1  0  0  0  0
 25 43  1  0  0  0  0
 25 44  1  0  0  0  0
M  END
$$$$
ZINC02837728
  -OEChem-08230709453D

 42 44  0     1  0  0  0  0  0999 V2000
   -4.5301    5.5750   -5.9949 C   0  0  0  0  0  0  0  0  0  0  0  0
   -3.5848    4.6681   -5.9946 C   0  0  0  0  0  0  0  0  0  0  0  0
   -2.8356    4.3611   -4.7235 C   0  0  0  0  0  0  0  0  0  0  0  0
   -2.7208    2.9451   -4.5685 O   0  0  0  0  0  0  0  0  0  0  0  0
   -2.0670    2.4963   -3.4646 C   0  0  0  0  0  0  0  0  0  0  0  0
   -1.5473    3.3998   -2.5495 C   0  0  0  0  0  0  0  0  0  0  0  0
   -0.8882    2.9412   -1.4252 C   0  0  0  0  0  0  0  0  0  0  0  0
   -0.7368    1.5827   -1.2167 C   0  0  0  0  0  0  0  0  0  0  0  0
   -1.2535    0.6793   -2.1267 C   0  0  0  0  0  0  0  0  0  0  0  0
   -1.9186    1.1327   -3.2507 C   0  0  0  0  0  0  0  0  0  0  0  0
   -2.5669   -0.0017   -4.3937 Cl  0  0  0  0  0  0  0  0  0  0  0  0
   -0.0127    1.0858    0.0080 C   0  0  1  0  0  0  0  0  0  0  0  0
    0.0021   -0.0041    0.0020 H   0  0  0  0  0  0  0  0  0  0  0  0
    1.3985    1.6037   -0.0027 C   0  0  0  0  0  0  0  0  0  0  0  0
    1.7471    2.6586    0.7733 C   0  0  0  0  0  0  0  0  0  0  0  0
    0.8521    3.2717    1.5633 O   0  0  0  0  0  0  0  0  0  0  0  0
   -0.2661    2.6233    1.9392 C   0  0  0  0  0  0  0  0  0  0  0  0
   -0.7327    1.5701    1.2434 C   0  0  0  0  0  0  0  0  0  0  0  0
   -1.8978    0.8874    1.6425 C   0  0  0  0  0  0  0  0  0  0  0  0
   -2.2967   -0.0492    0.9797 O   0  0  0  0  0  0  0  0  0  0  0  0
   -2.6576    1.2969    2.8748 C   0  0  0  0  0  0  0  0  0  0  0  0
   -1.6834    1.9441    3.8650 C   0  0  0  0  0  0  0  0  0  0  0  0
   -0.9924    3.1178    3.1683 C   0  0  0  0  0  0  0  0  0  0  0  0
    3.0434    3.1100    0.7504 N   0  0  0  0  0  0  0  0  0  0  0  0
    2.3798    0.9791   -0.8379 C   0  0  0  0  0  0  0  0  0  0  0  0
    3.1583    0.4836   -1.5004 N   0  0  0  0  0  0  0  0  0  0  0  0
   -4.7725    6.1027   -5.0843 H   0  0  0  0  0  0  0  0  0  0  0  0
   -5.0670    5.7951   -6.9058 H   0  0  0  0  0  0  0  0  0  0  0  0
   -3.3424    4.1404   -6.9052 H   0  0  0  0  0  0  0  0  0  0  0  0
   -3.3765    4.7769   -3.8735 H   0  0  0  0  0  0  0  0  0  0  0  0
   -1.8405    4.8031   -4.7725 H   0  0  0  0  0  0  0  0  0  0  0  0
   -1.6614    4.4612   -2.7136 H   0  0  0  0  0  0  0  0  0  0  0  0
   -0.4874    3.6446   -0.7104 H   0  0  0  0  0  0  0  0  0  0  0  0
   -1.1372   -0.3814   -1.9596 H   0  0  0  0  0  0  0  0  0  0  0  0
   -3.0785    0.4905    3.2902 H   0  0  0  0  0  0  0  0  0  0  0  0
   -3.4331    2.0135    2.6043 H   0  0  0  0  0  0  0  0  0  0  0  0
   -0.9377    1.2125    4.1765 H   0  0  0  0  0  0  0  0  0  0  0  0
   -2.2286    2.3053    4.7370 H   0  0  0  0  0  0  0  0  0  0  0  0
   -0.2778    3.5758    3.8521 H   0  0  0  0  0  0  0  0  0  0  0  0
   -1.7392    3.8559    2.8760 H   0  0  0  0  0  0  0  0  0  0  0  0
    3.6986    2.6747    0.1829 H   0  0  0  0  0  0  0  0  0  0  0  0
    3.3041    3.8644    1.3017 H   0  0  0  0  0  0  0  0  0  0  0  0
  1  2  2  0  0  0  0
  1 27  1  0  0  0  0
  1 28  1  0  0  0  0
  2  3  1  0  0  0  0
  2 29  1  0  0  0  0
  3  4  1  0  0  0  0
  3 30  1  0  0  0  0
  3 31  1  0  0  0  0
  4  5  1  0  0  0  0
  5 10  2  0  0  0  0
  5  6  1  0  0  0  0
  6  7  2  0  0  0  0
  6 32  1  0  0  0  0
  7  8  1  0  0  0  0
  7 33  1  0  0  0  0
  8  9  2  0  0  0  0
  8 12  1  0  0  0  0
  9 10  1  0  0  0  0
  9 34  1  0  0  0  0
 10 11  1  0  0  0  0
 12 13  1  0  0  0  0
 12 18  1  0  0  0  0
 12 14  1  0  0  0  0
 14 15  2  0  0  0  0
 14 25  1  0  0  0  0
 15 16  1  0  0  0  0
 15 24  1  0  0  0  0
 16 17  1  0  0  0  0
 17 23  1  0  0  0  0
 17 18  2  0  0  0  0
 18 19  1  0  0  0  0
 19 20  2  0  0  0  0
 19 21  1  0  0  0  0
 21 22  1  0  0  0  0
 21 35  1  0  0  0  0
 21 36  1  0  0  0  0
 22 23  1  0  0  0  0
 22 37  1  0  0  0  0
 22 38  1  0  0  0  0
 23 39  1  0  0  0  0
 23 40  1  0  0  0  0
 24 41  1  0  0  0  0
 24 42  1  0  0  0  0
 25 26  3  0  0  0  0
M  END
$$$$
ZINC02838595
  -OEChem-08230709453D

 43 45  0     1  0  0  0  0  0999 V2000
   -2.5185    1.9562    0.0476 C   0  0  0  0  0  0  0  0  0  0  0  0
   -1.0626    2.3450    0.0304 C   0  0  0  0  0  0  0  0  0  0  0  0
   -0.0184    1.5032    0.0103 C   0  0  0  0  0  0  0  0  0  0  0  0
    1.1657    2.2728    0.0031 C   0  0  0  0  0  0  0  0  0  0  0  0
    0.8289    3.5298    0.0154 N   0  0  0  0  0  0  0  0  0  0  0  0
   -0.5728    3.6064    0.0294 N   0  0  0  0  0  0  0  0  0  0  0  0
   -1.1148    4.4467    0.0373 H   0  0  0  0  0  0  0  0  0  0  0  0
    2.3987    1.6990   -0.0149 O   0  0  0  0  0  0  0  0  0  0  0  0
    2.4667    0.3829   -0.2977 C   0  0  0  0  0  0  0  0  0  0  0  0
    1.4074   -0.4530   -0.3094 C   0  0  0  0  0  0  0  0  0  0  0  0
    0.0021   -0.0041    0.0020 C   0  0  1  0  0  0  0  0  0  0  0  0
   -0.6810   -0.3771   -0.7611 H   0  0  0  0  0  0  0  0  0  0  0  0
   -0.4118   -0.5259    1.3539 C   0  0  0  0  0  0  0  0  0  0  0  0
   -1.5246   -1.3385    1.4684 C   0  0  0  0  0  0  0  0  0  0  0  0
   -1.9069   -1.8194    2.7103 C   0  0  0  0  0  0  0  0  0  0  0  0
   -1.1689   -1.4828    3.8409 C   0  0  0  0  0  0  0  0  0  0  0  0
   -0.0542   -0.6677    3.7197 C   0  0  0  0  0  0  0  0  0  0  0  0
    0.3251   -0.1956    2.4755 C   0  0  0  0  0  0  0  0  0  0  0  0
    0.8695   -0.2450    5.1275 Cl  0  0  0  0  0  0  0  0  0  0  0  0
   -1.5407   -1.9521    5.0623 O   0  0  0  0  0  0  0  0  0  0  0  0
   -0.9859   -3.2034    5.4728 C   0  0  0  0  0  0  0  0  0  0  0  0
   -1.5078   -3.5595    6.8410 C   0  0  0  0  0  0  0  0  0  0  0  0
   -1.9247   -4.7769    7.0865 C   0  0  0  0  0  0  0  0  0  0  0  0
   -3.0015   -2.6184    2.8241 O   0  0  0  0  0  0  0  0  0  0  0  0
   -3.7110   -2.9220    1.6214 C   0  0  0  0  0  0  0  0  0  0  0  0
    1.6283   -1.8303   -0.6331 C   0  0  0  0  0  0  0  0  0  0  0  0
    1.8034   -2.9230   -0.8899 N   0  0  0  0  0  0  0  0  0  0  0  0
    3.6991   -0.1437   -0.5941 N   0  0  0  0  0  0  0  0  0  0  0  0
   -2.8555    1.8554    1.0793 H   0  0  0  0  0  0  0  0  0  0  0  0
   -3.1061    2.7258   -0.4529 H   0  0  0  0  0  0  0  0  0  0  0  0
   -2.6470    1.0062   -0.4710 H   0  0  0  0  0  0  0  0  0  0  0  0
   -2.0962   -1.5983    0.5896 H   0  0  0  0  0  0  0  0  0  0  0  0
    1.1963    0.4358    2.3813 H   0  0  0  0  0  0  0  0  0  0  0  0
   -1.2719   -3.9784    4.7618 H   0  0  0  0  0  0  0  0  0  0  0  0
    0.1007   -3.1252    5.5075 H   0  0  0  0  0  0  0  0  0  0  0  0
   -1.5381   -2.8112    7.6191 H   0  0  0  0  0  0  0  0  0  0  0  0
   -2.2987   -5.0322    8.0670 H   0  0  0  0  0  0  0  0  0  0  0  0
   -1.8944   -5.5253    6.3085 H   0  0  0  0  0  0  0  0  0  0  0  0
   -4.5597   -3.5655    1.8529 H   0  0  0  0  0  0  0  0  0  0  0  0
   -4.0689   -1.9978    1.1676 H   0  0  0  0  0  0  0  0  0  0  0  0
   -3.0455   -3.4341    0.9265 H   0  0  0  0  0  0  0  0  0  0  0  0
    3.7860   -1.0871   -0.8024 H   0  0  0  0  0  0  0  0  0  0  0  0
    4.4831    0.4275   -0.5953 H   0  0  0  0  0  0  0  0  0  0  0  0
  1  2  1  0  0  0  0
  1 29  1  0  0  0  0
  1 30  1  0  0  0  0
  1 31  1  0  0  0  0
  2  6  1  0  0  0  0
  2  3  2  0  0  0  0
  3 11  1  0  0  0  0
  3  4  1  0  0  0  0
  4  5  2  0  0  0  0
  4  8  1  0  0  0  0
  5  6  1  0  0  0  0
  6  7  1  0  0  0  0
  8  9  1  0  0  0  0
  9 10  2  0  0  0  0
  9 28  1  0  0  0  0
 10 11  1  0  0  0  0
 10 26  1  0  0  0  0
 11 12  1  0  0  0  0
 11 13  1  0  0  0  0
 13 18  2  0  0  0  0
 13 14  1  0  0  0  0
 14 15  2  0  0  0  0
 14 32  1  0  0  0  0
 15 16  1  0  0  0  0
 15 24  1  0  0  0  0
 16 17  2  0  0  0  0
 16 20  1  0  0  0  0
 17 18  1  0  0  0  0
 17 19  1  0  0  0  0
 18 33  1  0  0  0  0
 20 21  1  0  0  0  0
 21 22  1  0  0  0  0
 21 34  1  0  0  0  0
 21 35  1  0  0  0  0
 22 23  2  0  0  0  0
 22 36  1  0  0  0  0
 23 37  1  0  0  0  0
 23 38  1  0  0  0  0
 24 25  1  0  0  0  0
 25 39  1  0  0  0  0
 25 40  1  0  0  0  0
 25 41  1  0  0  0  0
 26 27  3  0  0  0  0
 28 42  1  0  0  0  0
 28 43  1  0  0  0  0
M  END
$$$$
ZINC02838595
  -OEChem-08230709453D

 43 45  0     1  0  0  0  0  0999 V2000
   -2.5186    1.9563    0.0400 C   0  0  0  0  0  0  0  0  0  0  0  0
   -1.0627    2.3450    0.0248 C   0  0  0  0  0  0  0  0  0  0  0  0
   -0.0184    1.5032    0.0133 C   0  0  0  0  0  0  0  0  0  0  0  0
    1.1657    2.2728    0.0081 C   0  0  0  0  0  0  0  0  0  0  0  0
    0.8288    3.5298    0.0100 N   0  0  0  0  0  0  0  0  0  0  0  0
   -0.5729    3.6064    0.0204 N   0  0  0  0  0  0  0  0  0  0  0  0
    1.4590    4.3063    0.0049 H   0  0  0  0  0  0  0  0  0  0  0  0
    2.3988    1.6990   -0.0067 O   0  0  0  0  0  0  0  0  0  0  0  0
    2.4674    0.3827   -0.2883 C   0  0  0  0  0  0  0  0  0  0  0  0
    1.4081   -0.4533   -0.3016 C   0  0  0  0  0  0  0  0  0  0  0  0
    0.0022   -0.0041    0.0064 C   0  0  1  0  0  0  0  0  0  0  0  0
   -0.6793   -0.3778   -0.7579 H   0  0  0  0  0  0  0  0  0  0  0  0
   -0.4147   -0.5248    1.3578 C   0  0  0  0  0  0  0  0  0  0  0  0
   -1.5278   -1.3373    1.4705 C   0  0  0  0  0  0  0  0  0  0  0  0
   -1.9128   -1.8171    2.7120 C   0  0  0  0  0  0  0  0  0  0  0  0
   -1.1773   -1.4795    3.8439 C   0  0  0  0  0  0  0  0  0  0  0  0
   -0.0623   -0.6645    3.7245 C   0  0  0  0  0  0  0  0  0  0  0  0
    0.3197   -0.1935    2.4807 C   0  0  0  0  0  0  0  0  0  0  0  0
    0.8583   -0.2406    5.1340 Cl  0  0  0  0  0  0  0  0  0  0  0  0
   -1.5518   -1.9478    5.0649 O   0  0  0  0  0  0  0  0  0  0  0  0
   -0.9979   -3.1987    5.4777 C   0  0  0  0  0  0  0  0  0  0  0  0
   -1.5228   -3.5537    6.8450 C   0  0  0  0  0  0  0  0  0  0  0  0
   -1.9402   -4.7709    7.0907 C   0  0  0  0  0  0  0  0  0  0  0  0
   -3.0076   -2.6160    2.8241 O   0  0  0  0  0  0  0  0  0  0  0  0
   -3.7145   -2.9207    1.6201 C   0  0  0  0  0  0  0  0  0  0  0  0
    1.6298   -1.8308   -0.6236 C   0  0  0  0  0  0  0  0  0  0  0  0
    1.8054   -2.9238   -0.8791 N   0  0  0  0  0  0  0  0  0  0  0  0
    3.7005   -0.1442   -0.5815 N   0  0  0  0  0  0  0  0  0  0  0  0
   -2.8580    1.8592    1.0712 H   0  0  0  0  0  0  0  0  0  0  0  0
   -3.1050    2.7240   -0.4647 H   0  0  0  0  0  0  0  0  0  0  0  0
   -2.6458    1.0044   -0.4754 H   0  0  0  0  0  0  0  0  0  0  0  0
   -2.0974   -1.5978    0.5907 H   0  0  0  0  0  0  0  0  0  0  0  0
    1.1911    0.4378    2.3879 H   0  0  0  0  0  0  0  0  0  0  0  0
   -1.2823   -3.9743    4.7667 H   0  0  0  0  0  0  0  0  0  0  0  0
    0.0887   -3.1205    5.5147 H   0  0  0  0  0  0  0  0  0  0  0  0
   -1.5548   -2.8047    7.6224 H   0  0  0  0  0  0  0  0  0  0  0  0
   -2.3164   -5.0253    8.0706 H   0  0  0  0  0  0  0  0  0  0  0  0
   -1.9082   -5.5199    6.3134 H   0  0  0  0  0  0  0  0  0  0  0  0
   -4.5637   -3.5640    1.8502 H   0  0  0  0  0  0  0  0  0  0  0  0
   -4.0714   -1.9968    1.1647 H   0  0  0  0  0  0  0  0  0  0  0  0
   -3.0474   -3.4333    0.9271 H   0  0  0  0  0  0  0  0  0  0  0  0
    3.7878   -1.0878   -0.7888 H   0  0  0  0  0  0  0  0  0  0  0  0
    4.4845    0.4270   -0.5814 H   0  0  0  0  0  0  0  0  0  0  0  0
  1  2  1  0  0  0  0
  1 29  1  0  0  0  0
  1 30  1  0  0  0  0
  1 31  1  0  0  0  0
  2  3  1  0  0  0  0
  2  6  2  0  0  0  0
  3 11  1  0  0  0  0
  3  4  2  0  0  0  0
  4  8  1  0  0  0  0
  4  5  1  0  0  0  0
  5  7  1  0  0  0  0
  5  6  1  0  0  0  0
  8  9  1  0  0  0  0
  9 10  2  0  0  0  0
  9 28  1  0  0  0  0
 10 11  1  0  0  0  0
 10 26  1  0  0  0  0
 11 12  1  0  0  0  0
 11 13  1  0  0  0  0
 13 18  2  0  0  0  0
 13 14  1  0  0  0  0
 14 15  2  0  0  0  0
 14 32  1  0  0  0  0
 15 16  1  0  0  0  0
 15 24  1  0  0  0  0
 16 17  2  0  0  0  0
 16 20  1  0  0  0  0
 17 18  1  0  0  0  0
 17 19  1  0  0  0  0
 18 33  1  0  0  0  0
 20 21  1  0  0  0  0
 21 22  1  0  0  0  0
 21 34  1  0  0  0  0
 21 35  1  0  0  0  0
 22 23  2  0  0  0  0
 22 36  1  0  0  0  0
 23 37  1  0  0  0  0
 23 38  1  0  0  0  0
 24 25  1  0  0  0  0
 25 39  1  0  0  0  0
 25 40  1  0  0  0  0
 25 41  1  0  0  0  0
 26 27  3  0  0  0  0
 28 42  1  0  0  0  0
 28 43  1  0  0  0  0
M  END
$$$$
ZINC02838596
  -OEChem-08230709453D

 43 45  0     1  0  0  0  0  0999 V2000
   -2.9538    1.8005    3.0723 C   0  0  0  0  0  0  0  0  0  0  0  0
   -2.7551    0.4108    2.5244 C   0  0  0  0  0  0  0  0  0  0  0  0
   -2.5716    0.0864    1.2356 C   0  0  0  0  0  0  0  0  0  0  0  0
   -2.4274   -1.3159    1.1522 C   0  0  0  0  0  0  0  0  0  0  0  0
   -2.5215   -1.8025    2.3556 N   0  0  0  0  0  0  0  0  0  0  0  0
   -2.7290   -0.7351    3.2435 N   0  0  0  0  0  0  0  0  0  0  0  0
   -2.8385   -0.8088    4.2348 H   0  0  0  0  0  0  0  0  0  0  0  0
   -2.2296   -1.9513   -0.0339 O   0  0  0  0  0  0  0  0  0  0  0  0
   -2.4419   -1.2426   -1.1606 C   0  0  0  0  0  0  0  0  0  0  0  0
   -2.5832    0.0994   -1.2065 C   0  0  0  0  0  0  0  0  0  0  0  0
   -2.5124    0.9747    0.0192 C   0  0  2  0  0  0  0  0  0  0  0  0
   -3.3552    1.6659    0.0270 H   0  0  0  0  0  0  0  0  0  0  0  0
   -1.2196    1.7491    0.0173 C   0  0  0  0  0  0  0  0  0  0  0  0
   -1.2436    3.1316    0.0298 C   0  0  0  0  0  0  0  0  0  0  0  0
   -0.0562    3.8456    0.0223 C   0  0  0  0  0  0  0  0  0  0  0  0
    1.1594    3.1687    0.0075 C   0  0  0  0  0  0  0  0  0  0  0  0
    1.1771    1.7826    0.0004 C   0  0  0  0  0  0  0  0  0  0  0  0
   -0.0126    1.0758    0.0080 C   0  0  0  0  0  0  0  0  0  0  0  0
    2.6913    0.9336   -0.0175 Cl  0  0  0  0  0  0  0  0  0  0  0  0
    2.3276    3.8654    0.0006 O   0  0  0  0  0  0  0  0  0  0  0  0
    2.8733    4.2041   -1.2759 C   0  0  0  0  0  0  0  0  0  0  0  0
    4.1582    4.9683   -1.0861 C   0  0  0  0  0  0  0  0  0  0  0  0
    5.2107    4.6694   -1.8066 C   0  0  0  0  0  0  0  0  0  0  0  0
   -0.0788    5.2054    0.0298 O   0  0  0  0  0  0  0  0  0  0  0  0
   -1.3626    5.8328    0.0450 C   0  0  0  0  0  0  0  0  0  0  0  0
   -2.8104    0.7204   -2.4767 C   0  0  0  0  0  0  0  0  0  0  0  0
   -2.9906    1.2131   -3.4843 N   0  0  0  0  0  0  0  0  0  0  0  0
   -2.5204   -1.9334   -2.3442 N   0  0  0  0  0  0  0  0  0  0  0  0
   -4.0176    2.0376    3.0844 H   0  0  0  0  0  0  0  0  0  0  0  0
   -2.5587    1.8510    4.0869 H   0  0  0  0  0  0  0  0  0  0  0  0
   -2.4288    2.5182    2.4418 H   0  0  0  0  0  0  0  0  0  0  0  0
   -2.1882    3.6550    0.0413 H   0  0  0  0  0  0  0  0  0  0  0  0
    0.0021   -0.0041    0.0020 H   0  0  0  0  0  0  0  0  0  0  0  0
    3.0726    3.2925   -1.8393 H   0  0  0  0  0  0  0  0  0  0  0  0
    2.1610    4.8212   -1.8235 H   0  0  0  0  0  0  0  0  0  0  0  0
    4.2114    5.7625   -0.3561 H   0  0  0  0  0  0  0  0  0  0  0  0
    5.1575    3.8752   -2.5366 H   0  0  0  0  0  0  0  0  0  0  0  0
    6.1315    5.2171   -1.6706 H   0  0  0  0  0  0  0  0  0  0  0  0
   -1.2377    6.9157    0.0497 H   0  0  0  0  0  0  0  0  0  0  0  0
   -1.9228    5.5355   -0.8415 H   0  0  0  0  0  0  0  0  0  0  0  0
   -1.9065    5.5259    0.9383 H   0  0  0  0  0  0  0  0  0  0  0  0
   -2.4239   -2.8985   -2.3498 H   0  0  0  0  0  0  0  0  0  0  0  0
   -2.6723   -1.4563   -3.1750 H   0  0  0  0  0  0  0  0  0  0  0  0
  1  2  1  0  0  0  0
  1 29  1  0  0  0  0
  1 30  1  0  0  0  0
  1 31  1  0  0  0  0
  2  6  1  0  0  0  0
  2  3  2  0  0  0  0
  3 11  1  0  0  0  0
  3  4  1  0  0  0  0
  4  5  2  0  0  0  0
  4  8  1  0  0  0  0
  5  6  1  0  0  0  0
  6  7  1  0  0  0  0
  8  9  1  0  0  0  0
  9 10  2  0  0  0  0
  9 28  1  0  0  0  0
 10 11  1  0  0  0  0
 10 26  1  0  0  0  0
 11 12  1  0  0  0  0
 11 13  1  0  0  0  0
 13 18  2  0  0  0  0
 13 14  1  0  0  0  0
 14 15  2  0  0  0  0
 14 32  1  0  0  0  0
 15 16  1  0  0  0  0
 15 24  1  0  0  0  0
 16 17  2  0  0  0  0
 16 20  1  0  0  0  0
 17 18  1  0  0  0  0
 17 19  1  0  0  0  0
 18 33  1  0  0  0  0
 20 21  1  0  0  0  0
 21 22  1  0  0  0  0
 21 34  1  0  0  0  0
 21 35  1  0  0  0  0
 22 23  2  0  0  0  0
 22 36  1  0  0  0  0
 23 37  1  0  0  0  0
 23 38  1  0  0  0  0
 24 25  1  0  0  0  0
 25 39  1  0  0  0  0
 25 40  1  0  0  0  0
 25 41  1  0  0  0  0
 26 27  3  0  0  0  0
 28 42  1  0  0  0  0
 28 43  1  0  0  0  0
M  END
$$$$
ZINC02838596
  -OEChem-08230709453D

 43 45  0     1  0  0  0  0  0999 V2000
   -2.9544    1.8004    3.0722 C   0  0  0  0  0  0  0  0  0  0  0  0
   -2.7555    0.4108    2.5244 C   0  0  0  0  0  0  0  0  0  0  0  0
   -2.5721    0.0863    1.2355 C   0  0  0  0  0  0  0  0  0  0  0  0
   -2.4283   -1.3160    1.1521 C   0  0  0  0  0  0  0  0  0  0  0  0
   -2.5219   -1.8025    2.3556 N   0  0  0  0  0  0  0  0  0  0  0  0
   -2.7297   -0.7352    3.2434 N   0  0  0  0  0  0  0  0  0  0  0  0
   -2.4571   -2.7689    2.6045 H   0  0  0  0  0  0  0  0  0  0  0  0
   -2.2311   -1.9514   -0.0341 O   0  0  0  0  0  0  0  0  0  0  0  0
   -2.4436   -1.2427   -1.1607 C   0  0  0  0  0  0  0  0  0  0  0  0
   -2.5846    0.0993   -1.2066 C   0  0  0  0  0  0  0  0  0  0  0  0
   -2.5132    0.9746    0.0191 C   0  0  2  0  0  0  0  0  0  0  0  0
   -3.3558    1.6660    0.0272 H   0  0  0  0  0  0  0  0  0  0  0  0
   -1.2202    1.7487    0.0167 C   0  0  0  0  0  0  0  0  0  0  0  0
   -1.2439    3.1312    0.0292 C   0  0  0  0  0  0  0  0  0  0  0  0
   -0.0563    3.8450    0.0213 C   0  0  0  0  0  0  0  0  0  0  0  0
    1.1591    3.1678    0.0061 C   0  0  0  0  0  0  0  0  0  0  0  0
    1.1765    1.7817   -0.0010 C   0  0  0  0  0  0  0  0  0  0  0  0
   -0.0134    1.0752    0.0070 C   0  0  0  0  0  0  0  0  0  0  0  0
    2.6905    0.9323   -0.0195 Cl  0  0  0  0  0  0  0  0  0  0  0  0
    2.3275    3.8642   -0.0013 O   0  0  0  0  0  0  0  0  0  0  0  0
    2.8728    4.2028   -1.2780 C   0  0  0  0  0  0  0  0  0  0  0  0
    4.1579    4.9667   -1.0886 C   0  0  0  0  0  0  0  0  0  0  0  0
    5.2101    4.6676   -1.8095 C   0  0  0  0  0  0  0  0  0  0  0  0
   -0.0786    5.2048    0.0288 O   0  0  0  0  0  0  0  0  0  0  0  0
   -1.3623    5.8325    0.0445 C   0  0  0  0  0  0  0  0  0  0  0  0
   -2.8121    0.7204   -2.4767 C   0  0  0  0  0  0  0  0  0  0  0  0
   -2.9926    1.2131   -3.4842 N   0  0  0  0  0  0  0  0  0  0  0  0
   -2.5227   -1.9335   -2.3443 N   0  0  0  0  0  0  0  0  0  0  0  0
   -4.0182    2.0376    3.0840 H   0  0  0  0  0  0  0  0  0  0  0  0
   -2.5596    1.8509    4.0870 H   0  0  0  0  0  0  0  0  0  0  0  0
   -2.4292    2.5182    2.4419 H   0  0  0  0  0  0  0  0  0  0  0  0
   -2.1884    3.6549    0.0411 H   0  0  0  0  0  0  0  0  0  0  0  0
    0.0011   -0.0047    0.0010 H   0  0  0  0  0  0  0  0  0  0  0  0
    3.0717    3.2911   -1.8414 H   0  0  0  0  0  0  0  0  0  0  0  0
    2.1604    4.8201   -1.8253 H   0  0  0  0  0  0  0  0  0  0  0  0
    4.2116    5.7609   -0.3587 H   0  0  0  0  0  0  0  0  0  0  0  0
    5.1565    3.8734   -2.5395 H   0  0  0  0  0  0  0  0  0  0  0  0
    6.1311    5.2151   -1.6738 H   0  0  0  0  0  0  0  0  0  0  0  0
   -1.2371    6.9153    0.0491 H   0  0  0  0  0  0  0  0  0  0  0  0
   -1.9229    5.5353   -0.8418 H   0  0  0  0  0  0  0  0  0  0  0  0
   -1.9059    5.5257    0.9380 H   0  0  0  0  0  0  0  0  0  0  0  0
   -2.4264   -2.8986   -2.3499 H   0  0  0  0  0  0  0  0  0  0  0  0
   -2.6748   -1.4564   -3.1750 H   0  0  0  0  0  0  0  0  0  0  0  0
  1  2  1  0  0  0  0
  1 29  1  0  0  0  0
  1 30  1  0  0  0  0
  1 31  1  0  0  0  0
  2  3  1  0  0  0  0
  2  6  2  0  0  0  0
  3 11  1  0  0  0  0
  3  4  2  0  0  0  0
  4  8  1  0  0  0  0
  4  5  1  0  0  0  0
  5  7  1  0  0  0  0
  5  6  1  0  0  0  0
  8  9  1  0  0  0  0
  9 10  2  0  0  0  0
  9 28  1  0  0  0  0
 10 11  1  0  0  0  0
 10 26  1  0  0  0  0
 11 12  1  0  0  0  0
 11 13  1  0  0  0  0
 13 18  2  0  0  0  0
 13 14  1  0  0  0  0
 14 15  2  0  0  0  0
 14 32  1  0  0  0  0
 15 16  1  0  0  0  0
 15 24  1  0  0  0  0
 16 17  2  0  0  0  0
 16 20  1  0  0  0  0
 17 18  1  0  0  0  0
 17 19  1  0  0  0  0
 18 33  1  0  0  0  0
 20 21  1  0  0  0  0
 21 22  1  0  0  0  0
 21 34  1  0  0  0  0
 21 35  1  0  0  0  0
 22 23  2  0  0  0  0
 22 36  1  0  0  0  0
 23 37  1  0  0  0  0
 23 38  1  0  0  0  0
 24 25  1  0  0  0  0
 25 39  1  0  0  0  0
 25 40  1  0  0  0  0
 25 41  1  0  0  0  0
 26 27  3  0  0  0  0
 28 42  1  0  0  0  0
 28 43  1  0  0  0  0
M  END
$$$$
ZINC02846921
  -OEChem-08230709453D

 45 47  0     0  0  0  0  0  0999 V2000
    2.0890   -1.9904   -5.5346 C   0  0  0  0  0  0  0  0  0  0  0  0
    2.5701   -2.5998   -6.6768 C   0  0  0  0  0  0  0  0  0  0  0  0
    3.8842   -3.0299   -6.7320 C   0  0  0  0  0  0  0  0  0  0  0  0
    4.7213   -2.8459   -5.6454 C   0  0  0  0  0  0  0  0  0  0  0  0
    4.2468   -2.2323   -4.5027 C   0  0  0  0  0  0  0  0  0  0  0  0
    2.9283   -1.7998   -4.4446 C   0  0  0  0  0  0  0  0  0  0  0  0
    2.4450   -1.1784   -3.2882 N   0  0  0  0  0  0  0  0  0  0  0  0
    1.4904   -0.1847   -3.3856 C   0  0  0  0  0  0  0  0  0  0  0  0
    1.1110    0.2579   -4.5805 N   0  0  0  0  0  0  0  0  0  0  0  0
    0.1925    1.2141   -4.6742 C   0  0  0  0  0  0  0  0  0  0  0  0
   -0.3465    1.7283   -3.5730 N   0  0  0  0  0  0  0  0  0  0  0  0
    0.0328    1.2859   -2.3783 C   0  0  0  0  0  0  0  0  0  0  0  0
    0.9551    0.3330   -2.2845 N   0  0  0  0  0  0  0  0  0  0  0  0
   -0.5268    1.8196   -1.2352 N   0  0  0  0  0  0  0  0  0  0  0  0
    0.0325    1.1901   -0.0322 C   0  0  0  0  0  0  0  0  0  0  0  0
   -0.7115    1.6996    1.2043 C   0  0  0  0  0  0  0  0  0  0  0  0
   -0.5685    3.2218    1.2889 C   0  0  0  0  0  0  0  0  0  0  0  0
   -1.1140    3.8498    0.0034 C   0  0  0  0  0  0  0  0  0  0  0  0
   -0.3586    3.2780   -1.1984 C   0  0  0  0  0  0  0  0  0  0  0  0
   -0.2013    1.6735   -5.9147 N   0  0  0  0  0  0  0  0  0  0  0  0
    0.3927    1.1069   -7.1281 C   0  0  0  0  0  0  0  0  0  0  0  0
   -0.2135    1.7862   -8.3577 C   0  0  0  0  0  0  0  0  0  0  0  0
    0.1520    3.1676   -8.3675 O   0  0  0  0  0  0  0  0  0  0  0  0
    4.4840   -3.8009   -8.1670 Cl  0  0  0  0  0  0  0  0  0  0  0  0
    1.0621   -1.6587   -5.4905 H   0  0  0  0  0  0  0  0  0  0  0  0
    1.9189   -2.7446   -7.5261 H   0  0  0  0  0  0  0  0  0  0  0  0
    5.7466   -3.1821   -5.6912 H   0  0  0  0  0  0  0  0  0  0  0  0
    4.9006   -2.0887   -3.6552 H   0  0  0  0  0  0  0  0  0  0  0  0
    2.7801   -1.4454   -2.4180 H   0  0  0  0  0  0  0  0  0  0  0  0
   -0.0793    0.1082   -0.1030 H   0  0  0  0  0  0  0  0  0  0  0  0
    1.0898    1.4413    0.0511 H   0  0  0  0  0  0  0  0  0  0  0  0
   -1.7666    1.4368    1.1282 H   0  0  0  0  0  0  0  0  0  0  0  0
   -0.2861    1.2441    2.0985 H   0  0  0  0  0  0  0  0  0  0  0  0
    0.4835    3.4831    1.4040 H   0  0  0  0  0  0  0  0  0  0  0  0
   -1.1329    3.5937    2.1440 H   0  0  0  0  0  0  0  0  0  0  0  0
   -0.9761    4.9304    0.0393 H   0  0  0  0  0  0  0  0  0  0  0  0
   -2.1755    3.6208   -0.0915 H   0  0  0  0  0  0  0  0  0  0  0  0
    0.7007    3.5192   -1.1099 H   0  0  0  0  0  0  0  0  0  0  0  0
   -0.7545    3.7125   -2.1163 H   0  0  0  0  0  0  0  0  0  0  0  0
   -0.8713    2.3716   -5.9830 H   0  0  0  0  0  0  0  0  0  0  0  0
    1.4701    1.2715   -7.1162 H   0  0  0  0  0  0  0  0  0  0  0  0
    0.1890    0.0368   -7.1668 H   0  0  0  0  0  0  0  0  0  0  0  0
    0.1617    1.3047   -9.2608 H   0  0  0  0  0  0  0  0  0  0  0  0
   -1.2994    1.6979   -8.3233 H   0  0  0  0  0  0  0  0  0  0  0  0
   -0.1985    3.6619   -9.1210 H   0  0  0  0  0  0  0  0  0  0  0  0
  1  6  2  0  0  0  0
  1  2  1  0  0  0  0
  1 25  1  0  0  0  0
  2  3  2  0  0  0  0
  2 26  1  0  0  0  0
  3  4  1  0  0  0  0
  3 24  1  0  0  0  0
  4  5  2  0  0  0  0
  4 27  1  0  0  0  0
  5  6  1  0  0  0  0
  5 28  1  0  0  0  0
  6  7  1  0  0  0  0
  7  8  1  0  0  0  0
  7 29  1  0  0  0  0
  8 13  2  0  0  0  0
  8  9  1  0  0  0  0
  9 10  2  0  0  0  0
 10 11  1  0  0  0  0
 10 20  1  0  0  0  0
 11 12  2  0  0  0  0
 12 13  1  0  0  0  0
 12 14  1  0  0  0  0
 14 19  1  0  0  0  0
 14 15  1  0  0  0  0
 15 16  1  0  0  0  0
 15 30  1  0  0  0  0
 15 31  1  0  0  0  0
 16 17  1  0  0  0  0
 16 32  1  0  0  0  0
 16 33  1  0  0  0  0
 17 18  1  0  0  0  0
 17 34  1  0  0  0  0
 17 35  1  0  0  0  0
 18 19  1  0  0  0  0
 18 36  1  0  0  0  0
 18 37  1  0  0  0  0
 19 38  1  0  0  0  0
 19 39  1  0  0  0  0
 20 21  1  0  0  0  0
 20 40  1  0  0  0  0
 21 22  1  0  0  0  0
 21 41  1  0  0  0  0
 21 42  1  0  0  0  0
 22 23  1  0  0  0  0
 22 43  1  0  0  0  0
 22 44  1  0  0  0  0
 23 45  1  0  0  0  0
M  END
$$$$
ZINC02854079
  -OEChem-08230709453D

 45 47  0     0  0  0  0  0  0999 V2000
    1.2307   10.6733    0.0494 C   0  0  0  0  0  0  0  0  0  0  0  0
   -0.0456    9.8719    0.0573 C   0  0  0  0  0  0  0  0  0  0  0  0
   -1.2676   10.5191    0.0726 C   0  0  0  0  0  0  0  0  0  0  0  0
   -2.4402    9.7869    0.0803 C   0  0  0  0  0  0  0  0  0  0  0  0
   -2.3938    8.4060    0.0723 C   0  0  0  0  0  0  0  0  0  0  0  0
   -1.1693    7.7545    0.0565 C   0  0  0  0  0  0  0  0  0  0  0  0
    0.0062    8.4917    0.0546 C   0  0  0  0  0  0  0  0  0  0  0  0
   -1.1210    6.3964    0.0486 O   0  0  0  0  0  0  0  0  0  0  0  0
    0.1744    5.7933    0.0324 C   0  0  0  0  0  0  0  0  0  0  0  0
    0.0279    4.2704    0.0255 C   0  0  0  0  0  0  0  0  0  0  0  0
    1.6688    3.5066    0.0050 S   0  0  0  0  0  0  0  0  0  0  0  0
    1.2138    1.8043    0.0002 C   0  0  0  0  0  0  0  0  0  0  0  0
    2.0917    0.7545   -0.0139 N   0  0  0  0  0  0  0  0  0  0  0  0
    3.0897    0.8175   -0.0232 H   0  0  0  0  0  0  0  0  0  0  0  0
    1.3486   -0.4035   -0.0130 C   0  0  0  0  0  0  0  0  0  0  0  0
    0.0021   -0.0041    0.0020 C   0  0  0  0  0  0  0  0  0  0  0  0
   -0.0163    1.3524    0.0095 N   0  0  0  0  0  0  0  0  0  0  0  0
   -0.9857   -1.0020    0.0065 C   0  0  0  0  0  0  0  0  0  0  0  0
   -0.6012   -2.2744   -0.0041 N   0  0  0  0  0  0  0  0  0  0  0  0
    0.6778   -2.6018   -0.0176 C   0  0  0  0  0  0  0  0  0  0  0  0
    1.6375   -1.7000   -0.0223 N   0  0  0  0  0  0  0  0  0  0  0  0
   -2.3305   -0.6681    0.0216 N   0  0  0  0  0  0  0  0  0  0  0  0
   -3.6724    7.6085    0.0802 C   0  0  0  0  0  0  0  0  0  0  0  0
   -4.4745    7.9433    1.3393 C   0  0  0  0  0  0  0  0  0  0  0  0
   -4.4990    7.9577   -1.1590 C   0  0  0  0  0  0  0  0  0  0  0  0
    1.5482   10.8608    1.0751 H   0  0  0  0  0  0  0  0  0  0  0  0
    2.0066   10.1155   -0.4749 H   0  0  0  0  0  0  0  0  0  0  0  0
    1.0603   11.6230   -0.4576 H   0  0  0  0  0  0  0  0  0  0  0  0
   -1.3060   11.5984    0.0788 H   0  0  0  0  0  0  0  0  0  0  0  0
   -3.3933   10.2947    0.0929 H   0  0  0  0  0  0  0  0  0  0  0  0
    0.9608    7.9867    0.0472 H   0  0  0  0  0  0  0  0  0  0  0  0
    0.7295    6.1010    0.9186 H   0  0  0  0  0  0  0  0  0  0  0  0
    0.7117    6.1107   -0.8613 H   0  0  0  0  0  0  0  0  0  0  0  0
   -0.5271    3.9628   -0.8607 H   0  0  0  0  0  0  0  0  0  0  0  0
   -0.5094    3.9530    0.9191 H   0  0  0  0  0  0  0  0  0  0  0  0
    0.9468   -3.6477   -0.0255 H   0  0  0  0  0  0  0  0  0  0  0  0
   -2.5323   -0.1346    0.8430 H   0  0  0  0  0  0  0  0  0  0  0  0
   -3.0036   -1.3665    0.0246 H   0  0  0  0  0  0  0  0  0  0  0  0
   -3.4368    6.5443    0.0717 H   0  0  0  0  0  0  0  0  0  0  0  0
   -4.7101    9.0075    1.3478 H   0  0  0  0  0  0  0  0  0  0  0  0
   -5.3993    7.3664    1.3451 H   0  0  0  0  0  0  0  0  0  0  0  0
   -3.8856    7.6944    2.2222 H   0  0  0  0  0  0  0  0  0  0  0  0
   -3.9276    7.7192   -2.0560 H   0  0  0  0  0  0  0  0  0  0  0  0
   -5.4238    7.3808   -1.1533 H   0  0  0  0  0  0  0  0  0  0  0  0
   -4.7346    9.0219   -1.1505 H   0  0  0  0  0  0  0  0  0  0  0  0
  1  2  1  0  0  0  0
  1 26  1  0  0  0  0
  1 27  1  0  0  0  0
  1 28  1  0  0  0  0
  2  7  2  0  0  0  0
  2  3  1  0  0  0  0
  3  4  2  0  0  0  0
  3 29  1  0  0  0  0
  4  5  1  0  0  0  0
  4 30  1  0  0  0  0
  5  6  2  0  0  0  0
  5 23  1  0  0  0  0
  6  7  1  0  0  0  0
  6  8  1  0  0  0  0
  7 31  1  0  0  0  0
  8  9  1  0  0  0  0
  9 10  1  0  0  0  0
  9 32  1  0  0  0  0
  9 33  1  0  0  0  0
 10 11  1  0  0  0  0
 10 34  1  0  0  0  0
 10 35  1  0  0  0  0
 11 12  1  0  0  0  0
 12 17  2  0  0  0  0
 12 13  1  0  0  0  0
 13 14  1  0  0  0  0
 13 15  1  0  0  0  0
 15 21  2  0  0  0  0
 15 16  1  0  0  0  0
 16 17  1  0  0  0  0
 16 18  2  0  0  0  0
 18 19  1  0  0  0  0
 18 22  1  0  0  0  0
 19 20  2  0  0  0  0
 20 21  1  0  0  0  0
 20 36  1  0  0  0  0
 22 37  1  0  0  0  0
 22 38  1  0  0  0  0
 23 24  1  0  0  0  0
 23 25  1  0  0  0  0
 23 39  1  0  0  0  0
 24 40  1  0  0  0  0
 24 41  1  0  0  0  0
 24 42  1  0  0  0  0
 25 43  1  0  0  0  0
 25 44  1  0  0  0  0
 25 45  1  0  0  0  0
M  END
$$$$
ZINC02880012
  -OEChem-08230709453D

 40 41  0     1  0  0  0  0  0999 V2000
    4.2824   -3.0749    6.0782 C   0  0  0  0  0  0  0  0  0  0  0  0
    4.2113   -3.5277    4.6426 C   0  0  0  0  0  0  0  0  0  0  0  0
    5.2903   -4.1756    4.0693 C   0  0  0  0  0  0  0  0  0  0  0  0
    5.2285   -4.5923    2.7543 C   0  0  0  0  0  0  0  0  0  0  0  0
    4.0805   -4.3595    2.0066 C   0  0  0  0  0  0  0  0  0  0  0  0
    3.0005   -3.7026    2.5841 C   0  0  0  0  0  0  0  0  0  0  0  0
    3.0673   -3.2939    3.9014 C   0  0  0  0  0  0  0  0  0  0  0  0
    3.9970   -4.8894    0.3282 S   0  0  0  0  0  0  0  0  0  0  0  0
    2.4273   -4.2053   -0.2705 C   0  0  2  0  0  0  0  0  0  0  0  0
    1.6243   -4.4888    0.4100 H   0  0  0  0  0  0  0  0  0  0  0  0
    2.1306   -4.7557   -1.6669 C   0  0  0  0  0  0  0  0  0  0  0  0
    2.5255   -2.7028   -0.3331 C   0  0  0  0  0  0  0  0  0  0  0  0
    3.6082   -2.1705   -0.4569 O   0  0  0  0  0  0  0  0  0  0  0  0
    1.4102   -1.9506   -0.2517 N   0  0  0  0  0  0  0  0  0  0  0  0
    1.4893   -0.5672   -0.4075 C   0  0  0  0  0  0  0  0  0  0  0  0
    2.5984    0.1230    0.0714 C   0  0  0  0  0  0  0  0  0  0  0  0
    2.6799    1.4888   -0.0812 C   0  0  0  0  0  0  0  0  0  0  0  0
    1.6470    2.1819   -0.7181 C   0  0  0  0  0  0  0  0  0  0  0  0
    0.5346    1.4856   -1.1984 C   0  0  0  0  0  0  0  0  0  0  0  0
    0.4592    0.1199   -1.0420 C   0  0  0  0  0  0  0  0  0  0  0  0
    1.7307    3.6463   -0.8830 C   0  0  0  0  0  0  0  0  0  0  0  0
    2.6992    4.2508   -0.4646 O   0  0  0  0  0  0  0  0  0  0  0  0
    0.7337    4.3133   -1.4975 N   0  0  0  0  0  0  0  0  0  0  0  0
    4.6811   -2.0613    6.1201 H   0  0  0  0  0  0  0  0  0  0  0  0
    3.2835   -3.0908    6.5141 H   0  0  0  0  0  0  0  0  0  0  0  0
    4.9342   -3.7451    6.6387 H   0  0  0  0  0  0  0  0  0  0  0  0
    6.1822   -4.3562    4.6510 H   0  0  0  0  0  0  0  0  0  0  0  0
    6.0713   -5.0988    2.3075 H   0  0  0  0  0  0  0  0  0  0  0  0
    2.1083   -3.5161    2.0047 H   0  0  0  0  0  0  0  0  0  0  0  0
    2.2267   -2.7873    4.3522 H   0  0  0  0  0  0  0  0  0  0  0  0
    2.9739   -4.5485   -2.3257 H   0  0  0  0  0  0  0  0  0  0  0  0
    1.9723   -5.8324   -1.6069 H   0  0  0  0  0  0  0  0  0  0  0  0
    1.2343   -4.2782   -2.0628 H   0  0  0  0  0  0  0  0  0  0  0  0
    0.5524   -2.3715   -0.0846 H   0  0  0  0  0  0  0  0  0  0  0  0
    3.3964   -0.4134    0.5632 H   0  0  0  0  0  0  0  0  0  0  0  0
    3.5390    2.0244    0.2948 H   0  0  0  0  0  0  0  0  0  0  0  0
   -0.2650    2.0183   -1.6916 H   0  0  0  0  0  0  0  0  0  0  0  0
   -0.4004   -0.4188   -1.4127 H   0  0  0  0  0  0  0  0  0  0  0  0
   -0.0389    3.8311   -1.8312 H   0  0  0  0  0  0  0  0  0  0  0  0
    0.7888    5.2757   -1.6059 H   0  0  0  0  0  0  0  0  0  0  0  0
  1  2  1  0  0  0  0
  1 24  1  0  0  0  0
  1 25  1  0  0  0  0
  1 26  1  0  0  0  0
  2  7  2  0  0  0  0
  2  3  1  0  0  0  0
  3  4  2  0  0  0  0
  3 27  1  0  0  0  0
  4  5  1  0  0  0  0
  4 28  1  0  0  0  0
  5  6  2  0  0  0  0
  5  8  1  0  0  0  0
  6  7  1  0  0  0  0
  6 29  1  0  0  0  0
  7 30  1  0  0  0  0
  8  9  1  0  0  0  0
  9 10  1  0  0  0  0
  9 11  1  0  0  0  0
  9 12  1  0  0  0  0
 11 31  1  0  0  0  0
 11 32  1  0  0  0  0
 11 33  1  0  0  0  0
 12 13  2  0  0  0  0
 12 14  1  0  0  0  0
 14 15  1  0  0  0  0
 14 34  1  0  0  0  0
 15 20  2  0  0  0  0
 15 16  1  0  0  0  0
 16 17  2  0  0  0  0
 16 35  1  0  0  0  0
 17 18  1  0  0  0  0
 17 36  1  0  0  0  0
 18 19  2  0  0  0  0
 18 21  1  0  0  0  0
 19 20  1  0  0  0  0
 19 37  1  0  0  0  0
 20 38  1  0  0  0  0
 21 22  2  0  0  0  0
 21 23  1  0  0  0  0
 23 39  1  0  0  0  0
 23 40  1  0  0  0  0
M  END
$$$$
ZINC02908146
  -OEChem-08230709453D

 39 41  0     0  0  0  0  0  0999 V2000
    2.4899    1.0453   -0.0156 C   0  0  0  0  0  0  0  0  0  0  0  0
    1.1758    1.7829    0.0004 C   0  0  0  0  0  0  0  0  0  0  0  0
   -0.0126    1.0758    0.0080 C   0  0  0  0  0  0  0  0  0  0  0  0
   -1.2183    1.7495    0.0173 C   0  0  0  0  0  0  0  0  0  0  0  0
   -1.2364    3.1369    0.0302 C   0  0  0  0  0  0  0  0  0  0  0  0
   -0.0430    3.8438    0.0222 C   0  0  0  0  0  0  0  0  0  0  0  0
    1.1605    3.1652    0.0071 C   0  0  0  0  0  0  0  0  0  0  0  0
    2.4574    3.9326   -0.0017 C   0  0  0  0  0  0  0  0  0  0  0  0
   -2.4214    3.8020    0.0446 O   0  0  0  0  0  0  0  0  0  0  0  0
   -3.6103    3.0092    0.0522 C   0  0  0  0  0  0  0  0  0  0  0  0
   -4.8348    3.9264    0.0682 C   0  0  0  0  0  0  0  0  0  0  0  0
   -6.3407    2.9223    0.0778 S   0  0  0  0  0  0  0  0  0  0  0  0
   -7.5578    4.1962    0.0954 C   0  0  0  0  0  0  0  0  0  0  0  0
   -8.9111    3.9924    0.1018 N   0  0  0  0  0  0  0  0  0  0  0  0
   -9.3765    3.1073    0.0951 H   0  0  0  0  0  0  0  0  0  0  0  0
   -9.5135    5.2295    0.1191 C   0  0  0  0  0  0  0  0  0  0  0  0
   -8.4720    6.1717    0.1130 C   0  0  0  0  0  0  0  0  0  0  0  0
   -7.3039    5.4819    0.0985 N   0  0  0  0  0  0  0  0  0  0  0  0
   -8.8104    7.5344    0.1223 C   0  0  0  0  0  0  0  0  0  0  0  0
  -10.0971    7.8679    0.1364 N   0  0  0  0  0  0  0  0  0  0  0  0
  -11.0420    6.9458    0.1416 C   0  0  0  0  0  0  0  0  0  0  0  0
  -10.7711    5.6570    0.1334 N   0  0  0  0  0  0  0  0  0  0  0  0
   -7.8256    8.5094    0.1164 N   0  0  0  0  0  0  0  0  0  0  0  0
    2.7971    0.8727   -1.0471 H   0  0  0  0  0  0  0  0  0  0  0  0
    3.2471    1.6410    0.4942 H   0  0  0  0  0  0  0  0  0  0  0  0
    2.3759    0.0888    0.4945 H   0  0  0  0  0  0  0  0  0  0  0  0
    0.0021   -0.0041    0.0020 H   0  0  0  0  0  0  0  0  0  0  0  0
   -2.1462    1.1969    0.0187 H   0  0  0  0  0  0  0  0  0  0  0  0
   -0.0545    4.9237    0.0274 H   0  0  0  0  0  0  0  0  0  0  0  0
    2.7603    4.1225   -1.0314 H   0  0  0  0  0  0  0  0  0  0  0  0
    2.3218    4.8812    0.5179 H   0  0  0  0  0  0  0  0  0  0  0  0
    3.2281    3.3493    0.5021 H   0  0  0  0  0  0  0  0  0  0  0  0
   -3.6360    2.3843   -0.8405 H   0  0  0  0  0  0  0  0  0  0  0  0
   -3.6191    2.3760    0.9394 H   0  0  0  0  0  0  0  0  0  0  0  0
   -4.8091    4.5513    0.9609 H   0  0  0  0  0  0  0  0  0  0  0  0
   -4.8260    4.5596   -0.8190 H   0  0  0  0  0  0  0  0  0  0  0  0
  -12.0752    7.2600    0.1528 H   0  0  0  0  0  0  0  0  0  0  0  0
   -7.2487    8.4054    0.9266 H   0  0  0  0  0  0  0  0  0  0  0  0
   -8.0719    9.4476    0.1230 H   0  0  0  0  0  0  0  0  0  0  0  0
  1  2  1  0  0  0  0
  1 24  1  0  0  0  0
  1 25  1  0  0  0  0
  1 26  1  0  0  0  0
  2  7  2  0  0  0  0
  2  3  1  0  0  0  0
  3  4  2  0  0  0  0
  3 27  1  0  0  0  0
  4  5  1  0  0  0  0
  4 28  1  0  0  0  0
  5  6  2  0  0  0  0
  5  9  1  0  0  0  0
  6  7  1  0  0  0  0
  6 29  1  0  0  0  0
  7  8  1  0  0  0  0
  8 30  1  0  0  0  0
  8 31  1  0  0  0  0
  8 32  1  0  0  0  0
  9 10  1  0  0  0  0
 10 11  1  0  0  0  0
 10 33  1  0  0  0  0
 10 34  1  0  0  0  0
 11 12  1  0  0  0  0
 11 35  1  0  0  0  0
 11 36  1  0  0  0  0
 12 13  1  0  0  0  0
 13 18  2  0  0  0  0
 13 14  1  0  0  0  0
 14 15  1  0  0  0  0
 14 16  1  0  0  0  0
 16 22  2  0  0  0  0
 16 17  1  0  0  0  0
 17 18  1  0  0  0  0
 17 19  2  0  0  0  0
 19 20  1  0  0  0  0
 19 23  1  0  0  0  0
 20 21  2  0  0  0  0
 21 22  1  0  0  0  0
 21 37  1  0  0  0  0
 23 38  1  0  0  0  0
 23 39  1  0  0  0  0
M  END
$$$$
ZINC02944920
  -OEChem-08230709453D

 41 42  0     0  0  0  0  0  0999 V2000
   -0.0127    1.0858    0.0080 C   0  0  0  0  0  0  0  0  0  0  0  0
   -0.7288    1.5792    1.2668 C   0  0  0  0  0  0  0  0  0  0  0  0
   -0.7496    3.1091    1.2752 C   0  0  0  0  0  0  0  0  0  0  0  0
   -2.1642    1.0497    1.2777 C   0  0  0  0  0  0  0  0  0  0  0  0
    0.0000    1.0800    2.4877 C   0  0  0  0  0  0  0  0  0  0  0  0
    1.2881    1.3370    2.8150 C   0  0  0  0  0  0  0  0  0  0  0  0
    1.5128    0.6525    4.0329 C   0  0  0  0  0  0  0  0  0  0  0  0
    0.3827    0.0531    4.3512 N   0  0  0  0  0  0  0  0  0  0  0  0
   -0.5101    0.2929    3.4591 N   0  0  0  0  0  0  0  0  0  0  0  0
    0.2411   -0.5064    5.1677 H   0  0  0  0  0  0  0  0  0  0  0  0
    2.7723    0.6205    4.8039 C   0  0  0  0  0  0  0  0  0  0  0  0
    3.7473    1.2242    4.4006 O   0  0  0  0  0  0  0  0  0  0  0  0
    2.8404   -0.0780    5.9545 N   0  0  0  0  0  0  0  0  0  0  0  0
    4.0350   -0.1083    6.6858 N   0  0  0  0  0  0  0  0  0  0  0  0
    4.1056   -0.8314    7.8771 C   0  0  0  0  0  0  0  0  0  0  0  0
    3.0360   -1.4936    8.3195 C   0  0  0  0  0  0  0  0  0  0  0  0
    5.3685   -0.8636    8.6501 C   0  0  0  0  0  0  0  0  0  0  0  0
    6.4902   -0.1766    8.1868 C   0  0  0  0  0  0  0  0  0  0  0  0
    7.6621   -0.2043    8.9144 C   0  0  0  0  0  0  0  0  0  0  0  0
    7.7296   -0.9230   10.0959 C   0  0  0  0  0  0  0  0  0  0  0  0
    6.6207   -1.6120   10.5572 C   0  0  0  0  0  0  0  0  0  0  0  0
    5.4418   -1.5854    9.8410 C   0  0  0  0  0  0  0  0  0  0  0  0
    9.2096   -0.9602   11.0023 Cl  0  0  0  0  0  0  0  0  0  0  0  0
    0.0021   -0.0041    0.0020 H   0  0  0  0  0  0  0  0  0  0  0  0
    1.0099    1.4631    0.0003 H   0  0  0  0  0  0  0  0  0  0  0  0
   -0.5399    1.4469   -0.8751 H   0  0  0  0  0  0  0  0  0  0  0  0
   -1.2768    3.4701    0.3922 H   0  0  0  0  0  0  0  0  0  0  0  0
   -1.2598    3.4606    2.1720 H   0  0  0  0  0  0  0  0  0  0  0  0
    0.2730    3.4864    1.2675 H   0  0  0  0  0  0  0  0  0  0  0  0
   -2.1494   -0.0402    1.2717 H   0  0  0  0  0  0  0  0  0  0  0  0
   -2.6744    1.4012    2.1745 H   0  0  0  0  0  0  0  0  0  0  0  0
   -2.6914    1.4107    0.3946 H   0  0  0  0  0  0  0  0  0  0  0  0
    1.9955    1.9381    2.2629 H   0  0  0  0  0  0  0  0  0  0  0  0
    2.0624   -0.5596    6.2763 H   0  0  0  0  0  0  0  0  0  0  0  0
    4.8130    0.3733    6.3640 H   0  0  0  0  0  0  0  0  0  0  0  0
    3.0907   -2.0533    9.2415 H   0  0  0  0  0  0  0  0  0  0  0  0
    2.1151   -1.4702    7.7558 H   0  0  0  0  0  0  0  0  0  0  0  0
    6.4402    0.3800    7.2627 H   0  0  0  0  0  0  0  0  0  0  0  0
    8.5299    0.3315    8.5591 H   0  0  0  0  0  0  0  0  0  0  0  0
    6.6786   -2.1707   11.4796 H   0  0  0  0  0  0  0  0  0  0  0  0
    4.5772   -2.1225   10.2021 H   0  0  0  0  0  0  0  0  0  0  0  0
  1  2  1  0  0  0  0
  1 24  1  0  0  0  0
  1 25  1  0  0  0  0
  1 26  1  0  0  0  0
  2  3  1  0  0  0  0
  2  4  1  0  0  0  0
  2  5  1  0  0  0  0
  3 27  1  0  0  0  0
  3 28  1  0  0  0  0
  3 29  1  0  0  0  0
  4 30  1  0  0  0  0
  4 31  1  0  0  0  0
  4 32  1  0  0  0  0
  5  6  1  0  0  0  0
  5  9  2  0  0  0  0
  6 33  1  0  0  0  0
  6  7  2  0  0  0  0
  7 11  1  0  0  0  0
  7  8  1  0  0  0  0
  8 10  1  0  0  0  0
  8  9  1  0  0  0  0
 11 12  2  0  0  0  0
 11 13  1  0  0  0  0
 13 14  1  0  0  0  0
 13 34  1  0  0  0  0
 14 15  1  0  0  0  0
 14 35  1  0  0  0  0
 15 16  2  0  0  0  0
 15 17  1  0  0  0  0
 16 36  1  0  0  0  0
 16 37  1  0  0  0  0
 17 22  2  0  0  0  0
 17 18  1  0  0  0  0
 18 19  2  0  0  0  0
 18 38  1  0  0  0  0
 19 20  1  0  0  0  0
 19 39  1  0  0  0  0
 20 21  2  0  0  0  0
 20 23  1  0  0  0  0
 21 22  1  0  0  0  0
 21 40  1  0  0  0  0
 22 41  1  0  0  0  0
M  END
$$$$
ZINC02955294
  -OEChem-08230709453D

 45 46  0     0  0  0  0  0  0999 V2000
    4.2893  -10.9434   -0.2208 C   0  0  0  0  0  0  0  0  0  0  0  0
    5.2066   -9.7251   -0.0975 C   0  0  0  0  0  0  0  0  0  0  0  0
    6.1671   -9.6873   -1.2878 C   0  0  0  0  0  0  0  0  0  0  0  0
    6.0085   -9.8199    1.2021 C   0  0  0  0  0  0  0  0  0  0  0  0
    4.3742   -8.4689   -0.0836 C   0  0  0  0  0  0  0  0  0  0  0  0
    4.8389   -7.1976   -0.0912 C   0  0  0  0  0  0  0  0  0  0  0  0
    3.6883   -6.3742   -0.0728 C   0  0  0  0  0  0  0  0  0  0  0  0
    2.6421   -7.1757   -0.0545 N   0  0  0  0  0  0  0  0  0  0  0  0
    3.0257   -8.4017   -0.0612 N   0  0  0  0  0  0  0  0  0  0  0  0
    1.6889   -6.8736   -0.0379 H   0  0  0  0  0  0  0  0  0  0  0  0
    3.6642   -4.8973   -0.0700 C   0  0  0  0  0  0  0  0  0  0  0  0
    4.7070   -4.2723   -0.0792 O   0  0  0  0  0  0  0  0  0  0  0  0
    2.4863   -4.2425   -0.0573 N   0  0  0  0  0  0  0  0  0  0  0  0
    2.4635   -2.8417   -0.0546 N   0  0  0  0  0  0  0  0  0  0  0  0
    1.2441   -2.1639   -0.0414 C   0  0  0  0  0  0  0  0  0  0  0  0
    0.0999   -2.8495   -0.0313 C   0  0  0  0  0  0  0  0  0  0  0  0
    1.2199   -0.6834   -0.0386 C   0  0  0  0  0  0  0  0  0  0  0  0
    0.0016   -0.0041   -0.0255 C   0  0  0  0  0  0  0  0  0  0  0  0
   -0.0171    1.3745   -0.0225 C   0  0  0  0  0  0  0  0  0  0  0  0
    1.1748    2.0867   -0.0327 C   0  0  0  0  0  0  0  0  0  0  0  0
    2.3893    1.4138   -0.0457 C   0  0  0  0  0  0  0  0  0  0  0  0
    2.4154    0.0353   -0.0488 C   0  0  0  0  0  0  0  0  0  0  0  0
    1.1527    3.4451   -0.0301 O   0  0  0  0  0  0  0  0  0  0  0  0
    2.4151    4.1145   -0.0410 C   0  0  0  0  0  0  0  0  0  0  0  0
    3.7180  -10.8758   -1.1466 H   0  0  0  0  0  0  0  0  0  0  0  0
    4.8913  -11.8520   -0.2308 H   0  0  0  0  0  0  0  0  0  0  0  0
    3.6050  -10.9703    0.6272 H   0  0  0  0  0  0  0  0  0  0  0  0
    6.8206   -8.8194   -1.1999 H   0  0  0  0  0  0  0  0  0  0  0  0
    6.7691  -10.5959   -1.2978 H   0  0  0  0  0  0  0  0  0  0  0  0
    5.5958   -9.6198   -2.2136 H   0  0  0  0  0  0  0  0  0  0  0  0
    5.3242   -9.8468    2.0501 H   0  0  0  0  0  0  0  0  0  0  0  0
    6.6105  -10.7285    1.1921 H   0  0  0  0  0  0  0  0  0  0  0  0
    6.6620   -8.9520    1.2900 H   0  0  0  0  0  0  0  0  0  0  0  0
    5.8707   -6.8788   -0.1079 H   0  0  0  0  0  0  0  0  0  0  0  0
    1.6543   -4.7411   -0.0499 H   0  0  0  0  0  0  0  0  0  0  0  0
    3.2955   -2.3431   -0.0620 H   0  0  0  0  0  0  0  0  0  0  0  0
    0.1176   -3.9293   -0.0333 H   0  0  0  0  0  0  0  0  0  0  0  0
   -0.8440   -2.3248   -0.0211 H   0  0  0  0  0  0  0  0  0  0  0  0
   -0.9258   -0.5574   -0.0173 H   0  0  0  0  0  0  0  0  0  0  0  0
   -0.9601    1.9011   -0.0168 H   0  0  0  0  0  0  0  0  0  0  0  0
    3.3145    1.9707   -0.0535 H   0  0  0  0  0  0  0  0  0  0  0  0
    3.3604   -0.4875   -0.0586 H   0  0  0  0  0  0  0  0  0  0  0  0
    2.9853    3.8293    0.8431 H   0  0  0  0  0  0  0  0  0  0  0  0
    2.9684    3.8322   -0.9368 H   0  0  0  0  0  0  0  0  0  0  0  0
    2.2548    5.1926   -0.0376 H   0  0  0  0  0  0  0  0  0  0  0  0
  1  2  1  0  0  0  0
  1 25  1  0  0  0  0
  1 26  1  0  0  0  0
  1 27  1  0  0  0  0
  2  3  1  0  0  0  0
  2  4  1  0  0  0  0
  2  5  1  0  0  0  0
  3 28  1  0  0  0  0
  3 29  1  0  0  0  0
  3 30  1  0  0  0  0
  4 31  1  0  0  0  0
  4 32  1  0  0  0  0
  4 33  1  0  0  0  0
  5  6  1  0  0  0  0
  5  9  2  0  0  0  0
  6 34  1  0  0  0  0
  6  7  2  0  0  0  0
  7 11  1  0  0  0  0
  7  8  1  0  0  0  0
  8 10  1  0  0  0  0
  8  9  1  0  0  0  0
 11 12  2  0  0  0  0
 11 13  1  0  0  0  0
 13 14  1  0  0  0  0
 13 35  1  0  0  0  0
 14 15  1  0  0  0  0
 14 36  1  0  0  0  0
 15 16  2  0  0  0  0
 15 17  1  0  0  0  0
 16 37  1  0  0  0  0
 16 38  1  0  0  0  0
 17 22  2  0  0  0  0
 17 18  1  0  0  0  0
 18 19  2  0  0  0  0
 18 39  1  0  0  0  0
 19 20  1  0  0  0  0
 19 40  1  0  0  0  0
 20 21  2  0  0  0  0
 20 23  1  0  0  0  0
 21 22  1  0  0  0  0
 21 41  1  0  0  0  0
 22 42  1  0  0  0  0
 23 24  1  0  0  0  0
 24 43  1  0  0  0  0
 24 44  1  0  0  0  0
 24 45  1  0  0  0  0
M  END
$$$$
ZINC02956803
  -OEChem-08230709453D

 43 44  0     1  0  0  0  0  0999 V2000
   -0.0022    1.1271   -0.0020 C   0  0  0  0  0  0  0  0  0  0  0  0
   -0.7103    1.6022    1.2406 C   0  0  0  0  0  0  0  0  0  0  0  0
   -0.0425    2.3974    2.1541 C   0  0  0  0  0  0  0  0  0  0  0  0
   -0.6886    2.8343    3.2936 C   0  0  0  0  0  0  0  0  0  0  0  0
   -2.0107    2.4747    3.5216 C   0  0  0  0  0  0  0  0  0  0  0  0
   -2.6785    1.6766    2.6024 C   0  0  0  0  0  0  0  0  0  0  0  0
   -2.0280    1.2468    1.4621 C   0  0  0  0  0  0  0  0  0  0  0  0
   -4.1129    1.2841    2.8458 C   0  0  0  0  0  0  0  0  0  0  0  0
   -2.6681    2.9154    4.6756 N   0  0  0  0  0  0  0  0  0  0  0  0
   -1.9867    3.0461    5.8310 C   0  0  0  0  0  0  0  0  0  0  0  0
   -0.7882    2.8607    5.8526 O   0  0  0  0  0  0  0  0  0  0  0  0
   -2.7138    3.4227    7.0961 C   0  0  0  0  0  0  0  0  0  0  0  0
   -1.7158    3.5037    8.2531 C   0  0  1  0  0  0  0  0  0  0  0  0
   -0.8920    4.1771    8.0166 H   0  0  0  0  0  0  0  0  0  0  0  0
   -2.4032    3.9022    9.5522 C   0  0  0  0  0  0  0  0  0  0  0  0
   -2.3583    3.0460   10.4970 N   0  0  0  0  0  0  0  0  0  0  0  0
   -1.7427    1.8327   10.3990 C   0  0  0  0  0  0  0  0  0  0  0  0
   -1.6449    0.8974   11.3051 N   0  0  0  0  0  0  0  0  0  0  0  0
   -0.9662   -0.2929   11.0128 N   0  0  0  0  0  0  0  0  0  0  0  0
   -0.8626   -1.2846   11.9735 C   0  0  0  0  0  0  0  0  0  0  0  0
   -1.4043   -1.1083   13.1672 C   0  0  0  0  0  0  0  0  0  0  0  0
   -0.1325   -2.5650   11.6590 C   0  0  0  0  0  0  0  0  0  0  0  0
   -1.1022    1.8327    8.7289 S   0  0  0  0  0  0  0  0  0  0  0  0
   -3.0233    5.0910    9.6947 O   0  0  0  0  0  0  0  0  0  0  0  0
    0.4839    0.1725    0.1993 H   0  0  0  0  0  0  0  0  0  0  0  0
    0.7476    1.8616   -0.2961 H   0  0  0  0  0  0  0  0  0  0  0  0
   -0.7257    1.0037   -0.8078 H   0  0  0  0  0  0  0  0  0  0  0  0
    0.9854    2.6767    1.9761 H   0  0  0  0  0  0  0  0  0  0  0  0
   -0.1666    3.4553    4.0066 H   0  0  0  0  0  0  0  0  0  0  0  0
   -2.5480    0.6291    0.7448 H   0  0  0  0  0  0  0  0  0  0  0  0
   -4.7737    2.0298    2.4037 H   0  0  0  0  0  0  0  0  0  0  0  0
   -4.3059    0.3124    2.3911 H   0  0  0  0  0  0  0  0  0  0  0  0
   -4.2967    1.2262    3.9186 H   0  0  0  0  0  0  0  0  0  0  0  0
   -3.6142    3.1268    4.6439 H   0  0  0  0  0  0  0  0  0  0  0  0
   -3.1957    4.3914    6.9636 H   0  0  0  0  0  0  0  0  0  0  0  0
   -3.4686    2.6689    7.3195 H   0  0  0  0  0  0  0  0  0  0  0  0
   -0.5689   -0.4222   10.1374 H   0  0  0  0  0  0  0  0  0  0  0  0
   -1.3235   -1.8818   13.9165 H   0  0  0  0  0  0  0  0  0  0  0  0
   -1.9275   -0.1907   13.3926 H   0  0  0  0  0  0  0  0  0  0  0  0
    0.9021   -2.3393   11.4009 H   0  0  0  0  0  0  0  0  0  0  0  0
   -0.1551   -3.2195   12.5304 H   0  0  0  0  0  0  0  0  0  0  0  0
   -0.6166   -3.0622   10.8185 H   0  0  0  0  0  0  0  0  0  0  0  0
   -3.4366    5.2708   10.5502 H   0  0  0  0  0  0  0  0  0  0  0  0
  1  2  1  0  0  0  0
  1 25  1  0  0  0  0
  1 26  1  0  0  0  0
  1 27  1  0  0  0  0
  2  7  2  0  0  0  0
  2  3  1  0  0  0  0
  3  4  2  0  0  0  0
  3 28  1  0  0  0  0
  4  5  1  0  0  0  0
  4 29  1  0  0  0  0
  5  6  2  0  0  0  0
  5  9  1  0  0  0  0
  6  7  1  0  0  0  0
  6  8  1  0  0  0  0
  7 30  1  0  0  0  0
  8 31  1  0  0  0  0
  8 32  1  0  0  0  0
  8 33  1  0  0  0  0
  9 10  1  0  0  0  0
  9 34  1  0  0  0  0
 10 11  2  0  0  0  0
 10 12  1  0  0  0  0
 12 13  1  0  0  0  0
 12 35  1  0  0  0  0
 12 36  1  0  0  0  0
 13 14  1  0  0  0  0
 13 23  1  0  0  0  0
 13 15  1  0  0  0  0
 15 16  2  0  0  0  0
 15 24  1  0  0  0  0
 16 17  1  0  0  0  0
 17 18  2  0  0  0  0
 17 23  1  0  0  0  0
 18 19  1  0  0  0  0
 19 20  1  0  0  0  0
 19 37  1  0  0  0  0
 20 21  2  0  0  0  0
 20 22  1  0  0  0  0
 21 38  1  0  0  0  0
 21 39  1  0  0  0  0
 22 40  1  0  0  0  0
 22 41  1  0  0  0  0
 22 42  1  0  0  0  0
 24 43  1  0  0  0  0
M  END
$$$$
ZINC02956807
  -OEChem-08230709453D

 43 44  0     1  0  0  0  0  0999 V2000
    9.6538   -1.0528    6.7039 C   0  0  0  0  0  0  0  0  0  0  0  0
    8.2404   -0.6668    7.0565 C   0  0  0  0  0  0  0  0  0  0  0  0
    7.4218   -0.0956    6.0992 C   0  0  0  0  0  0  0  0  0  0  0  0
    6.1263    0.2597    6.4192 C   0  0  0  0  0  0  0  0  0  0  0  0
    5.6456    0.0427    7.7041 C   0  0  0  0  0  0  0  0  0  0  0  0
    6.4717   -0.5258    8.6645 C   0  0  0  0  0  0  0  0  0  0  0  0
    7.7648   -0.8842    8.3364 C   0  0  0  0  0  0  0  0  0  0  0  0
    5.9561   -0.7573   10.0615 C   0  0  0  0  0  0  0  0  0  0  0  0
    4.3333    0.4014    8.0315 N   0  0  0  0  0  0  0  0  0  0  0  0
    3.7050    1.3683    7.3338 C   0  0  0  0  0  0  0  0  0  0  0  0
    4.3081    1.9963    6.4895 O   0  0  0  0  0  0  0  0  0  0  0  0
    2.2531    1.6692    7.6029 C   0  0  0  0  0  0  0  0  0  0  0  0
    1.7875    2.7997    6.6830 C   0  0  2  0  0  0  0  0  0  0  0  0
    2.3849    3.6995    6.8298 H   0  0  0  0  0  0  0  0  0  0  0  0
    0.3022    3.0842    6.8610 C   0  0  0  0  0  0  0  0  0  0  0  0
   -0.4329    2.8994    5.8360 N   0  0  0  0  0  0  0  0  0  0  0  0
    0.0339    2.4612    4.6316 C   0  0  0  0  0  0  0  0  0  0  0  0
   -0.6376    2.2385    3.5339 N   0  0  0  0  0  0  0  0  0  0  0  0
    0.0273    1.7921    2.3844 N   0  0  0  0  0  0  0  0  0  0  0  0
   -0.6847    1.5560    1.2205 C   0  0  0  0  0  0  0  0  0  0  0  0
   -1.9926    1.7519    1.1940 C   0  0  0  0  0  0  0  0  0  0  0  0
    0.0304    1.0758   -0.0160 C   0  0  0  0  0  0  0  0  0  0  0  0
    1.7896    2.2728    4.9173 S   0  0  0  0  0  0  0  0  0  0  0  0
   -0.2057    3.5131    8.0342 O   0  0  0  0  0  0  0  0  0  0  0  0
   10.3194   -0.2118    6.8986 H   0  0  0  0  0  0  0  0  0  0  0  0
    9.9594   -1.9058    7.3098 H   0  0  0  0  0  0  0  0  0  0  0  0
    9.7049   -1.3199    5.6484 H   0  0  0  0  0  0  0  0  0  0  0  0
    7.7964    0.0732    5.1004 H   0  0  0  0  0  0  0  0  0  0  0  0
    5.4878    0.7060    5.6713 H   0  0  0  0  0  0  0  0  0  0  0  0
    8.4065   -1.3301    9.0818 H   0  0  0  0  0  0  0  0  0  0  0  0
    5.5074   -1.7488   10.1235 H   0  0  0  0  0  0  0  0  0  0  0  0
    6.7817   -0.6872   10.7697 H   0  0  0  0  0  0  0  0  0  0  0  0
    5.2063   -0.0035   10.3016 H   0  0  0  0  0  0  0  0  0  0  0  0
    3.8759   -0.0458    8.7607 H   0  0  0  0  0  0  0  0  0  0  0  0
    2.1316    1.9734    8.6425 H   0  0  0  0  0  0  0  0  0  0  0  0
    1.6560    0.7772    7.4132 H   0  0  0  0  0  0  0  0  0  0  0  0
    0.9864    1.6484    2.4038 H   0  0  0  0  0  0  0  0  0  0  0  0
   -2.5479    1.5677    0.2862 H   0  0  0  0  0  0  0  0  0  0  0  0
   -2.5051    2.0960    2.0802 H   0  0  0  0  0  0  0  0  0  0  0  0
    0.0511   -0.0140   -0.0237 H   0  0  0  0  0  0  0  0  0  0  0  0
    1.0510    1.4586   -0.0172 H   0  0  0  0  0  0  0  0  0  0  0  0
   -0.4935    1.4355   -0.9016 H   0  0  0  0  0  0  0  0  0  0  0  0
   -1.1590    3.6718    8.0681 H   0  0  0  0  0  0  0  0  0  0  0  0
  1  2  1  0  0  0  0
  1 25  1  0  0  0  0
  1 26  1  0  0  0  0
  1 27  1  0  0  0  0
  2  7  2  0  0  0  0
  2  3  1  0  0  0  0
  3  4  2  0  0  0  0
  3 28  1  0  0  0  0
  4  5  1  0  0  0  0
  4 29  1  0  0  0  0
  5  6  2  0  0  0  0
  5  9  1  0  0  0  0
  6  7  1  0  0  0  0
  6  8  1  0  0  0  0
  7 30  1  0  0  0  0
  8 31  1  0  0  0  0
  8 32  1  0  0  0  0
  8 33  1  0  0  0  0
  9 10  1  0  0  0  0
  9 34  1  0  0  0  0
 10 11  2  0  0  0  0
 10 12  1  0  0  0  0
 12 13  1  0  0  0  0
 12 35  1  0  0  0  0
 12 36  1  0  0  0  0
 13 14  1  0  0  0  0
 13 23  1  0  0  0  0
 13 15  1  0  0  0  0
 15 16  2  0  0  0  0
 15 24  1  0  0  0  0
 16 17  1  0  0  0  0
 17 18  2  0  0  0  0
 17 23  1  0  0  0  0
 18 19  1  0  0  0  0
 19 20  1  0  0  0  0
 19 37  1  0  0  0  0
 20 21  2  0  0  0  0
 20 22  1  0  0  0  0
 21 38  1  0  0  0  0
 21 39  1  0  0  0  0
 22 40  1  0  0  0  0
 22 41  1  0  0  0  0
 22 42  1  0  0  0  0
 24 43  1  0  0  0  0
M  END
$$$$
ZINC02957102
  -OEChem-08230709453D

 43 44  0     1  0  0  0  0  0999 V2000
   -0.2229    5.4766    1.3147 C   0  0  0  0  0  0  0  0  0  0  0  0
   -0.1234    4.1277    0.6500 C   0  0  0  0  0  0  0  0  0  0  0  0
   -1.2414    3.5622    0.0642 C   0  0  0  0  0  0  0  0  0  0  0  0
   -1.1531    2.3273   -0.5512 C   0  0  0  0  0  0  0  0  0  0  0  0
    0.0503    1.6495   -0.5734 C   0  0  0  0  0  0  0  0  0  0  0  0
    1.1747    2.2148    0.0134 C   0  0  0  0  0  0  0  0  0  0  0  0
    1.0839    3.4579    0.6261 C   0  0  0  0  0  0  0  0  0  0  0  0
    2.3965    1.5333   -0.0122 N   0  0  0  0  0  0  0  0  0  0  0  0
    3.5500    2.2217   -0.1212 C   0  0  0  0  0  0  0  0  0  0  0  0
    3.5353    3.4345   -0.1151 O   0  0  0  0  0  0  0  0  0  0  0  0
    4.8580    1.4847   -0.2508 C   0  0  0  0  0  0  0  0  0  0  0  0
    6.0034    2.4934   -0.3578 C   0  0  1  0  0  0  0  0  0  0  0  0
    5.9890    3.1960    0.4755 H   0  0  0  0  0  0  0  0  0  0  0  0
    7.3511    1.7933   -0.4704 C   0  0  0  0  0  0  0  0  0  0  0  0
    8.0024    1.9987   -1.5481 N   0  0  0  0  0  0  0  0  0  0  0  0
    7.5614    2.7906   -2.5674 C   0  0  0  0  0  0  0  0  0  0  0  0
    8.1533    3.0593   -3.7000 N   0  0  0  0  0  0  0  0  0  0  0  0
    7.5344    3.9039   -4.6308 N   0  0  0  0  0  0  0  0  0  0  0  0
    8.1620    4.1887   -5.8318 C   0  0  0  0  0  0  0  0  0  0  0  0
    9.3458    3.6634   -6.1002 C   0  0  0  0  0  0  0  0  0  0  0  0
    7.4962    5.0973   -6.8329 C   0  0  0  0  0  0  0  0  0  0  0  0
    5.9759    3.3716   -1.9774 S   0  0  0  0  0  0  0  0  0  0  0  0
    7.8274    1.0021    0.5121 O   0  0  0  0  0  0  0  0  0  0  0  0
    0.1443    0.3009   -1.2393 C   0  0  0  0  0  0  0  0  0  0  0  0
   -0.0114    6.2579    0.5846 H   0  0  0  0  0  0  0  0  0  0  0  0
   -1.2289    5.6128    1.7116 H   0  0  0  0  0  0  0  0  0  0  0  0
    0.4998    5.5347    2.1286 H   0  0  0  0  0  0  0  0  0  0  0  0
   -2.1845    4.0881    0.0843 H   0  0  0  0  0  0  0  0  0  0  0  0
   -2.0269    1.8903   -1.0116 H   0  0  0  0  0  0  0  0  0  0  0  0
    1.9567    3.9004    1.0831 H   0  0  0  0  0  0  0  0  0  0  0  0
    2.4133    0.5653    0.0486 H   0  0  0  0  0  0  0  0  0  0  0  0
    5.0089    0.8554    0.6263 H   0  0  0  0  0  0  0  0  0  0  0  0
    4.8373    0.8622   -1.1453 H   0  0  0  0  0  0  0  0  0  0  0  0
    6.6662    4.2892   -4.4339 H   0  0  0  0  0  0  0  0  0  0  0  0
    9.8353    3.8855   -7.0369 H   0  0  0  0  0  0  0  0  0  0  0  0
    9.8229    3.0123   -5.3827 H   0  0  0  0  0  0  0  0  0  0  0  0
    6.5357    5.4299   -6.4393 H   0  0  0  0  0  0  0  0  0  0  0  0
    8.1326    5.9627   -7.0177 H   0  0  0  0  0  0  0  0  0  0  0  0
    7.3388    4.5563   -7.7660 H   0  0  0  0  0  0  0  0  0  0  0  0
    8.6911    0.5926    0.3661 H   0  0  0  0  0  0  0  0  0  0  0  0
   -0.0684   -0.4803   -0.5096 H   0  0  0  0  0  0  0  0  0  0  0  0
   -0.5798    0.2458   -2.0522 H   0  0  0  0  0  0  0  0  0  0  0  0
    1.1493    0.1618   -1.6380 H   0  0  0  0  0  0  0  0  0  0  0  0
  1  2  1  0  0  0  0
  1 25  1  0  0  0  0
  1 26  1  0  0  0  0
  1 27  1  0  0  0  0
  2  7  2  0  0  0  0
  2  3  1  0  0  0  0
  3  4  2  0  0  0  0
  3 28  1  0  0  0  0
  4  5  1  0  0  0  0
  4 29  1  0  0  0  0
  5  6  2  0  0  0  0
  5 24  1  0  0  0  0
  6  7  1  0  0  0  0
  6  8  1  0  0  0  0
  7 30  1  0  0  0  0
  8  9  1  0  0  0  0
  8 31  1  0  0  0  0
  9 10  2  0  0  0  0
  9 11  1  0  0  0  0
 11 12  1  0  0  0  0
 11 32  1  0  0  0  0
 11 33  1  0  0  0  0
 12 13  1  0  0  0  0
 12 22  1  0  0  0  0
 12 14  1  0  0  0  0
 14 15  2  0  0  0  0
 14 23  1  0  0  0  0
 15 16  1  0  0  0  0
 16 17  2  0  0  0  0
 16 22  1  0  0  0  0
 17 18  1  0  0  0  0
 18 19  1  0  0  0  0
 18 34  1  0  0  0  0
 19 20  2  0  0  0  0
 19 21  1  0  0  0  0
 20 35  1  0  0  0  0
 20 36  1  0  0  0  0
 21 37  1  0  0  0  0
 21 38  1  0  0  0  0
 21 39  1  0  0  0  0
 23 40  1  0  0  0  0
 24 41  1  0  0  0  0
 24 42  1  0  0  0  0
 24 43  1  0  0  0  0
M  END
$$$$
ZINC02957106
  -OEChem-08230709453D

 43 44  0     1  0  0  0  0  0999 V2000
    7.9486    0.1519    4.7091 C   0  0  0  0  0  0  0  0  0  0  0  0
    7.4238   -0.0898    6.1009 C   0  0  0  0  0  0  0  0  0  0  0  0
    8.2406   -0.6663    7.0567 C   0  0  0  0  0  0  0  0  0  0  0  0
    7.7630   -0.8892    8.3349 C   0  0  0  0  0  0  0  0  0  0  0  0
    6.4681   -0.5362    8.6613 C   0  0  0  0  0  0  0  0  0  0  0  0
    5.6456    0.0427    7.7041 C   0  0  0  0  0  0  0  0  0  0  0  0
    6.1263    0.2597    6.4192 C   0  0  0  0  0  0  0  0  0  0  0  0
    4.3333    0.4014    8.0315 N   0  0  0  0  0  0  0  0  0  0  0  0
    3.7050    1.3683    7.3338 C   0  0  0  0  0  0  0  0  0  0  0  0
    4.3081    1.9962    6.4894 O   0  0  0  0  0  0  0  0  0  0  0  0
    2.2530    1.6692    7.6029 C   0  0  0  0  0  0  0  0  0  0  0  0
    1.7875    2.7997    6.6830 C   0  0  2  0  0  0  0  0  0  0  0  0
    2.3849    3.6995    6.8298 H   0  0  0  0  0  0  0  0  0  0  0  0
    0.3022    3.0842    6.8610 C   0  0  0  0  0  0  0  0  0  0  0  0
   -0.4329    2.8994    5.8360 N   0  0  0  0  0  0  0  0  0  0  0  0
    0.0339    2.4612    4.6315 C   0  0  0  0  0  0  0  0  0  0  0  0
   -0.6376    2.2385    3.5339 N   0  0  0  0  0  0  0  0  0  0  0  0
    0.0273    1.7920    2.3843 N   0  0  0  0  0  0  0  0  0  0  0  0
   -0.6847    1.5559    1.2205 C   0  0  0  0  0  0  0  0  0  0  0  0
   -1.9926    1.7518    1.1940 C   0  0  0  0  0  0  0  0  0  0  0  0
    0.0304    1.0757   -0.0161 C   0  0  0  0  0  0  0  0  0  0  0  0
    1.7895    2.2728    4.9173 S   0  0  0  0  0  0  0  0  0  0  0  0
   -0.2057    3.5131    8.0341 O   0  0  0  0  0  0  0  0  0  0  0  0
    5.9484   -0.7796   10.0548 C   0  0  0  0  0  0  0  0  0  0  0  0
    7.7500   -0.7223    4.0890 H   0  0  0  0  0  0  0  0  0  0  0  0
    7.4524    1.0222    4.2797 H   0  0  0  0  0  0  0  0  0  0  0  0
    9.0230    0.3305    4.7518 H   0  0  0  0  0  0  0  0  0  0  0  0
    9.2536   -0.9425    6.8041 H   0  0  0  0  0  0  0  0  0  0  0  0
    8.4033   -1.3395    9.0790 H   0  0  0  0  0  0  0  0  0  0  0  0
    5.4876    0.7057    5.6712 H   0  0  0  0  0  0  0  0  0  0  0  0
    3.8759   -0.0458    8.7607 H   0  0  0  0  0  0  0  0  0  0  0  0
    2.1316    1.9734    8.6425 H   0  0  0  0  0  0  0  0  0  0  0  0
    1.6560    0.7772    7.4132 H   0  0  0  0  0  0  0  0  0  0  0  0
    0.9864    1.6484    2.4038 H   0  0  0  0  0  0  0  0  0  0  0  0
   -2.5480    1.5676    0.2862 H   0  0  0  0  0  0  0  0  0  0  0  0
   -2.5051    2.0959    2.0802 H   0  0  0  0  0  0  0  0  0  0  0  0
    0.0511   -0.0141   -0.0237 H   0  0  0  0  0  0  0  0  0  0  0  0
    1.0510    1.4585   -0.0172 H   0  0  0  0  0  0  0  0  0  0  0  0
   -0.4935    1.4354   -0.9016 H   0  0  0  0  0  0  0  0  0  0  0  0
   -1.1590    3.6718    8.0680 H   0  0  0  0  0  0  0  0  0  0  0  0
    5.4976   -1.7707   10.1065 H   0  0  0  0  0  0  0  0  0  0  0  0
    6.7722   -0.7176   10.7658 H   0  0  0  0  0  0  0  0  0  0  0  0
    5.1994   -0.0266   10.2999 H   0  0  0  0  0  0  0  0  0  0  0  0
  1  2  1  0  0  0  0
  1 25  1  0  0  0  0
  1 26  1  0  0  0  0
  1 27  1  0  0  0  0
  2  7  2  0  0  0  0
  2  3  1  0  0  0  0
  3  4  2  0  0  0  0
  3 28  1  0  0  0  0
  4  5  1  0  0  0  0
  4 29  1  0  0  0  0
  5  6  2  0  0  0  0
  5 24  1  0  0  0  0
  6  7  1  0  0  0  0
  6  8  1  0  0  0  0
  7 30  1  0  0  0  0
  8  9  1  0  0  0  0
  8 31  1  0  0  0  0
  9 10  2  0  0  0  0
  9 11  1  0  0  0  0
 11 12  1  0  0  0  0
 11 32  1  0  0  0  0
 11 33  1  0  0  0  0
 12 13  1  0  0  0  0
 12 22  1  0  0  0  0
 12 14  1  0  0  0  0
 14 15  2  0  0  0  0
 14 23  1  0  0  0  0
 15 16  1  0  0  0  0
 16 17  2  0  0  0  0
 16 22  1  0  0  0  0
 17 18  1  0  0  0  0
 18 19  1  0  0  0  0
 18 34  1  0  0  0  0
 19 20  2  0  0  0  0
 19 21  1  0  0  0  0
 20 35  1  0  0  0  0
 20 36  1  0  0  0  0
 21 37  1  0  0  0  0
 21 38  1  0  0  0  0
 21 39  1  0  0  0  0
 23 40  1  0  0  0  0
 24 41  1  0  0  0  0
 24 42  1  0  0  0  0
 24 43  1  0  0  0  0
M  END
$$$$
ZINC02957299
  -OEChem-08230709453D

 43 44  0     1  0  0  0  0  0999 V2000
    0.0051    1.5030    0.0080 C   0  0  0  0  0  0  0  0  0  0  0  0
    0.0192   -0.0039    0.0000 C   0  0  0  0  0  0  0  0  0  0  0  0
    0.7795   -0.6917    0.9282 C   0  0  0  0  0  0  0  0  0  0  0  0
    0.7939   -2.0726    0.9241 C   0  0  0  0  0  0  0  0  0  0  0  0
    0.0440   -2.7706   -0.0137 C   0  0  0  0  0  0  0  0  0  0  0  0
   -0.7180   -2.0770   -0.9445 C   0  0  0  0  0  0  0  0  0  0  0  0
   -0.7325   -0.6958   -0.9315 C   0  0  0  0  0  0  0  0  0  0  0  0
   -1.5641    0.0577   -1.9373 C   0  0  0  0  0  0  0  0  0  0  0  0
    0.0567   -4.1698   -0.0209 N   0  0  0  0  0  0  0  0  0  0  0  0
    0.1787   -4.8485    1.1371 C   0  0  0  0  0  0  0  0  0  0  0  0
    0.1811   -4.2512    2.1927 O   0  0  0  0  0  0  0  0  0  0  0  0
    0.3120   -6.3495    1.1203 C   0  0  0  0  0  0  0  0  0  0  0  0
    0.4342   -6.8667    2.5551 C   0  0  1  0  0  0  0  0  0  0  0  0
   -0.3941   -6.5177    3.1717 H   0  0  0  0  0  0  0  0  0  0  0  0
    0.5511   -8.3846    2.5899 C   0  0  0  0  0  0  0  0  0  0  0  0
    1.6347   -8.8536    3.0734 N   0  0  0  0  0  0  0  0  0  0  0  0
    2.6566   -8.0829    3.5450 C   0  0  0  0  0  0  0  0  0  0  0  0
    3.7952   -8.4691    4.0547 N   0  0  0  0  0  0  0  0  0  0  0  0
    4.7276   -7.5173    4.4876 N   0  0  0  0  0  0  0  0  0  0  0  0
    5.9349   -7.9268    5.0280 C   0  0  0  0  0  0  0  0  0  0  0  0
    6.2078   -9.2166    5.1355 C   0  0  0  0  0  0  0  0  0  0  0  0
    6.9379   -6.9030    5.4937 C   0  0  0  0  0  0  0  0  0  0  0  0
    2.0598   -6.4152    3.2958 S   0  0  0  0  0  0  0  0  0  0  0  0
   -0.4337   -9.1858    2.1355 O   0  0  0  0  0  0  0  0  0  0  0  0
    0.8005    1.8773   -0.6364 H   0  0  0  0  0  0  0  0  0  0  0  0
   -0.9575    1.8593   -0.3587 H   0  0  0  0  0  0  0  0  0  0  0  0
    0.1620    1.8625    1.0250 H   0  0  0  0  0  0  0  0  0  0  0  0
    1.3624   -0.1484    1.6572 H   0  0  0  0  0  0  0  0  0  0  0  0
    1.3873   -2.6092    1.6496 H   0  0  0  0  0  0  0  0  0  0  0  0
   -1.3022   -2.6169   -1.6750 H   0  0  0  0  0  0  0  0  0  0  0  0
   -0.9687    0.2499   -2.8299 H   0  0  0  0  0  0  0  0  0  0  0  0
   -2.4379   -0.5366   -2.2045 H   0  0  0  0  0  0  0  0  0  0  0  0
   -1.8871    1.0048   -1.5051 H   0  0  0  0  0  0  0  0  0  0  0  0
   -0.0222   -4.6512   -0.8592 H   0  0  0  0  0  0  0  0  0  0  0  0
   -0.5685   -6.7872    0.6500 H   0  0  0  0  0  0  0  0  0  0  0  0
    1.2019   -6.6289    0.5564 H   0  0  0  0  0  0  0  0  0  0  0  0
    4.5275   -6.5714    4.4087 H   0  0  0  0  0  0  0  0  0  0  0  0
    7.1495   -9.5360    5.5571 H   0  0  0  0  0  0  0  0  0  0  0  0
    5.4890   -9.9503    4.8018 H   0  0  0  0  0  0  0  0  0  0  0  0
    6.7567   -6.6676    6.5424 H   0  0  0  0  0  0  0  0  0  0  0  0
    7.9453   -7.3035    5.3801 H   0  0  0  0  0  0  0  0  0  0  0  0
    6.8373   -5.9975    4.8954 H   0  0  0  0  0  0  0  0  0  0  0  0
   -0.2846  -10.1396    2.1915 H   0  0  0  0  0  0  0  0  0  0  0  0
  1  2  1  0  0  0  0
  1 25  1  0  0  0  0
  1 26  1  0  0  0  0
  1 27  1  0  0  0  0
  2  7  2  0  0  0  0
  2  3  1  0  0  0  0
  3  4  2  0  0  0  0
  3 28  1  0  0  0  0
  4  5  1  0  0  0  0
  4 29  1  0  0  0  0
  5  6  2  0  0  0  0
  5  9  1  0  0  0  0
  6  7  1  0  0  0  0
  6 30  1  0  0  0  0
  7  8  1  0  0  0  0
  8 31  1  0  0  0  0
  8 32  1  0  0  0  0
  8 33  1  0  0  0  0
  9 10  1  0  0  0  0
  9 34  1  0  0  0  0
 10 11  2  0  0  0  0
 10 12  1  0  0  0  0
 12 13  1  0  0  0  0
 12 35  1  0  0  0  0
 12 36  1  0  0  0  0
 13 14  1  0  0  0  0
 13 23  1  0  0  0  0
 13 15  1  0  0  0  0
 15 16  2  0  0  0  0
 15 24  1  0  0  0  0
 16 17  1  0  0  0  0
 17 18  2  0  0  0  0
 17 23  1  0  0  0  0
 18 19  1  0  0  0  0
 19 20  1  0  0  0  0
 19 37  1  0  0  0  0
 20 21  2  0  0  0  0
 20 22  1  0  0  0  0
 21 38  1  0  0  0  0
 21 39  1  0  0  0  0
 22 40  1  0  0  0  0
 22 41  1  0  0  0  0
 22 42  1  0  0  0  0
 24 43  1  0  0  0  0
M  END
$$$$
ZINC02957303
  -OEChem-08230709453D

 43 44  0     1  0  0  0  0  0999 V2000
   -2.5556    3.8632    0.0175 C   0  0  0  0  0  0  0  0  0  0  0  0
   -1.2383    3.1312    0.0082 C   0  0  0  0  0  0  0  0  0  0  0  0
   -0.1304    3.6968    0.6127 C   0  0  0  0  0  0  0  0  0  0  0  0
    1.0791    3.0306    0.6021 C   0  0  0  0  0  0  0  0  0  0  0  0
    1.1799    1.7868   -0.0075 C   0  0  0  0  0  0  0  0  0  0  0  0
    0.0645    1.2195   -0.6093 C   0  0  0  0  0  0  0  0  0  0  0  0
   -1.1413    1.8934   -0.5999 C   0  0  0  0  0  0  0  0  0  0  0  0
   -2.3523    1.2785   -1.2528 C   0  0  0  0  0  0  0  0  0  0  0  0
    2.4026    1.1065   -0.0149 N   0  0  0  0  0  0  0  0  0  0  0  0
    2.4265   -0.2377    0.0794 C   0  0  0  0  0  0  0  0  0  0  0  0
    1.3877   -0.8637    0.0861 O   0  0  0  0  0  0  0  0  0  0  0  0
    3.7440   -0.9630    0.1765 C   0  0  0  0  0  0  0  0  0  0  0  0
    3.4913   -2.4689    0.2722 C   0  0  2  0  0  0  0  0  0  0  0  0
    2.8710   -2.7104    1.1354 H   0  0  0  0  0  0  0  0  0  0  0  0
    4.7978   -3.2510    0.2899 C   0  0  0  0  0  0  0  0  0  0  0  0
    4.9860   -4.0540   -0.6822 N   0  0  0  0  0  0  0  0  0  0  0  0
    4.0996   -4.2376   -1.7025 C   0  0  0  0  0  0  0  0  0  0  0  0
    4.2034   -5.0318   -2.7339 N   0  0  0  0  0  0  0  0  0  0  0  0
    3.1765   -5.0820   -3.6856 N   0  0  0  0  0  0  0  0  0  0  0  0
    3.2866   -5.9242   -4.7792 C   0  0  0  0  0  0  0  0  0  0  0  0
    4.3613   -6.6812   -4.9254 C   0  0  0  0  0  0  0  0  0  0  0  0
    2.1820   -5.9781   -5.8029 C   0  0  0  0  0  0  0  0  0  0  0  0
    2.7603   -3.1278   -1.2856 S   0  0  0  0  0  0  0  0  0  0  0  0
    5.7037   -3.1030    1.2776 O   0  0  0  0  0  0  0  0  0  0  0  0
   -3.1200    3.5843    0.9072 H   0  0  0  0  0  0  0  0  0  0  0  0
   -2.3740    4.9380    0.0245 H   0  0  0  0  0  0  0  0  0  0  0  0
   -3.1255    3.5968   -0.8727 H   0  0  0  0  0  0  0  0  0  0  0  0
   -0.2104    4.6621    1.0905 H   0  0  0  0  0  0  0  0  0  0  0  0
    1.9448    3.4744    1.0714 H   0  0  0  0  0  0  0  0  0  0  0  0
    0.1397    0.2526   -1.0845 H   0  0  0  0  0  0  0  0  0  0  0  0
   -2.8917    0.6751   -0.5226 H   0  0  0  0  0  0  0  0  0  0  0  0
   -3.0050    2.0683   -1.6247 H   0  0  0  0  0  0  0  0  0  0  0  0
   -2.0362    0.6472   -2.0833 H   0  0  0  0  0  0  0  0  0  0  0  0
    3.2331    1.6024   -0.0879 H   0  0  0  0  0  0  0  0  0  0  0  0
    4.3418   -0.7505   -0.7098 H   0  0  0  0  0  0  0  0  0  0  0  0
    4.2790   -0.6271    1.0648 H   0  0  0  0  0  0  0  0  0  0  0  0
    2.3884   -4.5268   -3.5784 H   0  0  0  0  0  0  0  0  0  0  0  0
    4.4472   -7.3381   -5.7784 H   0  0  0  0  0  0  0  0  0  0  0  0
    5.1530   -6.6425   -4.1918 H   0  0  0  0  0  0  0  0  0  0  0  0
    2.3723   -5.2401   -6.5821 H   0  0  0  0  0  0  0  0  0  0  0  0
    2.1457   -6.9733   -6.2461 H   0  0  0  0  0  0  0  0  0  0  0  0
    1.2290   -5.7601   -5.3209 H   0  0  0  0  0  0  0  0  0  0  0  0
    6.5090   -3.6349    1.2180 H   0  0  0  0  0  0  0  0  0  0  0  0
  1  2  1  0  0  0  0
  1 25  1  0  0  0  0
  1 26  1  0  0  0  0
  1 27  1  0  0  0  0
  2  7  2  0  0  0  0
  2  3  1  0  0  0  0
  3  4  2  0  0  0  0
  3 28  1  0  0  0  0
  4  5  1  0  0  0  0
  4 29  1  0  0  0  0
  5  6  2  0  0  0  0
  5  9  1  0  0  0  0
  6  7  1  0  0  0  0
  6 30  1  0  0  0  0
  7  8  1  0  0  0  0
  8 31  1  0  0  0  0
  8 32  1  0  0  0  0
  8 33  1  0  0  0  0
  9 10  1  0  0  0  0
  9 34  1  0  0  0  0
 10 11  2  0  0  0  0
 10 12  1  0  0  0  0
 12 13  1  0  0  0  0
 12 35  1  0  0  0  0
 12 36  1  0  0  0  0
 13 14  1  0  0  0  0
 13 23  1  0  0  0  0
 13 15  1  0  0  0  0
 15 16  2  0  0  0  0
 15 24  1  0  0  0  0
 16 17  1  0  0  0  0
 17 18  2  0  0  0  0
 17 23  1  0  0  0  0
 18 19  1  0  0  0  0
 19 20  1  0  0  0  0
 19 37  1  0  0  0  0
 20 21  2  0  0  0  0
 20 22  1  0  0  0  0
 21 38  1  0  0  0  0
 21 39  1  0  0  0  0
 22 40  1  0  0  0  0
 22 41  1  0  0  0  0
 22 42  1  0  0  0  0
 24 43  1  0  0  0  0
M  END
$$$$
ZINC03018547
  -OEChem-08230709453D

 42 44  0     0  0  0  0  0  0999 V2000
   -2.1231    4.7883    2.5402 C   0  0  0  0  0  0  0  0  0  0  0  0
   -2.7240    5.2580    1.2404 C   0  0  0  0  0  0  0  0  0  0  0  0
   -3.8150    6.1072    1.2502 C   0  0  0  0  0  0  0  0  0  0  0  0
   -4.3658    6.5383    0.0581 C   0  0  0  0  0  0  0  0  0  0  0  0
   -3.8258    6.1204   -1.1441 C   0  0  0  0  0  0  0  0  0  0  0  0
   -2.7319    5.2757   -1.1538 C   0  0  0  0  0  0  0  0  0  0  0  0
   -2.1841    4.8402    0.0386 C   0  0  0  0  0  0  0  0  0  0  0  0
   -0.9947    3.9150    0.0280 C   0  0  0  0  0  0  0  0  0  0  0  0
   -1.5662    2.1976    0.0214 S   0  0  0  0  0  0  0  0  0  0  0  0
   -0.0164    1.3594    0.0095 C   0  0  0  0  0  0  0  0  0  0  0  0
    1.0960    2.0656    0.0027 N   0  0  0  0  0  0  0  0  0  0  0  0
    2.2843    1.4847   -0.0118 C   0  0  0  0  0  0  0  0  0  0  0  0
    2.4300    0.0761   -0.0213 C   0  0  0  0  0  0  0  0  0  0  0  0
    3.7430   -0.3980   -0.0364 C   0  0  0  0  0  0  0  0  0  0  0  0
    4.7846    0.4846   -0.0411 C   0  0  0  0  0  0  0  0  0  0  0  0
    3.9611    2.0679   -0.0243 S   0  0  0  0  0  0  0  0  0  0  0  0
    6.2194    0.2026   -0.0559 C   0  0  0  0  0  0  0  0  0  0  0  0
    6.6130   -0.9485   -0.0658 O   0  0  0  0  0  0  0  0  0  0  0  0
    7.1068    1.2191   -0.0585 O   0  0  0  0  0  0  0  0  0  0  0  0
    8.4926    0.8705   -0.0731 C   0  0  0  0  0  0  0  0  0  0  0  0
    4.0101   -1.8811   -0.0469 C   0  0  0  0  0  0  0  0  0  0  0  0
    1.1628   -0.6875   -0.0132 C   0  0  0  0  0  0  0  0  0  0  0  0
    1.1689   -1.9056   -0.0206 O   0  0  0  0  0  0  0  0  0  0  0  0
    0.0021   -0.0041    0.0020 N   0  0  0  0  0  0  0  0  0  0  0  0
   -1.1792   -0.6901    0.0097 N   0  0  0  0  0  0  0  0  0  0  0  0
   -1.3472    5.4862    2.8550 H   0  0  0  0  0  0  0  0  0  0  0  0
   -2.8999    4.7403    3.3032 H   0  0  0  0  0  0  0  0  0  0  0  0
   -1.6874    3.7987    2.4024 H   0  0  0  0  0  0  0  0  0  0  0  0
   -4.2366    6.4339    2.1893 H   0  0  0  0  0  0  0  0  0  0  0  0
   -5.2178    7.2019    0.0657 H   0  0  0  0  0  0  0  0  0  0  0  0
   -4.2560    6.4576   -2.0756 H   0  0  0  0  0  0  0  0  0  0  0  0
   -2.3073    4.9527   -2.0929 H   0  0  0  0  0  0  0  0  0  0  0  0
   -0.3882    4.0926    0.9161 H   0  0  0  0  0  0  0  0  0  0  0  0
   -0.3966    4.1023   -0.8638 H   0  0  0  0  0  0  0  0  0  0  0  0
    9.0956    1.7785   -0.0737 H   0  0  0  0  0  0  0  0  0  0  0  0
    8.7277    0.2787    0.8115 H   0  0  0  0  0  0  0  0  0  0  0  0
    8.7114    0.2884   -0.9684 H   0  0  0  0  0  0  0  0  0  0  0  0
    4.0647   -2.2331   -1.0770 H   0  0  0  0  0  0  0  0  0  0  0  0
    4.9553   -2.0836    0.4568 H   0  0  0  0  0  0  0  0  0  0  0  0
    3.2036   -2.3992    0.4719 H   0  0  0  0  0  0  0  0  0  0  0  0
   -1.9648   -0.0571    0.0206 H   0  0  0  0  0  0  0  0  0  0  0  0
   -1.2351   -1.3224   -0.7746 H   0  0  0  0  0  0  0  0  0  0  0  0
  1  2  1  0  0  0  0
  1 26  1  0  0  0  0
  1 27  1  0  0  0  0
  1 28  1  0  0  0  0
  2  7  2  0  0  0  0
  2  3  1  0  0  0  0
  3  4  2  0  0  0  0
  3 29  1  0  0  0  0
  4  5  1  0  0  0  0
  4 30  1  0  0  0  0
  5  6  2  0  0  0  0
  5 31  1  0  0  0  0
  6  7  1  0  0  0  0
  6 32  1  0  0  0  0
  7  8  1  0  0  0  0
  8  9  1  0  0  0  0
  8 33  1  0  0  0  0
  8 34  1  0  0  0  0
  9 10  1  0  0  0  0
 10 24  1  0  0  0  0
 10 11  2  0  0  0  0
 11 12  1  0  0  0  0
 12 16  1  0  0  0  0
 12 13  2  0  0  0  0
 13 14  1  0  0  0  0
 13 22  1  0  0  0  0
 14 15  2  0  0  0  0
 14 21  1  0  0  0  0
 15 16  1  0  0  0  0
 15 17  1  0  0  0  0
 17 18  2  0  0  0  0
 17 19  1  0  0  0  0
 19 20  1  0  0  0  0
 20 35  1  0  0  0  0
 20 36  1  0  0  0  0
 20 37  1  0  0  0  0
 21 38  1  0  0  0  0
 21 39  1  0  0  0  0
 21 40  1  0  0  0  0
 22 23  2  0  0  0  0
 22 24  1  0  0  0  0
 24 25  1  0  0  0  0
 25 41  1  0  0  0  0
 25 42  1  0  0  0  0
M  END
$$$$
ZINC03069113
  -OEChem-08230709453D

 41 43  0     0  0  0  0  0  0999 V2000
   -3.6273    9.5211   -6.9930 C   0  0  0  0  0  0  0  0  0  0  0  0
   -3.6586   10.5762   -6.0298 O   0  0  0  0  0  0  0  0  0  0  0  0
   -3.3304   10.2538   -4.7500 C   0  0  0  0  0  0  0  0  0  0  0  0
   -2.9873    8.9547   -4.4319 C   0  0  0  0  0  0  0  0  0  0  0  0
   -2.6499    8.6266   -3.1131 C   0  0  0  0  0  0  0  0  0  0  0  0
   -2.6676    9.6169   -2.1236 C   0  0  0  0  0  0  0  0  0  0  0  0
   -3.0061   10.9112   -2.4514 C   0  0  0  0  0  0  0  0  0  0  0  0
   -3.3400   11.2354   -3.7597 C   0  0  0  0  0  0  0  0  0  0  0  0
   -3.6775   12.5126   -4.0756 O   0  0  0  0  0  0  0  0  0  0  0  0
   -2.2845    7.2466   -2.7678 C   0  0  0  0  0  0  0  0  0  0  0  0
   -1.9697    6.9423   -1.5353 N   0  0  0  0  0  0  0  0  0  0  0  0
   -1.6337    5.6736   -1.2179 C   0  0  0  0  0  0  0  0  0  0  0  0
   -1.2682    5.1413    0.0239 C   0  0  0  0  0  0  0  0  0  0  0  0
   -0.9590    3.7715    0.1032 C   0  0  0  0  0  0  0  0  0  0  0  0
   -1.0383    3.0571   -1.0463 C   0  0  0  0  0  0  0  0  0  0  0  0
   -1.5394    4.2356   -2.2724 S   0  0  0  0  0  0  0  0  0  0  0  0
   -0.7620    1.5978   -1.2308 C   0  0  0  0  0  0  0  0  0  0  0  0
   -0.0127    1.0858    0.0080 C   0  0  0  0  0  0  0  0  0  0  0  0
   -0.7361    1.5830    1.2629 C   0  0  0  0  0  0  0  0  0  0  0  0
   -0.5507    3.0926    1.4085 C   0  0  0  0  0  0  0  0  0  0  0  0
   -1.2084    5.9934    1.2164 C   0  0  0  0  0  0  0  0  0  0  0  0
   -0.1726    6.5632    1.5058 O   0  0  0  0  0  0  0  0  0  0  0  0
   -2.3004    6.1454    1.9915 N   0  0  0  0  0  0  0  0  0  0  0  0
   -2.6207    9.1059   -7.0445 H   0  0  0  0  0  0  0  0  0  0  0  0
   -4.3280    8.7397   -6.6989 H   0  0  0  0  0  0  0  0  0  0  0  0
   -3.9092    9.9128   -7.9703 H   0  0  0  0  0  0  0  0  0  0  0  0
   -2.9788    8.1938   -5.1982 H   0  0  0  0  0  0  0  0  0  0  0  0
   -2.4120    9.3669   -1.1045 H   0  0  0  0  0  0  0  0  0  0  0  0
   -3.0158   11.6751   -1.6880 H   0  0  0  0  0  0  0  0  0  0  0  0
   -4.6226   12.7010   -3.9955 H   0  0  0  0  0  0  0  0  0  0  0  0
   -2.2757    6.4831   -3.5316 H   0  0  0  0  0  0  0  0  0  0  0  0
   -0.1472    1.4500   -2.1187 H   0  0  0  0  0  0  0  0  0  0  0  0
   -1.7021    1.0572   -1.3406 H   0  0  0  0  0  0  0  0  0  0  0  0
    0.0021   -0.0041    0.0020 H   0  0  0  0  0  0  0  0  0  0  0  0
    1.0090    1.4655    0.0003 H   0  0  0  0  0  0  0  0  0  0  0  0
   -1.7996    1.3583    1.1807 H   0  0  0  0  0  0  0  0  0  0  0  0
   -0.3279    1.0798    2.1394 H   0  0  0  0  0  0  0  0  0  0  0  0
    0.4961    3.3097    1.6210 H   0  0  0  0  0  0  0  0  0  0  0  0
   -1.1731    3.4632    2.2230 H   0  0  0  0  0  0  0  0  0  0  0  0
   -3.1259    5.6913    1.7608 H   0  0  0  0  0  0  0  0  0  0  0  0
   -2.2609    6.7089    2.7800 H   0  0  0  0  0  0  0  0  0  0  0  0
  1  2  1  0  0  0  0
  1 24  1  0  0  0  0
  1 25  1  0  0  0  0
  1 26  1  0  0  0  0
  2  3  1  0  0  0  0
  3  8  2  0  0  0  0
  3  4  1  0  0  0  0
  4  5  2  0  0  0  0
  4 27  1  0  0  0  0
  5  6  1  0  0  0  0
  5 10  1  0  0  0  0
  6  7  2  0  0  0  0
  6 28  1  0  0  0  0
  7  8  1  0  0  0  0
  7 29  1  0  0  0  0
  8  9  1  0  0  0  0
  9 30  1  0  0  0  0
 10 11  2  0  0  0  0
 10 31  1  0  0  0  0
 11 12  1  0  0  0  0
 12 16  1  0  0  0  0
 12 13  2  0  0  0  0
 13 14  1  0  0  0  0
 13 21  1  0  0  0  0
 14 20  1  0  0  0  0
 14 15  2  0  0  0  0
 15 16  1  0  0  0  0
 15 17  1  0  0  0  0
 17 18  1  0  0  0  0
 17 32  1  0  0  0  0
 17 33  1  0  0  0  0
 18 19  1  0  0  0  0
 18 34  1  0  0  0  0
 18 35  1  0  0  0  0
 19 20  1  0  0  0  0
 19 36  1  0  0  0  0
 19 37  1  0  0  0  0
 20 38  1  0  0  0  0
 20 39  1  0  0  0  0
 21 22  2  0  0  0  0
 21 23  1  0  0  0  0
 23 40  1  0  0  0  0
 23 41  1  0  0  0  0
M  END
$$$$
ZINC03088903
  -OEChem-08230709453D

 38 39  0     0  0  0  0  0  0999 V2000
    0.0170   -0.1935    4.9066 C   0  0  0  0  0  0  0  0  0  0  0  0
   -0.7316    1.1120    4.8269 C   0  0  0  0  0  0  0  0  0  0  0  0
   -1.3169    1.6437    5.9595 C   0  0  0  0  0  0  0  0  0  0  0  0
   -2.0030    2.8419    5.8873 C   0  0  0  0  0  0  0  0  0  0  0  0
   -2.1058    3.5118    4.6818 C   0  0  0  0  0  0  0  0  0  0  0  0
   -1.5188    2.9880    3.5469 C   0  0  0  0  0  0  0  0  0  0  0  0
   -0.8333    1.7819    3.6149 C   0  0  0  0  0  0  0  0  0  0  0  0
   -0.2416    1.2460    2.4658 N   0  0  0  0  0  0  0  0  0  0  0  0
   -0.7160    1.5744    1.2478 C   0  0  0  0  0  0  0  0  0  0  0  0
   -1.7162    2.2533    1.1494 O   0  0  0  0  0  0  0  0  0  0  0  0
   -0.0037    1.0980    0.0081 C   0  0  0  0  0  0  0  0  0  0  0  0
   -0.8779    1.6989   -1.4585 S   0  0  0  0  0  0  0  0  0  0  0  0
    0.1406    1.0150   -2.7233 C   0  0  0  0  0  0  0  0  0  0  0  0
   -0.1643    1.2291   -4.0837 C   0  0  0  0  0  0  0  0  0  0  0  0
    0.6870    0.6576   -5.0517 C   0  0  0  0  0  0  0  0  0  0  0  0
    1.7341   -0.0542   -4.6458 N   0  0  0  0  0  0  0  0  0  0  0  0
    1.9820   -0.2294   -3.3559 C   0  0  0  0  0  0  0  0  0  0  0  0
    1.2124    0.2931   -2.4116 N   0  0  0  0  0  0  0  0  0  0  0  0
    3.0814   -0.9765   -2.9831 N   0  0  0  0  0  0  0  0  0  0  0  0
    0.3689    0.8835   -6.7699 S   0  0  0  0  0  0  0  0  0  0  0  0
    1.7519   -0.0502   -7.4710 C   0  0  0  0  0  0  0  0  0  0  0  0
   -1.3044    2.0045   -4.4704 C   0  0  0  0  0  0  0  0  0  0  0  0
   -2.2089    2.6196   -4.7771 N   0  0  0  0  0  0  0  0  0  0  0  0
    1.0648    0.0018    5.1350 H   0  0  0  0  0  0  0  0  0  0  0  0
   -0.4164   -0.8135    5.6914 H   0  0  0  0  0  0  0  0  0  0  0  0
   -0.0559   -0.7131    3.9512 H   0  0  0  0  0  0  0  0  0  0  0  0
   -1.2381    1.1231    6.9025 H   0  0  0  0  0  0  0  0  0  0  0  0
   -2.4595    3.2557    6.7744 H   0  0  0  0  0  0  0  0  0  0  0  0
   -2.6418    4.4479    4.6288 H   0  0  0  0  0  0  0  0  0  0  0  0
   -1.5956    3.5138    2.6066 H   0  0  0  0  0  0  0  0  0  0  0  0
    0.5101    0.6381    2.5458 H   0  0  0  0  0  0  0  0  0  0  0  0
    0.0175    0.0083   -0.0026 H   0  0  0  0  0  0  0  0  0  0  0  0
    1.0166    1.4814    0.0054 H   0  0  0  0  0  0  0  0  0  0  0  0
    3.6575   -1.3631   -3.6609 H   0  0  0  0  0  0  0  0  0  0  0  0
    3.2778   -1.1148   -2.0433 H   0  0  0  0  0  0  0  0  0  0  0  0
    1.7027   -0.0104   -8.5592 H   0  0  0  0  0  0  0  0  0  0  0  0
    2.6925    0.3854   -7.1337 H   0  0  0  0  0  0  0  0  0  0  0  0
    1.6936   -1.0878   -7.1424 H   0  0  0  0  0  0  0  0  0  0  0  0
  1  2  1  0  0  0  0
  1 24  1  0  0  0  0
  1 25  1  0  0  0  0
  1 26  1  0  0  0  0
  2  7  2  0  0  0  0
  2  3  1  0  0  0  0
  3  4  2  0  0  0  0
  3 27  1  0  0  0  0
  4  5  1  0  0  0  0
  4 28  1  0  0  0  0
  5  6  2  0  0  0  0
  5 29  1  0  0  0  0
  6  7  1  0  0  0  0
  6 30  1  0  0  0  0
  7  8  1  0  0  0  0
  8  9  1  0  0  0  0
  8 31  1  0  0  0  0
  9 10  2  0  0  0  0
  9 11  1  0  0  0  0
 11 12  1  0  0  0  0
 11 32  1  0  0  0  0
 11 33  1  0  0  0  0
 12 13  1  0  0  0  0
 13 18  2  0  0  0  0
 13 14  1  0  0  0  0
 14 15  2  0  0  0  0
 14 22  1  0  0  0  0
 15 16  1  0  0  0  0
 15 20  1  0  0  0  0
 16 17  2  0  0  0  0
 17 18  1  0  0  0  0
 17 19  1  0  0  0  0
 19 34  1  0  0  0  0
 19 35  1  0  0  0  0
 20 21  1  0  0  0  0
 21 36  1  0  0  0  0
 21 37  1  0  0  0  0
 21 38  1  0  0  0  0
 22 23  3  0  0  0  0
M  END
$$$$
ZINC03115466
  -OEChem-08230709453D

 40 41  0     0  0  0  0  0  0999 V2000
    1.6781    9.5201    3.0041 C   0  0  0  0  0  0  0  0  0  0  0  0
    0.7280   10.3502    2.1800 C   0  0  0  0  0  0  0  0  0  0  0  0
   -0.1825    9.7268    1.3206 C   0  0  0  0  0  0  0  0  0  0  0  0
   -1.0594   10.5093    0.5541 C   0  0  0  0  0  0  0  0  0  0  0  0
   -1.0224   11.8902    0.6641 C   0  0  0  0  0  0  0  0  0  0  0  0
   -0.1181   12.4938    1.5163 C   0  0  0  0  0  0  0  0  0  0  0  0
    0.7543   11.7258    2.2720 C   0  0  0  0  0  0  0  0  0  0  0  0
    1.8841   12.4992    3.3392 Cl  0  0  0  0  0  0  0  0  0  0  0  0
   -0.0799   13.9964    1.6254 C   0  0  0  0  0  0  0  0  0  0  0  0
   -1.9491   12.7202   -0.1380 N   0  3  0  0  0  0  0  0  0  0  0  0
   -1.6210   13.1000   -1.2478 O   0  0  0  0  0  0  0  0  0  0  0  0
   -3.0396   13.0235    0.3118 O   0  5  0  0  0  0  0  0  0  0  0  0
   -0.2164    8.2605    1.2164 C   0  0  0  0  0  0  0  0  0  0  0  0
   -1.0667    7.6835    0.4141 N   0  0  0  0  0  0  0  0  0  0  0  0
   -1.0983    6.3191    0.3172 C   0  0  0  0  0  0  0  0  0  0  0  0
   -2.3217    5.6444    0.3270 C   0  0  0  0  0  0  0  0  0  0  0  0
   -2.3495    4.2702    0.2287 C   0  0  0  0  0  0  0  0  0  0  0  0
   -1.1623    3.5553    0.1195 C   0  0  0  0  0  0  0  0  0  0  0  0
    0.0572    4.2226    0.1150 C   0  0  0  0  0  0  0  0  0  0  0  0
    0.0928    5.5970    0.2077 C   0  0  0  0  0  0  0  0  0  0  0  0
   -1.1946    2.1607    0.0195 N   0  0  0  0  0  0  0  0  0  0  0  0
   -0.2663    1.5161   -0.7148 C   0  0  0  0  0  0  0  0  0  0  0  0
    0.5370    2.1484   -1.3676 O   0  0  0  0  0  0  0  0  0  0  0  0
   -0.2302    0.0096   -0.7296 C   0  0  0  0  0  0  0  0  0  0  0  0
    2.5985    9.3572    2.4434 H   0  0  0  0  0  0  0  0  0  0  0  0
    1.9062   10.0434    3.9327 H   0  0  0  0  0  0  0  0  0  0  0  0
    1.2169    8.5592    3.2324 H   0  0  0  0  0  0  0  0  0  0  0  0
    0.6205   14.3963    0.8922 H   0  0  0  0  0  0  0  0  0  0  0  0
   -1.0745   14.3998    1.4355 H   0  0  0  0  0  0  0  0  0  0  0  0
    0.2420   14.2798    2.6275 H   0  0  0  0  0  0  0  0  0  0  0  0
    0.4631    7.6615    1.8045 H   0  0  0  0  0  0  0  0  0  0  0  0
   -3.2445    6.1992    0.4112 H   0  0  0  0  0  0  0  0  0  0  0  0
   -3.2948    3.7480    0.2363 H   0  0  0  0  0  0  0  0  0  0  0  0
    0.9777    3.6635    0.0348 H   0  0  0  0  0  0  0  0  0  0  0  0
    1.0404    6.1151    0.1997 H   0  0  0  0  0  0  0  0  0  0  0  0
   -1.8851    1.6574    0.4785 H   0  0  0  0  0  0  0  0  0  0  0  0
    0.4231   -0.3461    0.0672 H   0  0  0  0  0  0  0  0  0  0  0  0
   -1.2366   -0.3795   -0.5752 H   0  0  0  0  0  0  0  0  0  0  0  0
    0.1491   -0.3353   -1.6915 H   0  0  0  0  0  0  0  0  0  0  0  0
   -1.9437    9.9159   -0.2876 O   0  5  0  0  0  0  0  0  0  0  0  0
  1  2  1  0  0  0  0
  1 25  1  0  0  0  0
  1 26  1  0  0  0  0
  1 27  1  0  0  0  0
  2  7  2  0  0  0  0
  2  3  1  0  0  0  0
  3  4  2  0  0  0  0
  3 13  1  0  0  0  0
  4  5  1  0  0  0  0
  4 40  1  0  0  0  0
  5  6  2  0  0  0  0
  5 10  1  0  0  0  0
  6  7  1  0  0  0  0
  6  9  1  0  0  0  0
  7  8  1  0  0  0  0
  9 28  1  0  0  0  0
  9 29  1  0  0  0  0
  9 30  1  0  0  0  0
 10 11  2  0  0  0  0
 10 12  1  0  0  0  0
 13 14  2  0  0  0  0
 13 31  1  0  0  0  0
 14 15  1  0  0  0  0
 15 20  2  0  0  0  0
 15 16  1  0  0  0  0
 16 17  2  0  0  0  0
 16 32  1  0  0  0  0
 17 18  1  0  0  0  0
 17 33  1  0  0  0  0
 18 19  2  0  0  0  0
 18 21  1  0  0  0  0
 19 20  1  0  0  0  0
 19 34  1  0  0  0  0
 20 35  1  0  0  0  0
 21 22  1  0  0  0  0
 21 36  1  0  0  0  0
 22 23  2  0  0  0  0
 22 24  1  0  0  0  0
 24 37  1  0  0  0  0
 24 38  1  0  0  0  0
 24 39  1  0  0  0  0
M  CHG  3  10   1  12  -1  40  -1
M  END
$$$$
ZINC03138355
  -OEChem-08230709453D

 41 43  0     0  0  0  0  0  0999 V2000
   -1.8225   -2.7525   -4.9646 C   0  0  0  0  0  0  0  0  0  0  0  0
   -1.7520   -2.2065   -3.5617 C   0  0  0  0  0  0  0  0  0  0  0  0
   -2.6007   -1.3184   -2.9970 C   0  0  0  0  0  0  0  0  0  0  0  0
   -2.0902   -1.1447   -1.6823 C   0  0  0  0  0  0  0  0  0  0  0  0
   -1.0316   -1.9081   -1.5984 N   0  0  0  0  0  0  0  0  0  0  0  0
   -0.8349   -2.5066   -2.6305 O   0  0  0  0  0  0  0  0  0  0  0  0
   -2.6086   -0.3233   -0.6867 N   0  0  0  0  0  0  0  0  0  0  0  0
   -1.8714   -0.2511    0.7944 S   0  0  0  0  0  0  0  0  0  0  0  0
   -1.6634   -1.5939    1.2104 O   0  0  0  0  0  0  0  0  0  0  0  0
   -2.6109    0.6811    1.5712 O   0  0  0  0  0  0  0  0  0  0  0  0
   -0.2750    0.4528    0.5481 C   0  0  0  0  0  0  0  0  0  0  0  0
   -0.1060    1.8232    0.6252 C   0  0  0  0  0  0  0  0  0  0  0  0
    1.1439    2.3782    0.4332 C   0  0  0  0  0  0  0  0  0  0  0  0
    2.2322    1.5582    0.1626 C   0  0  0  0  0  0  0  0  0  0  0  0
    2.0588    0.1820    0.0857 C   0  0  0  0  0  0  0  0  0  0  0  0
    0.8060   -0.3663    0.2785 C   0  0  0  0  0  0  0  0  0  0  0  0
    3.4985    2.1164   -0.0315 N   0  0  0  0  0  0  0  0  0  0  0  0
    3.6295    3.3202   -0.7076 C   0  0  0  0  0  0  0  0  0  0  0  0
    4.7101    4.0552   -0.8903 N   0  3  0  0  0  0  0  0  0  0  0  0
    4.6596    5.1869   -1.5667 C   0  0  0  0  0  0  0  0  0  0  0  0
    3.4679    5.5835   -2.0744 C   0  0  0  0  0  0  0  0  0  0  0  0
    2.4152    4.2432   -1.5376 S   0  0  0  0  0  0  0  0  0  0  0  0
    5.8993    6.0195   -1.7695 C   0  0  0  0  0  0  0  0  0  0  0  0
    5.9881    3.6069   -0.3318 C   0  0  0  0  0  0  0  0  0  0  0  0
   -1.2499   -2.1102   -5.6337 H   0  0  0  0  0  0  0  0  0  0  0  0
   -1.4067   -3.7598   -4.9838 H   0  0  0  0  0  0  0  0  0  0  0  0
   -2.8621   -2.7822   -5.2910 H   0  0  0  0  0  0  0  0  0  0  0  0
   -3.4662   -0.8499   -3.4418 H   0  0  0  0  0  0  0  0  0  0  0  0
   -3.4019    0.2073   -0.8600 H   0  0  0  0  0  0  0  0  0  0  0  0
   -0.9532    2.4604    0.8315 H   0  0  0  0  0  0  0  0  0  0  0  0
    1.2752    3.4485    0.4933 H   0  0  0  0  0  0  0  0  0  0  0  0
    2.9026   -0.4583   -0.1248 H   0  0  0  0  0  0  0  0  0  0  0  0
    0.6705   -1.4362    0.2189 H   0  0  0  0  0  0  0  0  0  0  0  0
    4.2859    1.6619    0.3068 H   0  0  0  0  0  0  0  0  0  0  0  0
    3.2226    6.4647   -2.6486 H   0  0  0  0  0  0  0  0  0  0  0  0
    6.4488    5.6483   -2.6346 H   0  0  0  0  0  0  0  0  0  0  0  0
    5.6157    7.0585   -1.9376 H   0  0  0  0  0  0  0  0  0  0  0  0
    6.5300    5.9540   -0.8829 H   0  0  0  0  0  0  0  0  0  0  0  0
    6.5483    3.0663   -1.0946 H   0  0  0  0  0  0  0  0  0  0  0  0
    6.5641    4.4718   -0.0026 H   0  0  0  0  0  0  0  0  0  0  0  0
    5.8028    2.9493    0.5175 H   0  0  0  0  0  0  0  0  0  0  0  0
  1  2  1  0  0  0  0
  1 25  1  0  0  0  0
  1 26  1  0  0  0  0
  1 27  1  0  0  0  0
  2  6  1  0  0  0  0
  2  3  2  0  0  0  0
  3  4  1  0  0  0  0
  3 28  1  0  0  0  0
  4  5  2  0  0  0  0
  4  7  1  0  0  0  0
  5  6  1  0  0  0  0
  7  8  1  0  0  0  0
  7 29  1  0  0  0  0
  8  9  2  0  0  0  0
  8 10  2  0  0  0  0
  8 11  1  0  0  0  0
 11 16  2  0  0  0  0
 11 12  1  0  0  0  0
 12 13  2  0  0  0  0
 12 30  1  0  0  0  0
 13 14  1  0  0  0  0
 13 31  1  0  0  0  0
 14 15  2  0  0  0  0
 14 17  1  0  0  0  0
 15 16  1  0  0  0  0
 15 32  1  0  0  0  0
 16 33  1  0  0  0  0
 17 18  1  0  0  0  0
 17 34  1  0  0  0  0
 18 22  1  0  0  0  0
 18 19  2  0  0  0  0
 19 20  1  0  0  0  0
 19 24  1  0  0  0  0
 20 21  2  0  0  0  0
 20 23  1  0  0  0  0
 21 22  1  0  0  0  0
 21 35  1  0  0  0  0
 23 36  1  0  0  0  0
 23 37  1  0  0  0  0
 23 38  1  0  0  0  0
 24 39  1  0  0  0  0
 24 40  1  0  0  0  0
 24 41  1  0  0  0  0
M  CHG  1  19   1
M  END
$$$$
ZINC03165160
  -OEChem-08230709453D

 42 45  0     0  0  0  0  0  0999 V2000
   -4.4912    2.5956   11.1664 C   0  0  0  0  0  0  0  0  0  0  0  0
   -3.8101    2.4742    9.8276 C   0  0  0  0  0  0  0  0  0  0  0  0
   -4.5612    2.2164    8.6936 C   0  0  0  0  0  0  0  0  0  0  0  0
   -3.9474    2.1093    7.4630 C   0  0  0  0  0  0  0  0  0  0  0  0
   -2.5643    2.2503    7.3610 C   0  0  0  0  0  0  0  0  0  0  0  0
   -1.8082    2.5107    8.5086 C   0  0  0  0  0  0  0  0  0  0  0  0
   -2.4395    2.6211    9.7379 C   0  0  0  0  0  0  0  0  0  0  0  0
   -0.4610    2.6545    8.4190 O   0  0  0  0  0  0  0  0  0  0  0  0
   -1.8990    2.1311    6.0424 C   0  0  0  0  0  0  0  0  0  0  0  0
   -2.6471    1.8714    4.8933 C   0  0  0  0  0  0  0  0  0  0  0  0
   -1.9751    1.7675    3.6752 C   0  0  0  0  0  0  0  0  0  0  0  0
   -0.6505    1.9138    3.6519 N   0  0  0  0  0  0  0  0  0  0  0  0
    0.0244    2.1644    4.7627 C   0  0  0  0  0  0  0  0  0  0  0  0
   -0.5779    2.2699    5.9371 N   0  0  0  0  0  0  0  0  0  0  0  0
    1.3988    2.3147    4.6956 N   0  0  0  0  0  0  0  0  0  0  0  0
   -2.7227    1.4924    2.4258 C   0  0  0  0  0  0  0  0  0  0  0  0
   -4.1070    1.3344    2.4591 C   0  0  0  0  0  0  0  0  0  0  0  0
   -4.7981    1.0779    1.2920 C   0  0  0  0  0  0  0  0  0  0  0  0
   -4.1201    0.9755    0.0886 C   0  0  0  0  0  0  0  0  0  0  0  0
   -2.7470    1.1294    0.0445 C   0  0  0  0  0  0  0  0  0  0  0  0
   -2.0415    1.3896    1.2077 C   0  0  0  0  0  0  0  0  0  0  0  0
   -0.6891    1.5506    1.1797 O   0  0  0  0  0  0  0  0  0  0  0  0
   -0.0127    1.0858    0.0080 C   0  0  0  0  0  0  0  0  0  0  0  0
   -0.7124    1.5638   -1.1473 O   0  0  0  0  0  0  0  0  0  0  0  0
   -2.0259    1.0112   -1.2747 C   0  0  0  0  0  0  0  0  0  0  0  0
   -6.5226    0.8827    1.3327 Cl  0  0  0  0  0  0  0  0  0  0  0  0
   -4.7735    3.6344   11.3376 H   0  0  0  0  0  0  0  0  0  0  0  0
   -5.3836    1.9699   11.1782 H   0  0  0  0  0  0  0  0  0  0  0  0
   -3.8090    2.2704   11.9519 H   0  0  0  0  0  0  0  0  0  0  0  0
   -5.6323    2.1029    8.7722 H   0  0  0  0  0  0  0  0  0  0  0  0
   -4.5372    1.9122    6.5800 H   0  0  0  0  0  0  0  0  0  0  0  0
   -1.8593    2.8224   10.6262 H   0  0  0  0  0  0  0  0  0  0  0  0
   -0.1720    3.5640    8.2629 H   0  0  0  0  0  0  0  0  0  0  0  0
   -3.7194    1.7542    4.9457 H   0  0  0  0  0  0  0  0  0  0  0  0
    1.9070    2.4946    5.5020 H   0  0  0  0  0  0  0  0  0  0  0  0
    1.8537    2.2400    3.8421 H   0  0  0  0  0  0  0  0  0  0  0  0
   -4.6381    1.4123    3.3963 H   0  0  0  0  0  0  0  0  0  0  0  0
   -4.6674    0.7743   -0.8205 H   0  0  0  0  0  0  0  0  0  0  0  0
    0.0021   -0.0041    0.0020 H   0  0  0  0  0  0  0  0  0  0  0  0
    1.0089    1.4657    0.0003 H   0  0  0  0  0  0  0  0  0  0  0  0
   -2.5772    1.5564   -2.0408 H   0  0  0  0  0  0  0  0  0  0  0  0
   -1.9529   -0.0391   -1.5571 H   0  0  0  0  0  0  0  0  0  0  0  0
  1  2  1  0  0  0  0
  1 27  1  0  0  0  0
  1 28  1  0  0  0  0
  1 29  1  0  0  0  0
  2  7  2  0  0  0  0
  2  3  1  0  0  0  0
  3  4  2  0  0  0  0
  3 30  1  0  0  0  0
  4  5  1  0  0  0  0
  4 31  1  0  0  0  0
  5  6  2  0  0  0  0
  5  9  1  0  0  0  0
  6  7  1  0  0  0  0
  6  8  1  0  0  0  0
  7 32  1  0  0  0  0
  8 33  1  0  0  0  0
  9 14  2  0  0  0  0
  9 10  1  0  0  0  0
 10 11  2  0  0  0  0
 10 34  1  0  0  0  0
 11 12  1  0  0  0  0
 11 16  1  0  0  0  0
 12 13  2  0  0  0  0
 13 14  1  0  0  0  0
 13 15  1  0  0  0  0
 15 35  1  0  0  0  0
 15 36  1  0  0  0  0
 16 21  2  0  0  0  0
 16 17  1  0  0  0  0
 17 18  2  0  0  0  0
 17 37  1  0  0  0  0
 18 19  1  0  0  0  0
 18 26  1  0  0  0  0
 19 20  2  0  0  0  0
 19 38  1  0  0  0  0
 20 25  1  0  0  0  0
 20 21  1  0  0  0  0
 21 22  1  0  0  0  0
 22 23  1  0  0  0  0
 23 24  1  0  0  0  0
 23 39  1  0  0  0  0
 23 40  1  0  0  0  0
 24 25  1  0  0  0  0
 25 41  1  0  0  0  0
 25 42  1  0  0  0  0
M  END
$$$$
ZINC03191611
  -OEChem-08230709453D

 45 47  0     0  0  0  0  0  0999 V2000
    1.2478    2.0219   -0.0268 C   0  0  0  0  0  0  0  0  0  0  0  0
   -0.0165    1.3560   -0.0339 O   0  0  0  0  0  0  0  0  0  0  0  0
    0.0019   -0.0038   -0.0416 C   0  0  0  0  0  0  0  0  0  0  0  0
    1.2097   -0.6790   -0.0423 C   0  0  0  0  0  0  0  0  0  0  0  0
    1.2282   -2.0733   -0.0497 C   0  0  0  0  0  0  0  0  0  0  0  0
    0.0290   -2.7848   -0.0564 C   0  0  0  0  0  0  0  0  0  0  0  0
   -1.1771   -2.1065   -0.0558 C   0  0  0  0  0  0  0  0  0  0  0  0
   -1.1936   -0.7154   -0.0430 C   0  0  0  0  0  0  0  0  0  0  0  0
   -2.3800   -0.0502   -0.0371 O   0  0  0  0  0  0  0  0  0  0  0  0
   -2.9484    0.2738   -1.3075 C   0  0  0  0  0  0  0  0  0  0  0  0
   -2.3469   -2.8001   -0.0623 O   0  0  0  0  0  0  0  0  0  0  0  0
   -2.2555   -4.2262   -0.0697 C   0  0  0  0  0  0  0  0  0  0  0  0
    2.5208   -2.7981   -0.0499 C   0  0  0  0  0  0  0  0  0  0  0  0
    2.5106   -4.2018   -0.0575 C   0  0  0  0  0  0  0  0  0  0  0  0
    3.7139   -4.8916   -0.0578 C   0  0  0  0  0  0  0  0  0  0  0  0
    4.9433   -4.0980   -0.0501 C   0  0  0  0  0  0  0  0  0  0  0  0
    6.2045   -4.7036   -0.0494 C   0  0  0  0  0  0  0  0  0  0  0  0
    7.3248   -3.9265   -0.0416 C   0  0  0  0  0  0  0  0  0  0  0  0
    7.2294   -2.5366   -0.0343 C   0  0  0  0  0  0  0  0  0  0  0  0
    6.0185   -1.9154   -0.0353 C   0  0  0  0  0  0  0  0  0  0  0  0
    4.8399   -2.6843   -0.0428 C   0  0  0  0  0  0  0  0  0  0  0  0
    3.6390   -2.1032   -0.0484 N   0  0  0  0  0  0  0  0  0  0  0  0
    3.7529   -6.3702   -0.0661 C   0  0  0  0  0  0  0  0  0  0  0  0
    4.8163   -6.9495   -0.1707 O   0  0  0  0  0  0  0  0  0  0  0  0
    2.6093   -7.0751    0.0423 N   0  0  0  0  0  0  0  0  0  0  0  0
    2.6454   -8.4406    0.0346 N   0  0  0  0  0  0  0  0  0  0  0  0
    1.0904    3.1005   -0.0211 H   0  0  0  0  0  0  0  0  0  0  0  0
    1.8064    1.7316    0.8630 H   0  0  0  0  0  0  0  0  0  0  0  0
    1.8111    1.7417   -0.9169 H   0  0  0  0  0  0  0  0  0  0  0  0
    2.1376   -0.1264   -0.0374 H   0  0  0  0  0  0  0  0  0  0  0  0
    0.0415   -3.8647   -0.0626 H   0  0  0  0  0  0  0  0  0  0  0  0
   -2.2588    0.9098   -1.8625 H   0  0  0  0  0  0  0  0  0  0  0  0
   -3.1293   -0.6427   -1.8690 H   0  0  0  0  0  0  0  0  0  0  0  0
   -3.8906    0.8015   -1.1600 H   0  0  0  0  0  0  0  0  0  0  0  0
   -1.7174   -4.5511   -0.9602 H   0  0  0  0  0  0  0  0  0  0  0  0
   -1.7217   -4.5607    0.8198 H   0  0  0  0  0  0  0  0  0  0  0  0
   -3.2579   -4.6544   -0.0745 H   0  0  0  0  0  0  0  0  0  0  0  0
    1.5741   -4.7398   -0.0634 H   0  0  0  0  0  0  0  0  0  0  0  0
    6.2902   -5.7802   -0.0546 H   0  0  0  0  0  0  0  0  0  0  0  0
    8.2983   -4.3943   -0.0414 H   0  0  0  0  0  0  0  0  0  0  0  0
    8.1312   -1.9424   -0.0282 H   0  0  0  0  0  0  0  0  0  0  0  0
    5.9624   -0.8369   -0.0299 H   0  0  0  0  0  0  0  0  0  0  0  0
    1.7607   -6.6128    0.1258 H   0  0  0  0  0  0  0  0  0  0  0  0
    3.2536   -8.7904    0.7598 H   0  0  0  0  0  0  0  0  0  0  0  0
    1.7176   -8.8273    0.1232 H   0  0  0  0  0  0  0  0  0  0  0  0
  1  2  1  0  0  0  0
  1 27  1  0  0  0  0
  1 28  1  0  0  0  0
  1 29  1  0  0  0  0
  2  3  1  0  0  0  0
  3  8  2  0  0  0  0
  3  4  1  0  0  0  0
  4  5  2  0  0  0  0
  4 30  1  0  0  0  0
  5  6  1  0  0  0  0
  5 13  1  0  0  0  0
  6  7  2  0  0  0  0
  6 31  1  0  0  0  0
  7  8  1  0  0  0  0
  7 11  1  0  0  0  0
  8  9  1  0  0  0  0
  9 10  1  0  0  0  0
 10 32  1  0  0  0  0
 10 33  1  0  0  0  0
 10 34  1  0  0  0  0
 11 12  1  0  0  0  0
 12 35  1  0  0  0  0
 12 36  1  0  0  0  0
 12 37  1  0  0  0  0
 13 22  2  0  0  0  0
 13 14  1  0  0  0  0
 14 15  2  0  0  0  0
 14 38  1  0  0  0  0
 15 16  1  0  0  0  0
 15 23  1  0  0  0  0
 16 21  2  0  0  0  0
 16 17  1  0  0  0  0
 17 18  2  0  0  0  0
 17 39  1  0  0  0  0
 18 19  1  0  0  0  0
 18 40  1  0  0  0  0
 19 20  2  0  0  0  0
 19 41  1  0  0  0  0
 20 21  1  0  0  0  0
 20 42  1  0  0  0  0
 21 22  1  0  0  0  0
 23 24  2  0  0  0  0
 23 25  1  0  0  0  0
 25 26  1  0  0  0  0
 25 43  1  0  0  0  0
 26 44  1  0  0  0  0
 26 45  1  0  0  0  0
M  END
$$$$
ZINC03204496
  -OEChem-08230709453D

 45 46  0     0  0  0  0  0  0999 V2000
   11.1126    4.6847    2.6325 C   0  0  0  0  0  0  0  0  0  0  0  0
   11.1058    3.2965    1.9892 C   0  0  0  0  0  0  0  0  0  0  0  0
    9.8882    3.1271    1.2165 O   0  0  0  0  0  0  0  0  0  0  0  0
    9.7257    1.9508    0.5819 C   0  0  0  0  0  0  0  0  0  0  0  0
   10.5779    1.0894    0.6714 O   0  0  0  0  0  0  0  0  0  0  0  0
    8.6176    1.7288   -0.1525 N   0  0  0  0  0  0  0  0  0  0  0  0
    8.4090    0.4528   -0.8587 C   0  0  0  0  0  0  0  0  0  0  0  0
    7.1531   -0.2051   -0.2765 C   0  0  0  0  0  0  0  0  0  0  0  0
    6.0469    0.8005   -0.1562 C   0  0  0  0  0  0  0  0  0  0  0  0
    6.2221    2.0936   -0.1467 C   0  0  0  0  0  0  0  0  0  0  0  0
    7.5680    2.7499   -0.2811 C   0  0  0  0  0  0  0  0  0  0  0  0
    4.7476    0.3226   -0.0415 N   0  0  0  0  0  0  0  0  0  0  0  0
    3.6701    1.2180   -0.0336 N   0  0  0  0  0  0  0  0  0  0  0  0
    2.4058    0.7509   -0.0247 C   0  0  0  0  0  0  0  0  0  0  0  0
    2.2010   -0.4445   -0.0234 O   0  0  0  0  0  0  0  0  0  0  0  0
    1.2468    1.7140   -0.0162 C   0  0  0  0  0  0  0  0  0  0  0  0
   -0.0115    0.9637   -0.0073 N   0  0  0  0  0  0  0  0  0  0  0  0
   -1.2321    1.6457   -0.0042 C   0  0  0  0  0  0  0  0  0  0  0  0
   -1.2528    3.0343    0.0020 C   0  0  0  0  0  0  0  0  0  0  0  0
   -2.4597    3.7060    0.0002 C   0  0  0  0  0  0  0  0  0  0  0  0
   -3.6484    2.9958    0.0028 C   0  0  0  0  0  0  0  0  0  0  0  0
   -3.6301    1.6113    0.0019 C   0  0  0  0  0  0  0  0  0  0  0  0
   -2.4255    0.9355   -0.0016 C   0  0  0  0  0  0  0  0  0  0  0  0
   -4.8278    3.6548    0.0058 F   0  0  0  0  0  0  0  0  0  0  0  0
   10.2485    4.7850    3.2893 H   0  0  0  0  0  0  0  0  0  0  0  0
   12.0266    4.8119    3.2125 H   0  0  0  0  0  0  0  0  0  0  0  0
   11.0675    5.4462    1.8539 H   0  0  0  0  0  0  0  0  0  0  0  0
   11.1509    2.5350    2.7678 H   0  0  0  0  0  0  0  0  0  0  0  0
   11.9699    3.1962    1.3324 H   0  0  0  0  0  0  0  0  0  0  0  0
    8.2719    0.6390   -1.9239 H   0  0  0  0  0  0  0  0  0  0  0  0
    9.2696   -0.1984   -0.7053 H   0  0  0  0  0  0  0  0  0  0  0  0
    7.3789   -0.6124    0.7090 H   0  0  0  0  0  0  0  0  0  0  0  0
    6.8348   -1.0144   -0.9337 H   0  0  0  0  0  0  0  0  0  0  0  0
    5.3537    2.7262   -0.0368 H   0  0  0  0  0  0  0  0  0  0  0  0
    7.6437    3.2292   -1.2571 H   0  0  0  0  0  0  0  0  0  0  0  0
    7.6883    3.4979    0.5025 H   0  0  0  0  0  0  0  0  0  0  0  0
    4.5864   -0.6310    0.0331 H   0  0  0  0  0  0  0  0  0  0  0  0
    3.8339    2.1740   -0.0346 H   0  0  0  0  0  0  0  0  0  0  0  0
    1.2893    2.3416   -0.9063 H   0  0  0  0  0  0  0  0  0  0  0  0
    1.3021    2.3412    0.8736 H   0  0  0  0  0  0  0  0  0  0  0  0
    0.0021   -0.0062   -0.0076 H   0  0  0  0  0  0  0  0  0  0  0  0
   -0.3259    3.5886    0.0042 H   0  0  0  0  0  0  0  0  0  0  0  0
   -2.4763    4.7859    0.0006 H   0  0  0  0  0  0  0  0  0  0  0  0
   -4.5584    1.0594    0.0036 H   0  0  0  0  0  0  0  0  0  0  0  0
   -2.4117   -0.1444   -0.0027 H   0  0  0  0  0  0  0  0  0  0  0  0
  1  2  1  0  0  0  0
  1 25  1  0  0  0  0
  1 26  1  0  0  0  0
  1 27  1  0  0  0  0
  2  3  1  0  0  0  0
  2 28  1  0  0  0  0
  2 29  1  0  0  0  0
  3  4  1  0  0  0  0
  4  5  2  0  0  0  0
  4  6  1  0  0  0  0
  6 11  1  0  0  0  0
  6  7  1  0  0  0  0
  7  8  1  0  0  0  0
  7 30  1  0  0  0  0
  7 31  1  0  0  0  0
  8  9  1  0  0  0  0
  8 32  1  0  0  0  0
  8 33  1  0  0  0  0
  9 10  2  0  0  0  0
  9 12  1  0  0  0  0
 10 11  1  0  0  0  0
 10 34  1  0  0  0  0
 11 35  1  0  0  0  0
 11 36  1  0  0  0  0
 12 13  1  0  0  0  0
 12 37  1  0  0  0  0
 13 14  1  0  0  0  0
 13 38  1  0  0  0  0
 14 15  2  0  0  0  0
 14 16  1  0  0  0  0
 16 17  1  0  0  0  0
 16 39  1  0  0  0  0
 16 40  1  0  0  0  0
 17 18  1  0  0  0  0
 17 41  1  0  0  0  0
 18 23  2  0  0  0  0
 18 19  1  0  0  0  0
 19 20  2  0  0  0  0
 19 42  1  0  0  0  0
 20 21  1  0  0  0  0
 20 43  1  0  0  0  0
 21 22  2  0  0  0  0
 21 24  1  0  0  0  0
 22 23  1  0  0  0  0
 22 44  1  0  0  0  0
 23 45  1  0  0  0  0
M  END
$$$$
ZINC03233795
  -OEChem-08230709453D

 40 43  0     0  0  0  0  0  0999 V2000
    2.3315   -9.2596   -0.3326 C   0  0  0  0  0  0  0  0  0  0  0  0
    3.2277  -10.2964   -0.4761 C   0  0  0  0  0  0  0  0  0  0  0  0
    4.5429  -10.0394   -0.8416 C   0  0  0  0  0  0  0  0  0  0  0  0
    4.9657   -8.7332   -1.0647 C   0  0  0  0  0  0  0  0  0  0  0  0
    4.0707   -7.6823   -0.9283 C   0  0  0  0  0  0  0  0  0  0  0  0
    2.7444   -7.9424   -0.5545 C   0  0  0  0  0  0  0  0  0  0  0  0
    1.7887   -6.8332   -0.4023 C   0  0  0  0  0  0  0  0  0  0  0  0
    2.1749   -5.6099   -0.6091 N   0  0  0  0  0  0  0  0  0  0  0  0
    1.2965   -4.5468   -0.3624 N   0  0  0  0  0  0  0  0  0  0  0  0
    0.0170   -4.8325   -0.0160 C   0  0  0  0  0  0  0  0  0  0  0  0
   -0.8812   -3.9043    0.2350 N   0  0  0  0  0  0  0  0  0  0  0  0
   -0.4933   -2.6371    0.1379 C   0  0  0  0  0  0  0  0  0  0  0  0
    0.8155   -2.2390   -0.2154 C   0  0  0  0  0  0  0  0  0  0  0  0
    1.7647   -3.2817   -0.4809 C   0  0  0  0  0  0  0  0  0  0  0  0
    2.9189   -3.0438   -0.7936 O   0  0  0  0  0  0  0  0  0  0  0  0
    1.0566   -0.8083   -0.2716 C   0  0  0  0  0  0  0  0  0  0  0  0
    0.0071   -0.0040    0.0189 C   0  0  0  0  0  0  0  0  0  0  0  0
   -1.3377   -1.1060    0.3771 S   0  0  0  0  0  0  0  0  0  0  0  0
   -0.0111    1.4933    0.0344 C   0  0  0  0  0  0  0  0  0  0  0  0
    1.4390    1.9974    0.0328 C   0  0  0  0  0  0  0  0  0  0  0  0
    2.2173    1.2469   -1.0519 C   0  0  0  0  0  0  0  0  0  0  0  0
    2.4133   -0.2110   -0.6358 C   0  0  0  0  0  0  0  0  0  0  0  0
    4.4787   -6.4056   -1.1512 O   0  0  0  0  0  0  0  0  0  0  0  0
    6.2556   -8.4868   -1.4221 O   0  0  0  0  0  0  0  0  0  0  0  0
    5.4201  -11.0681   -0.9813 O   0  0  0  0  0  0  0  0  0  0  0  0
    1.3098   -9.4645   -0.0490 H   0  0  0  0  0  0  0  0  0  0  0  0
    2.9061  -11.3129   -0.3041 H   0  0  0  0  0  0  0  0  0  0  0  0
    0.7666   -7.0361   -0.1188 H   0  0  0  0  0  0  0  0  0  0  0  0
   -0.2782   -5.8688    0.0570 H   0  0  0  0  0  0  0  0  0  0  0  0
   -0.5282    1.8625   -0.8513 H   0  0  0  0  0  0  0  0  0  0  0  0
   -0.5200    1.8442    0.9322 H   0  0  0  0  0  0  0  0  0  0  0  0
    1.4544    3.0664   -0.1793 H   0  0  0  0  0  0  0  0  0  0  0  0
    1.8930    1.8085    1.0057 H   0  0  0  0  0  0  0  0  0  0  0  0
    3.1905    1.7179   -1.1908 H   0  0  0  0  0  0  0  0  0  0  0  0
    1.6598    1.2846   -1.9877 H   0  0  0  0  0  0  0  0  0  0  0  0
    3.0766   -0.2580    0.2279 H   0  0  0  0  0  0  0  0  0  0  0  0
    2.8486   -0.7713   -1.4632 H   0  0  0  0  0  0  0  0  0  0  0  0
    4.8215   -5.9592   -0.3649 H   0  0  0  0  0  0  0  0  0  0  0  0
    6.4063   -8.4892   -2.3773 H   0  0  0  0  0  0  0  0  0  0  0  0
    5.4517  -11.4396   -1.8736 H   0  0  0  0  0  0  0  0  0  0  0  0
  1  6  2  0  0  0  0
  1  2  1  0  0  0  0
  1 26  1  0  0  0  0
  2  3  2  0  0  0  0
  2 27  1  0  0  0  0
  3  4  1  0  0  0  0
  3 25  1  0  0  0  0
  4  5  2  0  0  0  0
  4 24  1  0  0  0  0
  5  6  1  0  0  0  0
  5 23  1  0  0  0  0
  6  7  1  0  0  0  0
  7  8  2  0  0  0  0
  7 28  1  0  0  0  0
  8  9  1  0  0  0  0
  9 14  1  0  0  0  0
  9 10  1  0  0  0  0
 10 11  2  0  0  0  0
 10 29  1  0  0  0  0
 11 12  1  0  0  0  0
 12 18  1  0  0  0  0
 12 13  2  0  0  0  0
 13 14  1  0  0  0  0
 13 16  1  0  0  0  0
 14 15  2  0  0  0  0
 16 22  1  0  0  0  0
 16 17  2  0  0  0  0
 17 18  1  0  0  0  0
 17 19  1  0  0  0  0
 19 20  1  0  0  0  0
 19 30  1  0  0  0  0
 19 31  1  0  0  0  0
 20 21  1  0  0  0  0
 20 32  1  0  0  0  0
 20 33  1  0  0  0  0
 21 22  1  0  0  0  0
 21 34  1  0  0  0  0
 21 35  1  0  0  0  0
 22 36  1  0  0  0  0
 22 37  1  0  0  0  0
 23 38  1  0  0  0  0
 24 39  1  0  0  0  0
 25 40  1  0  0  0  0
M  END
$$$$
ZINC03234684
  -OEChem-08230709453D

 41 42  0     0  0  0  0  0  0999 V2000
    3.2352   -1.0867    2.8290 C   0  0  0  0  0  0  0  0  0  0  0  0
    2.0470   -0.2754    3.2774 C   0  0  0  0  0  0  0  0  0  0  0  0
    1.8051   -0.1005    4.6094 C   0  0  0  0  0  0  0  0  0  0  0  0
    0.6908    0.6607    5.0039 C   0  0  0  0  0  0  0  0  0  0  0  0
    0.4453    0.8369    6.1859 O   0  0  0  0  0  0  0  0  0  0  0  0
   -0.0994    1.1973    4.0496 N   0  0  0  0  0  0  0  0  0  0  0  0
   -0.8931    1.7486    4.3068 H   0  0  0  0  0  0  0  0  0  0  0  0
    0.1884    0.9850    2.7355 C   0  0  0  0  0  0  0  0  0  0  0  0
    1.2361    0.2694    2.3742 N   0  0  0  0  0  0  0  0  0  0  0  0
   -0.8519    1.6840    1.4971 S   0  0  0  0  0  0  0  0  0  0  0  0
   -0.0060    1.0974    0.0083 C   0  0  0  0  0  0  0  0  0  0  0  0
   -0.7402    1.5882   -1.2129 C   0  0  0  0  0  0  0  0  0  0  0  0
   -1.7372    2.2676   -1.0888 O   0  0  0  0  0  0  0  0  0  0  0  0
   -0.2889    1.2721   -2.4429 N   0  0  0  0  0  0  0  0  0  0  0  0
   -1.0217    1.6463   -3.5746 C   0  0  0  0  0  0  0  0  0  0  0  0
   -1.7228    2.8453   -3.5846 C   0  0  0  0  0  0  0  0  0  0  0  0
   -2.4411    3.2140   -4.7049 C   0  0  0  0  0  0  0  0  0  0  0  0
   -2.4712    2.3861   -5.8123 C   0  0  0  0  0  0  0  0  0  0  0  0
   -1.7787    1.1894   -5.8035 C   0  0  0  0  0  0  0  0  0  0  0  0
   -1.0543    0.8171   -4.6879 C   0  0  0  0  0  0  0  0  0  0  0  0
   -0.3006   -0.4878   -4.6788 C   0  0  0  0  0  0  0  0  0  0  0  0
   -1.2598   -1.6331   -5.0092 C   0  0  0  0  0  0  0  0  0  0  0  0
    0.8153   -0.4395   -5.7244 C   0  0  0  0  0  0  0  0  0  0  0  0
    3.2655   -1.1153    1.7398 H   0  0  0  0  0  0  0  0  0  0  0  0
    4.1503   -0.6298    3.2060 H   0  0  0  0  0  0  0  0  0  0  0  0
    3.1494   -2.1017    3.2169 H   0  0  0  0  0  0  0  0  0  0  0  0
    2.4592   -0.5394    5.3483 H   0  0  0  0  0  0  0  0  0  0  0  0
    0.0135    0.0076    0.0070 H   0  0  0  0  0  0  0  0  0  0  0  0
    1.0149    1.4791   -0.0037 H   0  0  0  0  0  0  0  0  0  0  0  0
    0.5440    0.7852   -2.5436 H   0  0  0  0  0  0  0  0  0  0  0  0
   -1.7033    3.4901   -2.7185 H   0  0  0  0  0  0  0  0  0  0  0  0
   -2.9837    4.1478   -4.7145 H   0  0  0  0  0  0  0  0  0  0  0  0
   -3.0371    2.6747   -6.6857 H   0  0  0  0  0  0  0  0  0  0  0  0
   -1.8045    0.5449   -6.6698 H   0  0  0  0  0  0  0  0  0  0  0  0
    0.1329   -0.6502   -3.6920 H   0  0  0  0  0  0  0  0  0  0  0  0
   -1.6933   -1.4708   -5.9960 H   0  0  0  0  0  0  0  0  0  0  0  0
   -0.7147   -2.5770   -5.0026 H   0  0  0  0  0  0  0  0  0  0  0  0
   -2.0549   -1.6675   -4.2643 H   0  0  0  0  0  0  0  0  0  0  0  0
    1.4987    0.3764   -5.4890 H   0  0  0  0  0  0  0  0  0  0  0  0
    1.3605   -1.3834   -5.7178 H   0  0  0  0  0  0  0  0  0  0  0  0
    0.3818   -0.2772   -6.7112 H   0  0  0  0  0  0  0  0  0  0  0  0
  1  2  1  0  0  0  0
  1 24  1  0  0  0  0
  1 25  1  0  0  0  0
  1 26  1  0  0  0  0
  2  9  1  0  0  0  0
  2  3  2  0  0  0  0
  3  4  1  0  0  0  0
  3 27  1  0  0  0  0
  4  5  2  0  0  0  0
  4  6  1  0  0  0  0
  6  7  1  0  0  0  0
  6  8  1  0  0  0  0
  8  9  2  0  0  0  0
  8 10  1  0  0  0  0
 10 11  1  0  0  0  0
 11 12  1  0  0  0  0
 11 28  1  0  0  0  0
 11 29  1  0  0  0  0
 12 13  2  0  0  0  0
 12 14  1  0  0  0  0
 14 15  1  0  0  0  0
 14 30  1  0  0  0  0
 15 20  2  0  0  0  0
 15 16  1  0  0  0  0
 16 17  2  0  0  0  0
 16 31  1  0  0  0  0
 17 18  1  0  0  0  0
 17 32  1  0  0  0  0
 18 19  2  0  0  0  0
 18 33  1  0  0  0  0
 19 20  1  0  0  0  0
 19 34  1  0  0  0  0
 20 21  1  0  0  0  0
 21 22  1  0  0  0  0
 21 23  1  0  0  0  0
 21 35  1  0  0  0  0
 22 36  1  0  0  0  0
 22 37  1  0  0  0  0
 22 38  1  0  0  0  0
 23 39  1  0  0  0  0
 23 40  1  0  0  0  0
 23 41  1  0  0  0  0
M  END
$$$$
ZINC03234684
  -OEChem-08230709453D

 41 42  0     0  0  0  0  0  0999 V2000
    3.2270   -1.0987    2.8291 C   0  0  0  0  0  0  0  0  0  0  0  0
    2.0417   -0.2831    3.2775 C   0  0  0  0  0  0  0  0  0  0  0  0
    1.7994   -0.1088    4.6095 C   0  0  0  0  0  0  0  0  0  0  0  0
    0.6902    0.6598    5.0039 C   0  0  0  0  0  0  0  0  0  0  0  0
    0.4418    0.8318    6.1859 O   0  0  0  0  0  0  0  0  0  0  0  0
   -0.1000    1.1965    4.0496 N   0  0  0  0  0  0  0  0  0  0  0  0
    1.1289    0.3646    6.7423 H   0  0  0  0  0  0  0  0  0  0  0  0
    0.1884    0.9850    2.7355 C   0  0  0  0  0  0  0  0  0  0  0  0
    1.2335    0.2656    2.3742 N   0  0  0  0  0  0  0  0  0  0  0  0
   -0.8519    1.6840    1.4971 S   0  0  0  0  0  0  0  0  0  0  0  0
   -0.0060    1.0974    0.0083 C   0  0  0  0  0  0  0  0  0  0  0  0
   -0.7402    1.5882   -1.2129 C   0  0  0  0  0  0  0  0  0  0  0  0
   -1.7372    2.2676   -1.0888 O   0  0  0  0  0  0  0  0  0  0  0  0
   -0.2889    1.2721   -2.4429 N   0  0  0  0  0  0  0  0  0  0  0  0
   -1.0217    1.6463   -3.5746 C   0  0  0  0  0  0  0  0  0  0  0  0
   -1.7228    2.8453   -3.5846 C   0  0  0  0  0  0  0  0  0  0  0  0
   -2.4411    3.2140   -4.7049 C   0  0  0  0  0  0  0  0  0  0  0  0
   -2.4712    2.3861   -5.8123 C   0  0  0  0  0  0  0  0  0  0  0  0
   -1.7787    1.1894   -5.8035 C   0  0  0  0  0  0  0  0  0  0  0  0
   -1.0543    0.8171   -4.6879 C   0  0  0  0  0  0  0  0  0  0  0  0
   -0.3006   -0.4878   -4.6788 C   0  0  0  0  0  0  0  0  0  0  0  0
   -1.2598   -1.6331   -5.0092 C   0  0  0  0  0  0  0  0  0  0  0  0
    0.8153   -0.4395   -5.7244 C   0  0  0  0  0  0  0  0  0  0  0  0
    3.2579   -1.1265    1.7399 H   0  0  0  0  0  0  0  0  0  0  0  0
    4.1437   -0.6457    3.2071 H   0  0  0  0  0  0  0  0  0  0  0  0
    3.1370   -2.1137    3.2161 H   0  0  0  0  0  0  0  0  0  0  0  0
    2.4511   -0.5512    5.3484 H   0  0  0  0  0  0  0  0  0  0  0  0
    0.0135    0.0076    0.0070 H   0  0  0  0  0  0  0  0  0  0  0  0
    1.0149    1.4791   -0.0037 H   0  0  0  0  0  0  0  0  0  0  0  0
    0.5440    0.7852   -2.5436 H   0  0  0  0  0  0  0  0  0  0  0  0
   -1.7033    3.4901   -2.7185 H   0  0  0  0  0  0  0  0  0  0  0  0
   -2.9837    4.1478   -4.7145 H   0  0  0  0  0  0  0  0  0  0  0  0
   -3.0371    2.6747   -6.6857 H   0  0  0  0  0  0  0  0  0  0  0  0
   -1.8045    0.5449   -6.6698 H   0  0  0  0  0  0  0  0  0  0  0  0
    0.1329   -0.6502   -3.6920 H   0  0  0  0  0  0  0  0  0  0  0  0
   -1.6933   -1.4708   -5.9960 H   0  0  0  0  0  0  0  0  0  0  0  0
   -0.7147   -2.5770   -5.0026 H   0  0  0  0  0  0  0  0  0  0  0  0
   -2.0549   -1.6675   -4.2643 H   0  0  0  0  0  0  0  0  0  0  0  0
    1.4987    0.3764   -5.4890 H   0  0  0  0  0  0  0  0  0  0  0  0
    1.3605   -1.3834   -5.7178 H   0  0  0  0  0  0  0  0  0  0  0  0
    0.3818   -0.2772   -6.7112 H   0  0  0  0  0  0  0  0  0  0  0  0
  1  2  1  0  0  0  0
  1 24  1  0  0  0  0
  1 25  1  0  0  0  0
  1 26  1  0  0  0  0
  2  3  2  0  0  0  0
  2  9  1  0  0  0  0
  3 27  1  0  0  0  0
  3  4  1  0  0  0  0
  4  6  2  0  0  0  0
  4  5  1  0  0  0  0
  5  7  1  0  0  0  0
  6  8  1  0  0  0  0
  8 10  1  0  0  0  0
  8  9  2  0  0  0  0
 10 11  1  0  0  0  0
 11 12  1  0  0  0  0
 11 28  1  0  0  0  0
 11 29  1  0  0  0  0
 12 13  2  0  0  0  0
 12 14  1  0  0  0  0
 14 15  1  0  0  0  0
 14 30  1  0  0  0  0
 15 20  2  0  0  0  0
 15 16  1  0  0  0  0
 16 17  2  0  0  0  0
 16 31  1  0  0  0  0
 17 18  1  0  0  0  0
 17 32  1  0  0  0  0
 18 19  2  0  0  0  0
 18 33  1  0  0  0  0
 19 20  1  0  0  0  0
 19 34  1  0  0  0  0
 20 21  1  0  0  0  0
 21 22  1  0  0  0  0
 21 23  1  0  0  0  0
 21 35  1  0  0  0  0
 22 36  1  0  0  0  0
 22 37  1  0  0  0  0
 22 38  1  0  0  0  0
 23 39  1  0  0  0  0
 23 40  1  0  0  0  0
 23 41  1  0  0  0  0
M  END
$$$$
ZINC03234684
  -OEChem-08230709453D

 41 42  0     0  0  0  0  0  0999 V2000
    3.2270   -1.0987    2.8291 C   0  0  0  0  0  0  0  0  0  0  0  0
    2.0417   -0.2831    3.2775 C   0  0  0  0  0  0  0  0  0  0  0  0
    1.7994   -0.1088    4.6095 C   0  0  0  0  0  0  0  0  0  0  0  0
    0.6902    0.6598    5.0039 C   0  0  0  0  0  0  0  0  0  0  0  0
    0.4418    0.8318    6.1859 O   0  0  0  0  0  0  0  0  0  0  0  0
   -0.1000    1.1965    4.0496 N   0  0  0  0  0  0  0  0  0  0  0  0
    1.1289    0.3646    6.7423 H   0  0  0  0  0  0  0  0  0  0  0  0
    0.1884    0.9850    2.7355 C   0  0  0  0  0  0  0  0  0  0  0  0
    1.2335    0.2656    2.3742 N   0  0  0  0  0  0  0  0  0  0  0  0
   -0.8519    1.6840    1.4971 S   0  0  0  0  0  0  0  0  0  0  0  0
   -0.0060    1.0974    0.0083 C   0  0  0  0  0  0  0  0  0  0  0  0
   -0.7402    1.5882   -1.2129 C   0  0  0  0  0  0  0  0  0  0  0  0
   -1.7372    2.2676   -1.0888 O   0  0  0  0  0  0  0  0  0  0  0  0
   -0.2889    1.2721   -2.4429 N   0  0  0  0  0  0  0  0  0  0  0  0
   -1.0217    1.6463   -3.5746 C   0  0  0  0  0  0  0  0  0  0  0  0
   -1.7228    2.8453   -3.5846 C   0  0  0  0  0  0  0  0  0  0  0  0
   -2.4411    3.2140   -4.7049 C   0  0  0  0  0  0  0  0  0  0  0  0
   -2.4712    2.3861   -5.8123 C   0  0  0  0  0  0  0  0  0  0  0  0
   -1.7787    1.1894   -5.8035 C   0  0  0  0  0  0  0  0  0  0  0  0
   -1.0543    0.8171   -4.6879 C   0  0  0  0  0  0  0  0  0  0  0  0
   -0.3006   -0.4878   -4.6788 C   0  0  0  0  0  0  0  0  0  0  0  0
   -1.2598   -1.6331   -5.0092 C   0  0  0  0  0  0  0  0  0  0  0  0
    0.8153   -0.4395   -5.7244 C   0  0  0  0  0  0  0  0  0  0  0  0
    3.2579   -1.1265    1.7399 H   0  0  0  0  0  0  0  0  0  0  0  0
    4.1437   -0.6457    3.2071 H   0  0  0  0  0  0  0  0  0  0  0  0
    3.1370   -2.1137    3.2161 H   0  0  0  0  0  0  0  0  0  0  0  0
    2.4511   -0.5512    5.3484 H   0  0  0  0  0  0  0  0  0  0  0  0
    0.0135    0.0076    0.0070 H   0  0  0  0  0  0  0  0  0  0  0  0
    1.0149    1.4791   -0.0037 H   0  0  0  0  0  0  0  0  0  0  0  0
    0.5440    0.7852   -2.5436 H   0  0  0  0  0  0  0  0  0  0  0  0
   -1.7033    3.4901   -2.7185 H   0  0  0  0  0  0  0  0  0  0  0  0
   -2.9837    4.1478   -4.7145 H   0  0  0  0  0  0  0  0  0  0  0  0
   -3.0371    2.6747   -6.6857 H   0  0  0  0  0  0  0  0  0  0  0  0
   -1.8045    0.5449   -6.6698 H   0  0  0  0  0  0  0  0  0  0  0  0
    0.1329   -0.6502   -3.6920 H   0  0  0  0  0  0  0  0  0  0  0  0
   -1.6933   -1.4708   -5.9960 H   0  0  0  0  0  0  0  0  0  0  0  0
   -0.7147   -2.5770   -5.0026 H   0  0  0  0  0  0  0  0  0  0  0  0
   -2.0549   -1.6675   -4.2643 H   0  0  0  0  0  0  0  0  0  0  0  0
    1.4987    0.3764   -5.4890 H   0  0  0  0  0  0  0  0  0  0  0  0
    1.3605   -1.3834   -5.7178 H   0  0  0  0  0  0  0  0  0  0  0  0
    0.3818   -0.2772   -6.7112 H   0  0  0  0  0  0  0  0  0  0  0  0
  1  2  1  0  0  0  0
  1 24  1  0  0  0  0
  1 25  1  0  0  0  0
  1 26  1  0  0  0  0
  2  3  2  0  0  0  0
  2  9  1  0  0  0  0
  3 27  1  0  0  0  0
  3  4  1  0  0  0  0
  4  6  2  0  0  0  0
  4  5  1  0  0  0  0
  5  7  1  0  0  0  0
  6  8  1  0  0  0  0
  8 10  1  0  0  0  0
  8  9  2  0  0  0  0
 10 11  1  0  0  0  0
 11 12  1  0  0  0  0
 11 28  1  0  0  0  0
 11 29  1  0  0  0  0
 12 13  2  0  0  0  0
 12 14  1  0  0  0  0
 14 15  1  0  0  0  0
 14 30  1  0  0  0  0
 15 20  2  0  0  0  0
 15 16  1  0  0  0  0
 16 17  2  0  0  0  0
 16 31  1  0  0  0  0
 17 18  1  0  0  0  0
 17 32  1  0  0  0  0
 18 19  2  0  0  0  0
 18 33  1  0  0  0  0
 19 20  1  0  0  0  0
 19 34  1  0  0  0  0
 20 21  1  0  0  0  0
 21 22  1  0  0  0  0
 21 23  1  0  0  0  0
 21 35  1  0  0  0  0
 22 36  1  0  0  0  0
 22 37  1  0  0  0  0
 22 38  1  0  0  0  0
 23 39  1  0  0  0  0
 23 40  1  0  0  0  0
 23 41  1  0  0  0  0
M  END
$$$$
ZINC03241426
  -OEChem-08230709453D

 42 44  0     1  0  0  0  0  0999 V2000
   -4.4342   10.8032   -4.8005 C   0  0  0  0  0  0  0  0  0  0  0  0
   -4.6607   12.1212   -5.1502 C   0  0  0  0  0  0  0  0  0  0  0  0
   -3.6613   12.8561   -5.7601 C   0  0  0  0  0  0  0  0  0  0  0  0
   -2.4339   12.2742   -6.0165 C   0  0  0  0  0  0  0  0  0  0  0  0
   -2.2056   10.9577   -5.6620 C   0  0  0  0  0  0  0  0  0  0  0  0
   -3.2049   10.2230   -5.0517 C   0  0  0  0  0  0  0  0  0  0  0  0
   -2.9562    8.7876   -4.6657 C   0  0  1  0  0  0  0  0  0  0  0  0
   -2.1135    8.3985   -5.2372 H   0  0  0  0  0  0  0  0  0  0  0  0
   -2.6384    8.7091   -3.1711 C   0  0  0  0  0  0  0  0  0  0  0  0
   -2.2801    7.3328   -2.8197 N   0  0  0  0  0  0  0  0  0  0  0  0
   -1.9591    7.0239   -1.5477 C   0  0  0  0  0  0  0  0  0  0  0  0
   -1.9669    7.8883   -0.6910 O   0  0  0  0  0  0  0  0  0  0  0  0
   -1.6005    5.6468   -1.1961 C   0  0  0  0  0  0  0  0  0  0  0  0
   -1.2437    5.1256    0.0338 C   0  0  0  0  0  0  0  0  0  0  0  0
   -0.9466    3.7746    0.1106 C   0  0  0  0  0  0  0  0  0  0  0  0
   -1.0309    3.0593   -1.0499 C   0  0  0  0  0  0  0  0  0  0  0  0
   -1.5110    4.2044   -2.2436 S   0  0  0  0  0  0  0  0  0  0  0  0
   -0.7612    1.5974   -1.2312 C   0  0  0  0  0  0  0  0  0  0  0  0
   -0.0127    1.0858    0.0080 C   0  0  0  0  0  0  0  0  0  0  0  0
   -0.7354    1.5826    1.2633 C   0  0  0  0  0  0  0  0  0  0  0  0
   -0.5423    3.0911    1.4143 C   0  0  0  0  0  0  0  0  0  0  0  0
   -4.1218    8.0101   -4.9464 O   0  0  0  0  0  0  0  0  0  0  0  0
   -3.9056   14.2659   -6.1392 N   0  3  0  0  0  0  0  0  0  0  0  0
   -3.0251   14.9133   -6.6770 O   0  0  0  0  0  0  0  0  0  0  0  0
   -4.9871   14.7787   -5.9133 O   0  5  0  0  0  0  0  0  0  0  0  0
   -5.2164   10.2278   -4.3277 H   0  0  0  0  0  0  0  0  0  0  0  0
   -5.6198   12.5758   -4.9502 H   0  0  0  0  0  0  0  0  0  0  0  0
   -1.6532   12.8482   -6.4933 H   0  0  0  0  0  0  0  0  0  0  0  0
   -1.2467   10.5030   -5.8623 H   0  0  0  0  0  0  0  0  0  0  0  0
   -3.5133    9.0146   -2.5972 H   0  0  0  0  0  0  0  0  0  0  0  0
   -1.8039    9.3717   -2.9418 H   0  0  0  0  0  0  0  0  0  0  0  0
   -2.2738    6.6438   -3.5025 H   0  0  0  0  0  0  0  0  0  0  0  0
   -1.1974    5.7545    0.9106 H   0  0  0  0  0  0  0  0  0  0  0  0
   -0.1482    1.4445   -2.1195 H   0  0  0  0  0  0  0  0  0  0  0  0
   -1.7039    1.0607   -1.3383 H   0  0  0  0  0  0  0  0  0  0  0  0
    0.0021   -0.0041    0.0020 H   0  0  0  0  0  0  0  0  0  0  0  0
    1.0091    1.4652    0.0003 H   0  0  0  0  0  0  0  0  0  0  0  0
   -1.7997    1.3632    1.1788 H   0  0  0  0  0  0  0  0  0  0  0  0
   -0.3309    1.0746    2.1387 H   0  0  0  0  0  0  0  0  0  0  0  0
    0.5052    3.3030    1.6284 H   0  0  0  0  0  0  0  0  0  0  0  0
   -1.1656    3.4602    2.2288 H   0  0  0  0  0  0  0  0  0  0  0  0
   -4.9122    8.3005   -4.4710 H   0  0  0  0  0  0  0  0  0  0  0  0
  1  6  2  0  0  0  0
  1  2  1  0  0  0  0
  1 26  1  0  0  0  0
  2  3  2  0  0  0  0
  2 27  1  0  0  0  0
  3  4  1  0  0  0  0
  3 23  1  0  0  0  0
  4  5  2  0  0  0  0
  4 28  1  0  0  0  0
  5  6  1  0  0  0  0
  5 29  1  0  0  0  0
  6  7  1  0  0  0  0
  7  8  1  0  0  0  0
  7  9  1  0  0  0  0
  7 22  1  0  0  0  0
  9 10  1  0  0  0  0
  9 30  1  0  0  0  0
  9 31  1  0  0  0  0
 10 11  1  0  0  0  0
 10 32  1  0  0  0  0
 11 12  2  0  0  0  0
 11 13  1  0  0  0  0
 13 17  1  0  0  0  0
 13 14  2  0  0  0  0
 14 15  1  0  0  0  0
 14 33  1  0  0  0  0
 15 21  1  0  0  0  0
 15 16  2  0  0  0  0
 16 17  1  0  0  0  0
 16 18  1  0  0  0  0
 18 19  1  0  0  0  0
 18 34  1  0  0  0  0
 18 35  1  0  0  0  0
 19 20  1  0  0  0  0
 19 36  1  0  0  0  0
 19 37  1  0  0  0  0
 20 21  1  0  0  0  0
 20 38  1  0  0  0  0
 20 39  1  0  0  0  0
 21 40  1  0  0  0  0
 21 41  1  0  0  0  0
 22 42  1  0  0  0  0
 23 24  2  0  0  0  0
 23 25  1  0  0  0  0
M  CHG  2  23   1  25  -1
M  END
$$$$
ZINC03241427
  -OEChem-08230709453D

 42 44  0     1  0  0  0  0  0999 V2000
   -2.3344   11.1225   -5.3192 C   0  0  0  0  0  0  0  0  0  0  0  0
   -2.6727   12.4199   -5.6555 C   0  0  0  0  0  0  0  0  0  0  0  0
   -4.0011   12.8010   -5.6896 C   0  0  0  0  0  0  0  0  0  0  0  0
   -4.9913   11.8833   -5.3926 C   0  0  0  0  0  0  0  0  0  0  0  0
   -4.6532   10.5845   -5.0614 C   0  0  0  0  0  0  0  0  0  0  0  0
   -3.3248   10.2034   -5.0272 C   0  0  0  0  0  0  0  0  0  0  0  0
   -2.9562    8.7876   -4.6657 C   0  0  2  0  0  0  0  0  0  0  0  0
   -3.7907    8.1250   -4.8950 H   0  0  0  0  0  0  0  0  0  0  0  0
   -2.6384    8.7091   -3.1711 C   0  0  0  0  0  0  0  0  0  0  0  0
   -2.2801    7.3328   -2.8197 N   0  0  0  0  0  0  0  0  0  0  0  0
   -1.9591    7.0239   -1.5477 C   0  0  0  0  0  0  0  0  0  0  0  0
   -1.9669    7.8883   -0.6910 O   0  0  0  0  0  0  0  0  0  0  0  0
   -1.6005    5.6468   -1.1961 C   0  0  0  0  0  0  0  0  0  0  0  0
   -1.2437    5.1256    0.0338 C   0  0  0  0  0  0  0  0  0  0  0  0
   -0.9466    3.7746    0.1106 C   0  0  0  0  0  0  0  0  0  0  0  0
   -1.0309    3.0593   -1.0499 C   0  0  0  0  0  0  0  0  0  0  0  0
   -1.5110    4.2044   -2.2436 S   0  0  0  0  0  0  0  0  0  0  0  0
   -0.7612    1.5974   -1.2312 C   0  0  0  0  0  0  0  0  0  0  0  0
   -0.0127    1.0858    0.0080 C   0  0  0  0  0  0  0  0  0  0  0  0
   -0.7354    1.5826    1.2633 C   0  0  0  0  0  0  0  0  0  0  0  0
   -0.5423    3.0911    1.4143 C   0  0  0  0  0  0  0  0  0  0  0  0
   -1.8093    8.3871   -5.4182 O   0  0  0  0  0  0  0  0  0  0  0  0
   -4.3631   14.1918   -6.0438 N   0  3  0  0  0  0  0  0  0  0  0  0
   -5.5335   14.5277   -6.0735 O   0  0  0  0  0  0  0  0  0  0  0  0
   -3.4906   15.0004   -6.3055 O   0  5  0  0  0  0  0  0  0  0  0  0
   -1.2964   10.8259   -5.2882 H   0  0  0  0  0  0  0  0  0  0  0  0
   -1.8991   13.1369   -5.8873 H   0  0  0  0  0  0  0  0  0  0  0  0
   -6.0291   12.1812   -5.4189 H   0  0  0  0  0  0  0  0  0  0  0  0
   -5.4268    9.8677   -4.8289 H   0  0  0  0  0  0  0  0  0  0  0  0
   -3.5133    9.0146   -2.5972 H   0  0  0  0  0  0  0  0  0  0  0  0
   -1.8039    9.3717   -2.9418 H   0  0  0  0  0  0  0  0  0  0  0  0
   -2.2738    6.6438   -3.5025 H   0  0  0  0  0  0  0  0  0  0  0  0
   -1.1974    5.7545    0.9106 H   0  0  0  0  0  0  0  0  0  0  0  0
   -0.1482    1.4445   -2.1195 H   0  0  0  0  0  0  0  0  0  0  0  0
   -1.7039    1.0607   -1.3383 H   0  0  0  0  0  0  0  0  0  0  0  0
    0.0021   -0.0041    0.0020 H   0  0  0  0  0  0  0  0  0  0  0  0
    1.0091    1.4652    0.0003 H   0  0  0  0  0  0  0  0  0  0  0  0
   -1.7997    1.3632    1.1788 H   0  0  0  0  0  0  0  0  0  0  0  0
   -0.3309    1.0746    2.1387 H   0  0  0  0  0  0  0  0  0  0  0  0
    0.5052    3.3030    1.6284 H   0  0  0  0  0  0  0  0  0  0  0  0
   -1.1656    3.4602    2.2288 H   0  0  0  0  0  0  0  0  0  0  0  0
   -1.0269    8.9340   -5.2637 H   0  0  0  0  0  0  0  0  0  0  0  0
  1  6  2  0  0  0  0
  1  2  1  0  0  0  0
  1 26  1  0  0  0  0
  2  3  2  0  0  0  0
  2 27  1  0  0  0  0
  3  4  1  0  0  0  0
  3 23  1  0  0  0  0
  4  5  2  0  0  0  0
  4 28  1  0  0  0  0
  5  6  1  0  0  0  0
  5 29  1  0  0  0  0
  6  7  1  0  0  0  0
  7  8  1  0  0  0  0
  7  9  1  0  0  0  0
  7 22  1  0  0  0  0
  9 10  1  0  0  0  0
  9 30  1  0  0  0  0
  9 31  1  0  0  0  0
 10 11  1  0  0  0  0
 10 32  1  0  0  0  0
 11 12  2  0  0  0  0
 11 13  1  0  0  0  0
 13 17  1  0  0  0  0
 13 14  2  0  0  0  0
 14 15  1  0  0  0  0
 14 33  1  0  0  0  0
 15 21  1  0  0  0  0
 15 16  2  0  0  0  0
 16 17  1  0  0  0  0
 16 18  1  0  0  0  0
 18 19  1  0  0  0  0
 18 34  1  0  0  0  0
 18 35  1  0  0  0  0
 19 20  1  0  0  0  0
 19 36  1  0  0  0  0
 19 37  1  0  0  0  0
 20 21  1  0  0  0  0
 20 38  1  0  0  0  0
 20 39  1  0  0  0  0
 21 40  1  0  0  0  0
 21 41  1  0  0  0  0
 22 42  1  0  0  0  0
 23 24  2  0  0  0  0
 23 25  1  0  0  0  0
M  CHG  2  23   1  25  -1
M  END
$$$$
ZINC03243041
  -OEChem-08230709453D

 41 42  0     0  0  0  0  0  0999 V2000
    1.1432    3.5928   -0.0155 C   0  0  0  0  0  0  0  0  0  0  0  0
    1.1682    2.0860   -0.0167 C   0  0  0  0  0  0  0  0  0  0  0  0
    2.1113    1.4123   -0.7709 C   0  0  0  0  0  0  0  0  0  0  0  0
    2.1370    0.0314   -0.7742 C   0  0  0  0  0  0  0  0  0  0  0  0
    1.2143   -0.6805   -0.0189 C   0  0  0  0  0  0  0  0  0  0  0  0
    0.2684   -0.0009    0.7374 C   0  0  0  0  0  0  0  0  0  0  0  0
    0.2481    1.3801    0.7364 C   0  0  0  0  0  0  0  0  0  0  0  0
    1.2373   -2.0795   -0.0204 N   0  0  0  0  0  0  0  0  0  0  0  0
    2.4096   -2.7341   -0.1369 C   0  0  0  0  0  0  0  0  0  0  0  0
    3.4521   -2.1143   -0.1440 O   0  0  0  0  0  0  0  0  0  0  0  0
    2.4252   -4.2361   -0.2581 C   0  0  0  0  0  0  0  0  0  0  0  0
    3.7970   -4.6985   -0.3700 O   0  0  0  0  0  0  0  0  0  0  0  0
    3.9872   -6.0279   -0.4869 C   0  0  0  0  0  0  0  0  0  0  0  0
    3.0323   -6.7800   -0.4952 O   0  0  0  0  0  0  0  0  0  0  0  0
    5.3498   -6.5683   -0.6046 C   0  0  0  0  0  0  0  0  0  0  0  0
    6.4514   -5.7043   -0.5954 C   0  0  0  0  0  0  0  0  0  0  0  0
    7.7160   -6.2066   -0.7046 C   0  0  0  0  0  0  0  0  0  0  0  0
    7.9202   -7.5812   -0.8255 C   0  0  0  0  0  0  0  0  0  0  0  0
    6.8372   -8.4510   -0.8361 C   0  0  0  0  0  0  0  0  0  0  0  0
    5.5511   -7.9531   -0.7207 C   0  0  0  0  0  0  0  0  0  0  0  0
    4.4899   -8.7982   -0.7249 O   0  0  0  0  0  0  0  0  0  0  0  0
    4.7724  -10.1937   -0.8463 C   0  0  0  0  0  0  0  0  0  0  0  0
    9.2128   -8.0827   -0.9362 N   0  0  0  0  0  0  0  0  0  0  0  0
    9.0772   -5.1292   -0.6925 Cl  0  0  0  0  0  0  0  0  0  0  0  0
    0.4909    3.9460   -0.8142 H   0  0  0  0  0  0  0  0  0  0  0  0
    0.7684    3.9492    0.9440 H   0  0  0  0  0  0  0  0  0  0  0  0
    2.1521    3.9731   -0.1754 H   0  0  0  0  0  0  0  0  0  0  0  0
    2.8315    1.9666   -1.3546 H   0  0  0  0  0  0  0  0  0  0  0  0
    2.8736   -0.4942   -1.3637 H   0  0  0  0  0  0  0  0  0  0  0  0
   -0.4507   -0.5517    1.3255 H   0  0  0  0  0  0  0  0  0  0  0  0
   -0.4870    1.9092    1.3247 H   0  0  0  0  0  0  0  0  0  0  0  0
    0.4094   -2.5783    0.0623 H   0  0  0  0  0  0  0  0  0  0  0  0
    1.9642   -4.6768    0.6259 H   0  0  0  0  0  0  0  0  0  0  0  0
    1.8676   -4.5348   -1.1458 H   0  0  0  0  0  0  0  0  0  0  0  0
    6.3005   -4.6390   -0.5022 H   0  0  0  0  0  0  0  0  0  0  0  0
    6.9988   -9.5147   -0.9302 H   0  0  0  0  0  0  0  0  0  0  0  0
    5.3970  -10.5120   -0.0116 H   0  0  0  0  0  0  0  0  0  0  0  0
    3.8385  -10.7557   -0.8363 H   0  0  0  0  0  0  0  0  0  0  0  0
    5.2972  -10.3779   -1.7837 H   0  0  0  0  0  0  0  0  0  0  0  0
    9.9703   -7.4769   -0.9293 H   0  0  0  0  0  0  0  0  0  0  0  0
    9.3567   -9.0383   -1.0203 H   0  0  0  0  0  0  0  0  0  0  0  0
  1  2  1  0  0  0  0
  1 25  1  0  0  0  0
  1 26  1  0  0  0  0
  1 27  1  0  0  0  0
  2  7  2  0  0  0  0
  2  3  1  0  0  0  0
  3  4  2  0  0  0  0
  3 28  1  0  0  0  0
  4  5  1  0  0  0  0
  4 29  1  0  0  0  0
  5  6  2  0  0  0  0
  5  8  1  0  0  0  0
  6  7  1  0  0  0  0
  6 30  1  0  0  0  0
  7 31  1  0  0  0  0
  8  9  1  0  0  0  0
  8 32  1  0  0  0  0
  9 10  2  0  0  0  0
  9 11  1  0  0  0  0
 11 12  1  0  0  0  0
 11 33  1  0  0  0  0
 11 34  1  0  0  0  0
 12 13  1  0  0  0  0
 13 14  2  0  0  0  0
 13 15  1  0  0  0  0
 15 20  2  0  0  0  0
 15 16  1  0  0  0  0
 16 17  2  0  0  0  0
 16 35  1  0  0  0  0
 17 18  1  0  0  0  0
 17 24  1  0  0  0  0
 18 19  2  0  0  0  0
 18 23  1  0  0  0  0
 19 20  1  0  0  0  0
 19 36  1  0  0  0  0
 20 21  1  0  0  0  0
 21 22  1  0  0  0  0
 22 37  1  0  0  0  0
 22 38  1  0  0  0  0
 22 39  1  0  0  0  0
 23 40  1  0  0  0  0
 23 41  1  0  0  0  0
M  END
$$$$
ZINC03246454
  -OEChem-08230709453D

 49 51  0     0  0  0  0  0  0999 V2000
    1.4761    4.5373  -11.3746 C   0  0  0  0  0  0  0  0  0  0  0  0
    0.3088    4.9498  -10.7597 C   0  0  0  0  0  0  0  0  0  0  0  0
    0.3624    5.8259   -9.6918 C   0  0  0  0  0  0  0  0  0  0  0  0
    1.5834    6.2894   -9.2387 C   0  0  0  0  0  0  0  0  0  0  0  0
    2.7504    5.8811   -9.8570 C   0  0  0  0  0  0  0  0  0  0  0  0
    2.6971    5.0009  -10.9216 C   0  0  0  0  0  0  0  0  0  0  0  0
    1.6418    7.2448   -8.0747 C   0  0  0  0  0  0  0  0  0  0  0  0
    1.7425    6.4867   -6.8252 N   0  0  0  0  0  0  0  0  0  0  0  0
    0.5981    6.1019   -6.1642 C   0  0  0  0  0  0  0  0  0  0  0  0
    0.7030    5.3981   -4.9953 C   0  0  0  0  0  0  0  0  0  0  0  0
    1.9815    5.0763   -4.5053 C   0  0  0  0  0  0  0  0  0  0  0  0
    2.1002    4.4458   -3.4680 O   0  0  0  0  0  0  0  0  0  0  0  0
    3.0744    5.4694   -5.1885 N   0  0  0  0  0  0  0  0  0  0  0  0
    3.9841    5.2418   -4.8412 H   0  0  0  0  0  0  0  0  0  0  0  0
    2.9531    6.1652   -6.3335 C   0  0  0  0  0  0  0  0  0  0  0  0
    3.9533    6.5095   -6.9334 O   0  0  0  0  0  0  0  0  0  0  0  0
   -0.4569    4.9952   -4.2936 N   0  0  0  0  0  0  0  0  0  0  0  0
   -0.1043    4.2510   -3.0771 C   0  0  0  0  0  0  0  0  0  0  0  0
   -1.3821    3.8330   -2.3467 C   0  0  0  0  0  0  0  0  0  0  0  0
   -1.0204    3.0696   -1.0987 C   0  0  0  0  0  0  0  0  0  0  0  0
   -0.9522    3.7251    0.0154 C   0  0  0  0  0  0  0  0  0  0  0  0
   -0.5951    3.1057    1.3349 C   0  0  0  0  0  0  0  0  0  0  0  0
   -0.7392    1.5847    1.2635 C   0  0  0  0  0  0  0  0  0  0  0  0
   -0.0127    1.0858    0.0080 C   0  0  0  0  0  0  0  0  0  0  0  0
   -0.7612    1.5969   -1.2250 C   0  0  0  0  0  0  0  0  0  0  0  0
   -0.6395    6.4263   -6.6711 N   0  0  0  0  0  0  0  0  0  0  0  0
    1.4342    3.8532  -12.2093 H   0  0  0  0  0  0  0  0  0  0  0  0
   -0.6451    4.5879  -11.1139 H   0  0  0  0  0  0  0  0  0  0  0  0
   -0.5496    6.1484   -9.2116 H   0  0  0  0  0  0  0  0  0  0  0  0
    3.7040    6.2467   -9.5058 H   0  0  0  0  0  0  0  0  0  0  0  0
    3.6090    4.6790  -11.4023 H   0  0  0  0  0  0  0  0  0  0  0  0
    0.7377    7.8535   -8.0586 H   0  0  0  0  0  0  0  0  0  0  0  0
    2.5132    7.8913   -8.1787 H   0  0  0  0  0  0  0  0  0  0  0  0
   -1.0673    4.4520   -4.8856 H   0  0  0  0  0  0  0  0  0  0  0  0
    0.4963    4.8849   -2.4247 H   0  0  0  0  0  0  0  0  0  0  0  0
    0.4669    3.3629   -3.3472 H   0  0  0  0  0  0  0  0  0  0  0  0
   -1.9827    3.1992   -2.9990 H   0  0  0  0  0  0  0  0  0  0  0  0
   -1.9533    4.7212   -2.0766 H   0  0  0  0  0  0  0  0  0  0  0  0
   -1.1660    4.7835   -0.0058 H   0  0  0  0  0  0  0  0  0  0  0  0
    0.4362    3.3559    1.5841 H   0  0  0  0  0  0  0  0  0  0  0  0
   -1.2580    3.4946    2.1078 H   0  0  0  0  0  0  0  0  0  0  0  0
   -1.7956    1.3229    1.2039 H   0  0  0  0  0  0  0  0  0  0  0  0
   -0.2951    1.1298    2.1489 H   0  0  0  0  0  0  0  0  0  0  0  0
    0.0021   -0.0041    0.0020 H   0  0  0  0  0  0  0  0  0  0  0  0
    1.0088    1.4661    0.0003 H   0  0  0  0  0  0  0  0  0  0  0  0
   -0.1604    1.4108   -2.1152 H   0  0  0  0  0  0  0  0  0  0  0  0
   -1.7118    1.0711   -1.3142 H   0  0  0  0  0  0  0  0  0  0  0  0
   -1.4429    6.1559   -6.1995 H   0  0  0  0  0  0  0  0  0  0  0  0
   -0.7084    6.9253   -7.5000 H   0  0  0  0  0  0  0  0  0  0  0  0
  1  6  2  0  0  0  0
  1  2  1  0  0  0  0
  1 27  1  0  0  0  0
  2  3  2  0  0  0  0
  2 28  1  0  0  0  0
  3  4  1  0  0  0  0
  3 29  1  0  0  0  0
  4  5  2  0  0  0  0
  4  7  1  0  0  0  0
  5  6  1  0  0  0  0
  5 30  1  0  0  0  0
  6 31  1  0  0  0  0
  7  8  1  0  0  0  0
  7 32  1  0  0  0  0
  7 33  1  0  0  0  0
  8 15  1  0  0  0  0
  8  9  1  0  0  0  0
  9 10  2  0  0  0  0
  9 26  1  0  0  0  0
 10 11  1  0  0  0  0
 10 17  1  0  0  0  0
 11 12  2  0  0  0  0
 11 13  1  0  0  0  0
 13 14  1  0  0  0  0
 13 15  1  0  0  0  0
 15 16  2  0  0  0  0
 17 18  1  0  0  0  0
 17 34  1  0  0  0  0
 18 19  1  0  0  0  0
 18 35  1  0  0  0  0
 18 36  1  0  0  0  0
 19 20  1  0  0  0  0
 19 37  1  0  0  0  0
 19 38  1  0  0  0  0
 20 25  1  0  0  0  0
 20 21  2  0  0  0  0
 21 22  1  0  0  0  0
 21 39  1  0  0  0  0
 22 23  1  0  0  0  0
 22 40  1  0  0  0  0
 22 41  1  0  0  0  0
 23 24  1  0  0  0  0
 23 42  1  0  0  0  0
 23 43  1  0  0  0  0
 24 25  1  0  0  0  0
 24 44  1  0  0  0  0
 24 45  1  0  0  0  0
 25 46  1  0  0  0  0
 25 47  1  0  0  0  0
 26 48  1  0  0  0  0
 26 49  1  0  0  0  0
M  END
$$$$
ZINC03247891
  -OEChem-08230709453D

 42 43  0     0  0  0  0  0  0999 V2000
    0.1052   -2.8505   -0.0133 C   0  0  0  0  0  0  0  0  0  0  0  0
    1.2475   -2.1628   -0.0210 C   0  0  0  0  0  0  0  0  0  0  0  0
    1.2206   -0.6819   -0.0132 C   0  0  0  0  0  0  0  0  0  0  0  0
    0.0021   -0.0041    0.0020 C   0  0  0  0  0  0  0  0  0  0  0  0
   -0.0166    1.3757    0.0096 C   0  0  0  0  0  0  0  0  0  0  0  0
    1.1702    2.0864    0.0021 C   0  0  0  0  0  0  0  0  0  0  0  0
    2.3821    1.4195   -0.0130 C   0  0  0  0  0  0  0  0  0  0  0  0
    2.4136    0.0400   -0.0207 C   0  0  0  0  0  0  0  0  0  0  0  0
    1.1433    3.5664    0.0103 N   0  3  0  0  0  0  0  0  0  0  0  0
    0.0776    4.1560    0.0236 O   0  0  0  0  0  0  0  0  0  0  0  0
    2.1868    4.1945    0.0037 O   0  5  0  0  0  0  0  0  0  0  0  0
    2.4684   -2.8383   -0.0362 N   0  0  0  0  0  0  0  0  0  0  0  0
    2.4939   -4.2391   -0.0435 N   0  0  0  0  0  0  0  0  0  0  0  0
    3.6731   -4.8915   -0.0583 C   0  0  0  0  0  0  0  0  0  0  0  0
    3.7043   -6.6032   -0.0672 S   0  0  0  0  0  0  0  0  0  0  0  0
    4.8278   -4.1965   -0.0660 N   0  0  0  0  0  0  0  0  0  0  0  0
    6.1096   -4.9057   -0.0820 C   0  0  0  0  0  0  0  0  0  0  0  0
    6.5089   -5.2698    1.3494 C   0  0  0  0  0  0  0  0  0  0  0  0
    7.8476   -6.0105    1.3326 C   0  0  0  0  0  0  0  0  0  0  0  0
    8.9208   -5.1104    0.7171 C   0  0  0  0  0  0  0  0  0  0  0  0
    8.5215   -4.7463   -0.7143 C   0  0  0  0  0  0  0  0  0  0  0  0
    7.1828   -4.0056   -0.6976 C   0  0  0  0  0  0  0  0  0  0  0  0
    0.1248   -3.9303   -0.0189 H   0  0  0  0  0  0  0  0  0  0  0  0
   -0.8398   -2.3277   -0.0015 H   0  0  0  0  0  0  0  0  0  0  0  0
   -0.9251   -0.5578    0.0082 H   0  0  0  0  0  0  0  0  0  0  0  0
   -0.9598    1.9018    0.0169 H   0  0  0  0  0  0  0  0  0  0  0  0
    3.3055    1.9797   -0.0188 H   0  0  0  0  0  0  0  0  0  0  0  0
    3.3604   -0.4796   -0.0322 H   0  0  0  0  0  0  0  0  0  0  0  0
    3.2994   -2.3381   -0.0418 H   0  0  0  0  0  0  0  0  0  0  0  0
    1.6629   -4.7393   -0.0380 H   0  0  0  0  0  0  0  0  0  0  0  0
    4.8101   -3.2266   -0.0609 H   0  0  0  0  0  0  0  0  0  0  0  0
    6.0142   -5.8152   -0.6751 H   0  0  0  0  0  0  0  0  0  0  0  0
    6.6043   -4.3603    1.9425 H   0  0  0  0  0  0  0  0  0  0  0  0
    5.7443   -5.9111    1.7879 H   0  0  0  0  0  0  0  0  0  0  0  0
    7.7522   -6.9200    0.7395 H   0  0  0  0  0  0  0  0  0  0  0  0
    8.1320   -6.2699    2.3524 H   0  0  0  0  0  0  0  0  0  0  0  0
    9.8745   -5.6381    0.7052 H   0  0  0  0  0  0  0  0  0  0  0  0
    9.0162   -4.2009    1.3102 H   0  0  0  0  0  0  0  0  0  0  0  0
    8.4261   -5.6558   -1.3074 H   0  0  0  0  0  0  0  0  0  0  0  0
    9.2861   -4.1050   -1.1528 H   0  0  0  0  0  0  0  0  0  0  0  0
    6.8983   -3.7462   -1.7173 H   0  0  0  0  0  0  0  0  0  0  0  0
    7.2782   -3.0961   -0.1044 H   0  0  0  0  0  0  0  0  0  0  0  0
  1  2  2  0  0  0  0
  1 23  1  0  0  0  0
  1 24  1  0  0  0  0
  2  3  1  0  0  0  0
  2 12  1  0  0  0  0
  3  8  2  0  0  0  0
  3  4  1  0  0  0  0
  4  5  2  0  0  0  0
  4 25  1  0  0  0  0
  5  6  1  0  0  0  0
  5 26  1  0  0  0  0
  6  7  2  0  0  0  0
  6  9  1  0  0  0  0
  7  8  1  0  0  0  0
  7 27  1  0  0  0  0
  8 28  1  0  0  0  0
  9 10  2  0  0  0  0
  9 11  1  0  0  0  0
 12 13  1  0  0  0  0
 12 29  1  0  0  0  0
 13 14  1  0  0  0  0
 13 30  1  0  0  0  0
 14 15  2  0  0  0  0
 14 16  1  0  0  0  0
 16 17  1  0  0  0  0
 16 31  1  0  0  0  0
 17 22  1  0  0  0  0
 17 18  1  0  0  0  0
 17 32  1  0  0  0  0
 18 19  1  0  0  0  0
 18 33  1  0  0  0  0
 18 34  1  0  0  0  0
 19 20  1  0  0  0  0
 19 35  1  0  0  0  0
 19 36  1  0  0  0  0
 20 21  1  0  0  0  0
 20 37  1  0  0  0  0
 20 38  1  0  0  0  0
 21 22  1  0  0  0  0
 21 39  1  0  0  0  0
 21 40  1  0  0  0  0
 22 41  1  0  0  0  0
 22 42  1  0  0  0  0
M  CHG  2   9   1  11  -1
M  END
$$$$
ZINC03251168
  -OEChem-08230709453D

 45 47  0     0  0  0  0  0  0999 V2000
   -1.9822    1.0085    6.3627 C   0  0  0  0  0  0  0  0  0  0  0  0
   -0.5394    1.4255    6.2382 C   0  0  0  0  0  0  0  0  0  0  0  0
    0.3383    1.1897    7.2817 C   0  0  0  0  0  0  0  0  0  0  0  0
    1.6602    1.5690    7.1741 C   0  0  0  0  0  0  0  0  0  0  0  0
    2.1117    2.1922    6.0095 C   0  0  0  0  0  0  0  0  0  0  0  0
    1.2199    2.4326    4.9634 C   0  0  0  0  0  0  0  0  0  0  0  0
   -0.0984    2.0427    5.0813 C   0  0  0  0  0  0  0  0  0  0  0  0
   -1.0613    2.2955    3.9500 C   0  0  0  0  0  0  0  0  0  0  0  0
    3.5274    2.6014    5.8873 C   0  0  0  0  0  0  0  0  0  0  0  0
    4.1566    3.1852    6.9279 C   0  0  0  0  0  0  0  0  0  0  0  0
    5.7921    3.4674    6.2698 S   0  0  0  0  0  0  0  0  0  0  0  0
    5.5287    2.7789    4.6432 C   0  0  0  0  0  0  0  0  0  0  0  0
    6.3677    2.6736    3.6436 N   0  0  0  0  0  0  0  0  0  0  0  0
    5.9051    2.1668    2.3492 C   0  0  0  0  0  0  0  0  0  0  0  0
    4.2068    2.3890    4.7171 N   0  0  0  0  0  0  0  0  0  0  0  0
    3.5758    1.7845    3.6219 N   0  0  0  0  0  0  0  0  0  0  0  0
    2.9166    0.6769    3.7822 C   0  0  0  0  0  0  0  0  0  0  0  0
    2.3420   -0.0137    2.6150 C   0  0  0  0  0  0  0  0  0  0  0  0
    1.7263   -1.2591    2.7698 C   0  0  0  0  0  0  0  0  0  0  0  0
    1.1889   -1.9032    1.6763 C   0  0  0  0  0  0  0  0  0  0  0  0
    1.2556   -1.3197    0.4177 C   0  0  0  0  0  0  0  0  0  0  0  0
    1.8656   -0.0812    0.2515 C   0  0  0  0  0  0  0  0  0  0  0  0
    2.4152    0.5731    1.3444 C   0  0  0  0  0  0  0  0  0  0  0  0
    3.0175    1.7809    1.1845 O   0  0  0  0  0  0  0  0  0  0  0  0
    1.9283    0.4864   -0.9839 O   0  0  0  0  0  0  0  0  0  0  0  0
    0.7221   -1.9615   -0.6554 O   0  0  0  0  0  0  0  0  0  0  0  0
   -2.5606    1.8255    6.7940 H   0  0  0  0  0  0  0  0  0  0  0  0
   -2.3766    0.7654    5.3761 H   0  0  0  0  0  0  0  0  0  0  0  0
   -2.0530    0.1330    7.0081 H   0  0  0  0  0  0  0  0  0  0  0  0
   -0.0123    0.7075    8.1822 H   0  0  0  0  0  0  0  0  0  0  0  0
    2.3442    1.3844    7.9892 H   0  0  0  0  0  0  0  0  0  0  0  0
    1.5620    2.9185    4.0615 H   0  0  0  0  0  0  0  0  0  0  0  0
   -1.5243    3.2739    4.0787 H   0  0  0  0  0  0  0  0  0  0  0  0
   -0.5233    2.2700    3.0024 H   0  0  0  0  0  0  0  0  0  0  0  0
   -1.8328    1.5255    3.9506 H   0  0  0  0  0  0  0  0  0  0  0  0
    3.7698    3.4220    7.9080 H   0  0  0  0  0  0  0  0  0  0  0  0
    6.7512    2.0873    1.6667 H   0  0  0  0  0  0  0  0  0  0  0  0
    5.4535    1.1840    2.4842 H   0  0  0  0  0  0  0  0  0  0  0  0
    5.1663    2.8522    1.9337 H   0  0  0  0  0  0  0  0  0  0  0  0
    2.7898    0.2623    4.7714 H   0  0  0  0  0  0  0  0  0  0  0  0
    1.6721   -1.7168    3.7465 H   0  0  0  0  0  0  0  0  0  0  0  0
    0.7138   -2.8653    1.7987 H   0  0  0  0  0  0  0  0  0  0  0  0
    2.4375    2.5354    1.3559 H   0  0  0  0  0  0  0  0  0  0  0  0
    1.1725    1.0510   -1.1962 H   0  0  0  0  0  0  0  0  0  0  0  0
    1.3417   -2.5478   -1.1110 H   0  0  0  0  0  0  0  0  0  0  0  0
  1  2  1  0  0  0  0
  1 27  1  0  0  0  0
  1 28  1  0  0  0  0
  1 29  1  0  0  0  0
  2  7  2  0  0  0  0
  2  3  1  0  0  0  0
  3  4  2  0  0  0  0
  3 30  1  0  0  0  0
  4  5  1  0  0  0  0
  4 31  1  0  0  0  0
  5  6  2  0  0  0  0
  5  9  1  0  0  0  0
  6  7  1  0  0  0  0
  6 32  1  0  0  0  0
  7  8  1  0  0  0  0
  8 33  1  0  0  0  0
  8 34  1  0  0  0  0
  8 35  1  0  0  0  0
  9 15  1  0  0  0  0
  9 10  2  0  0  0  0
 10 11  1  0  0  0  0
 10 36  1  0  0  0  0
 11 12  1  0  0  0  0
 12 13  2  0  0  0  0
 12 15  1  0  0  0  0
 13 14  1  0  0  0  0
 14 37  1  0  0  0  0
 14 38  1  0  0  0  0
 14 39  1  0  0  0  0
 15 16  1  0  0  0  0
 16 17  2  0  0  0  0
 17 18  1  0  0  0  0
 17 40  1  0  0  0  0
 18 23  2  0  0  0  0
 18 19  1  0  0  0  0
 19 20  2  0  0  0  0
 19 41  1  0  0  0  0
 20 21  1  0  0  0  0
 20 42  1  0  0  0  0
 21 22  2  0  0  0  0
 21 26  1  0  0  0  0
 22 23  1  0  0  0  0
 22 25  1  0  0  0  0
 23 24  1  0  0  0  0
 24 43  1  0  0  0  0
 25 44  1  0  0  0  0
 26 45  1  0  0  0  0
M  END
$$$$
ZINC03252695
  -OEChem-08230709453D

 46 47  0     0  0  0  0  0  0999 V2000
    3.7540    1.5983    1.8800 C   0  0  0  0  0  0  0  0  0  0  0  0
    3.3660    1.3010    0.4302 C   0  0  0  0  0  0  0  0  0  0  0  0
    2.0963    0.4476    0.4068 C   0  0  0  0  0  0  0  0  0  0  0  0
    1.7083    0.1503   -1.0430 C   0  0  0  0  0  0  0  0  0  0  0  0
    0.4926   -0.6669   -1.0654 N   0  0  0  0  0  0  0  0  0  0  0  0
    0.5870   -2.0736   -1.0122 C   0  0  0  0  0  0  0  0  0  0  0  0
    0.0576   -2.7727    0.0533 C   0  0  0  0  0  0  0  0  0  0  0  0
    0.1604   -4.1443    0.0741 N   0  0  0  0  0  0  0  0  0  0  0  0
    0.7800   -4.7957   -0.9268 C   0  0  0  0  0  0  0  0  0  0  0  0
    0.8652   -6.0081   -0.8872 O   0  0  0  0  0  0  0  0  0  0  0  0
    1.3062   -4.1307   -1.9705 N   0  0  0  0  0  0  0  0  0  0  0  0
    1.7609   -4.6389   -2.7019 H   0  0  0  0  0  0  0  0  0  0  0  0
    1.2278   -2.7875   -2.0421 C   0  0  0  0  0  0  0  0  0  0  0  0
    1.7084   -2.1944   -2.9930 O   0  0  0  0  0  0  0  0  0  0  0  0
   -0.4023   -4.8997    1.1961 C   0  0  0  0  0  0  0  0  0  0  0  0
    0.6401   -5.0491    2.2742 C   0  0  0  0  0  0  0  0  0  0  0  0
    1.4864   -6.1422    2.2706 C   0  0  0  0  0  0  0  0  0  0  0  0
    2.4457   -6.2768    3.2567 C   0  0  0  0  0  0  0  0  0  0  0  0
    2.5519   -5.3238    4.2524 C   0  0  0  0  0  0  0  0  0  0  0  0
    1.7022   -4.2334    4.2590 C   0  0  0  0  0  0  0  0  0  0  0  0
    0.7463   -4.0961    3.2699 C   0  0  0  0  0  0  0  0  0  0  0  0
   -0.5693   -2.1069    1.0791 N   0  0  0  0  0  0  0  0  0  0  0  0
   -0.7175   -0.0741   -1.1369 C   0  0  0  0  0  0  0  0  0  0  0  0
   -1.7194   -0.7507   -1.2396 O   0  0  0  0  0  0  0  0  0  0  0  0
   -0.8246    1.4283   -1.0892 C   0  0  0  0  0  0  0  0  0  0  0  0
   -2.5578    1.9113   -1.2053 Cl  0  0  0  0  0  0  0  0  0  0  0  0
    4.6585    2.2063    1.8967 H   0  0  0  0  0  0  0  0  0  0  0  0
    2.9438    2.1389    2.3694 H   0  0  0  0  0  0  0  0  0  0  0  0
    3.9360    0.6616    2.4068 H   0  0  0  0  0  0  0  0  0  0  0  0
    4.1762    0.7604   -0.0592 H   0  0  0  0  0  0  0  0  0  0  0  0
    3.1840    2.2377   -0.0966 H   0  0  0  0  0  0  0  0  0  0  0  0
    1.2861    0.9882    0.8962 H   0  0  0  0  0  0  0  0  0  0  0  0
    2.2783   -0.4891    0.9336 H   0  0  0  0  0  0  0  0  0  0  0  0
    2.5185   -0.3903   -1.5324 H   0  0  0  0  0  0  0  0  0  0  0  0
    1.5263    1.0870   -1.5698 H   0  0  0  0  0  0  0  0  0  0  0  0
   -1.2651   -4.3672    1.5963 H   0  0  0  0  0  0  0  0  0  0  0  0
   -0.7121   -5.8861    0.8511 H   0  0  0  0  0  0  0  0  0  0  0  0
    1.4005   -6.8890    1.4952 H   0  0  0  0  0  0  0  0  0  0  0  0
    3.1093   -7.1288    3.2518 H   0  0  0  0  0  0  0  0  0  0  0  0
    3.2985   -5.4312    5.0253 H   0  0  0  0  0  0  0  0  0  0  0  0
    1.7849   -3.4890    5.0370 H   0  0  0  0  0  0  0  0  0  0  0  0
    0.0822   -3.2444    3.2752 H   0  0  0  0  0  0  0  0  0  0  0  0
   -0.5479   -1.1377    1.1129 H   0  0  0  0  0  0  0  0  0  0  0  0
   -1.0333   -2.6061    1.7694 H   0  0  0  0  0  0  0  0  0  0  0  0
   -0.4080    1.7927   -0.1502 H   0  0  0  0  0  0  0  0  0  0  0  0
   -0.2708    1.8587   -1.9236 H   0  0  0  0  0  0  0  0  0  0  0  0
  1  2  1  0  0  0  0
  1 27  1  0  0  0  0
  1 28  1  0  0  0  0
  1 29  1  0  0  0  0
  2  3  1  0  0  0  0
  2 30  1  0  0  0  0
  2 31  1  0  0  0  0
  3  4  1  0  0  0  0
  3 32  1  0  0  0  0
  3 33  1  0  0  0  0
  4  5  1  0  0  0  0
  4 34  1  0  0  0  0
  4 35  1  0  0  0  0
  5  6  1  0  0  0  0
  5 23  1  0  0  0  0
  6 13  1  0  0  0  0
  6  7  2  0  0  0  0
  7  8  1  0  0  0  0
  7 22  1  0  0  0  0
  8  9  1  0  0  0  0
  8 15  1  0  0  0  0
  9 10  2  0  0  0  0
  9 11  1  0  0  0  0
 11 12  1  0  0  0  0
 11 13  1  0  0  0  0
 13 14  2  0  0  0  0
 15 16  1  0  0  0  0
 15 36  1  0  0  0  0
 15 37  1  0  0  0  0
 16 21  2  0  0  0  0
 16 17  1  0  0  0  0
 17 18  2  0  0  0  0
 17 38  1  0  0  0  0
 18 19  1  0  0  0  0
 18 39  1  0  0  0  0
 19 20  2  0  0  0  0
 19 40  1  0  0  0  0
 20 21  1  0  0  0  0
 20 41  1  0  0  0  0
 21 42  1  0  0  0  0
 22 43  1  0  0  0  0
 22 44  1  0  0  0  0
 23 24  2  0  0  0  0
 23 25  1  0  0  0  0
 25 26  1  0  0  0  0
 25 45  1  0  0  0  0
 25 46  1  0  0  0  0
M  END
$$$$
ZINC03253469
  -OEChem-08230709453D

 47 50  0     1  0  0  0  0  0999 V2000
   -2.3749    1.4553   -0.7254 C   0  0  0  0  0  0  0  0  0  0  0  0
   -3.5765    2.1271   -0.7141 C   0  0  0  0  0  0  0  0  0  0  0  0
   -3.7211    3.2845    0.0443 C   0  0  0  0  0  0  0  0  0  0  0  0
   -2.6543    3.7640    0.7979 C   0  0  0  0  0  0  0  0  0  0  0  0
   -1.4516    3.0941    0.7952 C   0  0  0  0  0  0  0  0  0  0  0  0
   -1.3029    1.9313    0.0345 C   0  0  0  0  0  0  0  0  0  0  0  0
   -0.0148    1.2108    0.0288 C   0  0  0  0  0  0  0  0  0  0  0  0
    0.9185    1.6289    0.6865 O   0  0  0  0  0  0  0  0  0  0  0  0
    0.1253    0.0864   -0.7009 N   0  0  0  0  0  0  0  0  0  0  0  0
   -4.9378    3.9657    0.0489 N   0  0  0  0  0  0  0  0  0  0  0  0
   -4.9577    5.3088    0.1585 C   0  0  0  0  0  0  0  0  0  0  0  0
   -3.9178    5.9328    0.1568 O   0  0  0  0  0  0  0  0  0  0  0  0
   -6.2722    6.0352    0.2833 C   0  0  0  0  0  0  0  0  0  0  0  0
   -6.0152    7.5396    0.3920 C   0  0  0  0  0  0  0  0  0  0  0  0
   -5.1570    7.8224    1.6267 C   0  0  0  0  0  0  0  0  0  0  0  0
   -4.9000    9.3268    1.7354 C   0  0  1  0  0  0  0  0  0  0  0  0
   -4.2886    9.5283    2.6150 H   0  0  0  0  0  0  0  0  0  0  0  0
   -4.1667    9.8107    0.4828 C   0  0  0  0  0  0  0  0  0  0  0  0
   -5.0249    9.5279   -0.7519 C   0  0  1  0  0  0  0  0  0  0  0  0
   -4.5025    9.8727   -1.6442 H   0  0  0  0  0  0  0  0  0  0  0  0
   -5.2819    8.0235   -0.8606 C   0  0  0  0  0  0  0  0  0  0  0  0
   -6.3594   10.2654   -0.6252 C   0  0  0  0  0  0  0  0  0  0  0  0
   -7.0927    9.7814    0.6274 C   0  0  0  0  0  0  0  0  0  0  0  0
   -6.2345   10.0643    1.8620 C   0  0  0  0  0  0  0  0  0  0  0  0
   -7.3497    8.2771    0.5186 C   0  0  0  0  0  0  0  0  0  0  0  0
   -8.8075   10.7291    0.7901 Br  0  0  0  0  0  0  0  0  0  0  0  0
   -2.2620    0.5592   -1.3176 H   0  0  0  0  0  0  0  0  0  0  0  0
   -4.4065    1.7575   -1.2979 H   0  0  0  0  0  0  0  0  0  0  0  0
   -2.7700    4.6625    1.3858 H   0  0  0  0  0  0  0  0  0  0  0  0
   -0.6240    3.4666    1.3806 H   0  0  0  0  0  0  0  0  0  0  0  0
    0.9706   -0.3893   -0.7015 H   0  0  0  0  0  0  0  0  0  0  0  0
   -0.6193   -0.2471   -1.2256 H   0  0  0  0  0  0  0  0  0  0  0  0
   -5.7698    3.4728   -0.0267 H   0  0  0  0  0  0  0  0  0  0  0  0
   -6.8836    5.8337   -0.5963 H   0  0  0  0  0  0  0  0  0  0  0  0
   -6.7946    5.6905    1.1756 H   0  0  0  0  0  0  0  0  0  0  0  0
   -5.6794    7.4777    2.5190 H   0  0  0  0  0  0  0  0  0  0  0  0
   -4.2063    7.2970    1.5364 H   0  0  0  0  0  0  0  0  0  0  0  0
   -3.2160    9.2853    0.3926 H   0  0  0  0  0  0  0  0  0  0  0  0
   -3.9836   10.8825    0.5603 H   0  0  0  0  0  0  0  0  0  0  0  0
   -4.3311    7.4981   -0.9508 H   0  0  0  0  0  0  0  0  0  0  0  0
   -5.8933    7.8220   -1.7402 H   0  0  0  0  0  0  0  0  0  0  0  0
   -6.9708   10.0639   -1.5048 H   0  0  0  0  0  0  0  0  0  0  0  0
   -6.1763   11.3371   -0.5478 H   0  0  0  0  0  0  0  0  0  0  0  0
   -6.0515   11.1360    1.9395 H   0  0  0  0  0  0  0  0  0  0  0  0
   -6.7569    9.7195    2.7544 H   0  0  0  0  0  0  0  0  0  0  0  0
   -7.9611    8.0756   -0.3610 H   0  0  0  0  0  0  0  0  0  0  0  0
   -7.8721    7.9323    1.4110 H   0  0  0  0  0  0  0  0  0  0  0  0
  1  6  2  0  0  0  0
  1  2  1  0  0  0  0
  1 27  1  0  0  0  0
  2  3  2  0  0  0  0
  2 28  1  0  0  0  0
  3  4  1  0  0  0  0
  3 10  1  0  0  0  0
  4  5  2  0  0  0  0
  4 29  1  0  0  0  0
  5  6  1  0  0  0  0
  5 30  1  0  0  0  0
  6  7  1  0  0  0  0
  7  8  2  0  0  0  0
  7  9  1  0  0  0  0
  9 31  1  0  0  0  0
  9 32  1  0  0  0  0
 10 11  1  0  0  0  0
 10 33  1  0  0  0  0
 11 12  2  0  0  0  0
 11 13  1  0  0  0  0
 13 14  1  0  0  0  0
 13 34  1  0  0  0  0
 13 35  1  0  0  0  0
 14 21  1  0  0  0  0
 14 25  1  0  0  0  0
 14 15  1  0  0  0  0
 15 16  1  0  0  0  0
 15 36  1  0  0  0  0
 15 37  1  0  0  0  0
 16 17  1  0  0  0  0
 16 24  1  0  0  0  0
 16 18  1  0  0  0  0
 18 19  1  0  0  0  0
 18 38  1  0  0  0  0
 18 39  1  0  0  0  0
 19 20  1  0  0  0  0
 19 21  1  0  0  0  0
 19 22  1  0  0  0  0
 21 40  1  0  0  0  0
 21 41  1  0  0  0  0
 22 23  1  0  0  0  0
 22 42  1  0  0  0  0
 22 43  1  0  0  0  0
 23 24  1  0  0  0  0
 23 25  1  0  0  0  0
 23 26  1  0  0  0  0
 24 44  1  0  0  0  0
 24 45  1  0  0  0  0
 25 46  1  0  0  0  0
 25 47  1  0  0  0  0
M  END
$$$$
ZINC03263444
  -OEChem-08230709453D

 43 45  0     1  0  0  0  0  0999 V2000
    3.6071    4.1810    8.1204 C   0  0  0  0  0  0  0  0  0  0  0  0
    3.1871    4.3660    6.6608 C   0  0  0  0  0  0  0  0  0  0  0  0
    2.3065    3.2799    6.2693 O   0  0  0  0  0  0  0  0  0  0  0  0
    1.8451    3.2937    5.0088 C   0  0  0  0  0  0  0  0  0  0  0  0
    2.1665    4.1838    4.2576 O   0  0  0  0  0  0  0  0  0  0  0  0
    0.9264    2.1990    4.5307 C   0  0  0  0  0  0  0  0  0  0  0  0
    0.5507    2.4507    3.0691 C   0  0  0  0  0  0  0  0  0  0  0  0
   -0.3821    1.3393    2.5836 C   0  0  0  0  0  0  0  0  0  0  0  0
   -0.7418    1.5802    1.1841 N   0  0  3  0  0  0  0  0  0  0  0  0
   -0.0127    1.0858    0.0080 C   0  0  0  0  0  0  0  0  0  0  0  0
   -0.7869    1.6081   -1.1836 C   0  0  0  0  0  0  0  0  0  0  0  0
   -0.5305    1.4341   -2.3591 O   0  0  0  0  0  0  0  0  0  0  0  0
   -1.8643    2.3358   -0.6483 C   0  0  0  0  0  0  0  0  0  0  0  0
   -1.8100    2.2998    0.7429 C   0  0  0  0  0  0  0  0  0  0  0  0
   -2.7134    2.9100    1.5616 N   0  0  0  0  0  0  0  0  0  0  0  0
   -2.8940    3.0304   -1.4386 C   0  0  0  0  0  0  0  0  0  0  0  0
   -3.9322    3.7240   -1.0166 N   0  0  0  0  0  0  0  0  0  0  0  0
   -4.7995    4.3149   -1.8641 C   0  0  0  0  0  0  0  0  0  0  0  0
   -5.9428    5.0852   -1.5457 C   0  0  0  0  0  0  0  0  0  0  0  0
   -6.7285    5.6141   -2.5359 C   0  0  0  0  0  0  0  0  0  0  0  0
   -6.4354    5.4161   -3.8776 C   0  0  0  0  0  0  0  0  0  0  0  0
   -5.3254    4.6682   -4.2255 C   0  0  0  0  0  0  0  0  0  0  0  0
   -4.5322    4.1342   -3.2409 C   0  0  0  0  0  0  0  0  0  0  0  0
   -3.0592    3.1411   -3.2148 S   0  0  0  0  0  0  0  0  0  0  0  0
    2.7219    4.1838    8.7563 H   0  0  0  0  0  0  0  0  0  0  0  0
    4.1305    3.2313    8.2303 H   0  0  0  0  0  0  0  0  0  0  0  0
    4.2682    4.9963    8.4143 H   0  0  0  0  0  0  0  0  0  0  0  0
    4.0723    4.3632    6.0249 H   0  0  0  0  0  0  0  0  0  0  0  0
    2.6637    5.3157    6.5509 H   0  0  0  0  0  0  0  0  0  0  0  0
    0.0236    2.1898    5.1415 H   0  0  0  0  0  0  0  0  0  0  0  0
    1.4322    1.2373    4.6154 H   0  0  0  0  0  0  0  0  0  0  0  0
    1.4534    2.4599    2.4583 H   0  0  0  0  0  0  0  0  0  0  0  0
    0.0448    3.4124    2.9843 H   0  0  0  0  0  0  0  0  0  0  0  0
   -1.2849    1.3300    3.1944 H   0  0  0  0  0  0  0  0  0  0  0  0
    0.1238    0.3775    2.6684 H   0  0  0  0  0  0  0  0  0  0  0  0
    0.0155    0.0864    0.0291 H   0  0  0  0  0  0  0  0  0  0  0  0
    1.0043    1.4779    0.0004 H   0  0  0  0  0  0  0  0  0  0  0  0
   -3.4531    3.4089    1.1810 H   0  0  0  0  0  0  0  0  0  0  0  0
   -2.6164    2.8454    2.5245 H   0  0  0  0  0  0  0  0  0  0  0  0
   -6.1990    5.2583   -0.5109 H   0  0  0  0  0  0  0  0  0  0  0  0
   -7.5959    6.1982   -2.2659 H   0  0  0  0  0  0  0  0  0  0  0  0
   -7.0680    5.8416   -4.6426 H   0  0  0  0  0  0  0  0  0  0  0  0
   -5.0840    4.5055   -5.2655 H   0  0  0  0  0  0  0  0  0  0  0  0
  1  2  1  0  0  0  0
  1 25  1  0  0  0  0
  1 26  1  0  0  0  0
  1 27  1  0  0  0  0
  2  3  1  0  0  0  0
  2 28  1  0  0  0  0
  2 29  1  0  0  0  0
  3  4  1  0  0  0  0
  4  5  2  0  0  0  0
  4  6  1  0  0  0  0
  6  7  1  0  0  0  0
  6 30  1  0  0  0  0
  6 31  1  0  0  0  0
  7  8  1  0  0  0  0
  7 32  1  0  0  0  0
  7 33  1  0  0  0  0
  8  9  1  0  0  0  0
  8 34  1  0  0  0  0
  8 35  1  0  0  0  0
  9 14  1  0  0  0  0
  9 10  1  0  0  0  0
 10 11  1  0  0  0  0
 10 36  1  0  0  0  0
 10 37  1  0  0  0  0
 11 12  2  0  0  0  0
 11 13  1  0  0  0  0
 13 14  2  0  0  0  0
 13 16  1  0  0  0  0
 14 15  1  0  0  0  0
 15 38  1  0  0  0  0
 15 39  1  0  0  0  0
 16 24  1  0  0  0  0
 16 17  2  0  0  0  0
 17 18  1  0  0  0  0
 18 23  2  0  0  0  0
 18 19  1  0  0  0  0
 19 20  2  0  0  0  0
 19 40  1  0  0  0  0
 20 21  1  0  0  0  0
 20 41  1  0  0  0  0
 21 22  2  0  0  0  0
 21 42  1  0  0  0  0
 22 23  1  0  0  0  0
 22 43  1  0  0  0  0
 23 24  1  0  0  0  0
M  END
$$$$
ZINC03265560
  -OEChem-08230709453D

 42 43  0     0  0  0  0  0  0999 V2000
   -1.9117   -0.6918   -8.9195 C   0  0  0  0  0  0  0  0  0  0  0  0
   -1.4409    0.4536   -8.0608 C   0  0  0  0  0  0  0  0  0  0  0  0
   -1.5533    1.7530   -8.5202 C   0  0  0  0  0  0  0  0  0  0  0  0
   -1.1224    2.8068   -7.7353 C   0  0  0  0  0  0  0  0  0  0  0  0
   -0.5782    2.5643   -6.4893 C   0  0  0  0  0  0  0  0  0  0  0  0
   -0.4639    1.2605   -6.0250 C   0  0  0  0  0  0  0  0  0  0  0  0
   -0.8927    0.2040   -6.8179 C   0  0  0  0  0  0  0  0  0  0  0  0
    0.0874    1.0114   -4.7636 N   0  0  0  0  0  0  0  0  0  0  0  0
   -0.2949    1.7503   -3.7033 C   0  0  0  0  0  0  0  0  0  0  0  0
   -1.3726    3.0631   -3.9186 S   0  0  0  0  0  0  0  0  0  0  0  0
    0.1711    1.4558   -2.4734 N   0  0  0  0  0  0  0  0  0  0  0  0
   -0.2444    2.2590   -1.3208 C   0  0  0  0  0  0  0  0  0  0  0  0
    0.4231    1.7180   -0.0549 C   0  0  0  0  0  0  0  0  0  0  0  0
   -0.0044    2.5443    1.1307 C   0  0  0  0  0  0  0  0  0  0  0  0
    0.7333    3.6537    1.5002 C   0  0  0  0  0  0  0  0  0  0  0  0
    0.3421    4.4181    2.5836 C   0  0  0  0  0  0  0  0  0  0  0  0
   -0.7852    4.0665    3.3087 C   0  0  0  0  0  0  0  0  0  0  0  0
   -1.5244    2.9466    2.9402 C   0  0  0  0  0  0  0  0  0  0  0  0
   -1.1300    2.1879    1.8498 C   0  0  0  0  0  0  0  0  0  0  0  0
   -2.6317    2.5977    3.6484 O   0  0  0  0  0  0  0  0  0  0  0  0
   -1.1685    4.8145    4.3778 O   0  0  0  0  0  0  0  0  0  0  0  0
   -1.2473    4.2214   -8.2398 C   0  0  0  0  0  0  0  0  0  0  0  0
   -1.0905   -1.0361   -9.5481 H   0  0  0  0  0  0  0  0  0  0  0  0
   -2.2488   -1.5092   -8.2821 H   0  0  0  0  0  0  0  0  0  0  0  0
   -2.7364   -0.3585   -9.5495 H   0  0  0  0  0  0  0  0  0  0  0  0
   -1.9789    1.9453   -9.4940 H   0  0  0  0  0  0  0  0  0  0  0  0
   -0.2422    3.3878   -5.8766 H   0  0  0  0  0  0  0  0  0  0  0  0
   -0.8011   -0.8114   -6.4615 H   0  0  0  0  0  0  0  0  0  0  0  0
    0.7447    0.3069   -4.6521 H   0  0  0  0  0  0  0  0  0  0  0  0
    0.7817    0.7120   -2.3514 H   0  0  0  0  0  0  0  0  0  0  0  0
   -1.3276    2.2050   -1.2119 H   0  0  0  0  0  0  0  0  0  0  0  0
    0.0540    3.2961   -1.4741 H   0  0  0  0  0  0  0  0  0  0  0  0
    0.1247    0.6809    0.0984 H   0  0  0  0  0  0  0  0  0  0  0  0
    1.5063    1.7721   -0.1639 H   0  0  0  0  0  0  0  0  0  0  0  0
    1.6145    3.9263    0.9385 H   0  0  0  0  0  0  0  0  0  0  0  0
    0.9175    5.2868    2.8675 H   0  0  0  0  0  0  0  0  0  0  0  0
   -1.7017    1.3181    1.5620 H   0  0  0  0  0  0  0  0  0  0  0  0
   -2.4548    1.9940    4.3829 H   0  0  0  0  0  0  0  0  0  0  0  0
   -0.7821    4.5283    5.2168 H   0  0  0  0  0  0  0  0  0  0  0  0
   -0.3426    4.4946   -8.7829 H   0  0  0  0  0  0  0  0  0  0  0  0
   -2.1071    4.2950   -8.9057 H   0  0  0  0  0  0  0  0  0  0  0  0
   -1.3825    4.8976   -7.3957 H   0  0  0  0  0  0  0  0  0  0  0  0
  1  2  1  0  0  0  0
  1 23  1  0  0  0  0
  1 24  1  0  0  0  0
  1 25  1  0  0  0  0
  2  7  2  0  0  0  0
  2  3  1  0  0  0  0
  3  4  2  0  0  0  0
  3 26  1  0  0  0  0
  4  5  1  0  0  0  0
  4 22  1  0  0  0  0
  5  6  2  0  0  0  0
  5 27  1  0  0  0  0
  6  7  1  0  0  0  0
  6  8  1  0  0  0  0
  7 28  1  0  0  0  0
  8  9  1  0  0  0  0
  8 29  1  0  0  0  0
  9 10  2  0  0  0  0
  9 11  1  0  0  0  0
 11 12  1  0  0  0  0
 11 30  1  0  0  0  0
 12 13  1  0  0  0  0
 12 31  1  0  0  0  0
 12 32  1  0  0  0  0
 13 14  1  0  0  0  0
 13 33  1  0  0  0  0
 13 34  1  0  0  0  0
 14 19  2  0  0  0  0
 14 15  1  0  0  0  0
 15 16  2  0  0  0  0
 15 35  1  0  0  0  0
 16 17  1  0  0  0  0
 16 36  1  0  0  0  0
 17 18  2  0  0  0  0
 17 21  1  0  0  0  0
 18 19  1  0  0  0  0
 18 20  1  0  0  0  0
 19 37  1  0  0  0  0
 20 38  1  0  0  0  0
 21 39  1  0  0  0  0
 22 40  1  0  0  0  0
 22 41  1  0  0  0  0
 22 42  1  0  0  0  0
M  END
$$$$
ZINC03269612
  -OEChem-08230709453D

 47 48  0     0  0  0  0  0  0999 V2000
   -0.7288    1.5792    1.2668 C   0  0  0  0  0  0  0  0  0  0  0  0
   -0.0127    1.0858    0.0080 C   0  0  0  0  0  0  0  0  0  0  0  0
   -0.7416    1.5850   -1.2129 C   0  0  0  0  0  0  0  0  0  0  0  0
   -0.4017    2.8013   -1.7786 C   0  0  0  0  0  0  0  0  0  0  0  0
   -1.1040    3.2271   -2.9116 C   0  0  0  0  0  0  0  0  0  0  0  0
   -2.1219    2.4043   -3.4260 C   0  0  0  0  0  0  0  0  0  0  0  0
   -2.4060    1.2485   -2.8441 N   0  0  0  0  0  0  0  0  0  0  0  0
   -1.7516    0.8279   -1.7796 C   0  0  0  0  0  0  0  0  0  0  0  0
   -2.1146   -0.4993   -1.1649 C   0  0  0  0  0  0  0  0  0  0  0  0
   -3.0243    2.9134   -4.8511 S   0  0  0  0  0  0  0  0  0  0  0  0
   -4.1490    1.5066   -5.0301 C   0  0  0  0  0  0  0  0  0  0  0  0
   -5.0444    1.7277   -6.2219 C   0  0  0  0  0  0  0  0  0  0  0  0
   -4.9331    2.7372   -6.8851 O   0  0  0  0  0  0  0  0  0  0  0  0
   -6.0518    0.7210   -6.5804 C   0  0  0  0  0  0  0  0  0  0  0  0
   -6.1784   -0.4480   -5.8198 C   0  0  0  0  0  0  0  0  0  0  0  0
   -7.1238   -1.3826   -6.1559 C   0  0  0  0  0  0  0  0  0  0  0  0
   -7.9489   -1.1761   -7.2563 C   0  0  0  0  0  0  0  0  0  0  0  0
   -7.8237   -0.0192   -8.0181 C   0  0  0  0  0  0  0  0  0  0  0  0
   -6.8851    0.9240   -7.6874 C   0  0  0  0  0  0  0  0  0  0  0  0
   -8.8795   -2.1061   -7.5875 O   0  0  0  0  0  0  0  0  0  0  0  0
   -8.9548   -3.2707   -6.7628 C   0  0  0  0  0  0  0  0  0  0  0  0
   -0.7824    4.5139   -3.5543 C   0  0  0  0  0  0  0  0  0  0  0  0
    0.0529    4.5609   -4.4368 O   0  0  0  0  0  0  0  0  0  0  0  0
   -1.4142    5.6386   -3.1639 N   0  0  0  0  0  0  0  0  0  0  0  0
    0.6974    3.6468   -1.1887 C   0  0  0  0  0  0  0  0  0  0  0  0
   -0.7436    2.6691    1.2728 H   0  0  0  0  0  0  0  0  0  0  0  0
   -1.7514    1.2020    1.2746 H   0  0  0  0  0  0  0  0  0  0  0  0
   -0.2017    1.2182    2.1499 H   0  0  0  0  0  0  0  0  0  0  0  0
    0.0021   -0.0041    0.0020 H   0  0  0  0  0  0  0  0  0  0  0  0
    1.0099    1.4631    0.0003 H   0  0  0  0  0  0  0  0  0  0  0  0
   -2.8907   -0.3517   -0.4139 H   0  0  0  0  0  0  0  0  0  0  0  0
   -2.4826   -1.1705   -1.9408 H   0  0  0  0  0  0  0  0  0  0  0  0
   -1.2329   -0.9355   -0.6953 H   0  0  0  0  0  0  0  0  0  0  0  0
   -3.6177    0.6699   -5.1630 H   0  0  0  0  0  0  0  0  0  0  0  0
   -4.7578    1.4114   -4.1310 H   0  0  0  0  0  0  0  0  0  0  0  0
   -5.5354   -0.6113   -4.9676 H   0  0  0  0  0  0  0  0  0  0  0  0
   -7.2254   -2.2825   -5.5674 H   0  0  0  0  0  0  0  0  0  0  0  0
   -8.4666    0.1362   -8.8719 H   0  0  0  0  0  0  0  0  0  0  0  0
   -6.7888    1.8222   -8.2794 H   0  0  0  0  0  0  0  0  0  0  0  0
   -7.9984   -3.7931   -6.7836 H   0  0  0  0  0  0  0  0  0  0  0  0
   -9.1861   -2.9766   -5.7390 H   0  0  0  0  0  0  0  0  0  0  0  0
   -9.7375   -3.9307   -7.1369 H   0  0  0  0  0  0  0  0  0  0  0  0
   -2.0805    5.6012   -2.4599 H   0  0  0  0  0  0  0  0  0  0  0  0
   -1.2026    6.4855   -3.5868 H   0  0  0  0  0  0  0  0  0  0  0  0
    1.6486    3.3788   -1.6486 H   0  0  0  0  0  0  0  0  0  0  0  0
    0.4867    4.6995   -1.3768 H   0  0  0  0  0  0  0  0  0  0  0  0
    0.7520    3.4736   -0.1139 H   0  0  0  0  0  0  0  0  0  0  0  0
  1  2  1  0  0  0  0
  1 26  1  0  0  0  0
  1 27  1  0  0  0  0
  1 28  1  0  0  0  0
  2  3  1  0  0  0  0
  2 29  1  0  0  0  0
  2 30  1  0  0  0  0
  3  8  2  0  0  0  0
  3  4  1  0  0  0  0
  4  5  2  0  0  0  0
  4 25  1  0  0  0  0
  5  6  1  0  0  0  0
  5 22  1  0  0  0  0
  6  7  2  0  0  0  0
  6 10  1  0  0  0  0
  7  8  1  0  0  0  0
  8  9  1  0  0  0  0
  9 31  1  0  0  0  0
  9 32  1  0  0  0  0
  9 33  1  0  0  0  0
 10 11  1  0  0  0  0
 11 12  1  0  0  0  0
 11 34  1  0  0  0  0
 11 35  1  0  0  0  0
 12 13  2  0  0  0  0
 12 14  1  0  0  0  0
 14 19  2  0  0  0  0
 14 15  1  0  0  0  0
 15 16  2  0  0  0  0
 15 36  1  0  0  0  0
 16 17  1  0  0  0  0
 16 37  1  0  0  0  0
 17 18  2  0  0  0  0
 17 20  1  0  0  0  0
 18 19  1  0  0  0  0
 18 38  1  0  0  0  0
 19 39  1  0  0  0  0
 20 21  1  0  0  0  0
 21 40  1  0  0  0  0
 21 41  1  0  0  0  0
 21 42  1  0  0  0  0
 22 23  2  0  0  0  0
 22 24  1  0  0  0  0
 24 43  1  0  0  0  0
 24 44  1  0  0  0  0
 25 45  1  0  0  0  0
 25 46  1  0  0  0  0
 25 47  1  0  0  0  0
M  END
$$$$
ZINC03271630
  -OEChem-08230709453D

 42 43  0     0  0  0  0  0  0999 V2000
    1.0859   -0.3747    0.6444 C   0  0  0  0  0  0  0  0  0  0  0  0
    2.3771    0.3644    0.4045 C   0  0  0  0  0  0  0  0  0  0  0  0
    3.5782   -0.3170    0.4267 C   0  0  0  0  0  0  0  0  0  0  0  0
    4.7639    0.3615    0.2119 C   0  0  0  0  0  0  0  0  0  0  0  0
    4.7509    1.7229   -0.0305 C   0  0  0  0  0  0  0  0  0  0  0  0
    3.5528    2.4093   -0.0592 C   0  0  0  0  0  0  0  0  0  0  0  0
    2.3601    1.7307    0.1557 C   0  0  0  0  0  0  0  0  0  0  0  0
    1.1451    2.4229    0.1272 N   0  0  0  0  0  0  0  0  0  0  0  0
    0.1509    2.0061   -0.6818 C   0  0  0  0  0  0  0  0  0  0  0  0
    0.4082    0.6900   -1.7460 S   0  0  0  0  0  0  0  0  0  0  0  0
   -1.0440    2.6291   -0.6570 N   0  0  0  0  0  0  0  0  0  0  0  0
   -1.2545    3.7062    0.2139 N   0  0  0  0  0  0  0  0  0  0  0  0
   -2.4052    4.3061    0.2377 C   0  0  0  0  0  0  0  0  0  0  0  0
   -2.6267    5.4395    1.1542 C   0  0  0  0  0  0  0  0  0  0  0  0
   -1.6010    5.8656    2.0018 C   0  0  0  0  0  0  0  0  0  0  0  0
   -1.8085    6.9297    2.8541 C   0  0  0  0  0  0  0  0  0  0  0  0
   -3.0378    7.5719    2.8807 C   0  0  0  0  0  0  0  0  0  0  0  0
   -4.0670    7.1488    2.0425 C   0  0  0  0  0  0  0  0  0  0  0  0
   -3.8647    6.0866    1.1813 C   0  0  0  0  0  0  0  0  0  0  0  0
   -5.2706    7.7812    2.0712 O   0  0  0  0  0  0  0  0  0  0  0  0
   -6.2802    7.2949    1.1845 C   0  0  0  0  0  0  0  0  0  0  0  0
   -3.2389    8.6164    3.7272 O   0  0  0  0  0  0  0  0  0  0  0  0
    3.5395    3.8928   -0.3240 C   0  0  0  0  0  0  0  0  0  0  0  0
    0.7666   -0.8575   -0.2792 H   0  0  0  0  0  0  0  0  0  0  0  0
    1.2375   -1.1300    1.4156 H   0  0  0  0  0  0  0  0  0  0  0  0
    0.3197    0.3287    0.9704 H   0  0  0  0  0  0  0  0  0  0  0  0
    3.5918   -1.3802    0.6161 H   0  0  0  0  0  0  0  0  0  0  0  0
    5.7021   -0.1730    0.2338 H   0  0  0  0  0  0  0  0  0  0  0  0
    5.6786    2.2498   -0.1979 H   0  0  0  0  0  0  0  0  0  0  0  0
    1.0179    3.2028    0.6897 H   0  0  0  0  0  0  0  0  0  0  0  0
   -1.7582    2.3317   -1.2421 H   0  0  0  0  0  0  0  0  0  0  0  0
   -3.2004    3.9750   -0.4137 H   0  0  0  0  0  0  0  0  0  0  0  0
   -0.6445    5.3644    1.9865 H   0  0  0  0  0  0  0  0  0  0  0  0
   -1.0134    7.2610    3.5056 H   0  0  0  0  0  0  0  0  0  0  0  0
   -4.6617    5.7579    0.5308 H   0  0  0  0  0  0  0  0  0  0  0  0
   -5.9305    7.3775    0.1554 H   0  0  0  0  0  0  0  0  0  0  0  0
   -6.4925    6.2506    1.4134 H   0  0  0  0  0  0  0  0  0  0  0  0
   -7.1878    7.8857    1.3083 H   0  0  0  0  0  0  0  0  0  0  0  0
   -3.5755    8.3591    4.5965 H   0  0  0  0  0  0  0  0  0  0  0  0
    3.6153    4.4311    0.6208 H   0  0  0  0  0  0  0  0  0  0  0  0
    4.3842    4.1558   -0.9608 H   0  0  0  0  0  0  0  0  0  0  0  0
    2.6095    4.1644   -0.8234 H   0  0  0  0  0  0  0  0  0  0  0  0
  1  2  1  0  0  0  0
  1 24  1  0  0  0  0
  1 25  1  0  0  0  0
  1 26  1  0  0  0  0
  2  7  2  0  0  0  0
  2  3  1  0  0  0  0
  3  4  2  0  0  0  0
  3 27  1  0  0  0  0
  4  5  1  0  0  0  0
  4 28  1  0  0  0  0
  5  6  2  0  0  0  0
  5 29  1  0  0  0  0
  6  7  1  0  0  0  0
  6 23  1  0  0  0  0
  7  8  1  0  0  0  0
  8  9  1  0  0  0  0
  8 30  1  0  0  0  0
  9 10  2  0  0  0  0
  9 11  1  0  0  0  0
 11 12  1  0  0  0  0
 11 31  1  0  0  0  0
 12 13  2  0  0  0  0
 13 14  1  0  0  0  0
 13 32  1  0  0  0  0
 14 19  2  0  0  0  0
 14 15  1  0  0  0  0
 15 16  2  0  0  0  0
 15 33  1  0  0  0  0
 16 17  1  0  0  0  0
 16 34  1  0  0  0  0
 17 18  2  0  0  0  0
 17 22  1  0  0  0  0
 18 19  1  0  0  0  0
 18 20  1  0  0  0  0
 19 35  1  0  0  0  0
 20 21  1  0  0  0  0
 21 36  1  0  0  0  0
 21 37  1  0  0  0  0
 21 38  1  0  0  0  0
 22 39  1  0  0  0  0
 23 40  1  0  0  0  0
 23 41  1  0  0  0  0
 23 42  1  0  0  0  0
M  END
$$$$
ZINC03273132
  -OEChem-08230709453D

 48 50  0     1  0  0  0  0  0999 V2000
    6.6291    1.8200    0.5078 C   0  0  0  0  0  0  0  0  0  0  0  0
    6.9711    0.3756    0.2472 C   0  0  0  0  0  0  0  0  0  0  0  0
    5.9877   -0.5320    0.2319 C   0  0  0  0  0  0  0  0  0  0  0  0
    6.2733   -1.9854   -0.0293 C   0  0  2  0  0  0  0  0  0  0  0  0
    6.2211   -2.5386    0.9085 H   0  0  0  0  0  0  0  0  0  0  0  0
    7.6464   -2.1400   -0.6247 C   0  0  0  0  0  0  0  0  0  0  0  0
    8.5497   -1.1319   -0.5563 C   0  0  0  0  0  0  0  0  0  0  0  0
    8.2541    0.0368    0.0420 O   0  0  0  0  0  0  0  0  0  0  0  0
    9.7939   -1.3070   -1.1092 N   0  0  0  0  0  0  0  0  0  0  0  0
    8.0033   -3.3671   -1.2709 C   0  0  0  0  0  0  0  0  0  0  0  0
    8.2864   -4.3405   -1.7835 N   0  0  0  0  0  0  0  0  0  0  0  0
    5.2320   -2.5408   -1.0029 C   0  0  0  0  0  0  0  0  0  0  0  0
    5.3518   -4.0649   -1.0632 C   0  0  0  0  0  0  0  0  0  0  0  0
    4.3104   -4.6203   -2.0368 C   0  0  0  0  0  0  0  0  0  0  0  0
    4.5509   -4.0343   -3.4296 C   0  0  0  0  0  0  0  0  0  0  0  0
    4.4310   -2.5102   -3.3693 C   0  0  0  0  0  0  0  0  0  0  0  0
    5.4724   -1.9548   -2.3957 C   0  0  0  0  0  0  0  0  0  0  0  0
    4.6112   -0.1023    0.4671 C   0  0  0  0  0  0  0  0  0  0  0  0
    4.0580   -0.3787    1.5157 O   0  0  0  0  0  0  0  0  0  0  0  0
    3.9538    0.6001   -0.4769 N   0  0  0  0  0  0  0  0  0  0  0  0
    2.6893    1.1295   -0.2007 C   0  0  0  0  0  0  0  0  0  0  0  0
    2.3418    2.3867   -0.6778 C   0  0  0  0  0  0  0  0  0  0  0  0
    1.0923    2.9069   -0.4029 C   0  0  0  0  0  0  0  0  0  0  0  0
    0.1877    2.1775    0.3469 C   0  0  0  0  0  0  0  0  0  0  0  0
    0.5306    0.9255    0.8234 C   0  0  0  0  0  0  0  0  0  0  0  0
    1.7783    0.3993    0.5517 C   0  0  0  0  0  0  0  0  0  0  0  0
    6.7029    2.0237    1.5761 H   0  0  0  0  0  0  0  0  0  0  0  0
    7.3246    2.4615   -0.0333 H   0  0  0  0  0  0  0  0  0  0  0  0
    5.6124    2.0194    0.1693 H   0  0  0  0  0  0  0  0  0  0  0  0
   10.0185   -2.1452   -1.5427 H   0  0  0  0  0  0  0  0  0  0  0  0
   10.4486   -0.5925   -1.0663 H   0  0  0  0  0  0  0  0  0  0  0  0
    4.2334   -2.2680   -0.6614 H   0  0  0  0  0  0  0  0  0  0  0  0
    6.3504   -4.3376   -1.4046 H   0  0  0  0  0  0  0  0  0  0  0  0
    5.1805   -4.4823   -0.0709 H   0  0  0  0  0  0  0  0  0  0  0  0
    3.3119   -4.3475   -1.6953 H   0  0  0  0  0  0  0  0  0  0  0  0
    4.3958   -5.7061   -2.0797 H   0  0  0  0  0  0  0  0  0  0  0  0
    3.8090   -4.4300   -4.1232 H   0  0  0  0  0  0  0  0  0  0  0  0
    5.5494   -4.3071   -3.7711 H   0  0  0  0  0  0  0  0  0  0  0  0
    3.4325   -2.2375   -3.0279 H   0  0  0  0  0  0  0  0  0  0  0  0
    4.6023   -2.0928   -4.3616 H   0  0  0  0  0  0  0  0  0  0  0  0
    5.3870   -0.8690   -2.3528 H   0  0  0  0  0  0  0  0  0  0  0  0
    6.4709   -2.2276   -2.7372 H   0  0  0  0  0  0  0  0  0  0  0  0
    4.3579    0.7384   -1.3478 H   0  0  0  0  0  0  0  0  0  0  0  0
    3.0480    2.9572   -1.2628 H   0  0  0  0  0  0  0  0  0  0  0  0
    0.8214    3.8844   -0.7736 H   0  0  0  0  0  0  0  0  0  0  0  0
   -0.7870    2.5885    0.5645 H   0  0  0  0  0  0  0  0  0  0  0  0
   -0.1781    0.3584    1.4087 H   0  0  0  0  0  0  0  0  0  0  0  0
    2.0453   -0.5787    0.9238 H   0  0  0  0  0  0  0  0  0  0  0  0
  1  2  1  0  0  0  0
  1 27  1  0  0  0  0
  1 28  1  0  0  0  0
  1 29  1  0  0  0  0
  2  8  1  0  0  0  0
  2  3  2  0  0  0  0
  3  4  1  0  0  0  0
  3 18  1  0  0  0  0
  4  5  1  0  0  0  0
  4  6  1  0  0  0  0
  4 12  1  0  0  0  0
  6  7  2  0  0  0  0
  6 10  1  0  0  0  0
  7  8  1  0  0  0  0
  7  9  1  0  0  0  0
  9 30  1  0  0  0  0
  9 31  1  0  0  0  0
 10 11  3  0  0  0  0
 12 17  1  0  0  0  0
 12 13  1  0  0  0  0
 12 32  1  0  0  0  0
 13 14  1  0  0  0  0
 13 33  1  0  0  0  0
 13 34  1  0  0  0  0
 14 15  1  0  0  0  0
 14 35  1  0  0  0  0
 14 36  1  0  0  0  0
 15 16  1  0  0  0  0
 15 37  1  0  0  0  0
 15 38  1  0  0  0  0
 16 17  1  0  0  0  0
 16 39  1  0  0  0  0
 16 40  1  0  0  0  0
 17 41  1  0  0  0  0
 17 42  1  0  0  0  0
 18 19  2  0  0  0  0
 18 20  1  0  0  0  0
 20 21  1  0  0  0  0
 20 43  1  0  0  0  0
 21 26  2  0  0  0  0
 21 22  1  0  0  0  0
 22 23  2  0  0  0  0
 22 44  1  0  0  0  0
 23 24  1  0  0  0  0
 23 45  1  0  0  0  0
 24 25  2  0  0  0  0
 24 46  1  0  0  0  0
 25 26  1  0  0  0  0
 25 47  1  0  0  0  0
 26 48  1  0  0  0  0
M  END
$$$$
ZINC03273134
  -OEChem-08230709453D

 48 50  0     1  0  0  0  0  0999 V2000
   -0.8920    4.6922   -2.1323 C   0  0  0  0  0  0  0  0  0  0  0  0
   -0.5866    3.7430   -1.0023 C   0  0  0  0  0  0  0  0  0  0  0  0
    0.6645    3.6749   -0.5318 C   0  0  0  0  0  0  0  0  0  0  0  0
    1.0233    2.7450    0.5946 C   0  0  1  0  0  0  0  0  0  0  0  0
    1.1347    3.3178    1.5152 H   0  0  0  0  0  0  0  0  0  0  0  0
   -0.0588    1.7152    0.7749 C   0  0  0  0  0  0  0  0  0  0  0  0
   -1.2831    1.8911    0.2207 C   0  0  0  0  0  0  0  0  0  0  0  0
   -1.5775    2.9905   -0.4977 O   0  0  0  0  0  0  0  0  0  0  0  0
   -2.2459    0.9294    0.4011 N   0  0  0  0  0  0  0  0  0  0  0  0
    0.2098    0.5324    1.5362 C   0  0  0  0  0  0  0  0  0  0  0  0
    0.4230   -0.4058    2.1401 N   0  0  0  0  0  0  0  0  0  0  0  0
    2.3440    2.0429    0.2726 C   0  0  0  0  0  0  0  0  0  0  0  0
    3.4901    3.0538    0.3465 C   0  0  0  0  0  0  0  0  0  0  0  0
    4.8109    2.3517    0.0244 C   0  0  0  0  0  0  0  0  0  0  0  0
    4.7433    1.7594   -1.3846 C   0  0  0  0  0  0  0  0  0  0  0  0
    3.5971    0.7486   -1.4585 C   0  0  0  0  0  0  0  0  0  0  0  0
    2.2764    1.4506   -1.1365 C   0  0  0  0  0  0  0  0  0  0  0  0
    1.7002    4.5193   -1.1226 C   0  0  0  0  0  0  0  0  0  0  0  0
    2.2268    5.3922   -0.4571 O   0  0  0  0  0  0  0  0  0  0  0  0
    2.0726    4.3318   -2.4042 N   0  0  0  0  0  0  0  0  0  0  0  0
    3.0746    5.1299   -2.9651 C   0  0  0  0  0  0  0  0  0  0  0  0
    4.0974    5.6260   -2.1671 C   0  0  0  0  0  0  0  0  0  0  0  0
    5.0881    6.4100   -2.7251 C   0  0  0  0  0  0  0  0  0  0  0  0
    5.0567    6.7099   -4.0747 C   0  0  0  0  0  0  0  0  0  0  0  0
    4.0368    6.2219   -4.8710 C   0  0  0  0  0  0  0  0  0  0  0  0
    3.0460    5.4330   -4.3203 C   0  0  0  0  0  0  0  0  0  0  0  0
   -0.7439    4.1830   -3.0846 H   0  0  0  0  0  0  0  0  0  0  0  0
   -1.9266    5.0267   -2.0562 H   0  0  0  0  0  0  0  0  0  0  0  0
   -0.2264    5.5534   -2.0734 H   0  0  0  0  0  0  0  0  0  0  0  0
   -2.0464    0.1348    0.9204 H   0  0  0  0  0  0  0  0  0  0  0  0
   -3.1257    1.0444    0.0092 H   0  0  0  0  0  0  0  0  0  0  0  0
    2.5165    1.2446    0.9944 H   0  0  0  0  0  0  0  0  0  0  0  0
    3.3176    3.8521   -0.3753 H   0  0  0  0  0  0  0  0  0  0  0  0
    3.5383    3.4757    1.3503 H   0  0  0  0  0  0  0  0  0  0  0  0
    4.9834    1.5534    0.7463 H   0  0  0  0  0  0  0  0  0  0  0  0
    5.6274    3.0718    0.0771 H   0  0  0  0  0  0  0  0  0  0  0  0
    5.6842    1.2592   -1.6140 H   0  0  0  0  0  0  0  0  0  0  0  0
    4.5707    2.5577   -2.1064 H   0  0  0  0  0  0  0  0  0  0  0  0
    3.7697   -0.0498   -0.7367 H   0  0  0  0  0  0  0  0  0  0  0  0
    3.5490    0.3266   -2.4623 H   0  0  0  0  0  0  0  0  0  0  0  0
    1.4599    0.7305   -1.1891 H   0  0  0  0  0  0  0  0  0  0  0  0
    2.1039    2.2489   -1.8583 H   0  0  0  0  0  0  0  0  0  0  0  0
    1.6455    3.6433   -2.9376 H   0  0  0  0  0  0  0  0  0  0  0  0
    4.1203    5.3956   -1.1122 H   0  0  0  0  0  0  0  0  0  0  0  0
    5.8862    6.7924   -2.1060 H   0  0  0  0  0  0  0  0  0  0  0  0
    5.8305    7.3263   -4.5079 H   0  0  0  0  0  0  0  0  0  0  0  0
    4.0150    6.4582   -5.9246 H   0  0  0  0  0  0  0  0  0  0  0  0
    2.2496    5.0525   -4.9426 H   0  0  0  0  0  0  0  0  0  0  0  0
  1  2  1  0  0  0  0
  1 27  1  0  0  0  0
  1 28  1  0  0  0  0
  1 29  1  0  0  0  0
  2  8  1  0  0  0  0
  2  3  2  0  0  0  0
  3  4  1  0  0  0  0
  3 18  1  0  0  0  0
  4  5  1  0  0  0  0
  4  6  1  0  0  0  0
  4 12  1  0  0  0  0
  6  7  2  0  0  0  0
  6 10  1  0  0  0  0
  7  8  1  0  0  0  0
  7  9  1  0  0  0  0
  9 30  1  0  0  0  0
  9 31  1  0  0  0  0
 10 11  3  0  0  0  0
 12 17  1  0  0  0  0
 12 13  1  0  0  0  0
 12 32  1  0  0  0  0
 13 14  1  0  0  0  0
 13 33  1  0  0  0  0
 13 34  1  0  0  0  0
 14 15  1  0  0  0  0
 14 35  1  0  0  0  0
 14 36  1  0  0  0  0
 15 16  1  0  0  0  0
 15 37  1  0  0  0  0
 15 38  1  0  0  0  0
 16 17  1  0  0  0  0
 16 39  1  0  0  0  0
 16 40  1  0  0  0  0
 17 41  1  0  0  0  0
 17 42  1  0  0  0  0
 18 19  2  0  0  0  0
 18 20  1  0  0  0  0
 20 21  1  0  0  0  0
 20 43  1  0  0  0  0
 21 26  2  0  0  0  0
 21 22  1  0  0  0  0
 22 23  2  0  0  0  0
 22 44  1  0  0  0  0
 23 24  1  0  0  0  0
 23 45  1  0  0  0  0
 24 25  2  0  0  0  0
 24 46  1  0  0  0  0
 25 26  1  0  0  0  0
 25 47  1  0  0  0  0
 26 48  1  0  0  0  0
M  END
$$$$
ZINC03275446
  -OEChem-08230709453D

 46 47  0     1  0  0  0  0  0999 V2000
   -5.5916    2.4099    6.7086 C   0  0  0  0  0  0  0  0  0  0  0  0
   -4.4991    3.4808    6.7327 C   0  0  0  0  0  0  0  0  0  0  0  0
   -3.1929    2.8419    6.9115 N   0  0  3  0  0  0  0  0  0  0  0  0
   -2.4507    2.4429    5.7949 C   0  0  0  0  0  0  0  0  0  0  0  0
   -1.2629    1.7434    5.9642 C   0  0  0  0  0  0  0  0  0  0  0  0
   -0.5307    1.3493    4.8621 C   0  0  0  0  0  0  0  0  0  0  0  0
   -0.9818    1.6523    3.5843 C   0  0  0  0  0  0  0  0  0  0  0  0
   -2.1665    2.3566    3.4149 C   0  0  0  0  0  0  0  0  0  0  0  0
   -2.9018    2.7459    4.5167 C   0  0  0  0  0  0  0  0  0  0  0  0
   -0.2385    1.2522    2.4656 N   0  0  0  0  0  0  0  0  0  0  0  0
    0.4310    0.0827    2.4845 C   0  0  0  0  0  0  0  0  0  0  0  0
    0.4590   -0.5838    3.4976 O   0  0  0  0  0  0  0  0  0  0  0  0
    1.1449   -0.3970    1.2470 C   0  0  0  0  0  0  0  0  0  0  0  0
    1.9429   -1.9854    1.5883 S   0  0  0  0  0  0  0  0  0  0  0  0
    2.6791   -2.3014    0.0190 C   0  0  0  0  0  0  0  0  0  0  0  0
    3.4024   -3.4407   -0.1639 N   0  0  0  0  0  0  0  0  0  0  0  0
    3.5132   -4.0909    0.5878 H   0  0  0  0  0  0  0  0  0  0  0  0
    3.9693   -3.6892   -1.3638 C   0  0  0  0  0  0  0  0  0  0  0  0
    4.6209   -4.7047   -1.5452 O   0  0  0  0  0  0  0  0  0  0  0  0
    3.7949   -2.7553   -2.4001 C   0  0  0  0  0  0  0  0  0  0  0  0
    3.0595   -1.6308   -2.1587 C   0  0  0  0  0  0  0  0  0  0  0  0
    2.5159   -1.4329   -0.9605 N   0  0  0  0  0  0  0  0  0  0  0  0
   -2.6640    2.6207    8.2597 C   0  0  0  0  0  0  0  0  0  0  0  0
   -2.4005    3.9697    8.9317 C   0  0  0  0  0  0  0  0  0  0  0  0
   -3.6826    1.8307    9.0839 C   0  0  0  0  0  0  0  0  0  0  0  0
   -6.5634    2.8853    6.5756 H   0  0  0  0  0  0  0  0  0  0  0  0
   -5.4077    1.7218    5.8835 H   0  0  0  0  0  0  0  0  0  0  0  0
   -5.5820    1.8598    7.6495 H   0  0  0  0  0  0  0  0  0  0  0  0
   -4.6829    4.1689    7.5578 H   0  0  0  0  0  0  0  0  0  0  0  0
   -4.5087    4.0309    5.7918 H   0  0  0  0  0  0  0  0  0  0  0  0
   -0.9121    1.5074    6.9581 H   0  0  0  0  0  0  0  0  0  0  0  0
    0.3928    0.8050    4.9937 H   0  0  0  0  0  0  0  0  0  0  0  0
   -2.5147    2.5963    2.4211 H   0  0  0  0  0  0  0  0  0  0  0  0
   -3.8254    3.2898    4.3848 H   0  0  0  0  0  0  0  0  0  0  0  0
   -0.2059    1.8170    1.6777 H   0  0  0  0  0  0  0  0  0  0  0  0
    1.8997    0.3338    0.9567 H   0  0  0  0  0  0  0  0  0  0  0  0
    0.4259   -0.5183    0.4368 H   0  0  0  0  0  0  0  0  0  0  0  0
    4.2352   -2.9249   -3.3716 H   0  0  0  0  0  0  0  0  0  0  0  0
    2.9154   -0.9024   -2.9429 H   0  0  0  0  0  0  0  0  0  0  0  0
   -1.7327    2.0580    8.1969 H   0  0  0  0  0  0  0  0  0  0  0  0
   -2.0070    3.8052    9.9348 H   0  0  0  0  0  0  0  0  0  0  0  0
   -1.6748    4.5326    8.3446 H   0  0  0  0  0  0  0  0  0  0  0  0
   -3.3319    4.5325    8.9946 H   0  0  0  0  0  0  0  0  0  0  0  0
   -3.8704    0.8697    8.6051 H   0  0  0  0  0  0  0  0  0  0  0  0
   -3.2891    1.6662   10.0870 H   0  0  0  0  0  0  0  0  0  0  0  0
   -4.6140    2.3935    9.1467 H   0  0  0  0  0  0  0  0  0  0  0  0
  1  2  1  0  0  0  0
  1 26  1  0  0  0  0
  1 27  1  0  0  0  0
  1 28  1  0  0  0  0
  2  3  1  0  0  0  0
  2 29  1  0  0  0  0
  2 30  1  0  0  0  0
  3  4  1  0  0  0  0
  3 23  1  0  0  0  0
  4  9  2  0  0  0  0
  4  5  1  0  0  0  0
  5  6  2  0  0  0  0
  5 31  1  0  0  0  0
  6  7  1  0  0  0  0
  6 32  1  0  0  0  0
  7  8  2  0  0  0  0
  7 10  1  0  0  0  0
  8  9  1  0  0  0  0
  8 33  1  0  0  0  0
  9 34  1  0  0  0  0
 10 11  1  0  0  0  0
 10 35  1  0  0  0  0
 11 12  2  0  0  0  0
 11 13  1  0  0  0  0
 13 14  1  0  0  0  0
 13 36  1  0  0  0  0
 13 37  1  0  0  0  0
 14 15  1  0  0  0  0
 15 22  2  0  0  0  0
 15 16  1  0  0  0  0
 16 17  1  0  0  0  0
 16 18  1  0  0  0  0
 18 19  2  0  0  0  0
 18 20  1  0  0  0  0
 20 21  2  0  0  0  0
 20 38  1  0  0  0  0
 21 22  1  0  0  0  0
 21 39  1  0  0  0  0
 23 24  1  0  0  0  0
 23 25  1  0  0  0  0
 23 40  1  0  0  0  0
 24 41  1  0  0  0  0
 24 42  1  0  0  0  0
 24 43  1  0  0  0  0
 25 44  1  0  0  0  0
 25 45  1  0  0  0  0
 25 46  1  0  0  0  0
M  END
$$$$
ZINC03275446
  -OEChem-08230709453D

 46 47  0     1  0  0  0  0  0999 V2000
   -5.5916    2.4099    6.7086 C   0  0  0  0  0  0  0  0  0  0  0  0
   -4.4991    3.4808    6.7327 C   0  0  0  0  0  0  0  0  0  0  0  0
   -3.1929    2.8419    6.9115 N   0  0  3  0  0  0  0  0  0  0  0  0
   -2.4507    2.4429    5.7949 C   0  0  0  0  0  0  0  0  0  0  0  0
   -1.2629    1.7434    5.9642 C   0  0  0  0  0  0  0  0  0  0  0  0
   -0.5307    1.3493    4.8621 C   0  0  0  0  0  0  0  0  0  0  0  0
   -0.9818    1.6523    3.5843 C   0  0  0  0  0  0  0  0  0  0  0  0
   -2.1665    2.3566    3.4149 C   0  0  0  0  0  0  0  0  0  0  0  0
   -2.9018    2.7459    4.5167 C   0  0  0  0  0  0  0  0  0  0  0  0
   -0.2385    1.2522    2.4656 N   0  0  0  0  0  0  0  0  0  0  0  0
    0.4310    0.0827    2.4845 C   0  0  0  0  0  0  0  0  0  0  0  0
    0.4590   -0.5838    3.4976 O   0  0  0  0  0  0  0  0  0  0  0  0
    1.1449   -0.3970    1.2470 C   0  0  0  0  0  0  0  0  0  0  0  0
    1.9429   -1.9854    1.5883 S   0  0  0  0  0  0  0  0  0  0  0  0
    2.6791   -2.3014    0.0190 C   0  0  0  0  0  0  0  0  0  0  0  0
    3.4024   -3.4407   -0.1639 N   0  0  0  0  0  0  0  0  0  0  0  0
    4.9605   -4.7193   -2.4856 H   0  0  0  0  0  0  0  0  0  0  0  0
    3.9693   -3.6892   -1.3638 C   0  0  0  0  0  0  0  0  0  0  0  0
    4.6205   -4.7049   -1.5453 O   0  0  0  0  0  0  0  0  0  0  0  0
    3.8042   -2.7499   -2.3968 C   0  0  0  0  0  0  0  0  0  0  0  0
    3.0685   -1.6256   -2.1555 C   0  0  0  0  0  0  0  0  0  0  0  0
    2.5203   -1.4303   -0.9590 N   0  0  0  0  0  0  0  0  0  0  0  0
   -2.6640    2.6207    8.2597 C   0  0  0  0  0  0  0  0  0  0  0  0
   -2.4005    3.9697    8.9317 C   0  0  0  0  0  0  0  0  0  0  0  0
   -3.6826    1.8307    9.0839 C   0  0  0  0  0  0  0  0  0  0  0  0
   -6.5634    2.8853    6.5756 H   0  0  0  0  0  0  0  0  0  0  0  0
   -5.4077    1.7218    5.8835 H   0  0  0  0  0  0  0  0  0  0  0  0
   -5.5820    1.8598    7.6495 H   0  0  0  0  0  0  0  0  0  0  0  0
   -4.6829    4.1689    7.5578 H   0  0  0  0  0  0  0  0  0  0  0  0
   -4.5087    4.0309    5.7918 H   0  0  0  0  0  0  0  0  0  0  0  0
   -0.9121    1.5074    6.9581 H   0  0  0  0  0  0  0  0  0  0  0  0
    0.3928    0.8050    4.9937 H   0  0  0  0  0  0  0  0  0  0  0  0
   -2.5147    2.5963    2.4211 H   0  0  0  0  0  0  0  0  0  0  0  0
   -3.8254    3.2898    4.3848 H   0  0  0  0  0  0  0  0  0  0  0  0
   -0.2059    1.8170    1.6777 H   0  0  0  0  0  0  0  0  0  0  0  0
    1.8997    0.3338    0.9567 H   0  0  0  0  0  0  0  0  0  0  0  0
    0.4259   -0.5183    0.4368 H   0  0  0  0  0  0  0  0  0  0  0  0
    4.2486   -2.9172   -3.3668 H   0  0  0  0  0  0  0  0  0  0  0  0
    2.9313   -0.8932   -2.9372 H   0  0  0  0  0  0  0  0  0  0  0  0
   -1.7327    2.0580    8.1969 H   0  0  0  0  0  0  0  0  0  0  0  0
   -2.0070    3.8052    9.9348 H   0  0  0  0  0  0  0  0  0  0  0  0
   -1.6748    4.5326    8.3446 H   0  0  0  0  0  0  0  0  0  0  0  0
   -3.3319    4.5325    8.9946 H   0  0  0  0  0  0  0  0  0  0  0  0
   -3.8704    0.8697    8.6051 H   0  0  0  0  0  0  0  0  0  0  0  0
   -3.2891    1.6662   10.0870 H   0  0  0  0  0  0  0  0  0  0  0  0
   -4.6140    2.3935    9.1467 H   0  0  0  0  0  0  0  0  0  0  0  0
  1  2  1  0  0  0  0
  1 26  1  0  0  0  0
  1 27  1  0  0  0  0
  1 28  1  0  0  0  0
  2  3  1  0  0  0  0
  2 29  1  0  0  0  0
  2 30  1  0  0  0  0
  3  4  1  0  0  0  0
  3 23  1  0  0  0  0
  4  9  2  0  0  0  0
  4  5  1  0  0  0  0
  5  6  2  0  0  0  0
  5 31  1  0  0  0  0
  6  7  1  0  0  0  0
  6 32  1  0  0  0  0
  7  8  2  0  0  0  0
  7 10  1  0  0  0  0
  8  9  1  0  0  0  0
  8 33  1  0  0  0  0
  9 34  1  0  0  0  0
 10 11  1  0  0  0  0
 10 35  1  0  0  0  0
 11 12  2  0  0  0  0
 11 13  1  0  0  0  0
 13 14  1  0  0  0  0
 13 36  1  0  0  0  0
 13 37  1  0  0  0  0
 14 15  1  0  0  0  0
 15 22  2  0  0  0  0
 15 16  1  0  0  0  0
 16 18  2  0  0  0  0
 17 19  1  0  0  0  0
 18 19  1  0  0  0  0
 18 20  1  0  0  0  0
 20 38  1  0  0  0  0
 20 21  2  0  0  0  0
 21 39  1  0  0  0  0
 21 22  1  0  0  0  0
 23 24  1  0  0  0  0
 23 25  1  0  0  0  0
 23 40  1  0  0  0  0
 24 41  1  0  0  0  0
 24 42  1  0  0  0  0
 24 43  1  0  0  0  0
 25 44  1  0  0  0  0
 25 45  1  0  0  0  0
 25 46  1  0  0  0  0
M  END
$$$$
ZINC03277114
  -OEChem-08230709453D

 43 45  0     0  0  0  0  0  0999 V2000
   -0.4804    2.3675    5.6163 C   0  0  0  0  0  0  0  0  0  0  0  0
    0.1156    1.4623    4.5691 C   0  0  0  0  0  0  0  0  0  0  0  0
    0.2684    0.1139    4.8267 C   0  0  0  0  0  0  0  0  0  0  0  0
    0.8159   -0.7171    3.8668 C   0  0  0  0  0  0  0  0  0  0  0  0
    1.2114   -0.2016    2.6459 C   0  0  0  0  0  0  0  0  0  0  0  0
    1.0605    1.1454    2.3819 C   0  0  0  0  0  0  0  0  0  0  0  0
    0.5161    1.9838    3.3461 C   0  0  0  0  0  0  0  0  0  0  0  0
    0.3672    3.3501    3.0839 N   0  0  0  0  0  0  0  0  0  0  0  0
    1.2008    4.2410    3.6565 C   0  0  0  0  0  0  0  0  0  0  0  0
    2.1359    3.8538    4.3249 O   0  0  0  0  0  0  0  0  0  0  0  0
    0.9712    5.7182    3.4661 C   0  0  0  0  0  0  0  0  0  0  0  0
    2.2482    6.6463    4.3515 S   0  0  0  0  0  0  0  0  0  0  0  0
    1.7507    8.2927    3.9686 C   0  0  0  0  0  0  0  0  0  0  0  0
    2.4938    9.4460    4.4722 C   0  0  0  0  0  0  0  0  0  0  0  0
    3.6079    9.6431    5.2555 C   0  0  0  0  0  0  0  0  0  0  0  0
    3.8015   10.9642    5.3672 N   0  0  0  0  0  0  0  0  0  0  0  0
    4.5426   11.3943    5.8827 H   0  0  0  0  0  0  0  0  0  0  0  0
    2.8123   11.6532    4.6551 N   0  0  0  0  0  0  0  0  0  0  0  0
    1.9996   10.7830    4.0975 C   0  0  0  0  0  0  0  0  0  0  0  0
    0.9014   10.8490    3.3199 N   0  0  0  0  0  0  0  0  0  0  0  0
    0.2982    9.7623    2.9140 C   0  0  0  0  0  0  0  0  0  0  0  0
    0.6892    8.5326    3.2067 N   0  0  0  0  0  0  0  0  0  0  0  0
    1.4918    1.7062    1.0512 C   0  0  0  0  0  0  0  0  0  0  0  0
    2.9883    1.4567    0.8535 C   0  0  0  0  0  0  0  0  0  0  0  0
    0.7079    1.0203   -0.0695 C   0  0  0  0  0  0  0  0  0  0  0  0
    0.2995    2.6856    6.3081 H   0  0  0  0  0  0  0  0  0  0  0  0
   -0.9174    3.2421    5.1344 H   0  0  0  0  0  0  0  0  0  0  0  0
   -1.2544    1.8295    6.1637 H   0  0  0  0  0  0  0  0  0  0  0  0
   -0.0398   -0.2917    5.7790 H   0  0  0  0  0  0  0  0  0  0  0  0
    0.9347   -1.7710    4.0707 H   0  0  0  0  0  0  0  0  0  0  0  0
    1.6385   -0.8534    1.8980 H   0  0  0  0  0  0  0  0  0  0  0  0
   -0.3361    3.6562    2.4900 H   0  0  0  0  0  0  0  0  0  0  0  0
    1.0173    5.9592    2.4041 H   0  0  0  0  0  0  0  0  0  0  0  0
   -0.0101    5.9867    3.8574 H   0  0  0  0  0  0  0  0  0  0  0  0
    4.2171    8.8707    5.7013 H   0  0  0  0  0  0  0  0  0  0  0  0
   -0.5777    9.8763    2.2926 H   0  0  0  0  0  0  0  0  0  0  0  0
    1.2960    2.7782    1.0281 H   0  0  0  0  0  0  0  0  0  0  0  0
    3.1841    0.3847    0.8766 H   0  0  0  0  0  0  0  0  0  0  0  0
    3.5467    1.9453    1.6519 H   0  0  0  0  0  0  0  0  0  0  0  0
    3.3002    1.8623   -0.1089 H   0  0  0  0  0  0  0  0  0  0  0  0
    0.9037   -0.0517   -0.0463 H   0  0  0  0  0  0  0  0  0  0  0  0
   -0.3582    1.1980    0.0714 H   0  0  0  0  0  0  0  0  0  0  0  0
    1.0199    1.4259   -1.0319 H   0  0  0  0  0  0  0  0  0  0  0  0
  1  2  1  0  0  0  0
  1 26  1  0  0  0  0
  1 27  1  0  0  0  0
  1 28  1  0  0  0  0
  2  7  2  0  0  0  0
  2  3  1  0  0  0  0
  3  4  2  0  0  0  0
  3 29  1  0  0  0  0
  4  5  1  0  0  0  0
  4 30  1  0  0  0  0
  5  6  2  0  0  0  0
  5 31  1  0  0  0  0
  6  7  1  0  0  0  0
  6 23  1  0  0  0  0
  7  8  1  0  0  0  0
  8  9  1  0  0  0  0
  8 32  1  0  0  0  0
  9 10  2  0  0  0  0
  9 11  1  0  0  0  0
 11 12  1  0  0  0  0
 11 33  1  0  0  0  0
 11 34  1  0  0  0  0
 12 13  1  0  0  0  0
 13 22  2  0  0  0  0
 13 14  1  0  0  0  0
 14 19  1  0  0  0  0
 14 15  2  0  0  0  0
 15 16  1  0  0  0  0
 15 35  1  0  0  0  0
 16 17  1  0  0  0  0
 16 18  1  0  0  0  0
 18 19  2  0  0  0  0
 19 20  1  0  0  0  0
 20 21  2  0  0  0  0
 21 22  1  0  0  0  0
 21 36  1  0  0  0  0
 23 24  1  0  0  0  0
 23 25  1  0  0  0  0
 23 37  1  0  0  0  0
 24 38  1  0  0  0  0
 24 39  1  0  0  0  0
 24 40  1  0  0  0  0
 25 41  1  0  0  0  0
 25 42  1  0  0  0  0
 25 43  1  0  0  0  0
M  END
$$$$
ZINC03277114
  -OEChem-08230709453D

 43 45  0     0  0  0  0  0  0999 V2000
   -0.4804    2.3675    5.6163 C   0  0  0  0  0  0  0  0  0  0  0  0
    0.1156    1.4623    4.5691 C   0  0  0  0  0  0  0  0  0  0  0  0
    0.2684    0.1139    4.8267 C   0  0  0  0  0  0  0  0  0  0  0  0
    0.8159   -0.7171    3.8668 C   0  0  0  0  0  0  0  0  0  0  0  0
    1.2114   -0.2016    2.6459 C   0  0  0  0  0  0  0  0  0  0  0  0
    1.0605    1.1454    2.3819 C   0  0  0  0  0  0  0  0  0  0  0  0
    0.5161    1.9838    3.3461 C   0  0  0  0  0  0  0  0  0  0  0  0
    0.3672    3.3501    3.0839 N   0  0  0  0  0  0  0  0  0  0  0  0
    1.2008    4.2410    3.6565 C   0  0  0  0  0  0  0  0  0  0  0  0
    2.1359    3.8538    4.3249 O   0  0  0  0  0  0  0  0  0  0  0  0
    0.9712    5.7182    3.4661 C   0  0  0  0  0  0  0  0  0  0  0  0
    2.2482    6.6463    4.3515 S   0  0  0  0  0  0  0  0  0  0  0  0
    1.7507    8.2927    3.9686 C   0  0  0  0  0  0  0  0  0  0  0  0
    2.4938    9.4460    4.4722 C   0  0  0  0  0  0  0  0  0  0  0  0
    3.6076    9.6431    5.2560 C   0  0  0  0  0  0  0  0  0  0  0  0
    3.8010   10.9642    5.3679 N   0  0  0  0  0  0  0  0  0  0  0  0
    2.7357   12.6476    4.5828 H   0  0  0  0  0  0  0  0  0  0  0  0
    2.8120   11.6532    4.6555 N   0  0  0  0  0  0  0  0  0  0  0  0
    1.9996   10.7830    4.0975 C   0  0  0  0  0  0  0  0  0  0  0  0
    0.9014   10.8490    3.3199 N   0  0  0  0  0  0  0  0  0  0  0  0
    0.2982    9.7623    2.9140 C   0  0  0  0  0  0  0  0  0  0  0  0
    0.6892    8.5326    3.2067 N   0  0  0  0  0  0  0  0  0  0  0  0
    1.4918    1.7062    1.0512 C   0  0  0  0  0  0  0  0  0  0  0  0
    2.9883    1.4567    0.8535 C   0  0  0  0  0  0  0  0  0  0  0  0
    0.7079    1.0203   -0.0695 C   0  0  0  0  0  0  0  0  0  0  0  0
    0.2995    2.6856    6.3081 H   0  0  0  0  0  0  0  0  0  0  0  0
   -0.9174    3.2421    5.1344 H   0  0  0  0  0  0  0  0  0  0  0  0
   -1.2544    1.8295    6.1637 H   0  0  0  0  0  0  0  0  0  0  0  0
   -0.0398   -0.2917    5.7790 H   0  0  0  0  0  0  0  0  0  0  0  0
    0.9347   -1.7710    4.0707 H   0  0  0  0  0  0  0  0  0  0  0  0
    1.6385   -0.8534    1.8980 H   0  0  0  0  0  0  0  0  0  0  0  0
   -0.3361    3.6562    2.4900 H   0  0  0  0  0  0  0  0  0  0  0  0
    1.0173    5.9592    2.4041 H   0  0  0  0  0  0  0  0  0  0  0  0
   -0.0101    5.9867    3.8574 H   0  0  0  0  0  0  0  0  0  0  0  0
    4.2171    8.8707    5.7014 H   0  0  0  0  0  0  0  0  0  0  0  0
   -0.5777    9.8763    2.2926 H   0  0  0  0  0  0  0  0  0  0  0  0
    1.2960    2.7782    1.0281 H   0  0  0  0  0  0  0  0  0  0  0  0
    3.1841    0.3847    0.8766 H   0  0  0  0  0  0  0  0  0  0  0  0
    3.5467    1.9453    1.6519 H   0  0  0  0  0  0  0  0  0  0  0  0
    3.3002    1.8623   -0.1089 H   0  0  0  0  0  0  0  0  0  0  0  0
    0.9037   -0.0517   -0.0463 H   0  0  0  0  0  0  0  0  0  0  0  0
   -0.3582    1.1980    0.0714 H   0  0  0  0  0  0  0  0  0  0  0  0
    1.0199    1.4259   -1.0319 H   0  0  0  0  0  0  0  0  0  0  0  0
  1  2  1  0  0  0  0
  1 26  1  0  0  0  0
  1 27  1  0  0  0  0
  1 28  1  0  0  0  0
  2  7  2  0  0  0  0
  2  3  1  0  0  0  0
  3  4  2  0  0  0  0
  3 29  1  0  0  0  0
  4  5  1  0  0  0  0
  4 30  1  0  0  0  0
  5  6  2  0  0  0  0
  5 31  1  0  0  0  0
  6  7  1  0  0  0  0
  6 23  1  0  0  0  0
  7  8  1  0  0  0  0
  8  9  1  0  0  0  0
  8 32  1  0  0  0  0
  9 10  2  0  0  0  0
  9 11  1  0  0  0  0
 11 12  1  0  0  0  0
 11 33  1  0  0  0  0
 11 34  1  0  0  0  0
 12 13  1  0  0  0  0
 13 22  2  0  0  0  0
 13 14  1  0  0  0  0
 14 15  1  0  0  0  0
 14 19  2  0  0  0  0
 15 35  1  0  0  0  0
 15 16  2  0  0  0  0
 16 18  1  0  0  0  0
 17 18  1  0  0  0  0
 18 19  1  0  0  0  0
 19 20  1  0  0  0  0
 20 21  2  0  0  0  0
 21 22  1  0  0  0  0
 21 36  1  0  0  0  0
 23 24  1  0  0  0  0
 23 25  1  0  0  0  0
 23 37  1  0  0  0  0
 24 38  1  0  0  0  0
 24 39  1  0  0  0  0
 24 40  1  0  0  0  0
 25 41  1  0  0  0  0
 25 42  1  0  0  0  0
 25 43  1  0  0  0  0
M  END
$$$$
ZINC03278787
  -OEChem-08230709453D

 44 47  0     1  0  0  0  0  0999 V2000
    1.3971    3.5722    0.2586 C   0  0  0  0  0  0  0  0  0  0  0  0
    1.4145    2.0644   -0.0004 C   0  0  1  0  0  0  0  0  0  0  0  0
    1.9994    1.5648    0.7719 H   0  0  0  0  0  0  0  0  0  0  0  0
   -0.0187    1.5245    0.0104 C   0  0  0  0  0  0  0  0  0  0  0  0
    0.0021   -0.0041    0.0020 C   0  0  0  0  0  0  0  0  0  0  0  0
    0.8726   -0.4810   -1.1577 C   0  0  0  0  0  0  0  0  0  0  0  0
    1.7632    0.3573   -1.7383 C   0  0  0  0  0  0  0  0  0  0  0  0
    2.5381   -0.6008   -3.0161 S   0  0  0  0  0  0  0  0  0  0  0  0
    1.6707   -2.1176   -2.7693 C   0  0  0  0  0  0  0  0  0  0  0  0
    0.8009   -1.8279   -1.6947 C   0  0  0  0  0  0  0  0  0  0  0  0
   -0.0577   -2.8880   -1.2477 C   0  0  0  0  0  0  0  0  0  0  0  0
   -0.8448   -2.7413   -0.3287 O   0  0  0  0  0  0  0  0  0  0  0  0
    0.0627   -4.0614   -1.9129 N   0  0  0  0  0  0  0  0  0  0  0  0
   -0.5159   -4.8282   -1.6350 H   0  0  0  0  0  0  0  0  0  0  0  0
    0.9301   -4.2453   -2.9370 C   0  0  0  0  0  0  0  0  0  0  0  0
    1.7320   -3.2996   -3.3749 N   0  0  0  0  0  0  0  0  0  0  0  0
    0.9784   -5.5953   -3.6050 C   0  0  0  0  0  0  0  0  0  0  0  0
    1.9676   -5.5744   -4.6677 O   0  0  0  0  0  0  0  0  0  0  0  0
    2.1359   -6.7125   -5.3692 C   0  0  0  0  0  0  0  0  0  0  0  0
    1.4743   -7.6954   -5.1003 O   0  0  0  0  0  0  0  0  0  0  0  0
    3.1232   -6.7650   -6.4634 C   0  0  0  0  0  0  0  0  0  0  0  0
    3.8815   -5.6336   -6.7782 C   0  0  0  0  0  0  0  0  0  0  0  0
    4.8063   -5.6886   -7.7967 C   0  0  0  0  0  0  0  0  0  0  0  0
    4.9784   -6.8638   -8.5191 C   0  0  0  0  0  0  0  0  0  0  0  0
    4.2223   -7.9895   -8.2131 C   0  0  0  0  0  0  0  0  0  0  0  0
    3.2995   -7.9447   -7.1924 C   0  0  0  0  0  0  0  0  0  0  0  0
    5.8872   -6.9122   -9.5256 O   0  0  0  0  0  0  0  0  0  0  0  0
    2.0336    1.7853   -1.3774 C   0  0  0  0  0  0  0  0  0  0  0  0
    0.9434    3.7688    1.2300 H   0  0  0  0  0  0  0  0  0  0  0  0
    2.4180    3.9541    0.2504 H   0  0  0  0  0  0  0  0  0  0  0  0
    0.8175    4.0680   -0.5202 H   0  0  0  0  0  0  0  0  0  0  0  0
   -0.5479    1.8844   -0.8719 H   0  0  0  0  0  0  0  0  0  0  0  0
   -0.5309    1.8748    0.9065 H   0  0  0  0  0  0  0  0  0  0  0  0
    0.4153   -0.3686    0.9425 H   0  0  0  0  0  0  0  0  0  0  0  0
   -1.0127   -0.3822   -0.1217 H   0  0  0  0  0  0  0  0  0  0  0  0
    1.2495   -6.3543   -2.8712 H   0  0  0  0  0  0  0  0  0  0  0  0
   -0.0004   -5.8284   -4.0242 H   0  0  0  0  0  0  0  0  0  0  0  0
    3.7449   -4.7188   -6.2206 H   0  0  0  0  0  0  0  0  0  0  0  0
    5.3959   -4.8164   -8.0374 H   0  0  0  0  0  0  0  0  0  0  0  0
    4.3589   -8.9004   -8.7771 H   0  0  0  0  0  0  0  0  0  0  0  0
    2.7128   -8.8198   -6.9551 H   0  0  0  0  0  0  0  0  0  0  0  0
    5.5305   -6.6655  -10.3899 H   0  0  0  0  0  0  0  0  0  0  0  0
    3.1095    1.9552   -1.3362 H   0  0  0  0  0  0  0  0  0  0  0  0
    1.5872    2.4426   -2.1235 H   0  0  0  0  0  0  0  0  0  0  0  0
  1  2  1  0  0  0  0
  1 29  1  0  0  0  0
  1 30  1  0  0  0  0
  1 31  1  0  0  0  0
  2  3  1  0  0  0  0
  2 28  1  0  0  0  0
  2  4  1  0  0  0  0
  4  5  1  0  0  0  0
  4 32  1  0  0  0  0
  4 33  1  0  0  0  0
  5  6  1  0  0  0  0
  5 34  1  0  0  0  0
  5 35  1  0  0  0  0
  6 10  1  0  0  0  0
  6  7  2  0  0  0  0
  7  8  1  0  0  0  0
  7 28  1  0  0  0  0
  8  9  1  0  0  0  0
  9 16  1  0  0  0  0
  9 10  2  0  0  0  0
 10 11  1  0  0  0  0
 11 12  2  0  0  0  0
 11 13  1  0  0  0  0
 13 14  1  0  0  0  0
 13 15  1  0  0  0  0
 15 16  2  0  0  0  0
 15 17  1  0  0  0  0
 17 18  1  0  0  0  0
 17 36  1  0  0  0  0
 17 37  1  0  0  0  0
 18 19  1  0  0  0  0
 19 20  2  0  0  0  0
 19 21  1  0  0  0  0
 21 26  2  0  0  0  0
 21 22  1  0  0  0  0
 22 23  2  0  0  0  0
 22 38  1  0  0  0  0
 23 24  1  0  0  0  0
 23 39  1  0  0  0  0
 24 25  2  0  0  0  0
 24 27  1  0  0  0  0
 25 26  1  0  0  0  0
 25 40  1  0  0  0  0
 26 41  1  0  0  0  0
 27 42  1  0  0  0  0
 28 43  1  0  0  0  0
 28 44  1  0  0  0  0
M  END
$$$$
ZINC03278787
  -OEChem-08230709453D

 44 47  0     1  0  0  0  0  0999 V2000
    1.4025    3.5698    0.2636 C   0  0  0  0  0  0  0  0  0  0  0  0
    1.4185    2.0622    0.0035 C   0  0  1  0  0  0  0  0  0  0  0  0
    2.0026    1.5615    0.7757 H   0  0  0  0  0  0  0  0  0  0  0  0
   -0.0152    1.5237    0.0133 C   0  0  0  0  0  0  0  0  0  0  0  0
    0.0041   -0.0049    0.0038 C   0  0  0  0  0  0  0  0  0  0  0  0
    0.8743   -0.4817   -1.1561 C   0  0  0  0  0  0  0  0  0  0  0  0
    1.7662    0.3560   -1.7355 C   0  0  0  0  0  0  0  0  0  0  0  0
    2.5402   -0.6017   -3.0142 S   0  0  0  0  0  0  0  0  0  0  0  0
    1.6717   -2.1180   -2.7684 C   0  0  0  0  0  0  0  0  0  0  0  0
    0.8018   -1.8283   -1.6939 C   0  0  0  0  0  0  0  0  0  0  0  0
   -0.0587   -2.8876   -1.2486 C   0  0  0  0  0  0  0  0  0  0  0  0
   -0.8460   -2.7408   -0.3298 O   0  0  0  0  0  0  0  0  0  0  0  0
    0.0618   -4.0610   -1.9138 N   0  0  0  0  0  0  0  0  0  0  0  0
   -0.7776   -1.8072    0.0218 H   0  0  0  0  0  0  0  0  0  0  0  0
    0.9296   -4.2451   -2.9375 C   0  0  0  0  0  0  0  0  0  0  0  0
    1.7321   -3.2996   -3.3748 N   0  0  0  0  0  0  0  0  0  0  0  0
    0.9776   -5.5950   -3.6057 C   0  0  0  0  0  0  0  0  0  0  0  0
    1.9666   -5.5740   -4.6687 O   0  0  0  0  0  0  0  0  0  0  0  0
    2.1346   -6.7120   -5.3704 C   0  0  0  0  0  0  0  0  0  0  0  0
    1.4730   -7.6948   -5.1015 O   0  0  0  0  0  0  0  0  0  0  0  0
    3.1216   -6.7643   -6.4648 C   0  0  0  0  0  0  0  0  0  0  0  0
    3.8800   -5.6330   -6.7796 C   0  0  0  0  0  0  0  0  0  0  0  0
    4.8045   -5.6879   -7.7983 C   0  0  0  0  0  0  0  0  0  0  0  0
    4.9764   -6.8629   -8.5210 C   0  0  0  0  0  0  0  0  0  0  0  0
    4.2202   -7.9886   -8.2150 C   0  0  0  0  0  0  0  0  0  0  0  0
    3.2977   -7.9439   -7.1941 C   0  0  0  0  0  0  0  0  0  0  0  0
    5.8849   -6.9112   -9.5277 O   0  0  0  0  0  0  0  0  0  0  0  0
    2.0379    1.7835   -1.3735 C   0  0  0  0  0  0  0  0  0  0  0  0
    0.9486    3.7661    1.2350 H   0  0  0  0  0  0  0  0  0  0  0  0
    2.4237    3.9507    0.2561 H   0  0  0  0  0  0  0  0  0  0  0  0
    0.8237    4.0667   -0.5151 H   0  0  0  0  0  0  0  0  0  0  0  0
   -0.5437    1.8847   -0.8689 H   0  0  0  0  0  0  0  0  0  0  0  0
   -0.5274    1.8738    0.9095 H   0  0  0  0  0  0  0  0  0  0  0  0
    0.4166   -0.3705    0.9442 H   0  0  0  0  0  0  0  0  0  0  0  0
   -1.0110   -0.3820   -0.1205 H   0  0  0  0  0  0  0  0  0  0  0  0
    1.2488   -6.3541   -2.8721 H   0  0  0  0  0  0  0  0  0  0  0  0
   -0.0013   -5.8279   -4.0248 H   0  0  0  0  0  0  0  0  0  0  0  0
    3.7436   -4.7182   -6.2218 H   0  0  0  0  0  0  0  0  0  0  0  0
    5.3942   -4.8157   -8.0390 H   0  0  0  0  0  0  0  0  0  0  0  0
    4.3566   -8.8994   -8.7792 H   0  0  0  0  0  0  0  0  0  0  0  0
    2.7109   -8.8190   -6.9568 H   0  0  0  0  0  0  0  0  0  0  0  0
    5.5281   -6.6644  -10.3919 H   0  0  0  0  0  0  0  0  0  0  0  0
    3.1139    1.9523   -1.3317 H   0  0  0  0  0  0  0  0  0  0  0  0
    1.5924    2.4418   -2.1193 H   0  0  0  0  0  0  0  0  0  0  0  0
  1  2  1  0  0  0  0
  1 29  1  0  0  0  0
  1 30  1  0  0  0  0
  1 31  1  0  0  0  0
  2  3  1  0  0  0  0
  2 28  1  0  0  0  0
  2  4  1  0  0  0  0
  4  5  1  0  0  0  0
  4 32  1  0  0  0  0
  4 33  1  0  0  0  0
  5  6  1  0  0  0  0
  5 34  1  0  0  0  0
  5 35  1  0  0  0  0
  6 10  1  0  0  0  0
  6  7  2  0  0  0  0
  7  8  1  0  0  0  0
  7 28  1  0  0  0  0
  8  9  1  0  0  0  0
  9 10  2  0  0  0  0
  9 16  1  0  0  0  0
 10 11  1  0  0  0  0
 11 13  2  0  0  0  0
 11 12  1  0  0  0  0
 12 14  1  0  0  0  0
 13 15  1  0  0  0  0
 15 17  1  0  0  0  0
 15 16  2  0  0  0  0
 17 18  1  0  0  0  0
 17 36  1  0  0  0  0
 17 37  1  0  0  0  0
 18 19  1  0  0  0  0
 19 20  2  0  0  0  0
 19 21  1  0  0  0  0
 21 26  2  0  0  0  0
 21 22  1  0  0  0  0
 22 23  2  0  0  0  0
 22 38  1  0  0  0  0
 23 24  1  0  0  0  0
 23 39  1  0  0  0  0
 24 25  2  0  0  0  0
 24 27  1  0  0  0  0
 25 26  1  0  0  0  0
 25 40  1  0  0  0  0
 26 41  1  0  0  0  0
 27 42  1  0  0  0  0
 28 43  1  0  0  0  0
 28 44  1  0  0  0  0
M  END
$$$$
ZINC03278788
  -OEChem-08230709453D

 44 47  0     1  0  0  0  0  0999 V2000
    5.3612   -2.1740    0.0227 C   0  0  0  0  0  0  0  0  0  0  0  0
    3.9491   -1.6706    0.3284 C   0  0  2  0  0  0  0  0  0  0  0  0
    3.7351   -1.8039    1.3889 H   0  0  0  0  0  0  0  0  0  0  0  0
    2.9320   -2.4571   -0.5037 C   0  0  0  0  0  0  0  0  0  0  0  0
    1.5144   -2.1408   -0.0256 C   0  0  0  0  0  0  0  0  0  0  0  0
    1.3252   -0.6264   -0.0146 C   0  0  0  0  0  0  0  0  0  0  0  0
    2.3911    0.2016   -0.0203 C   0  0  0  0  0  0  0  0  0  0  0  0
    1.7035    1.8354   -0.0043 S   0  0  0  0  0  0  0  0  0  0  0  0
   -0.0170    1.3996    0.0097 C   0  0  0  0  0  0  0  0  0  0  0  0
    0.0021   -0.0041    0.0020 C   0  0  0  0  0  0  0  0  0  0  0  0
   -1.2816   -0.6422    0.0110 C   0  0  0  0  0  0  0  0  0  0  0  0
   -1.3693   -1.8579    0.0060 O   0  0  0  0  0  0  0  0  0  0  0  0
   -2.3884    0.1239    0.0255 N   0  0  0  0  0  0  0  0  0  0  0  0
   -3.2873   -0.3142    0.0321 H   0  0  0  0  0  0  0  0  0  0  0  0
   -2.3092    1.4794    0.0314 C   0  0  0  0  0  0  0  0  0  0  0  0
   -1.1541    2.0895    0.0196 N   0  0  0  0  0  0  0  0  0  0  0  0
   -3.5765    2.2947    0.0471 C   0  0  0  0  0  0  0  0  0  0  0  0
   -3.2430    3.7078    0.0510 O   0  0  0  0  0  0  0  0  0  0  0  0
   -4.2709    4.5790    0.0648 C   0  0  0  0  0  0  0  0  0  0  0  0
   -5.4146    4.1690    0.0733 O   0  0  0  0  0  0  0  0  0  0  0  0
   -4.0077    6.0300    0.0695 C   0  0  0  0  0  0  0  0  0  0  0  0
   -2.6925    6.5038    0.0655 C   0  0  0  0  0  0  0  0  0  0  0  0
   -2.4512    7.8593    0.0641 C   0  0  0  0  0  0  0  0  0  0  0  0
   -3.5131    8.7563    0.0783 C   0  0  0  0  0  0  0  0  0  0  0  0
   -4.8225    8.2893    0.0881 C   0  0  0  0  0  0  0  0  0  0  0  0
   -5.0726    6.9355    0.0838 C   0  0  0  0  0  0  0  0  0  0  0  0
   -3.2709   10.0915    0.0821 O   0  0  0  0  0  0  0  0  0  0  0  0
    3.8390   -0.1831   -0.0361 C   0  0  0  0  0  0  0  0  0  0  0  0
    5.5751   -2.0347   -1.0370 H   0  0  0  0  0  0  0  0  0  0  0  0
    6.0833   -1.6129    0.6159 H   0  0  0  0  0  0  0  0  0  0  0  0
    5.4312   -3.2329    0.2714 H   0  0  0  0  0  0  0  0  0  0  0  0
    3.1218   -3.5247   -0.3932 H   0  0  0  0  0  0  0  0  0  0  0  0
    3.0307   -2.1795   -1.5531 H   0  0  0  0  0  0  0  0  0  0  0  0
    1.3721   -2.5341    0.9810 H   0  0  0  0  0  0  0  0  0  0  0  0
    0.7891   -2.5946   -0.7010 H   0  0  0  0  0  0  0  0  0  0  0  0
   -4.1683    2.0635   -0.8386 H   0  0  0  0  0  0  0  0  0  0  0  0
   -4.1519    2.0547    0.9413 H   0  0  0  0  0  0  0  0  0  0  0  0
   -1.8669    5.8075    0.0593 H   0  0  0  0  0  0  0  0  0  0  0  0
   -1.4355    8.2262    0.0561 H   0  0  0  0  0  0  0  0  0  0  0  0
   -5.6446    8.9896    0.0995 H   0  0  0  0  0  0  0  0  0  0  0  0
   -6.0901    6.5735    0.0911 H   0  0  0  0  0  0  0  0  0  0  0  0
   -3.1927   10.4745    0.9666 H   0  0  0  0  0  0  0  0  0  0  0  0
    4.3857    0.4150    0.6931 H   0  0  0  0  0  0  0  0  0  0  0  0
    4.2526   -0.0173   -1.0308 H   0  0  0  0  0  0  0  0  0  0  0  0
  1  2  1  0  0  0  0
  1 29  1  0  0  0  0
  1 30  1  0  0  0  0
  1 31  1  0  0  0  0
  2  3  1  0  0  0  0
  2 28  1  0  0  0  0
  2  4  1  0  0  0  0
  4  5  1  0  0  0  0
  4 32  1  0  0  0  0
  4 33  1  0  0  0  0
  5  6  1  0  0  0  0
  5 34  1  0  0  0  0
  5 35  1  0  0  0  0
  6 10  1  0  0  0  0
  6  7  2  0  0  0  0
  7  8  1  0  0  0  0
  7 28  1  0  0  0  0
  8  9  1  0  0  0  0
  9 16  1  0  0  0  0
  9 10  2  0  0  0  0
 10 11  1  0  0  0  0
 11 12  2  0  0  0  0
 11 13  1  0  0  0  0
 13 14  1  0  0  0  0
 13 15  1  0  0  0  0
 15 16  2  0  0  0  0
 15 17  1  0  0  0  0
 17 18  1  0  0  0  0
 17 36  1  0  0  0  0
 17 37  1  0  0  0  0
 18 19  1  0  0  0  0
 19 20  2  0  0  0  0
 19 21  1  0  0  0  0
 21 26  2  0  0  0  0
 21 22  1  0  0  0  0
 22 23  2  0  0  0  0
 22 38  1  0  0  0  0
 23 24  1  0  0  0  0
 23 39  1  0  0  0  0
 24 25  2  0  0  0  0
 24 27  1  0  0  0  0
 25 26  1  0  0  0  0
 25 40  1  0  0  0  0
 26 41  1  0  0  0  0
 27 42  1  0  0  0  0
 28 43  1  0  0  0  0
 28 44  1  0  0  0  0
M  END
$$$$
ZINC03278788
  -OEChem-08230709453D

 44 47  0     1  0  0  0  0  0999 V2000
    5.3610   -2.1740   -0.0327 C   0  0  0  0  0  0  0  0  0  0  0  0
    3.9520   -1.6694    0.2852 C   0  0  2  0  0  0  0  0  0  0  0  0
    3.7487   -1.7984    1.3483 H   0  0  0  0  0  0  0  0  0  0  0  0
    2.9267   -2.4592   -0.5335 C   0  0  0  0  0  0  0  0  0  0  0  0
    1.5139   -2.1410   -0.0425 C   0  0  0  0  0  0  0  0  0  0  0  0
    1.3248   -0.6265   -0.0351 C   0  0  0  0  0  0  0  0  0  0  0  0
    2.3905    0.2014   -0.0553 C   0  0  0  0  0  0  0  0  0  0  0  0
    1.7032    1.8353   -0.0318 S   0  0  0  0  0  0  0  0  0  0  0  0
   -0.0172    1.3995   -0.0058 C   0  0  0  0  0  0  0  0  0  0  0  0
    0.0019   -0.0042   -0.0082 C   0  0  0  0  0  0  0  0  0  0  0  0
   -1.2815   -0.6422    0.0243 C   0  0  0  0  0  0  0  0  0  0  0  0
   -1.3691   -1.8579    0.0250 O   0  0  0  0  0  0  0  0  0  0  0  0
   -2.3883    0.1239    0.0384 N   0  0  0  0  0  0  0  0  0  0  0  0
   -0.4528   -2.2582    0.0134 H   0  0  0  0  0  0  0  0  0  0  0  0
   -2.3092    1.4794    0.0324 C   0  0  0  0  0  0  0  0  0  0  0  0
   -1.1542    2.0895    0.0128 N   0  0  0  0  0  0  0  0  0  0  0  0
   -3.5765    2.2947    0.0486 C   0  0  0  0  0  0  0  0  0  0  0  0
   -3.2430    3.7078    0.0530 O   0  0  0  0  0  0  0  0  0  0  0  0
   -4.2709    4.5790    0.0673 C   0  0  0  0  0  0  0  0  0  0  0  0
   -5.4146    4.1690    0.0758 O   0  0  0  0  0  0  0  0  0  0  0  0
   -4.0077    6.0300    0.0725 C   0  0  0  0  0  0  0  0  0  0  0  0
   -2.6925    6.5038    0.0684 C   0  0  0  0  0  0  0  0  0  0  0  0
   -2.4512    7.8593    0.0674 C   0  0  0  0  0  0  0  0  0  0  0  0
   -3.5131    8.7563    0.0822 C   0  0  0  0  0  0  0  0  0  0  0  0
   -4.8225    8.2893    0.0920 C   0  0  0  0  0  0  0  0  0  0  0  0
   -5.0726    6.9355    0.0873 C   0  0  0  0  0  0  0  0  0  0  0  0
   -3.2709   10.0915    0.0864 O   0  0  0  0  0  0  0  0  0  0  0  0
    3.8382   -0.1833   -0.0841 C   0  0  0  0  0  0  0  0  0  0  0  0
    5.5642   -2.0389   -1.0951 H   0  0  0  0  0  0  0  0  0  0  0  0
    6.0890   -1.6105    0.5509 H   0  0  0  0  0  0  0  0  0  0  0  0
    5.4336   -3.2319    0.2195 H   0  0  0  0  0  0  0  0  0  0  0  0
    3.1176   -3.5263   -0.4207 H   0  0  0  0  0  0  0  0  0  0  0  0
    3.0148   -2.1857   -1.5850 H   0  0  0  0  0  0  0  0  0  0  0  0
    1.3818   -2.5303    0.9671 H   0  0  0  0  0  0  0  0  0  0  0  0
    0.7819   -2.5975   -0.7087 H   0  0  0  0  0  0  0  0  0  0  0  0
   -4.1684    2.0638   -0.8371 H   0  0  0  0  0  0  0  0  0  0  0  0
   -4.1517    2.0544    0.9428 H   0  0  0  0  0  0  0  0  0  0  0  0
   -1.8669    5.8075    0.0618 H   0  0  0  0  0  0  0  0  0  0  0  0
   -1.4355    8.2262    0.0594 H   0  0  0  0  0  0  0  0  0  0  0  0
   -5.6446    8.9896    0.1038 H   0  0  0  0  0  0  0  0  0  0  0  0
   -6.0901    6.5735    0.0946 H   0  0  0  0  0  0  0  0  0  0  0  0
   -3.1925   10.4742    0.9710 H   0  0  0  0  0  0  0  0  0  0  0  0
    4.3922    0.4177    0.6372 H   0  0  0  0  0  0  0  0  0  0  0  0
    4.2418   -0.0215   -1.0836 H   0  0  0  0  0  0  0  0  0  0  0  0
  1  2  1  0  0  0  0
  1 29  1  0  0  0  0
  1 30  1  0  0  0  0
  1 31  1  0  0  0  0
  2  3  1  0  0  0  0
  2 28  1  0  0  0  0
  2  4  1  0  0  0  0
  4  5  1  0  0  0  0
  4 32  1  0  0  0  0
  4 33  1  0  0  0  0
  5  6  1  0  0  0  0
  5 34  1  0  0  0  0
  5 35  1  0  0  0  0
  6 10  1  0  0  0  0
  6  7  2  0  0  0  0
  7  8  1  0  0  0  0
  7 28  1  0  0  0  0
  8  9  1  0  0  0  0
  9 10  2  0  0  0  0
  9 16  1  0  0  0  0
 10 11  1  0  0  0  0
 11 13  2  0  0  0  0
 11 12  1  0  0  0  0
 12 14  1  0  0  0  0
 13 15  1  0  0  0  0
 15 17  1  0  0  0  0
 15 16  2  0  0  0  0
 17 18  1  0  0  0  0
 17 36  1  0  0  0  0
 17 37  1  0  0  0  0
 18 19  1  0  0  0  0
 19 20  2  0  0  0  0
 19 21  1  0  0  0  0
 21 26  2  0  0  0  0
 21 22  1  0  0  0  0
 22 23  2  0  0  0  0
 22 38  1  0  0  0  0
 23 24  1  0  0  0  0
 23 39  1  0  0  0  0
 24 25  2  0  0  0  0
 24 27  1  0  0  0  0
 25 26  1  0  0  0  0
 25 40  1  0  0  0  0
 26 41  1  0  0  0  0
 27 42  1  0  0  0  0
 28 43  1  0  0  0  0
 28 44  1  0  0  0  0
M  END
$$$$
ZINC03283330
  -OEChem-08230709453D

 40 42  0     0  0  0  0  0  0999 V2000
   -2.5277    1.3872    0.0200 C   0  0  0  0  0  0  0  0  0  0  0  0
   -1.0989    1.8663    0.0167 C   0  0  0  0  0  0  0  0  0  0  0  0
   -0.0126    1.0758    0.0080 C   0  0  0  0  0  0  0  0  0  0  0  0
    1.1513    1.9722    0.0017 C   0  0  0  0  0  0  0  0  0  0  0  0
    0.6397    3.2561    0.0135 C   0  0  0  0  0  0  0  0  0  0  0  0
   -0.7025    3.1724    0.0258 N   0  0  0  0  0  0  0  0  0  0  0  0
   -1.6113    4.3214    0.0399 C   0  0  0  0  0  0  0  0  0  0  0  0
   -1.9364    4.7221   -1.3760 C   0  0  0  0  0  0  0  0  0  0  0  0
   -2.9588    4.2504   -2.1120 C   0  0  0  0  0  0  0  0  0  0  0  0
   -2.8900    4.8944   -3.3688 C   0  0  0  0  0  0  0  0  0  0  0  0
   -1.8250    5.7150   -3.3284 C   0  0  0  0  0  0  0  0  0  0  0  0
   -1.2512    5.6065   -2.1190 O   0  0  0  0  0  0  0  0  0  0  0  0
    1.4461    4.5292    0.0121 C   0  0  0  0  0  0  0  0  0  0  0  0
    2.5635    1.5848   -0.0143 C   0  0  0  0  0  0  0  0  0  0  0  0
    3.4266    2.4378   -0.0184 O   0  0  0  0  0  0  0  0  0  0  0  0
    2.9450    0.1269   -0.0258 C   0  0  0  0  0  0  0  0  0  0  0  0
    4.7525   -0.0251   -0.0444 S   0  0  0  0  0  0  0  0  0  0  0  0
    5.0339   -1.7644   -0.0564 C   0  0  0  0  0  0  0  0  0  0  0  0
    6.2536   -2.3810   -0.0717 N   0  0  0  0  0  0  0  0  0  0  0  0
    7.1164   -1.9378   -0.0789 H   0  0  0  0  0  0  0  0  0  0  0  0
    6.0442   -3.7309   -0.0759 C   0  0  0  0  0  0  0  0  0  0  0  0
    4.7509   -3.9405   -0.0637 N   0  0  0  0  0  0  0  0  0  0  0  0
    4.1103   -2.6946   -0.0464 N   0  0  0  0  0  0  0  0  0  0  0  0
    7.0296   -4.7097   -0.0901 N   0  0  0  0  0  0  0  0  0  0  0  0
   -2.8681    1.2666    1.0484 H   0  0  0  0  0  0  0  0  0  0  0  0
   -3.1572    2.1181   -0.4877 H   0  0  0  0  0  0  0  0  0  0  0  0
   -2.5913    0.4305   -0.4984 H   0  0  0  0  0  0  0  0  0  0  0  0
    0.0021   -0.0041    0.0020 H   0  0  0  0  0  0  0  0  0  0  0  0
   -2.5298    4.0518    0.5612 H   0  0  0  0  0  0  0  0  0  0  0  0
   -1.1338    5.1561    0.5532 H   0  0  0  0  0  0  0  0  0  0  0  0
   -3.6927    3.5214   -1.8016 H   0  0  0  0  0  0  0  0  0  0  0  0
   -3.5613    4.7515   -4.2027 H   0  0  0  0  0  0  0  0  0  0  0  0
   -1.4885    6.3531   -4.1322 H   0  0  0  0  0  0  0  0  0  0  0  0
    1.6308    4.8413   -1.0158 H   0  0  0  0  0  0  0  0  0  0  0  0
    0.8937    5.3098    0.5352 H   0  0  0  0  0  0  0  0  0  0  0  0
    2.3973    4.3573    0.5161 H   0  0  0  0  0  0  0  0  0  0  0  0
    2.5815   -0.3192    0.7920 H   0  0  0  0  0  0  0  0  0  0  0  0
    2.5310   -0.3500   -0.9142 H   0  0  0  0  0  0  0  0  0  0  0  0
    7.9656   -4.4555   -0.0981 H   0  0  0  0  0  0  0  0  0  0  0  0
    6.7817   -5.6475   -0.0920 H   0  0  0  0  0  0  0  0  0  0  0  0
  1  2  1  0  0  0  0
  1 25  1  0  0  0  0
  1 26  1  0  0  0  0
  1 27  1  0  0  0  0
  2  6  1  0  0  0  0
  2  3  2  0  0  0  0
  3  4  1  0  0  0  0
  3 28  1  0  0  0  0
  4  5  2  0  0  0  0
  4 14  1  0  0  0  0
  5  6  1  0  0  0  0
  5 13  1  0  0  0  0
  6  7  1  0  0  0  0
  7  8  1  0  0  0  0
  7 29  1  0  0  0  0
  7 30  1  0  0  0  0
  8 12  1  0  0  0  0
  8  9  2  0  0  0  0
  9 10  1  0  0  0  0
  9 31  1  0  0  0  0
 10 11  2  0  0  0  0
 10 32  1  0  0  0  0
 11 12  1  0  0  0  0
 11 33  1  0  0  0  0
 13 34  1  0  0  0  0
 13 35  1  0  0  0  0
 13 36  1  0  0  0  0
 14 15  2  0  0  0  0
 14 16  1  0  0  0  0
 16 17  1  0  0  0  0
 16 37  1  0  0  0  0
 16 38  1  0  0  0  0
 17 18  1  0  0  0  0
 18 23  2  0  0  0  0
 18 19  1  0  0  0  0
 19 20  1  0  0  0  0
 19 21  1  0  0  0  0
 21 22  2  0  0  0  0
 21 24  1  0  0  0  0
 22 23  1  0  0  0  0
 24 39  1  0  0  0  0
 24 40  1  0  0  0  0
M  END
$$$$
ZINC03289236
  -OEChem-08230709453D

 45 46  0     0  0  0  0  0  0999 V2000
   -7.4577    3.7427   -0.0365 C   0  0  0  0  0  0  0  0  0  0  0  0
   -6.1420    3.0088    0.0026 C   0  0  0  0  0  0  0  0  0  0  0  0
   -4.9638    3.6933   -0.2374 C   0  0  0  0  0  0  0  0  0  0  0  0
   -3.7558    3.0280   -0.1973 C   0  0  0  0  0  0  0  0  0  0  0  0
   -3.7248    1.6603    0.0740 C   0  0  0  0  0  0  0  0  0  0  0  0
   -4.9155    0.9759    0.3146 C   0  0  0  0  0  0  0  0  0  0  0  0
   -6.1172    1.6536    0.2779 C   0  0  0  0  0  0  0  0  0  0  0  0
   -7.3822    0.9285    0.5331 N   0  3  0  0  0  0  0  0  0  0  0  0
   -7.3750   -0.2830    0.6589 O   0  0  0  0  0  0  0  0  0  0  0  0
   -8.4302    1.5433    0.6173 O   0  5  0  0  0  0  0  0  0  0  0  0
   -2.4318    0.9390    0.1124 C   0  0  0  0  0  0  0  0  0  0  0  0
   -2.4048   -0.3675    0.3776 C   0  0  0  0  0  0  0  0  0  0  0  0
   -1.2418    1.6267   -0.1288 N   0  0  0  0  0  0  0  0  0  0  0  0
   -0.0187    0.9444   -0.0924 N   0  0  0  0  0  0  0  0  0  0  0  0
    1.1301    1.6075   -0.3309 C   0  0  0  0  0  0  0  0  0  0  0  0
    2.6241    0.7723   -0.2934 S   0  0  0  0  0  0  0  0  0  0  0  0
    1.1029    2.9281   -0.5989 N   0  0  0  0  0  0  0  0  0  0  0  0
    2.3517    3.6488   -0.8581 C   0  0  0  0  0  0  0  0  0  0  0  0
    2.9766    4.0804    0.4702 C   0  0  0  0  0  0  0  0  0  0  0  0
    4.2808    4.8332    0.1994 C   0  0  0  0  0  0  0  0  0  0  0  0
    3.9884    6.0700   -0.6523 C   0  0  0  0  0  0  0  0  0  0  0  0
    3.3635    5.6385   -1.9806 C   0  0  0  0  0  0  0  0  0  0  0  0
    2.0593    4.8857   -1.7099 C   0  0  0  0  0  0  0  0  0  0  0  0
   -7.7502    4.0183    0.9767 H   0  0  0  0  0  0  0  0  0  0  0  0
   -7.3536    4.6430   -0.6421 H   0  0  0  0  0  0  0  0  0  0  0  0
   -8.2207    3.0978   -0.4723 H   0  0  0  0  0  0  0  0  0  0  0  0
   -4.9894    4.7515   -0.4518 H   0  0  0  0  0  0  0  0  0  0  0  0
   -2.8363    3.5643   -0.3801 H   0  0  0  0  0  0  0  0  0  0  0  0
   -4.8974   -0.0823    0.5296 H   0  0  0  0  0  0  0  0  0  0  0  0
   -3.3258   -0.8997    0.5643 H   0  0  0  0  0  0  0  0  0  0  0  0
   -1.4619   -0.8934    0.4056 H   0  0  0  0  0  0  0  0  0  0  0  0
   -1.2615    2.5771   -0.3216 H   0  0  0  0  0  0  0  0  0  0  0  0
    0.0009   -0.0060    0.1004 H   0  0  0  0  0  0  0  0  0  0  0  0
    0.2564    3.4013   -0.6201 H   0  0  0  0  0  0  0  0  0  0  0  0
    3.0439    2.9965   -1.3903 H   0  0  0  0  0  0  0  0  0  0  0  0
    2.2843    4.7328    1.0024 H   0  0  0  0  0  0  0  0  0  0  0  0
    3.1849    3.1992    1.0770 H   0  0  0  0  0  0  0  0  0  0  0  0
    4.9731    4.1808   -0.3328 H   0  0  0  0  0  0  0  0  0  0  0  0
    4.7260    5.1406    1.1457 H   0  0  0  0  0  0  0  0  0  0  0  0
    4.9176    6.6063   -0.8452 H   0  0  0  0  0  0  0  0  0  0  0  0
    3.2961    6.7224   -0.1201 H   0  0  0  0  0  0  0  0  0  0  0  0
    4.0558    4.9861   -2.5128 H   0  0  0  0  0  0  0  0  0  0  0  0
    3.1552    6.5196   -2.5874 H   0  0  0  0  0  0  0  0  0  0  0  0
    1.6141    4.5783   -2.6561 H   0  0  0  0  0  0  0  0  0  0  0  0
    1.3670    5.5381   -1.1776 H   0  0  0  0  0  0  0  0  0  0  0  0
  1  2  1  0  0  0  0
  1 24  1  0  0  0  0
  1 25  1  0  0  0  0
  1 26  1  0  0  0  0
  2  7  2  0  0  0  0
  2  3  1  0  0  0  0
  3  4  2  0  0  0  0
  3 27  1  0  0  0  0
  4  5  1  0  0  0  0
  4 28  1  0  0  0  0
  5  6  2  0  0  0  0
  5 11  1  0  0  0  0
  6  7  1  0  0  0  0
  6 29  1  0  0  0  0
  7  8  1  0  0  0  0
  8  9  2  0  0  0  0
  8 10  1  0  0  0  0
 11 12  2  0  0  0  0
 11 13  1  0  0  0  0
 12 30  1  0  0  0  0
 12 31  1  0  0  0  0
 13 14  1  0  0  0  0
 13 32  1  0  0  0  0
 14 15  1  0  0  0  0
 14 33  1  0  0  0  0
 15 16  2  0  0  0  0
 15 17  1  0  0  0  0
 17 18  1  0  0  0  0
 17 34  1  0  0  0  0
 18 23  1  0  0  0  0
 18 19  1  0  0  0  0
 18 35  1  0  0  0  0
 19 20  1  0  0  0  0
 19 36  1  0  0  0  0
 19 37  1  0  0  0  0
 20 21  1  0  0  0  0
 20 38  1  0  0  0  0
 20 39  1  0  0  0  0
 21 22  1  0  0  0  0
 21 40  1  0  0  0  0
 21 41  1  0  0  0  0
 22 23  1  0  0  0  0
 22 42  1  0  0  0  0
 22 43  1  0  0  0  0
 23 44  1  0  0  0  0
 23 45  1  0  0  0  0
M  CHG  2   8   1  10  -1
M  END
$$$$
ZINC03296575
  -OEChem-08230709453D

 43 46  0     0  0  0  0  0  0999 V2000
   -4.2222    4.7850   -6.1608 C   0  0  0  0  0  0  0  0  0  0  0  0
   -4.9166    5.1701   -4.8800 C   0  0  0  0  0  0  0  0  0  0  0  0
   -4.3570    4.8597   -3.7241 N   0  0  0  0  0  0  0  0  0  0  0  0
   -4.9161    5.1698   -2.5650 C   0  0  0  0  0  0  0  0  0  0  0  0
   -6.1625    5.8540   -2.5625 C   0  0  0  0  0  0  0  0  0  0  0  0
   -6.9590    6.3002   -1.4076 C   0  0  0  0  0  0  0  0  0  0  0  0
   -8.1083    6.9409   -1.6743 C   0  0  0  0  0  0  0  0  0  0  0  0
   -8.2057    6.9978   -3.4492 S   0  0  0  0  0  0  0  0  0  0  0  0
   -6.6932    6.1564   -3.8294 C   0  0  0  0  0  0  0  0  0  0  0  0
   -6.0687    5.8097   -4.9389 N   0  0  0  0  0  0  0  0  0  0  0  0
   -8.8365    7.3473   -0.4211 C   0  0  0  0  0  0  0  0  0  0  0  0
   -7.7711    7.2547    0.6933 C   0  0  0  0  0  0  0  0  0  0  0  0
   -6.8015    6.2068    0.1128 C   0  0  0  0  0  0  0  0  0  0  0  0
   -4.3000    4.8284   -1.3745 N   0  0  0  0  0  0  0  0  0  0  0  0
   -3.0188    4.1182   -1.3901 C   0  0  0  0  0  0  0  0  0  0  0  0
   -2.5592    3.8636    0.0469 C   0  0  0  0  0  0  0  0  0  0  0  0
   -1.2413    3.1330    0.0308 C   0  0  0  0  0  0  0  0  0  0  0  0
   -1.2190    1.7507    0.0173 C   0  0  0  0  0  0  0  0  0  0  0  0
   -0.0126    1.0758    0.0080 C   0  0  0  0  0  0  0  0  0  0  0  0
    1.1779    1.7849    0.0004 C   0  0  0  0  0  0  0  0  0  0  0  0
    1.1554    3.1762    0.0081 C   0  0  0  0  0  0  0  0  0  0  0  0
   -0.0572    3.8465    0.0234 C   0  0  0  0  0  0  0  0  0  0  0  0
    2.3212    3.8766    0.0012 O   0  0  0  0  0  0  0  0  0  0  0  0
    2.3655    1.1226   -0.0150 O   0  0  0  0  0  0  0  0  0  0  0  0
   -4.5533    3.7934   -6.4696 H   0  0  0  0  0  0  0  0  0  0  0  0
   -4.4670    5.5084   -6.9385 H   0  0  0  0  0  0  0  0  0  0  0  0
   -3.1441    4.7746   -6.0007 H   0  0  0  0  0  0  0  0  0  0  0  0
   -9.2060    8.3689   -0.5102 H   0  0  0  0  0  0  0  0  0  0  0  0
   -9.6587    6.6607   -0.2192 H   0  0  0  0  0  0  0  0  0  0  0  0
   -7.2709    8.2127    0.8356 H   0  0  0  0  0  0  0  0  0  0  0  0
   -8.2119    6.9040    1.6265 H   0  0  0  0  0  0  0  0  0  0  0  0
   -5.7767    6.4411    0.4008 H   0  0  0  0  0  0  0  0  0  0  0  0
   -7.0717    5.2097    0.4606 H   0  0  0  0  0  0  0  0  0  0  0  0
   -4.7163    5.0593   -0.5293 H   0  0  0  0  0  0  0  0  0  0  0  0
   -2.2743    4.7230   -1.9079 H   0  0  0  0  0  0  0  0  0  0  0  0
   -3.1373    3.1662   -1.9077 H   0  0  0  0  0  0  0  0  0  0  0  0
   -3.3036    3.2588    0.5647 H   0  0  0  0  0  0  0  0  0  0  0  0
   -2.4407    4.8155    0.5645 H   0  0  0  0  0  0  0  0  0  0  0  0
   -2.1462    1.1969    0.0183 H   0  0  0  0  0  0  0  0  0  0  0  0
    0.0021   -0.0041    0.0020 H   0  0  0  0  0  0  0  0  0  0  0  0
   -0.0774    4.9263    0.0290 H   0  0  0  0  0  0  0  0  0  0  0  0
    2.6502    4.0840   -0.8841 H   0  0  0  0  0  0  0  0  0  0  0  0
    2.7004    0.9361   -0.9028 H   0  0  0  0  0  0  0  0  0  0  0  0
  1  2  1  0  0  0  0
  1 25  1  0  0  0  0
  1 26  1  0  0  0  0
  1 27  1  0  0  0  0
  2 10  2  0  0  0  0
  2  3  1  0  0  0  0
  3  4  2  0  0  0  0
  4  5  1  0  0  0  0
  4 14  1  0  0  0  0
  5  9  2  0  0  0  0
  5  6  1  0  0  0  0
  6 13  1  0  0  0  0
  6  7  2  0  0  0  0
  7  8  1  0  0  0  0
  7 11  1  0  0  0  0
  8  9  1  0  0  0  0
  9 10  1  0  0  0  0
 11 12  1  0  0  0  0
 11 28  1  0  0  0  0
 11 29  1  0  0  0  0
 12 13  1  0  0  0  0
 12 30  1  0  0  0  0
 12 31  1  0  0  0  0
 13 32  1  0  0  0  0
 13 33  1  0  0  0  0
 14 15  1  0  0  0  0
 14 34  1  0  0  0  0
 15 16  1  0  0  0  0
 15 35  1  0  0  0  0
 15 36  1  0  0  0  0
 16 17  1  0  0  0  0
 16 37  1  0  0  0  0
 16 38  1  0  0  0  0
 17 22  2  0  0  0  0
 17 18  1  0  0  0  0
 18 19  2  0  0  0  0
 18 39  1  0  0  0  0
 19 20  1  0  0  0  0
 19 40  1  0  0  0  0
 20 21  2  0  0  0  0
 20 24  1  0  0  0  0
 21 22  1  0  0  0  0
 21 23  1  0  0  0  0
 22 41  1  0  0  0  0
 23 42  1  0  0  0  0
 24 43  1  0  0  0  0
M  END
$$$$
ZINC03311868
  -OEChem-08230709453D

 43 44  0     0  0  0  0  0  0999 V2000
    7.4952   -0.2864   -1.0790 C   0  0  0  0  0  0  0  0  0  0  0  0
    7.4201    0.4665    0.2508 C   0  0  0  0  0  0  0  0  0  0  0  0
    7.1943    1.9327   -0.0141 C   0  0  0  0  0  0  0  0  0  0  0  0
    8.2687    2.7995   -0.0655 C   0  0  0  0  0  0  0  0  0  0  0  0
    8.0622    4.1450   -0.3076 C   0  0  0  0  0  0  0  0  0  0  0  0
    6.7803    4.6275   -0.4990 C   0  0  0  0  0  0  0  0  0  0  0  0
    5.7027    3.7651   -0.4554 C   0  0  0  0  0  0  0  0  0  0  0  0
    5.9061    2.4139   -0.2063 C   0  0  0  0  0  0  0  0  0  0  0  0
    4.8158    1.5386   -0.1548 N   0  0  0  0  0  0  0  0  0  0  0  0
    3.7668    1.8150    0.6450 C   0  0  0  0  0  0  0  0  0  0  0  0
    3.7960    2.7877    1.3690 O   0  0  0  0  0  0  0  0  0  0  0  0
    2.5576    0.9157    0.6397 C   0  0  0  0  0  0  0  0  0  0  0  0
    1.5731    1.4228    1.5789 O   0  0  0  0  0  0  0  0  0  0  0  0
    0.4246    0.7284    1.6955 C   0  0  0  0  0  0  0  0  0  0  0  0
    0.2503   -0.2734    1.0308 O   0  0  0  0  0  0  0  0  0  0  0  0
   -0.6250    1.1884    2.6269 C   0  0  0  0  0  0  0  0  0  0  0  0
   -0.4246    2.3367    3.3966 C   0  0  0  0  0  0  0  0  0  0  0  0
   -1.4084    2.7675    4.2620 C   0  0  0  0  0  0  0  0  0  0  0  0
   -2.5913    2.0591    4.3800 C   0  0  0  0  0  0  0  0  0  0  0  0
   -2.7983    0.9112    3.6217 C   0  0  0  0  0  0  0  0  0  0  0  0
   -1.8181    0.4738    2.7453 C   0  0  0  0  0  0  0  0  0  0  0  0
   -3.9952    0.1993    3.7436 N   0  0  0  0  0  0  0  0  0  0  0  0
   -3.8209    2.6048    5.4772 Cl  0  0  0  0  0  0  0  0  0  0  0  0
    4.3068    4.2905   -0.6712 C   0  0  0  0  0  0  0  0  0  0  0  0
    6.5603   -0.1554   -1.6240 H   0  0  0  0  0  0  0  0  0  0  0  0
    8.3202    0.1068   -1.6731 H   0  0  0  0  0  0  0  0  0  0  0  0
    7.6585   -1.3469   -0.8874 H   0  0  0  0  0  0  0  0  0  0  0  0
    8.3550    0.3355    0.7957 H   0  0  0  0  0  0  0  0  0  0  0  0
    6.5951    0.0733    0.8449 H   0  0  0  0  0  0  0  0  0  0  0  0
    9.2709    2.4259    0.0839 H   0  0  0  0  0  0  0  0  0  0  0  0
    8.9038    4.8207   -0.3469 H   0  0  0  0  0  0  0  0  0  0  0  0
    6.6224    5.6791   -0.6879 H   0  0  0  0  0  0  0  0  0  0  0  0
    4.8148    0.7327   -0.6948 H   0  0  0  0  0  0  0  0  0  0  0  0
    2.8530   -0.0920    0.9318 H   0  0  0  0  0  0  0  0  0  0  0  0
    2.1266    0.8923   -0.3612 H   0  0  0  0  0  0  0  0  0  0  0  0
    0.4992    2.8897    3.3109 H   0  0  0  0  0  0  0  0  0  0  0  0
   -1.2533    3.6581    4.8529 H   0  0  0  0  0  0  0  0  0  0  0  0
   -1.9767   -0.4173    2.1560 H   0  0  0  0  0  0  0  0  0  0  0  0
   -4.1396   -0.6008    3.2146 H   0  0  0  0  0  0  0  0  0  0  0  0
   -4.6813    0.5056    4.3571 H   0  0  0  0  0  0  0  0  0  0  0  0
    3.9317    4.7181    0.2586 H   0  0  0  0  0  0  0  0  0  0  0  0
    4.3234    5.0592   -1.4439 H   0  0  0  0  0  0  0  0  0  0  0  0
    3.6558    3.4744   -0.9845 H   0  0  0  0  0  0  0  0  0  0  0  0
  1  2  1  0  0  0  0
  1 25  1  0  0  0  0
  1 26  1  0  0  0  0
  1 27  1  0  0  0  0
  2  3  1  0  0  0  0
  2 28  1  0  0  0  0
  2 29  1  0  0  0  0
  3  8  2  0  0  0  0
  3  4  1  0  0  0  0
  4  5  2  0  0  0  0
  4 30  1  0  0  0  0
  5  6  1  0  0  0  0
  5 31  1  0  0  0  0
  6  7  2  0  0  0  0
  6 32  1  0  0  0  0
  7  8  1  0  0  0  0
  7 24  1  0  0  0  0
  8  9  1  0  0  0  0
  9 10  1  0  0  0  0
  9 33  1  0  0  0  0
 10 11  2  0  0  0  0
 10 12  1  0  0  0  0
 12 13  1  0  0  0  0
 12 34  1  0  0  0  0
 12 35  1  0  0  0  0
 13 14  1  0  0  0  0
 14 15  2  0  0  0  0
 14 16  1  0  0  0  0
 16 21  2  0  0  0  0
 16 17  1  0  0  0  0
 17 18  2  0  0  0  0
 17 36  1  0  0  0  0
 18 19  1  0  0  0  0
 18 37  1  0  0  0  0
 19 20  2  0  0  0  0
 19 23  1  0  0  0  0
 20 21  1  0  0  0  0
 20 22  1  0  0  0  0
 21 38  1  0  0  0  0
 22 39  1  0  0  0  0
 22 40  1  0  0  0  0
 24 41  1  0  0  0  0
 24 42  1  0  0  0  0
 24 43  1  0  0  0  0
M  END
$$$$
ZINC03312289
  -OEChem-08230709453D

 41 44  0     0  0  0  0  0  0999 V2000
    2.1680    7.8118    0.0187 C   0  0  0  0  0  0  0  0  0  0  0  0
    1.4212    8.9683    0.0391 C   0  0  0  0  0  0  0  0  0  0  0  0
    2.0535   10.2063    0.0392 C   0  0  0  0  0  0  0  0  0  0  0  0
    3.4415   10.2824    0.0256 C   0  0  0  0  0  0  0  0  0  0  0  0
    4.1958    9.1307    0.0115 C   0  0  0  0  0  0  0  0  0  0  0  0
    3.5640    7.8837    0.0109 C   0  0  0  0  0  0  0  0  0  0  0  0
    4.3680    6.6475   -0.0042 C   0  0  0  0  0  0  0  0  0  0  0  0
    5.5812    6.7120   -0.0160 O   0  0  0  0  0  0  0  0  0  0  0  0
    3.7571    5.4465   -0.0047 O   0  0  0  0  0  0  0  0  0  0  0  0
    4.6113    4.2724   -0.0199 C   0  0  0  0  0  0  0  0  0  0  0  0
    3.7579    3.0303   -0.0183 C   0  0  0  0  0  0  0  0  0  0  0  0
    4.3732    1.8234   -0.0312 N   0  0  0  0  0  0  0  0  0  0  0  0
    5.3728    1.7982   -0.0419 H   0  0  0  0  0  0  0  0  0  0  0  0
    3.6980    0.6496   -0.0303 C   0  0  0  0  0  0  0  0  0  0  0  0
    4.2691   -0.4272   -0.0411 O   0  0  0  0  0  0  0  0  0  0  0  0
    2.2663    0.7548   -0.0154 C   0  0  0  0  0  0  0  0  0  0  0  0
    1.3134   -0.3405   -0.0118 C   0  0  0  0  0  0  0  0  0  0  0  0
    0.0021   -0.0041    0.0020 C   0  0  0  0  0  0  0  0  0  0  0  0
   -0.0220    1.7710    0.0118 S   0  0  0  0  0  0  0  0  0  0  0  0
    1.7193    2.0570   -0.0033 C   0  0  0  0  0  0  0  0  0  0  0  0
    2.4503    3.1675   -0.0039 N   0  0  0  0  0  0  0  0  0  0  0  0
   -1.1726   -0.9327    0.0074 C   0  0  0  0  0  0  0  0  0  0  0  0
   -0.6849   -2.3364   -0.3787 C   0  0  0  0  0  0  0  0  0  0  0  0
    0.5626   -2.6656    0.4465 C   0  0  0  0  0  0  0  0  0  0  0  0
    1.7371   -1.8069   -0.0230 C   0  0  0  0  0  0  0  0  0  0  0  0
    1.3137   11.3438    0.0530 O   0  0  0  0  0  0  0  0  0  0  0  0
    1.6759    6.8504    0.0134 H   0  0  0  0  0  0  0  0  0  0  0  0
    0.3426    8.9136    0.0500 H   0  0  0  0  0  0  0  0  0  0  0  0
    3.9287   11.2462    0.0257 H   0  0  0  0  0  0  0  0  0  0  0  0
    5.2741    9.1906    0.0013 H   0  0  0  0  0  0  0  0  0  0  0  0
    5.2495    4.2760    0.8637 H   0  0  0  0  0  0  0  0  0  0  0  0
    5.2315    4.2860   -0.9161 H   0  0  0  0  0  0  0  0  0  0  0  0
   -1.6139   -0.9595    1.0037 H   0  0  0  0  0  0  0  0  0  0  0  0
   -1.9149   -0.5886   -0.7128 H   0  0  0  0  0  0  0  0  0  0  0  0
   -1.4664   -3.0662   -0.1673 H   0  0  0  0  0  0  0  0  0  0  0  0
   -0.4377   -2.3586   -1.4401 H   0  0  0  0  0  0  0  0  0  0  0  0
    0.3643   -2.4637    1.4991 H   0  0  0  0  0  0  0  0  0  0  0  0
    0.8125   -3.7191    0.3206 H   0  0  0  0  0  0  0  0  0  0  0  0
    2.5836   -1.9474    0.6492 H   0  0  0  0  0  0  0  0  0  0  0  0
    2.0215   -2.0987   -1.0339 H   0  0  0  0  0  0  0  0  0  0  0  0
    1.0903   11.6785   -0.8263 H   0  0  0  0  0  0  0  0  0  0  0  0
  1  6  2  0  0  0  0
  1  2  1  0  0  0  0
  1 27  1  0  0  0  0
  2  3  2  0  0  0  0
  2 28  1  0  0  0  0
  3  4  1  0  0  0  0
  3 26  1  0  0  0  0
  4  5  2  0  0  0  0
  4 29  1  0  0  0  0
  5  6  1  0  0  0  0
  5 30  1  0  0  0  0
  6  7  1  0  0  0  0
  7  8  2  0  0  0  0
  7  9  1  0  0  0  0
  9 10  1  0  0  0  0
 10 11  1  0  0  0  0
 10 31  1  0  0  0  0
 10 32  1  0  0  0  0
 11 21  2  0  0  0  0
 11 12  1  0  0  0  0
 12 13  1  0  0  0  0
 12 14  1  0  0  0  0
 14 15  2  0  0  0  0
 14 16  1  0  0  0  0
 16 20  2  0  0  0  0
 16 17  1  0  0  0  0
 17 25  1  0  0  0  0
 17 18  2  0  0  0  0
 18 19  1  0  0  0  0
 18 22  1  0  0  0  0
 19 20  1  0  0  0  0
 20 21  1  0  0  0  0
 22 23  1  0  0  0  0
 22 33  1  0  0  0  0
 22 34  1  0  0  0  0
 23 24  1  0  0  0  0
 23 35  1  0  0  0  0
 23 36  1  0  0  0  0
 24 25  1  0  0  0  0
 24 37  1  0  0  0  0
 24 38  1  0  0  0  0
 25 39  1  0  0  0  0
 25 40  1  0  0  0  0
 26 41  1  0  0  0  0
M  END
$$$$
ZINC03312289
  -OEChem-08230709453D

 41 44  0     0  0  0  0  0  0999 V2000
    2.1680    7.8118    0.0211 C   0  0  0  0  0  0  0  0  0  0  0  0
    1.4212    8.9683    0.0419 C   0  0  0  0  0  0  0  0  0  0  0  0
    2.0535   10.2063    0.0424 C   0  0  0  0  0  0  0  0  0  0  0  0
    3.4415   10.2824    0.0289 C   0  0  0  0  0  0  0  0  0  0  0  0
    4.1958    9.1307    0.0144 C   0  0  0  0  0  0  0  0  0  0  0  0
    3.5640    7.8837    0.0134 C   0  0  0  0  0  0  0  0  0  0  0  0
    4.3680    6.6475   -0.0021 C   0  0  0  0  0  0  0  0  0  0  0  0
    5.5812    6.7120   -0.0139 O   0  0  0  0  0  0  0  0  0  0  0  0
    3.7571    5.4465   -0.0031 O   0  0  0  0  0  0  0  0  0  0  0  0
    4.6113    4.2724   -0.0186 C   0  0  0  0  0  0  0  0  0  0  0  0
    3.7579    3.0303   -0.0175 C   0  0  0  0  0  0  0  0  0  0  0  0
    4.3732    1.8234   -0.0326 N   0  0  0  0  0  0  0  0  0  0  0  0
    3.5924   -1.1634   -0.0403 H   0  0  0  0  0  0  0  0  0  0  0  0
    3.6980    0.6496   -0.0318 C   0  0  0  0  0  0  0  0  0  0  0  0
    4.2691   -0.4272   -0.0435 O   0  0  0  0  0  0  0  0  0  0  0  0
    2.2663    0.7548   -0.0135 C   0  0  0  0  0  0  0  0  0  0  0  0
    1.3134   -0.3405   -0.0082 C   0  0  0  0  0  0  0  0  0  0  0  0
    0.0022   -0.0041    0.0072 C   0  0  0  0  0  0  0  0  0  0  0  0
   -0.0220    1.7710    0.0165 S   0  0  0  0  0  0  0  0  0  0  0  0
    1.7193    2.0570   -0.0003 C   0  0  0  0  0  0  0  0  0  0  0  0
    2.4503    3.1675   -0.0018 N   0  0  0  0  0  0  0  0  0  0  0  0
   -1.1725   -0.9327    0.0141 C   0  0  0  0  0  0  0  0  0  0  0  0
   -0.6854   -2.3364   -0.3729 C   0  0  0  0  0  0  0  0  0  0  0  0
    0.5633   -2.6657    0.4504 C   0  0  0  0  0  0  0  0  0  0  0  0
    1.7371   -1.8069   -0.0207 C   0  0  0  0  0  0  0  0  0  0  0  0
    1.3137   11.3438    0.0566 O   0  0  0  0  0  0  0  0  0  0  0  0
    1.6759    6.8504    0.0155 H   0  0  0  0  0  0  0  0  0  0  0  0
    0.3426    8.9136    0.0528 H   0  0  0  0  0  0  0  0  0  0  0  0
    3.9287   11.2462    0.0293 H   0  0  0  0  0  0  0  0  0  0  0  0
    5.2741    9.1906    0.0043 H   0  0  0  0  0  0  0  0  0  0  0  0
    5.2495    4.2757    0.8650 H   0  0  0  0  0  0  0  0  0  0  0  0
    5.2315    4.2863   -0.9148 H   0  0  0  0  0  0  0  0  0  0  0  0
   -1.6123   -0.9597    1.0111 H   0  0  0  0  0  0  0  0  0  0  0  0
   -1.9159   -0.5885   -0.7049 H   0  0  0  0  0  0  0  0  0  0  0  0
   -1.4666   -3.0662   -0.1605 H   0  0  0  0  0  0  0  0  0  0  0  0
   -0.4398   -2.3584   -1.4347 H   0  0  0  0  0  0  0  0  0  0  0  0
    0.3666   -2.4640    1.5033 H   0  0  0  0  0  0  0  0  0  0  0  0
    0.8131   -3.7192    0.3239 H   0  0  0  0  0  0  0  0  0  0  0  0
    2.5846   -1.9475    0.6502 H   0  0  0  0  0  0  0  0  0  0  0  0
    2.0200   -2.0985   -1.0321 H   0  0  0  0  0  0  0  0  0  0  0  0
    1.0904   11.6788   -0.8226 H   0  0  0  0  0  0  0  0  0  0  0  0
  1  6  2  0  0  0  0
  1  2  1  0  0  0  0
  1 27  1  0  0  0  0
  2  3  2  0  0  0  0
  2 28  1  0  0  0  0
  3  4  1  0  0  0  0
  3 26  1  0  0  0  0
  4  5  2  0  0  0  0
  4 29  1  0  0  0  0
  5  6  1  0  0  0  0
  5 30  1  0  0  0  0
  6  7  1  0  0  0  0
  7  8  2  0  0  0  0
  7  9  1  0  0  0  0
  9 10  1  0  0  0  0
 10 11  1  0  0  0  0
 10 31  1  0  0  0  0
 10 32  1  0  0  0  0
 11 21  2  0  0  0  0
 11 12  1  0  0  0  0
 12 14  2  0  0  0  0
 13 15  1  0  0  0  0
 14 15  1  0  0  0  0
 14 16  1  0  0  0  0
 16 17  1  0  0  0  0
 16 20  2  0  0  0  0
 17 25  1  0  0  0  0
 17 18  2  0  0  0  0
 18 19  1  0  0  0  0
 18 22  1  0  0  0  0
 19 20  1  0  0  0  0
 20 21  1  0  0  0  0
 22 23  1  0  0  0  0
 22 33  1  0  0  0  0
 22 34  1  0  0  0  0
 23 24  1  0  0  0  0
 23 35  1  0  0  0  0
 23 36  1  0  0  0  0
 24 25  1  0  0  0  0
 24 37  1  0  0  0  0
 24 38  1  0  0  0  0
 25 39  1  0  0  0  0
 25 40  1  0  0  0  0
 26 41  1  0  0  0  0
M  END
$$$$
ZINC03313289
  -OEChem-08230709453D

 42 43  0     0  0  0  0  0  0999 V2000
    4.7761    4.7716    3.3617 C   0  0  0  0  0  0  0  0  0  0  0  0
    4.3694    5.8752    2.3832 C   0  0  0  0  0  0  0  0  0  0  0  0
    5.5840    6.7506    2.0682 C   0  0  0  0  0  0  0  0  0  0  0  0
    3.8547    5.2535    1.1105 C   0  0  0  0  0  0  0  0  0  0  0  0
    4.4051    5.4875    0.0557 O   0  0  0  0  0  0  0  0  0  0  0  0
    2.7827    4.4374    1.1447 N   0  0  0  0  0  0  0  0  0  0  0  0
    2.3224    3.8814    0.0065 C   0  0  0  0  0  0  0  0  0  0  0  0
    3.1770    4.1020   -1.4604 S   0  0  0  0  0  0  0  0  0  0  0  0
    1.0927    3.0894    0.0246 C   0  0  0  0  0  0  0  0  0  0  0  0
   -0.1613    3.7128    0.0150 C   0  0  0  0  0  0  0  0  0  0  0  0
   -1.2882    2.9376    0.0321 N   0  0  0  0  0  0  0  0  0  0  0  0
   -1.1977    1.5965    0.0522 C   0  0  0  0  0  0  0  0  0  0  0  0
   -2.2170    0.9342    0.0616 O   0  0  0  0  0  0  0  0  0  0  0  0
   -0.0093    0.9693    0.0676 N   0  0  0  0  0  0  0  0  0  0  0  0
    0.0207   -0.0300    0.0910 H   0  0  0  0  0  0  0  0  0  0  0  0
    1.1427    1.6686    0.0519 C   0  0  0  0  0  0  0  0  0  0  0  0
    2.2141    1.0904    0.0614 O   0  0  0  0  0  0  0  0  0  0  0  0
   -2.6071    3.5752    0.0219 C   0  0  0  0  0  0  0  0  0  0  0  0
   -3.0618    3.7660   -1.4022 C   0  0  0  0  0  0  0  0  0  0  0  0
   -2.7540    4.9334   -2.0755 C   0  0  0  0  0  0  0  0  0  0  0  0
   -3.1669    5.1064   -3.3833 C   0  0  0  0  0  0  0  0  0  0  0  0
   -3.8966    4.1164   -4.0144 C   0  0  0  0  0  0  0  0  0  0  0  0
   -4.2088    2.9512   -3.3394 C   0  0  0  0  0  0  0  0  0  0  0  0
   -3.7914    2.7760   -2.0333 C   0  0  0  0  0  0  0  0  0  0  0  0
   -0.2574    5.0720   -0.0106 N   0  0  0  0  0  0  0  0  0  0  0  0
    5.5589    4.1594    2.9139 H   0  0  0  0  0  0  0  0  0  0  0  0
    5.1484    5.2212    4.2822 H   0  0  0  0  0  0  0  0  0  0  0  0
    3.9108    4.1479    3.5861 H   0  0  0  0  0  0  0  0  0  0  0  0
    3.5866    6.4874    2.8309 H   0  0  0  0  0  0  0  0  0  0  0  0
    5.2943    7.5369    1.3711 H   0  0  0  0  0  0  0  0  0  0  0  0
    5.9563    7.2003    2.9887 H   0  0  0  0  0  0  0  0  0  0  0  0
    6.3668    6.1384    1.6205 H   0  0  0  0  0  0  0  0  0  0  0  0
    2.3424    4.2502    1.9885 H   0  0  0  0  0  0  0  0  0  0  0  0
   -3.3208    2.9423    0.5494 H   0  0  0  0  0  0  0  0  0  0  0  0
   -2.5459    4.5445    0.5167 H   0  0  0  0  0  0  0  0  0  0  0  0
   -2.1878    5.7088   -1.5809 H   0  0  0  0  0  0  0  0  0  0  0  0
   -2.9233    6.0170   -3.9106 H   0  0  0  0  0  0  0  0  0  0  0  0
   -4.2230    4.2534   -5.0348 H   0  0  0  0  0  0  0  0  0  0  0  0
   -4.7792    2.1778   -3.8324 H   0  0  0  0  0  0  0  0  0  0  0  0
   -4.0357    1.8658   -1.5058 H   0  0  0  0  0  0  0  0  0  0  0  0
    0.5429    5.6133   -0.0960 H   0  0  0  0  0  0  0  0  0  0  0  0
   -1.1263    5.4981    0.0567 H   0  0  0  0  0  0  0  0  0  0  0  0
  1  2  1  0  0  0  0
  1 26  1  0  0  0  0
  1 27  1  0  0  0  0
  1 28  1  0  0  0  0
  2  3  1  0  0  0  0
  2  4  1  0  0  0  0
  2 29  1  0  0  0  0
  3 30  1  0  0  0  0
  3 31  1  0  0  0  0
  3 32  1  0  0  0  0
  4  5  2  0  0  0  0
  4  6  1  0  0  0  0
  6  7  1  0  0  0  0
  6 33  1  0  0  0  0
  7  8  2  0  0  0  0
  7  9  1  0  0  0  0
  9 16  1  0  0  0  0
  9 10  2  0  0  0  0
 10 11  1  0  0  0  0
 10 25  1  0  0  0  0
 11 12  1  0  0  0  0
 11 18  1  0  0  0  0
 12 13  2  0  0  0  0
 12 14  1  0  0  0  0
 14 15  1  0  0  0  0
 14 16  1  0  0  0  0
 16 17  2  0  0  0  0
 18 19  1  0  0  0  0
 18 34  1  0  0  0  0
 18 35  1  0  0  0  0
 19 24  2  0  0  0  0
 19 20  1  0  0  0  0
 20 21  2  0  0  0  0
 20 36  1  0  0  0  0
 21 22  1  0  0  0  0
 21 37  1  0  0  0  0
 22 23  2  0  0  0  0
 22 38  1  0  0  0  0
 23 24  1  0  0  0  0
 23 39  1  0  0  0  0
 24 40  1  0  0  0  0
 25 41  1  0  0  0  0
 25 42  1  0  0  0  0
M  END
$$$$
ZINC03315546
  -OEChem-08230709453D

 45 47  0     0  0  0  0  0  0999 V2000
    5.0005   -3.9131   -0.7294 C   0  0  0  0  0  0  0  0  0  0  0  0
    3.7777   -4.7634   -0.5002 C   0  0  0  0  0  0  0  0  0  0  0  0
    3.8964   -6.0895   -0.4152 C   0  0  0  0  0  0  0  0  0  0  0  0
    2.2068   -6.6026   -0.1496 S   0  0  0  0  0  0  0  0  0  0  0  0
    1.4541   -4.9827   -0.1660 C   0  0  0  0  0  0  0  0  0  0  0  0
    0.1960   -4.6500   -0.0162 N   0  0  0  0  0  0  0  0  0  0  0  0
   -0.1853   -3.2369    0.0486 C   0  0  0  0  0  0  0  0  0  0  0  0
   -0.9754   -2.9803    1.3334 C   0  0  0  0  0  0  0  0  0  0  0  0
   -1.3737   -1.5046    1.4010 C   0  0  0  0  0  0  0  0  0  0  0  0
   -2.2411   -1.1544    0.1903 C   0  0  0  0  0  0  0  0  0  0  0  0
   -1.4509   -1.4110   -1.0945 C   0  0  0  0  0  0  0  0  0  0  0  0
   -1.0527   -2.8867   -1.1621 C   0  0  0  0  0  0  0  0  0  0  0  0
    2.5537   -4.1751   -0.3808 N   0  0  0  0  0  0  0  0  0  0  0  0
    2.4153   -2.7837   -0.4682 N   0  0  0  0  0  0  0  0  0  0  0  0
    2.9148   -2.1438   -1.4822 C   0  0  0  0  0  0  0  0  0  0  0  0
    2.9096   -0.6710   -1.4987 C   0  0  0  0  0  0  0  0  0  0  0  0
    3.3340    0.0193   -2.6378 C   0  0  0  0  0  0  0  0  0  0  0  0
    3.3288    1.3973   -2.6508 C   0  0  0  0  0  0  0  0  0  0  0  0
    2.9029    2.1062   -1.5350 C   0  0  0  0  0  0  0  0  0  0  0  0
    2.4785    1.4305   -0.3961 C   0  0  0  0  0  0  0  0  0  0  0  0
    2.4797    0.0433   -0.3722 C   0  0  0  0  0  0  0  0  0  0  0  0
    2.0652   -0.6202    0.7391 O   0  0  0  0  0  0  0  0  0  0  0  0
    2.0617    2.1297    0.6947 O   0  0  0  0  0  0  0  0  0  0  0  0
    2.9013    3.4655   -1.5561 O   0  0  0  0  0  0  0  0  0  0  0  0
    5.4318   -3.6304    0.2309 H   0  0  0  0  0  0  0  0  0  0  0  0
    5.7337   -4.4786   -1.3046 H   0  0  0  0  0  0  0  0  0  0  0  0
    4.7206   -3.0152   -1.2804 H   0  0  0  0  0  0  0  0  0  0  0  0
    4.7864   -6.6970   -0.4879 H   0  0  0  0  0  0  0  0  0  0  0  0
    0.7119   -2.6179    0.0440 H   0  0  0  0  0  0  0  0  0  0  0  0
   -1.8726   -3.5993    1.3380 H   0  0  0  0  0  0  0  0  0  0  0  0
   -0.3575   -3.2298    2.1959 H   0  0  0  0  0  0  0  0  0  0  0  0
   -0.4765   -0.8856    1.3965 H   0  0  0  0  0  0  0  0  0  0  0  0
   -1.9366   -1.3217    2.3164 H   0  0  0  0  0  0  0  0  0  0  0  0
   -2.5248   -0.1030    0.2385 H   0  0  0  0  0  0  0  0  0  0  0  0
   -3.1382   -1.7734    0.1949 H   0  0  0  0  0  0  0  0  0  0  0  0
   -0.5538   -0.7920   -1.0991 H   0  0  0  0  0  0  0  0  0  0  0  0
   -2.0689   -1.1615   -1.9570 H   0  0  0  0  0  0  0  0  0  0  0  0
   -0.4898   -3.0696   -2.0775 H   0  0  0  0  0  0  0  0  0  0  0  0
   -1.9499   -3.5057   -1.1576 H   0  0  0  0  0  0  0  0  0  0  0  0
    3.3338   -2.6916   -2.3133 H   0  0  0  0  0  0  0  0  0  0  0  0
    3.6664   -0.5276   -3.5078 H   0  0  0  0  0  0  0  0  0  0  0  0
    3.6614    1.9282   -3.5306 H   0  0  0  0  0  0  0  0  0  0  0  0
    2.7718   -0.8064    1.3724 H   0  0  0  0  0  0  0  0  0  0  0  0
    2.7678    2.3379    1.3218 H   0  0  0  0  0  0  0  0  0  0  0  0
    2.0743    3.8529   -1.8740 H   0  0  0  0  0  0  0  0  0  0  0  0
  1  2  1  0  0  0  0
  1 25  1  0  0  0  0
  1 26  1  0  0  0  0
  1 27  1  0  0  0  0
  2 13  1  0  0  0  0
  2  3  2  0  0  0  0
  3  4  1  0  0  0  0
  3 28  1  0  0  0  0
  4  5  1  0  0  0  0
  5  6  2  0  0  0  0
  5 13  1  0  0  0  0
  6  7  1  0  0  0  0
  7 12  1  0  0  0  0
  7  8  1  0  0  0  0
  7 29  1  0  0  0  0
  8  9  1  0  0  0  0
  8 30  1  0  0  0  0
  8 31  1  0  0  0  0
  9 10  1  0  0  0  0
  9 32  1  0  0  0  0
  9 33  1  0  0  0  0
 10 11  1  0  0  0  0
 10 34  1  0  0  0  0
 10 35  1  0  0  0  0
 11 12  1  0  0  0  0
 11 36  1  0  0  0  0
 11 37  1  0  0  0  0
 12 38  1  0  0  0  0
 12 39  1  0  0  0  0
 13 14  1  0  0  0  0
 14 15  2  0  0  0  0
 15 16  1  0  0  0  0
 15 40  1  0  0  0  0
 16 21  2  0  0  0  0
 16 17  1  0  0  0  0
 17 18  2  0  0  0  0
 17 41  1  0  0  0  0
 18 19  1  0  0  0  0
 18 42  1  0  0  0  0
 19 20  2  0  0  0  0
 19 24  1  0  0  0  0
 20 21  1  0  0  0  0
 20 23  1  0  0  0  0
 21 22  1  0  0  0  0
 22 43  1  0  0  0  0
 23 44  1  0  0  0  0
 24 45  1  0  0  0  0
M  END
$$$$
ZINC03316189
  -OEChem-08230709453D

 45 47  0     0  0  0  0  0  0999 V2000
   -3.1310    1.9225    3.4428 C   0  0  0  0  0  0  0  0  0  0  0  0
   -1.8086    2.6896    3.5032 C   0  0  0  0  0  0  0  0  0  0  0  0
   -0.6628    1.7122    3.5563 C   0  0  0  0  0  0  0  0  0  0  0  0
   -0.1279    1.3461    4.7725 C   0  0  0  0  0  0  0  0  0  0  0  0
    0.9324    0.4418    4.8237 C   0  0  0  0  0  0  0  0  0  0  0  0
    1.4498   -0.0913    3.6369 C   0  0  0  0  0  0  0  0  0  0  0  0
    0.9019    0.2778    2.4205 C   0  0  0  0  0  0  0  0  0  0  0  0
   -0.1490    1.1824    2.3788 C   0  0  0  0  0  0  0  0  0  0  0  0
   -0.6812    1.5471    1.1837 O   0  0  0  0  0  0  0  0  0  0  0  0
   -0.1056    0.9648    0.0125 C   0  0  0  0  0  0  0  0  0  0  0  0
   -0.8305    1.4913   -1.2278 C   0  0  0  0  0  0  0  0  0  0  0  0
    2.4818   -0.9726    3.6794 O   0  0  0  0  0  0  0  0  0  0  0  0
    1.5095    0.0469    6.1289 C   0  0  0  0  0  0  0  0  0  0  0  0
    0.6777   -0.3191    7.1891 C   0  0  0  0  0  0  0  0  0  0  0  0
    1.2696   -0.6837    8.3994 C   0  0  0  0  0  0  0  0  0  0  0  0
    2.6001   -0.6699    8.5000 N   0  0  0  0  0  0  0  0  0  0  0  0
    3.3547   -0.3168    7.4719 C   0  0  0  0  0  0  0  0  0  0  0  0
    2.8303    0.0305    6.3066 N   0  0  0  0  0  0  0  0  0  0  0  0
    4.7314   -0.3160    7.6169 N   0  0  0  0  0  0  0  0  0  0  0  0
    0.4346   -1.0800    9.5529 C   0  0  0  0  0  0  0  0  0  0  0  0
    0.8041   -1.4545   10.7698 N   0  0  0  0  0  0  0  0  0  0  0  0
   -0.0797   -1.7756   11.6818 C   0  0  0  0  0  0  0  0  0  0  0  0
   -1.4081   -1.7275   11.3853 C   0  0  0  0  0  0  0  0  0  0  0  0
   -1.3460   -1.1758    9.6851 S   0  0  0  0  0  0  0  0  0  0  0  0
    0.3725   -2.1979   13.0559 C   0  0  0  0  0  0  0  0  0  0  0  0
   -3.9597    2.6294    3.4043 H   0  0  0  0  0  0  0  0  0  0  0  0
   -3.1468    1.2953    2.5514 H   0  0  0  0  0  0  0  0  0  0  0  0
   -3.2285    1.2962    4.3295 H   0  0  0  0  0  0  0  0  0  0  0  0
   -1.7928    3.3168    4.3945 H   0  0  0  0  0  0  0  0  0  0  0  0
   -1.7111    3.3159    2.6164 H   0  0  0  0  0  0  0  0  0  0  0  0
   -0.5300    1.7592    5.6858 H   0  0  0  0  0  0  0  0  0  0  0  0
    1.2953   -0.1354    1.5035 H   0  0  0  0  0  0  0  0  0  0  0  0
   -0.2058   -0.1195    0.0590 H   0  0  0  0  0  0  0  0  0  0  0  0
    0.9502    1.2300   -0.0438 H   0  0  0  0  0  0  0  0  0  0  0  0
   -0.7302    2.5757   -1.2743 H   0  0  0  0  0  0  0  0  0  0  0  0
   -0.3915    1.0471   -2.1211 H   0  0  0  0  0  0  0  0  0  0  0  0
   -1.8863    1.2261   -1.1715 H   0  0  0  0  0  0  0  0  0  0  0  0
    2.2068   -1.8976    3.7423 H   0  0  0  0  0  0  0  0  0  0  0  0
   -0.3963   -0.3203    7.0755 H   0  0  0  0  0  0  0  0  0  0  0  0
    5.1301   -0.5719    8.4633 H   0  0  0  0  0  0  0  0  0  0  0  0
    5.2974   -0.0595    6.8720 H   0  0  0  0  0  0  0  0  0  0  0  0
   -2.2621   -1.9544   12.0062 H   0  0  0  0  0  0  0  0  0  0  0  0
    0.4473   -1.3211   13.6992 H   0  0  0  0  0  0  0  0  0  0  0  0
   -0.3498   -2.8970   13.4773 H   0  0  0  0  0  0  0  0  0  0  0  0
    1.3471   -2.6809   12.9853 H   0  0  0  0  0  0  0  0  0  0  0  0
  1  2  1  0  0  0  0
  1 26  1  0  0  0  0
  1 27  1  0  0  0  0
  1 28  1  0  0  0  0
  2  3  1  0  0  0  0
  2 29  1  0  0  0  0
  2 30  1  0  0  0  0
  3  8  2  0  0  0  0
  3  4  1  0  0  0  0
  4  5  2  0  0  0  0
  4 31  1  0  0  0  0
  5  6  1  0  0  0  0
  5 13  1  0  0  0  0
  6  7  2  0  0  0  0
  6 12  1  0  0  0  0
  7  8  1  0  0  0  0
  7 32  1  0  0  0  0
  8  9  1  0  0  0  0
  9 10  1  0  0  0  0
 10 11  1  0  0  0  0
 10 33  1  0  0  0  0
 10 34  1  0  0  0  0
 11 35  1  0  0  0  0
 11 36  1  0  0  0  0
 11 37  1  0  0  0  0
 12 38  1  0  0  0  0
 13 18  2  0  0  0  0
 13 14  1  0  0  0  0
 14 15  2  0  0  0  0
 14 39  1  0  0  0  0
 15 16  1  0  0  0  0
 15 20  1  0  0  0  0
 16 17  2  0  0  0  0
 17 18  1  0  0  0  0
 17 19  1  0  0  0  0
 19 40  1  0  0  0  0
 19 41  1  0  0  0  0
 20 24  1  0  0  0  0
 20 21  2  0  0  0  0
 21 22  1  0  0  0  0
 22 23  2  0  0  0  0
 22 25  1  0  0  0  0
 23 24  1  0  0  0  0
 23 42  1  0  0  0  0
 25 43  1  0  0  0  0
 25 44  1  0  0  0  0
 25 45  1  0  0  0  0
M  END
$$$$
ZINC03316197
  -OEChem-08230709453D

 42 44  0     0  0  0  0  0  0999 V2000
    0.2850    0.4504    0.1100 C   0  0  0  0  0  0  0  0  0  0  0  0
   -0.4897    1.1504    1.2284 C   0  0  0  0  0  0  0  0  0  0  0  0
    0.1223    0.7987    2.5598 C   0  0  0  0  0  0  0  0  0  0  0  0
    0.9779    1.6854    3.1787 C   0  0  0  0  0  0  0  0  0  0  0  0
    1.5450    1.3611    4.4119 C   0  0  0  0  0  0  0  0  0  0  0  0
    1.2414    0.1336    5.0159 C   0  0  0  0  0  0  0  0  0  0  0  0
    0.3817   -0.7486    4.3860 C   0  0  0  0  0  0  0  0  0  0  0  0
   -0.1816   -0.4153    3.1624 C   0  0  0  0  0  0  0  0  0  0  0  0
   -1.0296   -1.2819    2.5491 O   0  0  0  0  0  0  0  0  0  0  0  0
    1.7892   -0.1889    6.2164 O   0  0  0  0  0  0  0  0  0  0  0  0
    2.4614    2.3083    5.0781 C   0  0  0  0  0  0  0  0  0  0  0  0
    3.8114    2.1125    5.3437 C   0  0  0  0  0  0  0  0  0  0  0  0
    4.2353    3.3067    5.9899 C   0  0  0  0  0  0  0  0  0  0  0  0
    3.1846    4.0976    6.0780 N   0  0  0  0  0  0  0  0  0  0  0  0
    2.1483    3.5457    5.5596 N   0  0  0  0  0  0  0  0  0  0  0  0
    1.2407    3.9632    5.5150 H   0  0  0  0  0  0  0  0  0  0  0  0
    5.5948    3.6021    6.4761 C   0  0  0  0  0  0  0  0  0  0  0  0
    6.5017    2.8243    6.2544 O   0  0  0  0  0  0  0  0  0  0  0  0
    5.8322    4.7347    7.1666 O   0  0  0  0  0  0  0  0  0  0  0  0
    7.1948    4.9604    7.6145 C   0  0  0  0  0  0  0  0  0  0  0  0
    7.2688    6.2862    8.3747 C   0  0  0  0  0  0  0  0  0  0  0  0
    4.6309    0.9211    5.0216 C   0  0  0  0  0  0  0  0  0  0  0  0
    4.5885    0.3493    3.7773 C   0  0  0  0  0  0  0  0  0  0  0  0
    5.7473   -0.9936    3.9928 S   0  0  0  0  0  0  0  0  0  0  0  0
    6.1522   -0.6827    5.6521 C   0  0  0  0  0  0  0  0  0  0  0  0
    5.4237    0.3715    5.9287 N   0  0  0  0  0  0  0  0  0  0  0  0
    0.2398   -0.6286    0.2570 H   0  0  0  0  0  0  0  0  0  0  0  0
    1.3250    0.7765    0.1293 H   0  0  0  0  0  0  0  0  0  0  0  0
   -0.1577    0.7049   -0.8530 H   0  0  0  0  0  0  0  0  0  0  0  0
   -0.4445    2.2295    1.0814 H   0  0  0  0  0  0  0  0  0  0  0  0
   -1.5297    0.8244    1.2090 H   0  0  0  0  0  0  0  0  0  0  0  0
    1.2086    2.6304    2.7095 H   0  0  0  0  0  0  0  0  0  0  0  0
    0.1457   -1.6954    4.8488 H   0  0  0  0  0  0  0  0  0  0  0  0
   -0.5911   -1.9092    1.9580 H   0  0  0  0  0  0  0  0  0  0  0  0
    1.2618    0.0907    6.9772 H   0  0  0  0  0  0  0  0  0  0  0  0
    7.5005    4.1469    8.2724 H   0  0  0  0  0  0  0  0  0  0  0  0
    7.8593    4.9989    6.7513 H   0  0  0  0  0  0  0  0  0  0  0  0
    6.9632    7.0997    7.7168 H   0  0  0  0  0  0  0  0  0  0  0  0
    6.6044    6.2477    9.2378 H   0  0  0  0  0  0  0  0  0  0  0  0
    8.2918    6.4556    8.7109 H   0  0  0  0  0  0  0  0  0  0  0  0
    4.0150    0.6326    2.9071 H   0  0  0  0  0  0  0  0  0  0  0  0
    6.8323   -1.2221    6.2947 H   0  0  0  0  0  0  0  0  0  0  0  0
  1  2  1  0  0  0  0
  1 27  1  0  0  0  0
  1 28  1  0  0  0  0
  1 29  1  0  0  0  0
  2  3  1  0  0  0  0
  2 30  1  0  0  0  0
  2 31  1  0  0  0  0
  3  8  2  0  0  0  0
  3  4  1  0  0  0  0
  4  5  2  0  0  0  0
  4 32  1  0  0  0  0
  5  6  1  0  0  0  0
  5 11  1  0  0  0  0
  6  7  2  0  0  0  0
  6 10  1  0  0  0  0
  7  8  1  0  0  0  0
  7 33  1  0  0  0  0
  8  9  1  0  0  0  0
  9 34  1  0  0  0  0
 10 35  1  0  0  0  0
 11 15  1  0  0  0  0
 11 12  2  0  0  0  0
 12 13  1  0  0  0  0
 12 22  1  0  0  0  0
 13 14  2  0  0  0  0
 13 17  1  0  0  0  0
 14 15  1  0  0  0  0
 15 16  1  0  0  0  0
 17 18  2  0  0  0  0
 17 19  1  0  0  0  0
 19 20  1  0  0  0  0
 20 21  1  0  0  0  0
 20 36  1  0  0  0  0
 20 37  1  0  0  0  0
 21 38  1  0  0  0  0
 21 39  1  0  0  0  0
 21 40  1  0  0  0  0
 22 26  1  0  0  0  0
 22 23  2  0  0  0  0
 23 24  1  0  0  0  0
 23 41  1  0  0  0  0
 24 25  1  0  0  0  0
 25 26  2  0  0  0  0
 25 42  1  0  0  0  0
M  END
$$$$
ZINC03316197
  -OEChem-08230709453D

 42 44  0     0  0  0  0  0  0999 V2000
    0.2778    0.4503    0.1149 C   0  0  0  0  0  0  0  0  0  0  0  0
   -0.4956    1.1490    1.2350 C   0  0  0  0  0  0  0  0  0  0  0  0
    0.1189    0.7970    2.5651 C   0  0  0  0  0  0  0  0  0  0  0  0
    0.9747    1.6841    3.1831 C   0  0  0  0  0  0  0  0  0  0  0  0
    1.5441    1.3596    4.4152 C   0  0  0  0  0  0  0  0  0  0  0  0
    1.2426    0.1315    5.0190 C   0  0  0  0  0  0  0  0  0  0  0  0
    0.3827   -0.7511    4.3900 C   0  0  0  0  0  0  0  0  0  0  0  0
   -0.1829   -0.4176    3.1675 C   0  0  0  0  0  0  0  0  0  0  0  0
   -1.0312   -1.2846    2.5551 O   0  0  0  0  0  0  0  0  0  0  0  0
    1.7927   -0.1912    6.2184 O   0  0  0  0  0  0  0  0  0  0  0  0
    2.4608    2.3072    5.0805 C   0  0  0  0  0  0  0  0  0  0  0  0
    3.8128    2.1150    5.3382 C   0  0  0  0  0  0  0  0  0  0  0  0
    4.2375    3.3106    5.9813 C   0  0  0  0  0  0  0  0  0  0  0  0
    3.1840    4.0966    6.0802 N   0  0  0  0  0  0  0  0  0  0  0  0
    2.1474    3.5441    5.5632 N   0  0  0  0  0  0  0  0  0  0  0  0
    3.1915    5.0032    6.5021 H   0  0  0  0  0  0  0  0  0  0  0  0
    5.5985    3.6087    6.4615 C   0  0  0  0  0  0  0  0  0  0  0  0
    6.5058    2.8322    6.2368 O   0  0  0  0  0  0  0  0  0  0  0  0
    5.8370    4.7425    7.1498 O   0  0  0  0  0  0  0  0  0  0  0  0
    7.2011    4.9709    7.5917 C   0  0  0  0  0  0  0  0  0  0  0  0
    7.2761    6.2976    8.3501 C   0  0  0  0  0  0  0  0  0  0  0  0
    4.6329    0.9246    5.0139 C   0  0  0  0  0  0  0  0  0  0  0  0
    4.5862    0.3514    3.7704 C   0  0  0  0  0  0  0  0  0  0  0  0
    5.7481   -0.9894    3.9825 S   0  0  0  0  0  0  0  0  0  0  0  0
    6.1595   -0.6760    5.6397 C   0  0  0  0  0  0  0  0  0  0  0  0
    5.4304    0.3773    5.9183 N   0  0  0  0  0  0  0  0  0  0  0  0
    0.2338   -0.6288    0.2613 H   0  0  0  0  0  0  0  0  0  0  0  0
    1.3176    0.7773    0.1326 H   0  0  0  0  0  0  0  0  0  0  0  0
   -0.1667    0.7050   -0.8472 H   0  0  0  0  0  0  0  0  0  0  0  0
   -0.4517    2.2282    1.0885 H   0  0  0  0  0  0  0  0  0  0  0  0
   -1.5354    0.8220    1.2171 H   0  0  0  0  0  0  0  0  0  0  0  0
    1.2038    2.6296    2.7141 H   0  0  0  0  0  0  0  0  0  0  0  0
    0.1483   -1.6984    4.8526 H   0  0  0  0  0  0  0  0  0  0  0  0
   -0.5931   -1.9112    1.9629 H   0  0  0  0  0  0  0  0  0  0  0  0
    1.2663    0.0875    6.9802 H   0  0  0  0  0  0  0  0  0  0  0  0
    7.5109    4.1586    8.2491 H   0  0  0  0  0  0  0  0  0  0  0  0
    7.8619    5.0096    6.7256 H   0  0  0  0  0  0  0  0  0  0  0  0
    6.9664    7.1099    7.6927 H   0  0  0  0  0  0  0  0  0  0  0  0
    6.6154    6.2590    9.2161 H   0  0  0  0  0  0  0  0  0  0  0  0
    8.3002    6.4691    8.6818 H   0  0  0  0  0  0  0  0  0  0  0  0
    4.0086    0.6328    2.9023 H   0  0  0  0  0  0  0  0  0  0  0  0
    6.8432   -1.2136    6.2800 H   0  0  0  0  0  0  0  0  0  0  0  0
  1  2  1  0  0  0  0
  1 27  1  0  0  0  0
  1 28  1  0  0  0  0
  1 29  1  0  0  0  0
  2  3  1  0  0  0  0
  2 30  1  0  0  0  0
  2 31  1  0  0  0  0
  3  8  2  0  0  0  0
  3  4  1  0  0  0  0
  4  5  2  0  0  0  0
  4 32  1  0  0  0  0
  5  6  1  0  0  0  0
  5 11  1  0  0  0  0
  6  7  2  0  0  0  0
  6 10  1  0  0  0  0
  7  8  1  0  0  0  0
  7 33  1  0  0  0  0
  8  9  1  0  0  0  0
  9 34  1  0  0  0  0
 10 35  1  0  0  0  0
 11 12  1  0  0  0  0
 11 15  2  0  0  0  0
 12 22  1  0  0  0  0
 12 13  2  0  0  0  0
 13 17  1  0  0  0  0
 13 14  1  0  0  0  0
 14 16  1  0  0  0  0
 14 15  1  0  0  0  0
 17 18  2  0  0  0  0
 17 19  1  0  0  0  0
 19 20  1  0  0  0  0
 20 21  1  0  0  0  0
 20 36  1  0  0  0  0
 20 37  1  0  0  0  0
 21 38  1  0  0  0  0
 21 39  1  0  0  0  0
 21 40  1  0  0  0  0
 22 26  1  0  0  0  0
 22 23  2  0  0  0  0
 23 24  1  0  0  0  0
 23 41  1  0  0  0  0
 24 25  1  0  0  0  0
 25 26  2  0  0  0  0
 25 42  1  0  0  0  0
M  END
$$$$
ZINC03321616
  -OEChem-08230709453D

 46 47  0     1  0  0  0  0  0999 V2000
   -2.7938    3.8254   -2.4131 C   0  0  0  0  0  0  0  0  0  0  0  0
   -1.2961    4.1222   -2.5121 C   0  0  0  0  0  0  0  0  0  0  0  0
   -1.0812    5.6337   -2.6117 C   0  0  0  0  0  0  0  0  0  0  0  0
   -0.5867    3.5871   -1.2666 C   0  0  0  0  0  0  0  0  0  0  0  0
   -0.6957    2.0614   -1.2334 C   0  0  0  0  0  0  0  0  0  0  0  0
    0.0136    1.5264    0.0121 C   0  0  1  0  0  0  0  0  0  0  0  0
    0.0279    0.0106    0.0080 C   0  0  0  0  0  0  0  0  0  0  0  0
   -0.9313   -0.7308    0.0223 O   0  0  0  0  0  0  0  0  0  0  0  0
    1.3286   -0.3415   -0.0140 N   0  0  0  0  0  0  0  0  0  0  0  0
    2.1297    0.7300   -0.0243 C   0  0  0  0  0  0  0  0  0  0  0  0
    3.3433    0.6660   -0.0446 O   0  0  0  0  0  0  0  0  0  0  0  0
    1.4420    1.8861   -0.0102 N   0  0  0  0  0  0  0  0  0  0  0  0
    1.8062   -1.7264   -0.0261 C   0  0  0  0  0  0  0  0  0  0  0  0
    1.9471   -2.1967   -1.4509 C   0  0  0  0  0  0  0  0  0  0  0  0
    1.6753   -1.4487   -2.3662 O   0  0  0  0  0  0  0  0  0  0  0  0
    2.3752   -3.4486   -1.7080 N   0  0  0  0  0  0  0  0  0  0  0  0
    2.4174   -3.9171   -3.0271 C   0  0  0  0  0  0  0  0  0  0  0  0
    2.7325   -3.0494   -4.0638 C   0  0  0  0  0  0  0  0  0  0  0  0
    2.7738   -3.5143   -5.3640 C   0  0  0  0  0  0  0  0  0  0  0  0
    2.5023   -4.8429   -5.6346 C   0  0  0  0  0  0  0  0  0  0  0  0
    2.1879   -5.7112   -4.6055 C   0  0  0  0  0  0  0  0  0  0  0  0
    2.1493   -5.2537   -3.3009 C   0  0  0  0  0  0  0  0  0  0  0  0
    1.8477   -6.1032   -2.2946 F   0  0  0  0  0  0  0  0  0  0  0  0
   -0.6548    2.0549    1.2828 C   0  0  0  0  0  0  0  0  0  0  0  0
   -2.9469    2.7486   -2.3422 H   0  0  0  0  0  0  0  0  0  0  0  0
   -3.2023    4.3097   -1.5262 H   0  0  0  0  0  0  0  0  0  0  0  0
   -3.2991    4.2066   -3.3005 H   0  0  0  0  0  0  0  0  0  0  0  0
   -0.8876    3.6379   -3.3991 H   0  0  0  0  0  0  0  0  0  0  0  0
   -0.0142    5.8451   -2.6823 H   0  0  0  0  0  0  0  0  0  0  0  0
   -1.5865    6.0149   -3.4991 H   0  0  0  0  0  0  0  0  0  0  0  0
   -1.4897    6.1180   -1.7248 H   0  0  0  0  0  0  0  0  0  0  0  0
   -1.0544    4.0043   -0.3747 H   0  0  0  0  0  0  0  0  0  0  0  0
    0.4640    3.8758   -1.2947 H   0  0  0  0  0  0  0  0  0  0  0  0
   -0.2280    1.6443   -2.1253 H   0  0  0  0  0  0  0  0  0  0  0  0
   -1.7464    1.7727   -1.2053 H   0  0  0  0  0  0  0  0  0  0  0  0
    1.8141    2.7819   -0.0142 H   0  0  0  0  0  0  0  0  0  0  0  0
    2.7742   -1.7812    0.4720 H   0  0  0  0  0  0  0  0  0  0  0  0
    1.0917   -2.3617    0.4973 H   0  0  0  0  0  0  0  0  0  0  0  0
    2.6540   -4.0251   -0.9795 H   0  0  0  0  0  0  0  0  0  0  0  0
    2.9448   -2.0114   -3.8541 H   0  0  0  0  0  0  0  0  0  0  0  0
    3.0190   -2.8391   -6.1704 H   0  0  0  0  0  0  0  0  0  0  0  0
    2.5362   -5.2033   -6.6521 H   0  0  0  0  0  0  0  0  0  0  0  0
    1.9763   -6.7483   -4.8202 H   0  0  0  0  0  0  0  0  0  0  0  0
   -0.1113    1.6944    2.1562 H   0  0  0  0  0  0  0  0  0  0  0  0
   -0.6440    3.1448    1.2726 H   0  0  0  0  0  0  0  0  0  0  0  0
   -1.6853    1.7022    1.3250 H   0  0  0  0  0  0  0  0  0  0  0  0
  1  2  1  0  0  0  0
  1 25  1  0  0  0  0
  1 26  1  0  0  0  0
  1 27  1  0  0  0  0
  2  3  1  0  0  0  0
  2  4  1  0  0  0  0
  2 28  1  0  0  0  0
  3 29  1  0  0  0  0
  3 30  1  0  0  0  0
  3 31  1  0  0  0  0
  4  5  1  0  0  0  0
  4 32  1  0  0  0  0
  4 33  1  0  0  0  0
  5  6  1  0  0  0  0
  5 34  1  0  0  0  0
  5 35  1  0  0  0  0
  6 12  1  0  0  0  0
  6  7  1  0  0  0  0
  6 24  1  0  0  0  0
  7  8  2  0  0  0  0
  7  9  1  0  0  0  0
  9 10  1  0  0  0  0
  9 13  1  0  0  0  0
 10 11  2  0  0  0  0
 10 12  1  0  0  0  0
 12 36  1  0  0  0  0
 13 14  1  0  0  0  0
 13 37  1  0  0  0  0
 13 38  1  0  0  0  0
 14 15  2  0  0  0  0
 14 16  1  0  0  0  0
 16 17  1  0  0  0  0
 16 39  1  0  0  0  0
 17 22  2  0  0  0  0
 17 18  1  0  0  0  0
 18 19  2  0  0  0  0
 18 40  1  0  0  0  0
 19 20  1  0  0  0  0
 19 41  1  0  0  0  0
 20 21  2  0  0  0  0
 20 42  1  0  0  0  0
 21 22  1  0  0  0  0
 21 43  1  0  0  0  0
 22 23  1  0  0  0  0
 24 44  1  0  0  0  0
 24 45  1  0  0  0  0
 24 46  1  0  0  0  0
M  END
$$$$
ZINC03321618
  -OEChem-08230709453D

 46 47  0     1  0  0  0  0  0999 V2000
   -0.0476   -0.5435    5.0232 C   0  0  0  0  0  0  0  0  0  0  0  0
    0.7741   -0.9223    3.7894 C   0  0  0  0  0  0  0  0  0  0  0  0
    0.9273   -2.4433    3.7260 C   0  0  0  0  0  0  0  0  0  0  0  0
    0.0598   -0.4286    2.5297 C   0  0  0  0  0  0  0  0  0  0  0  0
    0.0172    1.1008    2.5337 C   0  0  0  0  0  0  0  0  0  0  0  0
   -0.6971    1.5944    1.2740 C   0  0  2  0  0  0  0  0  0  0  0  0
   -0.7999    3.1067    1.2772 C   0  0  0  0  0  0  0  0  0  0  0  0
    0.1144    3.9028    1.2852 O   0  0  0  0  0  0  0  0  0  0  0  0
   -2.1234    3.3788    1.2684 N   0  0  0  0  0  0  0  0  0  0  0  0
   -2.8580    2.2606    1.2631 C   0  0  0  0  0  0  0  0  0  0  0  0
   -4.0733    2.2507    1.2565 O   0  0  0  0  0  0  0  0  0  0  0  0
   -2.1010    1.1485    1.2659 N   0  0  0  0  0  0  0  0  0  0  0  0
   -2.6845    4.7321    1.2678 C   0  0  0  0  0  0  0  0  0  0  0  0
   -2.8843    5.1937    2.6883 C   0  0  0  0  0  0  0  0  0  0  0  0
   -2.5873    4.4640    3.6106 O   0  0  0  0  0  0  0  0  0  0  0  0
   -3.3931    6.4173    2.9341 N   0  0  0  0  0  0  0  0  0  0  0  0
   -3.6661    6.8108    4.2501 C   0  0  0  0  0  0  0  0  0  0  0  0
   -2.8499    6.3822    5.2878 C   0  0  0  0  0  0  0  0  0  0  0  0
   -3.1212    6.7723    6.5850 C   0  0  0  0  0  0  0  0  0  0  0  0
   -4.2044    7.5895    6.8514 C   0  0  0  0  0  0  0  0  0  0  0  0
   -5.0204    8.0192    5.8213 C   0  0  0  0  0  0  0  0  0  0  0  0
   -4.7520    7.6364    4.5196 C   0  0  0  0  0  0  0  0  0  0  0  0
   -5.5459    8.0607    3.5121 F   0  0  0  0  0  0  0  0  0  0  0  0
    0.0298    1.1070    0.0190 C   0  0  0  0  0  0  0  0  0  0  0  0
    0.4613   -0.8952    5.9207 H   0  0  0  0  0  0  0  0  0  0  0  0
   -0.1567    0.5401    5.0684 H   0  0  0  0  0  0  0  0  0  0  0  0
   -1.0327   -1.0055    4.9595 H   0  0  0  0  0  0  0  0  0  0  0  0
    1.7593   -0.4602    3.8531 H   0  0  0  0  0  0  0  0  0  0  0  0
    1.5127   -2.7131    2.8470 H   0  0  0  0  0  0  0  0  0  0  0  0
    1.4362   -2.7949    4.6234 H   0  0  0  0  0  0  0  0  0  0  0  0
   -0.0579   -2.9053    3.6623 H   0  0  0  0  0  0  0  0  0  0  0  0
   -0.9572   -0.8204    2.5116 H   0  0  0  0  0  0  0  0  0  0  0  0
    0.5983   -0.7748    1.6474 H   0  0  0  0  0  0  0  0  0  0  0  0
    1.0343    1.4925    2.5518 H   0  0  0  0  0  0  0  0  0  0  0  0
   -0.5212    1.4469    3.4160 H   0  0  0  0  0  0  0  0  0  0  0  0
   -2.4180    0.2317    1.2635 H   0  0  0  0  0  0  0  0  0  0  0  0
   -1.9989    5.4095    0.7587 H   0  0  0  0  0  0  0  0  0  0  0  0
   -3.6431    4.7277    0.7489 H   0  0  0  0  0  0  0  0  0  0  0  0
   -3.5703    7.0254    2.1994 H   0  0  0  0  0  0  0  0  0  0  0  0
   -2.0035    5.7439    5.0813 H   0  0  0  0  0  0  0  0  0  0  0  0
   -2.4860    6.4388    7.3922 H   0  0  0  0  0  0  0  0  0  0  0  0
   -4.4132    7.8932    7.8666 H   0  0  0  0  0  0  0  0  0  0  0  0
   -5.8656    8.6574    6.0327 H   0  0  0  0  0  0  0  0  0  0  0  0
    0.0492    0.0172    0.0106 H   0  0  0  0  0  0  0  0  0  0  0  0
    1.0508    1.4885    0.0192 H   0  0  0  0  0  0  0  0  0  0  0  0
   -0.4928    1.4679   -0.8668 H   0  0  0  0  0  0  0  0  0  0  0  0
  1  2  1  0  0  0  0
  1 25  1  0  0  0  0
  1 26  1  0  0  0  0
  1 27  1  0  0  0  0
  2  3  1  0  0  0  0
  2  4  1  0  0  0  0
  2 28  1  0  0  0  0
  3 29  1  0  0  0  0
  3 30  1  0  0  0  0
  3 31  1  0  0  0  0
  4  5  1  0  0  0  0
  4 32  1  0  0  0  0
  4 33  1  0  0  0  0
  5  6  1  0  0  0  0
  5 34  1  0  0  0  0
  5 35  1  0  0  0  0
  6 12  1  0  0  0  0
  6  7  1  0  0  0  0
  6 24  1  0  0  0  0
  7  8  2  0  0  0  0
  7  9  1  0  0  0  0
  9 10  1  0  0  0  0
  9 13  1  0  0  0  0
 10 11  2  0  0  0  0
 10 12  1  0  0  0  0
 12 36  1  0  0  0  0
 13 14  1  0  0  0  0
 13 37  1  0  0  0  0
 13 38  1  0  0  0  0
 14 15  2  0  0  0  0
 14 16  1  0  0  0  0
 16 17  1  0  0  0  0
 16 39  1  0  0  0  0
 17 22  2  0  0  0  0
 17 18  1  0  0  0  0
 18 19  2  0  0  0  0
 18 40  1  0  0  0  0
 19 20  1  0  0  0  0
 19 41  1  0  0  0  0
 20 21  2  0  0  0  0
 20 42  1  0  0  0  0
 21 22  1  0  0  0  0
 21 43  1  0  0  0  0
 22 23  1  0  0  0  0
 24 44  1  0  0  0  0
 24 45  1  0  0  0  0
 24 46  1  0  0  0  0
M  END
$$$$
ZINC03325639
  -OEChem-08230709453D

 44 46  0     0  0  0  0  0  0999 V2000
   -2.5594    1.4122    3.1214 C   0  0  0  0  0  0  0  0  0  0  0  0
   -1.8458    1.0330    1.9999 C   0  0  0  0  0  0  0  0  0  0  0  0
   -0.9267    1.9002    1.4394 C   0  0  0  0  0  0  0  0  0  0  0  0
   -0.7172    3.1446    2.0038 C   0  0  0  0  0  0  0  0  0  0  0  0
   -1.4339    3.5256    3.1228 C   0  0  0  0  0  0  0  0  0  0  0  0
   -2.3536    2.6586    3.6827 C   0  0  0  0  0  0  0  0  0  0  0  0
   -3.1323    3.0725    4.9048 C   0  0  0  0  0  0  0  0  0  0  0  0
   -2.3637    2.6621    6.1624 C   0  0  0  0  0  0  0  0  0  0  0  0
   -3.1206    3.0644    7.3504 N   0  0  0  0  0  0  0  0  0  0  0  0
   -2.6337    2.8040    8.5799 C   0  0  0  0  0  0  0  0  0  0  0  0
   -1.5657    2.2349    8.7031 O   0  0  0  0  0  0  0  0  0  0  0  0
   -3.3942    3.2082    9.7735 C   0  0  0  0  0  0  0  0  0  0  0  0
   -4.6060    3.8533    9.6598 C   0  0  0  0  0  0  0  0  0  0  0  0
   -5.0785    4.1029   11.3082 S   0  0  0  0  0  0  0  0  0  0  0  0
   -3.6886    3.3621   12.1164 C   0  0  0  0  0  0  0  0  0  0  0  0
   -2.8949    2.9348   11.1078 C   0  0  0  0  0  0  0  0  0  0  0  0
   -1.5708    2.2377   11.3939 C   0  0  0  0  0  0  0  0  0  0  0  0
   -1.1588    2.5342   12.8370 C   0  0  0  0  0  0  0  0  0  0  0  0
   -2.3112    2.1978   13.7878 C   0  0  0  0  0  0  0  0  0  0  0  0
   -3.4356    3.2242   13.5855 C   0  0  0  0  0  0  0  0  0  0  0  0
   -0.0172    1.4168    0.0098 S   0  0  0  0  0  0  0  0  0  0  0  0
    0.0021   -0.0041    0.0020 O   0  0  0  0  0  0  0  0  0  0  0  0
    1.1718    2.1948    0.0027 O   0  0  0  0  0  0  0  0  0  0  0  0
   -0.8975    1.8855   -1.3122 N   0  0  0  0  0  0  0  0  0  0  0  0
   -3.2779    0.7349    3.5588 H   0  0  0  0  0  0  0  0  0  0  0  0
   -2.0065    0.0592    1.5613 H   0  0  0  0  0  0  0  0  0  0  0  0
    0.0041    3.8204    1.5686 H   0  0  0  0  0  0  0  0  0  0  0  0
   -1.2734    4.4995    3.5611 H   0  0  0  0  0  0  0  0  0  0  0  0
   -3.2692    4.1539    4.8993 H   0  0  0  0  0  0  0  0  0  0  0  0
   -4.1061    2.5829    4.8981 H   0  0  0  0  0  0  0  0  0  0  0  0
   -2.2268    1.5807    6.1678 H   0  0  0  0  0  0  0  0  0  0  0  0
   -1.3898    3.1516    6.1691 H   0  0  0  0  0  0  0  0  0  0  0  0
   -3.9723    3.5182    7.2522 H   0  0  0  0  0  0  0  0  0  0  0  0
   -5.1336    4.1358    8.7608 H   0  0  0  0  0  0  0  0  0  0  0  0
   -0.8052    2.6077   10.7119 H   0  0  0  0  0  0  0  0  0  0  0  0
   -1.6895    1.1624   11.2612 H   0  0  0  0  0  0  0  0  0  0  0  0
   -0.9076    3.5906   12.9321 H   0  0  0  0  0  0  0  0  0  0  0  0
   -0.2886    1.9305   13.0950 H   0  0  0  0  0  0  0  0  0  0  0  0
   -1.9588    2.2404   14.8184 H   0  0  0  0  0  0  0  0  0  0  0  0
   -2.6862    1.1976   13.5710 H   0  0  0  0  0  0  0  0  0  0  0  0
   -3.1329    4.1866   13.9980 H   0  0  0  0  0  0  0  0  0  0  0  0
   -4.3419    2.8798   14.0835 H   0  0  0  0  0  0  0  0  0  0  0  0
   -1.2009    1.2230   -1.9525 H   0  0  0  0  0  0  0  0  0  0  0  0
   -1.1097    2.8224   -1.4463 H   0  0  0  0  0  0  0  0  0  0  0  0
  1  6  2  0  0  0  0
  1  2  1  0  0  0  0
  1 25  1  0  0  0  0
  2  3  2  0  0  0  0
  2 26  1  0  0  0  0
  3  4  1  0  0  0  0
  3 21  1  0  0  0  0
  4  5  2  0  0  0  0
  4 27  1  0  0  0  0
  5  6  1  0  0  0  0
  5 28  1  0  0  0  0
  6  7  1  0  0  0  0
  7  8  1  0  0  0  0
  7 29  1  0  0  0  0
  7 30  1  0  0  0  0
  8  9  1  0  0  0  0
  8 31  1  0  0  0  0
  8 32  1  0  0  0  0
  9 10  1  0  0  0  0
  9 33  1  0  0  0  0
 10 11  2  0  0  0  0
 10 12  1  0  0  0  0
 12 16  1  0  0  0  0
 12 13  2  0  0  0  0
 13 14  1  0  0  0  0
 13 34  1  0  0  0  0
 14 15  1  0  0  0  0
 15 20  1  0  0  0  0
 15 16  2  0  0  0  0
 16 17  1  0  0  0  0
 17 18  1  0  0  0  0
 17 35  1  0  0  0  0
 17 36  1  0  0  0  0
 18 19  1  0  0  0  0
 18 37  1  0  0  0  0
 18 38  1  0  0  0  0
 19 20  1  0  0  0  0
 19 39  1  0  0  0  0
 19 40  1  0  0  0  0
 20 41  1  0  0  0  0
 20 42  1  0  0  0  0
 21 22  2  0  0  0  0
 21 23  2  0  0  0  0
 21 24  1  0  0  0  0
 24 43  1  0  0  0  0
 24 44  1  0  0  0  0
M  END
$$$$
ZINC03334474
  -OEChem-08230709453D

 47 48  0     0  0  0  0  0  0999 V2000
   -4.3183    4.0734   -4.0065 C   0  0  0  0  0  0  0  0  0  0  0  0
   -4.0908    4.0420   -2.4939 C   0  0  0  0  0  0  0  0  0  0  0  0
   -2.7203    3.4301   -2.1968 C   0  0  0  0  0  0  0  0  0  0  0  0
   -2.4928    3.3987   -0.6841 C   0  0  0  0  0  0  0  0  0  0  0  0
   -1.1805    2.8128   -0.3997 N   0  0  0  0  0  0  0  0  0  0  0  0
   -0.0725    3.6241   -0.3190 C   0  0  0  0  0  0  0  0  0  0  0  0
    1.1577    3.0595   -0.0505 C   0  0  0  0  0  0  0  0  0  0  0  0
    1.2403    1.6663    0.1330 C   0  0  0  0  0  0  0  0  0  0  0  0
    2.3147    1.1412    0.3719 O   0  0  0  0  0  0  0  0  0  0  0  0
    0.1242    0.9168    0.0435 N   0  0  0  0  0  0  0  0  0  0  0  0
    0.1811   -0.0725    0.1775 H   0  0  0  0  0  0  0  0  0  0  0  0
   -1.0654    1.4840   -0.2240 C   0  0  0  0  0  0  0  0  0  0  0  0
   -2.0561    0.7834   -0.3039 O   0  0  0  0  0  0  0  0  0  0  0  0
    2.3124    3.8646    0.0390 N   0  0  0  0  0  0  0  0  0  0  0  0
    2.4410    4.8431    1.1217 C   0  0  0  0  0  0  0  0  0  0  0  0
    3.2387    4.2277    2.2732 C   0  0  0  0  0  0  0  0  0  0  0  0
    3.2975    3.7336   -0.8715 C   0  0  0  0  0  0  0  0  0  0  0  0
    3.2322    2.8601   -1.7182 O   0  0  0  0  0  0  0  0  0  0  0  0
    4.4075    4.6107   -0.8439 C   0  0  0  0  0  0  0  0  0  0  0  0
    5.3987    4.4789   -1.7602 C   0  0  0  0  0  0  0  0  0  0  0  0
    6.5097    5.3567   -1.7326 C   0  0  0  0  0  0  0  0  0  0  0  0
    7.6188    5.3926   -2.5693 C   0  0  0  0  0  0  0  0  0  0  0  0
    8.5594    6.3595   -2.3159 C   0  0  0  0  0  0  0  0  0  0  0  0
    8.3664    7.2186   -1.2805 C   0  0  0  0  0  0  0  0  0  0  0  0
    6.8467    6.7097   -0.6197 S   0  0  0  0  0  0  0  0  0  0  0  0
   -0.1894    4.9812   -0.5032 N   0  0  0  0  0  0  0  0  0  0  0  0
   -4.2806    3.0579   -4.4007 H   0  0  0  0  0  0  0  0  0  0  0  0
   -5.2946    4.5093   -4.2181 H   0  0  0  0  0  0  0  0  0  0  0  0
   -3.5416    4.6753   -4.4783 H   0  0  0  0  0  0  0  0  0  0  0  0
   -4.8674    3.4401   -2.0220 H   0  0  0  0  0  0  0  0  0  0  0  0
   -4.1284    5.0575   -2.0996 H   0  0  0  0  0  0  0  0  0  0  0  0
   -1.9436    4.0320   -2.6686 H   0  0  0  0  0  0  0  0  0  0  0  0
   -2.6826    2.4146   -2.5910 H   0  0  0  0  0  0  0  0  0  0  0  0
   -3.2694    2.7968   -0.2123 H   0  0  0  0  0  0  0  0  0  0  0  0
   -2.5305    4.4143   -0.2899 H   0  0  0  0  0  0  0  0  0  0  0  0
    2.9599    5.7276    0.7523 H   0  0  0  0  0  0  0  0  0  0  0  0
    1.4496    5.1250    1.4763 H   0  0  0  0  0  0  0  0  0  0  0  0
    2.7198    3.3432    2.6427 H   0  0  0  0  0  0  0  0  0  0  0  0
    4.2301    3.9458    1.9186 H   0  0  0  0  0  0  0  0  0  0  0  0
    3.3343    4.9558    3.0788 H   0  0  0  0  0  0  0  0  0  0  0  0
    4.4654    5.3850   -0.0933 H   0  0  0  0  0  0  0  0  0  0  0  0
    5.3408    3.7046   -2.5108 H   0  0  0  0  0  0  0  0  0  0  0  0
    7.7352    4.6915   -3.3825 H   0  0  0  0  0  0  0  0  0  0  0  0
    9.4430    6.4366   -2.9320 H   0  0  0  0  0  0  0  0  0  0  0  0
    9.0036    8.0263   -0.9519 H   0  0  0  0  0  0  0  0  0  0  0  0
    0.6051    5.5368   -0.5334 H   0  0  0  0  0  0  0  0  0  0  0  0
   -1.0665    5.3833   -0.6030 H   0  0  0  0  0  0  0  0  0  0  0  0
  1  2  1  0  0  0  0
  1 27  1  0  0  0  0
  1 28  1  0  0  0  0
  1 29  1  0  0  0  0
  2  3  1  0  0  0  0
  2 30  1  0  0  0  0
  2 31  1  0  0  0  0
  3  4  1  0  0  0  0
  3 32  1  0  0  0  0
  3 33  1  0  0  0  0
  4  5  1  0  0  0  0
  4 34  1  0  0  0  0
  4 35  1  0  0  0  0
  5 12  1  0  0  0  0
  5  6  1  0  0  0  0
  6  7  2  0  0  0  0
  6 26  1  0  0  0  0
  7  8  1  0  0  0  0
  7 14  1  0  0  0  0
  8  9  2  0  0  0  0
  8 10  1  0  0  0  0
 10 11  1  0  0  0  0
 10 12  1  0  0  0  0
 12 13  2  0  0  0  0
 14 15  1  0  0  0  0
 14 17  1  0  0  0  0
 15 16  1  0  0  0  0
 15 36  1  0  0  0  0
 15 37  1  0  0  0  0
 16 38  1  0  0  0  0
 16 39  1  0  0  0  0
 16 40  1  0  0  0  0
 17 18  2  0  0  0  0
 17 19  1  0  0  0  0
 19 20  2  0  0  0  0
 19 41  1  0  0  0  0
 20 21  1  0  0  0  0
 20 42  1  0  0  0  0
 21 25  1  0  0  0  0
 21 22  2  0  0  0  0
 22 23  1  0  0  0  0
 22 43  1  0  0  0  0
 23 24  2  0  0  0  0
 23 44  1  0  0  0  0
 24 25  1  0  0  0  0
 24 45  1  0  0  0  0
 26 46  1  0  0  0  0
 26 47  1  0  0  0  0
M  END
$$$$
ZINC03337368
  -OEChem-08230709453D

 49 50  0     0  0  0  0  0  0999 V2000
    3.0758    2.6647   -0.1996 C   0  0  0  0  0  0  0  0  0  0  0  0
    3.3663    1.3007    0.4296 C   0  0  0  0  0  0  0  0  0  0  0  0
    3.8247    1.4937    1.8765 C   0  0  0  0  0  0  0  0  0  0  0  0
    2.0965    0.4475    0.4064 C   0  0  0  0  0  0  0  0  0  0  0  0
    1.7084    0.1500   -1.0434 C   0  0  0  0  0  0  0  0  0  0  0  0
    0.4925   -0.6670   -1.0656 N   0  0  0  0  0  0  0  0  0  0  0  0
    0.5868   -2.0737   -1.0112 C   0  0  0  0  0  0  0  0  0  0  0  0
    0.0569   -2.7719    0.0546 C   0  0  0  0  0  0  0  0  0  0  0  0
    0.1596   -4.1435    0.0765 N   0  0  0  0  0  0  0  0  0  0  0  0
    0.7794   -4.7957   -0.9237 C   0  0  0  0  0  0  0  0  0  0  0  0
    0.8645   -6.0081   -0.8831 O   0  0  0  0  0  0  0  0  0  0  0  0
    1.3062   -4.1316   -1.9677 N   0  0  0  0  0  0  0  0  0  0  0  0
    1.7613   -4.6405   -2.6984 H   0  0  0  0  0  0  0  0  0  0  0  0
    1.2279   -2.7885   -2.0404 C   0  0  0  0  0  0  0  0  0  0  0  0
    1.7089   -2.1962   -2.9915 O   0  0  0  0  0  0  0  0  0  0  0  0
   -0.4037   -4.8979    1.1989 C   0  0  0  0  0  0  0  0  0  0  0  0
    0.6383   -5.0467    2.2774 C   0  0  0  0  0  0  0  0  0  0  0  0
    1.4844   -6.1398    2.2750 C   0  0  0  0  0  0  0  0  0  0  0  0
    2.4434   -6.2738    3.2616 C   0  0  0  0  0  0  0  0  0  0  0  0
    2.5493   -5.3200    4.2566 C   0  0  0  0  0  0  0  0  0  0  0  0
    1.6997   -4.2295    4.2620 C   0  0  0  0  0  0  0  0  0  0  0  0
    0.7442   -4.0929    3.2724 C   0  0  0  0  0  0  0  0  0  0  0  0
   -0.5703   -2.1052    1.0796 N   0  0  0  0  0  0  0  0  0  0  0  0
   -0.7175   -0.0741   -1.1380 C   0  0  0  0  0  0  0  0  0  0  0  0
   -1.7193   -0.7507   -1.2406 O   0  0  0  0  0  0  0  0  0  0  0  0
   -0.8244    1.4284   -1.0915 C   0  0  0  0  0  0  0  0  0  0  0  0
   -2.5575    1.9115   -1.2086 Cl  0  0  0  0  0  0  0  0  0  0  0  0
    3.9804    3.2726   -0.1831 H   0  0  0  0  0  0  0  0  0  0  0  0
    2.7492    2.5272   -1.2304 H   0  0  0  0  0  0  0  0  0  0  0  0
    2.2907    3.1661    0.3664 H   0  0  0  0  0  0  0  0  0  0  0  0
    4.1514    0.7993   -0.1364 H   0  0  0  0  0  0  0  0  0  0  0  0
    4.0317    0.5220    2.3247 H   0  0  0  0  0  0  0  0  0  0  0  0
    4.7293    2.1016    1.8930 H   0  0  0  0  0  0  0  0  0  0  0  0
    3.0397    1.9951    2.4425 H   0  0  0  0  0  0  0  0  0  0  0  0
    1.2865    0.9882    0.8958 H   0  0  0  0  0  0  0  0  0  0  0  0
    2.2785   -0.4892    0.9333 H   0  0  0  0  0  0  0  0  0  0  0  0
    2.5184   -0.3907   -1.5328 H   0  0  0  0  0  0  0  0  0  0  0  0
    1.5264    1.0867   -1.5703 H   0  0  0  0  0  0  0  0  0  0  0  0
   -1.2665   -4.3650    1.5983 H   0  0  0  0  0  0  0  0  0  0  0  0
   -0.7135   -5.8846    0.8545 H   0  0  0  0  0  0  0  0  0  0  0  0
    1.3988   -6.8873    1.5002 H   0  0  0  0  0  0  0  0  0  0  0  0
    3.1069   -7.1259    3.2576 H   0  0  0  0  0  0  0  0  0  0  0  0
    3.2956   -5.4269    5.0299 H   0  0  0  0  0  0  0  0  0  0  0  0
    1.7822   -3.4846    5.0395 H   0  0  0  0  0  0  0  0  0  0  0  0
    0.0802   -3.2411    3.2769 H   0  0  0  0  0  0  0  0  0  0  0  0
   -0.5488   -1.1360    1.1127 H   0  0  0  0  0  0  0  0  0  0  0  0
   -1.0346   -2.6038    1.7701 H   0  0  0  0  0  0  0  0  0  0  0  0
   -0.4081    1.7934   -0.1526 H   0  0  0  0  0  0  0  0  0  0  0  0
   -0.2703    1.8581   -1.9260 H   0  0  0  0  0  0  0  0  0  0  0  0
  1  2  1  0  0  0  0
  1 28  1  0  0  0  0
  1 29  1  0  0  0  0
  1 30  1  0  0  0  0
  2  3  1  0  0  0  0
  2  4  1  0  0  0  0
  2 31  1  0  0  0  0
  3 32  1  0  0  0  0
  3 33  1  0  0  0  0
  3 34  1  0  0  0  0
  4  5  1  0  0  0  0
  4 35  1  0  0  0  0
  4 36  1  0  0  0  0
  5  6  1  0  0  0  0
  5 37  1  0  0  0  0
  5 38  1  0  0  0  0
  6  7  1  0  0  0  0
  6 24  1  0  0  0  0
  7 14  1  0  0  0  0
  7  8  2  0  0  0  0
  8  9  1  0  0  0  0
  8 23  1  0  0  0  0
  9 10  1  0  0  0  0
  9 16  1  0  0  0  0
 10 11  2  0  0  0  0
 10 12  1  0  0  0  0
 12 13  1  0  0  0  0
 12 14  1  0  0  0  0
 14 15  2  0  0  0  0
 16 17  1  0  0  0  0
 16 39  1  0  0  0  0
 16 40  1  0  0  0  0
 17 22  2  0  0  0  0
 17 18  1  0  0  0  0
 18 19  2  0  0  0  0
 18 41  1  0  0  0  0
 19 20  1  0  0  0  0
 19 42  1  0  0  0  0
 20 21  2  0  0  0  0
 20 43  1  0  0  0  0
 21 22  1  0  0  0  0
 21 44  1  0  0  0  0
 22 45  1  0  0  0  0
 23 46  1  0  0  0  0
 23 47  1  0  0  0  0
 24 25  2  0  0  0  0
 24 26  1  0  0  0  0
 26 27  1  0  0  0  0
 26 48  1  0  0  0  0
 26 49  1  0  0  0  0
M  END
$$$$
ZINC03337441
  -OEChem-08230709453D

 46 47  0     0  0  0  0  0  0999 V2000
    3.1460    1.3773    1.0360 C   0  0  0  0  0  0  0  0  0  0  0  0
    2.6425    0.5171   -0.1248 C   0  0  0  0  0  0  0  0  0  0  0  0
    3.4796   -0.7605   -0.2133 C   0  0  0  0  0  0  0  0  0  0  0  0
    1.1758    0.1506    0.1108 C   0  0  0  0  0  0  0  0  0  0  0  0
    0.6493   -0.5396   -1.0694 N   0  0  0  0  0  0  0  0  0  0  0  0
    0.7804   -1.9397   -1.1847 C   0  0  0  0  0  0  0  0  0  0  0  0
    0.2039   -2.7777   -0.2523 C   0  0  0  0  0  0  0  0  0  0  0  0
    0.3444   -4.1387   -0.3948 N   0  0  0  0  0  0  0  0  0  0  0  0
    1.0454   -4.6464   -1.4248 C   0  0  0  0  0  0  0  0  0  0  0  0
    1.1627   -5.8522   -1.5301 O   0  0  0  0  0  0  0  0  0  0  0  0
    1.6185   -3.8450   -2.3401 N   0  0  0  0  0  0  0  0  0  0  0  0
    2.1338   -4.2480   -3.0965 H   0  0  0  0  0  0  0  0  0  0  0  0
    1.5064   -2.5054   -2.2497 C   0  0  0  0  0  0  0  0  0  0  0  0
    2.0300   -1.7878   -3.0851 O   0  0  0  0  0  0  0  0  0  0  0  0
   -0.2675   -5.0404    0.5844 C   0  0  0  0  0  0  0  0  0  0  0  0
    0.7073   -5.3028    1.7033 C   0  0  0  0  0  0  0  0  0  0  0  0
    1.5830   -6.3692    1.6213 C   0  0  0  0  0  0  0  0  0  0  0  0
    2.4804   -6.6070    2.6455 C   0  0  0  0  0  0  0  0  0  0  0  0
    2.4949   -5.7847    3.7565 C   0  0  0  0  0  0  0  0  0  0  0  0
    1.6156   -4.7214    3.8410 C   0  0  0  0  0  0  0  0  0  0  0  0
    0.7218   -4.4804    2.8144 C   0  0  0  0  0  0  0  0  0  0  0  0
   -0.5066   -2.2590    0.8035 N   0  0  0  0  0  0  0  0  0  0  0  0
    0.0391    0.1637   -2.0460 C   0  0  0  0  0  0  0  0  0  0  0  0
   -0.4714   -0.4153   -2.9821 O   0  0  0  0  0  0  0  0  0  0  0  0
   -0.0084    1.6682   -1.9740 C   0  0  0  0  0  0  0  0  0  0  0  0
   -0.7497    2.3190   -3.4832 Cl  0  0  0  0  0  0  0  0  0  0  0  0
    3.0562    0.8188    1.9677 H   0  0  0  0  0  0  0  0  0  0  0  0
    4.1908    1.6384    0.8682 H   0  0  0  0  0  0  0  0  0  0  0  0
    2.5496    2.2875    1.0991 H   0  0  0  0  0  0  0  0  0  0  0  0
    2.7323    1.0756   -1.0565 H   0  0  0  0  0  0  0  0  0  0  0  0
    3.1979   -1.3183   -1.1064 H   0  0  0  0  0  0  0  0  0  0  0  0
    4.5365   -0.4994   -0.2663 H   0  0  0  0  0  0  0  0  0  0  0  0
    3.3007   -1.3740    0.6697 H   0  0  0  0  0  0  0  0  0  0  0  0
    0.5986    1.0580    0.2886 H   0  0  0  0  0  0  0  0  0  0  0  0
    1.0999   -0.5043    0.9787 H   0  0  0  0  0  0  0  0  0  0  0  0
   -1.1691   -4.5801    0.9884 H   0  0  0  0  0  0  0  0  0  0  0  0
   -0.5260   -5.9817    0.0995 H   0  0  0  0  0  0  0  0  0  0  0  0
    1.5686   -7.0143    0.7552 H   0  0  0  0  0  0  0  0  0  0  0  0
    3.1671   -7.4380    2.5797 H   0  0  0  0  0  0  0  0  0  0  0  0
    3.1930   -5.9731    4.5588 H   0  0  0  0  0  0  0  0  0  0  0  0
    1.6267   -4.0791    4.7092 H   0  0  0  0  0  0  0  0  0  0  0  0
    0.0346   -3.6499    2.8805 H   0  0  0  0  0  0  0  0  0  0  0  0
   -0.6681   -1.3040    0.8569 H   0  0  0  0  0  0  0  0  0  0  0  0
   -0.8466   -2.8478    1.4953 H   0  0  0  0  0  0  0  0  0  0  0  0
   -0.6067    1.9721   -1.1150 H   0  0  0  0  0  0  0  0  0  0  0  0
    1.0036    2.0590   -1.8685 H   0  0  0  0  0  0  0  0  0  0  0  0
  1  2  1  0  0  0  0
  1 27  1  0  0  0  0
  1 28  1  0  0  0  0
  1 29  1  0  0  0  0
  2  3  1  0  0  0  0
  2  4  1  0  0  0  0
  2 30  1  0  0  0  0
  3 31  1  0  0  0  0
  3 32  1  0  0  0  0
  3 33  1  0  0  0  0
  4  5  1  0  0  0  0
  4 34  1  0  0  0  0
  4 35  1  0  0  0  0
  5  6  1  0  0  0  0
  5 23  1  0  0  0  0
  6 13  1  0  0  0  0
  6  7  2  0  0  0  0
  7  8  1  0  0  0  0
  7 22  1  0  0  0  0
  8  9  1  0  0  0  0
  8 15  1  0  0  0  0
  9 10  2  0  0  0  0
  9 11  1  0  0  0  0
 11 12  1  0  0  0  0
 11 13  1  0  0  0  0
 13 14  2  0  0  0  0
 15 16  1  0  0  0  0
 15 36  1  0  0  0  0
 15 37  1  0  0  0  0
 16 21  2  0  0  0  0
 16 17  1  0  0  0  0
 17 18  2  0  0  0  0
 17 38  1  0  0  0  0
 18 19  1  0  0  0  0
 18 39  1  0  0  0  0
 19 20  2  0  0  0  0
 19 40  1  0  0  0  0
 20 21  1  0  0  0  0
 20 41  1  0  0  0  0
 21 42  1  0  0  0  0
 22 43  1  0  0  0  0
 22 44  1  0  0  0  0
 23 24  2  0  0  0  0
 23 25  1  0  0  0  0
 25 26  1  0  0  0  0
 25 45  1  0  0  0  0
 25 46  1  0  0  0  0
M  END
$$$$
ZINC03340016
  -OEChem-08230709453D

 46 48  0     1  0  0  0  0  0999 V2000
   -3.7139   -0.7430    2.9303 C   0  0  0  0  0  0  0  0  0  0  0  0
   -3.0680   -1.1903    1.7923 C   0  0  0  0  0  0  0  0  0  0  0  0
   -2.0675   -0.4294    1.2201 C   0  0  0  0  0  0  0  0  0  0  0  0
   -1.7102    0.7864    1.7891 C   0  0  0  0  0  0  0  0  0  0  0  0
   -2.3575    1.2302    2.9353 C   0  0  0  0  0  0  0  0  0  0  0  0
   -3.3607    0.4668    3.4993 C   0  0  0  0  0  0  0  0  0  0  0  0
   -0.6984    1.5583    1.2133 N   0  0  3  0  0  0  0  0  0  0  0  0
   -0.3229    2.8403    1.8148 C   0  0  0  0  0  0  0  0  0  0  0  0
   -1.1709    3.9579    1.2042 C   0  0  0  0  0  0  0  0  0  0  0  0
   -2.5419    3.7622    1.5565 O   0  0  0  0  0  0  0  0  0  0  0  0
   -0.0127    1.0858    0.0080 C   0  0  0  0  0  0  0  0  0  0  0  0
   -0.7416    1.5850   -1.2129 C   0  0  0  0  0  0  0  0  0  0  0  0
   -1.7359    2.2682   -1.0884 O   0  0  0  0  0  0  0  0  0  0  0  0
   -0.2884    1.2723   -2.4431 N   0  0  0  0  0  0  0  0  0  0  0  0
   -0.9591    1.7317   -3.5664 C   0  0  0  0  0  0  0  0  0  0  0  0
   -0.6481    1.5233   -4.8992 C   0  0  0  0  0  0  0  0  0  0  0  0
   -1.5295    2.1209   -5.9017 C   0  0  0  0  0  0  0  0  0  0  0  0
   -2.5603    2.8291   -5.4064 C   0  0  0  0  0  0  0  0  0  0  0  0
   -2.3840    2.7110   -3.6430 S   0  0  0  0  0  0  0  0  0  0  0  0
   -3.4181    3.4137   -6.4957 C   0  0  0  0  0  0  0  0  0  0  0  0
   -3.0349    2.6171   -7.7624 C   0  0  0  0  0  0  0  0  0  0  0  0
   -1.5983    2.1683   -7.4286 C   0  0  0  0  0  0  0  0  0  0  0  0
    0.5202    0.7289   -5.2915 C   0  0  0  0  0  0  0  0  0  0  0  0
    0.4118   -0.4720   -5.4569 O   0  0  0  0  0  0  0  0  0  0  0  0
    1.7141    1.3286   -5.4689 N   0  0  0  0  0  0  0  0  0  0  0  0
   -4.4957   -1.3402    3.3759 H   0  0  0  0  0  0  0  0  0  0  0  0
   -3.3465   -2.1355    1.3502 H   0  0  0  0  0  0  0  0  0  0  0  0
   -1.5632   -0.7794    0.3316 H   0  0  0  0  0  0  0  0  0  0  0  0
   -2.0791    2.1730    3.3827 H   0  0  0  0  0  0  0  0  0  0  0  0
   -3.8671    0.8132    4.3880 H   0  0  0  0  0  0  0  0  0  0  0  0
   -0.4939    2.8009    2.8905 H   0  0  0  0  0  0  0  0  0  0  0  0
    0.7315    3.0373    1.6214 H   0  0  0  0  0  0  0  0  0  0  0  0
   -0.8317    4.9210    1.5856 H   0  0  0  0  0  0  0  0  0  0  0  0
   -1.0685    3.9402    0.1192 H   0  0  0  0  0  0  0  0  0  0  0  0
   -3.1389    4.4355    1.2025 H   0  0  0  0  0  0  0  0  0  0  0  0
    0.0021   -0.0041    0.0020 H   0  0  0  0  0  0  0  0  0  0  0  0
    1.0099    1.4631    0.0003 H   0  0  0  0  0  0  0  0  0  0  0  0
    0.5068    0.7259   -2.5426 H   0  0  0  0  0  0  0  0  0  0  0  0
   -4.4741    3.2743   -6.2640 H   0  0  0  0  0  0  0  0  0  0  0  0
   -3.1938    4.4719   -6.6297 H   0  0  0  0  0  0  0  0  0  0  0  0
   -3.6911    1.7571   -7.8959 H   0  0  0  0  0  0  0  0  0  0  0  0
   -3.0486    3.2571   -8.6447 H   0  0  0  0  0  0  0  0  0  0  0  0
   -1.4054    1.1799   -7.8457 H   0  0  0  0  0  0  0  0  0  0  0  0
   -0.8783    2.8883   -7.8177 H   0  0  0  0  0  0  0  0  0  0  0  0
    1.8004    2.2857   -5.3370 H   0  0  0  0  0  0  0  0  0  0  0  0
    2.4869    0.8031   -5.7284 H   0  0  0  0  0  0  0  0  0  0  0  0
  1  6  2  0  0  0  0
  1  2  1  0  0  0  0
  1 26  1  0  0  0  0
  2  3  2  0  0  0  0
  2 27  1  0  0  0  0
  3  4  1  0  0  0  0
  3 28  1  0  0  0  0
  4  5  2  0  0  0  0
  4  7  1  0  0  0  0
  5  6  1  0  0  0  0
  5 29  1  0  0  0  0
  6 30  1  0  0  0  0
  7  8  1  0  0  0  0
  7 11  1  0  0  0  0
  8  9  1  0  0  0  0
  8 31  1  0  0  0  0
  8 32  1  0  0  0  0
  9 10  1  0  0  0  0
  9 33  1  0  0  0  0
  9 34  1  0  0  0  0
 10 35  1  0  0  0  0
 11 12  1  0  0  0  0
 11 36  1  0  0  0  0
 11 37  1  0  0  0  0
 12 13  2  0  0  0  0
 12 14  1  0  0  0  0
 14 15  1  0  0  0  0
 14 38  1  0  0  0  0
 15 19  1  0  0  0  0
 15 16  2  0  0  0  0
 16 17  1  0  0  0  0
 16 23  1  0  0  0  0
 17 22  1  0  0  0  0
 17 18  2  0  0  0  0
 18 19  1  0  0  0  0
 18 20  1  0  0  0  0
 20 21  1  0  0  0  0
 20 39  1  0  0  0  0
 20 40  1  0  0  0  0
 21 22  1  0  0  0  0
 21 41  1  0  0  0  0
 21 42  1  0  0  0  0
 22 43  1  0  0  0  0
 22 44  1  0  0  0  0
 23 24  2  0  0  0  0
 23 25  1  0  0  0  0
 25 45  1  0  0  0  0
 25 46  1  0  0  0  0
M  END
$$$$
ZINC03342737
  -OEChem-08230709453D

 43 44  0     1  0  0  0  0  0999 V2000
   -9.6432   -5.8005   -2.8082 C   0  0  0  0  0  0  0  0  0  0  0  0
   -8.6497   -4.8845   -2.1413 C   0  0  0  0  0  0  0  0  0  0  0  0
   -8.9182   -3.5316   -2.0407 C   0  0  0  0  0  0  0  0  0  0  0  0
   -8.0129   -2.6898   -1.4247 C   0  0  0  0  0  0  0  0  0  0  0  0
   -6.8261   -3.2011   -0.9160 C   0  0  0  0  0  0  0  0  0  0  0  0
   -6.5588   -4.5612   -1.0186 C   0  0  0  0  0  0  0  0  0  0  0  0
   -7.4718   -5.3986   -1.6312 C   0  0  0  0  0  0  0  0  0  0  0  0
   -5.0799   -5.2071   -0.3788 Cl  0  0  0  0  0  0  0  0  0  0  0  0
   -5.9054   -2.3511   -0.2974 N   0  0  0  0  0  0  0  0  0  0  0  0
   -6.1889   -0.9178   -0.1902 C   0  0  1  0  0  0  0  0  0  0  0  0
   -6.7292   -0.5869   -1.0772 H   0  0  0  0  0  0  0  0  0  0  0  0
   -7.0421   -0.6582    1.0530 C   0  0  0  0  0  0  0  0  0  0  0  0
   -4.8932   -0.1564   -0.0782 C   0  0  0  0  0  0  0  0  0  0  0  0
   -3.8368   -0.7524   -0.0870 O   0  0  0  0  0  0  0  0  0  0  0  0
   -4.9082    1.1868    0.0318 N   0  0  0  0  0  0  0  0  0  0  0  0
   -3.7046    1.9042    0.0193 C   0  0  0  0  0  0  0  0  0  0  0  0
   -2.5824    1.3693   -0.5963 C   0  0  0  0  0  0  0  0  0  0  0  0
   -1.3966    2.0790   -0.6077 C   0  0  0  0  0  0  0  0  0  0  0  0
   -1.3237    3.3200   -0.0021 C   0  0  0  0  0  0  0  0  0  0  0  0
   -2.4393    3.8618    0.6086 C   0  0  0  0  0  0  0  0  0  0  0  0
   -3.6319    3.1567    0.6245 C   0  0  0  0  0  0  0  0  0  0  0  0
   -4.7285    3.6859    1.2297 O   0  0  0  0  0  0  0  0  0  0  0  0
   -4.5801    4.9744    1.8295 C   0  0  0  0  0  0  0  0  0  0  0  0
   -0.2000    1.5065   -1.2645 N   0  3  0  0  0  0  0  0  0  0  0  0
   -0.2611    0.4114   -1.7940 O   0  0  0  0  0  0  0  0  0  0  0  0
    0.8445    2.1329   -1.2798 O   0  5  0  0  0  0  0  0  0  0  0  0
  -10.3438   -6.1799   -2.0643 H   0  0  0  0  0  0  0  0  0  0  0  0
  -10.1892   -5.2489   -3.5735 H   0  0  0  0  0  0  0  0  0  0  0  0
   -9.1153   -6.6353   -3.2691 H   0  0  0  0  0  0  0  0  0  0  0  0
   -9.8392   -3.1335   -2.4403 H   0  0  0  0  0  0  0  0  0  0  0  0
   -8.2257   -1.6341   -1.3427 H   0  0  0  0  0  0  0  0  0  0  0  0
   -7.2653   -6.4557   -1.7111 H   0  0  0  0  0  0  0  0  0  0  0  0
   -5.0786   -2.7101    0.0610 H   0  0  0  0  0  0  0  0  0  0  0  0
   -6.5018   -0.9890    1.9400 H   0  0  0  0  0  0  0  0  0  0  0  0
   -7.2530    0.4082    1.1328 H   0  0  0  0  0  0  0  0  0  0  0  0
   -7.9792   -1.2089    0.9720 H   0  0  0  0  0  0  0  0  0  0  0  0
   -5.7521    1.6568    0.1196 H   0  0  0  0  0  0  0  0  0  0  0  0
   -2.6355    0.3986   -1.0667 H   0  0  0  0  0  0  0  0  0  0  0  0
   -0.3938    3.8692   -0.0099 H   0  0  0  0  0  0  0  0  0  0  0  0
   -2.3801    4.8331    1.0771 H   0  0  0  0  0  0  0  0  0  0  0  0
   -5.5269    5.2788    2.2756 H   0  0  0  0  0  0  0  0  0  0  0  0
   -3.8124    4.9294    2.6020 H   0  0  0  0  0  0  0  0  0  0  0  0
   -4.2878    5.6980    1.0685 H   0  0  0  0  0  0  0  0  0  0  0  0
  1  2  1  0  0  0  0
  1 27  1  0  0  0  0
  1 28  1  0  0  0  0
  1 29  1  0  0  0  0
  2  7  2  0  0  0  0
  2  3  1  0  0  0  0
  3  4  2  0  0  0  0
  3 30  1  0  0  0  0
  4  5  1  0  0  0  0
  4 31  1  0  0  0  0
  5  6  2  0  0  0  0
  5  9  1  0  0  0  0
  6  7  1  0  0  0  0
  6  8  1  0  0  0  0
  7 32  1  0  0  0  0
  9 10  1  0  0  0  0
  9 33  1  0  0  0  0
 10 11  1  0  0  0  0
 10 12  1  0  0  0  0
 10 13  1  0  0  0  0
 12 34  1  0  0  0  0
 12 35  1  0  0  0  0
 12 36  1  0  0  0  0
 13 14  2  0  0  0  0
 13 15  1  0  0  0  0
 15 16  1  0  0  0  0
 15 37  1  0  0  0  0
 16 21  2  0  0  0  0
 16 17  1  0  0  0  0
 17 18  2  0  0  0  0
 17 38  1  0  0  0  0
 18 19  1  0  0  0  0
 18 24  1  0  0  0  0
 19 20  2  0  0  0  0
 19 39  1  0  0  0  0
 20 21  1  0  0  0  0
 20 40  1  0  0  0  0
 21 22  1  0  0  0  0
 22 23  1  0  0  0  0
 23 41  1  0  0  0  0
 23 42  1  0  0  0  0
 23 43  1  0  0  0  0
 24 25  2  0  0  0  0
 24 26  1  0  0  0  0
M  CHG  2  24   1  26  -1
M  END
$$$$
ZINC03343277
  -OEChem-08230709453D

 41 44  0     0  0  0  0  0  0999 V2000
   -5.6438   -3.1562    0.0372 C   0  0  0  0  0  0  0  0  0  0  0  0
   -6.7133   -4.0245    0.0424 C   0  0  0  0  0  0  0  0  0  0  0  0
   -8.0123   -3.5343    0.0569 C   0  0  0  0  0  0  0  0  0  0  0  0
   -8.2407   -2.1568    0.0668 C   0  0  0  0  0  0  0  0  0  0  0  0
   -7.1744   -1.2801    0.0681 C   0  0  0  0  0  0  0  0  0  0  0  0
   -5.8649   -1.7746    0.0472 C   0  0  0  0  0  0  0  0  0  0  0  0
   -4.7259   -0.8455    0.0418 C   0  0  0  0  0  0  0  0  0  0  0  0
   -3.4637   -1.3249    0.0271 C   0  0  0  0  0  0  0  0  0  0  0  0
   -2.3309   -0.4010    0.0217 C   0  0  0  0  0  0  0  0  0  0  0  0
   -2.5256    0.8007    0.0304 O   0  0  0  0  0  0  0  0  0  0  0  0
   -1.0711   -0.8794    0.0071 N   0  0  0  0  0  0  0  0  0  0  0  0
    0.0021   -0.0041    0.0020 C   0  0  0  0  0  0  0  0  0  0  0  0
    1.3548   -0.3007   -0.0120 C   0  0  0  0  0  0  0  0  0  0  0  0
    2.2937    0.8206   -0.0139 C   0  0  0  0  0  0  0  0  0  0  0  0
    1.7267    2.0403   -0.0035 C   0  0  0  0  0  0  0  0  0  0  0  0
   -0.0214    1.7264    0.0115 S   0  0  0  0  0  0  0  0  0  0  0  0
    2.7539    3.1400   -0.0108 C   0  0  0  0  0  0  0  0  0  0  0  0
    4.0602    2.4496   -0.4613 C   0  0  0  0  0  0  0  0  0  0  0  0
    3.8132    0.9927   -0.0216 C   0  0  0  0  0  0  0  0  0  0  0  0
    1.8282   -1.6881   -0.0248 C   0  0  0  0  0  0  0  0  0  0  0  0
    2.0148   -2.2576   -1.0842 O   0  0  0  0  0  0  0  0  0  0  0  0
    2.0567   -2.3329    1.1364 N   0  0  0  0  0  0  0  0  0  0  0  0
   -9.5886   -1.9393    0.0796 O   0  0  0  0  0  0  0  0  0  0  0  0
  -10.1749   -3.1884    0.4906 C   0  0  0  0  0  0  0  0  0  0  0  0
   -9.2167   -4.1743    0.0633 O   0  0  0  0  0  0  0  0  0  0  0  0
   -4.6350   -3.5418    0.0251 H   0  0  0  0  0  0  0  0  0  0  0  0
   -6.5407   -5.0906    0.0347 H   0  0  0  0  0  0  0  0  0  0  0  0
   -7.3502   -0.2146    0.0807 H   0  0  0  0  0  0  0  0  0  0  0  0
   -4.8986    0.2205    0.0495 H   0  0  0  0  0  0  0  0  0  0  0  0
   -3.2910   -2.3910    0.0194 H   0  0  0  0  0  0  0  0  0  0  0  0
   -0.9160   -1.8369    0.0002 H   0  0  0  0  0  0  0  0  0  0  0  0
    2.4718    3.9189   -0.7192 H   0  0  0  0  0  0  0  0  0  0  0  0
    2.8702    3.5582    0.9890 H   0  0  0  0  0  0  0  0  0  0  0  0
    4.1834    2.5152   -1.5423 H   0  0  0  0  0  0  0  0  0  0  0  0
    4.9225    2.8719    0.0545 H   0  0  0  0  0  0  0  0  0  0  0  0
    4.2167    0.8267    0.9773 H   0  0  0  0  0  0  0  0  0  0  0  0
    4.2674    0.3021   -0.7322 H   0  0  0  0  0  0  0  0  0  0  0  0
    1.9080   -1.8790    1.9806 H   0  0  0  0  0  0  0  0  0  0  0  0
    2.3700   -3.2509    1.1278 H   0  0  0  0  0  0  0  0  0  0  0  0
  -10.2960   -3.2165    1.5735 H   0  0  0  0  0  0  0  0  0  0  0  0
  -11.1321   -3.3441   -0.0069 H   0  0  0  0  0  0  0  0  0  0  0  0
  1  6  2  0  0  0  0
  1  2  1  0  0  0  0
  1 26  1  0  0  0  0
  2  3  2  0  0  0  0
  2 27  1  0  0  0  0
  3 25  1  0  0  0  0
  3  4  1  0  0  0  0
  4  5  2  0  0  0  0
  4 23  1  0  0  0  0
  5  6  1  0  0  0  0
  5 28  1  0  0  0  0
  6  7  1  0  0  0  0
  7  8  2  0  0  0  0
  7 29  1  0  0  0  0
  8  9  1  0  0  0  0
  8 30  1  0  0  0  0
  9 10  2  0  0  0  0
  9 11  1  0  0  0  0
 11 12  1  0  0  0  0
 11 31  1  0  0  0  0
 12 16  1  0  0  0  0
 12 13  2  0  0  0  0
 13 14  1  0  0  0  0
 13 20  1  0  0  0  0
 14 19  1  0  0  0  0
 14 15  2  0  0  0  0
 15 16  1  0  0  0  0
 15 17  1  0  0  0  0
 17 18  1  0  0  0  0
 17 32  1  0  0  0  0
 17 33  1  0  0  0  0
 18 19  1  0  0  0  0
 18 34  1  0  0  0  0
 18 35  1  0  0  0  0
 19 36  1  0  0  0  0
 19 37  1  0  0  0  0
 20 21  2  0  0  0  0
 20 22  1  0  0  0  0
 22 38  1  0  0  0  0
 22 39  1  0  0  0  0
 23 24  1  0  0  0  0
 24 25  1  0  0  0  0
 24 40  1  0  0  0  0
 24 41  1  0  0  0  0
M  END
$$$$
ZINC03345179
  -OEChem-08230709453D

 46 49  0     1  0  0  0  0  0999 V2000
   -3.1952    4.9199    7.1797 C   0  0  0  0  0  0  0  0  0  0  0  0
   -2.3620    5.4757    6.0231 C   0  0  1  0  0  0  0  0  0  0  0  0
   -2.9197    5.4259    5.0879 H   0  0  0  0  0  0  0  0  0  0  0  0
   -1.9090    6.9238    6.3199 C   0  0  0  0  0  0  0  0  0  0  0  0
   -0.5231    6.9746    5.7082 C   0  0  0  0  0  0  0  0  0  0  0  0
    0.2916    8.0363    5.3748 C   0  0  0  0  0  0  0  0  0  0  0  0
    1.5343    7.8067    4.8129 C   0  0  0  0  0  0  0  0  0  0  0  0
    1.9590    6.5102    4.5858 C   0  0  0  0  0  0  0  0  0  0  0  0
    1.1494    5.4450    4.9201 C   0  0  0  0  0  0  0  0  0  0  0  0
   -0.1036    5.6680    5.4891 C   0  0  0  0  0  0  0  0  0  0  0  0
   -1.0772    4.7523    5.9070 N   0  0  2  0  0  0  0  0  0  0  0  0
   -1.1869    3.6328    4.9622 C   0  0  0  0  0  0  0  0  0  0  0  0
   -1.4299    4.1683    3.5747 C   0  0  0  0  0  0  0  0  0  0  0  0
   -1.6021    5.3568    3.4050 O   0  0  0  0  0  0  0  0  0  0  0  0
   -1.4559    3.3266    2.5225 N   0  0  0  0  0  0  0  0  0  0  0  0
   -1.6795    3.8194    1.2458 C   0  0  0  0  0  0  0  0  0  0  0  0
   -1.7414    3.1205    0.0525 C   0  0  0  0  0  0  0  0  0  0  0  0
   -1.9850    3.8866   -1.1692 C   0  0  0  0  0  0  0  0  0  0  0  0
   -2.1375    5.2113   -0.9917 C   0  0  0  0  0  0  0  0  0  0  0  0
   -1.9479    5.4578    0.7570 S   0  0  0  0  0  0  0  0  0  0  0  0
   -2.3947    5.9284   -2.2893 C   0  0  0  0  0  0  0  0  0  0  0  0
   -2.8195    4.8149   -3.2720 C   0  0  0  0  0  0  0  0  0  0  0  0
   -2.1343    3.5772   -2.6594 C   0  0  0  0  0  0  0  0  0  0  0  0
   -1.5633    1.6656    0.0140 C   0  0  0  0  0  0  0  0  0  0  0  0
   -2.5272    0.9313    0.1279 O   0  0  0  0  0  0  0  0  0  0  0  0
   -0.3322    1.1415   -0.1475 N   0  0  0  0  0  0  0  0  0  0  0  0
   -2.6427    5.0326    8.1125 H   0  0  0  0  0  0  0  0  0  0  0  0
   -4.1355    5.4671    7.2459 H   0  0  0  0  0  0  0  0  0  0  0  0
   -3.4010    3.8639    7.0046 H   0  0  0  0  0  0  0  0  0  0  0  0
   -2.5710    7.6422    5.8363 H   0  0  0  0  0  0  0  0  0  0  0  0
   -1.8635    7.1016    7.3943 H   0  0  0  0  0  0  0  0  0  0  0  0
   -0.0415    9.0482    5.5523 H   0  0  0  0  0  0  0  0  0  0  0  0
    2.1719    8.6384    4.5518 H   0  0  0  0  0  0  0  0  0  0  0  0
    2.9286    6.3312    4.1451 H   0  0  0  0  0  0  0  0  0  0  0  0
    1.4871    4.4350    4.7406 H   0  0  0  0  0  0  0  0  0  0  0  0
   -2.0179    2.9908    5.2546 H   0  0  0  0  0  0  0  0  0  0  0  0
   -0.2617    3.0567    4.9725 H   0  0  0  0  0  0  0  0  0  0  0  0
   -1.3183    2.3761    2.6582 H   0  0  0  0  0  0  0  0  0  0  0  0
   -3.1975    6.6558   -2.1690 H   0  0  0  0  0  0  0  0  0  0  0  0
   -1.4866    6.4200   -2.6385 H   0  0  0  0  0  0  0  0  0  0  0  0
   -3.9029    4.6961   -3.2822 H   0  0  0  0  0  0  0  0  0  0  0  0
   -2.4409    5.0141   -4.2746 H   0  0  0  0  0  0  0  0  0  0  0  0
   -2.7548    2.6926   -2.8035 H   0  0  0  0  0  0  0  0  0  0  0  0
   -1.1530    3.4278   -3.1096 H   0  0  0  0  0  0  0  0  0  0  0  0
   -0.2143    0.1790   -0.1729 H   0  0  0  0  0  0  0  0  0  0  0  0
    0.4355    1.7268   -0.2422 H   0  0  0  0  0  0  0  0  0  0  0  0
  1  2  1  0  0  0  0
  1 27  1  0  0  0  0
  1 28  1  0  0  0  0
  1 29  1  0  0  0  0
  2  3  1  0  0  0  0
  2 11  1  0  0  0  0
  2  4  1  0  0  0  0
  4  5  1  0  0  0  0
  4 30  1  0  0  0  0
  4 31  1  0  0  0  0
  5 10  2  0  0  0  0
  5  6  1  0  0  0  0
  6  7  2  0  0  0  0
  6 32  1  0  0  0  0
  7  8  1  0  0  0  0
  7 33  1  0  0  0  0
  8  9  2  0  0  0  0
  8 34  1  0  0  0  0
  9 10  1  0  0  0  0
  9 35  1  0  0  0  0
 10 11  1  0  0  0  0
 11 12  1  0  0  0  0
 12 13  1  0  0  0  0
 12 36  1  0  0  0  0
 12 37  1  0  0  0  0
 13 14  2  0  0  0  0
 13 15  1  0  0  0  0
 15 16  1  0  0  0  0
 15 38  1  0  0  0  0
 16 20  1  0  0  0  0
 16 17  2  0  0  0  0
 17 18  1  0  0  0  0
 17 24  1  0  0  0  0
 18 23  1  0  0  0  0
 18 19  2  0  0  0  0
 19 20  1  0  0  0  0
 19 21  1  0  0  0  0
 21 22  1  0  0  0  0
 21 39  1  0  0  0  0
 21 40  1  0  0  0  0
 22 23  1  0  0  0  0
 22 41  1  0  0  0  0
 22 42  1  0  0  0  0
 23 43  1  0  0  0  0
 23 44  1  0  0  0  0
 24 25  2  0  0  0  0
 24 26  1  0  0  0  0
 26 45  1  0  0  0  0
 26 46  1  0  0  0  0
M  END
$$$$
ZINC03345624
  -OEChem-08230709453D

 40 42  0     0  0  0  0  0  0999 V2000
    1.9273   -0.7643    1.9542 C   0  0  0  0  0  0  0  0  0  0  0  0
    1.3887    0.0976    0.8415 C   0  0  0  0  0  0  0  0  0  0  0  0
    2.1433    0.8284   -0.0132 C   0  0  0  0  0  0  0  0  0  0  0  0
    1.2110    1.5073   -0.9269 C   0  0  0  0  0  0  0  0  0  0  0  0
    1.3731    2.3807   -2.0018 C   0  0  0  0  0  0  0  0  0  0  0  0
    0.2751    2.8505   -2.6665 C   0  0  0  0  0  0  0  0  0  0  0  0
   -1.0009    2.4648   -2.2796 C   0  0  0  0  0  0  0  0  0  0  0  0
   -1.1830    1.6030   -1.2205 C   0  0  0  0  0  0  0  0  0  0  0  0
   -0.0784    1.1130   -0.5301 C   0  0  0  0  0  0  0  0  0  0  0  0
    0.0636    0.2601    0.5423 N   0  0  0  0  0  0  0  0  0  0  0  0
   -0.6693   -0.1607    1.0185 H   0  0  0  0  0  0  0  0  0  0  0  0
    3.6236    0.9255   -0.0259 C   0  0  0  0  0  0  0  0  0  0  0  0
    4.2487    2.1368   -0.1282 C   0  0  0  0  0  0  0  0  0  0  0  0
    5.9619    1.6312   -0.0910 S   0  0  0  0  0  0  0  0  0  0  0  0
    5.6944   -0.0782    0.0516 C   0  0  0  0  0  0  0  0  0  0  0  0
    4.3798   -0.1592    0.0672 N   0  0  0  0  0  0  0  0  0  0  0  0
    6.6305   -1.1018    0.1340 N   0  0  0  0  0  0  0  0  0  0  0  0
    7.9471   -0.8149    0.1060 C   0  0  0  0  0  0  0  0  0  0  0  0
    8.3148    0.3368    0.0089 O   0  0  0  0  0  0  0  0  0  0  0  0
    8.9623   -1.9250    0.1953 C   0  0  0  0  0  0  0  0  0  0  0  0
   10.6336   -1.2226    0.1316 S   0  0  0  0  0  0  0  0  0  0  0  0
   11.7222   -2.6688    0.2487 C   0  0  0  0  0  0  0  0  0  0  0  0
   13.1821   -2.2130    0.2062 C   0  0  0  0  0  0  0  0  0  0  0  0
   14.0397   -3.3523    0.2984 O   0  0  0  0  0  0  0  0  0  0  0  0
    2.1909   -1.7453    1.5588 H   0  0  0  0  0  0  0  0  0  0  0  0
    2.8133   -0.2946    2.3813 H   0  0  0  0  0  0  0  0  0  0  0  0
    1.1672   -0.8765    2.7273 H   0  0  0  0  0  0  0  0  0  0  0  0
    2.3631    2.6846   -2.3084 H   0  0  0  0  0  0  0  0  0  0  0  0
    0.4013    3.5266   -3.4992 H   0  0  0  0  0  0  0  0  0  0  0  0
   -1.8593    2.8443   -2.8139 H   0  0  0  0  0  0  0  0  0  0  0  0
   -2.1798    1.3089   -0.9266 H   0  0  0  0  0  0  0  0  0  0  0  0
    3.8242    3.1266   -0.2089 H   0  0  0  0  0  0  0  0  0  0  0  0
    6.3364   -2.0229    0.2117 H   0  0  0  0  0  0  0  0  0  0  0  0
    8.8301   -2.4636    1.1337 H   0  0  0  0  0  0  0  0  0  0  0  0
    8.8246   -2.6114   -0.6401 H   0  0  0  0  0  0  0  0  0  0  0  0
   11.5320   -3.1918    1.1859 H   0  0  0  0  0  0  0  0  0  0  0  0
   11.5265   -3.3396   -0.5879 H   0  0  0  0  0  0  0  0  0  0  0  0
   13.3723   -1.6900   -0.7311 H   0  0  0  0  0  0  0  0  0  0  0  0
   13.3779   -1.5423    1.0427 H   0  0  0  0  0  0  0  0  0  0  0  0
   14.9824   -3.1378    0.2776 H   0  0  0  0  0  0  0  0  0  0  0  0
  1  2  1  0  0  0  0
  1 25  1  0  0  0  0
  1 26  1  0  0  0  0
  1 27  1  0  0  0  0
  2 10  1  0  0  0  0
  2  3  2  0  0  0  0
  3  4  1  0  0  0  0
  3 12  1  0  0  0  0
  4  9  2  0  0  0  0
  4  5  1  0  0  0  0
  5  6  2  0  0  0  0
  5 28  1  0  0  0  0
  6  7  1  0  0  0  0
  6 29  1  0  0  0  0
  7  8  2  0  0  0  0
  7 30  1  0  0  0  0
  8  9  1  0  0  0  0
  8 31  1  0  0  0  0
  9 10  1  0  0  0  0
 10 11  1  0  0  0  0
 12 16  1  0  0  0  0
 12 13  2  0  0  0  0
 13 14  1  0  0  0  0
 13 32  1  0  0  0  0
 14 15  1  0  0  0  0
 15 16  2  0  0  0  0
 15 17  1  0  0  0  0
 17 18  1  0  0  0  0
 17 33  1  0  0  0  0
 18 19  2  0  0  0  0
 18 20  1  0  0  0  0
 20 21  1  0  0  0  0
 20 34  1  0  0  0  0
 20 35  1  0  0  0  0
 21 22  1  0  0  0  0
 22 23  1  0  0  0  0
 22 36  1  0  0  0  0
 22 37  1  0  0  0  0
 23 24  1  0  0  0  0
 23 38  1  0  0  0  0
 23 39  1  0  0  0  0
 24 40  1  0  0  0  0
M  END
$$$$
ZINC03346126
  -OEChem-08230709453D

 40 42  0     0  0  0  0  0  0999 V2000
    9.2049    3.8614   -0.0651 C   0  0  0  0  0  0  0  0  0  0  0  0
    7.8581    4.5373   -0.0491 C   0  0  0  0  0  0  0  0  0  0  0  0
    6.6712    3.9081   -0.0412 C   0  0  0  0  0  0  0  0  0  0  0  0
    5.6444    4.9590   -0.0258 C   0  0  0  0  0  0  0  0  0  0  0  0
    6.3301    6.1593   -0.0318 C   0  0  0  0  0  0  0  0  0  0  0  0
    7.6496    5.8884   -0.0397 N   0  0  0  0  0  0  0  0  0  0  0  0
    8.6648    6.8548   -0.0448 C   0  0  0  0  0  0  0  0  0  0  0  0
    8.8256    7.7005    1.0445 C   0  0  0  0  0  0  0  0  0  0  0  0
    9.8299    8.6486    1.0386 C   0  0  0  0  0  0  0  0  0  0  0  0
   10.6679    8.7633   -0.0554 C   0  0  0  0  0  0  0  0  0  0  0  0
   10.5073    7.9256   -1.1438 C   0  0  0  0  0  0  0  0  0  0  0  0
    9.5080    6.9720   -1.1415 C   0  0  0  0  0  0  0  0  0  0  0  0
    5.7092    7.5325   -0.0263 C   0  0  0  0  0  0  0  0  0  0  0  0
    4.1921    4.7729   -0.0130 C   0  0  0  0  0  0  0  0  0  0  0  0
    3.4568    5.7382   -0.0012 O   0  0  0  0  0  0  0  0  0  0  0  0
    3.6105    3.3827   -0.0145 C   0  0  0  0  0  0  0  0  0  0  0  0
    1.7994    3.4848    0.0031 S   0  0  0  0  0  0  0  0  0  0  0  0
    1.2775    1.8019   -0.0005 C   0  0  0  0  0  0  0  0  0  0  0  0
   -0.0164    1.3619    0.0095 N   0  0  0  0  0  0  0  0  0  0  0  0
   -0.8089    1.9213    0.0165 H   0  0  0  0  0  0  0  0  0  0  0  0
    0.0021   -0.0041    0.0020 C   0  0  0  0  0  0  0  0  0  0  0  0
    1.2534   -0.3924   -0.0120 N   0  0  0  0  0  0  0  0  0  0  0  0
    2.0620    0.7517   -0.0136 N   0  0  0  0  0  0  0  0  0  0  0  0
   -1.1105   -0.8355    0.0082 N   0  0  0  0  0  0  0  0  0  0  0  0
    9.5203    3.7041   -1.0965 H   0  0  0  0  0  0  0  0  0  0  0  0
    9.9335    4.4911    0.4456 H   0  0  0  0  0  0  0  0  0  0  0  0
    9.1352    2.9002    0.4441 H   0  0  0  0  0  0  0  0  0  0  0  0
    6.5047    2.8410   -0.0455 H   0  0  0  0  0  0  0  0  0  0  0  0
    8.1683    7.6145    1.8972 H   0  0  0  0  0  0  0  0  0  0  0  0
    9.9581    9.3040    1.8874 H   0  0  0  0  0  0  0  0  0  0  0  0
   11.4497    9.5084   -0.0596 H   0  0  0  0  0  0  0  0  0  0  0  0
   11.1635    8.0173   -1.9966 H   0  0  0  0  0  0  0  0  0  0  0  0
    9.3830    6.3181   -1.9919 H   0  0  0  0  0  0  0  0  0  0  0  0
    5.5689    7.8637    1.0026 H   0  0  0  0  0  0  0  0  0  0  0  0
    6.3657    8.2301   -0.5463 H   0  0  0  0  0  0  0  0  0  0  0  0
    4.7439    7.4968   -0.5313 H   0  0  0  0  0  0  0  0  0  0  0  0
    3.9244    2.8892    0.7966 H   0  0  0  0  0  0  0  0  0  0  0  0
    3.9359    2.8537   -0.9103 H   0  0  0  0  0  0  0  0  0  0  0  0
   -2.0018   -0.4529    0.0187 H   0  0  0  0  0  0  0  0  0  0  0  0
   -0.9962   -1.7987    0.0019 H   0  0  0  0  0  0  0  0  0  0  0  0
  1  2  1  0  0  0  0
  1 25  1  0  0  0  0
  1 26  1  0  0  0  0
  1 27  1  0  0  0  0
  2  6  1  0  0  0  0
  2  3  2  0  0  0  0
  3  4  1  0  0  0  0
  3 28  1  0  0  0  0
  4  5  2  0  0  0  0
  4 14  1  0  0  0  0
  5  6  1  0  0  0  0
  5 13  1  0  0  0  0
  6  7  1  0  0  0  0
  7 12  2  0  0  0  0
  7  8  1  0  0  0  0
  8  9  2  0  0  0  0
  8 29  1  0  0  0  0
  9 10  1  0  0  0  0
  9 30  1  0  0  0  0
 10 11  2  0  0  0  0
 10 31  1  0  0  0  0
 11 12  1  0  0  0  0
 11 32  1  0  0  0  0
 12 33  1  0  0  0  0
 13 34  1  0  0  0  0
 13 35  1  0  0  0  0
 13 36  1  0  0  0  0
 14 15  2  0  0  0  0
 14 16  1  0  0  0  0
 16 17  1  0  0  0  0
 16 37  1  0  0  0  0
 16 38  1  0  0  0  0
 17 18  1  0  0  0  0
 18 23  2  0  0  0  0
 18 19  1  0  0  0  0
 19 20  1  0  0  0  0
 19 21  1  0  0  0  0
 21 22  2  0  0  0  0
 21 24  1  0  0  0  0
 22 23  1  0  0  0  0
 24 39  1  0  0  0  0
 24 40  1  0  0  0  0
M  END
$$$$
ZINC03346440
  -OEChem-08230709453D

 40 42  0     0  0  0  0  0  0999 V2000
   -5.9450   -2.9335    0.5564 C   0  0  0  0  0  0  0  0  0  0  0  0
   -6.1654   -1.4459    0.4594 C   0  0  0  0  0  0  0  0  0  0  0  0
   -7.4506   -0.9351    0.4812 C   0  0  0  0  0  0  0  0  0  0  0  0
   -7.6576    0.4293    0.3920 C   0  0  0  0  0  0  0  0  0  0  0  0
   -6.5806    1.2874    0.2874 C   0  0  0  0  0  0  0  0  0  0  0  0
   -5.2883    0.7774    0.2598 C   0  0  0  0  0  0  0  0  0  0  0  0
   -5.0841   -0.5945    0.3492 C   0  0  0  0  0  0  0  0  0  0  0  0
   -3.9114    1.8679    0.1191 S   0  0  0  0  0  0  0  0  0  0  0  0
   -2.4731    0.7627    0.1334 C   0  0  0  0  0  0  0  0  0  0  0  0
   -1.2114    1.5787    0.0176 C   0  0  0  0  0  0  0  0  0  0  0  0
   -1.2762    2.7869   -0.0663 O   0  0  0  0  0  0  0  0  0  0  0  0
   -0.0111    0.9658    0.0074 N   0  0  0  0  0  0  0  0  0  0  0  0
    1.1643    1.7278   -0.0085 C   0  0  0  0  0  0  0  0  0  0  0  0
    2.2883    1.2838    0.6788 C   0  0  0  0  0  0  0  0  0  0  0  0
    3.4508    2.0278    0.6633 C   0  0  0  0  0  0  0  0  0  0  0  0
    3.4957    3.2271   -0.0317 C   0  0  0  0  0  0  0  0  0  0  0  0
    2.3669    3.6784   -0.7186 C   0  0  0  0  0  0  0  0  0  0  0  0
    1.2026    2.9264   -0.7051 C   0  0  0  0  0  0  0  0  0  0  0  0
    2.7132    4.8912   -1.3097 N   0  0  0  0  0  0  0  0  0  0  0  0
    2.1308    5.4440   -1.8539 H   0  0  0  0  0  0  0  0  0  0  0  0
    3.9936    5.1658   -0.9973 C   0  0  0  0  0  0  0  0  0  0  0  0
    4.6061    6.1539   -1.3570 O   0  0  0  0  0  0  0  0  0  0  0  0
    4.4939    4.1813   -0.2273 N   0  0  0  0  0  0  0  0  0  0  0  0
    5.3947    4.1422    0.1303 H   0  0  0  0  0  0  0  0  0  0  0  0
   -6.8069    2.7746    0.1970 C   0  0  0  0  0  0  0  0  0  0  0  0
   -5.8456   -3.2186    1.6038 H   0  0  0  0  0  0  0  0  0  0  0  0
   -6.7946   -3.4561    0.1167 H   0  0  0  0  0  0  0  0  0  0  0  0
   -5.0356   -3.2020    0.0189 H   0  0  0  0  0  0  0  0  0  0  0  0
   -8.2946   -1.6034    0.5678 H   0  0  0  0  0  0  0  0  0  0  0  0
   -8.6625    0.8246    0.4091 H   0  0  0  0  0  0  0  0  0  0  0  0
   -4.0809   -0.9940    0.3330 H   0  0  0  0  0  0  0  0  0  0  0  0
   -2.5374    0.0717   -0.7072 H   0  0  0  0  0  0  0  0  0  0  0  0
   -2.4571    0.1993    1.0664 H   0  0  0  0  0  0  0  0  0  0  0  0
    0.0389   -0.0029    0.0069 H   0  0  0  0  0  0  0  0  0  0  0  0
    2.2529    0.3518    1.2233 H   0  0  0  0  0  0  0  0  0  0  0  0
    4.3236    1.6779    1.1945 H   0  0  0  0  0  0  0  0  0  0  0  0
    0.3277    3.2731   -1.2351 H   0  0  0  0  0  0  0  0  0  0  0  0
   -6.9108    3.0633   -0.8489 H   0  0  0  0  0  0  0  0  0  0  0  0
   -7.7156    3.0374    0.7386 H   0  0  0  0  0  0  0  0  0  0  0  0
   -5.9579    3.2986    0.6360 H   0  0  0  0  0  0  0  0  0  0  0  0
  1  2  1  0  0  0  0
  1 26  1  0  0  0  0
  1 27  1  0  0  0  0
  1 28  1  0  0  0  0
  2  7  2  0  0  0  0
  2  3  1  0  0  0  0
  3  4  2  0  0  0  0
  3 29  1  0  0  0  0
  4  5  1  0  0  0  0
  4 30  1  0  0  0  0
  5  6  2  0  0  0  0
  5 25  1  0  0  0  0
  6  7  1  0  0  0  0
  6  8  1  0  0  0  0
  7 31  1  0  0  0  0
  8  9  1  0  0  0  0
  9 10  1  0  0  0  0
  9 32  1  0  0  0  0
  9 33  1  0  0  0  0
 10 11  2  0  0  0  0
 10 12  1  0  0  0  0
 12 13  1  0  0  0  0
 12 34  1  0  0  0  0
 13 18  2  0  0  0  0
 13 14  1  0  0  0  0
 14 15  2  0  0  0  0
 14 35  1  0  0  0  0
 15 16  1  0  0  0  0
 15 36  1  0  0  0  0
 16 23  1  0  0  0  0
 16 17  2  0  0  0  0
 17 18  1  0  0  0  0
 17 19  1  0  0  0  0
 18 37  1  0  0  0  0
 19 20  1  0  0  0  0
 19 21  1  0  0  0  0
 21 22  2  0  0  0  0
 21 23  1  0  0  0  0
 23 24  1  0  0  0  0
 25 38  1  0  0  0  0
 25 39  1  0  0  0  0
 25 40  1  0  0  0  0
M  END
$$$$
ZINC03347667
  -OEChem-08230709453D

 39 41  0     0  0  0  0  0  0999 V2000
    8.9174  -10.4462    2.8812 C   0  0  0  0  0  0  0  0  0  0  0  0
    7.6621  -10.7156    2.0489 C   0  0  0  0  0  0  0  0  0  0  0  0
    6.6404  -11.4746    2.8980 C   0  0  0  0  0  0  0  0  0  0  0  0
    7.0674   -9.4062    1.5985 C   0  0  0  0  0  0  0  0  0  0  0  0
    6.9361   -9.1378    0.2477 C   0  0  0  0  0  0  0  0  0  0  0  0
    6.3929   -7.9408   -0.1713 C   0  0  0  0  0  0  0  0  0  0  0  0
    5.9753   -6.9999    0.7709 C   0  0  0  0  0  0  0  0  0  0  0  0
    6.1154   -7.2746    2.1319 C   0  0  0  0  0  0  0  0  0  0  0  0
    6.6554   -8.4776    2.5377 C   0  0  0  0  0  0  0  0  0  0  0  0
    5.3927   -5.7147    0.3290 C   0  0  0  0  0  0  0  0  0  0  0  0
    5.1816   -5.2650   -0.9000 N   0  0  0  0  0  0  0  0  0  0  0  0
    4.6483   -4.0848   -1.1115 C   0  0  0  0  0  0  0  0  0  0  0  0
    4.3015   -3.2993   -0.0574 C   0  0  0  0  0  0  0  0  0  0  0  0
    4.7909   -4.3451    1.3084 S   0  0  0  0  0  0  0  0  0  0  0  0
    3.6825   -1.9254   -0.0437 C   0  0  0  0  0  0  0  0  0  0  0  0
    1.8749   -2.0768   -0.0275 S   0  0  0  0  0  0  0  0  0  0  0  0
    1.3075   -0.4087   -0.0126 C   0  0  0  0  0  0  0  0  0  0  0  0
    0.0021   -0.0041    0.0020 N   0  0  0  0  0  0  0  0  0  0  0  0
   -0.7748   -0.5848    0.0060 H   0  0  0  0  0  0  0  0  0  0  0  0
   -0.0164    1.3619    0.0095 C   0  0  0  0  0  0  0  0  0  0  0  0
    1.2239    1.7841   -0.0000 N   0  0  0  0  0  0  0  0  0  0  0  0
    2.0632    0.6624   -0.0141 N   0  0  0  0  0  0  0  0  0  0  0  0
   -1.1512    2.1627    0.0195 N   0  0  0  0  0  0  0  0  0  0  0  0
    8.6536   -9.8479    3.7533 H   0  0  0  0  0  0  0  0  0  0  0  0
    9.3475  -11.3932    3.2069 H   0  0  0  0  0  0  0  0  0  0  0  0
    9.6452   -9.9054    2.2763 H   0  0  0  0  0  0  0  0  0  0  0  0
    7.9259  -11.3139    1.1768 H   0  0  0  0  0  0  0  0  0  0  0  0
    5.7462  -11.6666    2.3051 H   0  0  0  0  0  0  0  0  0  0  0  0
    7.0706  -12.4217    3.2238 H   0  0  0  0  0  0  0  0  0  0  0  0
    6.3766  -10.8763    3.7701 H   0  0  0  0  0  0  0  0  0  0  0  0
    7.2600   -9.8667   -0.4805 H   0  0  0  0  0  0  0  0  0  0  0  0
    6.2913   -7.7323   -1.2260 H   0  0  0  0  0  0  0  0  0  0  0  0
    5.7979   -6.5489    2.8660 H   0  0  0  0  0  0  0  0  0  0  0  0
    6.7608   -8.6931    3.5907 H   0  0  0  0  0  0  0  0  0  0  0  0
    4.4848   -3.7383   -2.1213 H   0  0  0  0  0  0  0  0  0  0  0  0
    3.9932   -1.3779   -0.9336 H   0  0  0  0  0  0  0  0  0  0  0  0
    4.0100   -1.3881    0.8463 H   0  0  0  0  0  0  0  0  0  0  0  0
   -2.0319    1.7560    0.0217 H   0  0  0  0  0  0  0  0  0  0  0  0
   -1.0631    3.1287    0.0243 H   0  0  0  0  0  0  0  0  0  0  0  0
  1  2  1  0  0  0  0
  1 24  1  0  0  0  0
  1 25  1  0  0  0  0
  1 26  1  0  0  0  0
  2  3  1  0  0  0  0
  2  4  1  0  0  0  0
  2 27  1  0  0  0  0
  3 28  1  0  0  0  0
  3 29  1  0  0  0  0
  3 30  1  0  0  0  0
  4  9  2  0  0  0  0
  4  5  1  0  0  0  0
  5  6  2  0  0  0  0
  5 31  1  0  0  0  0
  6  7  1  0  0  0  0
  6 32  1  0  0  0  0
  7  8  2  0  0  0  0
  7 10  1  0  0  0  0
  8  9  1  0  0  0  0
  8 33  1  0  0  0  0
  9 34  1  0  0  0  0
 10 14  1  0  0  0  0
 10 11  2  0  0  0  0
 11 12  1  0  0  0  0
 12 13  2  0  0  0  0
 12 35  1  0  0  0  0
 13 14  1  0  0  0  0
 13 15  1  0  0  0  0
 15 16  1  0  0  0  0
 15 36  1  0  0  0  0
 15 37  1  0  0  0  0
 16 17  1  0  0  0  0
 17 22  2  0  0  0  0
 17 18  1  0  0  0  0
 18 19  1  0  0  0  0
 18 20  1  0  0  0  0
 20 21  2  0  0  0  0
 20 23  1  0  0  0  0
 21 22  1  0  0  0  0
 23 38  1  0  0  0  0
 23 39  1  0  0  0  0
M  END
$$$$
ZINC03348448
  -OEChem-08230709453D

 42 44  0     0  0  0  0  0  0999 V2000
    8.2429   -5.6423   -0.6984 C   0  0  0  0  0  0  0  0  0  0  0  0
    7.3172   -5.8460   -1.8994 C   0  0  0  0  0  0  0  0  0  0  0  0
    6.0225   -6.3528   -1.4377 N   0  0  0  0  0  0  0  0  0  0  0  0
    5.6518   -7.6700   -1.2814 C   0  0  0  0  0  0  0  0  0  0  0  0
    4.4102   -7.6712   -0.8486 N   0  0  0  0  0  0  0  0  0  0  0  0
    3.9889   -6.4639   -0.7211 N   0  0  0  0  0  0  0  0  0  0  0  0
    4.9297   -5.6170   -1.0717 C   0  0  0  0  0  0  0  0  0  0  0  0
    4.8086   -3.8592   -1.0645 S   0  0  0  0  0  0  0  0  0  0  0  0
    3.1081   -3.6637   -0.4762 C   0  0  0  0  0  0  0  0  0  0  0  0
    2.7723   -2.1972   -0.3884 C   0  0  0  0  0  0  0  0  0  0  0  0
    3.6013   -1.3659   -0.6937 O   0  0  0  0  0  0  0  0  0  0  0  0
    1.5510   -1.8093    0.0292 N   0  0  0  0  0  0  0  0  0  0  0  0
    1.2004   -0.4462    0.0092 C   0  0  0  0  0  0  0  0  0  0  0  0
    0.3791    0.1549   -0.8891 C   0  0  0  0  0  0  0  0  0  0  0  0
    0.3025    1.4700   -0.5585 N   0  0  0  0  0  0  0  0  0  0  0  0
   -0.2293    2.1676   -1.0387 H   0  0  0  0  0  0  0  0  0  0  0  0
    1.1003    1.6760    0.5742 N   0  0  0  0  0  0  0  0  0  0  0  0
    1.6370    0.5323    0.9141 C   0  0  0  0  0  0  0  0  0  0  0  0
    2.5654    0.3051    2.0792 C   0  0  0  0  0  0  0  0  0  0  0  0
   -0.3209   -0.5152   -2.0432 C   0  0  0  0  0  0  0  0  0  0  0  0
    6.4869   -8.8521   -1.5484 C   0  0  0  0  0  0  0  0  0  0  0  0
    6.2946  -10.1530   -1.1570 C   0  0  0  0  0  0  0  0  0  0  0  0
    7.2198  -11.1001   -1.5344 C   0  0  0  0  0  0  0  0  0  0  0  0
    8.2963  -10.7185   -2.2694 C   0  0  0  0  0  0  0  0  0  0  0  0
    8.0182   -8.9653   -2.4594 S   0  0  0  0  0  0  0  0  0  0  0  0
    8.3869   -6.5932   -0.1853 H   0  0  0  0  0  0  0  0  0  0  0  0
    9.2062   -5.2653   -1.0419 H   0  0  0  0  0  0  0  0  0  0  0  0
    7.7951   -4.9234   -0.0123 H   0  0  0  0  0  0  0  0  0  0  0  0
    7.7650   -6.5649   -2.5855 H   0  0  0  0  0  0  0  0  0  0  0  0
    7.1731   -4.8952   -2.4125 H   0  0  0  0  0  0  0  0  0  0  0  0
    3.0101   -4.1185    0.5095 H   0  0  0  0  0  0  0  0  0  0  0  0
    2.4248   -4.1519   -1.1711 H   0  0  0  0  0  0  0  0  0  0  0  0
    0.9136   -2.4695    0.3435 H   0  0  0  0  0  0  0  0  0  0  0  0
    3.5780    0.5952    1.7989 H   0  0  0  0  0  0  0  0  0  0  0  0
    2.2373    0.9054    2.9278 H   0  0  0  0  0  0  0  0  0  0  0  0
    2.5526   -0.7497    2.3537 H   0  0  0  0  0  0  0  0  0  0  0  0
    0.3171   -0.4781   -2.9262 H   0  0  0  0  0  0  0  0  0  0  0  0
   -0.5285   -1.5545   -1.7883 H   0  0  0  0  0  0  0  0  0  0  0  0
   -1.2577    0.0022   -2.2500 H   0  0  0  0  0  0  0  0  0  0  0  0
    5.4329  -10.4291   -0.5673 H   0  0  0  0  0  0  0  0  0  0  0  0
    7.0937  -12.1331   -1.2454 H   0  0  0  0  0  0  0  0  0  0  0  0
    9.1113  -11.3208   -2.6427 H   0  0  0  0  0  0  0  0  0  0  0  0
  1  2  1  0  0  0  0
  1 26  1  0  0  0  0
  1 27  1  0  0  0  0
  1 28  1  0  0  0  0
  2  3  1  0  0  0  0
  2 29  1  0  0  0  0
  2 30  1  0  0  0  0
  3  7  1  0  0  0  0
  3  4  1  0  0  0  0
  4  5  2  0  0  0  0
  4 21  1  0  0  0  0
  5  6  1  0  0  0  0
  6  7  2  0  0  0  0
  7  8  1  0  0  0  0
  8  9  1  0  0  0  0
  9 10  1  0  0  0  0
  9 31  1  0  0  0  0
  9 32  1  0  0  0  0
 10 11  2  0  0  0  0
 10 12  1  0  0  0  0
 12 13  1  0  0  0  0
 12 33  1  0  0  0  0
 13 18  1  0  0  0  0
 13 14  2  0  0  0  0
 14 15  1  0  0  0  0
 14 20  1  0  0  0  0
 15 16  1  0  0  0  0
 15 17  1  0  0  0  0
 17 18  2  0  0  0  0
 18 19  1  0  0  0  0
 19 34  1  0  0  0  0
 19 35  1  0  0  0  0
 19 36  1  0  0  0  0
 20 37  1  0  0  0  0
 20 38  1  0  0  0  0
 20 39  1  0  0  0  0
 21 25  1  0  0  0  0
 21 22  2  0  0  0  0
 22 23  1  0  0  0  0
 22 40  1  0  0  0  0
 23 24  2  0  0  0  0
 23 41  1  0  0  0  0
 24 25  1  0  0  0  0
 24 42  1  0  0  0  0
M  END
$$$$
ZINC03354949
  -OEChem-08230709453D

 42 43  0     1  0  0  0  0  0999 V2000
    1.4961    6.7395    0.4803 C   0  0  0  0  0  0  0  0  0  0  0  0
    1.4643    6.0354   -0.8777 C   0  0  1  0  0  0  0  0  0  0  0  0
    0.4506    6.0627   -1.2774 H   0  0  0  0  0  0  0  0  0  0  0  0
    2.4129    6.7477   -1.8439 C   0  0  0  0  0  0  0  0  0  0  0  0
    3.7186    6.8144   -1.2670 O   0  0  0  0  0  0  0  0  0  0  0  0
    4.6865    7.4647   -2.0931 C   0  0  0  0  0  0  0  0  0  0  0  0
    1.8879    4.6424   -0.7155 N   0  0  0  0  0  0  0  0  0  0  0  0
    0.9669    3.6773   -0.3425 C   0  0  0  0  0  0  0  0  0  0  0  0
   -0.2621    4.0138   -0.1395 N   0  0  0  0  0  0  0  0  0  0  0  0
   -1.2548    3.1204    0.2396 N   0  0  0  0  0  0  0  0  0  0  0  0
   -1.1821    1.7357    0.0385 C   0  0  0  0  0  0  0  0  0  0  0  0
   -0.0237    1.0988   -0.1423 C   0  0  0  0  0  0  0  0  0  0  0  0
    1.4878    2.0055   -0.1505 S   0  0  0  0  0  0  0  0  0  0  0  0
   -2.4335    0.9513    0.0316 C   0  0  0  0  0  0  0  0  0  0  0  0
   -2.3925   -0.4310   -0.1675 C   0  0  0  0  0  0  0  0  0  0  0  0
   -3.5618   -1.1603   -0.1670 C   0  0  0  0  0  0  0  0  0  0  0  0
   -4.7819   -0.5207    0.0187 C   0  0  0  0  0  0  0  0  0  0  0  0
   -4.8272    0.8553    0.2113 C   0  0  0  0  0  0  0  0  0  0  0  0
   -3.6618    1.5905    0.2183 C   0  0  0  0  0  0  0  0  0  0  0  0
   -5.9675   -1.2638    0.0122 N   0  0  0  0  0  0  0  0  0  0  0  0
   -7.1012   -0.7198   -0.4730 C   0  0  0  0  0  0  0  0  0  0  0  0
   -7.0743    0.3766   -0.9911 O   0  0  0  0  0  0  0  0  0  0  0  0
   -8.4021   -1.4737   -0.3718 C   0  0  0  0  0  0  0  0  0  0  0  0
    2.5098    6.7122    0.8801 H   0  0  0  0  0  0  0  0  0  0  0  0
    1.1809    7.7759    0.3596 H   0  0  0  0  0  0  0  0  0  0  0  0
    0.8203    6.2320    1.1686 H   0  0  0  0  0  0  0  0  0  0  0  0
    2.4581    6.1951   -2.7823 H   0  0  0  0  0  0  0  0  0  0  0  0
    2.0476    7.7570   -2.0337 H   0  0  0  0  0  0  0  0  0  0  0  0
    4.7788    6.9270   -3.0367 H   0  0  0  0  0  0  0  0  0  0  0  0
    4.3683    8.4888   -2.2882 H   0  0  0  0  0  0  0  0  0  0  0  0
    5.6505    7.4743   -1.5846 H   0  0  0  0  0  0  0  0  0  0  0  0
    2.8134    4.3959   -0.8692 H   0  0  0  0  0  0  0  0  0  0  0  0
   -2.0490    3.4778    0.6667 H   0  0  0  0  0  0  0  0  0  0  0  0
   -0.0125    0.0288   -0.2880 H   0  0  0  0  0  0  0  0  0  0  0  0
   -1.4454   -0.9280   -0.3166 H   0  0  0  0  0  0  0  0  0  0  0  0
   -3.5305   -2.2296   -0.3157 H   0  0  0  0  0  0  0  0  0  0  0  0
   -5.7771    1.3487    0.3552 H   0  0  0  0  0  0  0  0  0  0  0  0
   -3.6978    2.6595    0.3677 H   0  0  0  0  0  0  0  0  0  0  0  0
   -5.9735   -2.1705    0.3568 H   0  0  0  0  0  0  0  0  0  0  0  0
   -8.2298   -2.4313    0.1196 H   0  0  0  0  0  0  0  0  0  0  0  0
   -9.1159   -0.8902    0.2096 H   0  0  0  0  0  0  0  0  0  0  0  0
   -8.8015   -1.6450   -1.3715 H   0  0  0  0  0  0  0  0  0  0  0  0
  1  2  1  0  0  0  0
  1 24  1  0  0  0  0
  1 25  1  0  0  0  0
  1 26  1  0  0  0  0
  2  3  1  0  0  0  0
  2  4  1  0  0  0  0
  2  7  1  0  0  0  0
  4  5  1  0  0  0  0
  4 27  1  0  0  0  0
  4 28  1  0  0  0  0
  5  6  1  0  0  0  0
  6 29  1  0  0  0  0
  6 30  1  0  0  0  0
  6 31  1  0  0  0  0
  7  8  1  0  0  0  0
  7 32  1  0  0  0  0
  8 13  1  0  0  0  0
  8  9  2  0  0  0  0
  9 10  1  0  0  0  0
 10 11  1  0  0  0  0
 10 33  1  0  0  0  0
 11 12  2  0  0  0  0
 11 14  1  0  0  0  0
 12 13  1  0  0  0  0
 12 34  1  0  0  0  0
 14 19  2  0  0  0  0
 14 15  1  0  0  0  0
 15 16  2  0  0  0  0
 15 35  1  0  0  0  0
 16 17  1  0  0  0  0
 16 36  1  0  0  0  0
 17 18  2  0  0  0  0
 17 20  1  0  0  0  0
 18 19  1  0  0  0  0
 18 37  1  0  0  0  0
 19 38  1  0  0  0  0
 20 21  1  0  0  0  0
 20 39  1  0  0  0  0
 21 22  2  0  0  0  0
 21 23  1  0  0  0  0
 23 40  1  0  0  0  0
 23 41  1  0  0  0  0
 23 42  1  0  0  0  0
M  END
$$$$
ZINC03354950
  -OEChem-08230709453D

 42 43  0     1  0  0  0  0  0999 V2000
    0.0179    1.1877    0.1190 C   0  0  0  0  0  0  0  0  0  0  0  0
   -0.7960    1.4961    1.3773 C   0  0  2  0  0  0  0  0  0  0  0  0
   -0.8456    2.5753    1.5225 H   0  0  0  0  0  0  0  0  0  0  0  0
   -0.1247    0.8487    2.5903 C   0  0  0  0  0  0  0  0  0  0  0  0
    0.0457   -0.5497    2.3504 O   0  0  0  0  0  0  0  0  0  0  0  0
    0.6675   -1.2527    3.4280 C   0  0  0  0  0  0  0  0  0  0  0  0
   -2.1513    0.9609    1.2257 N   0  0  0  0  0  0  0  0  0  0  0  0
   -3.1216    1.7062    0.5763 C   0  0  0  0  0  0  0  0  0  0  0  0
   -4.3128    1.2274    0.4471 N   0  0  0  0  0  0  0  0  0  0  0  0
   -5.3494    1.8968   -0.1890 N   0  0  0  0  0  0  0  0  0  0  0  0
   -5.3854    3.2837   -0.3855 C   0  0  0  0  0  0  0  0  0  0  0  0
   -4.2860    4.0391   -0.3575 C   0  0  0  0  0  0  0  0  0  0  0  0
   -2.7164    3.2994   -0.0568 S   0  0  0  0  0  0  0  0  0  0  0  0
   -6.6886    3.9334   -0.6321 C   0  0  0  0  0  0  0  0  0  0  0  0
   -7.8565    3.1676   -0.6723 C   0  0  0  0  0  0  0  0  0  0  0  0
   -9.0711    3.7780   -0.8983 C   0  0  0  0  0  0  0  0  0  0  0  0
   -9.1341    5.1525   -1.0962 C   0  0  0  0  0  0  0  0  0  0  0  0
   -7.9738    5.9171   -1.0618 C   0  0  0  0  0  0  0  0  0  0  0  0
   -6.7560    5.3146   -0.8315 C   0  0  0  0  0  0  0  0  0  0  0  0
  -10.3687    5.7680   -1.3304 N   0  0  0  0  0  0  0  0  0  0  0  0
  -10.4434    6.8417   -2.1416 C   0  0  0  0  0  0  0  0  0  0  0  0
   -9.4594    7.2164   -2.7437 O   0  0  0  0  0  0  0  0  0  0  0  0
  -11.7494    7.5766   -2.3005 C   0  0  0  0  0  0  0  0  0  0  0  0
    0.0675    0.1086   -0.0262 H   0  0  0  0  0  0  0  0  0  0  0  0
    1.0262    1.5859    0.2318 H   0  0  0  0  0  0  0  0  0  0  0  0
   -0.4603    1.6489   -0.7451 H   0  0  0  0  0  0  0  0  0  0  0  0
    0.8488    1.3102    2.7561 H   0  0  0  0  0  0  0  0  0  0  0  0
   -0.7499    0.9927    3.4714 H   0  0  0  0  0  0  0  0  0  0  0  0
    1.6574   -0.8348    3.6113 H   0  0  0  0  0  0  0  0  0  0  0  0
    0.0587   -1.1523    4.3265 H   0  0  0  0  0  0  0  0  0  0  0  0
    0.7606   -2.3072    3.1681 H   0  0  0  0  0  0  0  0  0  0  0  0
   -2.3691    0.0846    1.5801 H   0  0  0  0  0  0  0  0  0  0  0  0
   -6.0956    1.3716   -0.5179 H   0  0  0  0  0  0  0  0  0  0  0  0
   -4.3588    5.1050   -0.5154 H   0  0  0  0  0  0  0  0  0  0  0  0
   -7.8078    2.0990   -0.5230 H   0  0  0  0  0  0  0  0  0  0  0  0
   -9.9748    3.1872   -0.9258 H   0  0  0  0  0  0  0  0  0  0  0  0
   -8.0266    6.9848   -1.2160 H   0  0  0  0  0  0  0  0  0  0  0  0
   -5.8548    5.9093   -0.8055 H   0  0  0  0  0  0  0  0  0  0  0  0
  -11.1709    5.4219   -0.9088 H   0  0  0  0  0  0  0  0  0  0  0  0
  -12.5127    7.0978   -1.6872 H   0  0  0  0  0  0  0  0  0  0  0  0
  -11.6248    8.6118   -1.9829 H   0  0  0  0  0  0  0  0  0  0  0  0
  -12.0553    7.5517   -3.3464 H   0  0  0  0  0  0  0  0  0  0  0  0
  1  2  1  0  0  0  0
  1 24  1  0  0  0  0
  1 25  1  0  0  0  0
  1 26  1  0  0  0  0
  2  3  1  0  0  0  0
  2  4  1  0  0  0  0
  2  7  1  0  0  0  0
  4  5  1  0  0  0  0
  4 27  1  0  0  0  0
  4 28  1  0  0  0  0
  5  6  1  0  0  0  0
  6 29  1  0  0  0  0
  6 30  1  0  0  0  0
  6 31  1  0  0  0  0
  7  8  1  0  0  0  0
  7 32  1  0  0  0  0
  8 13  1  0  0  0  0
  8  9  2  0  0  0  0
  9 10  1  0  0  0  0
 10 11  1  0  0  0  0
 10 33  1  0  0  0  0
 11 12  2  0  0  0  0
 11 14  1  0  0  0  0
 12 13  1  0  0  0  0
 12 34  1  0  0  0  0
 14 19  2  0  0  0  0
 14 15  1  0  0  0  0
 15 16  2  0  0  0  0
 15 35  1  0  0  0  0
 16 17  1  0  0  0  0
 16 36  1  0  0  0  0
 17 18  2  0  0  0  0
 17 20  1  0  0  0  0
 18 19  1  0  0  0  0
 18 37  1  0  0  0  0
 19 38  1  0  0  0  0
 20 21  1  0  0  0  0
 20 39  1  0  0  0  0
 21 22  2  0  0  0  0
 21 23  1  0  0  0  0
 23 40  1  0  0  0  0
 23 41  1  0  0  0  0
 23 42  1  0  0  0  0
M  END
$$$$
ZINC03359505
  -OEChem-08230709453D

 41 42  0     0  0  0  0  0  0999 V2000
    0.0090   -0.0043    0.0413 C   0  0  0  0  0  0  0  0  0  0  0  0
   -0.0141    1.5025    0.0272 C   0  0  0  0  0  0  0  0  0  0  0  0
    1.0266    2.1246   -0.0064 O   0  0  0  0  0  0  0  0  0  0  0  0
   -1.1911    2.1586    0.0464 N   0  0  0  0  0  0  0  0  0  0  0  0
   -1.2128    3.5552    0.1530 C   0  0  0  0  0  0  0  0  0  0  0  0
   -0.1588    4.2213    0.7645 C   0  0  0  0  0  0  0  0  0  0  0  0
   -0.1774    5.5979    0.8646 C   0  0  0  0  0  0  0  0  0  0  0  0
   -1.2555    6.3161    0.3634 C   0  0  0  0  0  0  0  0  0  0  0  0
   -2.3122    5.6494   -0.2431 C   0  0  0  0  0  0  0  0  0  0  0  0
   -2.2910    4.2731   -0.3477 C   0  0  0  0  0  0  0  0  0  0  0  0
   -1.2771    7.7118    0.4700 N   0  0  0  0  0  0  0  0  0  0  0  0
   -0.1309    8.4134    0.3674 C   0  0  0  0  0  0  0  0  0  0  0  0
    0.9317    7.8307    0.2676 O   0  0  0  0  0  0  0  0  0  0  0  0
   -0.1655    9.8888    0.3762 C   0  0  0  0  0  0  0  0  0  0  0  0
    1.0223   10.6177    0.2699 C   0  0  0  0  0  0  0  0  0  0  0  0
    0.9852   11.9985    0.2787 C   0  0  0  0  0  0  0  0  0  0  0  0
   -0.2352   12.6624    0.3929 C   0  0  0  0  0  0  0  0  0  0  0  0
   -1.4157   11.9385    0.4990 C   0  0  0  0  0  0  0  0  0  0  0  0
   -1.3859   10.5596    0.4851 C   0  0  0  0  0  0  0  0  0  0  0  0
   -2.9324   12.7708    0.6421 Cl  0  0  0  0  0  0  0  0  0  0  0  0
   -0.2698   14.0202    0.4008 O   0  0  0  0  0  0  0  0  0  0  0  0
   -0.4026   14.6732   -0.8633 C   0  0  0  0  0  0  0  0  0  0  0  0
    2.1394   12.7103    0.1754 O   0  0  0  0  0  0  0  0  0  0  0  0
    3.3532   11.9649    0.0610 C   0  0  0  0  0  0  0  0  0  0  0  0
    0.0417   -0.3576    1.0719 H   0  0  0  0  0  0  0  0  0  0  0  0
   -0.8887   -0.3859   -0.4453 H   0  0  0  0  0  0  0  0  0  0  0  0
    0.8905   -0.3592   -0.4927 H   0  0  0  0  0  0  0  0  0  0  0  0
   -2.0233    1.6638   -0.0137 H   0  0  0  0  0  0  0  0  0  0  0  0
    0.6774    3.6625    1.1581 H   0  0  0  0  0  0  0  0  0  0  0  0
    0.6445    6.1163    1.3359 H   0  0  0  0  0  0  0  0  0  0  0  0
   -3.1504    6.2077   -0.6331 H   0  0  0  0  0  0  0  0  0  0  0  0
   -3.1127    3.7547   -0.8193 H   0  0  0  0  0  0  0  0  0  0  0  0
   -2.1171    8.1740    0.6177 H   0  0  0  0  0  0  0  0  0  0  0  0
    1.9673   10.1024    0.1815 H   0  0  0  0  0  0  0  0  0  0  0  0
   -2.3055    9.9987    0.5625 H   0  0  0  0  0  0  0  0  0  0  0  0
   -0.4171   15.7530   -0.7147 H   0  0  0  0  0  0  0  0  0  0  0  0
    0.4400   14.4055   -1.5008 H   0  0  0  0  0  0  0  0  0  0  0  0
   -1.3319   14.3594   -1.3386 H   0  0  0  0  0  0  0  0  0  0  0  0
    4.1960   12.6522   -0.0138 H   0  0  0  0  0  0  0  0  0  0  0  0
    3.4762   11.3336    0.9410 H   0  0  0  0  0  0  0  0  0  0  0  0
    3.3134   11.3404   -0.8315 H   0  0  0  0  0  0  0  0  0  0  0  0
  1  2  1  0  0  0  0
  1 25  1  0  0  0  0
  1 26  1  0  0  0  0
  1 27  1  0  0  0  0
  2  3  2  0  0  0  0
  2  4  1  0  0  0  0
  4  5  1  0  0  0  0
  4 28  1  0  0  0  0
  5 10  2  0  0  0  0
  5  6  1  0  0  0  0
  6  7  2  0  0  0  0
  6 29  1  0  0  0  0
  7  8  1  0  0  0  0
  7 30  1  0  0  0  0
  8  9  2  0  0  0  0
  8 11  1  0  0  0  0
  9 10  1  0  0  0  0
  9 31  1  0  0  0  0
 10 32  1  0  0  0  0
 11 12  1  0  0  0  0
 11 33  1  0  0  0  0
 12 13  2  0  0  0  0
 12 14  1  0  0  0  0
 14 19  2  0  0  0  0
 14 15  1  0  0  0  0
 15 16  2  0  0  0  0
 15 34  1  0  0  0  0
 16 17  1  0  0  0  0
 16 23  1  0  0  0  0
 17 18  2  0  0  0  0
 17 21  1  0  0  0  0
 18 19  1  0  0  0  0
 18 20  1  0  0  0  0
 19 35  1  0  0  0  0
 21 22  1  0  0  0  0
 22 36  1  0  0  0  0
 22 37  1  0  0  0  0
 22 38  1  0  0  0  0
 23 24  1  0  0  0  0
 24 39  1  0  0  0  0
 24 40  1  0  0  0  0
 24 41  1  0  0  0  0
M  END
$$$$
ZINC03362477
  -OEChem-08230709453D

 43 45  0     1  0  0  0  0  0999 V2000
    4.6159  -10.4502    9.1940 C   0  0  0  0  0  0  0  0  0  0  0  0
    4.4594   -9.5799    7.9736 C   0  0  0  0  0  0  0  0  0  0  0  0
    3.5194   -9.7477    7.2256 O   0  0  0  0  0  0  0  0  0  0  0  0
    5.3639   -8.6152    7.7134 N   0  0  0  0  0  0  0  0  0  0  0  0
    5.1609   -7.7360    6.6440 C   0  0  0  0  0  0  0  0  0  0  0  0
    3.8706   -7.3519    6.2976 C   0  0  0  0  0  0  0  0  0  0  0  0
    3.6667   -6.4858    5.2453 C   0  0  0  0  0  0  0  0  0  0  0  0
    4.7589   -5.9936    4.5262 C   0  0  0  0  0  0  0  0  0  0  0  0
    6.0539   -6.3865    4.8738 C   0  0  0  0  0  0  0  0  0  0  0  0
    6.2501   -7.2484    5.9310 C   0  0  0  0  0  0  0  0  0  0  0  0
    4.5447   -5.0652    3.3978 C   0  0  0  0  0  0  0  0  0  0  0  0
    5.6062   -4.6111    2.7290 C   0  0  0  0  0  0  0  0  0  0  0  0
    5.3871   -3.4986    1.3797 S   0  0  0  0  0  0  0  0  0  0  0  0
    3.7312   -2.9307    1.5758 C   0  0  0  0  0  0  0  0  0  0  0  0
    2.9077   -3.5506    2.3520 N   0  0  0  0  0  0  0  0  0  0  0  0
    3.2343   -4.6934    3.0694 N   0  0  0  0  0  0  0  0  0  0  0  0
    3.3096   -1.8016    0.8929 N   0  0  0  0  0  0  0  0  0  0  0  0
    1.9344   -1.3216    1.0496 C   0  0  0  0  0  0  0  0  0  0  0  0
    1.7306   -0.0697    0.1939 C   0  0  1  0  0  0  0  0  0  0  0  0
    1.9493   -0.2860   -0.8518 H   0  0  0  0  0  0  0  0  0  0  0  0
    0.2853    0.4547    0.3438 C   0  0  0  0  0  0  0  0  0  0  0  0
    0.4390    1.9919    0.3182 C   0  0  0  0  0  0  0  0  0  0  0  0
    1.9591    2.2144    0.1558 C   0  0  0  0  0  0  0  0  0  0  0  0
    2.5655    1.0085    0.6696 O   0  0  0  0  0  0  0  0  0  0  0  0
    4.0982   -9.9913   10.0363 H   0  0  0  0  0  0  0  0  0  0  0  0
    4.1884  -11.4332    8.9965 H   0  0  0  0  0  0  0  0  0  0  0  0
    5.6745  -10.5554    9.4318 H   0  0  0  0  0  0  0  0  0  0  0  0
    6.1556   -8.5304    8.2674 H   0  0  0  0  0  0  0  0  0  0  0  0
    3.0269   -7.7330    6.8536 H   0  0  0  0  0  0  0  0  0  0  0  0
    2.6640   -6.1882    4.9765 H   0  0  0  0  0  0  0  0  0  0  0  0
    6.9003   -6.0116    4.3176 H   0  0  0  0  0  0  0  0  0  0  0  0
    7.2511   -7.5488    6.2033 H   0  0  0  0  0  0  0  0  0  0  0  0
    6.5993   -4.9254    3.0142 H   0  0  0  0  0  0  0  0  0  0  0  0
    2.5111   -5.2684    3.3647 H   0  0  0  0  0  0  0  0  0  0  0  0
    3.9250   -1.3288    0.3110 H   0  0  0  0  0  0  0  0  0  0  0  0
    1.7510   -1.0799    2.0965 H   0  0  0  0  0  0  0  0  0  0  0  0
    1.2398   -2.0979    0.7288 H   0  0  0  0  0  0  0  0  0  0  0  0
   -0.1426    0.1294    1.2921 H   0  0  0  0  0  0  0  0  0  0  0  0
   -0.3313    0.1186   -0.4898 H   0  0  0  0  0  0  0  0  0  0  0  0
   -0.1015    2.4157   -0.5281 H   0  0  0  0  0  0  0  0  0  0  0  0
    0.0872    2.4266    1.2537 H   0  0  0  0  0  0  0  0  0  0  0  0
    2.2128    2.3484   -0.8957 H   0  0  0  0  0  0  0  0  0  0  0  0
    2.2803    3.0783    0.7377 H   0  0  0  0  0  0  0  0  0  0  0  0
  1  2  1  0  0  0  0
  1 25  1  0  0  0  0
  1 26  1  0  0  0  0
  1 27  1  0  0  0  0
  2  3  2  0  0  0  0
  2  4  1  0  0  0  0
  4  5  1  0  0  0  0
  4 28  1  0  0  0  0
  5 10  2  0  0  0  0
  5  6  1  0  0  0  0
  6  7  2  0  0  0  0
  6 29  1  0  0  0  0
  7  8  1  0  0  0  0
  7 30  1  0  0  0  0
  8  9  2  0  0  0  0
  8 11  1  0  0  0  0
  9 10  1  0  0  0  0
  9 31  1  0  0  0  0
 10 32  1  0  0  0  0
 11 16  1  0  0  0  0
 11 12  2  0  0  0  0
 12 13  1  0  0  0  0
 12 33  1  0  0  0  0
 13 14  1  0  0  0  0
 14 15  2  0  0  0  0
 14 17  1  0  0  0  0
 15 16  1  0  0  0  0
 16 34  1  0  0  0  0
 17 18  1  0  0  0  0
 17 35  1  0  0  0  0
 18 19  1  0  0  0  0
 18 36  1  0  0  0  0
 18 37  1  0  0  0  0
 19 20  1  0  0  0  0
 19 24  1  0  0  0  0
 19 21  1  0  0  0  0
 21 22  1  0  0  0  0
 21 38  1  0  0  0  0
 21 39  1  0  0  0  0
 22 23  1  0  0  0  0
 22 40  1  0  0  0  0
 22 41  1  0  0  0  0
 23 24  1  0  0  0  0
 23 42  1  0  0  0  0
 23 43  1  0  0  0  0
M  END
$$$$
ZINC03362479
  -OEChem-08230709453D

 43 45  0     1  0  0  0  0  0999 V2000
    1.6982    9.6381   -2.5930 C   0  0  0  0  0  0  0  0  0  0  0  0
    1.7831    8.1771   -2.2337 C   0  0  0  0  0  0  0  0  0  0  0  0
    2.8232    7.5732   -2.3913 O   0  0  0  0  0  0  0  0  0  0  0  0
    0.7034    7.5413   -1.7371 N   0  0  0  0  0  0  0  0  0  0  0  0
    0.8111    6.2163   -1.3004 C   0  0  0  0  0  0  0  0  0  0  0  0
    1.9938    5.7712   -0.7214 C   0  0  0  0  0  0  0  0  0  0  0  0
    2.1038    4.4669   -0.2905 C   0  0  0  0  0  0  0  0  0  0  0  0
    1.0245    3.5917   -0.4358 C   0  0  0  0  0  0  0  0  0  0  0  0
   -0.1608    4.0414   -1.0232 C   0  0  0  0  0  0  0  0  0  0  0  0
   -0.2651    5.3487   -1.4464 C   0  0  0  0  0  0  0  0  0  0  0  0
    1.1382    2.1930    0.0247 C   0  0  0  0  0  0  0  0  0  0  0  0
    2.2839    1.7896    0.5769 C   0  0  0  0  0  0  0  0  0  0  0  0
    2.4552    0.1263    1.1342 S   0  0  0  0  0  0  0  0  0  0  0  0
    1.1078   -0.7088    0.3661 C   0  0  0  0  0  0  0  0  0  0  0  0
    0.1251   -0.0468   -0.1449 N   0  0  0  0  0  0  0  0  0  0  0  0
    0.0391    1.3387   -0.1344 N   0  0  0  0  0  0  0  0  0  0  0  0
    1.1034   -2.0928    0.3094 N   0  0  0  0  0  0  0  0  0  0  0  0
    2.2146   -2.8531    0.8867 C   0  0  0  0  0  0  0  0  0  0  0  0
    1.9644   -4.3498    0.6914 C   0  0  2  0  0  0  0  0  0  0  0  0
    0.9791   -4.6217    1.0701 H   0  0  0  0  0  0  0  0  0  0  0  0
    3.0601   -5.1754    1.4015 C   0  0  0  0  0  0  0  0  0  0  0  0
    3.3041   -6.3702    0.4527 C   0  0  0  0  0  0  0  0  0  0  0  0
    2.3270   -6.1251   -0.7184 C   0  0  0  0  0  0  0  0  0  0  0  0
    2.0837   -4.7016   -0.7043 O   0  0  0  0  0  0  0  0  0  0  0  0
    0.6936   10.0059   -2.3840 H   0  0  0  0  0  0  0  0  0  0  0  0
    2.4212   10.2003   -2.0020 H   0  0  0  0  0  0  0  0  0  0  0  0
    1.9182    9.7650   -3.6530 H   0  0  0  0  0  0  0  0  0  0  0  0
   -0.1483    8.0023   -1.6825 H   0  0  0  0  0  0  0  0  0  0  0  0
    2.8276    6.4483   -0.6093 H   0  0  0  0  0  0  0  0  0  0  0  0
    3.0232    4.1216    0.1587 H   0  0  0  0  0  0  0  0  0  0  0  0
   -0.9956    3.3665   -1.1416 H   0  0  0  0  0  0  0  0  0  0  0  0
   -1.1827    5.6984   -1.8961 H   0  0  0  0  0  0  0  0  0  0  0  0
    3.1059    2.4821    0.6826 H   0  0  0  0  0  0  0  0  0  0  0  0
   -0.8363    1.7407   -0.2483 H   0  0  0  0  0  0  0  0  0  0  0  0
    0.3645   -2.5586   -0.1125 H   0  0  0  0  0  0  0  0  0  0  0  0
    3.1436   -2.5722    0.3905 H   0  0  0  0  0  0  0  0  0  0  0  0
    2.2907   -2.6334    1.9516 H   0  0  0  0  0  0  0  0  0  0  0  0
    3.9697   -4.5856    1.5147 H   0  0  0  0  0  0  0  0  0  0  0  0
    2.7076   -5.5222    2.3729 H   0  0  0  0  0  0  0  0  0  0  0  0
    4.3344   -6.3710    0.0968 H   0  0  0  0  0  0  0  0  0  0  0  0
    3.0738   -7.3099    0.9548 H   0  0  0  0  0  0  0  0  0  0  0  0
    2.7839   -6.4226   -1.6623 H   0  0  0  0  0  0  0  0  0  0  0  0
    1.3980   -6.6722   -0.5583 H   0  0  0  0  0  0  0  0  0  0  0  0
  1  2  1  0  0  0  0
  1 25  1  0  0  0  0
  1 26  1  0  0  0  0
  1 27  1  0  0  0  0
  2  3  2  0  0  0  0
  2  4  1  0  0  0  0
  4  5  1  0  0  0  0
  4 28  1  0  0  0  0
  5 10  2  0  0  0  0
  5  6  1  0  0  0  0
  6  7  2  0  0  0  0
  6 29  1  0  0  0  0
  7  8  1  0  0  0  0
  7 30  1  0  0  0  0
  8  9  2  0  0  0  0
  8 11  1  0  0  0  0
  9 10  1  0  0  0  0
  9 31  1  0  0  0  0
 10 32  1  0  0  0  0
 11 16  1  0  0  0  0
 11 12  2  0  0  0  0
 12 13  1  0  0  0  0
 12 33  1  0  0  0  0
 13 14  1  0  0  0  0
 14 15  2  0  0  0  0
 14 17  1  0  0  0  0
 15 16  1  0  0  0  0
 16 34  1  0  0  0  0
 17 18  1  0  0  0  0
 17 35  1  0  0  0  0
 18 19  1  0  0  0  0
 18 36  1  0  0  0  0
 18 37  1  0  0  0  0
 19 20  1  0  0  0  0
 19 24  1  0  0  0  0
 19 21  1  0  0  0  0
 21 22  1  0  0  0  0
 21 38  1  0  0  0  0
 21 39  1  0  0  0  0
 22 23  1  0  0  0  0
 22 40  1  0  0  0  0
 22 41  1  0  0  0  0
 23 24  1  0  0  0  0
 23 42  1  0  0  0  0
 23 43  1  0  0  0  0
M  END
$$$$
ZINC03362632
  -OEChem-08230709453D

 47 49  0     0  0  0  0  0  0999 V2000
  -10.8156    3.9428   -4.3142 C   0  0  0  0  0  0  0  0  0  0  0  0
   -9.3675    4.3076   -3.9812 C   0  0  0  0  0  0  0  0  0  0  0  0
   -9.1619    4.2475   -2.4663 C   0  0  0  0  0  0  0  0  0  0  0  0
   -7.7515    4.7321   -2.1238 C   0  0  0  0  0  0  0  0  0  0  0  0
   -7.5505    4.6817   -0.6070 C   0  0  0  0  0  0  0  0  0  0  0  0
   -7.7490    3.2526   -0.1140 C   0  0  0  0  0  0  0  0  0  0  0  0
   -9.1441    2.7488   -0.4674 C   0  0  0  0  0  0  0  0  0  0  0  0
   -9.3396    2.8063   -1.9847 C   0  0  0  0  0  0  0  0  0  0  0  0
   -6.6957    2.3417   -0.7018 C   0  0  0  0  0  0  0  0  0  0  0  0
   -6.5054    2.1005   -1.8746 O   0  0  0  0  0  0  0  0  0  0  0  0
   -6.0116    1.8541    0.3538 N   0  0  0  0  0  0  0  0  0  0  0  0
   -6.4904    2.3250    1.5118 C   0  0  0  0  0  0  0  0  0  0  0  0
   -6.0415    2.0251    2.6007 O   0  0  0  0  0  0  0  0  0  0  0  0
   -7.5232    3.1711    1.3345 N   0  0  0  0  0  0  0  0  0  0  0  0
   -4.8880    0.9201    0.2464 C   0  0  0  0  0  0  0  0  0  0  0  0
   -3.6004    1.6945    0.1305 C   0  0  0  0  0  0  0  0  0  0  0  0
   -3.6194    2.9072    0.1369 O   0  0  0  0  0  0  0  0  0  0  0  0
   -2.4277    1.0396    0.0196 N   0  0  0  0  0  0  0  0  0  0  0  0
   -1.2244    1.7537    0.0231 C   0  0  0  0  0  0  0  0  0  0  0  0
   -1.1058    2.9132    0.7788 C   0  0  0  0  0  0  0  0  0  0  0  0
    0.0843    3.6139    0.7852 C   0  0  0  0  0  0  0  0  0  0  0  0
    1.1568    3.1656    0.0366 C   0  0  0  0  0  0  0  0  0  0  0  0
    1.0412    2.0130   -0.7223 C   0  0  0  0  0  0  0  0  0  0  0  0
   -0.1491    1.3078   -0.7329 C   0  0  0  0  0  0  0  0  0  0  0  0
    2.0908    1.5772   -1.4528 F   0  0  0  0  0  0  0  0  0  0  0  0
  -10.9621    3.9856   -5.3934 H   0  0  0  0  0  0  0  0  0  0  0  0
  -11.0272    2.9344   -3.9585 H   0  0  0  0  0  0  0  0  0  0  0  0
  -11.4891    4.6484   -3.8278 H   0  0  0  0  0  0  0  0  0  0  0  0
   -9.1559    5.3160   -4.3369 H   0  0  0  0  0  0  0  0  0  0  0  0
   -8.6940    3.6020   -4.4676 H   0  0  0  0  0  0  0  0  0  0  0  0
   -9.8949    4.8874   -1.9750 H   0  0  0  0  0  0  0  0  0  0  0  0
   -7.6242    5.7566   -2.4736 H   0  0  0  0  0  0  0  0  0  0  0  0
   -7.0180    4.0884   -2.6093 H   0  0  0  0  0  0  0  0  0  0  0  0
   -8.2746    5.3369   -0.1227 H   0  0  0  0  0  0  0  0  0  0  0  0
   -6.5411    5.0131   -0.3632 H   0  0  0  0  0  0  0  0  0  0  0  0
   -9.2562    1.7199   -0.1254 H   0  0  0  0  0  0  0  0  0  0  0  0
   -9.8909    3.3764    0.0190 H   0  0  0  0  0  0  0  0  0  0  0  0
  -10.3424    2.4603   -2.2353 H   0  0  0  0  0  0  0  0  0  0  0  0
   -8.6024    2.1671   -2.4706 H   0  0  0  0  0  0  0  0  0  0  0  0
   -8.0219    3.6322    2.0270 H   0  0  0  0  0  0  0  0  0  0  0  0
   -5.0175    0.2960   -0.6378 H   0  0  0  0  0  0  0  0  0  0  0  0
   -4.8538    0.2892    1.1346 H   0  0  0  0  0  0  0  0  0  0  0  0
   -2.4179    0.0731   -0.0625 H   0  0  0  0  0  0  0  0  0  0  0  0
   -1.9424    3.2642    1.3646 H   0  0  0  0  0  0  0  0  0  0  0  0
    0.1774    4.5131    1.3761 H   0  0  0  0  0  0  0  0  0  0  0  0
    2.0866    3.7151    0.0440 H   0  0  0  0  0  0  0  0  0  0  0  0
   -0.2400    0.4092   -1.3252 H   0  0  0  0  0  0  0  0  0  0  0  0
  1  2  1  0  0  0  0
  1 26  1  0  0  0  0
  1 27  1  0  0  0  0
  1 28  1  0  0  0  0
  2  3  1  0  0  0  0
  2 29  1  0  0  0  0
  2 30  1  0  0  0  0
  3  8  1  0  0  0  0
  3  4  1  0  0  0  0
  3 31  1  0  0  0  0
  4  5  1  0  0  0  0
  4 32  1  0  0  0  0
  4 33  1  0  0  0  0
  5  6  1  0  0  0  0
  5 34  1  0  0  0  0
  5 35  1  0  0  0  0
  6 14  1  0  0  0  0
  6  7  1  0  0  0  0
  6  9  1  0  0  0  0
  7  8  1  0  0  0  0
  7 36  1  0  0  0  0
  7 37  1  0  0  0  0
  8 38  1  0  0  0  0
  8 39  1  0  0  0  0
  9 10  2  0  0  0  0
  9 11  1  0  0  0  0
 11 12  1  0  0  0  0
 11 15  1  0  0  0  0
 12 13  2  0  0  0  0
 12 14  1  0  0  0  0
 14 40  1  0  0  0  0
 15 16  1  0  0  0  0
 15 41  1  0  0  0  0
 15 42  1  0  0  0  0
 16 17  2  0  0  0  0
 16 18  1  0  0  0  0
 18 19  1  0  0  0  0
 18 43  1  0  0  0  0
 19 24  2  0  0  0  0
 19 20  1  0  0  0  0
 20 21  2  0  0  0  0
 20 44  1  0  0  0  0
 21 22  1  0  0  0  0
 21 45  1  0  0  0  0
 22 23  2  0  0  0  0
 22 46  1  0  0  0  0
 23 24  1  0  0  0  0
 23 25  1  0  0  0  0
 24 47  1  0  0  0  0
M  END
$$$$
ZINC03365833
  -OEChem-08230709453D

 47 49  0     0  0  0  0  0  0999 V2000
  -10.8423    0.3233    1.4329 C   0  0  0  0  0  0  0  0  0  0  0  0
   -9.4236   -0.1197    1.1837 C   0  0  0  0  0  0  0  0  0  0  0  0
   -9.1163   -1.4926    1.0679 C   0  0  0  0  0  0  0  0  0  0  0  0
   -9.9874   -2.3403    1.1675 O   0  0  0  0  0  0  0  0  0  0  0  0
   -7.8286   -1.8420    0.8438 N   0  0  0  0  0  0  0  0  0  0  0  0
   -6.8943   -0.8547    0.7411 C   0  0  0  0  0  0  0  0  0  0  0  0
   -7.2451    0.4147    0.8645 N   0  0  0  0  0  0  0  0  0  0  0  0
   -8.4630    0.7677    1.0720 N   0  0  0  0  0  0  0  0  0  0  0  0
   -5.2075   -1.2725    0.4495 S   0  0  0  0  0  0  0  0  0  0  0  0
   -4.4758    0.3826    0.4118 C   0  0  0  0  0  0  0  0  0  0  0  0
   -2.9929    0.2708    0.1678 C   0  0  0  0  0  0  0  0  0  0  0  0
   -2.4801   -0.8227    0.0324 O   0  0  0  0  0  0  0  0  0  0  0  0
   -2.2049    1.4282    0.0969 C   0  0  0  0  0  0  0  0  0  0  0  0
   -0.8580    1.3253   -0.0167 C   0  0  0  0  0  0  0  0  0  0  0  0
   -0.0548    0.0442   -0.0916 C   0  0  0  0  0  0  0  0  0  0  0  0
    1.3769    0.5122   -0.2158 C   0  0  0  0  0  0  0  0  0  0  0  0
    2.5728   -0.1624   -0.3236 C   0  0  0  0  0  0  0  0  0  0  0  0
    3.7579    0.5446   -0.4261 C   0  0  0  0  0  0  0  0  0  0  0  0
    3.7369    1.9276   -0.4196 C   0  0  0  0  0  0  0  0  0  0  0  0
    2.5411    2.6061   -0.3114 C   0  0  0  0  0  0  0  0  0  0  0  0
    1.3427    1.9008   -0.2081 C   0  0  0  0  0  0  0  0  0  0  0  0
    0.0295    2.3533   -0.0912 N   0  0  0  0  0  0  0  0  0  0  0  0
   -0.3497    3.7678   -0.0530 C   0  0  0  0  0  0  0  0  0  0  0  0
   -0.2403   -0.7797    1.1842 C   0  0  0  0  0  0  0  0  0  0  0  0
   -0.4604   -0.7712   -1.3211 C   0  0  0  0  0  0  0  0  0  0  0  0
   -7.4727   -3.1552    0.7225 N   0  0  0  0  0  0  0  0  0  0  0  0
  -11.0216    0.3810    2.5065 H   0  0  0  0  0  0  0  0  0  0  0  0
  -11.0007    1.3042    0.9848 H   0  0  0  0  0  0  0  0  0  0  0  0
  -11.5307   -0.3950    0.9876 H   0  0  0  0  0  0  0  0  0  0  0  0
   -4.6361    0.8379    1.2876 H   0  0  0  0  0  0  0  0  0  0  0  0
   -4.9330    0.9638   -0.3890 H   0  0  0  0  0  0  0  0  0  0  0  0
   -2.6710    2.4018    0.1329 H   0  0  0  0  0  0  0  0  0  0  0  0
    2.5856   -1.2424   -0.3287 H   0  0  0  0  0  0  0  0  0  0  0  0
    4.6969    0.0179   -0.5108 H   0  0  0  0  0  0  0  0  0  0  0  0
    4.6620    2.4791   -0.5000 H   0  0  0  0  0  0  0  0  0  0  0  0
    2.5328    3.6861   -0.3070 H   0  0  0  0  0  0  0  0  0  0  0  0
   -0.3538    4.1152    0.9801 H   0  0  0  0  0  0  0  0  0  0  0  0
    0.3674    4.3519   -0.6299 H   0  0  0  0  0  0  0  0  0  0  0  0
   -1.3448    3.8889   -0.4810 H   0  0  0  0  0  0  0  0  0  0  0  0
   -1.2973   -0.8062    1.4491 H   0  0  0  0  0  0  0  0  0  0  0  0
    0.1177   -1.7954    1.0161 H   0  0  0  0  0  0  0  0  0  0  0  0
    0.3265   -0.3245    1.9963 H   0  0  0  0  0  0  0  0  0  0  0  0
    0.0705   -0.3971   -2.1964 H   0  0  0  0  0  0  0  0  0  0  0  0
   -0.2060   -1.8191   -1.1622 H   0  0  0  0  0  0  0  0  0  0  0  0
   -1.5347   -0.6782   -1.4805 H   0  0  0  0  0  0  0  0  0  0  0  0
   -8.2755   -3.7582    0.8226 H   0  0  0  0  0  0  0  0  0  0  0  0
   -7.0016   -3.3228   -0.1539 H   0  0  0  0  0  0  0  0  0  0  0  0
  1  2  1  0  0  0  0
  1 27  1  0  0  0  0
  1 28  1  0  0  0  0
  1 29  1  0  0  0  0
  2  8  2  0  0  0  0
  2  3  1  0  0  0  0
  3  4  2  0  0  0  0
  3  5  1  0  0  0  0
  5  6  1  0  0  0  0
  5 26  1  0  0  0  0
  6  7  2  0  0  0  0
  6  9  1  0  0  0  0
  7  8  1  0  0  0  0
  9 10  1  0  0  0  0
 10 11  1  0  0  0  0
 10 30  1  0  0  0  0
 10 31  1  0  0  0  0
 11 12  2  0  0  0  0
 11 13  1  0  0  0  0
 13 14  2  0  0  0  0
 13 32  1  0  0  0  0
 14 22  1  0  0  0  0
 14 15  1  0  0  0  0
 15 16  1  0  0  0  0
 15 24  1  0  0  0  0
 15 25  1  0  0  0  0
 16 21  2  0  0  0  0
 16 17  1  0  0  0  0
 17 18  2  0  0  0  0
 17 33  1  0  0  0  0
 18 19  1  0  0  0  0
 18 34  1  0  0  0  0
 19 20  2  0  0  0  0
 19 35  1  0  0  0  0
 20 21  1  0  0  0  0
 20 36  1  0  0  0  0
 21 22  1  0  0  0  0
 22 23  1  0  0  0  0
 23 37  1  0  0  0  0
 23 38  1  0  0  0  0
 23 39  1  0  0  0  0
 24 40  1  0  0  0  0
 24 41  1  0  0  0  0
 24 42  1  0  0  0  0
 25 43  1  0  0  0  0
 25 44  1  0  0  0  0
 25 45  1  0  0  0  0
 26 46  1  0  0  0  0
 26 47  1  0  0  0  0
M  END
$$$$
ZINC03371688
  -OEChem-08230709453D

 42 43  0     0  0  0  0  0  0999 V2000
    0.1152    1.4661    0.1567 C   0  0  0  0  0  0  0  0  0  0  0  0
    0.0965   -0.0621    0.0858 C   0  0  0  0  0  0  0  0  0  0  0  0
    0.7796   -0.6386    1.3276 C   0  0  0  0  0  0  0  0  0  0  0  0
    0.8430   -0.5237   -1.1674 C   0  0  0  0  0  0  0  0  0  0  0  0
    0.7234   -1.9779   -1.2992 N   0  0  0  0  0  0  0  0  0  0  0  0
    1.6621   -2.7894   -0.7232 C   0  0  0  0  0  0  0  0  0  0  0  0
    1.5321   -4.1775   -0.8532 C   0  0  0  0  0  0  0  0  0  0  0  0
    0.4300   -4.6885   -1.5920 C   0  0  0  0  0  0  0  0  0  0  0  0
    0.2863   -5.8895   -1.7316 O   0  0  0  0  0  0  0  0  0  0  0  0
   -0.4534   -3.8286   -2.1363 N   0  0  0  0  0  0  0  0  0  0  0  0
   -0.3046   -2.5011   -1.9895 C   0  0  0  0  0  0  0  0  0  0  0  0
   -1.1201   -1.7543   -2.4943 O   0  0  0  0  0  0  0  0  0  0  0  0
   -1.5914   -4.3481   -2.8988 C   0  0  0  0  0  0  0  0  0  0  0  0
    2.5111   -5.0809   -0.2481 C   0  0  0  0  0  0  0  0  0  0  0  0
    3.7492   -5.7694   -1.2094 S   0  0  0  0  0  0  0  0  0  0  0  0
    2.4382   -5.3711    1.0660 N   0  0  0  0  0  0  0  0  0  0  0  0
    3.3997   -6.1168    1.6458 C   0  0  0  0  0  0  0  0  0  0  0  0
    4.3334   -6.5280    0.9828 O   0  0  0  0  0  0  0  0  0  0  0  0
    3.3204   -6.4324    3.0748 C   0  0  0  0  0  0  0  0  0  0  0  0
    4.2220   -7.1739    3.7844 C   0  0  0  0  0  0  0  0  0  0  0  0
    3.7540   -7.2206    5.1066 C   0  0  0  0  0  0  0  0  0  0  0  0
    2.6021   -6.5148    5.1462 C   0  0  0  0  0  0  0  0  0  0  0  0
    2.3473   -6.0365    3.9214 O   0  0  0  0  0  0  0  0  0  0  0  0
    2.7059   -2.2547   -0.0288 N   0  0  0  0  0  0  0  0  0  0  0  0
    1.1469    1.8153    0.1990 H   0  0  0  0  0  0  0  0  0  0  0  0
   -0.3714    1.8768   -0.7280 H   0  0  0  0  0  0  0  0  0  0  0  0
   -0.4166    1.7950    1.0495 H   0  0  0  0  0  0  0  0  0  0  0  0
   -0.9351   -0.4113    0.0435 H   0  0  0  0  0  0  0  0  0  0  0  0
    0.7663   -1.7274    1.2771 H   0  0  0  0  0  0  0  0  0  0  0  0
    1.8113   -0.2895    1.3699 H   0  0  0  0  0  0  0  0  0  0  0  0
    0.2478   -0.3098    2.2205 H   0  0  0  0  0  0  0  0  0  0  0  0
    0.4115   -0.0426   -2.0452 H   0  0  0  0  0  0  0  0  0  0  0  0
    1.8953   -0.2517   -1.0844 H   0  0  0  0  0  0  0  0  0  0  0  0
   -1.3119   -4.4448   -3.9480 H   0  0  0  0  0  0  0  0  0  0  0  0
   -1.8758   -5.3247   -2.5071 H   0  0  0  0  0  0  0  0  0  0  0  0
   -2.4330   -3.6613   -2.8088 H   0  0  0  0  0  0  0  0  0  0  0  0
    1.6938   -5.0434    1.5945 H   0  0  0  0  0  0  0  0  0  0  0  0
    5.1205   -7.6351    3.4019 H   0  0  0  0  0  0  0  0  0  0  0  0
    4.2257   -7.7257    5.9365 H   0  0  0  0  0  0  0  0  0  0  0  0
    1.9905   -6.3579    6.0224 H   0  0  0  0  0  0  0  0  0  0  0  0
    2.7491   -1.2973    0.1208 H   0  0  0  0  0  0  0  0  0  0  0  0
    3.4055   -2.8316    0.3157 H   0  0  0  0  0  0  0  0  0  0  0  0
  1  2  1  0  0  0  0
  1 25  1  0  0  0  0
  1 26  1  0  0  0  0
  1 27  1  0  0  0  0
  2  3  1  0  0  0  0
  2  4  1  0  0  0  0
  2 28  1  0  0  0  0
  3 29  1  0  0  0  0
  3 30  1  0  0  0  0
  3 31  1  0  0  0  0
  4  5  1  0  0  0  0
  4 32  1  0  0  0  0
  4 33  1  0  0  0  0
  5 11  1  0  0  0  0
  5  6  1  0  0  0  0
  6  7  2  0  0  0  0
  6 24  1  0  0  0  0
  7  8  1  0  0  0  0
  7 14  1  0  0  0  0
  8  9  2  0  0  0  0
  8 10  1  0  0  0  0
 10 11  1  0  0  0  0
 10 13  1  0  0  0  0
 11 12  2  0  0  0  0
 13 34  1  0  0  0  0
 13 35  1  0  0  0  0
 13 36  1  0  0  0  0
 14 15  2  0  0  0  0
 14 16  1  0  0  0  0
 16 17  1  0  0  0  0
 16 37  1  0  0  0  0
 17 18  2  0  0  0  0
 17 19  1  0  0  0  0
 19 23  1  0  0  0  0
 19 20  2  0  0  0  0
 20 21  1  0  0  0  0
 20 38  1  0  0  0  0
 21 22  2  0  0  0  0
 21 39  1  0  0  0  0
 22 23  1  0  0  0  0
 22 40  1  0  0  0  0
 24 41  1  0  0  0  0
 24 42  1  0  0  0  0
M  END
$$$$
ZINC03373956
  -OEChem-08230709453D

 41 43  0     0  0  0  0  0  0999 V2000
    2.4235   -4.1421   -0.1441 C   0  0  0  0  0  0  0  0  0  0  0  0
    2.5148   -2.7539    0.4926 C   0  0  0  0  0  0  0  0  0  0  0  0
    1.2258   -2.1371    0.4774 O   0  0  0  0  0  0  0  0  0  0  0  0
    1.1324   -0.8947    1.0080 C   0  0  0  0  0  0  0  0  0  0  0  0
   -0.1056   -0.2343    1.0236 C   0  0  0  0  0  0  0  0  0  0  0  0
   -0.1784    1.0490    1.5770 C   0  0  0  0  0  0  0  0  0  0  0  0
    0.9788    1.6116    2.0862 C   0  0  0  0  0  0  0  0  0  0  0  0
    2.1623    0.8976    2.0342 C   0  0  0  0  0  0  0  0  0  0  0  0
    2.2082   -0.3111    1.5079 N   0  0  0  0  0  0  0  0  0  0  0  0
   -1.3089   -0.8814    0.4670 C   0  0  0  0  0  0  0  0  0  0  0  0
   -1.2333   -1.9967   -0.0112 O   0  0  0  0  0  0  0  0  0  0  0  0
   -2.4920   -0.2362    0.4886 N   0  0  0  0  0  0  0  0  0  0  0  0
   -3.6347   -0.8508   -0.0400 N   0  0  0  0  0  0  0  0  0  0  0  0
   -4.8490   -0.1886   -0.0178 C   0  0  0  0  0  0  0  0  0  0  0  0
   -6.0681   -0.9179   -0.0878 C   0  0  0  0  0  0  0  0  0  0  0  0
   -6.2899   -2.3507   -0.1740 C   0  0  0  0  0  0  0  0  0  0  0  0
   -7.5465   -2.8171   -0.2224 C   0  0  0  0  0  0  0  0  0  0  0  0
   -8.5422   -1.3401   -0.1463 S   0  0  0  0  0  0  0  0  0  0  0  0
   -7.2435   -0.1364   -0.0517 C   0  0  0  0  0  0  0  0  0  0  0  0
   -7.1926    1.1786    0.0306 N   0  0  0  0  0  0  0  0  0  0  0  0
   -6.0304    1.7991    0.0870 C   0  0  0  0  0  0  0  0  0  0  0  0
   -4.8907    1.1313    0.0633 N   0  0  0  0  0  0  0  0  0  0  0  0
   -8.0071   -4.2488   -0.3181 C   0  0  0  0  0  0  0  0  0  0  0  0
   -5.1217   -3.3018   -0.2148 C   0  0  0  0  0  0  0  0  0  0  0  0
    1.7207   -4.7551    0.4201 H   0  0  0  0  0  0  0  0  0  0  0  0
    2.0781   -4.0476   -1.1736 H   0  0  0  0  0  0  0  0  0  0  0  0
    3.4067   -4.6125   -0.1325 H   0  0  0  0  0  0  0  0  0  0  0  0
    3.2176   -2.1408   -0.0716 H   0  0  0  0  0  0  0  0  0  0  0  0
    2.8602   -2.8483    1.5221 H   0  0  0  0  0  0  0  0  0  0  0  0
   -1.1135    1.5888    1.6019 H   0  0  0  0  0  0  0  0  0  0  0  0
    0.9581    2.6002    2.5205 H   0  0  0  0  0  0  0  0  0  0  0  0
    3.0650    1.3376    2.4315 H   0  0  0  0  0  0  0  0  0  0  0  0
   -2.5523    0.6535    0.8701 H   0  0  0  0  0  0  0  0  0  0  0  0
   -3.5744   -1.7405   -0.4215 H   0  0  0  0  0  0  0  0  0  0  0  0
   -6.0097    2.8768    0.1545 H   0  0  0  0  0  0  0  0  0  0  0  0
   -9.0965   -4.2795   -0.3373 H   0  0  0  0  0  0  0  0  0  0  0  0
   -7.6149   -4.6964   -1.2313 H   0  0  0  0  0  0  0  0  0  0  0  0
   -7.6431   -4.8061    0.5450 H   0  0  0  0  0  0  0  0  0  0  0  0
   -4.7509   -3.3783   -1.2370 H   0  0  0  0  0  0  0  0  0  0  0  0
   -4.3277   -2.9300    0.4328 H   0  0  0  0  0  0  0  0  0  0  0  0
   -5.4414   -4.2851    0.1302 H   0  0  0  0  0  0  0  0  0  0  0  0
  1  2  1  0  0  0  0
  1 25  1  0  0  0  0
  1 26  1  0  0  0  0
  1 27  1  0  0  0  0
  2  3  1  0  0  0  0
  2 28  1  0  0  0  0
  2 29  1  0  0  0  0
  3  4  1  0  0  0  0
  4  9  2  0  0  0  0
  4  5  1  0  0  0  0
  5  6  2  0  0  0  0
  5 10  1  0  0  0  0
  6  7  1  0  0  0  0
  6 30  1  0  0  0  0
  7  8  2  0  0  0  0
  7 31  1  0  0  0  0
  8  9  1  0  0  0  0
  8 32  1  0  0  0  0
 10 11  2  0  0  0  0
 10 12  1  0  0  0  0
 12 13  1  0  0  0  0
 12 33  1  0  0  0  0
 13 14  1  0  0  0  0
 13 34  1  0  0  0  0
 14 22  2  0  0  0  0
 14 15  1  0  0  0  0
 15 19  2  0  0  0  0
 15 16  1  0  0  0  0
 16 17  2  0  0  0  0
 16 24  1  0  0  0  0
 17 18  1  0  0  0  0
 17 23  1  0  0  0  0
 18 19  1  0  0  0  0
 19 20  1  0  0  0  0
 20 21  2  0  0  0  0
 21 22  1  0  0  0  0
 21 35  1  0  0  0  0
 23 36  1  0  0  0  0
 23 37  1  0  0  0  0
 23 38  1  0  0  0  0
 24 39  1  0  0  0  0
 24 40  1  0  0  0  0
 24 41  1  0  0  0  0
M  END
$$$$
ZINC03378047
  -OEChem-08230709453D

 41 43  0     0  0  0  0  0  0999 V2000
  -11.0531    1.0412   -7.8926 C   0  0  0  0  0  0  0  0  0  0  0  0
   -9.9854    1.2876   -6.8247 C   0  0  0  0  0  0  0  0  0  0  0  0
  -10.5669    1.1429   -5.5274 O   0  0  0  0  0  0  0  0  0  0  0  0
   -9.7473    1.3306   -4.4593 C   0  0  0  0  0  0  0  0  0  0  0  0
   -8.4117    1.6475   -4.6590 C   0  0  0  0  0  0  0  0  0  0  0  0
   -7.5760    1.8381   -3.5784 C   0  0  0  0  0  0  0  0  0  0  0  0
   -8.0737    1.7127   -2.2804 C   0  0  0  0  0  0  0  0  0  0  0  0
   -9.4164    1.3886   -2.0792 C   0  0  0  0  0  0  0  0  0  0  0  0
  -10.2503    1.2040   -3.1665 C   0  0  0  0  0  0  0  0  0  0  0  0
  -11.5602    0.8933   -2.9739 O   0  0  0  0  0  0  0  0  0  0  0  0
  -12.0079    0.7794   -1.6216 C   0  0  0  0  0  0  0  0  0  0  0  0
   -7.1793    1.9167   -1.1213 C   0  0  0  0  0  0  0  0  0  0  0  0
   -5.8902    2.2259   -1.0973 N   0  0  0  0  0  0  0  0  0  0  0  0
   -5.2443    2.3658    0.0371 C   0  0  0  0  0  0  0  0  0  0  0  0
   -5.9016    2.2030    1.2154 C   0  0  0  0  0  0  0  0  0  0  0  0
   -7.5458    1.8188    0.6260 S   0  0  0  0  0  0  0  0  0  0  0  0
   -3.7777    2.7124    0.0326 C   0  0  0  0  0  0  0  0  0  0  0  0
   -2.7959    1.1871    0.0204 S   0  0  0  0  0  0  0  0  0  0  0  0
   -1.1276    1.7541    0.0163 C   0  0  0  0  0  0  0  0  0  0  0  0
   -0.0111    0.9658    0.0074 N   0  0  0  0  0  0  0  0  0  0  0  0
    0.0021   -0.0041    0.0020 H   0  0  0  0  0  0  0  0  0  0  0  0
    1.0831    1.7837    0.0013 C   0  0  0  0  0  0  0  0  0  0  0  0
    0.6618    3.0244    0.0112 N   0  0  0  0  0  0  0  0  0  0  0  0
   -0.7391    3.0060    0.0239 N   0  0  0  0  0  0  0  0  0  0  0  0
    2.4096    1.3723   -0.0122 N   0  0  0  0  0  0  0  0  0  0  0  0
  -11.4505    0.0321   -7.7830 H   0  0  0  0  0  0  0  0  0  0  0  0
  -11.8599    1.7643   -7.7733 H   0  0  0  0  0  0  0  0  0  0  0  0
  -10.6096    1.1516   -8.8821 H   0  0  0  0  0  0  0  0  0  0  0  0
   -9.5881    2.2967   -6.9343 H   0  0  0  0  0  0  0  0  0  0  0  0
   -9.1786    0.5645   -6.9440 H   0  0  0  0  0  0  0  0  0  0  0  0
   -8.0253    1.7448   -5.6628 H   0  0  0  0  0  0  0  0  0  0  0  0
   -6.5363    2.0840   -3.7366 H   0  0  0  0  0  0  0  0  0  0  0  0
   -9.8039    1.2860   -1.0764 H   0  0  0  0  0  0  0  0  0  0  0  0
  -11.4436   -0.0048   -1.1169 H   0  0  0  0  0  0  0  0  0  0  0  0
  -11.8530    1.7274   -1.1066 H   0  0  0  0  0  0  0  0  0  0  0  0
  -13.0686    0.5286   -1.6100 H   0  0  0  0  0  0  0  0  0  0  0  0
   -5.5332    2.2839    2.2274 H   0  0  0  0  0  0  0  0  0  0  0  0
   -3.5385    3.2914    0.9246 H   0  0  0  0  0  0  0  0  0  0  0  0
   -3.5461    3.3007   -0.8553 H   0  0  0  0  0  0  0  0  0  0  0  0
    2.6240    0.4263   -0.0182 H   0  0  0  0  0  0  0  0  0  0  0  0
    3.1217    2.0310   -0.0156 H   0  0  0  0  0  0  0  0  0  0  0  0
  1  2  1  0  0  0  0
  1 26  1  0  0  0  0
  1 27  1  0  0  0  0
  1 28  1  0  0  0  0
  2  3  1  0  0  0  0
  2 29  1  0  0  0  0
  2 30  1  0  0  0  0
  3  4  1  0  0  0  0
  4  9  2  0  0  0  0
  4  5  1  0  0  0  0
  5  6  2  0  0  0  0
  5 31  1  0  0  0  0
  6  7  1  0  0  0  0
  6 32  1  0  0  0  0
  7  8  2  0  0  0  0
  7 12  1  0  0  0  0
  8  9  1  0  0  0  0
  8 33  1  0  0  0  0
  9 10  1  0  0  0  0
 10 11  1  0  0  0  0
 11 34  1  0  0  0  0
 11 35  1  0  0  0  0
 11 36  1  0  0  0  0
 12 16  1  0  0  0  0
 12 13  2  0  0  0  0
 13 14  1  0  0  0  0
 14 15  2  0  0  0  0
 14 17  1  0  0  0  0
 15 16  1  0  0  0  0
 15 37  1  0  0  0  0
 17 18  1  0  0  0  0
 17 38  1  0  0  0  0
 17 39  1  0  0  0  0
 18 19  1  0  0  0  0
 19 24  2  0  0  0  0
 19 20  1  0  0  0  0
 20 21  1  0  0  0  0
 20 22  1  0  0  0  0
 22 23  2  0  0  0  0
 22 25  1  0  0  0  0
 23 24  1  0  0  0  0
 25 40  1  0  0  0  0
 25 41  1  0  0  0  0
M  END
$$$$
ZINC03384168
  -OEChem-08230709453D

 42 44  0     0  0  0  0  0  0999 V2000
   -1.6514    9.4361    4.6547 C   0  0  0  0  0  0  0  0  0  0  0  0
   -1.5824   10.4024    3.5004 C   0  0  0  0  0  0  0  0  0  0  0  0
   -2.3441   11.5546    3.5167 C   0  0  0  0  0  0  0  0  0  0  0  0
   -2.2809   12.4420    2.4583 C   0  0  0  0  0  0  0  0  0  0  0  0
   -1.4554   12.1794    1.3801 C   0  0  0  0  0  0  0  0  0  0  0  0
   -0.6871   11.0322    1.3601 C   0  0  0  0  0  0  0  0  0  0  0  0
   -0.7525   10.1358    2.4193 C   0  0  0  0  0  0  0  0  0  0  0  0
    0.0199    8.9703    2.3996 N   0  0  0  0  0  0  0  0  0  0  0  0
    0.4333    8.4359    1.1947 C   0  0  0  0  0  0  0  0  0  0  0  0
    1.2641    7.3959    1.1768 N   0  0  0  0  0  0  0  0  0  0  0  0
    1.6597    6.8839    0.0248 C   0  0  0  0  0  0  0  0  0  0  0  0
    1.2370    7.4049   -1.1139 N   0  0  0  0  0  0  0  0  0  0  0  0
    0.4019    8.4413   -1.1042 C   0  0  0  0  0  0  0  0  0  0  0  0
    0.0019    8.9589    0.0523 N   0  0  0  0  0  0  0  0  0  0  0  0
   -0.0434    8.9810   -2.2936 N   0  0  0  0  0  0  0  0  0  0  0  0
    2.6003    5.7065    0.0092 C   0  0  0  0  0  0  0  0  0  0  0  0
    1.8329    4.4739    0.0168 O   0  0  0  0  0  0  0  0  0  0  0  0
    2.5295    3.3188    0.0045 C   0  0  0  0  0  0  0  0  0  0  0  0
    3.7455    3.3420   -0.0120 O   0  0  0  0  0  0  0  0  0  0  0  0
    1.8220    2.0372    0.0112 C   0  0  0  0  0  0  0  0  0  0  0  0
    2.3420    0.7513    0.0015 C   0  0  0  0  0  0  0  0  0  0  0  0
    1.4437   -0.2858    0.0112 C   0  0  0  0  0  0  0  0  0  0  0  0
    0.1126   -0.0109    0.0295 C   0  0  0  0  0  0  0  0  0  0  0  0
    0.0661    1.7221    0.0338 S   0  0  0  0  0  0  0  0  0  0  0  0
    3.8284    0.5041   -0.0192 C   0  0  0  0  0  0  0  0  0  0  0  0
   -0.9009    9.7041    5.3983 H   0  0  0  0  0  0  0  0  0  0  0  0
   -2.6424    9.4800    5.1065 H   0  0  0  0  0  0  0  0  0  0  0  0
   -1.4609    8.4252    4.2942 H   0  0  0  0  0  0  0  0  0  0  0  0
   -2.9894   11.7627    4.3574 H   0  0  0  0  0  0  0  0  0  0  0  0
   -2.8772   13.3423    2.4737 H   0  0  0  0  0  0  0  0  0  0  0  0
   -1.4084   12.8745    0.5549 H   0  0  0  0  0  0  0  0  0  0  0  0
   -0.0390   10.8301    0.5201 H   0  0  0  0  0  0  0  0  0  0  0  0
    0.2654    8.5370    3.2320 H   0  0  0  0  0  0  0  0  0  0  0  0
   -0.6488    9.7388   -2.2858 H   0  0  0  0  0  0  0  0  0  0  0  0
    0.2491    8.6026   -3.1375 H   0  0  0  0  0  0  0  0  0  0  0  0
    3.2406    5.7413    0.8906 H   0  0  0  0  0  0  0  0  0  0  0  0
    3.2163    5.7455   -0.8892 H   0  0  0  0  0  0  0  0  0  0  0  0
    1.7902   -1.3087    0.0041 H   0  0  0  0  0  0  0  0  0  0  0  0
   -0.7154   -0.7042    0.0393 H   0  0  0  0  0  0  0  0  0  0  0  0
    4.1728    0.4465   -1.0518 H   0  0  0  0  0  0  0  0  0  0  0  0
    4.3398    1.3214    0.4893 H   0  0  0  0  0  0  0  0  0  0  0  0
    4.0478   -0.4344    0.4898 H   0  0  0  0  0  0  0  0  0  0  0  0
  1  2  1  0  0  0  0
  1 26  1  0  0  0  0
  1 27  1  0  0  0  0
  1 28  1  0  0  0  0
  2  7  2  0  0  0  0
  2  3  1  0  0  0  0
  3  4  2  0  0  0  0
  3 29  1  0  0  0  0
  4  5  1  0  0  0  0
  4 30  1  0  0  0  0
  5  6  2  0  0  0  0
  5 31  1  0  0  0  0
  6  7  1  0  0  0  0
  6 32  1  0  0  0  0
  7  8  1  0  0  0  0
  8  9  1  0  0  0  0
  8 33  1  0  0  0  0
  9 14  2  0  0  0  0
  9 10  1  0  0  0  0
 10 11  2  0  0  0  0
 11 12  1  0  0  0  0
 11 16  1  0  0  0  0
 12 13  2  0  0  0  0
 13 14  1  0  0  0  0
 13 15  1  0  0  0  0
 15 34  1  0  0  0  0
 15 35  1  0  0  0  0
 16 17  1  0  0  0  0
 16 36  1  0  0  0  0
 16 37  1  0  0  0  0
 17 18  1  0  0  0  0
 18 19  2  0  0  0  0
 18 20  1  0  0  0  0
 20 24  1  0  0  0  0
 20 21  2  0  0  0  0
 21 22  1  0  0  0  0
 21 25  1  0  0  0  0
 22 23  2  0  0  0  0
 22 38  1  0  0  0  0
 23 24  1  0  0  0  0
 23 39  1  0  0  0  0
 25 40  1  0  0  0  0
 25 41  1  0  0  0  0
 25 42  1  0  0  0  0
M  END
$$$$
ZINC03384605
  -OEChem-08230709453D

 42 44  0     0  0  0  0  0  0999 V2000
   -0.9922    1.9402   -0.9759 C   0  0  0  0  0  0  0  0  0  0  0  0
    0.1340    1.2789   -0.2240 C   0  0  0  0  0  0  0  0  0  0  0  0
    1.3111    1.9653    0.0023 C   0  0  0  0  0  0  0  0  0  0  0  0
    2.3470    1.3573    0.6871 C   0  0  0  0  0  0  0  0  0  0  0  0
    2.2086    0.0605    1.1476 C   0  0  0  0  0  0  0  0  0  0  0  0
    1.0345   -0.6312    0.9247 C   0  0  0  0  0  0  0  0  0  0  0  0
   -0.0082   -0.0233    0.2370 C   0  0  0  0  0  0  0  0  0  0  0  0
   -1.1984   -0.7212    0.0092 N   0  0  0  0  0  0  0  0  0  0  0  0
   -1.1812   -2.0979   -0.1027 C   0  0  0  0  0  0  0  0  0  0  0  0
   -2.3246   -2.7733   -0.1962 N   0  0  0  0  0  0  0  0  0  0  0  0
   -2.3091   -4.0902   -0.3031 C   0  0  0  0  0  0  0  0  0  0  0  0
   -1.1595   -4.7421   -0.3177 N   0  0  0  0  0  0  0  0  0  0  0  0
   -0.0122   -4.0738   -0.2247 C   0  0  0  0  0  0  0  0  0  0  0  0
   -0.0235   -2.7491   -0.1225 N   0  0  0  0  0  0  0  0  0  0  0  0
    1.1876   -4.7554   -0.2396 N   0  0  0  0  0  0  0  0  0  0  0  0
   -3.6058   -4.8509   -0.4082 C   0  0  0  0  0  0  0  0  0  0  0  0
   -3.9770   -4.9839   -1.8056 O   0  0  0  0  0  0  0  0  0  0  0  0
   -5.1219   -5.6445   -2.0750 C   0  0  0  0  0  0  0  0  0  0  0  0
   -5.7913   -6.0969   -1.1658 O   0  0  0  0  0  0  0  0  0  0  0  0
   -5.5586   -5.8170   -3.4615 C   0  0  0  0  0  0  0  0  0  0  0  0
   -6.6893   -6.4557   -3.9491 C   0  0  0  0  0  0  0  0  0  0  0  0
   -6.8596   -6.4716   -5.3105 C   0  0  0  0  0  0  0  0  0  0  0  0
   -5.9313   -5.8728   -6.1026 C   0  0  0  0  0  0  0  0  0  0  0  0
   -4.7795   -5.2536   -4.9644 S   0  0  0  0  0  0  0  0  0  0  0  0
   -5.9112   -5.7676   -7.6057 C   0  0  0  0  0  0  0  0  0  0  0  0
   -1.6461    2.4549   -0.2719 H   0  0  0  0  0  0  0  0  0  0  0  0
   -0.5826    2.6603   -1.6844 H   0  0  0  0  0  0  0  0  0  0  0  0
   -1.5624    1.1839   -1.5152 H   0  0  0  0  0  0  0  0  0  0  0  0
    1.4226    2.9780   -0.3563 H   0  0  0  0  0  0  0  0  0  0  0  0
    3.2664    1.8962    0.8627 H   0  0  0  0  0  0  0  0  0  0  0  0
    3.0198   -0.4117    1.6818 H   0  0  0  0  0  0  0  0  0  0  0  0
    0.9268   -1.6437    1.2848 H   0  0  0  0  0  0  0  0  0  0  0  0
   -2.0360   -0.2385   -0.0704 H   0  0  0  0  0  0  0  0  0  0  0  0
    1.1952   -5.7222   -0.3179 H   0  0  0  0  0  0  0  0  0  0  0  0
    2.0233   -4.2678   -0.1717 H   0  0  0  0  0  0  0  0  0  0  0  0
   -3.4829   -5.8409    0.0309 H   0  0  0  0  0  0  0  0  0  0  0  0
   -4.3879   -4.3112    0.1257 H   0  0  0  0  0  0  0  0  0  0  0  0
   -7.4041   -6.9205   -3.2862 H   0  0  0  0  0  0  0  0  0  0  0  0
   -7.7210   -6.9545   -5.7476 H   0  0  0  0  0  0  0  0  0  0  0  0
   -6.4292   -4.8593   -7.9134 H   0  0  0  0  0  0  0  0  0  0  0  0
   -4.8789   -5.7327   -7.9538 H   0  0  0  0  0  0  0  0  0  0  0  0
   -6.4110   -6.6348   -8.0373 H   0  0  0  0  0  0  0  0  0  0  0  0
  1  2  1  0  0  0  0
  1 26  1  0  0  0  0
  1 27  1  0  0  0  0
  1 28  1  0  0  0  0
  2  7  2  0  0  0  0
  2  3  1  0  0  0  0
  3  4  2  0  0  0  0
  3 29  1  0  0  0  0
  4  5  1  0  0  0  0
  4 30  1  0  0  0  0
  5  6  2  0  0  0  0
  5 31  1  0  0  0  0
  6  7  1  0  0  0  0
  6 32  1  0  0  0  0
  7  8  1  0  0  0  0
  8  9  1  0  0  0  0
  8 33  1  0  0  0  0
  9 14  2  0  0  0  0
  9 10  1  0  0  0  0
 10 11  2  0  0  0  0
 11 12  1  0  0  0  0
 11 16  1  0  0  0  0
 12 13  2  0  0  0  0
 13 14  1  0  0  0  0
 13 15  1  0  0  0  0
 15 34  1  0  0  0  0
 15 35  1  0  0  0  0
 16 17  1  0  0  0  0
 16 36  1  0  0  0  0
 16 37  1  0  0  0  0
 17 18  1  0  0  0  0
 18 19  2  0  0  0  0
 18 20  1  0  0  0  0
 20 24  1  0  0  0  0
 20 21  2  0  0  0  0
 21 22  1  0  0  0  0
 21 38  1  0  0  0  0
 22 23  2  0  0  0  0
 22 39  1  0  0  0  0
 23 24  1  0  0  0  0
 23 25  1  0  0  0  0
 25 40  1  0  0  0  0
 25 41  1  0  0  0  0
 25 42  1  0  0  0  0
M  END
$$$$
ZINC03387930
  -OEChem-08230709453D

 44 47  0     0  0  0  0  0  0999 V2000
   -3.4434    7.2371    0.3894 C   0  0  0  0  0  0  0  0  0  0  0  0
   -3.5330    5.8610    0.2674 C   0  0  0  0  0  0  0  0  0  0  0  0
   -2.3488    5.1180    0.2576 C   0  0  0  0  0  0  0  0  0  0  0  0
   -1.1312    5.7891    0.3585 C   0  0  0  0  0  0  0  0  0  0  0  0
   -1.0961    7.1011    0.4673 N   0  0  0  0  0  0  0  0  0  0  0  0
   -2.1969    7.8281    0.4849 C   0  0  0  0  0  0  0  0  0  0  0  0
   -2.3872    3.6409    0.1358 C   0  0  0  0  0  0  0  0  0  0  0  0
   -1.2467    2.9578    0.1234 N   0  0  0  0  0  0  0  0  0  0  0  0
   -1.2184    1.6411    0.0167 C   0  0  0  0  0  0  0  0  0  0  0  0
   -2.4446    0.9258   -0.0943 C   0  0  0  0  0  0  0  0  0  0  0  0
   -2.6528   -0.5177   -0.2133 C   0  0  0  0  0  0  0  0  0  0  0  0
   -3.9288   -0.9475   -0.2965 C   0  0  0  0  0  0  0  0  0  0  0  0
   -4.9181    0.5213   -0.2152 S   0  0  0  0  0  0  0  0  0  0  0  0
   -3.6136    1.7143   -0.0685 C   0  0  0  0  0  0  0  0  0  0  0  0
   -3.5591    3.0259    0.0407 N   0  0  0  0  0  0  0  0  0  0  0  0
   -4.4025   -2.3629   -0.4295 C   0  0  0  0  0  0  0  0  0  0  0  0
   -3.2071   -3.2387   -0.8310 C   0  0  0  0  0  0  0  0  0  0  0  0
   -2.0238   -2.9033    0.0815 C   0  0  0  0  0  0  0  0  0  0  0  0
   -1.4923   -1.5084   -0.2496 C   0  0  0  0  0  0  0  0  0  0  0  0
   -0.0111    0.9658    0.0074 N   0  0  0  0  0  0  0  0  0  0  0  0
    1.2374    1.6939    0.2473 C   0  0  0  0  0  0  0  0  0  0  0  0
    2.4165    0.7215    0.1763 C   0  0  0  0  0  0  0  0  0  0  0  0
    3.7204    1.4819    0.4268 C   0  0  0  0  0  0  0  0  0  0  0  0
    4.8217    0.5737    0.3605 O   0  0  0  0  0  0  0  0  0  0  0  0
   -4.3374    7.8430    0.4053 H   0  0  0  0  0  0  0  0  0  0  0  0
   -4.4933    5.3735    0.1863 H   0  0  0  0  0  0  0  0  0  0  0  0
   -0.2084    5.2281    0.3478 H   0  0  0  0  0  0  0  0  0  0  0  0
   -2.1234    8.9018    0.5756 H   0  0  0  0  0  0  0  0  0  0  0  0
   -4.8053   -2.7062    0.5234 H   0  0  0  0  0  0  0  0  0  0  0  0
   -5.1747   -2.4210   -1.1966 H   0  0  0  0  0  0  0  0  0  0  0  0
   -3.4698   -4.2904   -0.7173 H   0  0  0  0  0  0  0  0  0  0  0  0
   -2.9397   -3.0389   -1.8687 H   0  0  0  0  0  0  0  0  0  0  0  0
   -2.3495   -2.9294    1.1213 H   0  0  0  0  0  0  0  0  0  0  0  0
   -1.2320   -3.6374   -0.0675 H   0  0  0  0  0  0  0  0  0  0  0  0
   -0.7420   -1.2192    0.4863 H   0  0  0  0  0  0  0  0  0  0  0  0
   -1.0454   -1.5142   -1.2438 H   0  0  0  0  0  0  0  0  0  0  0  0
    0.0092    0.0109   -0.1620 H   0  0  0  0  0  0  0  0  0  0  0  0
    1.3583    2.4675   -0.5110 H   0  0  0  0  0  0  0  0  0  0  0  0
    1.2053    2.1546    1.2346 H   0  0  0  0  0  0  0  0  0  0  0  0
    2.2956   -0.0521    0.9345 H   0  0  0  0  0  0  0  0  0  0  0  0
    2.4486    0.2608   -0.8110 H   0  0  0  0  0  0  0  0  0  0  0  0
    3.8412    2.2555   -0.3314 H   0  0  0  0  0  0  0  0  0  0  0  0
    3.6883    1.9426    1.4141 H   0  0  0  0  0  0  0  0  0  0  0  0
    5.6826    0.9879    0.5102 H   0  0  0  0  0  0  0  0  0  0  0  0
  1  6  2  0  0  0  0
  1  2  1  0  0  0  0
  1 25  1  0  0  0  0
  2  3  2  0  0  0  0
  2 26  1  0  0  0  0
  3  4  1  0  0  0  0
  3  7  1  0  0  0  0
  4  5  2  0  0  0  0
  4 27  1  0  0  0  0
  5  6  1  0  0  0  0
  6 28  1  0  0  0  0
  7 15  2  0  0  0  0
  7  8  1  0  0  0  0
  8  9  2  0  0  0  0
  9 10  1  0  0  0  0
  9 20  1  0  0  0  0
 10 14  2  0  0  0  0
 10 11  1  0  0  0  0
 11 19  1  0  0  0  0
 11 12  2  0  0  0  0
 12 13  1  0  0  0  0
 12 16  1  0  0  0  0
 13 14  1  0  0  0  0
 14 15  1  0  0  0  0
 16 17  1  0  0  0  0
 16 29  1  0  0  0  0
 16 30  1  0  0  0  0
 17 18  1  0  0  0  0
 17 31  1  0  0  0  0
 17 32  1  0  0  0  0
 18 19  1  0  0  0  0
 18 33  1  0  0  0  0
 18 34  1  0  0  0  0
 19 35  1  0  0  0  0
 19 36  1  0  0  0  0
 20 21  1  0  0  0  0
 20 37  1  0  0  0  0
 21 22  1  0  0  0  0
 21 38  1  0  0  0  0
 21 39  1  0  0  0  0
 22 23  1  0  0  0  0
 22 40  1  0  0  0  0
 22 41  1  0  0  0  0
 23 24  1  0  0  0  0
 23 42  1  0  0  0  0
 23 43  1  0  0  0  0
 24 44  1  0  0  0  0
M  END
$$$$
ZINC03389417
  -OEChem-08230709453D

 43 45  0     0  0  0  0  0  0999 V2000
    9.1046   -3.7597   -0.8618 C   0  0  0  0  0  0  0  0  0  0  0  0
    8.6439   -2.8967   -2.0382 C   0  0  0  0  0  0  0  0  0  0  0  0
    9.8555   -2.4966   -2.8825 C   0  0  0  0  0  0  0  0  0  0  0  0
    7.6764   -3.6802   -2.8874 C   0  0  0  0  0  0  0  0  0  0  0  0
    8.0414   -4.9127   -3.3931 C   0  0  0  0  0  0  0  0  0  0  0  0
    7.1541   -5.6326   -4.1716 C   0  0  0  0  0  0  0  0  0  0  0  0
    5.8987   -5.1215   -4.4466 C   0  0  0  0  0  0  0  0  0  0  0  0
    5.5259   -3.8921   -3.9401 C   0  0  0  0  0  0  0  0  0  0  0  0
    6.4170   -3.1641   -3.1621 C   0  0  0  0  0  0  0  0  0  0  0  0
    6.0441   -1.9159   -2.6514 N   0  0  0  0  0  0  0  0  0  0  0  0
    4.7688   -1.6953   -2.2753 C   0  0  0  0  0  0  0  0  0  0  0  0
    3.9270   -2.5495   -2.4556 O   0  0  0  0  0  0  0  0  0  0  0  0
    4.3889   -0.3871   -1.6307 C   0  0  0  0  0  0  0  0  0  0  0  0
    2.6207   -0.3961   -1.2441 S   0  0  0  0  0  0  0  0  0  0  0  0
    2.4572    1.2030   -0.5225 C   0  0  0  0  0  0  0  0  0  0  0  0
    3.4182    2.0670   -0.3652 N   0  0  0  0  0  0  0  0  0  0  0  0
    2.8796    3.2093    0.2428 N   0  0  0  0  0  0  0  0  0  0  0  0
    3.3638    4.0154    0.4808 H   0  0  0  0  0  0  0  0  0  0  0  0
    1.5630    2.9835    0.4313 C   0  0  0  0  0  0  0  0  0  0  0  0
    0.7647    3.7558    0.9319 O   0  0  0  0  0  0  0  0  0  0  0  0
    1.2917    1.7471   -0.0320 N   0  0  0  0  0  0  0  0  0  0  0  0
   -0.0206    1.0960   -0.0210 C   0  0  0  0  0  0  0  0  0  0  0  0
   -1.1455    1.7868    0.7525 C   0  0  0  0  0  0  0  0  0  0  0  0
   -1.1575    1.7853   -0.7782 C   0  0  0  0  0  0  0  0  0  0  0  0
    9.5962   -4.6562   -1.2395 H   0  0  0  0  0  0  0  0  0  0  0  0
    9.8043   -3.1930   -0.2476 H   0  0  0  0  0  0  0  0  0  0  0  0
    8.2414   -4.0447   -0.2603 H   0  0  0  0  0  0  0  0  0  0  0  0
    8.1522   -2.0002   -1.6605 H   0  0  0  0  0  0  0  0  0  0  0  0
    9.5272   -1.8818   -3.7206 H   0  0  0  0  0  0  0  0  0  0  0  0
   10.5552   -1.9300   -2.2683 H   0  0  0  0  0  0  0  0  0  0  0  0
   10.3471   -3.3932   -3.2602 H   0  0  0  0  0  0  0  0  0  0  0  0
    9.0209   -5.3147   -3.1798 H   0  0  0  0  0  0  0  0  0  0  0  0
    7.4417   -6.5961   -4.5655 H   0  0  0  0  0  0  0  0  0  0  0  0
    5.2076   -5.6865   -5.0544 H   0  0  0  0  0  0  0  0  0  0  0  0
    4.5439   -3.4955   -4.1515 H   0  0  0  0  0  0  0  0  0  0  0  0
    6.7035   -1.2093   -2.5681 H   0  0  0  0  0  0  0  0  0  0  0  0
    4.6070    0.4323   -2.3156 H   0  0  0  0  0  0  0  0  0  0  0  0
    4.9609   -0.2550   -0.7123 H   0  0  0  0  0  0  0  0  0  0  0  0
   -0.0047    0.0061   -0.0201 H   0  0  0  0  0  0  0  0  0  0  0  0
   -1.8696    1.1513    1.2623 H   0  0  0  0  0  0  0  0  0  0  0  0
   -0.9093    2.7258    1.2529 H   0  0  0  0  0  0  0  0  0  0  0  0
   -0.9291    2.7233   -1.2842 H   0  0  0  0  0  0  0  0  0  0  0  0
   -1.8893    1.1488   -1.2757 H   0  0  0  0  0  0  0  0  0  0  0  0
  1  2  1  0  0  0  0
  1 25  1  0  0  0  0
  1 26  1  0  0  0  0
  1 27  1  0  0  0  0
  2  3  1  0  0  0  0
  2  4  1  0  0  0  0
  2 28  1  0  0  0  0
  3 29  1  0  0  0  0
  3 30  1  0  0  0  0
  3 31  1  0  0  0  0
  4  9  2  0  0  0  0
  4  5  1  0  0  0  0
  5  6  2  0  0  0  0
  5 32  1  0  0  0  0
  6  7  1  0  0  0  0
  6 33  1  0  0  0  0
  7  8  2  0  0  0  0
  7 34  1  0  0  0  0
  8  9  1  0  0  0  0
  8 35  1  0  0  0  0
  9 10  1  0  0  0  0
 10 11  1  0  0  0  0
 10 36  1  0  0  0  0
 11 12  2  0  0  0  0
 11 13  1  0  0  0  0
 13 14  1  0  0  0  0
 13 37  1  0  0  0  0
 13 38  1  0  0  0  0
 14 15  1  0  0  0  0
 15 21  1  0  0  0  0
 15 16  2  0  0  0  0
 16 17  1  0  0  0  0
 17 18  1  0  0  0  0
 17 19  1  0  0  0  0
 19 20  2  0  0  0  0
 19 21  1  0  0  0  0
 21 22  1  0  0  0  0
 22 24  1  0  0  0  0
 22 23  1  0  0  0  0
 22 39  1  0  0  0  0
 23 24  1  0  0  0  0
 23 40  1  0  0  0  0
 23 41  1  0  0  0  0
 24 42  1  0  0  0  0
 24 43  1  0  0  0  0
M  END
$$$$
ZINC03393662
  -OEChem-08230709453D

 41 43  0     1  0  0  0  0  0999 V2000
   -2.9894    1.5739   -2.3661 C   0  0  0  0  0  0  0  0  0  0  0  0
   -2.2599    1.3186   -1.0456 C   0  0  1  0  0  0  0  0  0  0  0  0
   -2.3994    0.2782   -0.7520 H   0  0  0  0  0  0  0  0  0  0  0  0
   -0.7657    1.5996   -1.2276 C   0  0  0  0  0  0  0  0  0  0  0  0
   -0.0127    1.0858    0.0080 C   0  0  0  0  0  0  0  0  0  0  0  0
   -0.7240    1.5739    1.2323 C   0  0  0  0  0  0  0  0  0  0  0  0
   -1.9852    2.0958    1.2980 C   0  0  0  0  0  0  0  0  0  0  0  0
   -2.4349    2.4838    2.5497 C   0  0  0  0  0  0  0  0  0  0  0  0
   -1.5866    2.3164    3.6291 C   0  0  0  0  0  0  0  0  0  0  0  0
   -0.1455    1.6041    2.8536 S   0  0  0  0  0  0  0  0  0  0  0  0
   -1.8120    2.6394    5.0405 C   0  0  0  0  0  0  0  0  0  0  0  0
   -2.8709    3.1269    5.3918 O   0  0  0  0  0  0  0  0  0  0  0  0
   -0.8472    2.3968    5.9497 N   0  0  0  0  0  0  0  0  0  0  0  0
   -1.0627    2.7056    7.2992 N   0  0  0  0  0  0  0  0  0  0  0  0
   -0.1334    2.4720    8.1750 C   0  0  0  0  0  0  0  0  0  0  0  0
   -0.3602    2.7968    9.5946 C   0  0  0  0  0  0  0  0  0  0  0  0
    0.6360    2.5413   10.5412 C   0  0  0  0  0  0  0  0  0  0  0  0
    0.4221    2.8516   11.8674 C   0  0  0  0  0  0  0  0  0  0  0  0
   -0.7807    3.4065   12.2701 C   0  0  0  0  0  0  0  0  0  0  0  0
   -1.7796    3.6600   11.3434 C   0  0  0  0  0  0  0  0  0  0  0  0
   -1.5764    3.3575   10.0022 C   0  0  0  0  0  0  0  0  0  0  0  0
   -2.5539    3.6044    9.0909 O   0  0  0  0  0  0  0  0  0  0  0  0
   -2.9585    4.2052   11.7464 O   0  0  0  0  0  0  0  0  0  0  0  0
   -2.8343    2.2330    0.0369 C   0  0  0  0  0  0  0  0  0  0  0  0
   -2.5865    0.9167   -3.1367 H   0  0  0  0  0  0  0  0  0  0  0  0
   -4.0532    1.3742   -2.2380 H   0  0  0  0  0  0  0  0  0  0  0  0
   -2.8480    2.6128   -2.6642 H   0  0  0  0  0  0  0  0  0  0  0  0
   -0.6058    2.6727   -1.3330 H   0  0  0  0  0  0  0  0  0  0  0  0
   -0.4008    1.0866   -2.1174 H   0  0  0  0  0  0  0  0  0  0  0  0
    0.0021   -0.0041    0.0020 H   0  0  0  0  0  0  0  0  0  0  0  0
    1.0085    1.4668    0.0003 H   0  0  0  0  0  0  0  0  0  0  0  0
   -3.4209    2.9051    2.6791 H   0  0  0  0  0  0  0  0  0  0  0  0
   -0.0036    2.0084    5.6698 H   0  0  0  0  0  0  0  0  0  0  0  0
    0.8058    2.0395    7.8633 H   0  0  0  0  0  0  0  0  0  0  0  0
    1.5746    2.1048   10.2333 H   0  0  0  0  0  0  0  0  0  0  0  0
    1.1948    2.6566   12.5963 H   0  0  0  0  0  0  0  0  0  0  0  0
   -0.9415    3.6426   13.3117 H   0  0  0  0  0  0  0  0  0  0  0  0
   -3.1653    2.8666    8.9602 H   0  0  0  0  0  0  0  0  0  0  0  0
   -3.6283    3.5538   11.9956 H   0  0  0  0  0  0  0  0  0  0  0  0
   -2.8115    3.2667   -0.3082 H   0  0  0  0  0  0  0  0  0  0  0  0
   -3.8624    1.9426    0.2527 H   0  0  0  0  0  0  0  0  0  0  0  0
  1  2  1  0  0  0  0
  1 25  1  0  0  0  0
  1 26  1  0  0  0  0
  1 27  1  0  0  0  0
  2  3  1  0  0  0  0
  2 24  1  0  0  0  0
  2  4  1  0  0  0  0
  4  5  1  0  0  0  0
  4 28  1  0  0  0  0
  4 29  1  0  0  0  0
  5  6  1  0  0  0  0
  5 30  1  0  0  0  0
  5 31  1  0  0  0  0
  6 10  1  0  0  0  0
  6  7  2  0  0  0  0
  7  8  1  0  0  0  0
  7 24  1  0  0  0  0
  8  9  2  0  0  0  0
  8 32  1  0  0  0  0
  9 10  1  0  0  0  0
  9 11  1  0  0  0  0
 11 12  2  0  0  0  0
 11 13  1  0  0  0  0
 13 14  1  0  0  0  0
 13 33  1  0  0  0  0
 14 15  2  0  0  0  0
 15 16  1  0  0  0  0
 15 34  1  0  0  0  0
 16 21  2  0  0  0  0
 16 17  1  0  0  0  0
 17 18  2  0  0  0  0
 17 35  1  0  0  0  0
 18 19  1  0  0  0  0
 18 36  1  0  0  0  0
 19 20  2  0  0  0  0
 19 37  1  0  0  0  0
 20 21  1  0  0  0  0
 20 23  1  0  0  0  0
 21 22  1  0  0  0  0
 22 38  1  0  0  0  0
 23 39  1  0  0  0  0
 24 40  1  0  0  0  0
 24 41  1  0  0  0  0
M  END
$$$$
ZINC03393667
  -OEChem-08230709453D

 41 43  0     1  0  0  0  0  0999 V2000
    0.8296   -1.9979    1.2595 C   0  0  0  0  0  0  0  0  0  0  0  0
    0.9908   -0.4887    1.0661 C   0  0  2  0  0  0  0  0  0  0  0  0
    0.7874    0.0207    2.0080 H   0  0  0  0  0  0  0  0  0  0  0  0
    0.0021   -0.0041    0.0020 C   0  0  0  0  0  0  0  0  0  0  0  0
   -0.0187    1.5313    0.0105 C   0  0  0  0  0  0  0  0  0  0  0  0
    1.3959    2.0227   -0.0004 C   0  0  0  0  0  0  0  0  0  0  0  0
    2.5219    1.2970    0.2664 C   0  0  0  0  0  0  0  0  0  0  0  0
    3.7302    1.9708    0.1937 C   0  0  0  0  0  0  0  0  0  0  0  0
    3.7105    3.3127   -0.1404 C   0  0  0  0  0  0  0  0  0  0  0  0
    1.9632    3.6112   -0.3489 S   0  0  0  0  0  0  0  0  0  0  0  0
    4.8311    4.2459   -0.2839 C   0  0  0  0  0  0  0  0  0  0  0  0
    5.9713    3.8608   -0.1004 O   0  0  0  0  0  0  0  0  0  0  0  0
    4.5994    5.5306   -0.6191 N   0  0  0  0  0  0  0  0  0  0  0  0
    5.6708    6.4229   -0.7563 N   0  0  0  0  0  0  0  0  0  0  0  0
    5.4477    7.6603   -1.0792 C   0  0  0  0  0  0  0  0  0  0  0  0
    6.5748    8.5989   -1.2236 C   0  0  0  0  0  0  0  0  0  0  0  0
    6.3389    9.9306   -1.5767 C   0  0  0  0  0  0  0  0  0  0  0  0
    7.3954   10.8069   -1.7056 C   0  0  0  0  0  0  0  0  0  0  0  0
    8.6933   10.3721   -1.4976 C   0  0  0  0  0  0  0  0  0  0  0  0
    8.9427    9.0532   -1.1526 C   0  0  0  0  0  0  0  0  0  0  0  0
    7.8872    8.1597   -1.0133 C   0  0  0  0  0  0  0  0  0  0  0  0
    8.1282    6.8659   -0.6742 O   0  0  0  0  0  0  0  0  0  0  0  0
   10.2203    8.6333   -0.9499 O   0  0  0  0  0  0  0  0  0  0  0  0
    2.4226   -0.1835    0.6250 C   0  0  0  0  0  0  0  0  0  0  0  0
    1.0295   -2.5084    0.3174 H   0  0  0  0  0  0  0  0  0  0  0  0
    1.5330   -2.3443    2.0168 H   0  0  0  0  0  0  0  0  0  0  0  0
   -0.1884   -2.2162    1.5822 H   0  0  0  0  0  0  0  0  0  0  0  0
   -0.9940   -0.3843    0.2284 H   0  0  0  0  0  0  0  0  0  0  0  0
    0.3147   -0.3599   -0.9797 H   0  0  0  0  0  0  0  0  0  0  0  0
   -0.5410    1.8962   -0.8739 H   0  0  0  0  0  0  0  0  0  0  0  0
   -0.5240    1.8866    0.9085 H   0  0  0  0  0  0  0  0  0  0  0  0
    4.6621    1.4620    0.3916 H   0  0  0  0  0  0  0  0  0  0  0  0
    3.6909    5.8375   -0.7653 H   0  0  0  0  0  0  0  0  0  0  0  0
    4.4362    8.0019   -1.2420 H   0  0  0  0  0  0  0  0  0  0  0  0
    5.3288   10.2741   -1.7445 H   0  0  0  0  0  0  0  0  0  0  0  0
    7.2101   11.8363   -1.9746 H   0  0  0  0  0  0  0  0  0  0  0  0
    9.5155   11.0641   -1.6051 H   0  0  0  0  0  0  0  0  0  0  0  0
    8.2640    6.2796   -1.4312 H   0  0  0  0  0  0  0  0  0  0  0  0
   10.6559    8.3004   -1.7464 H   0  0  0  0  0  0  0  0  0  0  0  0
    3.1116   -0.4092    1.4389 H   0  0  0  0  0  0  0  0  0  0  0  0
    2.6732   -0.7881   -0.2466 H   0  0  0  0  0  0  0  0  0  0  0  0
  1  2  1  0  0  0  0
  1 25  1  0  0  0  0
  1 26  1  0  0  0  0
  1 27  1  0  0  0  0
  2  3  1  0  0  0  0
  2 24  1  0  0  0  0
  2  4  1  0  0  0  0
  4  5  1  0  0  0  0
  4 28  1  0  0  0  0
  4 29  1  0  0  0  0
  5  6  1  0  0  0  0
  5 30  1  0  0  0  0
  5 31  1  0  0  0  0
  6 10  1  0  0  0  0
  6  7  2  0  0  0  0
  7  8  1  0  0  0  0
  7 24  1  0  0  0  0
  8  9  2  0  0  0  0
  8 32  1  0  0  0  0
  9 10  1  0  0  0  0
  9 11  1  0  0  0  0
 11 12  2  0  0  0  0
 11 13  1  0  0  0  0
 13 14  1  0  0  0  0
 13 33  1  0  0  0  0
 14 15  2  0  0  0  0
 15 16  1  0  0  0  0
 15 34  1  0  0  0  0
 16 21  2  0  0  0  0
 16 17  1  0  0  0  0
 17 18  2  0  0  0  0
 17 35  1  0  0  0  0
 18 19  1  0  0  0  0
 18 36  1  0  0  0  0
 19 20  2  0  0  0  0
 19 37  1  0  0  0  0
 20 21  1  0  0  0  0
 20 23  1  0  0  0  0
 21 22  1  0  0  0  0
 22 38  1  0  0  0  0
 23 39  1  0  0  0  0
 24 40  1  0  0  0  0
 24 41  1  0  0  0  0
M  END
$$$$
ZINC03398403
  -OEChem-08230709453D

 40 42  0     0  0  0  0  0  0999 V2000
   -0.0555    4.2421    0.0259 C   0  0  0  0  0  0  0  0  0  0  0  0
    1.1538    3.5699    0.0103 C   0  0  0  0  0  0  0  0  0  0  0  0
    1.1798    2.1907    0.0026 C   0  0  0  0  0  0  0  0  0  0  0  0
   -0.0180    1.4730    0.0101 C   0  0  0  0  0  0  0  0  0  0  0  0
   -1.2347    2.1578    0.0196 C   0  0  0  0  0  0  0  0  0  0  0  0
   -1.2461    3.5372    0.0335 C   0  0  0  0  0  0  0  0  0  0  0  0
    0.0021   -0.0041    0.0020 C   0  0  0  0  0  0  0  0  0  0  0  0
    1.0621   -0.5970   -0.0113 O   0  0  0  0  0  0  0  0  0  0  0  0
   -1.1553   -0.6934    0.0094 O   0  0  0  0  0  0  0  0  0  0  0  0
   -1.0596   -2.1423    0.0007 C   0  0  0  0  0  0  0  0  0  0  0  0
   -2.4442   -2.7372    0.0107 C   0  0  0  0  0  0  0  0  0  0  0  0
   -3.4159   -2.0115    0.0239 O   0  0  0  0  0  0  0  0  0  0  0  0
   -2.6026   -4.0756    0.0050 N   0  0  0  0  0  0  0  0  0  0  0  0
   -3.8766   -4.6229    0.0142 C   0  0  0  0  0  0  0  0  0  0  0  0
   -4.2390   -5.9589    0.0049 C   0  0  0  0  0  0  0  0  0  0  0  0
   -5.6672   -6.2734    0.0223 C   0  0  0  0  0  0  0  0  0  0  0  0
   -6.4867   -5.2067    0.0362 C   0  0  0  0  0  0  0  0  0  0  0  0
   -5.4000   -3.8018    0.0326 S   0  0  0  0  0  0  0  0  0  0  0  0
   -7.9364   -5.6093    0.0507 C   0  0  0  0  0  0  0  0  0  0  0  0
   -7.9240   -7.0928    0.4810 C   0  0  0  0  0  0  0  0  0  0  0  0
   -6.5222   -7.5413    0.0220 C   0  0  0  0  0  0  0  0  0  0  0  0
   -3.2277   -7.0203   -0.0175 C   0  0  0  0  0  0  0  0  0  0  0  0
   -2.7960   -7.4718    1.0271 O   0  0  0  0  0  0  0  0  0  0  0  0
   -2.7760   -7.4959   -1.1949 N   0  0  0  0  0  0  0  0  0  0  0  0
   -0.0702    5.3220    0.0319 H   0  0  0  0  0  0  0  0  0  0  0  0
    2.0794    4.1262    0.0044 H   0  0  0  0  0  0  0  0  0  0  0  0
    2.1243    1.6672   -0.0097 H   0  0  0  0  0  0  0  0  0  0  0  0
   -2.1648    1.6088    0.0206 H   0  0  0  0  0  0  0  0  0  0  0  0
   -2.1865    4.0681    0.0457 H   0  0  0  0  0  0  0  0  0  0  0  0
   -0.5315   -2.4661   -0.8961 H   0  0  0  0  0  0  0  0  0  0  0  0
   -0.5145   -2.4757    0.8837 H   0  0  0  0  0  0  0  0  0  0  0  0
   -1.8255   -4.6559   -0.0055 H   0  0  0  0  0  0  0  0  0  0  0  0
   -8.4905   -5.0089    0.7722 H   0  0  0  0  0  0  0  0  0  0  0  0
   -8.3698   -5.5057   -0.9440 H   0  0  0  0  0  0  0  0  0  0  0  0
   -8.0290   -7.1864    1.5619 H   0  0  0  0  0  0  0  0  0  0  0  0
   -8.7020   -7.6553   -0.0352 H   0  0  0  0  0  0  0  0  0  0  0  0
   -6.1130   -8.2723    0.7193 H   0  0  0  0  0  0  0  0  0  0  0  0
   -6.5713   -7.9643   -0.9814 H   0  0  0  0  0  0  0  0  0  0  0  0
   -3.1200   -7.1361   -2.0274 H   0  0  0  0  0  0  0  0  0  0  0  0
   -2.1069   -8.1981   -1.2098 H   0  0  0  0  0  0  0  0  0  0  0  0
  1  6  2  0  0  0  0
  1  2  1  0  0  0  0
  1 25  1  0  0  0  0
  2  3  2  0  0  0  0
  2 26  1  0  0  0  0
  3  4  1  0  0  0  0
  3 27  1  0  0  0  0
  4  5  2  0  0  0  0
  4  7  1  0  0  0  0
  5  6  1  0  0  0  0
  5 28  1  0  0  0  0
  6 29  1  0  0  0  0
  7  8  2  0  0  0  0
  7  9  1  0  0  0  0
  9 10  1  0  0  0  0
 10 11  1  0  0  0  0
 10 30  1  0  0  0  0
 10 31  1  0  0  0  0
 11 12  2  0  0  0  0
 11 13  1  0  0  0  0
 13 14  1  0  0  0  0
 13 32  1  0  0  0  0
 14 18  1  0  0  0  0
 14 15  2  0  0  0  0
 15 16  1  0  0  0  0
 15 22  1  0  0  0  0
 16 21  1  0  0  0  0
 16 17  2  0  0  0  0
 17 18  1  0  0  0  0
 17 19  1  0  0  0  0
 19 20  1  0  0  0  0
 19 33  1  0  0  0  0
 19 34  1  0  0  0  0
 20 21  1  0  0  0  0
 20 35  1  0  0  0  0
 20 36  1  0  0  0  0
 21 37  1  0  0  0  0
 21 38  1  0  0  0  0
 22 23  2  0  0  0  0
 22 24  1  0  0  0  0
 24 39  1  0  0  0  0
 24 40  1  0  0  0  0
M  END
$$$$
ZINC03400441
  -OEChem-08230709453D

 43 45  0     1  0  0  0  0  0999 V2000
    4.9854    1.5795    0.2659 C   0  0  0  0  0  0  0  0  0  0  0  0
    3.5838    2.1671    0.4426 C   0  0  1  0  0  0  0  0  0  0  0  0
    3.4217    2.4030    1.4944 H   0  0  0  0  0  0  0  0  0  0  0  0
    3.4600    3.4461   -0.3902 C   0  0  0  0  0  0  0  0  0  0  0  0
    2.1619    4.1666    0.0015 C   0  0  0  0  0  0  0  0  0  0  0  0
    1.0490    3.1644    0.0082 C   0  0  0  0  0  0  0  0  0  0  0  0
    1.1663    1.8036    0.0006 C   0  0  0  0  0  0  0  0  0  0  0  0
   -0.0126    1.0758    0.0080 C   0  0  0  0  0  0  0  0  0  0  0  0
   -1.2083    1.7698    0.0173 C   0  0  0  0  0  0  0  0  0  0  0  0
   -0.6469    3.4641    0.0260 S   0  0  0  0  0  0  0  0  0  0  0  0
   -2.5789    1.2500    0.0212 C   0  0  0  0  0  0  0  0  0  0  0  0
   -2.7741    0.0488    0.0159 O   0  0  0  0  0  0  0  0  0  0  0  0
   -3.6229    2.1024    0.0306 N   0  0  0  0  0  0  0  0  0  0  0  0
   -4.9328    1.6056    0.0343 N   0  0  0  0  0  0  0  0  0  0  0  0
   -6.0135    2.4880    0.0441 C   0  0  0  0  0  0  0  0  0  0  0  0
   -5.7996    3.8045    0.0498 C   0  0  0  0  0  0  0  0  0  0  0  0
   -7.3980    1.9629    0.0480 C   0  0  0  0  0  0  0  0  0  0  0  0
   -7.6236    0.5864    0.0362 C   0  0  0  0  0  0  0  0  0  0  0  0
   -8.9140    0.1009    0.0458 C   0  0  0  0  0  0  0  0  0  0  0  0
   -9.9884    0.9805    0.0555 C   0  0  0  0  0  0  0  0  0  0  0  0
   -9.7675    2.3513    0.0614 C   0  0  0  0  0  0  0  0  0  0  0  0
   -8.4797    2.8437    0.0577 C   0  0  0  0  0  0  0  0  0  0  0  0
  -11.2587    0.4987    0.0596 O   0  0  0  0  0  0  0  0  0  0  0  0
    2.5431    1.1445   -0.0147 C   0  0  0  0  0  0  0  0  0  0  0  0
    5.1486    1.3388   -0.7846 H   0  0  0  0  0  0  0  0  0  0  0  0
    5.7283    2.3075    0.5915 H   0  0  0  0  0  0  0  0  0  0  0  0
    5.0776    0.6734    0.8648 H   0  0  0  0  0  0  0  0  0  0  0  0
    4.3126    4.0955   -0.1916 H   0  0  0  0  0  0  0  0  0  0  0  0
    3.4337    3.1913   -1.4497 H   0  0  0  0  0  0  0  0  0  0  0  0
    2.2693    4.6025    0.9947 H   0  0  0  0  0  0  0  0  0  0  0  0
    1.9450    4.9519   -0.7226 H   0  0  0  0  0  0  0  0  0  0  0  0
    0.0021   -0.0041    0.0020 H   0  0  0  0  0  0  0  0  0  0  0  0
   -3.4672    3.0598    0.0348 H   0  0  0  0  0  0  0  0  0  0  0  0
   -5.0884    0.6482    0.0301 H   0  0  0  0  0  0  0  0  0  0  0  0
   -6.6361    4.4875    0.0573 H   0  0  0  0  0  0  0  0  0  0  0  0
   -4.7897    4.1875    0.0469 H   0  0  0  0  0  0  0  0  0  0  0  0
   -6.7885   -0.0983    0.0242 H   0  0  0  0  0  0  0  0  0  0  0  0
   -9.0894   -0.9648    0.0412 H   0  0  0  0  0  0  0  0  0  0  0  0
  -10.6054    3.0327    0.0693 H   0  0  0  0  0  0  0  0  0  0  0  0
   -8.3085    3.9100    0.0627 H   0  0  0  0  0  0  0  0  0  0  0  0
  -11.6310    0.3638   -0.8226 H   0  0  0  0  0  0  0  0  0  0  0  0
    2.5471    0.2910    0.6632 H   0  0  0  0  0  0  0  0  0  0  0  0
    2.7766    0.8095   -1.0253 H   0  0  0  0  0  0  0  0  0  0  0  0
  1  2  1  0  0  0  0
  1 25  1  0  0  0  0
  1 26  1  0  0  0  0
  1 27  1  0  0  0  0
  2  3  1  0  0  0  0
  2 24  1  0  0  0  0
  2  4  1  0  0  0  0
  4  5  1  0  0  0  0
  4 28  1  0  0  0  0
  4 29  1  0  0  0  0
  5  6  1  0  0  0  0
  5 30  1  0  0  0  0
  5 31  1  0  0  0  0
  6 10  1  0  0  0  0
  6  7  2  0  0  0  0
  7  8  1  0  0  0  0
  7 24  1  0  0  0  0
  8  9  2  0  0  0  0
  8 32  1  0  0  0  0
  9 10  1  0  0  0  0
  9 11  1  0  0  0  0
 11 12  2  0  0  0  0
 11 13  1  0  0  0  0
 13 14  1  0  0  0  0
 13 33  1  0  0  0  0
 14 15  1  0  0  0  0
 14 34  1  0  0  0  0
 15 16  2  0  0  0  0
 15 17  1  0  0  0  0
 16 35  1  0  0  0  0
 16 36  1  0  0  0  0
 17 22  2  0  0  0  0
 17 18  1  0  0  0  0
 18 19  2  0  0  0  0
 18 37  1  0  0  0  0
 19 20  1  0  0  0  0
 19 38  1  0  0  0  0
 20 21  2  0  0  0  0
 20 23  1  0  0  0  0
 21 22  1  0  0  0  0
 21 39  1  0  0  0  0
 22 40  1  0  0  0  0
 23 41  1  0  0  0  0
 24 42  1  0  0  0  0
 24 43  1  0  0  0  0
M  END
$$$$
ZINC03400444
  -OEChem-08230709453D

 43 45  0     1  0  0  0  0  0999 V2000
    8.5802    0.2153    0.2245 C   0  0  0  0  0  0  0  0  0  0  0  0
    7.1074   -0.1616    0.3968 C   0  0  2  0  0  0  0  0  0  0  0  0
    6.9102   -0.3803    1.4463 H   0  0  0  0  0  0  0  0  0  0  0  0
    6.7974   -1.4006   -0.4478 C   0  0  0  0  0  0  0  0  0  0  0  0
    5.4072   -1.9260   -0.0618 C   0  0  0  0  0  0  0  0  0  0  0  0
    4.4538   -0.7711   -0.0450 C   0  0  0  0  0  0  0  0  0  0  0  0
    4.7698    0.5577   -0.0400 C   0  0  0  0  0  0  0  0  0  0  0  0
    3.7107    1.4508   -0.0312 C   0  0  0  0  0  0  0  0  0  0  0  0
    2.4260    0.9400   -0.0161 C   0  0  0  0  0  0  0  0  0  0  0  0
    2.7322   -0.8184   -0.0290 S   0  0  0  0  0  0  0  0  0  0  0  0
    1.1468    1.6555   -0.0000 C   0  0  0  0  0  0  0  0  0  0  0  0
    1.1303    2.8724    0.0067 O   0  0  0  0  0  0  0  0  0  0  0  0
   -0.0111    0.9658    0.0074 N   0  0  0  0  0  0  0  0  0  0  0  0
   -1.2338    1.6498    0.0169 N   0  0  0  0  0  0  0  0  0  0  0  0
   -2.4325    0.9358    0.0187 C   0  0  0  0  0  0  0  0  0  0  0  0
   -2.4144   -0.3979    0.0113 C   0  0  0  0  0  0  0  0  0  0  0  0
   -3.7247    1.6587    0.0287 C   0  0  0  0  0  0  0  0  0  0  0  0
   -3.7454    3.0534    0.0422 C   0  0  0  0  0  0  0  0  0  0  0  0
   -4.9505    3.7232    0.0457 C   0  0  0  0  0  0  0  0  0  0  0  0
   -6.1425    3.0111    0.0470 C   0  0  0  0  0  0  0  0  0  0  0  0
   -6.1255    1.6227    0.0399 C   0  0  0  0  0  0  0  0  0  0  0  0
   -4.9241    0.9464    0.0305 C   0  0  0  0  0  0  0  0  0  0  0  0
   -7.3282    3.6743    0.0557 O   0  0  0  0  0  0  0  0  0  0  0  0
    6.2286    1.0072   -0.0501 C   0  0  0  0  0  0  0  0  0  0  0  0
    8.7797    0.4311   -0.8251 H   0  0  0  0  0  0  0  0  0  0  0  0
    8.8023    1.0972    0.8253 H   0  0  0  0  0  0  0  0  0  0  0  0
    9.2080   -0.6140    0.5506 H   0  0  0  0  0  0  0  0  0  0  0  0
    7.5451   -2.1701   -0.2560 H   0  0  0  0  0  0  0  0  0  0  0  0
    6.8077   -1.1366   -1.5053 H   0  0  0  0  0  0  0  0  0  0  0  0
    5.4487   -2.3821    0.9273 H   0  0  0  0  0  0  0  0  0  0  0  0
    5.0774   -2.6637   -0.7933 H   0  0  0  0  0  0  0  0  0  0  0  0
    3.8839    2.5168   -0.0330 H   0  0  0  0  0  0  0  0  0  0  0  0
    0.0021   -0.0041    0.0020 H   0  0  0  0  0  0  0  0  0  0  0  0
   -1.2469    2.6197    0.0222 H   0  0  0  0  0  0  0  0  0  0  0  0
   -3.3423   -0.9505    0.0127 H   0  0  0  0  0  0  0  0  0  0  0  0
   -1.4718   -0.9251    0.0040 H   0  0  0  0  0  0  0  0  0  0  0  0
   -2.8186    3.6078    0.0453 H   0  0  0  0  0  0  0  0  0  0  0  0
   -4.9673    4.8031    0.0512 H   0  0  0  0  0  0  0  0  0  0  0  0
   -7.0545    1.0719    0.0413 H   0  0  0  0  0  0  0  0  0  0  0  0
   -4.9116   -0.1335    0.0243 H   0  0  0  0  0  0  0  0  0  0  0  0
   -7.6674    3.8619    0.9416 H   0  0  0  0  0  0  0  0  0  0  0  0
    6.3577    1.8444    0.6358 H   0  0  0  0  0  0  0  0  0  0  0  0
    6.5102    1.3114   -1.0582 H   0  0  0  0  0  0  0  0  0  0  0  0
  1  2  1  0  0  0  0
  1 25  1  0  0  0  0
  1 26  1  0  0  0  0
  1 27  1  0  0  0  0
  2  3  1  0  0  0  0
  2 24  1  0  0  0  0
  2  4  1  0  0  0  0
  4  5  1  0  0  0  0
  4 28  1  0  0  0  0
  4 29  1  0  0  0  0
  5  6  1  0  0  0  0
  5 30  1  0  0  0  0
  5 31  1  0  0  0  0
  6 10  1  0  0  0  0
  6  7  2  0  0  0  0
  7  8  1  0  0  0  0
  7 24  1  0  0  0  0
  8  9  2  0  0  0  0
  8 32  1  0  0  0  0
  9 10  1  0  0  0  0
  9 11  1  0  0  0  0
 11 12  2  0  0  0  0
 11 13  1  0  0  0  0
 13 14  1  0  0  0  0
 13 33  1  0  0  0  0
 14 15  1  0  0  0  0
 14 34  1  0  0  0  0
 15 16  2  0  0  0  0
 15 17  1  0  0  0  0
 16 35  1  0  0  0  0
 16 36  1  0  0  0  0
 17 22  2  0  0  0  0
 17 18  1  0  0  0  0
 18 19  2  0  0  0  0
 18 37  1  0  0  0  0
 19 20  1  0  0  0  0
 19 38  1  0  0  0  0
 20 21  2  0  0  0  0
 20 23  1  0  0  0  0
 21 22  1  0  0  0  0
 21 39  1  0  0  0  0
 22 40  1  0  0  0  0
 23 41  1  0  0  0  0
 24 42  1  0  0  0  0
 24 43  1  0  0  0  0
M  END
$$$$
ZINC03415256
  -OEChem-08230709453D

 42 44  0     1  0  0  0  0  0999 V2000
   -0.0126    1.0758    0.0080 C   0  0  0  0  0  0  0  0  0  0  0  0
   -1.2137    1.7490    0.0173 C   0  0  0  0  0  0  0  0  0  0  0  0
   -1.2336    3.1388    0.0312 C   0  0  0  0  0  0  0  0  0  0  0  0
   -0.0423    3.8548    0.0233 C   0  0  0  0  0  0  0  0  0  0  0  0
    1.1631    3.1893    0.0081 C   0  0  0  0  0  0  0  0  0  0  0  0
    1.1876    1.7920    0.0003 C   0  0  0  0  0  0  0  0  0  0  0  0
    2.4769    1.0748   -0.0154 C   0  0  0  0  0  0  0  0  0  0  0  0
    2.4963   -0.1410   -0.0217 O   0  0  0  0  0  0  0  0  0  0  0  0
    3.6332    1.7672   -0.0227 N   0  0  0  0  0  0  0  0  0  0  0  0
    4.8439    1.0937   -0.0375 C   0  0  0  0  0  0  0  0  0  0  0  0
    6.1281    1.6260   -0.0468 C   0  0  0  0  0  0  0  0  0  0  0  0
    7.2213    0.6833   -0.0613 C   0  0  0  0  0  0  0  0  0  0  0  0
    6.9049   -0.6241   -0.0646 C   0  0  0  0  0  0  0  0  0  0  0  0
    5.1243   -0.6150   -0.0411 S   0  0  0  0  0  0  0  0  0  0  0  0
    6.3608    3.0734   -0.0416 C   0  0  0  0  0  0  0  0  0  0  0  0
    5.4167    3.8415   -0.0289 O   0  0  0  0  0  0  0  0  0  0  0  0
    7.6201    3.5536   -0.0510 N   0  0  0  0  0  0  0  0  0  0  0  0
   -2.4195    3.7985    0.0466 O   0  0  0  0  0  0  0  0  0  0  0  0
   -3.6054    3.0011    0.0541 C   0  0  0  0  0  0  0  0  0  0  0  0
   -4.8334    3.9136    0.0713 C   0  0  1  0  0  0  0  0  0  0  0  0
   -4.7889    4.6223   -0.7557 H   0  0  0  0  0  0  0  0  0  0  0  0
   -6.1309    3.0708   -0.0119 C   0  0  0  0  0  0  0  0  0  0  0  0
   -7.1513    4.0361    0.6532 C   0  0  0  0  0  0  0  0  0  0  0  0
   -6.2877    4.7444    1.7190 C   0  0  0  0  0  0  0  0  0  0  0  0
   -4.9174    4.6130    1.3232 O   0  0  0  0  0  0  0  0  0  0  0  0
    0.0021   -0.0041    0.0020 H   0  0  0  0  0  0  0  0  0  0  0  0
   -2.1416    1.1963    0.0183 H   0  0  0  0  0  0  0  0  0  0  0  0
   -0.0620    4.9346    0.0293 H   0  0  0  0  0  0  0  0  0  0  0  0
    2.0883    3.7464    0.0019 H   0  0  0  0  0  0  0  0  0  0  0  0
    3.6177    2.7371   -0.0176 H   0  0  0  0  0  0  0  0  0  0  0  0
    8.2494    1.0137   -0.0696 H   0  0  0  0  0  0  0  0  0  0  0  0
    7.5705   -1.4745   -0.0753 H   0  0  0  0  0  0  0  0  0  0  0  0
    8.3725    2.9414   -0.0612 H   0  0  0  0  0  0  0  0  0  0  0  0
    7.7741    4.5113   -0.0476 H   0  0  0  0  0  0  0  0  0  0  0  0
   -3.6291    2.3768   -0.8391 H   0  0  0  0  0  0  0  0  0  0  0  0
   -3.6114    2.3672    0.9408 H   0  0  0  0  0  0  0  0  0  0  0  0
   -6.4001    2.8652   -1.0479 H   0  0  0  0  0  0  0  0  0  0  0  0
   -6.0362    2.1466    0.5583 H   0  0  0  0  0  0  0  0  0  0  0  0
   -7.9647    3.4804    1.1197 H   0  0  0  0  0  0  0  0  0  0  0  0
   -7.5386    4.7527   -0.0710 H   0  0  0  0  0  0  0  0  0  0  0  0
   -6.4389    4.2732    2.6903 H   0  0  0  0  0  0  0  0  0  0  0  0
   -6.5576    5.7991    1.7724 H   0  0  0  0  0  0  0  0  0  0  0  0
  1  6  2  0  0  0  0
  1  2  1  0  0  0  0
  1 26  1  0  0  0  0
  2  3  2  0  0  0  0
  2 27  1  0  0  0  0
  3  4  1  0  0  0  0
  3 18  1  0  0  0  0
  4  5  2  0  0  0  0
  4 28  1  0  0  0  0
  5  6  1  0  0  0  0
  5 29  1  0  0  0  0
  6  7  1  0  0  0  0
  7  8  2  0  0  0  0
  7  9  1  0  0  0  0
  9 10  1  0  0  0  0
  9 30  1  0  0  0  0
 10 14  1  0  0  0  0
 10 11  2  0  0  0  0
 11 12  1  0  0  0  0
 11 15  1  0  0  0  0
 12 13  2  0  0  0  0
 12 31  1  0  0  0  0
 13 14  1  0  0  0  0
 13 32  1  0  0  0  0
 15 16  2  0  0  0  0
 15 17  1  0  0  0  0
 17 33  1  0  0  0  0
 17 34  1  0  0  0  0
 18 19  1  0  0  0  0
 19 20  1  0  0  0  0
 19 35  1  0  0  0  0
 19 36  1  0  0  0  0
 20 21  1  0  0  0  0
 20 25  1  0  0  0  0
 20 22  1  0  0  0  0
 22 23  1  0  0  0  0
 22 37  1  0  0  0  0
 22 38  1  0  0  0  0
 23 24  1  0  0  0  0
 23 39  1  0  0  0  0
 23 40  1  0  0  0  0
 24 25  1  0  0  0  0
 24 41  1  0  0  0  0
 24 42  1  0  0  0  0
M  END
$$$$
ZINC03415262
  -OEChem-08230709453D

 42 44  0     1  0  0  0  0  0999 V2000
    0.0827   -2.8532   -0.0199 C   0  0  0  0  0  0  0  0  0  0  0  0
    0.0971   -4.2301   -0.0225 C   0  0  0  0  0  0  0  0  0  0  0  0
   -1.0983   -4.9395   -0.0145 C   0  0  0  0  0  0  0  0  0  0  0  0
   -2.3124   -4.2629    0.0008 C   0  0  0  0  0  0  0  0  0  0  0  0
   -2.3354   -2.8862    0.0089 C   0  0  0  0  0  0  0  0  0  0  0  0
   -1.1358   -2.1691    0.0013 C   0  0  0  0  0  0  0  0  0  0  0  0
   -1.1558   -0.6938    0.0094 C   0  0  0  0  0  0  0  0  0  0  0  0
   -2.2169   -0.1002    0.0227 O   0  0  0  0  0  0  0  0  0  0  0  0
    0.0021   -0.0041    0.0020 N   0  0  0  0  0  0  0  0  0  0  0  0
   -0.0167    1.3813    0.0096 C   0  0  0  0  0  0  0  0  0  0  0  0
    1.0609    2.2596    0.0041 C   0  0  0  0  0  0  0  0  0  0  0  0
    0.7493    3.6691    0.0138 C   0  0  0  0  0  0  0  0  0  0  0  0
   -0.5517    4.0105    0.0274 C   0  0  0  0  0  0  0  0  0  0  0  0
   -1.3881    2.4384    0.0207 S   0  0  0  0  0  0  0  0  0  0  0  0
    2.4455    1.7781   -0.0114 C   0  0  0  0  0  0  0  0  0  0  0  0
    2.6740    0.5826   -0.0198 O   0  0  0  0  0  0  0  0  0  0  0  0
    3.4653    2.6592   -0.0164 N   0  0  0  0  0  0  0  0  0  0  0  0
   -1.0798   -6.2965   -0.0220 O   0  0  0  0  0  0  0  0  0  0  0  0
    0.2020   -6.9279   -0.0376 C   0  0  0  0  0  0  0  0  0  0  0  0
    0.0222   -8.4472   -0.0441 C   0  0  2  0  0  0  0  0  0  0  0  0
   -0.6067   -8.7577    0.7903 H   0  0  0  0  0  0  0  0  0  0  0  0
    1.3952   -9.1516    0.0262 C   0  0  0  0  0  0  0  0  0  0  0  0
    1.2306  -10.3870   -0.8871 C   0  0  0  0  0  0  0  0  0  0  0  0
   -0.2225  -10.2828   -1.4011 C   0  0  0  0  0  0  0  0  0  0  0  0
   -0.5537   -8.8800   -1.2959 O   0  0  0  0  0  0  0  0  0  0  0  0
    1.0118   -2.3027   -0.0299 H   0  0  0  0  0  0  0  0  0  0  0  0
    1.0383   -4.7596   -0.0351 H   0  0  0  0  0  0  0  0  0  0  0  0
   -3.2389   -4.8178    0.0066 H   0  0  0  0  0  0  0  0  0  0  0  0
   -3.2791   -2.3612    0.0207 H   0  0  0  0  0  0  0  0  0  0  0  0
    0.8486   -0.4776   -0.0086 H   0  0  0  0  0  0  0  0  0  0  0  0
    1.5278    4.4177    0.0107 H   0  0  0  0  0  0  0  0  0  0  0  0
   -0.9848    4.9998    0.0362 H   0  0  0  0  0  0  0  0  0  0  0  0
    3.2832    3.6119   -0.0098 H   0  0  0  0  0  0  0  0  0  0  0  0
    4.3815    2.3406   -0.0267 H   0  0  0  0  0  0  0  0  0  0  0  0
    0.7465   -6.6226   -0.9312 H   0  0  0  0  0  0  0  0  0  0  0  0
    0.7635   -6.6322    0.8486 H   0  0  0  0  0  0  0  0  0  0  0  0
    2.1799   -8.4975   -0.3539 H   0  0  0  0  0  0  0  0  0  0  0  0
    1.6160   -9.4569    1.0490 H   0  0  0  0  0  0  0  0  0  0  0  0
    1.9339  -10.3436   -1.7187 H   0  0  0  0  0  0  0  0  0  0  0  0
    1.3689  -11.3052   -0.3162 H   0  0  0  0  0  0  0  0  0  0  0  0
   -0.2822  -10.6105   -2.4390 H   0  0  0  0  0  0  0  0  0  0  0  0
   -0.8896  -10.8763   -0.7759 H   0  0  0  0  0  0  0  0  0  0  0  0
  1  6  2  0  0  0  0
  1  2  1  0  0  0  0
  1 26  1  0  0  0  0
  2  3  2  0  0  0  0
  2 27  1  0  0  0  0
  3  4  1  0  0  0  0
  3 18  1  0  0  0  0
  4  5  2  0  0  0  0
  4 28  1  0  0  0  0
  5  6  1  0  0  0  0
  5 29  1  0  0  0  0
  6  7  1  0  0  0  0
  7  8  2  0  0  0  0
  7  9  1  0  0  0  0
  9 10  1  0  0  0  0
  9 30  1  0  0  0  0
 10 14  1  0  0  0  0
 10 11  2  0  0  0  0
 11 12  1  0  0  0  0
 11 15  1  0  0  0  0
 12 13  2  0  0  0  0
 12 31  1  0  0  0  0
 13 14  1  0  0  0  0
 13 32  1  0  0  0  0
 15 16  2  0  0  0  0
 15 17  1  0  0  0  0
 17 33  1  0  0  0  0
 17 34  1  0  0  0  0
 18 19  1  0  0  0  0
 19 20  1  0  0  0  0
 19 35  1  0  0  0  0
 19 36  1  0  0  0  0
 20 21  1  0  0  0  0
 20 25  1  0  0  0  0
 20 22  1  0  0  0  0
 22 23  1  0  0  0  0
 22 37  1  0  0  0  0
 22 38  1  0  0  0  0
 23 24  1  0  0  0  0
 23 39  1  0  0  0  0
 23 40  1  0  0  0  0
 24 25  1  0  0  0  0
 24 41  1  0  0  0  0
 24 42  1  0  0  0  0
M  END
$$$$
ZINC03417290
  -OEChem-08230709453D

 44 45  0     1  0  0  0  0  0999 V2000
    0.0046   -0.0176    0.0210 C   0  0  0  0  0  0  0  0  0  0  0  0
   -0.0141    1.5123    0.0180 C   0  0  1  0  0  0  0  0  0  0  0  0
   -0.5380    1.8675   -0.8694 H   0  0  0  0  0  0  0  0  0  0  0  0
   -0.7229    2.0084    1.2519 C   0  0  0  0  0  0  0  0  0  0  0  0
   -0.1369    2.7145    2.0453 O   0  0  0  0  0  0  0  0  0  0  0  0
   -2.0078    1.6675    1.4740 N   0  0  0  0  0  0  0  0  0  0  0  0
   -2.6315    2.0308    2.6751 C   0  0  0  0  0  0  0  0  0  0  0  0
   -1.8707    2.2599    3.8122 C   0  0  0  0  0  0  0  0  0  0  0  0
   -2.4878    2.6223    4.9945 C   0  0  0  0  0  0  0  0  0  0  0  0
   -3.8637    2.7481    5.0500 C   0  0  0  0  0  0  0  0  0  0  0  0
   -4.6288    2.5162    3.9222 C   0  0  0  0  0  0  0  0  0  0  0  0
   -4.0175    2.1572    2.7318 C   0  0  0  0  0  0  0  0  0  0  0  0
   -4.7688    1.9285    1.6217 O   0  0  0  0  0  0  0  0  0  0  0  0
   -6.1838    2.0770    1.7542 C   0  0  0  0  0  0  0  0  0  0  0  0
   -1.6742    2.8709    6.2059 N   0  3  0  0  0  0  0  0  0  0  0  0
   -2.2169    3.1858    7.2498 O   0  0  0  0  0  0  0  0  0  0  0  0
   -0.4621    2.7605    6.1587 O   0  5  0  0  0  0  0  0  0  0  0  0
    1.3610    2.0174    0.0083 N   0  0  0  0  0  0  0  0  0  0  0  0
    2.0453    2.1568   -1.2013 C   0  0  0  0  0  0  0  0  0  0  0  0
    1.4242    1.8111   -2.3959 C   0  0  0  0  0  0  0  0  0  0  0  0
    2.0980    1.9541   -3.5934 C   0  0  0  0  0  0  0  0  0  0  0  0
    3.3949    2.4300   -3.6074 C   0  0  0  0  0  0  0  0  0  0  0  0
    4.0241    2.7722   -2.4161 C   0  0  0  0  0  0  0  0  0  0  0  0
    3.3475    2.6351   -1.2113 C   0  0  0  0  0  0  0  0  0  0  0  0
    5.6784    3.3787   -2.4347 S   0  0  0  0  0  0  0  0  0  0  0  0
    6.1255    3.3801   -4.1927 C   0  0  0  0  0  0  0  0  0  0  0  0
   -1.0186   -0.3935    0.0282 H   0  0  0  0  0  0  0  0  0  0  0  0
    0.5172   -0.3764   -0.8715 H   0  0  0  0  0  0  0  0  0  0  0  0
    0.5284   -0.3728    0.9084 H   0  0  0  0  0  0  0  0  0  0  0  0
   -2.5007    1.1707    0.8024 H   0  0  0  0  0  0  0  0  0  0  0  0
   -0.7962    2.1583    3.7728 H   0  0  0  0  0  0  0  0  0  0  0  0
   -4.3419    3.0278    5.9771 H   0  0  0  0  0  0  0  0  0  0  0  0
   -5.7033    2.6147    3.9691 H   0  0  0  0  0  0  0  0  0  0  0  0
   -6.6624    1.8663    0.7977 H   0  0  0  0  0  0  0  0  0  0  0  0
   -6.5535    1.3804    2.5066 H   0  0  0  0  0  0  0  0  0  0  0  0
   -6.4151    3.0976    2.0591 H   0  0  0  0  0  0  0  0  0  0  0  0
    1.7963    2.2551    0.8420 H   0  0  0  0  0  0  0  0  0  0  0  0
    0.4121    1.4342   -2.3881 H   0  0  0  0  0  0  0  0  0  0  0  0
    1.6113    1.6892   -4.5204 H   0  0  0  0  0  0  0  0  0  0  0  0
    3.9205    2.5360   -4.5449 H   0  0  0  0  0  0  0  0  0  0  0  0
    3.8337    2.9006   -0.2842 H   0  0  0  0  0  0  0  0  0  0  0  0
    7.1463    3.7447   -4.3077 H   0  0  0  0  0  0  0  0  0  0  0  0
    6.0554    2.3661   -4.5863 H   0  0  0  0  0  0  0  0  0  0  0  0
    5.4435    4.0304   -4.7405 H   0  0  0  0  0  0  0  0  0  0  0  0
  1  2  1  0  0  0  0
  1 27  1  0  0  0  0
  1 28  1  0  0  0  0
  1 29  1  0  0  0  0
  2  3  1  0  0  0  0
  2  4  1  0  0  0  0
  2 18  1  0  0  0  0
  4  5  2  0  0  0  0
  4  6  1  0  0  0  0
  6  7  1  0  0  0  0
  6 30  1  0  0  0  0
  7 12  2  0  0  0  0
  7  8  1  0  0  0  0
  8  9  2  0  0  0  0
  8 31  1  0  0  0  0
  9 10  1  0  0  0  0
  9 15  1  0  0  0  0
 10 11  2  0  0  0  0
 10 32  1  0  0  0  0
 11 12  1  0  0  0  0
 11 33  1  0  0  0  0
 12 13  1  0  0  0  0
 13 14  1  0  0  0  0
 14 34  1  0  0  0  0
 14 35  1  0  0  0  0
 14 36  1  0  0  0  0
 15 16  2  0  0  0  0
 15 17  1  0  0  0  0
 18 19  1  0  0  0  0
 18 37  1  0  0  0  0
 19 24  2  0  0  0  0
 19 20  1  0  0  0  0
 20 21  2  0  0  0  0
 20 38  1  0  0  0  0
 21 22  1  0  0  0  0
 21 39  1  0  0  0  0
 22 23  2  0  0  0  0
 22 40  1  0  0  0  0
 23 24  1  0  0  0  0
 23 25  1  0  0  0  0
 24 41  1  0  0  0  0
 25 26  1  0  0  0  0
 26 42  1  0  0  0  0
 26 43  1  0  0  0  0
 26 44  1  0  0  0  0
M  CHG  2  15   1  17  -1
M  END
$$$$
ZINC03417293
  -OEChem-08230709453D

 44 45  0     1  0  0  0  0  0999 V2000
   -3.6028   -1.7351    1.4953 C   0  0  0  0  0  0  0  0  0  0  0  0
   -3.6594   -0.8493    0.2491 C   0  0  2  0  0  0  0  0  0  0  0  0
   -3.7916   -1.4734   -0.6346 H   0  0  0  0  0  0  0  0  0  0  0  0
   -2.3745   -0.0713    0.1270 C   0  0  0  0  0  0  0  0  0  0  0  0
   -2.3969    1.1414    0.1339 O   0  0  0  0  0  0  0  0  0  0  0  0
   -1.2006   -0.7230    0.0101 N   0  0  0  0  0  0  0  0  0  0  0  0
    0.0014   -0.0032   -0.0097 C   0  0  0  0  0  0  0  0  0  0  0  0
    0.0532    1.2477   -0.6072 C   0  0  0  0  0  0  0  0  0  0  0  0
    1.2398    1.9559   -0.6251 C   0  0  0  0  0  0  0  0  0  0  0  0
    2.3770    1.4210   -0.0485 C   0  0  0  0  0  0  0  0  0  0  0  0
    2.3331    0.1750    0.5488 C   0  0  0  0  0  0  0  0  0  0  0  0
    1.1474   -0.5415    0.5710 C   0  0  0  0  0  0  0  0  0  0  0  0
    1.1027   -1.7673    1.1577 O   0  0  0  0  0  0  0  0  0  0  0  0
    2.3162   -2.2560    1.7328 C   0  0  0  0  0  0  0  0  0  0  0  0
    1.2934    3.2905   -1.2631 N   0  3  0  0  0  0  0  0  0  0  0  0
    0.2926    3.7632   -1.7715 O   0  0  0  0  0  0  0  0  0  0  0  0
    2.3384    3.9160   -1.2798 O   0  5  0  0  0  0  0  0  0  0  0  0
   -4.7850    0.0816    0.3624 N   0  0  0  0  0  0  0  0  0  0  0  0
   -6.0647   -0.3193   -0.0281 C   0  0  0  0  0  0  0  0  0  0  0  0
   -6.2711   -1.6013   -0.5244 C   0  0  0  0  0  0  0  0  0  0  0  0
   -7.5365   -1.9990   -0.9105 C   0  0  0  0  0  0  0  0  0  0  0  0
   -8.6012   -1.1250   -0.8046 C   0  0  0  0  0  0  0  0  0  0  0  0
   -8.4021    0.1584   -0.3088 C   0  0  0  0  0  0  0  0  0  0  0  0
   -7.1322    0.5597    0.0842 C   0  0  0  0  0  0  0  0  0  0  0  0
   -9.7605    1.2724   -0.1735 S   0  0  0  0  0  0  0  0  0  0  0  0
  -11.1749    0.3163   -0.7869 C   0  0  0  0  0  0  0  0  0  0  0  0
   -4.5321   -2.2978    1.5836 H   0  0  0  0  0  0  0  0  0  0  0  0
   -2.7653   -2.4276    1.4110 H   0  0  0  0  0  0  0  0  0  0  0  0
   -3.4706   -1.1109    2.3791 H   0  0  0  0  0  0  0  0  0  0  0  0
   -1.1879   -1.6904   -0.0603 H   0  0  0  0  0  0  0  0  0  0  0  0
   -0.8324    1.6660   -1.0623 H   0  0  0  0  0  0  0  0  0  0  0  0
    3.3022    1.9780   -0.0649 H   0  0  0  0  0  0  0  0  0  0  0  0
    3.2232   -0.2401    0.9979 H   0  0  0  0  0  0  0  0  0  0  0  0
    3.0811   -2.3291    0.9596 H   0  0  0  0  0  0  0  0  0  0  0  0
    2.6511   -1.5706    2.5114 H   0  0  0  0  0  0  0  0  0  0  0  0
    2.1422   -3.2409    2.1659 H   0  0  0  0  0  0  0  0  0  0  0  0
   -4.6416    0.9762    0.7086 H   0  0  0  0  0  0  0  0  0  0  0  0
   -5.4411   -2.2871   -0.6085 H   0  0  0  0  0  0  0  0  0  0  0  0
   -7.6939   -2.9956   -1.2957 H   0  0  0  0  0  0  0  0  0  0  0  0
   -9.5892   -1.4392   -1.1071 H   0  0  0  0  0  0  0  0  0  0  0  0
   -6.9752    1.5548    0.4733 H   0  0  0  0  0  0  0  0  0  0  0  0
  -12.0749    0.9295   -0.7418 H   0  0  0  0  0  0  0  0  0  0  0  0
  -10.9908    0.0165   -1.8186 H   0  0  0  0  0  0  0  0  0  0  0  0
  -11.3087   -0.5715   -0.1689 H   0  0  0  0  0  0  0  0  0  0  0  0
  1  2  1  0  0  0  0
  1 27  1  0  0  0  0
  1 28  1  0  0  0  0
  1 29  1  0  0  0  0
  2  3  1  0  0  0  0
  2  4  1  0  0  0  0
  2 18  1  0  0  0  0
  4  5  2  0  0  0  0
  4  6  1  0  0  0  0
  6  7  1  0  0  0  0
  6 30  1  0  0  0  0
  7 12  2  0  0  0  0
  7  8  1  0  0  0  0
  8  9  2  0  0  0  0
  8 31  1  0  0  0  0
  9 10  1  0  0  0  0
  9 15  1  0  0  0  0
 10 11  2  0  0  0  0
 10 32  1  0  0  0  0
 11 12  1  0  0  0  0
 11 33  1  0  0  0  0
 12 13  1  0  0  0  0
 13 14  1  0  0  0  0
 14 34  1  0  0  0  0
 14 35  1  0  0  0  0
 14 36  1  0  0  0  0
 15 16  2  0  0  0  0
 15 17  1  0  0  0  0
 18 19  1  0  0  0  0
 18 37  1  0  0  0  0
 19 24  2  0  0  0  0
 19 20  1  0  0  0  0
 20 21  2  0  0  0  0
 20 38  1  0  0  0  0
 21 22  1  0  0  0  0
 21 39  1  0  0  0  0
 22 23  2  0  0  0  0
 22 40  1  0  0  0  0
 23 24  1  0  0  0  0
 23 25  1  0  0  0  0
 24 41  1  0  0  0  0
 25 26  1  0  0  0  0
 26 42  1  0  0  0  0
 26 43  1  0  0  0  0
 26 44  1  0  0  0  0
M  CHG  2  15   1  17  -1
M  END
$$$$
ZINC03419853
  -OEChem-08230709453D

 45 46  0     1  0  0  0  0  0999 V2000
   -1.6538    3.8908    4.7557 C   0  0  0  0  0  0  0  0  0  0  0  0
   -2.4339    2.6324    4.3699 C   0  0  1  0  0  0  0  0  0  0  0  0
   -2.2281    1.8418    5.0915 H   0  0  0  0  0  0  0  0  0  0  0  0
   -3.9096    2.9376    4.3663 C   0  0  0  0  0  0  0  0  0  0  0  0
   -4.5546    2.8016    3.3481 O   0  0  0  0  0  0  0  0  0  0  0  0
   -4.5128    3.3615    5.4945 N   0  0  0  0  0  0  0  0  0  0  0  0
   -5.8620    3.7361    5.4689 C   0  0  0  0  0  0  0  0  0  0  0  0
   -6.7525    3.0729    4.6358 C   0  0  0  0  0  0  0  0  0  0  0  0
   -8.0838    3.4410    4.6165 C   0  0  0  0  0  0  0  0  0  0  0  0
   -8.5290    4.4765    5.4177 C   0  0  0  0  0  0  0  0  0  0  0  0
   -7.6450    5.1437    6.2454 C   0  0  0  0  0  0  0  0  0  0  0  0
   -6.3117    4.7770    6.2737 C   0  0  0  0  0  0  0  0  0  0  0  0
   -5.4475    5.4294    7.0817 F   0  0  0  0  0  0  0  0  0  0  0  0
   -2.0227    2.1933    3.0341 N   0  0  0  0  0  0  0  0  0  0  0  0
   -0.8951    1.3786    2.8815 C   0  0  0  0  0  0  0  0  0  0  0  0
   -0.1664    0.9859    3.9939 C   0  0  0  0  0  0  0  0  0  0  0  0
    0.9511    0.1775    3.8392 C   0  0  0  0  0  0  0  0  0  0  0  0
    1.3388   -0.2368    2.5720 C   0  0  0  0  0  0  0  0  0  0  0  0
    0.6094    0.1491    1.4630 C   0  0  0  0  0  0  0  0  0  0  0  0
   -0.5031    0.9604    1.6117 C   0  0  0  0  0  0  0  0  0  0  0  0
   -1.2164    1.3444    0.5183 O   0  0  0  0  0  0  0  0  0  0  0  0
   -0.7573    0.8785   -0.7523 C   0  0  0  0  0  0  0  0  0  0  0  0
    1.6885   -0.2202    4.9621 N   0  0  0  0  0  0  0  0  0  0  0  0
    3.0272   -0.3513    4.8773 C   0  0  0  0  0  0  0  0  0  0  0  0
    3.5845   -0.2053    3.8099 O   0  0  0  0  0  0  0  0  0  0  0  0
    3.8317   -0.6793    6.1087 C   0  0  0  0  0  0  0  0  0  0  0  0
   -0.5864    3.6701    4.7583 H   0  0  0  0  0  0  0  0  0  0  0  0
   -1.8596    4.6813    4.0340 H   0  0  0  0  0  0  0  0  0  0  0  0
   -1.9597    4.2175    5.7496 H   0  0  0  0  0  0  0  0  0  0  0  0
   -4.0125    3.4071    6.3243 H   0  0  0  0  0  0  0  0  0  0  0  0
   -6.4054    2.2671    4.0060 H   0  0  0  0  0  0  0  0  0  0  0  0
   -8.7773    2.9222    3.9713 H   0  0  0  0  0  0  0  0  0  0  0  0
   -9.5695    4.7649    5.3965 H   0  0  0  0  0  0  0  0  0  0  0  0
   -7.9958    5.9520    6.8699 H   0  0  0  0  0  0  0  0  0  0  0  0
   -2.5321    2.4673    2.2554 H   0  0  0  0  0  0  0  0  0  0  0  0
   -0.4683    1.3084    4.9795 H   0  0  0  0  0  0  0  0  0  0  0  0
    2.2090   -0.8653    2.4529 H   0  0  0  0  0  0  0  0  0  0  0  0
    0.9102   -0.1788    0.4789 H   0  0  0  0  0  0  0  0  0  0  0  0
   -0.7664   -0.2113   -0.7646 H   0  0  0  0  0  0  0  0  0  0  0  0
    0.2580    1.2354   -0.9248 H   0  0  0  0  0  0  0  0  0  0  0  0
   -1.4134    1.2563   -1.5365 H   0  0  0  0  0  0  0  0  0  0  0  0
    1.2356   -0.4013    5.8005 H   0  0  0  0  0  0  0  0  0  0  0  0
    3.9151   -1.7613    6.2107 H   0  0  0  0  0  0  0  0  0  0  0  0
    4.8274   -0.2450    6.0185 H   0  0  0  0  0  0  0  0  0  0  0  0
    3.3345   -0.2688    6.9875 H   0  0  0  0  0  0  0  0  0  0  0  0
  1  2  1  0  0  0  0
  1 27  1  0  0  0  0
  1 28  1  0  0  0  0
  1 29  1  0  0  0  0
  2  3  1  0  0  0  0
  2  4  1  0  0  0  0
  2 14  1  0  0  0  0
  4  5  2  0  0  0  0
  4  6  1  0  0  0  0
  6  7  1  0  0  0  0
  6 30  1  0  0  0  0
  7 12  2  0  0  0  0
  7  8  1  0  0  0  0
  8  9  2  0  0  0  0
  8 31  1  0  0  0  0
  9 10  1  0  0  0  0
  9 32  1  0  0  0  0
 10 11  2  0  0  0  0
 10 33  1  0  0  0  0
 11 12  1  0  0  0  0
 11 34  1  0  0  0  0
 12 13  1  0  0  0  0
 14 15  1  0  0  0  0
 14 35  1  0  0  0  0
 15 20  2  0  0  0  0
 15 16  1  0  0  0  0
 16 17  2  0  0  0  0
 16 36  1  0  0  0  0
 17 18  1  0  0  0  0
 17 23  1  0  0  0  0
 18 19  2  0  0  0  0
 18 37  1  0  0  0  0
 19 20  1  0  0  0  0
 19 38  1  0  0  0  0
 20 21  1  0  0  0  0
 21 22  1  0  0  0  0
 22 39  1  0  0  0  0
 22 40  1  0  0  0  0
 22 41  1  0  0  0  0
 23 24  1  0  0  0  0
 23 42  1  0  0  0  0
 24 25  2  0  0  0  0
 24 26  1  0  0  0  0
 26 43  1  0  0  0  0
 26 44  1  0  0  0  0
 26 45  1  0  0  0  0
M  END
$$$$
ZINC03420637
  -OEChem-08230709453D

 42 44  0     0  0  0  0  0  0999 V2000
    1.1544    3.5653    0.0102 C   0  0  0  0  0  0  0  0  0  0  0  0
    1.1815    2.1867    0.0025 C   0  0  0  0  0  0  0  0  0  0  0  0
   -0.0179    1.4674    0.0101 C   0  0  0  0  0  0  0  0  0  0  0  0
   -1.2364    2.1538    0.0196 C   0  0  0  0  0  0  0  0  0  0  0  0
   -1.2467    3.5326    0.0330 C   0  0  0  0  0  0  0  0  0  0  0  0
   -0.0554    4.2372    0.0250 C   0  0  0  0  0  0  0  0  0  0  0  0
   -0.0759    5.7441    0.0328 C   0  0  0  0  0  0  0  0  0  0  0  0
   -0.7923    6.2379    1.2913 C   0  0  0  0  0  0  0  0  0  0  0  0
   -0.8130    7.7677    1.2993 C   0  0  0  0  0  0  0  0  0  0  0  0
   -1.5528    8.2742    0.0595 C   0  0  0  0  0  0  0  0  0  0  0  0
   -0.8364    7.7804   -1.1990 C   0  0  0  0  0  0  0  0  0  0  0  0
   -0.8157    6.2505   -1.2070 C   0  0  0  0  0  0  0  0  0  0  0  0
    0.0021   -0.0041    0.0020 C   0  0  0  0  0  0  0  0  0  0  0  0
    1.0602   -0.5960   -0.0113 O   0  0  0  0  0  0  0  0  0  0  0  0
   -1.2926   -0.7753    0.0102 C   0  0  0  0  0  0  0  0  0  0  0  0
   -0.9370   -2.5540   -0.0027 S   0  0  0  0  0  0  0  0  0  0  0  0
   -2.5299   -3.3072    0.0085 C   0  0  0  0  0  0  0  0  0  0  0  0
   -2.7837   -4.6502    0.0037 N   0  0  0  0  0  0  0  0  0  0  0  0
   -2.1185   -5.3562   -0.0065 H   0  0  0  0  0  0  0  0  0  0  0  0
   -4.1386   -4.8238    0.0165 C   0  0  0  0  0  0  0  0  0  0  0  0
   -4.6989   -3.6395    0.0287 N   0  0  0  0  0  0  0  0  0  0  0  0
   -3.6797   -2.6781    0.0286 N   0  0  0  0  0  0  0  0  0  0  0  0
   -4.8055   -6.0423    0.0170 N   0  0  0  0  0  0  0  0  0  0  0  0
    2.0798    4.1222    0.0044 H   0  0  0  0  0  0  0  0  0  0  0  0
    2.1264    1.6638   -0.0097 H   0  0  0  0  0  0  0  0  0  0  0  0
   -2.1667    1.6054    0.0210 H   0  0  0  0  0  0  0  0  0  0  0  0
   -2.1868    4.0641    0.0449 H   0  0  0  0  0  0  0  0  0  0  0  0
    0.9467    6.1214    0.0252 H   0  0  0  0  0  0  0  0  0  0  0  0
   -1.8148    5.8606    1.2990 H   0  0  0  0  0  0  0  0  0  0  0  0
   -0.2652    5.8770    2.1746 H   0  0  0  0  0  0  0  0  0  0  0  0
    0.2096    8.1450    1.2916 H   0  0  0  0  0  0  0  0  0  0  0  0
   -1.3234    8.1195    2.1959 H   0  0  0  0  0  0  0  0  0  0  0  0
   -1.5676    9.3641    0.0652 H   0  0  0  0  0  0  0  0  0  0  0  0
   -2.5754    7.8969    0.0672 H   0  0  0  0  0  0  0  0  0  0  0  0
    0.1862    8.1577   -1.2067 H   0  0  0  0  0  0  0  0  0  0  0  0
   -1.3634    8.1412   -2.0823 H   0  0  0  0  0  0  0  0  0  0  0  0
   -0.3053    5.8988   -2.1036 H   0  0  0  0  0  0  0  0  0  0  0  0
   -1.8383    5.8733   -1.1993 H   0  0  0  0  0  0  0  0  0  0  0  0
   -1.8124   -0.5453    0.8330 H   0  0  0  0  0  0  0  0  0  0  0  0
   -1.8762   -0.5150   -0.8728 H   0  0  0  0  0  0  0  0  0  0  0  0
   -4.3015   -6.8710    0.0077 H   0  0  0  0  0  0  0  0  0  0  0  0
   -5.7752   -6.0644    0.0267 H   0  0  0  0  0  0  0  0  0  0  0  0
  1  6  2  0  0  0  0
  1  2  1  0  0  0  0
  1 24  1  0  0  0  0
  2  3  2  0  0  0  0
  2 25  1  0  0  0  0
  3  4  1  0  0  0  0
  3 13  1  0  0  0  0
  4  5  2  0  0  0  0
  4 26  1  0  0  0  0
  5  6  1  0  0  0  0
  5 27  1  0  0  0  0
  6  7  1  0  0  0  0
  7 12  1  0  0  0  0
  7  8  1  0  0  0  0
  7 28  1  0  0  0  0
  8  9  1  0  0  0  0
  8 29  1  0  0  0  0
  8 30  1  0  0  0  0
  9 10  1  0  0  0  0
  9 31  1  0  0  0  0
  9 32  1  0  0  0  0
 10 11  1  0  0  0  0
 10 33  1  0  0  0  0
 10 34  1  0  0  0  0
 11 12  1  0  0  0  0
 11 35  1  0  0  0  0
 11 36  1  0  0  0  0
 12 37  1  0  0  0  0
 12 38  1  0  0  0  0
 13 14  2  0  0  0  0
 13 15  1  0  0  0  0
 15 16  1  0  0  0  0
 15 39  1  0  0  0  0
 15 40  1  0  0  0  0
 16 17  1  0  0  0  0
 17 22  2  0  0  0  0
 17 18  1  0  0  0  0
 18 19  1  0  0  0  0
 18 20  1  0  0  0  0
 20 21  2  0  0  0  0
 20 23  1  0  0  0  0
 21 22  1  0  0  0  0
 23 41  1  0  0  0  0
 23 42  1  0  0  0  0
M  END
$$$$
ZINC03428816
  -OEChem-08230709453D

 42 44  0     0  0  0  0  0  0999 V2000
    1.3266    8.1104    0.1559 C   0  0  0  0  0  0  0  0  0  0  0  0
    1.3103    8.6050    1.5793 C   0  0  0  0  0  0  0  0  0  0  0  0
    1.3154    9.9204    1.8405 C   0  0  0  0  0  0  0  0  0  0  0  0
    1.2908    9.9916    3.6219 S   0  0  0  0  0  0  0  0  0  0  0  0
    1.2744    8.2525    3.9675 C   0  0  0  0  0  0  0  0  0  0  0  0
    1.2945    7.6625    2.6844 C   0  0  0  0  0  0  0  0  0  0  0  0
    1.2790    6.2408    2.6672 C   0  0  0  0  0  0  0  0  0  0  0  0
    1.2585    5.5819    3.8147 N   0  0  0  0  0  0  0  0  0  0  0  0
    1.2466    6.2011    4.9813 C   0  0  0  0  0  0  0  0  0  0  0  0
    1.2542    7.5177    5.0617 N   0  0  0  0  0  0  0  0  0  0  0  0
    1.2908    5.5548    1.4661 N   0  0  0  0  0  0  0  0  0  0  0  0
    1.1399    4.0977    1.4532 C   0  0  0  0  0  0  0  0  0  0  0  0
    1.1874    3.5928    0.0096 C   0  0  0  0  0  0  0  0  0  0  0  0
    1.0322    2.0939   -0.0037 C   0  0  0  0  0  0  0  0  0  0  0  0
   -0.2269    1.5302   -0.0922 C   0  0  0  0  0  0  0  0  0  0  0  0
   -0.3693    0.1553   -0.1048 C   0  0  0  0  0  0  0  0  0  0  0  0
    0.7474   -0.6559   -0.0290 C   0  0  0  0  0  0  0  0  0  0  0  0
    2.0065   -0.0922    0.0590 C   0  0  0  0  0  0  0  0  0  0  0  0
    2.1490    1.2827    0.0708 C   0  0  0  0  0  0  0  0  0  0  0  0
    0.5658   -2.4085   -0.0439 S   0  0  0  0  0  0  0  0  0  0  0  0
    1.7219   -2.9420    0.5872 O   0  0  0  0  0  0  0  0  0  0  0  0
   -0.7496   -2.6845    0.4172 O   0  0  0  0  0  0  0  0  0  0  0  0
    0.6241   -2.8933   -1.6262 N   0  0  0  0  0  0  0  0  0  0  0  0
    1.3362   11.0658    0.8614 C   0  0  0  0  0  0  0  0  0  0  0  0
    2.3462    7.8473   -0.1257 H   0  0  0  0  0  0  0  0  0  0  0  0
    0.6875    7.2316    0.0693 H   0  0  0  0  0  0  0  0  0  0  0  0
    0.9578    8.8944   -0.5054 H   0  0  0  0  0  0  0  0  0  0  0  0
    1.2300    5.6167    5.8894 H   0  0  0  0  0  0  0  0  0  0  0  0
    1.3991    6.0387    0.6324 H   0  0  0  0  0  0  0  0  0  0  0  0
    0.1837    3.8275    1.9013 H   0  0  0  0  0  0  0  0  0  0  0  0
    1.9499    3.6434    2.0238 H   0  0  0  0  0  0  0  0  0  0  0  0
    2.1436    3.8631   -0.4385 H   0  0  0  0  0  0  0  0  0  0  0  0
    0.3774    4.0471   -0.5610 H   0  0  0  0  0  0  0  0  0  0  0  0
   -1.0991    2.1640   -0.1560 H   0  0  0  0  0  0  0  0  0  0  0  0
   -1.3530   -0.2851   -0.1736 H   0  0  0  0  0  0  0  0  0  0  0  0
    2.8789   -0.7261    0.1190 H   0  0  0  0  0  0  0  0  0  0  0  0
    3.1327    1.7231    0.1399 H   0  0  0  0  0  0  0  0  0  0  0  0
    0.7410   -2.2368   -2.3307 H   0  0  0  0  0  0  0  0  0  0  0  0
    0.5414   -3.8339   -1.8487 H   0  0  0  0  0  0  0  0  0  0  0  0
    1.3349   12.0098    1.4064 H   0  0  0  0  0  0  0  0  0  0  0  0
    2.2343   11.0022    0.2470 H   0  0  0  0  0  0  0  0  0  0  0  0
    0.4546   11.0139    0.2226 H   0  0  0  0  0  0  0  0  0  0  0  0
  1  2  1  0  0  0  0
  1 25  1  0  0  0  0
  1 26  1  0  0  0  0
  1 27  1  0  0  0  0
  2  6  1  0  0  0  0
  2  3  2  0  0  0  0
  3  4  1  0  0  0  0
  3 24  1  0  0  0  0
  4  5  1  0  0  0  0
  5 10  2  0  0  0  0
  5  6  1  0  0  0  0
  6  7  2  0  0  0  0
  7  8  1  0  0  0  0
  7 11  1  0  0  0  0
  8  9  2  0  0  0  0
  9 10  1  0  0  0  0
  9 28  1  0  0  0  0
 11 12  1  0  0  0  0
 11 29  1  0  0  0  0
 12 13  1  0  0  0  0
 12 30  1  0  0  0  0
 12 31  1  0  0  0  0
 13 14  1  0  0  0  0
 13 32  1  0  0  0  0
 13 33  1  0  0  0  0
 14 19  2  0  0  0  0
 14 15  1  0  0  0  0
 15 16  2  0  0  0  0
 15 34  1  0  0  0  0
 16 17  1  0  0  0  0
 16 35  1  0  0  0  0
 17 18  2  0  0  0  0
 17 20  1  0  0  0  0
 18 19  1  0  0  0  0
 18 36  1  0  0  0  0
 19 37  1  0  0  0  0
 20 21  2  0  0  0  0
 20 22  2  0  0  0  0
 20 23  1  0  0  0  0
 23 38  1  0  0  0  0
 23 39  1  0  0  0  0
 24 40  1  0  0  0  0
 24 41  1  0  0  0  0
 24 42  1  0  0  0  0
M  END
$$$$
ZINC03429018
  -OEChem-08230709453D

 45 46  0     1  0  0  0  0  0999 V2000
    2.2671    5.4941    1.7230 C   0  0  0  0  0  0  0  0  0  0  0  0
    2.4692    5.1709    0.2413 C   0  0  1  0  0  0  0  0  0  0  0  0
    1.5766    5.4529   -0.3172 H   0  0  0  0  0  0  0  0  0  0  0  0
    3.6541    5.9401   -0.2836 C   0  0  0  0  0  0  0  0  0  0  0  0
    4.6064    5.3470   -0.7443 O   0  0  0  0  0  0  0  0  0  0  0  0
    3.6555    7.2872   -0.2410 N   0  0  0  0  0  0  0  0  0  0  0  0
    4.7940    7.9991   -0.6381 C   0  0  0  0  0  0  0  0  0  0  0  0
    5.1345    9.1812    0.0058 C   0  0  0  0  0  0  0  0  0  0  0  0
    6.2616    9.8784   -0.3830 C   0  0  0  0  0  0  0  0  0  0  0  0
    7.0448    9.4059   -1.4228 C   0  0  0  0  0  0  0  0  0  0  0  0
    6.7035    8.2304   -2.0703 C   0  0  0  0  0  0  0  0  0  0  0  0
    5.5809    7.5268   -1.6801 C   0  0  0  0  0  0  0  0  0  0  0  0
    8.1435   10.0924   -1.8056 F   0  0  0  0  0  0  0  0  0  0  0  0
    2.7106    3.7346    0.0832 N   0  0  0  0  0  0  0  0  0  0  0  0
    1.6305    2.8495   -0.0091 C   0  0  0  0  0  0  0  0  0  0  0  0
    0.3314    3.3308    0.0484 C   0  0  0  0  0  0  0  0  0  0  0  0
   -0.7377    2.4504   -0.0439 C   0  0  0  0  0  0  0  0  0  0  0  0
   -0.5060    1.0903   -0.1993 C   0  0  0  0  0  0  0  0  0  0  0  0
    0.7887    0.6089   -0.2511 C   0  0  0  0  0  0  0  0  0  0  0  0
    1.8587    1.4833   -0.1594 C   0  0  0  0  0  0  0  0  0  0  0  0
    3.1327    1.0083   -0.2157 O   0  0  0  0  0  0  0  0  0  0  0  0
    3.2925   -0.4033   -0.3703 C   0  0  0  0  0  0  0  0  0  0  0  0
   -2.0509    2.9350    0.0141 N   0  0  0  0  0  0  0  0  0  0  0  0
   -3.0129    2.2049    0.6125 C   0  0  0  0  0  0  0  0  0  0  0  0
   -2.7611    1.0929    1.0262 O   0  0  0  0  0  0  0  0  0  0  0  0
   -4.4012    2.7702    0.7675 C   0  0  0  0  0  0  0  0  0  0  0  0
    3.1597    5.2120    2.2815 H   0  0  0  0  0  0  0  0  0  0  0  0
    2.0875    6.5627    1.8406 H   0  0  0  0  0  0  0  0  0  0  0  0
    1.4101    4.9377    2.1026 H   0  0  0  0  0  0  0  0  0  0  0  0
    2.8678    7.7636    0.0648 H   0  0  0  0  0  0  0  0  0  0  0  0
    4.5213    9.5526    0.8136 H   0  0  0  0  0  0  0  0  0  0  0  0
    6.5297   10.7952    0.1210 H   0  0  0  0  0  0  0  0  0  0  0  0
    7.3157    7.8634   -2.8808 H   0  0  0  0  0  0  0  0  0  0  0  0
    5.3154    6.6097   -2.1850 H   0  0  0  0  0  0  0  0  0  0  0  0
    3.6191    3.3971    0.0426 H   0  0  0  0  0  0  0  0  0  0  0  0
    0.1516    4.3894    0.1646 H   0  0  0  0  0  0  0  0  0  0  0  0
   -1.3388    0.4068   -0.2758 H   0  0  0  0  0  0  0  0  0  0  0  0
    0.9661   -0.4501   -0.3676 H   0  0  0  0  0  0  0  0  0  0  0  0
    2.8256   -0.9160    0.4707 H   0  0  0  0  0  0  0  0  0  0  0  0
    2.8194   -0.7230   -1.2988 H   0  0  0  0  0  0  0  0  0  0  0  0
    4.3543   -0.6476   -0.4006 H   0  0  0  0  0  0  0  0  0  0  0  0
   -2.2679    3.7960   -0.3765 H   0  0  0  0  0  0  0  0  0  0  0  0
   -4.4356    3.7718    0.3391 H   0  0  0  0  0  0  0  0  0  0  0  0
   -5.1145    2.1289    0.2498 H   0  0  0  0  0  0  0  0  0  0  0  0
   -4.6577    2.8187    1.8258 H   0  0  0  0  0  0  0  0  0  0  0  0
  1  2  1  0  0  0  0
  1 27  1  0  0  0  0
  1 28  1  0  0  0  0
  1 29  1  0  0  0  0
  2  3  1  0  0  0  0
  2  4  1  0  0  0  0
  2 14  1  0  0  0  0
  4  5  2  0  0  0  0
  4  6  1  0  0  0  0
  6  7  1  0  0  0  0
  6 30  1  0  0  0  0
  7 12  2  0  0  0  0
  7  8  1  0  0  0  0
  8  9  2  0  0  0  0
  8 31  1  0  0  0  0
  9 10  1  0  0  0  0
  9 32  1  0  0  0  0
 10 11  2  0  0  0  0
 10 13  1  0  0  0  0
 11 12  1  0  0  0  0
 11 33  1  0  0  0  0
 12 34  1  0  0  0  0
 14 15  1  0  0  0  0
 14 35  1  0  0  0  0
 15 20  2  0  0  0  0
 15 16  1  0  0  0  0
 16 17  2  0  0  0  0
 16 36  1  0  0  0  0
 17 18  1  0  0  0  0
 17 23  1  0  0  0  0
 18 19  2  0  0  0  0
 18 37  1  0  0  0  0
 19 20  1  0  0  0  0
 19 38  1  0  0  0  0
 20 21  1  0  0  0  0
 21 22  1  0  0  0  0
 22 39  1  0  0  0  0
 22 40  1  0  0  0  0
 22 41  1  0  0  0  0
 23 24  1  0  0  0  0
 23 42  1  0  0  0  0
 24 25  2  0  0  0  0
 24 26  1  0  0  0  0
 26 43  1  0  0  0  0
 26 44  1  0  0  0  0
 26 45  1  0  0  0  0
M  END
$$$$
ZINC03429020
  -OEChem-08230709453D

 45 46  0     1  0  0  0  0  0999 V2000
   -5.9202    3.9690    1.1073 C   0  0  0  0  0  0  0  0  0  0  0  0
   -5.9651    3.4584   -0.3343 C   0  0  2  0  0  0  0  0  0  0  0  0
   -5.0775    3.7983   -0.8679 H   0  0  0  0  0  0  0  0  0  0  0  0
   -7.1974    3.9921   -1.0181 C   0  0  0  0  0  0  0  0  0  0  0  0
   -8.0259    3.2246   -1.4606 O   0  0  0  0  0  0  0  0  0  0  0  0
   -7.3790    5.3222   -1.1380 N   0  0  0  0  0  0  0  0  0  0  0  0
   -8.5678    5.8200   -1.6854 C   0  0  0  0  0  0  0  0  0  0  0  0
   -9.2018    5.1328   -2.7119 C   0  0  0  0  0  0  0  0  0  0  0  0
  -10.3774    5.6225   -3.2465 C   0  0  0  0  0  0  0  0  0  0  0  0
  -10.9176    6.8040   -2.7673 C   0  0  0  0  0  0  0  0  0  0  0  0
  -10.2838    7.4939   -1.7476 C   0  0  0  0  0  0  0  0  0  0  0  0
   -9.1112    7.0046   -1.2063 C   0  0  0  0  0  0  0  0  0  0  0  0
  -12.0649    7.2841   -3.2951 F   0  0  0  0  0  0  0  0  0  0  0  0
   -6.0031    1.9939   -0.3327 N   0  0  0  0  0  0  0  0  0  0  0  0
   -4.8121    1.2631   -0.2528 C   0  0  0  0  0  0  0  0  0  0  0  0
   -3.5961    1.9241   -0.1694 C   0  0  0  0  0  0  0  0  0  0  0  0
   -2.4164    1.1965   -0.0955 C   0  0  0  0  0  0  0  0  0  0  0  0
   -2.4553   -0.1915   -0.0942 C   0  0  0  0  0  0  0  0  0  0  0  0
   -3.6675   -0.8512   -0.1721 C   0  0  0  0  0  0  0  0  0  0  0  0
   -4.8469   -0.1296   -0.2512 C   0  0  0  0  0  0  0  0  0  0  0  0
   -6.0394   -0.7808   -0.3269 O   0  0  0  0  0  0  0  0  0  0  0  0
   -6.0002   -2.2092   -0.3199 C   0  0  0  0  0  0  0  0  0  0  0  0
   -1.1865    1.8626   -0.0165 N   0  0  0  0  0  0  0  0  0  0  0  0
   -0.0979    1.3411   -0.6160 C   0  0  0  0  0  0  0  0  0  0  0  0
   -0.1627    0.2550   -1.1521 O   0  0  0  0  0  0  0  0  0  0  0  0
    1.1981    2.1101   -0.6256 C   0  0  0  0  0  0  0  0  0  0  0  0
   -5.8920    5.0586    1.1061 H   0  0  0  0  0  0  0  0  0  0  0  0
   -6.8078    3.6291    1.6409 H   0  0  0  0  0  0  0  0  0  0  0  0
   -5.0289    3.5830    1.6019 H   0  0  0  0  0  0  0  0  0  0  0  0
   -6.6861    5.9346   -0.8451 H   0  0  0  0  0  0  0  0  0  0  0  0
   -8.7784    4.2135   -3.0889 H   0  0  0  0  0  0  0  0  0  0  0  0
  -10.8734    5.0857   -4.0416 H   0  0  0  0  0  0  0  0  0  0  0  0
  -10.7070    8.4151   -1.3750 H   0  0  0  0  0  0  0  0  0  0  0  0
   -8.6174    7.5428   -0.4108 H   0  0  0  0  0  0  0  0  0  0  0  0
   -6.8536    1.5307   -0.3870 H   0  0  0  0  0  0  0  0  0  0  0  0
   -3.5665    3.0037   -0.1660 H   0  0  0  0  0  0  0  0  0  0  0  0
   -1.5370   -0.7565   -0.0326 H   0  0  0  0  0  0  0  0  0  0  0  0
   -3.6949   -1.9309   -0.1708 H   0  0  0  0  0  0  0  0  0  0  0  0
   -5.4198   -2.5609   -1.1728 H   0  0  0  0  0  0  0  0  0  0  0  0
   -5.5356   -2.5554    0.6034 H   0  0  0  0  0  0  0  0  0  0  0  0
   -7.0153   -2.6009   -0.3848 H   0  0  0  0  0  0  0  0  0  0  0  0
   -1.1184    2.6992    0.4697 H   0  0  0  0  0  0  0  0  0  0  0  0
    1.2361    2.7470   -1.5093 H   0  0  0  0  0  0  0  0  0  0  0  0
    1.2607    2.7277    0.2703 H   0  0  0  0  0  0  0  0  0  0  0  0
    2.0348    1.4118   -0.6447 H   0  0  0  0  0  0  0  0  0  0  0  0
  1  2  1  0  0  0  0
  1 27  1  0  0  0  0
  1 28  1  0  0  0  0
  1 29  1  0  0  0  0
  2  3  1  0  0  0  0
  2  4  1  0  0  0  0
  2 14  1  0  0  0  0
  4  5  2  0  0  0  0
  4  6  1  0  0  0  0
  6  7  1  0  0  0  0
  6 30  1  0  0  0  0
  7 12  2  0  0  0  0
  7  8  1  0  0  0  0
  8  9  2  0  0  0  0
  8 31  1  0  0  0  0
  9 10  1  0  0  0  0
  9 32  1  0  0  0  0
 10 11  2  0  0  0  0
 10 13  1  0  0  0  0
 11 12  1  0  0  0  0
 11 33  1  0  0  0  0
 12 34  1  0  0  0  0
 14 15  1  0  0  0  0
 14 35  1  0  0  0  0
 15 20  2  0  0  0  0
 15 16  1  0  0  0  0
 16 17  2  0  0  0  0
 16 36  1  0  0  0  0
 17 18  1  0  0  0  0
 17 23  1  0  0  0  0
 18 19  2  0  0  0  0
 18 37  1  0  0  0  0
 19 20  1  0  0  0  0
 19 38  1  0  0  0  0
 20 21  1  0  0  0  0
 21 22  1  0  0  0  0
 22 39  1  0  0  0  0
 22 40  1  0  0  0  0
 22 41  1  0  0  0  0
 23 24  1  0  0  0  0
 23 42  1  0  0  0  0
 24 25  2  0  0  0  0
 24 26  1  0  0  0  0
 26 43  1  0  0  0  0
 26 44  1  0  0  0  0
 26 45  1  0  0  0  0
M  END
$$$$
ZINC03433947
  -OEChem-08230709453D

 39 41  0     0  0  0  0  0  0999 V2000
    1.5421    8.5958    9.6831 C   0  0  0  0  0  0  0  0  0  0  0  0
    0.9059    7.8098   10.8005 C   0  0  0  0  0  0  0  0  0  0  0  0
    1.1276    8.1729   12.1146 C   0  0  0  0  0  0  0  0  0  0  0  0
    0.5439    7.4526   13.1403 C   0  0  0  0  0  0  0  0  0  0  0  0
   -0.2635    6.3666   12.8546 C   0  0  0  0  0  0  0  0  0  0  0  0
   -0.4938    6.0018   11.5428 C   0  0  0  0  0  0  0  0  0  0  0  0
    0.0957    6.7199   10.5101 C   0  0  0  0  0  0  0  0  0  0  0  0
   -0.1307    6.3496    9.1808 N   0  0  0  0  0  0  0  0  0  0  0  0
   -0.4769    5.0475    8.8759 C   0  0  0  0  0  0  0  0  0  0  0  0
   -0.8065    4.7202    7.6284 N   0  0  0  0  0  0  0  0  0  0  0  0
   -1.1374    3.4749    7.3357 C   0  0  0  0  0  0  0  0  0  0  0  0
   -1.1478    2.5507    8.2805 N   0  0  0  0  0  0  0  0  0  0  0  0
   -0.8142    2.8691    9.5291 C   0  0  0  0  0  0  0  0  0  0  0  0
   -0.4809    4.1203    9.8272 N   0  0  0  0  0  0  0  0  0  0  0  0
   -0.8199    1.9023   10.5137 N   0  0  0  0  0  0  0  0  0  0  0  0
   -1.5099    3.1087    5.9221 C   0  0  0  0  0  0  0  0  0  0  0  0
   -0.0245    2.6074    5.0174 S   0  0  0  0  0  0  0  0  0  0  0  0
   -0.7317    2.2454    3.4447 C   0  0  0  0  0  0  0  0  0  0  0  0
   -0.1363    1.8233    2.3448 N   0  0  0  0  0  0  0  0  0  0  0  0
   -0.8229    1.5981    1.2406 C   0  0  0  0  0  0  0  0  0  0  0  0
   -2.1598    1.8147    1.2556 C   0  0  0  0  0  0  0  0  0  0  0  0
   -2.3911    2.3515    2.9441 S   0  0  0  0  0  0  0  0  0  0  0  0
   -0.1342    1.1169   -0.0105 C   0  0  0  0  0  0  0  0  0  0  0  0
    0.8752    9.4036    9.3816 H   0  0  0  0  0  0  0  0  0  0  0  0
    2.4881    9.0146   10.0263 H   0  0  0  0  0  0  0  0  0  0  0  0
    1.7231    7.9377    8.8332 H   0  0  0  0  0  0  0  0  0  0  0  0
    1.7572    9.0207   12.3411 H   0  0  0  0  0  0  0  0  0  0  0  0
    0.7185    7.7388   14.1670 H   0  0  0  0  0  0  0  0  0  0  0  0
   -0.7179    5.8061   13.6581 H   0  0  0  0  0  0  0  0  0  0  0  0
   -1.1282    5.1567   11.3202 H   0  0  0  0  0  0  0  0  0  0  0  0
   -0.0447    7.0070    8.4728 H   0  0  0  0  0  0  0  0  0  0  0  0
   -0.5805    2.1359   11.4242 H   0  0  0  0  0  0  0  0  0  0  0  0
   -1.0633    0.9891   10.2953 H   0  0  0  0  0  0  0  0  0  0  0  0
   -1.9612    3.9704    5.4305 H   0  0  0  0  0  0  0  0  0  0  0  0
   -2.2224    2.2839    5.9362 H   0  0  0  0  0  0  0  0  0  0  0  0
   -2.8860    1.6946    0.4653 H   0  0  0  0  0  0  0  0  0  0  0  0
   -0.1186    0.0270   -0.0204 H   0  0  0  0  0  0  0  0  0  0  0  0
    0.8879    1.4951   -0.0310 H   0  0  0  0  0  0  0  0  0  0  0  0
   -0.6737    1.4805   -0.8850 H   0  0  0  0  0  0  0  0  0  0  0  0
  1  2  1  0  0  0  0
  1 24  1  0  0  0  0
  1 25  1  0  0  0  0
  1 26  1  0  0  0  0
  2  7  2  0  0  0  0
  2  3  1  0  0  0  0
  3  4  2  0  0  0  0
  3 27  1  0  0  0  0
  4  5  1  0  0  0  0
  4 28  1  0  0  0  0
  5  6  2  0  0  0  0
  5 29  1  0  0  0  0
  6  7  1  0  0  0  0
  6 30  1  0  0  0  0
  7  8  1  0  0  0  0
  8  9  1  0  0  0  0
  8 31  1  0  0  0  0
  9 14  2  0  0  0  0
  9 10  1  0  0  0  0
 10 11  2  0  0  0  0
 11 12  1  0  0  0  0
 11 16  1  0  0  0  0
 12 13  2  0  0  0  0
 13 14  1  0  0  0  0
 13 15  1  0  0  0  0
 15 32  1  0  0  0  0
 15 33  1  0  0  0  0
 16 17  1  0  0  0  0
 16 34  1  0  0  0  0
 16 35  1  0  0  0  0
 17 18  1  0  0  0  0
 18 22  1  0  0  0  0
 18 19  2  0  0  0  0
 19 20  1  0  0  0  0
 20 21  2  0  0  0  0
 20 23  1  0  0  0  0
 21 22  1  0  0  0  0
 21 36  1  0  0  0  0
 23 37  1  0  0  0  0
 23 38  1  0  0  0  0
 23 39  1  0  0  0  0
M  END
$$$$
ZINC03450375
  -OEChem-08230709453D

 44 45  0     0  0  0  0  0  0999 V2000
    3.3886   -0.7365    1.1873 C   0  0  0  0  0  0  0  0  0  0  0  0
    2.2454    0.0143    0.5545 C   0  0  0  0  0  0  0  0  0  0  0  0
    1.2107   -0.6801   -0.0454 C   0  0  0  0  0  0  0  0  0  0  0  0
    0.1603    0.0050   -0.6275 C   0  0  0  0  0  0  0  0  0  0  0  0
    0.1409    1.3861   -0.6108 C   0  0  0  0  0  0  0  0  0  0  0  0
    1.1780    2.0863   -0.0090 C   0  0  0  0  0  0  0  0  0  0  0  0
    2.2320    1.3950    0.5745 C   0  0  0  0  0  0  0  0  0  0  0  0
    3.3594    2.1509    1.2292 C   0  0  0  0  0  0  0  0  0  0  0  0
    1.1616    3.4853    0.0092 N   0  0  0  0  0  0  0  0  0  0  0  0
   -0.0095    4.1467   -0.0782 C   0  0  0  0  0  0  0  0  0  0  0  0
   -1.0550    3.5321   -0.0717 O   0  0  0  0  0  0  0  0  0  0  0  0
   -0.0198    5.6500   -0.1841 C   0  0  0  0  0  0  0  0  0  0  0  0
   -1.3912    6.1201   -0.2651 O   0  0  0  0  0  0  0  0  0  0  0  0
   -1.5768    7.4515   -0.3651 C   0  0  0  0  0  0  0  0  0  0  0  0
   -0.6185    8.1990   -0.3840 O   0  0  0  0  0  0  0  0  0  0  0  0
   -2.9388    7.9996   -0.4513 C   0  0  0  0  0  0  0  0  0  0  0  0
   -4.0443    7.1409   -0.4297 C   0  0  0  0  0  0  0  0  0  0  0  0
   -5.3082    7.6504   -0.5097 C   0  0  0  0  0  0  0  0  0  0  0  0
   -5.5077    9.0271   -0.6129 C   0  0  0  0  0  0  0  0  0  0  0  0
   -4.4207    9.8917   -0.6355 C   0  0  0  0  0  0  0  0  0  0  0  0
   -3.1352    9.3864   -0.5496 C   0  0  0  0  0  0  0  0  0  0  0  0
   -2.0701   10.2264   -0.5656 O   0  0  0  0  0  0  0  0  0  0  0  0
   -2.3478   11.6245   -0.6676 C   0  0  0  0  0  0  0  0  0  0  0  0
   -6.7996    9.5360   -0.6938 N   0  0  0  0  0  0  0  0  0  0  0  0
   -6.6743    6.5795   -0.4825 Cl  0  0  0  0  0  0  0  0  0  0  0  0
    4.1706   -0.9000    0.4459 H   0  0  0  0  0  0  0  0  0  0  0  0
    3.7903   -0.1548    2.0170 H   0  0  0  0  0  0  0  0  0  0  0  0
    3.0316   -1.6978    1.5568 H   0  0  0  0  0  0  0  0  0  0  0  0
    1.2234   -1.7600   -0.0594 H   0  0  0  0  0  0  0  0  0  0  0  0
   -0.6460   -0.5402   -1.0954 H   0  0  0  0  0  0  0  0  0  0  0  0
   -0.6778    1.9208   -1.0693 H   0  0  0  0  0  0  0  0  0  0  0  0
    4.1382    2.3511    0.4933 H   0  0  0  0  0  0  0  0  0  0  0  0
    2.9827    3.0940    1.6253 H   0  0  0  0  0  0  0  0  0  0  0  0
    3.7727    1.5545    2.0425 H   0  0  0  0  0  0  0  0  0  0  0  0
    1.9930    3.9792    0.0848 H   0  0  0  0  0  0  0  0  0  0  0  0
    0.4602    6.0794    0.6953 H   0  0  0  0  0  0  0  0  0  0  0  0
    0.5223    5.9549   -1.0792 H   0  0  0  0  0  0  0  0  0  0  0  0
   -3.8969    6.0740   -0.3501 H   0  0  0  0  0  0  0  0  0  0  0  0
   -4.5788   10.9571   -0.7158 H   0  0  0  0  0  0  0  0  0  0  0  0
   -2.8894   11.8207   -1.5929 H   0  0  0  0  0  0  0  0  0  0  0  0
   -2.9548   11.9373    0.1820 H   0  0  0  0  0  0  0  0  0  0  0  0
   -1.4111   12.1818   -0.6697 H   0  0  0  0  0  0  0  0  0  0  0  0
   -7.5599    8.9338   -0.6785 H   0  0  0  0  0  0  0  0  0  0  0  0
   -6.9403   10.4930   -0.7656 H   0  0  0  0  0  0  0  0  0  0  0  0
  1  2  1  0  0  0  0
  1 26  1  0  0  0  0
  1 27  1  0  0  0  0
  1 28  1  0  0  0  0
  2  7  2  0  0  0  0
  2  3  1  0  0  0  0
  3  4  2  0  0  0  0
  3 29  1  0  0  0  0
  4  5  1  0  0  0  0
  4 30  1  0  0  0  0
  5  6  2  0  0  0  0
  5 31  1  0  0  0  0
  6  7  1  0  0  0  0
  6  9  1  0  0  0  0
  7  8  1  0  0  0  0
  8 32  1  0  0  0  0
  8 33  1  0  0  0  0
  8 34  1  0  0  0  0
  9 10  1  0  0  0  0
  9 35  1  0  0  0  0
 10 11  2  0  0  0  0
 10 12  1  0  0  0  0
 12 13  1  0  0  0  0
 12 36  1  0  0  0  0
 12 37  1  0  0  0  0
 13 14  1  0  0  0  0
 14 15  2  0  0  0  0
 14 16  1  0  0  0  0
 16 21  2  0  0  0  0
 16 17  1  0  0  0  0
 17 18  2  0  0  0  0
 17 38  1  0  0  0  0
 18 19  1  0  0  0  0
 18 25  1  0  0  0  0
 19 20  2  0  0  0  0
 19 24  1  0  0  0  0
 20 21  1  0  0  0  0
 20 39  1  0  0  0  0
 21 22  1  0  0  0  0
 22 23  1  0  0  0  0
 23 40  1  0  0  0  0
 23 41  1  0  0  0  0
 23 42  1  0  0  0  0
 24 43  1  0  0  0  0
 24 44  1  0  0  0  0
M  END
$$$$
ZINC03450388
  -OEChem-08230709453D

 42 43  0     0  0  0  0  0  0999 V2000
   -1.8071   -0.3619   -1.3952 C   0  0  0  0  0  0  0  0  0  0  0  0
   -1.8849    1.0642   -1.4421 O   0  0  0  0  0  0  0  0  0  0  0  0
   -0.9693    1.7563   -0.7144 C   0  0  0  0  0  0  0  0  0  0  0  0
   -0.0154    1.0757    0.0297 C   0  0  0  0  0  0  0  0  0  0  0  0
    0.9199    1.7781    0.7651 C   0  0  0  0  0  0  0  0  0  0  0  0
    0.9056    3.1597    0.7665 C   0  0  0  0  0  0  0  0  0  0  0  0
   -0.0497    3.8459    0.0281 C   0  0  0  0  0  0  0  0  0  0  0  0
   -0.9904    3.1420   -0.7110 C   0  0  0  0  0  0  0  0  0  0  0  0
   -0.0642    5.2450    0.0295 N   0  0  0  0  0  0  0  0  0  0  0  0
    1.0922    5.9308    0.1238 C   0  0  0  0  0  0  0  0  0  0  0  0
    2.1509    5.3392    0.1111 O   0  0  0  0  0  0  0  0  0  0  0  0
    1.0697    7.4328    0.2451 C   0  0  0  0  0  0  0  0  0  0  0  0
    2.4306    7.9318    0.3312 O   0  0  0  0  0  0  0  0  0  0  0  0
    2.5872    9.2658    0.4448 C   0  0  0  0  0  0  0  0  0  0  0  0
    1.6128    9.9921    0.4713 O   0  0  0  0  0  0  0  0  0  0  0  0
    3.9369    9.8426    0.5368 C   0  0  0  0  0  0  0  0  0  0  0  0
    5.0608    9.0085    0.5066 C   0  0  0  0  0  0  0  0  0  0  0  0
    6.3134    9.5445    0.5920 C   0  0  0  0  0  0  0  0  0  0  0  0
    6.4828   10.9241    0.7093 C   0  0  0  0  0  0  0  0  0  0  0  0
    5.3773   11.7645    0.7406 C   0  0  0  0  0  0  0  0  0  0  0  0
    4.1031   11.2323    0.6494 C   0  0  0  0  0  0  0  0  0  0  0  0
    3.0199   12.0487    0.6739 O   0  0  0  0  0  0  0  0  0  0  0  0
    3.2671   13.4513    0.7903 C   0  0  0  0  0  0  0  0  0  0  0  0
    7.7634   11.4601    0.7956 N   0  0  0  0  0  0  0  0  0  0  0  0
    7.7024    8.5039    0.5538 Cl  0  0  0  0  0  0  0  0  0  0  0  0
   -0.8340   -0.6851   -1.7651 H   0  0  0  0  0  0  0  0  0  0  0  0
   -1.9350   -0.6991   -0.3666 H   0  0  0  0  0  0  0  0  0  0  0  0
   -2.5929   -0.7894   -2.0180 H   0  0  0  0  0  0  0  0  0  0  0  0
   -0.0016   -0.0042    0.0302 H   0  0  0  0  0  0  0  0  0  0  0  0
    1.6638    1.2462    1.3397 H   0  0  0  0  0  0  0  0  0  0  0  0
    1.6381    3.7064    1.3419 H   0  0  0  0  0  0  0  0  0  0  0  0
   -1.7346    3.6732   -1.2858 H   0  0  0  0  0  0  0  0  0  0  0  0
   -0.9065    5.7214   -0.0375 H   0  0  0  0  0  0  0  0  0  0  0  0
    0.5804    7.8607   -0.6298 H   0  0  0  0  0  0  0  0  0  0  0  0
    0.5212    7.7166    1.1433 H   0  0  0  0  0  0  0  0  0  0  0  0
    4.9367    7.9394    0.4159 H   0  0  0  0  0  0  0  0  0  0  0  0
    5.5121   12.8322    0.8319 H   0  0  0  0  0  0  0  0  0  0  0  0
    2.3185   13.9880    0.7981 H   0  0  0  0  0  0  0  0  0  0  0  0
    3.8045   13.6497    1.7177 H   0  0  0  0  0  0  0  0  0  0  0  0
    3.8670   13.7860   -0.0559 H   0  0  0  0  0  0  0  0  0  0  0  0
    8.5366   10.8748    0.7742 H   0  0  0  0  0  0  0  0  0  0  0  0
    7.8832   12.4192    0.8772 H   0  0  0  0  0  0  0  0  0  0  0  0
  1  2  1  0  0  0  0
  1 26  1  0  0  0  0
  1 27  1  0  0  0  0
  1 28  1  0  0  0  0
  2  3  1  0  0  0  0
  3  8  2  0  0  0  0
  3  4  1  0  0  0  0
  4  5  2  0  0  0  0
  4 29  1  0  0  0  0
  5  6  1  0  0  0  0
  5 30  1  0  0  0  0
  6  7  2  0  0  0  0
  6 31  1  0  0  0  0
  7  8  1  0  0  0  0
  7  9  1  0  0  0  0
  8 32  1  0  0  0  0
  9 10  1  0  0  0  0
  9 33  1  0  0  0  0
 10 11  2  0  0  0  0
 10 12  1  0  0  0  0
 12 13  1  0  0  0  0
 12 34  1  0  0  0  0
 12 35  1  0  0  0  0
 13 14  1  0  0  0  0
 14 15  2  0  0  0  0
 14 16  1  0  0  0  0
 16 21  2  0  0  0  0
 16 17  1  0  0  0  0
 17 18  2  0  0  0  0
 17 36  1  0  0  0  0
 18 19  1  0  0  0  0
 18 25  1  0  0  0  0
 19 20  2  0  0  0  0
 19 24  1  0  0  0  0
 20 21  1  0  0  0  0
 20 37  1  0  0  0  0
 21 22  1  0  0  0  0
 22 23  1  0  0  0  0
 23 38  1  0  0  0  0
 23 39  1  0  0  0  0
 23 40  1  0  0  0  0
 24 41  1  0  0  0  0
 24 42  1  0  0  0  0
M  END
$$$$
ZINC03450392
  -OEChem-08230709453D

 41 42  0     0  0  0  0  0  0999 V2000
   -1.9805    0.9854   -1.5214 C   0  0  0  0  0  0  0  0  0  0  0  0
   -0.9658    1.7540   -0.7147 C   0  0  0  0  0  0  0  0  0  0  0  0
   -0.0142    1.0757    0.0251 C   0  0  0  0  0  0  0  0  0  0  0  0
    0.9220    1.7773    0.7619 C   0  0  0  0  0  0  0  0  0  0  0  0
    0.9067    3.1585    0.7651 C   0  0  0  0  0  0  0  0  0  0  0  0
   -0.0506    3.8424    0.0276 C   0  0  0  0  0  0  0  0  0  0  0  0
   -0.9900    3.1347   -0.7112 C   0  0  0  0  0  0  0  0  0  0  0  0
   -0.0691    5.2415    0.0290 N   0  0  0  0  0  0  0  0  0  0  0  0
    1.0853    5.9306    0.1234 C   0  0  0  0  0  0  0  0  0  0  0  0
    2.1457    5.3420    0.1107 O   0  0  0  0  0  0  0  0  0  0  0  0
    1.0585    7.4325    0.2448 C   0  0  0  0  0  0  0  0  0  0  0  0
    2.4179    7.9354    0.3309 O   0  0  0  0  0  0  0  0  0  0  0  0
    2.5707    9.2699    0.4445 C   0  0  0  0  0  0  0  0  0  0  0  0
    1.5942    9.9934    0.4710 O   0  0  0  0  0  0  0  0  0  0  0  0
    3.9187    9.8505    0.5366 C   0  0  0  0  0  0  0  0  0  0  0  0
    5.0451    9.0197    0.5063 C   0  0  0  0  0  0  0  0  0  0  0  0
    6.2961    9.5593    0.5917 C   0  0  0  0  0  0  0  0  0  0  0  0
    6.4616   10.9394    0.7091 C   0  0  0  0  0  0  0  0  0  0  0  0
    5.3536   11.7766    0.7404 C   0  0  0  0  0  0  0  0  0  0  0  0
    4.0810   11.2407    0.6492 C   0  0  0  0  0  0  0  0  0  0  0  0
    2.9954   12.0540    0.6737 O   0  0  0  0  0  0  0  0  0  0  0  0
    3.2386   13.4573    0.7902 C   0  0  0  0  0  0  0  0  0  0  0  0
    7.7406   11.4791    0.7954 N   0  0  0  0  0  0  0  0  0  0  0  0
    7.6881    8.5228    0.5536 Cl  0  0  0  0  0  0  0  0  0  0  0  0
   -2.8601    0.7905   -0.9079 H   0  0  0  0  0  0  0  0  0  0  0  0
   -2.2689    1.5704   -2.3947 H   0  0  0  0  0  0  0  0  0  0  0  0
   -1.5463    0.0394   -1.8449 H   0  0  0  0  0  0  0  0  0  0  0  0
    0.0003   -0.0042    0.0237 H   0  0  0  0  0  0  0  0  0  0  0  0
    1.6663    1.2447    1.3354 H   0  0  0  0  0  0  0  0  0  0  0  0
    1.6387    3.7059    1.3403 H   0  0  0  0  0  0  0  0  0  0  0  0
   -1.7361    3.6637   -1.2856 H   0  0  0  0  0  0  0  0  0  0  0  0
   -0.9128    5.7154   -0.0379 H   0  0  0  0  0  0  0  0  0  0  0  0
    0.5680    7.8590   -0.6302 H   0  0  0  0  0  0  0  0  0  0  0  0
    0.5092    7.7147    1.1429 H   0  0  0  0  0  0  0  0  0  0  0  0
    4.9241    7.9503    0.4156 H   0  0  0  0  0  0  0  0  0  0  0  0
    5.4853   12.8447    0.8318 H   0  0  0  0  0  0  0  0  0  0  0  0
    3.7753   13.6573    1.7176 H   0  0  0  0  0  0  0  0  0  0  0  0
    3.8375   13.7937   -0.0561 H   0  0  0  0  0  0  0  0  0  0  0  0
    2.2884   13.9913    0.7979 H   0  0  0  0  0  0  0  0  0  0  0  0
    8.5155   10.8960    0.7740 H   0  0  0  0  0  0  0  0  0  0  0  0
    7.8576   12.4385    0.8771 H   0  0  0  0  0  0  0  0  0  0  0  0
  1  2  1  0  0  0  0
  1 25  1  0  0  0  0
  1 26  1  0  0  0  0
  1 27  1  0  0  0  0
  2  7  2  0  0  0  0
  2  3  1  0  0  0  0
  3  4  2  0  0  0  0
  3 28  1  0  0  0  0
  4  5  1  0  0  0  0
  4 29  1  0  0  0  0
  5  6  2  0  0  0  0
  5 30  1  0  0  0  0
  6  7  1  0  0  0  0
  6  8  1  0  0  0  0
  7 31  1  0  0  0  0
  8  9  1  0  0  0  0
  8 32  1  0  0  0  0
  9 10  2  0  0  0  0
  9 11  1  0  0  0  0
 11 12  1  0  0  0  0
 11 33  1  0  0  0  0
 11 34  1  0  0  0  0
 12 13  1  0  0  0  0
 13 14  2  0  0  0  0
 13 15  1  0  0  0  0
 15 20  2  0  0  0  0
 15 16  1  0  0  0  0
 16 17  2  0  0  0  0
 16 35  1  0  0  0  0
 17 18  1  0  0  0  0
 17 24  1  0  0  0  0
 18 19  2  0  0  0  0
 18 23  1  0  0  0  0
 19 20  1  0  0  0  0
 19 36  1  0  0  0  0
 20 21  1  0  0  0  0
 21 22  1  0  0  0  0
 22 37  1  0  0  0  0
 22 38  1  0  0  0  0
 22 39  1  0  0  0  0
 23 40  1  0  0  0  0
 23 41  1  0  0  0  0
M  END
$$$$
ZINC03450399
  -OEChem-08230709453D

 44 45  0     0  0  0  0  0  0999 V2000
   -2.0210    1.4261   -1.7073 C   0  0  0  0  0  0  0  0  0  0  0  0
   -1.0575    2.1523   -0.8044 C   0  0  0  0  0  0  0  0  0  0  0  0
   -1.1428    3.5235   -0.6624 C   0  0  0  0  0  0  0  0  0  0  0  0
   -0.2551    4.1913    0.1611 C   0  0  0  0  0  0  0  0  0  0  0  0
    0.7167    3.4885    0.8495 C   0  0  0  0  0  0  0  0  0  0  0  0
    0.8033    2.1165    0.7167 C   0  0  0  0  0  0  0  0  0  0  0  0
   -0.0867    1.4429   -0.1096 C   0  0  0  0  0  0  0  0  0  0  0  0
   -0.0017    0.0529   -0.2463 N   0  0  0  0  0  0  0  0  0  0  0  0
   -1.0737   -0.7177    0.0246 C   0  0  0  0  0  0  0  0  0  0  0  0
   -2.1368   -0.2027    0.3000 O   0  0  0  0  0  0  0  0  0  0  0  0
   -0.9516   -2.2192   -0.0145 C   0  0  0  0  0  0  0  0  0  0  0  0
   -2.2338   -2.8177    0.3113 O   0  0  0  0  0  0  0  0  0  0  0  0
   -2.2960   -4.1643    0.3202 C   0  0  0  0  0  0  0  0  0  0  0  0
   -1.3055   -4.8202    0.0627 O   0  0  0  0  0  0  0  0  0  0  0  0
   -3.5622   -4.8398    0.6415 C   0  0  0  0  0  0  0  0  0  0  0  0
   -4.7045   -4.0868    0.9384 C   0  0  0  0  0  0  0  0  0  0  0  0
   -5.8795   -4.7145    1.2365 C   0  0  0  0  0  0  0  0  0  0  0  0
   -5.9511   -6.1076    1.2472 C   0  0  0  0  0  0  0  0  0  0  0  0
   -4.8262   -6.8682    0.9547 C   0  0  0  0  0  0  0  0  0  0  0  0
   -3.6312   -6.2422    0.6459 C   0  0  0  0  0  0  0  0  0  0  0  0
   -2.5308   -6.9799    0.3539 O   0  0  0  0  0  0  0  0  0  0  0  0
   -2.6773   -8.4011    0.3781 C   0  0  0  0  0  0  0  0  0  0  0  0
   -7.1532   -6.7373    1.5522 N   0  0  0  0  0  0  0  0  0  0  0  0
   -7.2919   -3.7743    1.6037 Cl  0  0  0  0  0  0  0  0  0  0  0  0
    1.8620    1.3512    1.4680 C   0  0  0  0  0  0  0  0  0  0  0  0
   -2.9529    1.2431   -1.1722 H   0  0  0  0  0  0  0  0  0  0  0  0
   -2.2219    2.0348   -2.5890 H   0  0  0  0  0  0  0  0  0  0  0  0
   -1.5853    0.4752   -2.0139 H   0  0  0  0  0  0  0  0  0  0  0  0
   -1.9006    4.0753   -1.1987 H   0  0  0  0  0  0  0  0  0  0  0  0
   -0.3207    5.2642    0.2667 H   0  0  0  0  0  0  0  0  0  0  0  0
    1.4085    4.0129    1.4919 H   0  0  0  0  0  0  0  0  0  0  0  0
    0.8287   -0.3560   -0.5361 H   0  0  0  0  0  0  0  0  0  0  0  0
   -0.6473   -2.5331   -1.0130 H   0  0  0  0  0  0  0  0  0  0  0  0
   -0.2051   -2.5421    0.7111 H   0  0  0  0  0  0  0  0  0  0  0  0
   -4.6559   -3.0079    0.9320 H   0  0  0  0  0  0  0  0  0  0  0  0
   -4.8852   -7.9465    0.9642 H   0  0  0  0  0  0  0  0  0  0  0  0
   -2.9862   -8.7176    1.3744 H   0  0  0  0  0  0  0  0  0  0  0  0
   -3.4321   -8.7010   -0.3487 H   0  0  0  0  0  0  0  0  0  0  0  0
   -1.7252   -8.8689    0.1272 H   0  0  0  0  0  0  0  0  0  0  0  0
   -7.9398   -6.2078    1.7570 H   0  0  0  0  0  0  0  0  0  0  0  0
   -7.2050   -7.7059    1.5601 H   0  0  0  0  0  0  0  0  0  0  0  0
    2.7630    1.2837    0.8583 H   0  0  0  0  0  0  0  0  0  0  0  0
    2.0917    1.8682    2.3997 H   0  0  0  0  0  0  0  0  0  0  0  0
    1.4971    0.3483    1.6894 H   0  0  0  0  0  0  0  0  0  0  0  0
  1  2  1  0  0  0  0
  1 26  1  0  0  0  0
  1 27  1  0  0  0  0
  1 28  1  0  0  0  0
  2  7  2  0  0  0  0
  2  3  1  0  0  0  0
  3  4  2  0  0  0  0
  3 29  1  0  0  0  0
  4  5  1  0  0  0  0
  4 30  1  0  0  0  0
  5  6  2  0  0  0  0
  5 31  1  0  0  0  0
  6  7  1  0  0  0  0
  6 25  1  0  0  0  0
  7  8  1  0  0  0  0
  8  9  1  0  0  0  0
  8 32  1  0  0  0  0
  9 10  2  0  0  0  0
  9 11  1  0  0  0  0
 11 12  1  0  0  0  0
 11 33  1  0  0  0  0
 11 34  1  0  0  0  0
 12 13  1  0  0  0  0
 13 14  2  0  0  0  0
 13 15  1  0  0  0  0
 15 20  2  0  0  0  0
 15 16  1  0  0  0  0
 16 17  2  0  0  0  0
 16 35  1  0  0  0  0
 17 18  1  0  0  0  0
 17 24  1  0  0  0  0
 18 19  2  0  0  0  0
 18 23  1  0  0  0  0
 19 20  1  0  0  0  0
 19 36  1  0  0  0  0
 20 21  1  0  0  0  0
 21 22  1  0  0  0  0
 22 37  1  0  0  0  0
 22 38  1  0  0  0  0
 22 39  1  0  0  0  0
 23 40  1  0  0  0  0
 23 41  1  0  0  0  0
 25 42  1  0  0  0  0
 25 43  1  0  0  0  0
 25 44  1  0  0  0  0
M  END
$$$$
ZINC03450413
  -OEChem-08230709453D

 41 42  0     0  0  0  0  0  0999 V2000
    3.4653    3.1578   -1.0570 C   0  0  0  0  0  0  0  0  0  0  0  0
    3.5209    1.7969   -0.4120 C   0  0  0  0  0  0  0  0  0  0  0  0
    4.7235    1.1235   -0.3209 C   0  0  0  0  0  0  0  0  0  0  0  0
    4.7755   -0.1246    0.2715 C   0  0  0  0  0  0  0  0  0  0  0  0
    3.6243   -0.7033    0.7742 C   0  0  0  0  0  0  0  0  0  0  0  0
    2.4197   -0.0332    0.6905 C   0  0  0  0  0  0  0  0  0  0  0  0
    2.3633    1.2187    0.0917 C   0  0  0  0  0  0  0  0  0  0  0  0
    1.1435    1.8984    0.0013 N   0  0  0  0  0  0  0  0  0  0  0  0
   -0.0145    1.2089    0.0119 C   0  0  0  0  0  0  0  0  0  0  0  0
    0.0016   -0.0038   -0.0014 O   0  0  0  0  0  0  0  0  0  0  0  0
   -1.3294    1.9448    0.0340 C   0  0  0  0  0  0  0  0  0  0  0  0
   -2.4203    0.9866    0.0354 O   0  0  0  0  0  0  0  0  0  0  0  0
   -3.6727    1.4851    0.0542 C   0  0  0  0  0  0  0  0  0  0  0  0
   -3.8479    2.6879    0.0691 O   0  0  0  0  0  0  0  0  0  0  0  0
   -4.8269    0.5738    0.0568 C   0  0  0  0  0  0  0  0  0  0  0  0
   -4.6279   -0.8119    0.0396 C   0  0  0  0  0  0  0  0  0  0  0  0
   -5.6998   -1.6573    0.0420 C   0  0  0  0  0  0  0  0  0  0  0  0
   -6.9984   -1.1483    0.0620 C   0  0  0  0  0  0  0  0  0  0  0  0
   -7.2118    0.2241    0.0791 C   0  0  0  0  0  0  0  0  0  0  0  0
   -6.1323    1.0902    0.0823 C   0  0  0  0  0  0  0  0  0  0  0  0
   -6.3345    2.4315    0.1046 O   0  0  0  0  0  0  0  0  0  0  0  0
   -7.6901    2.8829    0.1299 C   0  0  0  0  0  0  0  0  0  0  0  0
   -8.0837   -2.0183    0.0642 N   0  0  0  0  0  0  0  0  0  0  0  0
   -5.4454   -3.3744    0.0207 Cl  0  0  0  0  0  0  0  0  0  0  0  0
    3.6292    3.9253   -0.3006 H   0  0  0  0  0  0  0  0  0  0  0  0
    4.2393    3.2296   -1.8211 H   0  0  0  0  0  0  0  0  0  0  0  0
    2.4872    3.3028   -1.5157 H   0  0  0  0  0  0  0  0  0  0  0  0
    5.6242    1.5727   -0.7125 H   0  0  0  0  0  0  0  0  0  0  0  0
    5.7171   -0.6488    0.3422 H   0  0  0  0  0  0  0  0  0  0  0  0
    3.6681   -1.6784    1.2364 H   0  0  0  0  0  0  0  0  0  0  0  0
    1.5218   -0.4837    1.0872 H   0  0  0  0  0  0  0  0  0  0  0  0
    1.1314    2.8657   -0.0689 H   0  0  0  0  0  0  0  0  0  0  0  0
   -1.3859    2.5610    0.9314 H   0  0  0  0  0  0  0  0  0  0  0  0
   -1.4050    2.5802   -0.8484 H   0  0  0  0  0  0  0  0  0  0  0  0
   -3.6251   -1.2126    0.0241 H   0  0  0  0  0  0  0  0  0  0  0  0
   -8.2185    0.6148    0.0942 H   0  0  0  0  0  0  0  0  0  0  0  0
   -8.2095    2.5232   -0.7584 H   0  0  0  0  0  0  0  0  0  0  0  0
   -8.1850    2.4972    1.0212 H   0  0  0  0  0  0  0  0  0  0  0  0
   -7.7100    3.9726    0.1460 H   0  0  0  0  0  0  0  0  0  0  0  0
   -7.9367   -2.9771    0.0520 H   0  0  0  0  0  0  0  0  0  0  0  0
   -8.9874   -1.6663    0.0781 H   0  0  0  0  0  0  0  0  0  0  0  0
  1  2  1  0  0  0  0
  1 25  1  0  0  0  0
  1 26  1  0  0  0  0
  1 27  1  0  0  0  0
  2  7  2  0  0  0  0
  2  3  1  0  0  0  0
  3  4  2  0  0  0  0
  3 28  1  0  0  0  0
  4  5  1  0  0  0  0
  4 29  1  0  0  0  0
  5  6  2  0  0  0  0
  5 30  1  0  0  0  0
  6  7  1  0  0  0  0
  6 31  1  0  0  0  0
  7  8  1  0  0  0  0
  8  9  1  0  0  0  0
  8 32  1  0  0  0  0
  9 10  2  0  0  0  0
  9 11  1  0  0  0  0
 11 12  1  0  0  0  0
 11 33  1  0  0  0  0
 11 34  1  0  0  0  0
 12 13  1  0  0  0  0
 13 14  2  0  0  0  0
 13 15  1  0  0  0  0
 15 20  2  0  0  0  0
 15 16  1  0  0  0  0
 16 17  2  0  0  0  0
 16 35  1  0  0  0  0
 17 18  1  0  0  0  0
 17 24  1  0  0  0  0
 18 19  2  0  0  0  0
 18 23  1  0  0  0  0
 19 20  1  0  0  0  0
 19 36  1  0  0  0  0
 20 21  1  0  0  0  0
 21 22  1  0  0  0  0
 22 37  1  0  0  0  0
 22 38  1  0  0  0  0
 22 39  1  0  0  0  0
 23 40  1  0  0  0  0
 23 41  1  0  0  0  0
M  END
$$$$
ZINC03450425
  -OEChem-08230709453D

 42 43  0     0  0  0  0  0  0999 V2000
    0.1538    4.0799    0.7861 C   0  0  0  0  0  0  0  0  0  0  0  0
    1.1530    3.4464   -0.0153 O   0  0  0  0  0  0  0  0  0  0  0  0
    1.1727    2.0869   -0.0168 C   0  0  0  0  0  0  0  0  0  0  0  0
    2.1168    1.4080   -0.7731 C   0  0  0  0  0  0  0  0  0  0  0  0
    2.1377    0.0273   -0.7746 C   0  0  0  0  0  0  0  0  0  0  0  0
    1.2134   -0.6815   -0.0190 C   0  0  0  0  0  0  0  0  0  0  0  0
    0.2686   -0.0014    0.7378 C   0  0  0  0  0  0  0  0  0  0  0  0
    0.2489    1.3793    0.7385 C   0  0  0  0  0  0  0  0  0  0  0  0
    1.2337   -2.0825   -0.0204 N   0  0  0  0  0  0  0  0  0  0  0  0
    2.4048   -2.7393   -0.1368 C   0  0  0  0  0  0  0  0  0  0  0  0
    3.4485   -2.1215   -0.1440 O   0  0  0  0  0  0  0  0  0  0  0  0
    2.4174   -4.2414   -0.2581 C   0  0  0  0  0  0  0  0  0  0  0  0
    3.7884   -4.7064   -0.3700 O   0  0  0  0  0  0  0  0  0  0  0  0
    3.9759   -6.0362   -0.4869 C   0  0  0  0  0  0  0  0  0  0  0  0
    3.0196   -6.7865   -0.4951 O   0  0  0  0  0  0  0  0  0  0  0  0
    5.3375   -6.5792   -0.6045 C   0  0  0  0  0  0  0  0  0  0  0  0
    6.4408   -5.7174   -0.5954 C   0  0  0  0  0  0  0  0  0  0  0  0
    7.7044   -6.2221   -0.7046 C   0  0  0  0  0  0  0  0  0  0  0  0
    7.9059   -7.5972   -0.8254 C   0  0  0  0  0  0  0  0  0  0  0  0
    6.8212   -8.4648   -0.8361 C   0  0  0  0  0  0  0  0  0  0  0  0
    5.5361   -7.9644   -0.7206 C   0  0  0  0  0  0  0  0  0  0  0  0
    4.4733   -8.8075   -0.7247 O   0  0  0  0  0  0  0  0  0  0  0  0
    4.7531  -10.2035   -0.8462 C   0  0  0  0  0  0  0  0  0  0  0  0
    9.1975   -8.1012   -0.9361 N   0  0  0  0  0  0  0  0  0  0  0  0
    9.0677   -5.1474   -0.6925 Cl  0  0  0  0  0  0  0  0  0  0  0  0
   -0.8347    3.7731    0.4441 H   0  0  0  0  0  0  0  0  0  0  0  0
    0.2846    3.7878    1.8280 H   0  0  0  0  0  0  0  0  0  0  0  0
    0.2491    5.1621    0.6974 H   0  0  0  0  0  0  0  0  0  0  0  0
    2.8386    1.9595   -1.3574 H   0  0  0  0  0  0  0  0  0  0  0  0
    2.8726   -0.5012   -1.3638 H   0  0  0  0  0  0  0  0  0  0  0  0
   -0.4508   -0.5521    1.3256 H   0  0  0  0  0  0  0  0  0  0  0  0
   -0.4857    1.9085    1.3273 H   0  0  0  0  0  0  0  0  0  0  0  0
    0.4049   -2.5796    0.0624 H   0  0  0  0  0  0  0  0  0  0  0  0
    1.9556   -4.6811    0.6259 H   0  0  0  0  0  0  0  0  0  0  0  0
    1.8592   -4.5390   -1.1457 H   0  0  0  0  0  0  0  0  0  0  0  0
    6.2919   -4.6518   -0.5022 H   0  0  0  0  0  0  0  0  0  0  0  0
    6.9807   -9.5288   -0.9301 H   0  0  0  0  0  0  0  0  0  0  0  0
    5.2775  -10.3888   -1.7836 H   0  0  0  0  0  0  0  0  0  0  0  0
    5.3770  -10.5230   -0.0115 H   0  0  0  0  0  0  0  0  0  0  0  0
    3.8181  -10.7637   -0.8361 H   0  0  0  0  0  0  0  0  0  0  0  0
    9.9562   -7.4968   -0.9292 H   0  0  0  0  0  0  0  0  0  0  0  0
    9.3396   -9.0570   -1.0202 H   0  0  0  0  0  0  0  0  0  0  0  0
  1  2  1  0  0  0  0
  1 26  1  0  0  0  0
  1 27  1  0  0  0  0
  1 28  1  0  0  0  0
  2  3  1  0  0  0  0
  3  8  2  0  0  0  0
  3  4  1  0  0  0  0
  4  5  2  0  0  0  0
  4 29  1  0  0  0  0
  5  6  1  0  0  0  0
  5 30  1  0  0  0  0
  6  7  2  0  0  0  0
  6  9  1  0  0  0  0
  7  8  1  0  0  0  0
  7 31  1  0  0  0  0
  8 32  1  0  0  0  0
  9 10  1  0  0  0  0
  9 33  1  0  0  0  0
 10 11  2  0  0  0  0
 10 12  1  0  0  0  0
 12 13  1  0  0  0  0
 12 34  1  0  0  0  0
 12 35  1  0  0  0  0
 13 14  1  0  0  0  0
 14 15  2  0  0  0  0
 14 16  1  0  0  0  0
 16 21  2  0  0  0  0
 16 17  1  0  0  0  0
 17 18  2  0  0  0  0
 17 36  1  0  0  0  0
 18 19  1  0  0  0  0
 18 25  1  0  0  0  0
 19 20  2  0  0  0  0
 19 24  1  0  0  0  0
 20 21  1  0  0  0  0
 20 37  1  0  0  0  0
 21 22  1  0  0  0  0
 22 23  1  0  0  0  0
 23 38  1  0  0  0  0
 23 39  1  0  0  0  0
 23 40  1  0  0  0  0
 24 41  1  0  0  0  0
 24 42  1  0  0  0  0
M  END
$$$$
ZINC03450477
  -OEChem-08230709453D

 44 45  0     0  0  0  0  0  0999 V2000
    3.6855   -2.0639    1.4191 C   0  0  0  0  0  0  0  0  0  0  0  0
    3.6243   -0.7033    0.7742 C   0  0  0  0  0  0  0  0  0  0  0  0
    4.7755   -0.1246    0.2715 C   0  0  0  0  0  0  0  0  0  0  0  0
    4.7235    1.1235   -0.3209 C   0  0  0  0  0  0  0  0  0  0  0  0
    3.5209    1.7969   -0.4120 C   0  0  0  0  0  0  0  0  0  0  0  0
    2.3633    1.2187    0.0917 C   0  0  0  0  0  0  0  0  0  0  0  0
    2.4197   -0.0332    0.6905 C   0  0  0  0  0  0  0  0  0  0  0  0
    1.1435    1.8984    0.0013 N   0  0  0  0  0  0  0  0  0  0  0  0
   -0.0145    1.2089    0.0119 C   0  0  0  0  0  0  0  0  0  0  0  0
    0.0016   -0.0038   -0.0014 O   0  0  0  0  0  0  0  0  0  0  0  0
   -1.3294    1.9448    0.0340 C   0  0  0  0  0  0  0  0  0  0  0  0
   -2.4203    0.9866    0.0354 O   0  0  0  0  0  0  0  0  0  0  0  0
   -3.6727    1.4851    0.0542 C   0  0  0  0  0  0  0  0  0  0  0  0
   -3.8479    2.6879    0.0691 O   0  0  0  0  0  0  0  0  0  0  0  0
   -4.8269    0.5738    0.0568 C   0  0  0  0  0  0  0  0  0  0  0  0
   -4.6279   -0.8119    0.0396 C   0  0  0  0  0  0  0  0  0  0  0  0
   -5.6998   -1.6573    0.0420 C   0  0  0  0  0  0  0  0  0  0  0  0
   -6.9984   -1.1483    0.0620 C   0  0  0  0  0  0  0  0  0  0  0  0
   -7.2118    0.2241    0.0791 C   0  0  0  0  0  0  0  0  0  0  0  0
   -6.1323    1.0902    0.0823 C   0  0  0  0  0  0  0  0  0  0  0  0
   -6.3345    2.4315    0.1046 O   0  0  0  0  0  0  0  0  0  0  0  0
   -7.6901    2.8829    0.1299 C   0  0  0  0  0  0  0  0  0  0  0  0
   -8.0837   -2.0183    0.0642 N   0  0  0  0  0  0  0  0  0  0  0  0
   -5.4454   -3.3744    0.0207 Cl  0  0  0  0  0  0  0  0  0  0  0  0
    3.4651    3.1573   -1.0579 C   0  0  0  0  0  0  0  0  0  0  0  0
    3.8771   -1.9519    2.4862 H   0  0  0  0  0  0  0  0  0  0  0  0
    2.7358   -2.5785    1.2725 H   0  0  0  0  0  0  0  0  0  0  0  0
    4.4877   -2.6455    0.9649 H   0  0  0  0  0  0  0  0  0  0  0  0
    5.7171   -0.6488    0.3422 H   0  0  0  0  0  0  0  0  0  0  0  0
    5.6242    1.5727   -0.7125 H   0  0  0  0  0  0  0  0  0  0  0  0
    1.5218   -0.4837    1.0872 H   0  0  0  0  0  0  0  0  0  0  0  0
    1.1314    2.8657   -0.0689 H   0  0  0  0  0  0  0  0  0  0  0  0
   -1.3859    2.5610    0.9314 H   0  0  0  0  0  0  0  0  0  0  0  0
   -1.4050    2.5802   -0.8484 H   0  0  0  0  0  0  0  0  0  0  0  0
   -3.6251   -1.2126    0.0241 H   0  0  0  0  0  0  0  0  0  0  0  0
   -8.2185    0.6148    0.0942 H   0  0  0  0  0  0  0  0  0  0  0  0
   -8.1850    2.4972    1.0212 H   0  0  0  0  0  0  0  0  0  0  0  0
   -7.7100    3.9726    0.1460 H   0  0  0  0  0  0  0  0  0  0  0  0
   -8.2095    2.5232   -0.7584 H   0  0  0  0  0  0  0  0  0  0  0  0
   -7.9367   -2.9771    0.0520 H   0  0  0  0  0  0  0  0  0  0  0  0
   -8.9874   -1.6663    0.0781 H   0  0  0  0  0  0  0  0  0  0  0  0
    3.6286    3.9254   -0.3019 H   0  0  0  0  0  0  0  0  0  0  0  0
    4.2393    3.2289   -1.8218 H   0  0  0  0  0  0  0  0  0  0  0  0
    2.4872    3.3018   -1.5170 H   0  0  0  0  0  0  0  0  0  0  0  0
  1  2  1  0  0  0  0
  1 26  1  0  0  0  0
  1 27  1  0  0  0  0
  1 28  1  0  0  0  0
  2  7  2  0  0  0  0
  2  3  1  0  0  0  0
  3  4  2  0  0  0  0
  3 29  1  0  0  0  0
  4  5  1  0  0  0  0
  4 30  1  0  0  0  0
  5  6  2  0  0  0  0
  5 25  1  0  0  0  0
  6  7  1  0  0  0  0
  6  8  1  0  0  0  0
  7 31  1  0  0  0  0
  8  9  1  0  0  0  0
  8 32  1  0  0  0  0
  9 10  2  0  0  0  0
  9 11  1  0  0  0  0
 11 12  1  0  0  0  0
 11 33  1  0  0  0  0
 11 34  1  0  0  0  0
 12 13  1  0  0  0  0
 13 14  2  0  0  0  0
 13 15  1  0  0  0  0
 15 20  2  0  0  0  0
 15 16  1  0  0  0  0
 16 17  2  0  0  0  0
 16 35  1  0  0  0  0
 17 18  1  0  0  0  0
 17 24  1  0  0  0  0
 18 19  2  0  0  0  0
 18 23  1  0  0  0  0
 19 20  1  0  0  0  0
 19 36  1  0  0  0  0
 20 21  1  0  0  0  0
 21 22  1  0  0  0  0
 22 37  1  0  0  0  0
 22 38  1  0  0  0  0
 22 39  1  0  0  0  0
 23 40  1  0  0  0  0
 23 41  1  0  0  0  0
 25 42  1  0  0  0  0
 25 43  1  0  0  0  0
 25 44  1  0  0  0  0
M  END
$$$$
ZINC03451255
  -OEChem-08230709453D

 42 43  0     0  0  0  0  0  0999 V2000
    9.0238    6.2521    0.1688 C   0  0  0  0  0  0  0  0  0  0  0  0
    9.1363    4.9807   -0.4737 O   0  0  0  0  0  0  0  0  0  0  0  0
    8.0736    4.1393   -0.3676 C   0  0  0  0  0  0  0  0  0  0  0  0
    6.9471    4.5317    0.3407 C   0  0  0  0  0  0  0  0  0  0  0  0
    5.8657    3.6788    0.4508 C   0  0  0  0  0  0  0  0  0  0  0  0
    5.9043    2.4279   -0.1472 C   0  0  0  0  0  0  0  0  0  0  0  0
    7.0367    2.0301   -0.8539 C   0  0  0  0  0  0  0  0  0  0  0  0
    8.1170    2.8897   -0.9673 C   0  0  0  0  0  0  0  0  0  0  0  0
    7.0795    0.8022   -1.4364 O   0  0  0  0  0  0  0  0  0  0  0  0
    8.2727    0.4615   -2.1451 C   0  0  0  0  0  0  0  0  0  0  0  0
    4.8061    1.5619   -0.0354 N   0  0  0  0  0  0  0  0  0  0  0  0
    3.5542    2.0605   -0.0135 C   0  0  0  0  0  0  0  0  0  0  0  0
    3.3794    3.2609   -0.0087 O   0  0  0  0  0  0  0  0  0  0  0  0
    2.3714    1.1269    0.0052 C   0  0  0  0  0  0  0  0  0  0  0  0
    1.1435    1.9016    0.0272 O   0  0  0  0  0  0  0  0  0  0  0  0
   -0.0141    1.2126    0.0458 C   0  0  0  0  0  0  0  0  0  0  0  0
    0.0019   -0.0020    0.0438 O   0  0  0  0  0  0  0  0  0  0  0  0
   -1.3025    1.9341    0.0626 C   0  0  0  0  0  0  0  0  0  0  0  0
   -1.3234    3.3308    0.0709 C   0  0  0  0  0  0  0  0  0  0  0  0
   -2.5280    4.0026    0.0812 C   0  0  0  0  0  0  0  0  0  0  0  0
   -3.7186    3.2975    0.0951 C   0  0  0  0  0  0  0  0  0  0  0  0
   -3.7083    1.9063    0.0923 C   0  0  0  0  0  0  0  0  0  0  0  0
   -2.5032    1.2225    0.0761 C   0  0  0  0  0  0  0  0  0  0  0  0
   -4.9136    1.1983    0.1054 N   0  0  0  0  0  0  0  0  0  0  0  0
   -5.2298    4.1516    0.1154 Cl  0  0  0  0  0  0  0  0  0  0  0  0
    8.8711    6.1065    1.2382 H   0  0  0  0  0  0  0  0  0  0  0  0
    9.9380    6.8233    0.0068 H   0  0  0  0  0  0  0  0  0  0  0  0
    8.1766    6.7964   -0.2484 H   0  0  0  0  0  0  0  0  0  0  0  0
    6.9156    5.5052    0.8072 H   0  0  0  0  0  0  0  0  0  0  0  0
    4.9899    3.9861    1.0030 H   0  0  0  0  0  0  0  0  0  0  0  0
    8.9945    2.5849   -1.5182 H   0  0  0  0  0  0  0  0  0  0  0  0
    8.1751   -0.5418   -2.5597 H   0  0  0  0  0  0  0  0  0  0  0  0
    8.4312    1.1750   -2.9538 H   0  0  0  0  0  0  0  0  0  0  0  0
    9.1219    0.4916   -1.4624 H   0  0  0  0  0  0  0  0  0  0  0  0
    4.9478    0.6043    0.0260 H   0  0  0  0  0  0  0  0  0  0  0  0
    2.4196    0.4971    0.8936 H   0  0  0  0  0  0  0  0  0  0  0  0
    2.3894    0.4997   -0.8861 H   0  0  0  0  0  0  0  0  0  0  0  0
   -0.3962    3.8847    0.0650 H   0  0  0  0  0  0  0  0  0  0  0  0
   -2.5420    5.0825    0.0831 H   0  0  0  0  0  0  0  0  0  0  0  0
   -2.4930    0.1426    0.0743 H   0  0  0  0  0  0  0  0  0  0  0  0
   -4.9064    0.2283    0.1032 H   0  0  0  0  0  0  0  0  0  0  0  0
   -5.7572    1.6770    0.1168 H   0  0  0  0  0  0  0  0  0  0  0  0
  1  2  1  0  0  0  0
  1 26  1  0  0  0  0
  1 27  1  0  0  0  0
  1 28  1  0  0  0  0
  2  3  1  0  0  0  0
  3  8  2  0  0  0  0
  3  4  1  0  0  0  0
  4  5  2  0  0  0  0
  4 29  1  0  0  0  0
  5  6  1  0  0  0  0
  5 30  1  0  0  0  0
  6  7  2  0  0  0  0
  6 11  1  0  0  0  0
  7  8  1  0  0  0  0
  7  9  1  0  0  0  0
  8 31  1  0  0  0  0
  9 10  1  0  0  0  0
 10 32  1  0  0  0  0
 10 33  1  0  0  0  0
 10 34  1  0  0  0  0
 11 12  1  0  0  0  0
 11 35  1  0  0  0  0
 12 13  2  0  0  0  0
 12 14  1  0  0  0  0
 14 15  1  0  0  0  0
 14 36  1  0  0  0  0
 14 37  1  0  0  0  0
 15 16  1  0  0  0  0
 16 17  2  0  0  0  0
 16 18  1  0  0  0  0
 18 23  2  0  0  0  0
 18 19  1  0  0  0  0
 19 20  2  0  0  0  0
 19 38  1  0  0  0  0
 20 21  1  0  0  0  0
 20 39  1  0  0  0  0
 21 22  2  0  0  0  0
 21 25  1  0  0  0  0
 22 23  1  0  0  0  0
 22 24  1  0  0  0  0
 23 40  1  0  0  0  0
 24 41  1  0  0  0  0
 24 42  1  0  0  0  0
M  END
$$$$
ZINC03451420
  -OEChem-08230709453D

 40 41  0     0  0  0  0  0  0999 V2000
    3.3886   -0.7365    1.1873 C   0  0  0  0  0  0  0  0  0  0  0  0
    2.2454    0.0143    0.5545 C   0  0  0  0  0  0  0  0  0  0  0  0
    1.2107   -0.6801   -0.0454 C   0  0  0  0  0  0  0  0  0  0  0  0
    0.1603    0.0050   -0.6275 C   0  0  0  0  0  0  0  0  0  0  0  0
    0.1409    1.3861   -0.6108 C   0  0  0  0  0  0  0  0  0  0  0  0
    1.1780    2.0863   -0.0090 C   0  0  0  0  0  0  0  0  0  0  0  0
    2.2320    1.3950    0.5745 C   0  0  0  0  0  0  0  0  0  0  0  0
    3.3594    2.1509    1.2292 C   0  0  0  0  0  0  0  0  0  0  0  0
    1.1616    3.4853    0.0092 N   0  0  0  0  0  0  0  0  0  0  0  0
   -0.0095    4.1467   -0.0782 C   0  0  0  0  0  0  0  0  0  0  0  0
   -1.0550    3.5321   -0.0717 O   0  0  0  0  0  0  0  0  0  0  0  0
   -0.0198    5.6500   -0.1841 C   0  0  0  0  0  0  0  0  0  0  0  0
   -1.3912    6.1201   -0.2651 O   0  0  0  0  0  0  0  0  0  0  0  0
   -1.5767    7.4507   -0.3650 C   0  0  0  0  0  0  0  0  0  0  0  0
   -0.6190    8.1978   -0.3839 O   0  0  0  0  0  0  0  0  0  0  0  0
   -2.9443    8.0011   -0.4516 C   0  0  0  0  0  0  0  0  0  0  0  0
   -4.0469    7.1436   -0.4358 C   0  0  0  0  0  0  0  0  0  0  0  0
   -5.3237    7.6603   -0.5109 C   0  0  0  0  0  0  0  0  0  0  0  0
   -5.5172    9.0266   -0.6136 C   0  0  0  0  0  0  0  0  0  0  0  0
   -4.4253    9.8885   -0.6359 C   0  0  0  0  0  0  0  0  0  0  0  0
   -3.1391    9.3793   -0.5551 C   0  0  0  0  0  0  0  0  0  0  0  0
   -4.6257   11.2681   -0.7392 N   0  0  0  0  0  0  0  0  0  0  0  0
   -7.1275    9.6673   -0.7143 Cl  0  0  0  0  0  0  0  0  0  0  0  0
    4.1706   -0.9000    0.4459 H   0  0  0  0  0  0  0  0  0  0  0  0
    3.7903   -0.1548    2.0170 H   0  0  0  0  0  0  0  0  0  0  0  0
    3.0316   -1.6978    1.5568 H   0  0  0  0  0  0  0  0  0  0  0  0
    1.2234   -1.7600   -0.0594 H   0  0  0  0  0  0  0  0  0  0  0  0
   -0.6460   -0.5402   -1.0954 H   0  0  0  0  0  0  0  0  0  0  0  0
   -0.6778    1.9208   -1.0693 H   0  0  0  0  0  0  0  0  0  0  0  0
    4.1382    2.3511    0.4933 H   0  0  0  0  0  0  0  0  0  0  0  0
    2.9827    3.0940    1.6253 H   0  0  0  0  0  0  0  0  0  0  0  0
    3.7727    1.5545    2.0425 H   0  0  0  0  0  0  0  0  0  0  0  0
    1.9930    3.9792    0.0848 H   0  0  0  0  0  0  0  0  0  0  0  0
    0.4602    6.0794    0.6953 H   0  0  0  0  0  0  0  0  0  0  0  0
    0.5223    5.9549   -1.0792 H   0  0  0  0  0  0  0  0  0  0  0  0
   -3.8999    6.0763   -0.3606 H   0  0  0  0  0  0  0  0  0  0  0  0
   -6.1750    6.9959   -0.4944 H   0  0  0  0  0  0  0  0  0  0  0  0
   -2.2901   10.0466   -0.5726 H   0  0  0  0  0  0  0  0  0  0  0  0
   -3.8644   11.8690   -0.7545 H   0  0  0  0  0  0  0  0  0  0  0  0
   -5.5261   11.6245   -0.7958 H   0  0  0  0  0  0  0  0  0  0  0  0
  1  2  1  0  0  0  0
  1 24  1  0  0  0  0
  1 25  1  0  0  0  0
  1 26  1  0  0  0  0
  2  7  2  0  0  0  0
  2  3  1  0  0  0  0
  3  4  2  0  0  0  0
  3 27  1  0  0  0  0
  4  5  1  0  0  0  0
  4 28  1  0  0  0  0
  5  6  2  0  0  0  0
  5 29  1  0  0  0  0
  6  7  1  0  0  0  0
  6  9  1  0  0  0  0
  7  8  1  0  0  0  0
  8 30  1  0  0  0  0
  8 31  1  0  0  0  0
  8 32  1  0  0  0  0
  9 10  1  0  0  0  0
  9 33  1  0  0  0  0
 10 11  2  0  0  0  0
 10 12  1  0  0  0  0
 12 13  1  0  0  0  0
 12 34  1  0  0  0  0
 12 35  1  0  0  0  0
 13 14  1  0  0  0  0
 14 15  2  0  0  0  0
 14 16  1  0  0  0  0
 16 21  2  0  0  0  0
 16 17  1  0  0  0  0
 17 18  2  0  0  0  0
 17 36  1  0  0  0  0
 18 19  1  0  0  0  0
 18 37  1  0  0  0  0
 19 20  2  0  0  0  0
 19 23  1  0  0  0  0
 20 21  1  0  0  0  0
 20 22  1  0  0  0  0
 21 38  1  0  0  0  0
 22 39  1  0  0  0  0
 22 40  1  0  0  0  0
M  END
$$$$
ZINC03451425
  -OEChem-08230709453D

 40 41  0     0  0  0  0  0  0999 V2000
    9.2464    5.0640   -0.4863 C   0  0  0  0  0  0  0  0  0  0  0  0
    8.0670    4.1336   -0.3667 C   0  0  0  0  0  0  0  0  0  0  0  0
    6.8311    4.5202   -0.8524 C   0  0  0  0  0  0  0  0  0  0  0  0
    5.7497    3.6675   -0.7499 C   0  0  0  0  0  0  0  0  0  0  0  0
    5.9013    2.4255   -0.1469 C   0  0  0  0  0  0  0  0  0  0  0  0
    7.1433    2.0405    0.3401 C   0  0  0  0  0  0  0  0  0  0  0  0
    8.2226    2.8954    0.2286 C   0  0  0  0  0  0  0  0  0  0  0  0
    9.5709    2.4784    0.7568 C   0  0  0  0  0  0  0  0  0  0  0  0
    4.8061    1.5619   -0.0354 N   0  0  0  0  0  0  0  0  0  0  0  0
    3.5681    2.0633    0.1449 C   0  0  0  0  0  0  0  0  0  0  0  0
    3.4143    3.2555    0.3062 O   0  0  0  0  0  0  0  0  0  0  0  0
    2.3750    1.1426    0.1460 C   0  0  0  0  0  0  0  0  0  0  0  0
    1.1656    1.9178    0.3572 O   0  0  0  0  0  0  0  0  0  0  0  0
    0.0017    1.2400    0.3854 C   0  0  0  0  0  0  0  0  0  0  0  0
   -0.0026    0.0342    0.2376 O   0  0  0  0  0  0  0  0  0  0  0  0
   -1.2693    1.9634    0.5900 C   0  0  0  0  0  0  0  0  0  0  0  0
   -1.2663    3.3492    0.7660 C   0  0  0  0  0  0  0  0  0  0  0  0
   -2.4551    4.0235    0.9516 C   0  0  0  0  0  0  0  0  0  0  0  0
   -3.6526    3.3304    0.9758 C   0  0  0  0  0  0  0  0  0  0  0  0
   -3.6657    1.9495    0.8067 C   0  0  0  0  0  0  0  0  0  0  0  0
   -2.4769    1.2640    0.6138 C   0  0  0  0  0  0  0  0  0  0  0  0
   -4.8779    1.2537    0.8309 N   0  0  0  0  0  0  0  0  0  0  0  0
   -5.1433    4.1867    1.2172 Cl  0  0  0  0  0  0  0  0  0  0  0  0
    9.7618    4.8781   -1.4286 H   0  0  0  0  0  0  0  0  0  0  0  0
    8.8987    6.0967   -0.4599 H   0  0  0  0  0  0  0  0  0  0  0  0
    9.9319    4.8901    0.3432 H   0  0  0  0  0  0  0  0  0  0  0  0
    6.7127    5.4880   -1.3169 H   0  0  0  0  0  0  0  0  0  0  0  0
    4.7860    3.9679   -1.1339 H   0  0  0  0  0  0  0  0  0  0  0  0
    7.2655    1.0735    0.8052 H   0  0  0  0  0  0  0  0  0  0  0  0
   10.1269    1.9673   -0.0292 H   0  0  0  0  0  0  0  0  0  0  0  0
   10.1241    3.3609    1.0780 H   0  0  0  0  0  0  0  0  0  0  0  0
    9.4371    1.8053    1.6036 H   0  0  0  0  0  0  0  0  0  0  0  0
    4.9378    0.6023   -0.0880 H   0  0  0  0  0  0  0  0  0  0  0  0
    2.4818    0.4105    0.9465 H   0  0  0  0  0  0  0  0  0  0  0  0
    2.3133    0.6268   -0.8123 H   0  0  0  0  0  0  0  0  0  0  0  0
   -0.3334    3.8931    0.7526 H   0  0  0  0  0  0  0  0  0  0  0  0
   -2.4510    5.0955    1.0830 H   0  0  0  0  0  0  0  0  0  0  0  0
   -2.4848    0.1920    0.4827 H   0  0  0  0  0  0  0  0  0  0  0  0
   -4.8869    0.2910    0.7127 H   0  0  0  0  0  0  0  0  0  0  0  0
   -5.7099    1.7337    0.9660 H   0  0  0  0  0  0  0  0  0  0  0  0
  1  2  1  0  0  0  0
  1 24  1  0  0  0  0
  1 25  1  0  0  0  0
  1 26  1  0  0  0  0
  2  7  2  0  0  0  0
  2  3  1  0  0  0  0
  3  4  2  0  0  0  0
  3 27  1  0  0  0  0
  4  5  1  0  0  0  0
  4 28  1  0  0  0  0
  5  6  2  0  0  0  0
  5  9  1  0  0  0  0
  6  7  1  0  0  0  0
  6 29  1  0  0  0  0
  7  8  1  0  0  0  0
  8 30  1  0  0  0  0
  8 31  1  0  0  0  0
  8 32  1  0  0  0  0
  9 10  1  0  0  0  0
  9 33  1  0  0  0  0
 10 11  2  0  0  0  0
 10 12  1  0  0  0  0
 12 13  1  0  0  0  0
 12 34  1  0  0  0  0
 12 35  1  0  0  0  0
 13 14  1  0  0  0  0
 14 15  2  0  0  0  0
 14 16  1  0  0  0  0
 16 21  2  0  0  0  0
 16 17  1  0  0  0  0
 17 18  2  0  0  0  0
 17 36  1  0  0  0  0
 18 19  1  0  0  0  0
 18 37  1  0  0  0  0
 19 20  2  0  0  0  0
 19 23  1  0  0  0  0
 20 21  1  0  0  0  0
 20 22  1  0  0  0  0
 21 38  1  0  0  0  0
 22 39  1  0  0  0  0
 22 40  1  0  0  0  0
M  END
$$$$
ZINC03451436
  -OEChem-08230709453D

 41 42  0     0  0  0  0  0  0999 V2000
    6.6641    5.8753   -1.4918 C   0  0  0  0  0  0  0  0  0  0  0  0
    6.8325    4.5232   -0.8479 C   0  0  0  0  0  0  0  0  0  0  0  0
    8.0705    4.1372   -0.3680 C   0  0  0  0  0  0  0  0  0  0  0  0
    8.2313    2.8980    0.2232 C   0  0  0  0  0  0  0  0  0  0  0  0
    7.1503    2.0386    0.3362 C   0  0  0  0  0  0  0  0  0  0  0  0
    5.9029    2.4268   -0.1470 C   0  0  0  0  0  0  0  0  0  0  0  0
    5.7506    3.6696   -0.7442 C   0  0  0  0  0  0  0  0  0  0  0  0
    4.8061    1.5619   -0.0354 N   0  0  0  0  0  0  0  0  0  0  0  0
    3.5537    2.0597   -0.0248 C   0  0  0  0  0  0  0  0  0  0  0  0
    3.3782    3.2598   -0.0104 O   0  0  0  0  0  0  0  0  0  0  0  0
    2.3713    1.1253   -0.0306 C   0  0  0  0  0  0  0  0  0  0  0  0
    1.1428    1.8992   -0.0169 O   0  0  0  0  0  0  0  0  0  0  0  0
   -0.0145    1.2095   -0.0200 C   0  0  0  0  0  0  0  0  0  0  0  0
    0.0023   -0.0051   -0.0339 O   0  0  0  0  0  0  0  0  0  0  0  0
   -1.3035    1.9302   -0.0128 C   0  0  0  0  0  0  0  0  0  0  0  0
   -1.3253    3.3267    0.0089 C   0  0  0  0  0  0  0  0  0  0  0  0
   -2.5304    3.9978    0.0103 C   0  0  0  0  0  0  0  0  0  0  0  0
   -3.7206    3.2920    0.0018 C   0  0  0  0  0  0  0  0  0  0  0  0
   -3.7095    1.9009   -0.0146 C   0  0  0  0  0  0  0  0  0  0  0  0
   -2.5038    1.2179   -0.0219 C   0  0  0  0  0  0  0  0  0  0  0  0
   -4.9144    1.1923   -0.0241 N   0  0  0  0  0  0  0  0  0  0  0  0
   -5.2325    4.1451    0.0109 Cl  0  0  0  0  0  0  0  0  0  0  0  0
    7.3067    0.8195    0.9178 O   0  0  0  0  0  0  0  0  0  0  0  0
    8.6143    0.4891    1.3903 C   0  0  0  0  0  0  0  0  0  0  0  0
    6.8513    5.7937   -2.5625 H   0  0  0  0  0  0  0  0  0  0  0  0
    5.6475    6.2322   -1.3268 H   0  0  0  0  0  0  0  0  0  0  0  0
    7.3717    6.5779   -1.0517 H   0  0  0  0  0  0  0  0  0  0  0  0
    8.9143    4.8056   -0.4556 H   0  0  0  0  0  0  0  0  0  0  0  0
    9.1997    2.5994    0.5967 H   0  0  0  0  0  0  0  0  0  0  0  0
    4.7858    3.9718   -1.1239 H   0  0  0  0  0  0  0  0  0  0  0  0
    4.9482    0.6049    0.0341 H   0  0  0  0  0  0  0  0  0  0  0  0
    2.4084    0.4868    0.8521 H   0  0  0  0  0  0  0  0  0  0  0  0
    2.4013    0.5070   -0.9278 H   0  0  0  0  0  0  0  0  0  0  0  0
   -0.3985    3.8811    0.0205 H   0  0  0  0  0  0  0  0  0  0  0  0
   -2.5450    5.0776    0.0226 H   0  0  0  0  0  0  0  0  0  0  0  0
   -2.4929    0.1380   -0.0342 H   0  0  0  0  0  0  0  0  0  0  0  0
   -4.9065    0.2224   -0.0358 H   0  0  0  0  0  0  0  0  0  0  0  0
   -5.7583    1.6704   -0.0189 H   0  0  0  0  0  0  0  0  0  0  0  0
    8.9226    1.2145    2.1432 H   0  0  0  0  0  0  0  0  0  0  0  0
    8.6003   -0.5079    1.8307 H   0  0  0  0  0  0  0  0  0  0  0  0
    9.3172    0.5086    0.5575 H   0  0  0  0  0  0  0  0  0  0  0  0
  1  2  1  0  0  0  0
  1 25  1  0  0  0  0
  1 26  1  0  0  0  0
  1 27  1  0  0  0  0
  2  7  2  0  0  0  0
  2  3  1  0  0  0  0
  3  4  2  0  0  0  0
  3 28  1  0  0  0  0
  4  5  1  0  0  0  0
  4 29  1  0  0  0  0
  5  6  2  0  0  0  0
  5 23  1  0  0  0  0
  6  7  1  0  0  0  0
  6  8  1  0  0  0  0
  7 30  1  0  0  0  0
  8  9  1  0  0  0  0
  8 31  1  0  0  0  0
  9 10  2  0  0  0  0
  9 11  1  0  0  0  0
 11 12  1  0  0  0  0
 11 32  1  0  0  0  0
 11 33  1  0  0  0  0
 12 13  1  0  0  0  0
 13 14  2  0  0  0  0
 13 15  1  0  0  0  0
 15 20  2  0  0  0  0
 15 16  1  0  0  0  0
 16 17  2  0  0  0  0
 16 34  1  0  0  0  0
 17 18  1  0  0  0  0
 17 35  1  0  0  0  0
 18 19  2  0  0  0  0
 18 22  1  0  0  0  0
 19 20  1  0  0  0  0
 19 21  1  0  0  0  0
 20 36  1  0  0  0  0
 21 37  1  0  0  0  0
 21 38  1  0  0  0  0
 23 24  1  0  0  0  0
 24 39  1  0  0  0  0
 24 40  1  0  0  0  0
 24 41  1  0  0  0  0
M  END
$$$$
ZINC03451438
  -OEChem-08230709453D

 40 41  0     0  0  0  0  0  0999 V2000
    4.3068    4.2904   -0.6707 C   0  0  0  0  0  0  0  0  0  0  0  0
    5.7027    3.7649   -0.4554 C   0  0  0  0  0  0  0  0  0  0  0  0
    6.7807    4.6272   -0.5004 C   0  0  0  0  0  0  0  0  0  0  0  0
    8.0623    4.1449   -0.3081 C   0  0  0  0  0  0  0  0  0  0  0  0
    8.2687    2.7993   -0.0654 C   0  0  0  0  0  0  0  0  0  0  0  0
    7.1945    1.9327   -0.0140 C   0  0  0  0  0  0  0  0  0  0  0  0
    5.9061    2.4140   -0.2062 C   0  0  0  0  0  0  0  0  0  0  0  0
    4.8157    1.5386   -0.1546 N   0  0  0  0  0  0  0  0  0  0  0  0
    3.7669    1.8150    0.6455 C   0  0  0  0  0  0  0  0  0  0  0  0
    3.7964    2.7874    1.3697 O   0  0  0  0  0  0  0  0  0  0  0  0
    2.5576    0.9158    0.6402 C   0  0  0  0  0  0  0  0  0  0  0  0
    1.5734    1.4227    1.5796 O   0  0  0  0  0  0  0  0  0  0  0  0
    0.4248    0.7284    1.6963 C   0  0  0  0  0  0  0  0  0  0  0  0
    0.2503   -0.2731    1.0314 O   0  0  0  0  0  0  0  0  0  0  0  0
   -0.6246    1.1883    2.6281 C   0  0  0  0  0  0  0  0  0  0  0  0
   -0.4239    2.3364    3.3980 C   0  0  0  0  0  0  0  0  0  0  0  0
   -1.4075    2.7671    4.2637 C   0  0  0  0  0  0  0  0  0  0  0  0
   -2.5904    2.0587    4.3817 C   0  0  0  0  0  0  0  0  0  0  0  0
   -2.7977    0.9111    3.6231 C   0  0  0  0  0  0  0  0  0  0  0  0
   -1.8178    0.4738    2.7464 C   0  0  0  0  0  0  0  0  0  0  0  0
   -3.9947    0.1993    3.7450 N   0  0  0  0  0  0  0  0  0  0  0  0
   -3.8198    2.6043    5.4793 Cl  0  0  0  0  0  0  0  0  0  0  0  0
    7.4203    0.4664    0.2510 C   0  0  0  0  0  0  0  0  0  0  0  0
    3.9321    4.7180    0.2592 H   0  0  0  0  0  0  0  0  0  0  0  0
    4.3232    5.0591   -1.4434 H   0  0  0  0  0  0  0  0  0  0  0  0
    3.6556    3.4743   -0.9838 H   0  0  0  0  0  0  0  0  0  0  0  0
    6.6228    5.6787   -0.6901 H   0  0  0  0  0  0  0  0  0  0  0  0
    8.9039    4.8205   -0.3479 H   0  0  0  0  0  0  0  0  0  0  0  0
    9.2709    2.4256    0.0843 H   0  0  0  0  0  0  0  0  0  0  0  0
    4.8146    0.7329   -0.6947 H   0  0  0  0  0  0  0  0  0  0  0  0
    2.8530   -0.0921    0.9319 H   0  0  0  0  0  0  0  0  0  0  0  0
    2.1264    0.8927   -0.3607 H   0  0  0  0  0  0  0  0  0  0  0  0
    0.4999    2.8893    3.3123 H   0  0  0  0  0  0  0  0  0  0  0  0
   -1.2521    3.6575    4.8548 H   0  0  0  0  0  0  0  0  0  0  0  0
   -1.9766   -0.4170    2.1569 H   0  0  0  0  0  0  0  0  0  0  0  0
   -4.1393   -0.6007    3.2159 H   0  0  0  0  0  0  0  0  0  0  0  0
   -4.6806    0.5055    4.3588 H   0  0  0  0  0  0  0  0  0  0  0  0
    7.5622   -0.0561   -0.6950 H   0  0  0  0  0  0  0  0  0  0  0  0
    8.3076    0.3418    0.8717 H   0  0  0  0  0  0  0  0  0  0  0  0
    6.5543    0.0531    0.7680 H   0  0  0  0  0  0  0  0  0  0  0  0
  1  2  1  0  0  0  0
  1 24  1  0  0  0  0
  1 25  1  0  0  0  0
  1 26  1  0  0  0  0
  2  7  2  0  0  0  0
  2  3  1  0  0  0  0
  3  4  2  0  0  0  0
  3 27  1  0  0  0  0
  4  5  1  0  0  0  0
  4 28  1  0  0  0  0
  5  6  2  0  0  0  0
  5 29  1  0  0  0  0
  6  7  1  0  0  0  0
  6 23  1  0  0  0  0
  7  8  1  0  0  0  0
  8  9  1  0  0  0  0
  8 30  1  0  0  0  0
  9 10  2  0  0  0  0
  9 11  1  0  0  0  0
 11 12  1  0  0  0  0
 11 31  1  0  0  0  0
 11 32  1  0  0  0  0
 12 13  1  0  0  0  0
 13 14  2  0  0  0  0
 13 15  1  0  0  0  0
 15 20  2  0  0  0  0
 15 16  1  0  0  0  0
 16 17  2  0  0  0  0
 16 33  1  0  0  0  0
 17 18  1  0  0  0  0
 17 34  1  0  0  0  0
 18 19  2  0  0  0  0
 18 22  1  0  0  0  0
 19 20  1  0  0  0  0
 19 21  1  0  0  0  0
 20 35  1  0  0  0  0
 21 36  1  0  0  0  0
 21 37  1  0  0  0  0
 23 38  1  0  0  0  0
 23 39  1  0  0  0  0
 23 40  1  0  0  0  0
M  END
$$$$
ZINC03451443
  -OEChem-08230709453D

 42 43  0     0  0  0  0  0  0999 V2000
    7.8480    6.5721   -1.5110 C   0  0  0  0  0  0  0  0  0  0  0  0
    6.6859    5.7443   -1.4312 O   0  0  0  0  0  0  0  0  0  0  0  0
    6.8358    4.5242   -0.8497 C   0  0  0  0  0  0  0  0  0  0  0  0
    8.0765    4.1344   -0.3669 C   0  0  0  0  0  0  0  0  0  0  0  0
    8.2325    2.8946    0.2243 C   0  0  0  0  0  0  0  0  0  0  0  0
    7.1498    2.0380    0.3363 C   0  0  0  0  0  0  0  0  0  0  0  0
    5.9028    2.4267   -0.1470 C   0  0  0  0  0  0  0  0  0  0  0  0
    5.7499    3.6692   -0.7442 C   0  0  0  0  0  0  0  0  0  0  0  0
    4.8061    1.5619   -0.0354 N   0  0  0  0  0  0  0  0  0  0  0  0
    3.5537    2.0597   -0.0246 C   0  0  0  0  0  0  0  0  0  0  0  0
    3.3782    3.2598   -0.0102 O   0  0  0  0  0  0  0  0  0  0  0  0
    2.3713    1.1253   -0.0304 C   0  0  0  0  0  0  0  0  0  0  0  0
    1.1428    1.8992   -0.0165 O   0  0  0  0  0  0  0  0  0  0  0  0
   -0.0145    1.2096   -0.0196 C   0  0  0  0  0  0  0  0  0  0  0  0
    0.0022   -0.0050   -0.0336 O   0  0  0  0  0  0  0  0  0  0  0  0
   -1.3035    1.9302   -0.0123 C   0  0  0  0  0  0  0  0  0  0  0  0
   -1.3253    3.3267    0.0096 C   0  0  0  0  0  0  0  0  0  0  0  0
   -2.5303    3.9979    0.0112 C   0  0  0  0  0  0  0  0  0  0  0  0
   -3.7206    3.2921    0.0027 C   0  0  0  0  0  0  0  0  0  0  0  0
   -3.7095    1.9010   -0.0138 C   0  0  0  0  0  0  0  0  0  0  0  0
   -2.5038    1.2180   -0.0213 C   0  0  0  0  0  0  0  0  0  0  0  0
   -4.9144    1.1924   -0.0232 N   0  0  0  0  0  0  0  0  0  0  0  0
   -5.2325    4.1452    0.0121 Cl  0  0  0  0  0  0  0  0  0  0  0  0
    7.3043    0.8180    0.9184 O   0  0  0  0  0  0  0  0  0  0  0  0
    8.6111    0.4857    1.3914 C   0  0  0  0  0  0  0  0  0  0  0  0
    8.6173    6.0633   -2.0920 H   0  0  0  0  0  0  0  0  0  0  0  0
    7.5905    7.5140   -1.9953 H   0  0  0  0  0  0  0  0  0  0  0  0
    8.2226    6.7703   -0.5068 H   0  0  0  0  0  0  0  0  0  0  0  0
    8.9222    4.8005   -0.4535 H   0  0  0  0  0  0  0  0  0  0  0  0
    9.1996    2.5935    0.5990 H   0  0  0  0  0  0  0  0  0  0  0  0
    4.7849    3.9716   -1.1235 H   0  0  0  0  0  0  0  0  0  0  0  0
    4.9482    0.6049    0.0340 H   0  0  0  0  0  0  0  0  0  0  0  0
    2.4085    0.4868    0.8522 H   0  0  0  0  0  0  0  0  0  0  0  0
    2.4012    0.5071   -0.9277 H   0  0  0  0  0  0  0  0  0  0  0  0
   -0.3985    3.8811    0.0211 H   0  0  0  0  0  0  0  0  0  0  0  0
   -2.5450    5.0777    0.0236 H   0  0  0  0  0  0  0  0  0  0  0  0
   -2.4929    0.1381   -0.0337 H   0  0  0  0  0  0  0  0  0  0  0  0
   -4.9066    0.2225   -0.0350 H   0  0  0  0  0  0  0  0  0  0  0  0
   -5.7583    1.6705   -0.0180 H   0  0  0  0  0  0  0  0  0  0  0  0
    8.5955   -0.5113    1.8318 H   0  0  0  0  0  0  0  0  0  0  0  0
    9.3145    0.5041    0.5589 H   0  0  0  0  0  0  0  0  0  0  0  0
    8.9202    1.2106    2.1444 H   0  0  0  0  0  0  0  0  0  0  0  0
  1  2  1  0  0  0  0
  1 26  1  0  0  0  0
  1 27  1  0  0  0  0
  1 28  1  0  0  0  0
  2  3  1  0  0  0  0
  3  8  2  0  0  0  0
  3  4  1  0  0  0  0
  4  5  2  0  0  0  0
  4 29  1  0  0  0  0
  5  6  1  0  0  0  0
  5 30  1  0  0  0  0
  6  7  2  0  0  0  0
  6 24  1  0  0  0  0
  7  8  1  0  0  0  0
  7  9  1  0  0  0  0
  8 31  1  0  0  0  0
  9 10  1  0  0  0  0
  9 32  1  0  0  0  0
 10 11  2  0  0  0  0
 10 12  1  0  0  0  0
 12 13  1  0  0  0  0
 12 33  1  0  0  0  0
 12 34  1  0  0  0  0
 13 14  1  0  0  0  0
 14 15  2  0  0  0  0
 14 16  1  0  0  0  0
 16 21  2  0  0  0  0
 16 17  1  0  0  0  0
 17 18  2  0  0  0  0
 17 35  1  0  0  0  0
 18 19  1  0  0  0  0
 18 36  1  0  0  0  0
 19 20  2  0  0  0  0
 19 23  1  0  0  0  0
 20 21  1  0  0  0  0
 20 22  1  0  0  0  0
 21 37  1  0  0  0  0
 22 38  1  0  0  0  0
 22 39  1  0  0  0  0
 24 25  1  0  0  0  0
 25 40  1  0  0  0  0
 25 41  1  0  0  0  0
 25 42  1  0  0  0  0
M  END
$$$$
ZINC03451461
  -OEChem-08230709453D

 42 43  0     0  0  0  0  0  0999 V2000
    9.1237    6.3211    0.1521 C   0  0  0  0  0  0  0  0  0  0  0  0
    9.1655    4.9999   -0.4794 N   0  0  0  0  0  0  0  0  0  0  0  0
   10.3539    4.5831   -1.2280 C   0  0  0  0  0  0  0  0  0  0  0  0
    8.0707    4.1362   -0.3676 C   0  0  0  0  0  0  0  0  0  0  0  0
    6.9441    4.5313    0.3420 C   0  0  0  0  0  0  0  0  0  0  0  0
    5.8635    3.6790    0.4519 C   0  0  0  0  0  0  0  0  0  0  0  0
    5.9031    2.4269   -0.1471 C   0  0  0  0  0  0  0  0  0  0  0  0
    7.0316    2.0296   -0.8518 C   0  0  0  0  0  0  0  0  0  0  0  0
    8.1101    2.8838   -0.9666 C   0  0  0  0  0  0  0  0  0  0  0  0
    4.8061    1.5619   -0.0354 N   0  0  0  0  0  0  0  0  0  0  0  0
    3.5538    2.0599   -0.0227 C   0  0  0  0  0  0  0  0  0  0  0  0
    3.3783    3.2601   -0.0232 O   0  0  0  0  0  0  0  0  0  0  0  0
    2.3714    1.1255   -0.0077 C   0  0  0  0  0  0  0  0  0  0  0  0
    1.1430    1.8996    0.0042 O   0  0  0  0  0  0  0  0  0  0  0  0
   -0.0143    1.2100    0.0184 C   0  0  0  0  0  0  0  0  0  0  0  0
    0.0024   -0.0047    0.0207 O   0  0  0  0  0  0  0  0  0  0  0  0
   -1.3032    1.9308    0.0250 C   0  0  0  0  0  0  0  0  0  0  0  0
   -1.3249    3.3274    0.0282 C   0  0  0  0  0  0  0  0  0  0  0  0
   -2.5300    3.9986    0.0290 C   0  0  0  0  0  0  0  0  0  0  0  0
   -3.7202    3.2928    0.0383 C   0  0  0  0  0  0  0  0  0  0  0  0
   -3.7091    1.9016    0.0405 C   0  0  0  0  0  0  0  0  0  0  0  0
   -2.5035    1.2185    0.0338 C   0  0  0  0  0  0  0  0  0  0  0  0
   -4.9141    1.1930    0.0489 N   0  0  0  0  0  0  0  0  0  0  0  0
   -5.2320    4.1461    0.0466 Cl  0  0  0  0  0  0  0  0  0  0  0  0
    9.5147    6.2512    1.1671 H   0  0  0  0  0  0  0  0  0  0  0  0
    9.7316    7.0186   -0.4242 H   0  0  0  0  0  0  0  0  0  0  0  0
    8.0938    6.6766    0.1831 H   0  0  0  0  0  0  0  0  0  0  0  0
   10.2473    4.8773   -2.2721 H   0  0  0  0  0  0  0  0  0  0  0  0
   11.2367    5.0615   -0.8040 H   0  0  0  0  0  0  0  0  0  0  0  0
   10.4618    3.5003   -1.1648 H   0  0  0  0  0  0  0  0  0  0  0  0
    6.9134    5.5050    0.8082 H   0  0  0  0  0  0  0  0  0  0  0  0
    4.9873    3.9863    1.0034 H   0  0  0  0  0  0  0  0  0  0  0  0
    7.0640    1.0538   -1.3135 H   0  0  0  0  0  0  0  0  0  0  0  0
    8.9861    2.5764   -1.5185 H   0  0  0  0  0  0  0  0  0  0  0  0
    4.9481    0.6047    0.0326 H   0  0  0  0  0  0  0  0  0  0  0  0
    2.4148    0.4989    0.8831 H   0  0  0  0  0  0  0  0  0  0  0  0
    2.3951    0.4953   -0.8968 H   0  0  0  0  0  0  0  0  0  0  0  0
   -0.3981    3.8819    0.0259 H   0  0  0  0  0  0  0  0  0  0  0  0
   -2.5446    5.0785    0.0270 H   0  0  0  0  0  0  0  0  0  0  0  0
   -2.4927    0.1386    0.0359 H   0  0  0  0  0  0  0  0  0  0  0  0
   -4.9063    0.2230    0.0501 H   0  0  0  0  0  0  0  0  0  0  0  0
   -5.7580    1.6712    0.0535 H   0  0  0  0  0  0  0  0  0  0  0  0
  1  2  1  0  0  0  0
  1 25  1  0  0  0  0
  1 26  1  0  0  0  0
  1 27  1  0  0  0  0
  2  3  1  0  0  0  0
  2  4  1  0  0  0  0
  3 28  1  0  0  0  0
  3 29  1  0  0  0  0
  3 30  1  0  0  0  0
  4  9  2  0  0  0  0
  4  5  1  0  0  0  0
  5  6  2  0  0  0  0
  5 31  1  0  0  0  0
  6  7  1  0  0  0  0
  6 32  1  0  0  0  0
  7  8  2  0  0  0  0
  7 10  1  0  0  0  0
  8  9  1  0  0  0  0
  8 33  1  0  0  0  0
  9 34  1  0  0  0  0
 10 11  1  0  0  0  0
 10 35  1  0  0  0  0
 11 12  2  0  0  0  0
 11 13  1  0  0  0  0
 13 14  1  0  0  0  0
 13 36  1  0  0  0  0
 13 37  1  0  0  0  0
 14 15  1  0  0  0  0
 15 16  2  0  0  0  0
 15 17  1  0  0  0  0
 17 22  2  0  0  0  0
 17 18  1  0  0  0  0
 18 19  2  0  0  0  0
 18 38  1  0  0  0  0
 19 20  1  0  0  0  0
 19 39  1  0  0  0  0
 20 21  2  0  0  0  0
 20 24  1  0  0  0  0
 21 22  1  0  0  0  0
 21 23  1  0  0  0  0
 22 40  1  0  0  0  0
 23 41  1  0  0  0  0
 23 42  1  0  0  0  0
M  END
$$$$
ZINC03451502
  -OEChem-08230709453D

 40 41  0     0  0  0  0  0  0999 V2000
    9.5715    2.4771    0.7545 C   0  0  0  0  0  0  0  0  0  0  0  0
    8.2228    2.8948    0.2277 C   0  0  0  0  0  0  0  0  0  0  0  0
    8.0672    4.1331   -0.3677 C   0  0  0  0  0  0  0  0  0  0  0  0
    6.8315    4.5198   -0.8532 C   0  0  0  0  0  0  0  0  0  0  0  0
    5.7484    3.6696   -0.7447 C   0  0  0  0  0  0  0  0  0  0  0  0
    5.9013    2.4255   -0.1469 C   0  0  0  0  0  0  0  0  0  0  0  0
    7.1422    2.0427    0.3452 C   0  0  0  0  0  0  0  0  0  0  0  0
    4.8061    1.5619   -0.0354 N   0  0  0  0  0  0  0  0  0  0  0  0
    3.5684    2.0632    0.1472 C   0  0  0  0  0  0  0  0  0  0  0  0
    3.4150    3.2552    0.3106 O   0  0  0  0  0  0  0  0  0  0  0  0
    2.3752    1.1427    0.1483 C   0  0  0  0  0  0  0  0  0  0  0  0
    1.1662    1.9178    0.3622 O   0  0  0  0  0  0  0  0  0  0  0  0
    0.0022    1.2401    0.3907 C   0  0  0  0  0  0  0  0  0  0  0  0
   -0.0026    0.0346    0.2410 O   0  0  0  0  0  0  0  0  0  0  0  0
   -1.2685    1.9634    0.5980 C   0  0  0  0  0  0  0  0  0  0  0  0
   -1.2650    3.3489    0.7763 C   0  0  0  0  0  0  0  0  0  0  0  0
   -2.4535    4.0231    0.9644 C   0  0  0  0  0  0  0  0  0  0  0  0
   -3.6511    3.3302    0.9889 C   0  0  0  0  0  0  0  0  0  0  0  0
   -3.6646    1.9496    0.8176 C   0  0  0  0  0  0  0  0  0  0  0  0
   -2.4762    1.2642    0.6222 C   0  0  0  0  0  0  0  0  0  0  0  0
   -4.8768    1.2539    0.8422 N   0  0  0  0  0  0  0  0  0  0  0  0
   -5.1413    4.1863    1.2336 Cl  0  0  0  0  0  0  0  0  0  0  0  0
    6.6665    5.8700   -1.5019 C   0  0  0  0  0  0  0  0  0  0  0  0
    9.6669    2.7869    1.7952 H   0  0  0  0  0  0  0  0  0  0  0  0
    9.6680    1.3935    0.6877 H   0  0  0  0  0  0  0  0  0  0  0  0
   10.3552    2.9489    0.1618 H   0  0  0  0  0  0  0  0  0  0  0  0
    8.9126    4.7996   -0.4541 H   0  0  0  0  0  0  0  0  0  0  0  0
    4.7837    3.9719   -1.1248 H   0  0  0  0  0  0  0  0  0  0  0  0
    7.2632    1.0778    0.8150 H   0  0  0  0  0  0  0  0  0  0  0  0
    4.9376    0.6024   -0.0896 H   0  0  0  0  0  0  0  0  0  0  0  0
    2.4828    0.4093    0.9474 H   0  0  0  0  0  0  0  0  0  0  0  0
    2.3122    0.6285   -0.8107 H   0  0  0  0  0  0  0  0  0  0  0  0
   -0.3320    3.8927    0.7626 H   0  0  0  0  0  0  0  0  0  0  0  0
   -2.4491    5.0949    1.0976 H   0  0  0  0  0  0  0  0  0  0  0  0
   -2.4844    0.1924    0.4894 H   0  0  0  0  0  0  0  0  0  0  0  0
   -4.8862    0.2914    0.7225 H   0  0  0  0  0  0  0  0  0  0  0  0
   -5.7087    1.7338    0.9791 H   0  0  0  0  0  0  0  0  0  0  0  0
    6.3959    6.6061   -0.7449 H   0  0  0  0  0  0  0  0  0  0  0  0
    7.6038    6.1629   -1.9748 H   0  0  0  0  0  0  0  0  0  0  0  0
    5.8803    5.8176   -2.2551 H   0  0  0  0  0  0  0  0  0  0  0  0
  1  2  1  0  0  0  0
  1 24  1  0  0  0  0
  1 25  1  0  0  0  0
  1 26  1  0  0  0  0
  2  7  2  0  0  0  0
  2  3  1  0  0  0  0
  3  4  2  0  0  0  0
  3 27  1  0  0  0  0
  4  5  1  0  0  0  0
  4 23  1  0  0  0  0
  5  6  2  0  0  0  0
  5 28  1  0  0  0  0
  6  7  1  0  0  0  0
  6  8  1  0  0  0  0
  7 29  1  0  0  0  0
  8  9  1  0  0  0  0
  8 30  1  0  0  0  0
  9 10  2  0  0  0  0
  9 11  1  0  0  0  0
 11 12  1  0  0  0  0
 11 31  1  0  0  0  0
 11 32  1  0  0  0  0
 12 13  1  0  0  0  0
 13 14  2  0  0  0  0
 13 15  1  0  0  0  0
 15 20  2  0  0  0  0
 15 16  1  0  0  0  0
 16 17  2  0  0  0  0
 16 33  1  0  0  0  0
 17 18  1  0  0  0  0
 17 34  1  0  0  0  0
 18 19  2  0  0  0  0
 18 22  1  0  0  0  0
 19 20  1  0  0  0  0
 19 21  1  0  0  0  0
 20 35  1  0  0  0  0
 21 36  1  0  0  0  0
 21 37  1  0  0  0  0
 23 38  1  0  0  0  0
 23 39  1  0  0  0  0
 23 40  1  0  0  0  0
M  END
$$$$
ZINC03451541
  -OEChem-08230709453D

 40 41  0     0  0  0  0  0  0999 V2000
    6.6641    5.8739   -1.4933 C   0  0  0  0  0  0  0  0  0  0  0  0
    6.8302    4.5218   -0.8489 C   0  0  0  0  0  0  0  0  0  0  0  0
    8.0672    4.1332   -0.3676 C   0  0  0  0  0  0  0  0  0  0  0  0
    8.2238    2.8932    0.2235 C   0  0  0  0  0  0  0  0  0  0  0  0
    7.1446    2.0382    0.3350 C   0  0  0  0  0  0  0  0  0  0  0  0
    5.9013    2.4255   -0.1469 C   0  0  0  0  0  0  0  0  0  0  0  0
    5.7484    3.6698   -0.7448 C   0  0  0  0  0  0  0  0  0  0  0  0
    4.8061    1.5619   -0.0354 N   0  0  0  0  0  0  0  0  0  0  0  0
    3.5537    2.0598   -0.0241 C   0  0  0  0  0  0  0  0  0  0  0  0
    3.3783    3.2598   -0.0093 O   0  0  0  0  0  0  0  0  0  0  0  0
    2.3713    1.1254   -0.0297 C   0  0  0  0  0  0  0  0  0  0  0  0
    1.1428    1.8993   -0.0152 O   0  0  0  0  0  0  0  0  0  0  0  0
   -0.0145    1.2097   -0.0180 C   0  0  0  0  0  0  0  0  0  0  0  0
    0.0022   -0.0048   -0.0322 O   0  0  0  0  0  0  0  0  0  0  0  0
   -1.3035    1.9304   -0.0101 C   0  0  0  0  0  0  0  0  0  0  0  0
   -1.3252    3.3269    0.0121 C   0  0  0  0  0  0  0  0  0  0  0  0
   -2.5302    3.9981    0.0142 C   0  0  0  0  0  0  0  0  0  0  0  0
   -3.7205    3.2924    0.0060 C   0  0  0  0  0  0  0  0  0  0  0  0
   -3.7095    1.9013   -0.0108 C   0  0  0  0  0  0  0  0  0  0  0  0
   -2.5038    1.2182   -0.0188 C   0  0  0  0  0  0  0  0  0  0  0  0
   -4.9144    1.1927   -0.0199 N   0  0  0  0  0  0  0  0  0  0  0  0
   -5.2324    4.1456    0.0161 Cl  0  0  0  0  0  0  0  0  0  0  0  0
    7.3163    0.6868    0.9793 C   0  0  0  0  0  0  0  0  0  0  0  0
    6.8520    5.7917   -2.5638 H   0  0  0  0  0  0  0  0  0  0  0  0
    5.6479    6.2322   -1.3292 H   0  0  0  0  0  0  0  0  0  0  0  0
    7.3724    6.5757   -1.0529 H   0  0  0  0  0  0  0  0  0  0  0  0
    8.9126    4.7997   -0.4539 H   0  0  0  0  0  0  0  0  0  0  0  0
    9.1912    2.5925    0.5981 H   0  0  0  0  0  0  0  0  0  0  0  0
    4.7837    3.9720   -1.1249 H   0  0  0  0  0  0  0  0  0  0  0  0
    4.9482    0.6048    0.0336 H   0  0  0  0  0  0  0  0  0  0  0  0
    2.4088    0.4867    0.8528 H   0  0  0  0  0  0  0  0  0  0  0  0
    2.4008    0.5074   -0.9270 H   0  0  0  0  0  0  0  0  0  0  0  0
   -0.3984    3.8813    0.0234 H   0  0  0  0  0  0  0  0  0  0  0  0
   -2.5448    5.0779    0.0268 H   0  0  0  0  0  0  0  0  0  0  0  0
   -2.4930    0.1384   -0.0315 H   0  0  0  0  0  0  0  0  0  0  0  0
   -4.9066    0.2228   -0.0319 H   0  0  0  0  0  0  0  0  0  0  0  0
   -5.7583    1.6709   -0.0143 H   0  0  0  0  0  0  0  0  0  0  0  0
    7.5855   -0.0466    0.2192 H   0  0  0  0  0  0  0  0  0  0  0  0
    8.1057    0.7394    1.7291 H   0  0  0  0  0  0  0  0  0  0  0  0
    6.3819    0.3900    1.4557 H   0  0  0  0  0  0  0  0  0  0  0  0
  1  2  1  0  0  0  0
  1 24  1  0  0  0  0
  1 25  1  0  0  0  0
  1 26  1  0  0  0  0
  2  7  2  0  0  0  0
  2  3  1  0  0  0  0
  3  4  2  0  0  0  0
  3 27  1  0  0  0  0
  4  5  1  0  0  0  0
  4 28  1  0  0  0  0
  5  6  2  0  0  0  0
  5 23  1  0  0  0  0
  6  7  1  0  0  0  0
  6  8  1  0  0  0  0
  7 29  1  0  0  0  0
  8  9  1  0  0  0  0
  8 30  1  0  0  0  0
  9 10  2  0  0  0  0
  9 11  1  0  0  0  0
 11 12  1  0  0  0  0
 11 31  1  0  0  0  0
 11 32  1  0  0  0  0
 12 13  1  0  0  0  0
 13 14  2  0  0  0  0
 13 15  1  0  0  0  0
 15 20  2  0  0  0  0
 15 16  1  0  0  0  0
 16 17  2  0  0  0  0
 16 33  1  0  0  0  0
 17 18  1  0  0  0  0
 17 34  1  0  0  0  0
 18 19  2  0  0  0  0
 18 22  1  0  0  0  0
 19 20  1  0  0  0  0
 19 21  1  0  0  0  0
 20 35  1  0  0  0  0
 21 36  1  0  0  0  0
 21 37  1  0  0  0  0
 23 38  1  0  0  0  0
 23 39  1  0  0  0  0
 23 40  1  0  0  0  0
M  END
$$$$
ZINC03451549
  -OEChem-08230709453D

 40 41  0     0  0  0  0  0  0999 V2000
    9.2467    5.0635   -0.4874 C   0  0  0  0  0  0  0  0  0  0  0  0
    8.0671    4.1333   -0.3673 C   0  0  0  0  0  0  0  0  0  0  0  0
    6.8313    4.5198   -0.8533 C   0  0  0  0  0  0  0  0  0  0  0  0
    5.7484    3.6698   -0.7448 C   0  0  0  0  0  0  0  0  0  0  0  0
    5.9013    2.4255   -0.1469 C   0  0  0  0  0  0  0  0  0  0  0  0
    7.1420    2.0428    0.3452 C   0  0  0  0  0  0  0  0  0  0  0  0
    8.2225    2.8956    0.2288 C   0  0  0  0  0  0  0  0  0  0  0  0
    7.3109    0.6964    1.0006 C   0  0  0  0  0  0  0  0  0  0  0  0
    4.8061    1.5619   -0.0354 N   0  0  0  0  0  0  0  0  0  0  0  0
    3.5537    2.0598   -0.0240 C   0  0  0  0  0  0  0  0  0  0  0  0
    3.3783    3.2598   -0.0093 O   0  0  0  0  0  0  0  0  0  0  0  0
    2.3713    1.1254   -0.0296 C   0  0  0  0  0  0  0  0  0  0  0  0
    1.1428    1.8993   -0.0151 O   0  0  0  0  0  0  0  0  0  0  0  0
   -0.0145    1.2097   -0.0180 C   0  0  0  0  0  0  0  0  0  0  0  0
    0.0022   -0.0048   -0.0322 O   0  0  0  0  0  0  0  0  0  0  0  0
   -1.3035    1.9304   -0.0100 C   0  0  0  0  0  0  0  0  0  0  0  0
   -1.3252    3.3270    0.0122 C   0  0  0  0  0  0  0  0  0  0  0  0
   -2.5302    3.9981    0.0144 C   0  0  0  0  0  0  0  0  0  0  0  0
   -3.7205    3.2924    0.0062 C   0  0  0  0  0  0  0  0  0  0  0  0
   -3.7095    1.9013   -0.0106 C   0  0  0  0  0  0  0  0  0  0  0  0
   -2.5038    1.2183   -0.0187 C   0  0  0  0  0  0  0  0  0  0  0  0
   -4.9144    1.1927   -0.0198 N   0  0  0  0  0  0  0  0  0  0  0  0
   -5.2323    4.1456    0.0163 Cl  0  0  0  0  0  0  0  0  0  0  0  0
    9.3003    5.6983    0.3970 H   0  0  0  0  0  0  0  0  0  0  0  0
   10.1630    4.4792   -0.5714 H   0  0  0  0  0  0  0  0  0  0  0  0
    9.1299    5.6857   -1.3747 H   0  0  0  0  0  0  0  0  0  0  0  0
    6.7130    5.4876   -1.3178 H   0  0  0  0  0  0  0  0  0  0  0  0
    4.7836    3.9724   -1.1242 H   0  0  0  0  0  0  0  0  0  0  0  0
    9.1887    2.5968    0.6077 H   0  0  0  0  0  0  0  0  0  0  0  0
    7.5851   -0.0425    0.2477 H   0  0  0  0  0  0  0  0  0  0  0  0
    8.0958    0.7552    1.7547 H   0  0  0  0  0  0  0  0  0  0  0  0
    6.3739    0.4025    1.4737 H   0  0  0  0  0  0  0  0  0  0  0  0
    4.9482    0.6048    0.0336 H   0  0  0  0  0  0  0  0  0  0  0  0
    2.4088    0.4867    0.8528 H   0  0  0  0  0  0  0  0  0  0  0  0
    2.4008    0.5074   -0.9270 H   0  0  0  0  0  0  0  0  0  0  0  0
   -0.3984    3.8813    0.0235 H   0  0  0  0  0  0  0  0  0  0  0  0
   -2.5448    5.0779    0.0270 H   0  0  0  0  0  0  0  0  0  0  0  0
   -2.4930    0.1384   -0.0314 H   0  0  0  0  0  0  0  0  0  0  0  0
   -4.9066    0.2228   -0.0318 H   0  0  0  0  0  0  0  0  0  0  0  0
   -5.7583    1.6709   -0.0141 H   0  0  0  0  0  0  0  0  0  0  0  0
  1  2  1  0  0  0  0
  1 24  1  0  0  0  0
  1 25  1  0  0  0  0
  1 26  1  0  0  0  0
  2  7  2  0  0  0  0
  2  3  1  0  0  0  0
  3  4  2  0  0  0  0
  3 27  1  0  0  0  0
  4  5  1  0  0  0  0
  4 28  1  0  0  0  0
  5  6  2  0  0  0  0
  5  9  1  0  0  0  0
  6  7  1  0  0  0  0
  6  8  1  0  0  0  0
  7 29  1  0  0  0  0
  8 30  1  0  0  0  0
  8 31  1  0  0  0  0
  8 32  1  0  0  0  0
  9 10  1  0  0  0  0
  9 33  1  0  0  0  0
 10 11  2  0  0  0  0
 10 12  1  0  0  0  0
 12 13  1  0  0  0  0
 12 34  1  0  0  0  0
 12 35  1  0  0  0  0
 13 14  1  0  0  0  0
 14 15  2  0  0  0  0
 14 16  1  0  0  0  0
 16 21  2  0  0  0  0
 16 17  1  0  0  0  0
 17 18  2  0  0  0  0
 17 36  1  0  0  0  0
 18 19  1  0  0  0  0
 18 37  1  0  0  0  0
 19 20  2  0  0  0  0
 19 23  1  0  0  0  0
 20 21  1  0  0  0  0
 20 22  1  0  0  0  0
 21 38  1  0  0  0  0
 22 39  1  0  0  0  0
 22 40  1  0  0  0  0
M  END
$$$$
ZINC03451573
  -OEChem-08230709453D

 43 44  0     0  0  0  0  0  0999 V2000
    9.2369    5.0873   -0.3656 C   0  0  0  0  0  0  0  0  0  0  0  0
    8.0624    4.1446   -0.3096 C   0  0  0  0  0  0  0  0  0  0  0  0
    8.2687    2.7991   -0.0660 C   0  0  0  0  0  0  0  0  0  0  0  0
    7.1945    1.9326   -0.0140 C   0  0  0  0  0  0  0  0  0  0  0  0
    5.9061    2.4139   -0.2062 C   0  0  0  0  0  0  0  0  0  0  0  0
    5.7027    3.7649   -0.4555 C   0  0  0  0  0  0  0  0  0  0  0  0
    6.7808    4.6270   -0.5014 C   0  0  0  0  0  0  0  0  0  0  0  0
    4.3068    4.2905   -0.6703 C   0  0  0  0  0  0  0  0  0  0  0  0
    4.8157    1.5386   -0.1547 N   0  0  0  0  0  0  0  0  0  0  0  0
    3.7670    1.8149    0.6456 C   0  0  0  0  0  0  0  0  0  0  0  0
    3.7966    2.7871    1.3701 O   0  0  0  0  0  0  0  0  0  0  0  0
    2.5576    0.9157    0.6402 C   0  0  0  0  0  0  0  0  0  0  0  0
    1.5736    1.4225    1.5800 O   0  0  0  0  0  0  0  0  0  0  0  0
    0.4249    0.7283    1.6966 C   0  0  0  0  0  0  0  0  0  0  0  0
    0.2503   -0.2731    1.0315 O   0  0  0  0  0  0  0  0  0  0  0  0
   -0.6243    1.1880    2.6286 C   0  0  0  0  0  0  0  0  0  0  0  0
   -0.4234    2.3359    3.3987 C   0  0  0  0  0  0  0  0  0  0  0  0
   -1.4069    2.7664    4.2647 C   0  0  0  0  0  0  0  0  0  0  0  0
   -2.5899    2.0581    4.3826 C   0  0  0  0  0  0  0  0  0  0  0  0
   -2.7974    0.9106    3.6239 C   0  0  0  0  0  0  0  0  0  0  0  0
   -1.8175    0.4735    2.7469 C   0  0  0  0  0  0  0  0  0  0  0  0
   -3.9943    0.1989    3.7458 N   0  0  0  0  0  0  0  0  0  0  0  0
   -3.8191    2.6035    5.4805 Cl  0  0  0  0  0  0  0  0  0  0  0  0
    7.4202    0.4665    0.2516 C   0  0  0  0  0  0  0  0  0  0  0  0
    9.6078    5.1452   -1.3889 H   0  0  0  0  0  0  0  0  0  0  0  0
    8.9237    6.0779   -0.0361 H   0  0  0  0  0  0  0  0  0  0  0  0
   10.0286    4.7205    0.2877 H   0  0  0  0  0  0  0  0  0  0  0  0
    9.2709    2.4254    0.0835 H   0  0  0  0  0  0  0  0  0  0  0  0
    6.6230    5.6784   -0.6915 H   0  0  0  0  0  0  0  0  0  0  0  0
    3.9325    4.7183    0.2598 H   0  0  0  0  0  0  0  0  0  0  0  0
    4.3229    5.0591   -1.4431 H   0  0  0  0  0  0  0  0  0  0  0  0
    3.6554    3.4745   -0.9830 H   0  0  0  0  0  0  0  0  0  0  0  0
    4.8145    0.7330   -0.6949 H   0  0  0  0  0  0  0  0  0  0  0  0
    2.8530   -0.0922    0.9317 H   0  0  0  0  0  0  0  0  0  0  0  0
    2.1263    0.8929   -0.3605 H   0  0  0  0  0  0  0  0  0  0  0  0
    0.5004    2.8887    3.3131 H   0  0  0  0  0  0  0  0  0  0  0  0
   -1.2515    3.6567    4.8559 H   0  0  0  0  0  0  0  0  0  0  0  0
   -1.9764   -0.4172    2.1572 H   0  0  0  0  0  0  0  0  0  0  0  0
   -4.1391   -0.6009    3.2165 H   0  0  0  0  0  0  0  0  0  0  0  0
   -4.6802    0.5050    4.3596 H   0  0  0  0  0  0  0  0  0  0  0  0
    7.5620   -0.0565   -0.6942 H   0  0  0  0  0  0  0  0  0  0  0  0
    8.3076    0.3420    0.8721 H   0  0  0  0  0  0  0  0  0  0  0  0
    6.5542    0.0534    0.7688 H   0  0  0  0  0  0  0  0  0  0  0  0
  1  2  1  0  0  0  0
  1 25  1  0  0  0  0
  1 26  1  0  0  0  0
  1 27  1  0  0  0  0
  2  7  2  0  0  0  0
  2  3  1  0  0  0  0
  3  4  2  0  0  0  0
  3 28  1  0  0  0  0
  4  5  1  0  0  0  0
  4 24  1  0  0  0  0
  5  6  2  0  0  0  0
  5  9  1  0  0  0  0
  6  7  1  0  0  0  0
  6  8  1  0  0  0  0
  7 29  1  0  0  0  0
  8 30  1  0  0  0  0
  8 31  1  0  0  0  0
  8 32  1  0  0  0  0
  9 10  1  0  0  0  0
  9 33  1  0  0  0  0
 10 11  2  0  0  0  0
 10 12  1  0  0  0  0
 12 13  1  0  0  0  0
 12 34  1  0  0  0  0
 12 35  1  0  0  0  0
 13 14  1  0  0  0  0
 14 15  2  0  0  0  0
 14 16  1  0  0  0  0
 16 21  2  0  0  0  0
 16 17  1  0  0  0  0
 17 18  2  0  0  0  0
 17 36  1  0  0  0  0
 18 19  1  0  0  0  0
 18 37  1  0  0  0  0
 19 20  2  0  0  0  0
 19 23  1  0  0  0  0
 20 21  1  0  0  0  0
 20 22  1  0  0  0  0
 21 38  1  0  0  0  0
 22 39  1  0  0  0  0
 22 40  1  0  0  0  0
 24 41  1  0  0  0  0
 24 42  1  0  0  0  0
 24 43  1  0  0  0  0
M  END
$$$$
ZINC03451575
  -OEChem-08230709453D

 42 43  0     0  0  0  0  0  0999 V2000
    8.8975    6.2458   -1.1085 C   0  0  0  0  0  0  0  0  0  0  0  0
    9.1320    4.9834   -0.4813 O   0  0  0  0  0  0  0  0  0  0  0  0
    8.0689    4.1413   -0.3714 C   0  0  0  0  0  0  0  0  0  0  0  0
    6.8289    4.5239   -0.8568 C   0  0  0  0  0  0  0  0  0  0  0  0
    5.7494    3.6678   -0.7502 C   0  0  0  0  0  0  0  0  0  0  0  0
    5.9027    2.4266   -0.1470 C   0  0  0  0  0  0  0  0  0  0  0  0
    7.1437    2.0401    0.3403 C   0  0  0  0  0  0  0  0  0  0  0  0
    8.2270    2.8959    0.2289 C   0  0  0  0  0  0  0  0  0  0  0  0
    9.4436    2.5196    0.7060 O   0  0  0  0  0  0  0  0  0  0  0  0
    9.5322    1.2277    1.3102 C   0  0  0  0  0  0  0  0  0  0  0  0
    4.8061    1.5619   -0.0354 N   0  0  0  0  0  0  0  0  0  0  0  0
    3.5682    2.0632    0.1457 C   0  0  0  0  0  0  0  0  0  0  0  0
    3.4145    3.2554    0.3079 O   0  0  0  0  0  0  0  0  0  0  0  0
    2.3751    1.1426    0.1469 C   0  0  0  0  0  0  0  0  0  0  0  0
    1.1658    1.9178    0.3591 O   0  0  0  0  0  0  0  0  0  0  0  0
    0.0019    1.2400    0.3874 C   0  0  0  0  0  0  0  0  0  0  0  0
   -0.0026    0.0344    0.2389 O   0  0  0  0  0  0  0  0  0  0  0  0
   -1.2690    1.9634    0.5930 C   0  0  0  0  0  0  0  0  0  0  0  0
   -1.2658    3.3490    0.7699 C   0  0  0  0  0  0  0  0  0  0  0  0
   -2.4545    4.0233    0.9565 C   0  0  0  0  0  0  0  0  0  0  0  0
   -3.6520    3.3303    0.9808 C   0  0  0  0  0  0  0  0  0  0  0  0
   -3.6653    1.9495    0.8109 C   0  0  0  0  0  0  0  0  0  0  0  0
   -2.4767    1.2641    0.6170 C   0  0  0  0  0  0  0  0  0  0  0  0
   -4.8775    1.2538    0.8352 N   0  0  0  0  0  0  0  0  0  0  0  0
   -5.1425    4.1866    1.2234 Cl  0  0  0  0  0  0  0  0  0  0  0  0
    8.1442    6.7969   -0.5455 H   0  0  0  0  0  0  0  0  0  0  0  0
    9.8249    6.8181   -1.1313 H   0  0  0  0  0  0  0  0  0  0  0  0
    8.5444    6.0854   -2.1272 H   0  0  0  0  0  0  0  0  0  0  0  0
    6.7067    5.4906   -1.3226 H   0  0  0  0  0  0  0  0  0  0  0  0
    4.7846    3.9659   -1.1331 H   0  0  0  0  0  0  0  0  0  0  0  0
    7.2644    1.0730    0.8056 H   0  0  0  0  0  0  0  0  0  0  0  0
   10.5541    1.0535    1.6471 H   0  0  0  0  0  0  0  0  0  0  0  0
    8.8552    1.1782    2.1629 H   0  0  0  0  0  0  0  0  0  0  0  0
    9.2551    0.4660    0.5814 H   0  0  0  0  0  0  0  0  0  0  0  0
    4.9377    0.6023   -0.0886 H   0  0  0  0  0  0  0  0  0  0  0  0
    2.4822    0.4101    0.9468 H   0  0  0  0  0  0  0  0  0  0  0  0
    2.3128    0.6274   -0.8117 H   0  0  0  0  0  0  0  0  0  0  0  0
   -0.3329    3.8929    0.7563 H   0  0  0  0  0  0  0  0  0  0  0  0
   -2.4503    5.0952    1.0885 H   0  0  0  0  0  0  0  0  0  0  0  0
   -2.4847    0.1922    0.4853 H   0  0  0  0  0  0  0  0  0  0  0  0
   -4.8867    0.2912    0.7165 H   0  0  0  0  0  0  0  0  0  0  0  0
   -5.7095    1.7337    0.9709 H   0  0  0  0  0  0  0  0  0  0  0  0
  1  2  1  0  0  0  0
  1 26  1  0  0  0  0
  1 27  1  0  0  0  0
  1 28  1  0  0  0  0
  2  3  1  0  0  0  0
  3  8  2  0  0  0  0
  3  4  1  0  0  0  0
  4  5  2  0  0  0  0
  4 29  1  0  0  0  0
  5  6  1  0  0  0  0
  5 30  1  0  0  0  0
  6  7  2  0  0  0  0
  6 11  1  0  0  0  0
  7  8  1  0  0  0  0
  7 31  1  0  0  0  0
  8  9  1  0  0  0  0
  9 10  1  0  0  0  0
 10 32  1  0  0  0  0
 10 33  1  0  0  0  0
 10 34  1  0  0  0  0
 11 12  1  0  0  0  0
 11 35  1  0  0  0  0
 12 13  2  0  0  0  0
 12 14  1  0  0  0  0
 14 15  1  0  0  0  0
 14 36  1  0  0  0  0
 14 37  1  0  0  0  0
 15 16  1  0  0  0  0
 16 17  2  0  0  0  0
 16 18  1  0  0  0  0
 18 23  2  0  0  0  0
 18 19  1  0  0  0  0
 19 20  2  0  0  0  0
 19 38  1  0  0  0  0
 20 21  1  0  0  0  0
 20 39  1  0  0  0  0
 21 22  2  0  0  0  0
 21 25  1  0  0  0  0
 22 23  1  0  0  0  0
 22 24  1  0  0  0  0
 23 40  1  0  0  0  0
 24 41  1  0  0  0  0
 24 42  1  0  0  0  0
M  END
$$$$
ZINC03451645
  -OEChem-08230709453D

 42 43  0     0  0  0  0  0  0999 V2000
    8.0629    6.5875    0.7718 C   0  0  0  0  0  0  0  0  0  0  0  0
    6.9094    5.7583    0.9265 O   0  0  0  0  0  0  0  0  0  0  0  0
    6.9477    4.5326    0.3409 C   0  0  0  0  0  0  0  0  0  0  0  0
    5.8621    3.6773    0.4517 C   0  0  0  0  0  0  0  0  0  0  0  0
    5.9012    2.4255   -0.1469 C   0  0  0  0  0  0  0  0  0  0  0  0
    7.0296    2.0286   -0.8513 C   0  0  0  0  0  0  0  0  0  0  0  0
    8.1122    2.8872   -0.9662 C   0  0  0  0  0  0  0  0  0  0  0  0
    8.0725    4.1377   -0.3679 C   0  0  0  0  0  0  0  0  0  0  0  0
    9.2149    2.5008   -1.6601 O   0  0  0  0  0  0  0  0  0  0  0  0
   10.2956    3.4331   -1.7325 C   0  0  0  0  0  0  0  0  0  0  0  0
    4.8061    1.5619   -0.0354 N   0  0  0  0  0  0  0  0  0  0  0  0
    3.5537    2.0599   -0.0229 C   0  0  0  0  0  0  0  0  0  0  0  0
    3.3783    3.2600   -0.0237 O   0  0  0  0  0  0  0  0  0  0  0  0
    2.3714    1.1255   -0.0078 C   0  0  0  0  0  0  0  0  0  0  0  0
    1.1430    1.8995    0.0039 O   0  0  0  0  0  0  0  0  0  0  0  0
   -0.0143    1.2099    0.0181 C   0  0  0  0  0  0  0  0  0  0  0  0
    0.0025   -0.0047    0.0207 O   0  0  0  0  0  0  0  0  0  0  0  0
   -1.3032    1.9307    0.0244 C   0  0  0  0  0  0  0  0  0  0  0  0
   -1.3250    3.3274    0.0273 C   0  0  0  0  0  0  0  0  0  0  0  0
   -2.5300    3.9985    0.0279 C   0  0  0  0  0  0  0  0  0  0  0  0
   -3.7202    3.2927    0.0372 C   0  0  0  0  0  0  0  0  0  0  0  0
   -3.7092    1.9015    0.0397 C   0  0  0  0  0  0  0  0  0  0  0  0
   -2.5035    1.2184    0.0334 C   0  0  0  0  0  0  0  0  0  0  0  0
   -4.9141    1.1928    0.0482 N   0  0  0  0  0  0  0  0  0  0  0  0
   -5.2321    4.1459    0.0452 Cl  0  0  0  0  0  0  0  0  0  0  0  0
    7.9010    7.5348    1.2862 H   0  0  0  0  0  0  0  0  0  0  0  0
    8.9310    6.0857    1.1992 H   0  0  0  0  0  0  0  0  0  0  0  0
    8.2365    6.7745   -0.2879 H   0  0  0  0  0  0  0  0  0  0  0  0
    4.9862    3.9851    1.0034 H   0  0  0  0  0  0  0  0  0  0  0  0
    7.0626    1.0530   -1.3133 H   0  0  0  0  0  0  0  0  0  0  0  0
    8.9177    4.8045   -0.4542 H   0  0  0  0  0  0  0  0  0  0  0  0
    9.9532    4.3495   -2.2131 H   0  0  0  0  0  0  0  0  0  0  0  0
   10.6475    3.6602   -0.7261 H   0  0  0  0  0  0  0  0  0  0  0  0
   11.1102    3.0006   -2.3133 H   0  0  0  0  0  0  0  0  0  0  0  0
    4.9481    0.6048    0.0328 H   0  0  0  0  0  0  0  0  0  0  0  0
    2.4147    0.4991    0.8832 H   0  0  0  0  0  0  0  0  0  0  0  0
    2.3952    0.4951   -0.8967 H   0  0  0  0  0  0  0  0  0  0  0  0
   -0.3981    3.8818    0.0249 H   0  0  0  0  0  0  0  0  0  0  0  0
   -2.5447    5.0784    0.0256 H   0  0  0  0  0  0  0  0  0  0  0  0
   -2.4926    0.1385    0.0357 H   0  0  0  0  0  0  0  0  0  0  0  0
   -4.9062    0.2229    0.0497 H   0  0  0  0  0  0  0  0  0  0  0  0
   -5.7580    1.6710    0.0527 H   0  0  0  0  0  0  0  0  0  0  0  0
  1  2  1  0  0  0  0
  1 26  1  0  0  0  0
  1 27  1  0  0  0  0
  1 28  1  0  0  0  0
  2  3  1  0  0  0  0
  3  8  2  0  0  0  0
  3  4  1  0  0  0  0
  4  5  2  0  0  0  0
  4 29  1  0  0  0  0
  5  6  1  0  0  0  0
  5 11  1  0  0  0  0
  6  7  2  0  0  0  0
  6 30  1  0  0  0  0
  7  8  1  0  0  0  0
  7  9  1  0  0  0  0
  8 31  1  0  0  0  0
  9 10  1  0  0  0  0
 10 32  1  0  0  0  0
 10 33  1  0  0  0  0
 10 34  1  0  0  0  0
 11 12  1  0  0  0  0
 11 35  1  0  0  0  0
 12 13  2  0  0  0  0
 12 14  1  0  0  0  0
 14 15  1  0  0  0  0
 14 36  1  0  0  0  0
 14 37  1  0  0  0  0
 15 16  1  0  0  0  0
 16 17  2  0  0  0  0
 16 18  1  0  0  0  0
 18 23  2  0  0  0  0
 18 19  1  0  0  0  0
 19 20  2  0  0  0  0
 19 38  1  0  0  0  0
 20 21  1  0  0  0  0
 20 39  1  0  0  0  0
 21 22  2  0  0  0  0
 21 25  1  0  0  0  0
 22 23  1  0  0  0  0
 22 24  1  0  0  0  0
 23 40  1  0  0  0  0
 24 41  1  0  0  0  0
 24 42  1  0  0  0  0
M  END
$$$$
ZINC03454137
  -OEChem-08230709453D

 40 41  0     0  0  0  0  0  0999 V2000
    2.5759    4.5063   -1.4421 C   0  0  0  0  0  0  0  0  0  0  0  0
    2.2074    4.1617    0.0023 C   0  0  0  0  0  0  0  0  0  0  0  0
    1.0772    3.1649    0.0083 C   0  0  0  0  0  0  0  0  0  0  0  0
    1.1485    1.8079    0.0008 C   0  0  0  0  0  0  0  0  0  0  0  0
   -0.0126    1.0758    0.0080 C   0  0  0  0  0  0  0  0  0  0  0  0
   -1.2047    1.7829    0.0173 C   0  0  0  0  0  0  0  0  0  0  0  0
   -0.6290    3.4715    0.0258 S   0  0  0  0  0  0  0  0  0  0  0  0
   -2.5799    1.2756    0.0208 C   0  0  0  0  0  0  0  0  0  0  0  0
   -2.7860    0.0761    0.0153 O   0  0  0  0  0  0  0  0  0  0  0  0
   -3.6161    2.1373    0.0303 N   0  0  0  0  0  0  0  0  0  0  0  0
   -4.9905    1.6303    0.0339 C   0  0  0  0  0  0  0  0  0  0  0  0
   -5.9536    2.7894    0.0446 C   0  0  0  0  0  0  0  0  0  0  0  0
   -6.3941    3.3109    1.2466 C   0  0  0  0  0  0  0  0  0  0  0  0
   -7.2741    4.3769    1.2564 C   0  0  0  0  0  0  0  0  0  0  0  0
   -7.7206    4.9156    0.0642 C   0  0  0  0  0  0  0  0  0  0  0  0
   -7.2841    4.3907   -1.1378 C   0  0  0  0  0  0  0  0  0  0  0  0
   -6.4008    3.3275   -1.1477 C   0  0  0  0  0  0  0  0  0  0  0  0
   -8.8456    6.2716    0.0767 S   0  0  0  0  0  0  0  0  0  0  0  0
   -8.6760    6.9285    1.3253 O   0  0  0  0  0  0  0  0  0  0  0  0
   -8.6860    6.9432   -1.1654 O   0  0  0  0  0  0  0  0  0  0  0  0
  -10.3757    5.6383    0.0791 N   0  0  0  0  0  0  0  0  0  0  0  0
    2.4866    1.1149   -0.0147 C   0  0  0  0  0  0  0  0  0  0  0  0
    3.3934    5.2273   -1.4464 H   0  0  0  0  0  0  0  0  0  0  0  0
    2.8871    3.6011   -1.9635 H   0  0  0  0  0  0  0  0  0  0  0  0
    1.7098    4.9360   -1.9454 H   0  0  0  0  0  0  0  0  0  0  0  0
    1.8963    5.0669    0.5238 H   0  0  0  0  0  0  0  0  0  0  0  0
    3.0735    3.7320    0.5056 H   0  0  0  0  0  0  0  0  0  0  0  0
    0.0021   -0.0041    0.0020 H   0  0  0  0  0  0  0  0  0  0  0  0
   -3.4518    3.0933    0.0347 H   0  0  0  0  0  0  0  0  0  0  0  0
   -5.1577    1.0273   -0.8586 H   0  0  0  0  0  0  0  0  0  0  0  0
   -5.1495    1.0176    0.9213 H   0  0  0  0  0  0  0  0  0  0  0  0
   -6.0482    2.8876    2.1780 H   0  0  0  0  0  0  0  0  0  0  0  0
   -7.6149    4.7872    2.1955 H   0  0  0  0  0  0  0  0  0  0  0  0
   -7.6329    4.8115   -2.0693 H   0  0  0  0  0  0  0  0  0  0  0  0
   -6.0597    2.9174   -2.0868 H   0  0  0  0  0  0  0  0  0  0  0  0
  -11.1004    6.1225    0.5049 H   0  0  0  0  0  0  0  0  0  0  0  0
  -10.5474    4.7831   -0.3452 H   0  0  0  0  0  0  0  0  0  0  0  0
    2.8001    0.9531   -1.0460 H   0  0  0  0  0  0  0  0  0  0  0  0
    3.2231    1.7355    0.4958 H   0  0  0  0  0  0  0  0  0  0  0  0
    2.4046    0.1549    0.4950 H   0  0  0  0  0  0  0  0  0  0  0  0
  1  2  1  0  0  0  0
  1 23  1  0  0  0  0
  1 24  1  0  0  0  0
  1 25  1  0  0  0  0
  2  3  1  0  0  0  0
  2 26  1  0  0  0  0
  2 27  1  0  0  0  0
  3  7  1  0  0  0  0
  3  4  2  0  0  0  0
  4  5  1  0  0  0  0
  4 22  1  0  0  0  0
  5  6  2  0  0  0  0
  5 28  1  0  0  0  0
  6  7  1  0  0  0  0
  6  8  1  0  0  0  0
  8  9  2  0  0  0  0
  8 10  1  0  0  0  0
 10 11  1  0  0  0  0
 10 29  1  0  0  0  0
 11 12  1  0  0  0  0
 11 30  1  0  0  0  0
 11 31  1  0  0  0  0
 12 17  2  0  0  0  0
 12 13  1  0  0  0  0
 13 14  2  0  0  0  0
 13 32  1  0  0  0  0
 14 15  1  0  0  0  0
 14 33  1  0  0  0  0
 15 16  2  0  0  0  0
 15 18  1  0  0  0  0
 16 17  1  0  0  0  0
 16 34  1  0  0  0  0
 17 35  1  0  0  0  0
 18 19  2  0  0  0  0
 18 20  2  0  0  0  0
 18 21  1  0  0  0  0
 21 36  1  0  0  0  0
 21 37  1  0  0  0  0
 22 38  1  0  0  0  0
 22 39  1  0  0  0  0
 22 40  1  0  0  0  0
M  END
$$$$
ZINC03455580
  -OEChem-08230709453D

 46 48  0     1  0  0  0  0  0999 V2000
   -3.0358    4.2545   11.8431 C   0  0  0  0  0  0  0  0  0  0  0  0
   -1.7403    3.6498   11.3664 C   0  0  0  0  0  0  0  0  0  0  0  0
   -1.5719    3.3668   10.0210 C   0  0  0  0  0  0  0  0  0  0  0  0
   -0.3598    2.7978    9.5941 C   0  0  0  0  0  0  0  0  0  0  0  0
    0.6290    2.5540   10.5562 C   0  0  0  0  0  0  0  0  0  0  0  0
    0.3748    2.8736   11.8730 C   0  0  0  0  0  0  0  0  0  0  0  0
   -0.7792    3.4019   12.2347 N   0  0  0  0  0  0  0  0  0  0  0  0
    1.9516    1.9517   10.1574 C   0  0  0  0  0  0  0  0  0  0  0  0
    2.7771    1.8063   11.3147 O   0  0  0  0  0  0  0  0  0  0  0  0
   -0.1332    2.4726    8.1748 C   0  0  0  0  0  0  0  0  0  0  0  0
   -1.0625    2.7063    7.2989 N   0  0  0  0  0  0  0  0  0  0  0  0
   -0.8471    2.3971    5.9495 N   0  0  0  0  0  0  0  0  0  0  0  0
   -1.8119    2.6398    5.0403 C   0  0  0  0  0  0  0  0  0  0  0  0
   -2.8705    3.1277    5.3915 O   0  0  0  0  0  0  0  0  0  0  0  0
   -1.5866    2.3164    3.6290 C   0  0  0  0  0  0  0  0  0  0  0  0
   -2.4350    2.4838    2.5496 C   0  0  0  0  0  0  0  0  0  0  0  0
   -1.9853    2.0958    1.2980 C   0  0  0  0  0  0  0  0  0  0  0  0
   -0.7240    1.5739    1.2323 C   0  0  0  0  0  0  0  0  0  0  0  0
   -0.1455    1.6041    2.8536 S   0  0  0  0  0  0  0  0  0  0  0  0
   -0.0127    1.0858    0.0080 C   0  0  0  0  0  0  0  0  0  0  0  0
   -0.7657    1.5996   -1.2276 C   0  0  0  0  0  0  0  0  0  0  0  0
   -2.2599    1.3185   -1.0457 C   0  0  1  0  0  0  0  0  0  0  0  0
   -2.3994    0.2782   -0.7520 H   0  0  0  0  0  0  0  0  0  0  0  0
   -2.8343    2.2330    0.0368 C   0  0  0  0  0  0  0  0  0  0  0  0
   -2.9893    1.5739   -2.3661 C   0  0  0  0  0  0  0  0  0  0  0  0
   -2.5630    3.6302    9.1302 O   0  0  0  0  0  0  0  0  0  0  0  0
   -2.9657    5.3415   11.8034 H   0  0  0  0  0  0  0  0  0  0  0  0
   -3.8509    3.9193   11.2017 H   0  0  0  0  0  0  0  0  0  0  0  0
   -3.2278    3.9400   12.8689 H   0  0  0  0  0  0  0  0  0  0  0  0
    1.1322    2.6890   12.6204 H   0  0  0  0  0  0  0  0  0  0  0  0
    1.7840    0.9741    9.7054 H   0  0  0  0  0  0  0  0  0  0  0  0
    2.4460    2.6046    9.4381 H   0  0  0  0  0  0  0  0  0  0  0  0
    3.6462    1.4235   11.1323 H   0  0  0  0  0  0  0  0  0  0  0  0
    0.8059    2.0398    7.8632 H   0  0  0  0  0  0  0  0  0  0  0  0
   -0.0036    2.0084    5.6697 H   0  0  0  0  0  0  0  0  0  0  0  0
   -3.4210    2.9051    2.6789 H   0  0  0  0  0  0  0  0  0  0  0  0
    0.0021   -0.0041    0.0020 H   0  0  0  0  0  0  0  0  0  0  0  0
    1.0085    1.4668    0.0003 H   0  0  0  0  0  0  0  0  0  0  0  0
   -0.6058    2.6727   -1.3330 H   0  0  0  0  0  0  0  0  0  0  0  0
   -0.4008    1.0866   -2.1174 H   0  0  0  0  0  0  0  0  0  0  0  0
   -2.8115    3.2667   -0.3083 H   0  0  0  0  0  0  0  0  0  0  0  0
   -3.8625    1.9425    0.2527 H   0  0  0  0  0  0  0  0  0  0  0  0
   -2.5865    0.9166   -3.1367 H   0  0  0  0  0  0  0  0  0  0  0  0
   -4.0532    1.3742   -2.2380 H   0  0  0  0  0  0  0  0  0  0  0  0
   -2.8480    2.6127   -2.6643 H   0  0  0  0  0  0  0  0  0  0  0  0
   -3.1828    2.8987    9.0039 H   0  0  0  0  0  0  0  0  0  0  0  0
  1  2  1  0  0  0  0
  1 27  1  0  0  0  0
  1 28  1  0  0  0  0
  1 29  1  0  0  0  0
  2  7  2  0  0  0  0
  2  3  1  0  0  0  0
  3  4  2  0  0  0  0
  3 26  1  0  0  0  0
  4  5  1  0  0  0  0
  4 10  1  0  0  0  0
  5  6  2  0  0  0  0
  5  8  1  0  0  0  0
  6  7  1  0  0  0  0
  6 30  1  0  0  0  0
  8  9  1  0  0  0  0
  8 31  1  0  0  0  0
  8 32  1  0  0  0  0
  9 33  1  0  0  0  0
 10 11  2  0  0  0  0
 10 34  1  0  0  0  0
 11 12  1  0  0  0  0
 12 13  1  0  0  0  0
 12 35  1  0  0  0  0
 13 14  2  0  0  0  0
 13 15  1  0  0  0  0
 15 19  1  0  0  0  0
 15 16  2  0  0  0  0
 16 17  1  0  0  0  0
 16 36  1  0  0  0  0
 17 24  1  0  0  0  0
 17 18  2  0  0  0  0
 18 19  1  0  0  0  0
 18 20  1  0  0  0  0
 20 21  1  0  0  0  0
 20 37  1  0  0  0  0
 20 38  1  0  0  0  0
 21 22  1  0  0  0  0
 21 39  1  0  0  0  0
 21 40  1  0  0  0  0
 22 23  1  0  0  0  0
 22 24  1  0  0  0  0
 22 25  1  0  0  0  0
 24 41  1  0  0  0  0
 24 42  1  0  0  0  0
 25 43  1  0  0  0  0
 25 44  1  0  0  0  0
 25 45  1  0  0  0  0
 26 46  1  0  0  0  0
M  END
$$$$
ZINC03456090
  -OEChem-08230709453D

 45 47  0     0  0  0  0  0  0999 V2000
    5.0290    9.5545    6.0453 C   0  0  0  0  0  0  0  0  0  0  0  0
    6.2008    9.4704    5.1014 C   0  0  0  0  0  0  0  0  0  0  0  0
    7.0343   10.5592    4.9352 C   0  0  0  0  0  0  0  0  0  0  0  0
    8.1099   10.4827    4.0697 C   0  0  0  0  0  0  0  0  0  0  0  0
    8.3550    9.3165    3.3678 C   0  0  0  0  0  0  0  0  0  0  0  0
    7.5289    8.2224    3.5337 C   0  0  0  0  0  0  0  0  0  0  0  0
    6.4441    8.2979    4.3981 C   0  0  0  0  0  0  0  0  0  0  0  0
    5.6022    7.1937    4.5640 N   0  0  0  0  0  0  0  0  0  0  0  0
    5.4984    6.2477    3.5628 C   0  0  0  0  0  0  0  0  0  0  0  0
    4.7902    5.1387    3.7645 N   0  0  0  0  0  0  0  0  0  0  0  0
    4.6900    4.2334    2.8072 C   0  0  0  0  0  0  0  0  0  0  0  0
    5.2964    4.4223    1.6481 N   0  0  0  0  0  0  0  0  0  0  0  0
    6.0018    5.5310    1.4370 C   0  0  0  0  0  0  0  0  0  0  0  0
    6.1049    6.4436    2.3972 N   0  0  0  0  0  0  0  0  0  0  0  0
    6.6299    5.7299    0.2245 N   0  0  0  0  0  0  0  0  0  0  0  0
    3.8872    2.9794    3.0399 C   0  0  0  0  0  0  0  0  0  0  0  0
    2.1670    3.2608    2.5376 S   0  0  0  0  0  0  0  0  0  0  0  0
    1.3465    1.6789    2.8766 C   0  0  0  0  0  0  0  0  0  0  0  0
   -0.1091    1.7769    2.4989 C   0  0  0  0  0  0  0  0  0  0  0  0
   -1.1939    2.1807    3.3106 C   0  0  0  0  0  0  0  0  0  0  0  0
   -2.2578    2.1100    2.5640 N   0  0  0  0  0  0  0  0  0  0  0  0
   -1.9922    1.7382    1.4444 O   0  0  0  0  0  0  0  0  0  0  0  0
   -0.6810    1.4985    1.3030 C   0  0  0  0  0  0  0  0  0  0  0  0
    0.0195    1.0199    0.0575 C   0  0  0  0  0  0  0  0  0  0  0  0
   -1.1308    2.6091    4.7541 C   0  0  0  0  0  0  0  0  0  0  0  0
    5.3407    9.2376    7.0405 H   0  0  0  0  0  0  0  0  0  0  0  0
    4.6695   10.5826    6.0873 H   0  0  0  0  0  0  0  0  0  0  0  0
    4.2294    8.9042    5.6906 H   0  0  0  0  0  0  0  0  0  0  0  0
    6.8459   11.4712    5.4821 H   0  0  0  0  0  0  0  0  0  0  0  0
    8.7603   11.3353    3.9419 H   0  0  0  0  0  0  0  0  0  0  0  0
    9.1959    9.2599    2.6925 H   0  0  0  0  0  0  0  0  0  0  0  0
    7.7237    7.3104    2.9889 H   0  0  0  0  0  0  0  0  0  0  0  0
    5.0911    7.0921    5.3821 H   0  0  0  0  0  0  0  0  0  0  0  0
    7.1471    6.5364    0.0727 H   0  0  0  0  0  0  0  0  0  0  0  0
    6.5543    5.0632   -0.4760 H   0  0  0  0  0  0  0  0  0  0  0  0
    3.9189    2.7188    4.0978 H   0  0  0  0  0  0  0  0  0  0  0  0
    4.3086    2.1640    2.4520 H   0  0  0  0  0  0  0  0  0  0  0  0
    1.4315    1.4456    3.9379 H   0  0  0  0  0  0  0  0  0  0  0  0
    1.8213    0.8908    2.2922 H   0  0  0  0  0  0  0  0  0  0  0  0
    0.0467   -0.0697    0.0518 H   0  0  0  0  0  0  0  0  0  0  0  0
    1.0377    1.4088    0.0411 H   0  0  0  0  0  0  0  0  0  0  0  0
   -0.5191    1.3745   -0.8213 H   0  0  0  0  0  0  0  0  0  0  0  0
   -0.9739    3.6865    4.8069 H   0  0  0  0  0  0  0  0  0  0  0  0
   -2.0671    2.3536    5.2502 H   0  0  0  0  0  0  0  0  0  0  0  0
   -0.3057    2.0971    5.2493 H   0  0  0  0  0  0  0  0  0  0  0  0
  1  2  1  0  0  0  0
  1 26  1  0  0  0  0
  1 27  1  0  0  0  0
  1 28  1  0  0  0  0
  2  7  2  0  0  0  0
  2  3  1  0  0  0  0
  3  4  2  0  0  0  0
  3 29  1  0  0  0  0
  4  5  1  0  0  0  0
  4 30  1  0  0  0  0
  5  6  2  0  0  0  0
  5 31  1  0  0  0  0
  6  7  1  0  0  0  0
  6 32  1  0  0  0  0
  7  8  1  0  0  0  0
  8  9  1  0  0  0  0
  8 33  1  0  0  0  0
  9 14  2  0  0  0  0
  9 10  1  0  0  0  0
 10 11  2  0  0  0  0
 11 12  1  0  0  0  0
 11 16  1  0  0  0  0
 12 13  2  0  0  0  0
 13 14  1  0  0  0  0
 13 15  1  0  0  0  0
 15 34  1  0  0  0  0
 15 35  1  0  0  0  0
 16 17  1  0  0  0  0
 16 36  1  0  0  0  0
 16 37  1  0  0  0  0
 17 18  1  0  0  0  0
 18 19  1  0  0  0  0
 18 38  1  0  0  0  0
 18 39  1  0  0  0  0
 19 23  2  0  0  0  0
 19 20  1  0  0  0  0
 20 21  2  0  0  0  0
 20 25  1  0  0  0  0
 21 22  1  0  0  0  0
 22 23  1  0  0  0  0
 23 24  1  0  0  0  0
 24 40  1  0  0  0  0
 24 41  1  0  0  0  0
 24 42  1  0  0  0  0
 25 43  1  0  0  0  0
 25 44  1  0  0  0  0
 25 45  1  0  0  0  0
M  END
$$$$
ZINC03458745
  -OEChem-08230709453D

 46 48  0     1  0  0  0  0  0999 V2000
    3.4646  -11.4560    9.2542 C   0  0  0  0  0  0  0  0  0  0  0  0
    4.6159  -10.4502    9.1940 C   0  0  0  0  0  0  0  0  0  0  0  0
    4.4594   -9.5799    7.9736 C   0  0  0  0  0  0  0  0  0  0  0  0
    3.5194   -9.7477    7.2256 O   0  0  0  0  0  0  0  0  0  0  0  0
    5.3639   -8.6152    7.7134 N   0  0  0  0  0  0  0  0  0  0  0  0
    5.1609   -7.7360    6.6440 C   0  0  0  0  0  0  0  0  0  0  0  0
    3.8706   -7.3519    6.2976 C   0  0  0  0  0  0  0  0  0  0  0  0
    3.6667   -6.4858    5.2453 C   0  0  0  0  0  0  0  0  0  0  0  0
    4.7589   -5.9936    4.5263 C   0  0  0  0  0  0  0  0  0  0  0  0
    6.0539   -6.3865    4.8738 C   0  0  0  0  0  0  0  0  0  0  0  0
    6.2501   -7.2484    5.9310 C   0  0  0  0  0  0  0  0  0  0  0  0
    4.5447   -5.0652    3.3978 C   0  0  0  0  0  0  0  0  0  0  0  0
    5.6062   -4.6111    2.7291 C   0  0  0  0  0  0  0  0  0  0  0  0
    5.3871   -3.4986    1.3797 S   0  0  0  0  0  0  0  0  0  0  0  0
    3.7312   -2.9306    1.5758 C   0  0  0  0  0  0  0  0  0  0  0  0
    2.9076   -3.5506    2.3520 N   0  0  0  0  0  0  0  0  0  0  0  0
    3.2343   -4.6934    3.0694 N   0  0  0  0  0  0  0  0  0  0  0  0
    3.3096   -1.8016    0.8930 N   0  0  0  0  0  0  0  0  0  0  0  0
    1.9344   -1.3215    1.0496 C   0  0  0  0  0  0  0  0  0  0  0  0
    1.7306   -0.0697    0.1940 C   0  0  1  0  0  0  0  0  0  0  0  0
    1.9492   -0.2859   -0.8517 H   0  0  0  0  0  0  0  0  0  0  0  0
    0.2852    0.4547    0.3438 C   0  0  0  0  0  0  0  0  0  0  0  0
    0.4390    1.9919    0.3182 C   0  0  0  0  0  0  0  0  0  0  0  0
    1.9590    2.2144    0.1559 C   0  0  0  0  0  0  0  0  0  0  0  0
    2.5655    1.0086    0.6696 O   0  0  0  0  0  0  0  0  0  0  0  0
    2.5168  -10.9205    9.3089 H   0  0  0  0  0  0  0  0  0  0  0  0
    3.4790  -12.0786    8.3596 H   0  0  0  0  0  0  0  0  0  0  0  0
    3.5778  -12.0854   10.1368 H   0  0  0  0  0  0  0  0  0  0  0  0
    5.5637  -10.9857    9.1392 H   0  0  0  0  0  0  0  0  0  0  0  0
    4.6016   -9.8275   10.0885 H   0  0  0  0  0  0  0  0  0  0  0  0
    6.1556   -8.5304    8.2674 H   0  0  0  0  0  0  0  0  0  0  0  0
    3.0269   -7.7330    6.8536 H   0  0  0  0  0  0  0  0  0  0  0  0
    2.6640   -6.1882    4.9765 H   0  0  0  0  0  0  0  0  0  0  0  0
    6.9003   -6.0116    4.3176 H   0  0  0  0  0  0  0  0  0  0  0  0
    7.2511   -7.5488    6.2033 H   0  0  0  0  0  0  0  0  0  0  0  0
    6.5993   -4.9254    3.0142 H   0  0  0  0  0  0  0  0  0  0  0  0
    2.5111   -5.2684    3.3647 H   0  0  0  0  0  0  0  0  0  0  0  0
    3.9250   -1.3287    0.3110 H   0  0  0  0  0  0  0  0  0  0  0  0
    1.7510   -1.0799    2.0966 H   0  0  0  0  0  0  0  0  0  0  0  0
    1.2398   -2.0979    0.7289 H   0  0  0  0  0  0  0  0  0  0  0  0
   -0.1426    0.1294    1.2921 H   0  0  0  0  0  0  0  0  0  0  0  0
   -0.3314    0.1186   -0.4898 H   0  0  0  0  0  0  0  0  0  0  0  0
   -0.1016    2.4158   -0.5281 H   0  0  0  0  0  0  0  0  0  0  0  0
    0.0871    2.4266    1.2538 H   0  0  0  0  0  0  0  0  0  0  0  0
    2.2128    2.3485   -0.8957 H   0  0  0  0  0  0  0  0  0  0  0  0
    2.2803    3.0784    0.7377 H   0  0  0  0  0  0  0  0  0  0  0  0
  1  2  1  0  0  0  0
  1 26  1  0  0  0  0
  1 27  1  0  0  0  0
  1 28  1  0  0  0  0
  2  3  1  0  0  0  0
  2 29  1  0  0  0  0
  2 30  1  0  0  0  0
  3  4  2  0  0  0  0
  3  5  1  0  0  0  0
  5  6  1  0  0  0  0
  5 31  1  0  0  0  0
  6 11  2  0  0  0  0
  6  7  1  0  0  0  0
  7  8  2  0  0  0  0
  7 32  1  0  0  0  0
  8  9  1  0  0  0  0
  8 33  1  0  0  0  0
  9 10  2  0  0  0  0
  9 12  1  0  0  0  0
 10 11  1  0  0  0  0
 10 34  1  0  0  0  0
 11 35  1  0  0  0  0
 12 17  1  0  0  0  0
 12 13  2  0  0  0  0
 13 14  1  0  0  0  0
 13 36  1  0  0  0  0
 14 15  1  0  0  0  0
 15 16  2  0  0  0  0
 15 18  1  0  0  0  0
 16 17  1  0  0  0  0
 17 37  1  0  0  0  0
 18 19  1  0  0  0  0
 18 38  1  0  0  0  0
 19 20  1  0  0  0  0
 19 39  1  0  0  0  0
 19 40  1  0  0  0  0
 20 21  1  0  0  0  0
 20 25  1  0  0  0  0
 20 22  1  0  0  0  0
 22 23  1  0  0  0  0
 22 41  1  0  0  0  0
 22 42  1  0  0  0  0
 23 24  1  0  0  0  0
 23 43  1  0  0  0  0
 23 44  1  0  0  0  0
 24 25  1  0  0  0  0
 24 45  1  0  0  0  0
 24 46  1  0  0  0  0
M  END
$$$$
ZINC03458750
  -OEChem-08230709453D

 46 48  0     1  0  0  0  0  0999 V2000
    3.0507   10.1108   -3.1297 C   0  0  0  0  0  0  0  0  0  0  0  0
    1.6982    9.6381   -2.5930 C   0  0  0  0  0  0  0  0  0  0  0  0
    1.7831    8.1771   -2.2337 C   0  0  0  0  0  0  0  0  0  0  0  0
    2.8232    7.5732   -2.3913 O   0  0  0  0  0  0  0  0  0  0  0  0
    0.7034    7.5413   -1.7371 N   0  0  0  0  0  0  0  0  0  0  0  0
    0.8111    6.2163   -1.3004 C   0  0  0  0  0  0  0  0  0  0  0  0
    1.9938    5.7712   -0.7214 C   0  0  0  0  0  0  0  0  0  0  0  0
    2.1038    4.4669   -0.2905 C   0  0  0  0  0  0  0  0  0  0  0  0
    1.0245    3.5917   -0.4359 C   0  0  0  0  0  0  0  0  0  0  0  0
   -0.1608    4.0414   -1.0232 C   0  0  0  0  0  0  0  0  0  0  0  0
   -0.2651    5.3487   -1.4464 C   0  0  0  0  0  0  0  0  0  0  0  0
    1.1382    2.1930    0.0247 C   0  0  0  0  0  0  0  0  0  0  0  0
    2.2839    1.7896    0.5768 C   0  0  0  0  0  0  0  0  0  0  0  0
    2.4552    0.1263    1.1342 S   0  0  0  0  0  0  0  0  0  0  0  0
    1.1078   -0.7088    0.3660 C   0  0  0  0  0  0  0  0  0  0  0  0
    0.1251   -0.0468   -0.1449 N   0  0  0  0  0  0  0  0  0  0  0  0
    0.0391    1.3387   -0.1344 N   0  0  0  0  0  0  0  0  0  0  0  0
    1.1033   -2.0928    0.3094 N   0  0  0  0  0  0  0  0  0  0  0  0
    2.2146   -2.8531    0.8867 C   0  0  0  0  0  0  0  0  0  0  0  0
    1.9644   -4.3499    0.6913 C   0  0  2  0  0  0  0  0  0  0  0  0
    0.9791   -4.6217    1.0700 H   0  0  0  0  0  0  0  0  0  0  0  0
    3.0601   -5.1754    1.4015 C   0  0  0  0  0  0  0  0  0  0  0  0
    3.3041   -6.3702    0.4527 C   0  0  0  0  0  0  0  0  0  0  0  0
    2.3270   -6.1251   -0.7185 C   0  0  0  0  0  0  0  0  0  0  0  0
    2.0837   -4.7016   -0.7043 O   0  0  0  0  0  0  0  0  0  0  0  0
    3.3118    9.5331   -4.0164 H   0  0  0  0  0  0  0  0  0  0  0  0
    2.9893   11.1676   -3.3896 H   0  0  0  0  0  0  0  0  0  0  0  0
    3.8147    9.9684   -2.3654 H   0  0  0  0  0  0  0  0  0  0  0  0
    0.9342    9.7805   -3.3573 H   0  0  0  0  0  0  0  0  0  0  0  0
    1.4371   10.2158   -1.7063 H   0  0  0  0  0  0  0  0  0  0  0  0
   -0.1483    8.0023   -1.6825 H   0  0  0  0  0  0  0  0  0  0  0  0
    2.8276    6.4483   -0.6093 H   0  0  0  0  0  0  0  0  0  0  0  0
    3.0232    4.1215    0.1587 H   0  0  0  0  0  0  0  0  0  0  0  0
   -0.9956    3.3665   -1.1416 H   0  0  0  0  0  0  0  0  0  0  0  0
   -1.1827    5.6984   -1.8961 H   0  0  0  0  0  0  0  0  0  0  0  0
    3.1059    2.4821    0.6825 H   0  0  0  0  0  0  0  0  0  0  0  0
   -0.8363    1.7407   -0.2483 H   0  0  0  0  0  0  0  0  0  0  0  0
    0.3645   -2.5586   -0.1125 H   0  0  0  0  0  0  0  0  0  0  0  0
    3.1436   -2.5723    0.3905 H   0  0  0  0  0  0  0  0  0  0  0  0
    2.2907   -2.6334    1.9516 H   0  0  0  0  0  0  0  0  0  0  0  0
    3.9697   -4.5856    1.5146 H   0  0  0  0  0  0  0  0  0  0  0  0
    2.7076   -5.5223    2.3729 H   0  0  0  0  0  0  0  0  0  0  0  0
    4.3344   -6.3710    0.0967 H   0  0  0  0  0  0  0  0  0  0  0  0
    3.0738   -7.3099    0.9547 H   0  0  0  0  0  0  0  0  0  0  0  0
    2.7838   -6.4226   -1.6624 H   0  0  0  0  0  0  0  0  0  0  0  0
    1.3980   -6.6722   -0.5584 H   0  0  0  0  0  0  0  0  0  0  0  0
  1  2  1  0  0  0  0
  1 26  1  0  0  0  0
  1 27  1  0  0  0  0
  1 28  1  0  0  0  0
  2  3  1  0  0  0  0
  2 29  1  0  0  0  0
  2 30  1  0  0  0  0
  3  4  2  0  0  0  0
  3  5  1  0  0  0  0
  5  6  1  0  0  0  0
  5 31  1  0  0  0  0
  6 11  2  0  0  0  0
  6  7  1  0  0  0  0
  7  8  2  0  0  0  0
  7 32  1  0  0  0  0
  8  9  1  0  0  0  0
  8 33  1  0  0  0  0
  9 10  2  0  0  0  0
  9 12  1  0  0  0  0
 10 11  1  0  0  0  0
 10 34  1  0  0  0  0
 11 35  1  0  0  0  0
 12 17  1  0  0  0  0
 12 13  2  0  0  0  0
 13 14  1  0  0  0  0
 13 36  1  0  0  0  0
 14 15  1  0  0  0  0
 15 16  2  0  0  0  0
 15 18  1  0  0  0  0
 16 17  1  0  0  0  0
 17 37  1  0  0  0  0
 18 19  1  0  0  0  0
 18 38  1  0  0  0  0
 19 20  1  0  0  0  0
 19 39  1  0  0  0  0
 19 40  1  0  0  0  0
 20 21  1  0  0  0  0
 20 25  1  0  0  0  0
 20 22  1  0  0  0  0
 22 23  1  0  0  0  0
 22 41  1  0  0  0  0
 22 42  1  0  0  0  0
 23 24  1  0  0  0  0
 23 43  1  0  0  0  0
 23 44  1  0  0  0  0
 24 25  1  0  0  0  0
 24 45  1  0  0  0  0
 24 46  1  0  0  0  0
M  END
$$$$
ZINC03459288
  -OEChem-08230709453D

 50 52  0     1  0  0  0  0  0999 V2000
    3.8693    0.1609   -1.8709 C   0  0  0  0  0  0  0  0  0  0  0  0
    2.9083    0.5238   -0.7339 C   0  0  1  0  0  0  0  0  0  0  0  0
    2.2152   -0.2992   -0.5773 H   0  0  0  0  0  0  0  0  0  0  0  0
    3.7093    0.7956    0.5374 C   0  0  0  0  0  0  0  0  0  0  0  0
    2.7859    1.1383    1.7015 C   0  0  0  0  0  0  0  0  0  0  0  0
    1.8133    2.2539    1.3599 C   0  0  0  0  0  0  0  0  0  0  0  0
    1.1587    2.1518   -0.0017 C   0  0  1  0  0  0  0  0  0  0  0  0
    2.1380    1.7907   -1.1094 C   0  0  0  0  0  0  0  0  0  0  0  0
   -0.0185    1.2062    0.0010 C   0  0  0  0  0  0  0  0  0  0  0  0
   -0.0064   -0.0052   -0.0132 O   0  0  0  0  0  0  0  0  0  0  0  0
   -1.1141    1.9965    0.0168 N   0  0  0  0  0  0  0  0  0  0  0  0
   -0.7928    3.2791   -0.1873 C   0  0  0  0  0  0  0  0  0  0  0  0
   -1.6086    4.1766   -0.2635 O   0  0  0  0  0  0  0  0  0  0  0  0
    0.5332    3.4545   -0.3262 N   0  0  0  0  0  0  0  0  0  0  0  0
   -2.4781    1.5098    0.2316 C   0  0  0  0  0  0  0  0  0  0  0  0
   -2.7919    1.5286    1.7055 C   0  0  0  0  0  0  0  0  0  0  0  0
   -1.9575    1.9111    2.4983 O   0  0  0  0  0  0  0  0  0  0  0  0
   -3.9997    1.1204    2.1426 N   0  0  0  0  0  0  0  0  0  0  0  0
   -4.2584    1.0458    3.5168 C   0  0  0  0  0  0  0  0  0  0  0  0
   -5.0810    0.0447    4.0160 C   0  0  0  0  0  0  0  0  0  0  0  0
   -5.3311   -0.0300    5.3722 C   0  0  0  0  0  0  0  0  0  0  0  0
   -4.7706    0.8989    6.2327 C   0  0  0  0  0  0  0  0  0  0  0  0
   -3.9543    1.9012    5.7363 C   0  0  0  0  0  0  0  0  0  0  0  0
   -3.6974    1.9763    4.3813 C   0  0  0  0  0  0  0  0  0  0  0  0
   -5.0210    0.8275    7.5584 F   0  0  0  0  0  0  0  0  0  0  0  0
    3.6661    1.6127    2.8777 C   0  0  0  0  0  0  0  0  0  0  0  0
    2.0355   -0.1135    2.1641 C   0  0  0  0  0  0  0  0  0  0  0  0
    4.4344   -0.7305   -1.5984 H   0  0  0  0  0  0  0  0  0  0  0  0
    3.2999   -0.0337   -2.7797 H   0  0  0  0  0  0  0  0  0  0  0  0
    4.5572    0.9886   -2.0433 H   0  0  0  0  0  0  0  0  0  0  0  0
    4.3936    1.6298    0.3599 H   0  0  0  0  0  0  0  0  0  0  0  0
    4.2985   -0.0897    0.7892 H   0  0  0  0  0  0  0  0  0  0  0  0
    2.3429    3.2172    1.4243 H   0  0  0  0  0  0  0  0  0  0  0  0
    1.0244    2.2824    2.1278 H   0  0  0  0  0  0  0  0  0  0  0  0
    1.5900    1.6190   -2.0376 H   0  0  0  0  0  0  0  0  0  0  0  0
    2.8409    2.6121   -1.2567 H   0  0  0  0  0  0  0  0  0  0  0  0
    0.9994    4.2616   -0.5840 H   0  0  0  0  0  0  0  0  0  0  0  0
   -3.1810    2.1531   -0.2977 H   0  0  0  0  0  0  0  0  0  0  0  0
   -2.5638    0.4906   -0.1451 H   0  0  0  0  0  0  0  0  0  0  0  0
   -4.6897    0.8782    1.5053 H   0  0  0  0  0  0  0  0  0  0  0  0
   -5.5216   -0.6775    3.3446 H   0  0  0  0  0  0  0  0  0  0  0  0
   -5.9678   -0.8108    5.7613 H   0  0  0  0  0  0  0  0  0  0  0  0
   -3.5184    2.6250    6.4090 H   0  0  0  0  0  0  0  0  0  0  0  0
   -3.0610    2.7583    3.9945 H   0  0  0  0  0  0  0  0  0  0  0  0
    3.0342    1.8362    3.7373 H   0  0  0  0  0  0  0  0  0  0  0  0
    4.3740    0.8270    3.1417 H   0  0  0  0  0  0  0  0  0  0  0  0
    4.2115    2.5097    2.5846 H   0  0  0  0  0  0  0  0  0  0  0  0
    1.3738   -0.4554    1.3683 H   0  0  0  0  0  0  0  0  0  0  0  0
    2.7523   -0.8991    2.4033 H   0  0  0  0  0  0  0  0  0  0  0  0
    1.4463    0.1228    3.0502 H   0  0  0  0  0  0  0  0  0  0  0  0
  1  2  1  0  0  0  0
  1 28  1  0  0  0  0
  1 29  1  0  0  0  0
  1 30  1  0  0  0  0
  2  3  1  0  0  0  0
  2  8  1  0  0  0  0
  2  4  1  0  0  0  0
  4  5  1  0  0  0  0
  4 31  1  0  0  0  0
  4 32  1  0  0  0  0
  5  6  1  0  0  0  0
  5 26  1  0  0  0  0
  5 27  1  0  0  0  0
  6  7  1  0  0  0  0
  6 33  1  0  0  0  0
  6 34  1  0  0  0  0
  7 14  1  0  0  0  0
  7  8  1  0  0  0  0
  7  9  1  0  0  0  0
  8 35  1  0  0  0  0
  8 36  1  0  0  0  0
  9 10  2  0  0  0  0
  9 11  1  0  0  0  0
 11 12  1  0  0  0  0
 11 15  1  0  0  0  0
 12 13  2  0  0  0  0
 12 14  1  0  0  0  0
 14 37  1  0  0  0  0
 15 16  1  0  0  0  0
 15 38  1  0  0  0  0
 15 39  1  0  0  0  0
 16 17  2  0  0  0  0
 16 18  1  0  0  0  0
 18 19  1  0  0  0  0
 18 40  1  0  0  0  0
 19 24  2  0  0  0  0
 19 20  1  0  0  0  0
 20 21  2  0  0  0  0
 20 41  1  0  0  0  0
 21 22  1  0  0  0  0
 21 42  1  0  0  0  0
 22 23  2  0  0  0  0
 22 25  1  0  0  0  0
 23 24  1  0  0  0  0
 23 43  1  0  0  0  0
 24 44  1  0  0  0  0
 26 45  1  0  0  0  0
 26 46  1  0  0  0  0
 26 47  1  0  0  0  0
 27 48  1  0  0  0  0
 27 49  1  0  0  0  0
 27 50  1  0  0  0  0
M  END
$$$$
ZINC03464215
  -OEChem-08230709453D

 43 44  0     1  0  0  0  0  0999 V2000
    2.5339   -2.1786    0.5392 C   0  0  0  0  0  0  0  0  0  0  0  0
    1.3093   -2.9154    1.0856 C   0  0  0  0  0  0  0  0  0  0  0  0
    0.0369   -2.2019    0.6241 C   0  0  1  0  0  0  0  0  0  0  0  0
    0.0230   -0.7670    1.1127 C   0  0  0  0  0  0  0  0  0  0  0  0
    0.0299   -0.3852    2.2634 O   0  0  0  0  0  0  0  0  0  0  0  0
    0.0021   -0.0041    0.0020 N   0  0  0  0  0  0  0  0  0  0  0  0
   -0.0041   -0.7497   -1.1088 C   0  0  0  0  0  0  0  0  0  0  0  0
   -0.0263   -0.2875   -2.2327 O   0  0  0  0  0  0  0  0  0  0  0  0
    0.0208   -2.0682   -0.8429 N   0  0  0  0  0  0  0  0  0  0  0  0
   -0.0178    1.4608    0.0101 C   0  0  0  0  0  0  0  0  0  0  0  0
    1.3960    1.9824   -0.0006 C   0  0  0  0  0  0  0  0  0  0  0  0
    2.3280    1.2072   -0.0137 O   0  0  0  0  0  0  0  0  0  0  0  0
    1.6243    3.3107    0.0043 N   0  0  0  0  0  0  0  0  0  0  0  0
    2.8887    3.7772   -0.0052 C   0  0  0  0  0  0  0  0  0  0  0  0
    3.8225    3.0006   -0.0183 O   0  0  0  0  0  0  0  0  0  0  0  0
    3.1167    5.1036   -0.0003 O   0  0  0  0  0  0  0  0  0  0  0  0
    4.5033    5.5342   -0.0112 C   0  0  0  0  0  0  0  0  0  0  0  0
    4.5626    7.0630   -0.0036 C   0  0  0  0  0  0  0  0  0  0  0  0
   -1.1864   -2.9381    1.1061 C   0  0  0  0  0  0  0  0  0  0  0  0
   -1.1522   -3.6234    2.3062 C   0  0  0  0  0  0  0  0  0  0  0  0
   -2.2756   -4.2941    2.7516 C   0  0  0  0  0  0  0  0  0  0  0  0
   -3.4311   -4.2889    1.9907 C   0  0  0  0  0  0  0  0  0  0  0  0
   -3.4630   -3.6076    0.7870 C   0  0  0  0  0  0  0  0  0  0  0  0
   -2.3407   -2.9326    0.3454 C   0  0  0  0  0  0  0  0  0  0  0  0
   -4.8402   -5.1375    2.5458 Cl  0  0  0  0  0  0  0  0  0  0  0  0
    3.4403   -2.6869    0.8680 H   0  0  0  0  0  0  0  0  0  0  0  0
    2.4968   -2.1703   -0.5501 H   0  0  0  0  0  0  0  0  0  0  0  0
    2.5370   -1.1538    0.9105 H   0  0  0  0  0  0  0  0  0  0  0  0
    1.3464   -2.9237    2.1749 H   0  0  0  0  0  0  0  0  0  0  0  0
    1.3062   -3.9402    0.7142 H   0  0  0  0  0  0  0  0  0  0  0  0
    0.0234   -2.7902   -1.4907 H   0  0  0  0  0  0  0  0  0  0  0  0
   -0.5450    1.8219   -0.8730 H   0  0  0  0  0  0  0  0  0  0  0  0
   -0.5280    1.8123    0.9069 H   0  0  0  0  0  0  0  0  0  0  0  0
    0.8786    3.9309    0.0148 H   0  0  0  0  0  0  0  0  0  0  0  0
    5.0111    5.1465    0.8719 H   0  0  0  0  0  0  0  0  0  0  0  0
    4.9941    5.1560   -0.9080 H   0  0  0  0  0  0  0  0  0  0  0  0
    4.0548    7.4508   -0.8867 H   0  0  0  0  0  0  0  0  0  0  0  0
    4.0718    7.4412    0.8932 H   0  0  0  0  0  0  0  0  0  0  0  0
    5.6036    7.3863   -0.0118 H   0  0  0  0  0  0  0  0  0  0  0  0
   -0.2488   -3.6311    2.8980 H   0  0  0  0  0  0  0  0  0  0  0  0
   -2.2501   -4.8258    3.6913 H   0  0  0  0  0  0  0  0  0  0  0  0
   -4.3646   -3.6035    0.1924 H   0  0  0  0  0  0  0  0  0  0  0  0
   -2.3653   -2.4010   -0.5944 H   0  0  0  0  0  0  0  0  0  0  0  0
  1  2  1  0  0  0  0
  1 26  1  0  0  0  0
  1 27  1  0  0  0  0
  1 28  1  0  0  0  0
  2  3  1  0  0  0  0
  2 29  1  0  0  0  0
  2 30  1  0  0  0  0
  3  9  1  0  0  0  0
  3  4  1  0  0  0  0
  3 19  1  0  0  0  0
  4  5  2  0  0  0  0
  4  6  1  0  0  0  0
  6  7  1  0  0  0  0
  6 10  1  0  0  0  0
  7  8  2  0  0  0  0
  7  9  1  0  0  0  0
  9 31  1  0  0  0  0
 10 11  1  0  0  0  0
 10 32  1  0  0  0  0
 10 33  1  0  0  0  0
 11 12  2  0  0  0  0
 11 13  1  0  0  0  0
 13 14  1  0  0  0  0
 13 34  1  0  0  0  0
 14 15  2  0  0  0  0
 14 16  1  0  0  0  0
 16 17  1  0  0  0  0
 17 18  1  0  0  0  0
 17 35  1  0  0  0  0
 17 36  1  0  0  0  0
 18 37  1  0  0  0  0
 18 38  1  0  0  0  0
 18 39  1  0  0  0  0
 19 24  2  0  0  0  0
 19 20  1  0  0  0  0
 20 21  2  0  0  0  0
 20 40  1  0  0  0  0
 21 22  1  0  0  0  0
 21 41  1  0  0  0  0
 22 23  2  0  0  0  0
 22 25  1  0  0  0  0
 23 24  1  0  0  0  0
 23 42  1  0  0  0  0
 24 43  1  0  0  0  0
M  END
$$$$
ZINC03487168
  -OEChem-08230709453D

 43 45  0     0  0  0  0  0  0999 V2000
    2.9641    8.2872   -0.2010 C   0  0  0  0  0  0  0  0  0  0  0  0
    4.1671    7.3847   -0.1033 C   0  0  0  0  0  0  0  0  0  0  0  0
    5.4290    7.8858   -0.3482 C   0  0  0  0  0  0  0  0  0  0  0  0
    6.5345    7.0589   -0.2581 C   0  0  0  0  0  0  0  0  0  0  0  0
    6.3832    5.7250    0.0779 C   0  0  0  0  0  0  0  0  0  0  0  0
    5.1279    5.2121    0.3297 C   0  0  0  0  0  0  0  0  0  0  0  0
    4.0072    6.0399    0.2357 C   0  0  0  0  0  0  0  0  0  0  0  0
    2.6592    5.4965    0.4999 C   0  0  0  0  0  0  0  0  0  0  0  0
    1.6995    6.2406    0.5295 O   0  0  0  0  0  0  0  0  0  0  0  0
    2.4941    4.1759    0.7079 O   0  0  0  0  0  0  0  0  0  0  0  0
    1.1417    3.7124    0.9615 C   0  0  0  0  0  0  0  0  0  0  0  0
    1.1528    2.2198    1.1690 C   0  0  0  0  0  0  0  0  0  0  0  0
    2.1976    1.6070    1.1091 O   0  0  0  0  0  0  0  0  0  0  0  0
    0.0015    1.5659    1.4211 N   0  0  0  0  0  0  0  0  0  0  0  0
    0.0117    0.1925    1.6121 C   0  0  0  0  0  0  0  0  0  0  0  0
   -1.0554   -0.6462    1.8842 C   0  0  0  0  0  0  0  0  0  0  0  0
   -0.7732   -2.0728    2.0391 C   0  0  0  0  0  0  0  0  0  0  0  0
    0.5204   -2.4167    1.9064 C   0  0  0  0  0  0  0  0  0  0  0  0
    1.3628   -0.8884    1.5756 S   0  0  0  0  0  0  0  0  0  0  0  0
    0.7315   -3.8963    2.0813 C   0  0  0  0  0  0  0  0  0  0  0  0
   -0.6755   -4.5121    1.9170 C   0  0  0  0  0  0  0  0  0  0  0  0
   -1.5832   -3.3367    2.3308 C   0  0  0  0  0  0  0  0  0  0  0  0
   -2.4198   -0.1237    2.0085 C   0  0  0  0  0  0  0  0  0  0  0  0
   -3.1358   -0.0521    1.0269 O   0  0  0  0  0  0  0  0  0  0  0  0
   -2.8810    0.2772    3.2098 N   0  0  0  0  0  0  0  0  0  0  0  0
    2.7025    8.6527    0.7920 H   0  0  0  0  0  0  0  0  0  0  0  0
    3.1954    9.1319   -0.8498 H   0  0  0  0  0  0  0  0  0  0  0  0
    2.1244    7.7296   -0.6158 H   0  0  0  0  0  0  0  0  0  0  0  0
    5.5542    8.9259   -0.6106 H   0  0  0  0  0  0  0  0  0  0  0  0
    7.5201    7.4563   -0.4505 H   0  0  0  0  0  0  0  0  0  0  0  0
    7.2505    5.0851    0.1473 H   0  0  0  0  0  0  0  0  0  0  0  0
    5.0116    4.1718    0.5958 H   0  0  0  0  0  0  0  0  0  0  0  0
    0.5082    3.9559    0.1085 H   0  0  0  0  0  0  0  0  0  0  0  0
    0.7518    4.2005    1.8547 H   0  0  0  0  0  0  0  0  0  0  0  0
   -0.8347    2.0555    1.4651 H   0  0  0  0  0  0  0  0  0  0  0  0
    1.4053   -4.2775    1.3140 H   0  0  0  0  0  0  0  0  0  0  0  0
    1.1261   -4.1092    3.0748 H   0  0  0  0  0  0  0  0  0  0  0  0
   -0.8571   -4.7995    0.8814 H   0  0  0  0  0  0  0  0  0  0  0  0
   -0.8095   -5.3626    2.5855 H   0  0  0  0  0  0  0  0  0  0  0  0
   -2.4996   -3.3420    1.7406 H   0  0  0  0  0  0  0  0  0  0  0  0
   -1.8191   -3.3982    3.3931 H   0  0  0  0  0  0  0  0  0  0  0  0
   -2.3103    0.2201    3.9921 H   0  0  0  0  0  0  0  0  0  0  0  0
   -3.7836    0.6228    3.2920 H   0  0  0  0  0  0  0  0  0  0  0  0
  1  2  1  0  0  0  0
  1 26  1  0  0  0  0
  1 27  1  0  0  0  0
  1 28  1  0  0  0  0
  2  7  2  0  0  0  0
  2  3  1  0  0  0  0
  3  4  2  0  0  0  0
  3 29  1  0  0  0  0
  4  5  1  0  0  0  0
  4 30  1  0  0  0  0
  5  6  2  0  0  0  0
  5 31  1  0  0  0  0
  6  7  1  0  0  0  0
  6 32  1  0  0  0  0
  7  8  1  0  0  0  0
  8  9  2  0  0  0  0
  8 10  1  0  0  0  0
 10 11  1  0  0  0  0
 11 12  1  0  0  0  0
 11 33  1  0  0  0  0
 11 34  1  0  0  0  0
 12 13  2  0  0  0  0
 12 14  1  0  0  0  0
 14 15  1  0  0  0  0
 14 35  1  0  0  0  0
 15 19  1  0  0  0  0
 15 16  2  0  0  0  0
 16 17  1  0  0  0  0
 16 23  1  0  0  0  0
 17 22  1  0  0  0  0
 17 18  2  0  0  0  0
 18 19  1  0  0  0  0
 18 20  1  0  0  0  0
 20 21  1  0  0  0  0
 20 36  1  0  0  0  0
 20 37  1  0  0  0  0
 21 22  1  0  0  0  0
 21 38  1  0  0  0  0
 21 39  1  0  0  0  0
 22 40  1  0  0  0  0
 22 41  1  0  0  0  0
 23 24  2  0  0  0  0
 23 25  1  0  0  0  0
 25 42  1  0  0  0  0
 25 43  1  0  0  0  0
M  END
$$$$
ZINC03495848
  -OEChem-08230709453D

 42 44  0     0  0  0  0  0  0999 V2000
   -0.3021    9.8878    4.6404 C   0  0  0  0  0  0  0  0  0  0  0  0
    0.4139   10.5250    3.4775 C   0  0  0  0  0  0  0  0  0  0  0  0
    0.6729   11.8817    3.4844 C   0  0  0  0  0  0  0  0  0  0  0  0
    1.3306   12.4670    2.4183 C   0  0  0  0  0  0  0  0  0  0  0  0
    1.7312   11.6967    1.3418 C   0  0  0  0  0  0  0  0  0  0  0  0
    1.4791   10.3390    1.3305 C   0  0  0  0  0  0  0  0  0  0  0  0
    0.8143    9.7487    2.3979 C   0  0  0  0  0  0  0  0  0  0  0  0
    0.5541    8.3748    2.3879 N   0  0  0  0  0  0  0  0  0  0  0  0
    0.4685    7.6968    1.1874 C   0  0  0  0  0  0  0  0  0  0  0  0
    0.3326    6.3725    1.1781 N   0  0  0  0  0  0  0  0  0  0  0  0
    0.2565    5.7225    0.0302 C   0  0  0  0  0  0  0  0  0  0  0  0
    0.3040    6.3847   -1.1126 N   0  0  0  0  0  0  0  0  0  0  0  0
    0.4343    7.7093   -1.1114 C   0  0  0  0  0  0  0  0  0  0  0  0
    0.5166    8.3659    0.0408 N   0  0  0  0  0  0  0  0  0  0  0  0
    0.4843    8.3998   -2.3052 N   0  0  0  0  0  0  0  0  0  0  0  0
    0.1089    4.2228    0.0242 C   0  0  0  0  0  0  0  0  0  0  0  0
    1.7479    3.4554   -0.0043 S   0  0  0  0  0  0  0  0  0  0  0  0
    1.2892    1.7541   -0.0068 C   0  0  0  0  0  0  0  0  0  0  0  0
    0.0670    1.2752    0.0083 N   0  0  0  0  0  0  0  0  0  0  0  0
    0.1014   -0.0096    0.0005 N   0  0  0  0  0  0  0  0  0  0  0  0
    1.3366   -0.4238   -0.0199 C   0  0  0  0  0  0  0  0  0  0  0  0
    2.1377    0.6845   -0.0253 N   0  0  0  0  0  0  0  0  0  0  0  0
    3.6022    0.7174   -0.0460 C   0  0  0  0  0  0  0  0  0  0  0  0
    1.7972   -1.8587   -0.0352 C   0  0  0  0  0  0  0  0  0  0  0  0
    0.4275    9.5598    5.3808 H   0  0  0  0  0  0  0  0  0  0  0  0
   -0.9779   10.6135    5.0929 H   0  0  0  0  0  0  0  0  0  0  0  0
   -0.8739    9.0290    4.2886 H   0  0  0  0  0  0  0  0  0  0  0  0
    0.3617   12.4860    4.3237 H   0  0  0  0  0  0  0  0  0  0  0  0
    1.5322   13.5280    2.4264 H   0  0  0  0  0  0  0  0  0  0  0  0
    2.2450   12.1568    0.5107 H   0  0  0  0  0  0  0  0  0  0  0  0
    1.7955    9.7374    0.4912 H   0  0  0  0  0  0  0  0  0  0  0  0
    0.4336    7.8979    3.2239 H   0  0  0  0  0  0  0  0  0  0  0  0
    0.4245    7.9197   -3.1459 H   0  0  0  0  0  0  0  0  0  0  0  0
    0.5792    9.3651   -2.3035 H   0  0  0  0  0  0  0  0  0  0  0  0
   -0.4512    3.9164   -0.8592 H   0  0  0  0  0  0  0  0  0  0  0  0
   -0.4247    3.9066    0.9205 H   0  0  0  0  0  0  0  0  0  0  0  0
    3.9507    0.7312   -1.0787 H   0  0  0  0  0  0  0  0  0  0  0  0
    3.9528    1.6125    0.4678 H   0  0  0  0  0  0  0  0  0  0  0  0
    3.9926   -0.1670    0.4575 H   0  0  0  0  0  0  0  0  0  0  0  0
    1.8929   -2.1985   -1.0664 H   0  0  0  0  0  0  0  0  0  0  0  0
    2.7631   -1.9355    0.4639 H   0  0  0  0  0  0  0  0  0  0  0  0
    1.0685   -2.4797    0.4858 H   0  0  0  0  0  0  0  0  0  0  0  0
  1  2  1  0  0  0  0
  1 25  1  0  0  0  0
  1 26  1  0  0  0  0
  1 27  1  0  0  0  0
  2  7  2  0  0  0  0
  2  3  1  0  0  0  0
  3  4  2  0  0  0  0
  3 28  1  0  0  0  0
  4  5  1  0  0  0  0
  4 29  1  0  0  0  0
  5  6  2  0  0  0  0
  5 30  1  0  0  0  0
  6  7  1  0  0  0  0
  6 31  1  0  0  0  0
  7  8  1  0  0  0  0
  8  9  1  0  0  0  0
  8 32  1  0  0  0  0
  9 14  2  0  0  0  0
  9 10  1  0  0  0  0
 10 11  2  0  0  0  0
 11 12  1  0  0  0  0
 11 16  1  0  0  0  0
 12 13  2  0  0  0  0
 13 14  1  0  0  0  0
 13 15  1  0  0  0  0
 15 33  1  0  0  0  0
 15 34  1  0  0  0  0
 16 17  1  0  0  0  0
 16 35  1  0  0  0  0
 16 36  1  0  0  0  0
 17 18  1  0  0  0  0
 18 22  1  0  0  0  0
 18 19  2  0  0  0  0
 19 20  1  0  0  0  0
 20 21  2  0  0  0  0
 21 22  1  0  0  0  0
 21 24  1  0  0  0  0
 22 23  1  0  0  0  0
 23 37  1  0  0  0  0
 23 38  1  0  0  0  0
 23 39  1  0  0  0  0
 24 40  1  0  0  0  0
 24 41  1  0  0  0  0
 24 42  1  0  0  0  0
M  END
$$$$
ZINC03504099
  -OEChem-08230709453D

 42 43  0     0  0  0  0  0  0999 V2000
    1.3345   -0.9698   -0.7418 C   0  0  0  0  0  0  0  0  0  0  0  0
    0.0260   -0.2352   -0.6031 C   0  0  0  0  0  0  0  0  0  0  0  0
   -0.9937   -0.7248   -1.0409 O   0  0  0  0  0  0  0  0  0  0  0  0
   -0.0111    0.9658    0.0074 N   0  0  0  0  0  0  0  0  0  0  0  0
   -1.2079    1.6890    0.0563 C   0  0  0  0  0  0  0  0  0  0  0  0
   -1.1827    3.0770   -0.0166 C   0  0  0  0  0  0  0  0  0  0  0  0
   -2.3597    3.7925    0.0265 C   0  0  0  0  0  0  0  0  0  0  0  0
   -3.5786    3.1216    0.1538 C   0  0  0  0  0  0  0  0  0  0  0  0
   -3.5995    1.7268    0.2322 C   0  0  0  0  0  0  0  0  0  0  0  0
   -2.4187    1.0180    0.1836 C   0  0  0  0  0  0  0  0  0  0  0  0
   -4.8419    3.8850    0.2060 C   0  0  0  0  0  0  0  0  0  0  0  0
   -4.7918    5.2161    0.1290 C   0  0  0  0  0  0  0  0  0  0  0  0
   -6.2805    6.1580    0.1847 S   0  0  0  0  0  0  0  0  0  0  0  0
   -7.5386    4.9625   -0.1171 C   0  0  0  0  0  0  0  0  0  0  0  0
   -7.2891    3.7007   -0.0150 N   0  0  0  0  0  0  0  0  0  0  0  0
   -6.0490    3.1844    0.3289 N   0  0  0  0  0  0  0  0  0  0  0  0
   -8.8110    5.3822   -0.4688 N   0  0  0  0  0  0  0  0  0  0  0  0
   -9.8639    4.3955   -0.7217 C   0  0  0  0  0  0  0  0  0  0  0  0
  -11.1620    5.1175   -1.0888 C   0  0  0  0  0  0  0  0  0  0  0  0
  -12.2616    4.0870   -1.3530 C   0  0  0  0  0  0  0  0  0  0  0  0
  -13.4739    4.7613   -1.6958 O   0  0  0  0  0  0  0  0  0  0  0  0
  -14.5706    3.8852   -1.9637 C   0  0  0  0  0  0  0  0  0  0  0  0
    1.7486   -1.1644    0.2476 H   0  0  0  0  0  0  0  0  0  0  0  0
    1.1675   -1.9152   -1.2581 H   0  0  0  0  0  0  0  0  0  0  0  0
    2.0339   -0.3613   -1.3151 H   0  0  0  0  0  0  0  0  0  0  0  0
    0.7909    1.3271    0.4162 H   0  0  0  0  0  0  0  0  0  0  0  0
   -0.2398    3.5950   -0.1112 H   0  0  0  0  0  0  0  0  0  0  0  0
   -2.3396    4.8706   -0.0340 H   0  0  0  0  0  0  0  0  0  0  0  0
   -4.5398    1.2048    0.3303 H   0  0  0  0  0  0  0  0  0  0  0  0
   -2.4340   -0.0601    0.2440 H   0  0  0  0  0  0  0  0  0  0  0  0
   -3.8395    5.7162    0.0323 H   0  0  0  0  0  0  0  0  0  0  0  0
   -6.0165    2.2810    0.6806 H   0  0  0  0  0  0  0  0  0  0  0  0
   -9.0049    6.3293   -0.5475 H   0  0  0  0  0  0  0  0  0  0  0  0
   -9.5638    3.7467   -1.5446 H   0  0  0  0  0  0  0  0  0  0  0  0
  -10.0227    3.7957    0.1745 H   0  0  0  0  0  0  0  0  0  0  0  0
  -11.4621    5.7662   -0.2659 H   0  0  0  0  0  0  0  0  0  0  0  0
  -11.0032    5.7172   -1.9850 H   0  0  0  0  0  0  0  0  0  0  0  0
  -11.9615    3.4382   -2.1759 H   0  0  0  0  0  0  0  0  0  0  0  0
  -12.4204    3.4872   -0.4568 H   0  0  0  0  0  0  0  0  0  0  0  0
  -14.3184    3.2323   -2.7992 H   0  0  0  0  0  0  0  0  0  0  0  0
  -14.7773    3.2812   -1.0801 H   0  0  0  0  0  0  0  0  0  0  0  0
  -15.4527    4.4738   -2.2159 H   0  0  0  0  0  0  0  0  0  0  0  0
  1  2  1  0  0  0  0
  1 23  1  0  0  0  0
  1 24  1  0  0  0  0
  1 25  1  0  0  0  0
  2  3  2  0  0  0  0
  2  4  1  0  0  0  0
  4  5  1  0  0  0  0
  4 26  1  0  0  0  0
  5 10  2  0  0  0  0
  5  6  1  0  0  0  0
  6  7  2  0  0  0  0
  6 27  1  0  0  0  0
  7  8  1  0  0  0  0
  7 28  1  0  0  0  0
  8  9  2  0  0  0  0
  8 11  1  0  0  0  0
  9 10  1  0  0  0  0
  9 29  1  0  0  0  0
 10 30  1  0  0  0  0
 11 16  1  0  0  0  0
 11 12  2  0  0  0  0
 12 13  1  0  0  0  0
 12 31  1  0  0  0  0
 13 14  1  0  0  0  0
 14 15  2  0  0  0  0
 14 17  1  0  0  0  0
 15 16  1  0  0  0  0
 16 32  1  0  0  0  0
 17 18  1  0  0  0  0
 17 33  1  0  0  0  0
 18 19  1  0  0  0  0
 18 34  1  0  0  0  0
 18 35  1  0  0  0  0
 19 20  1  0  0  0  0
 19 36  1  0  0  0  0
 19 37  1  0  0  0  0
 20 21  1  0  0  0  0
 20 38  1  0  0  0  0
 20 39  1  0  0  0  0
 21 22  1  0  0  0  0
 22 40  1  0  0  0  0
 22 41  1  0  0  0  0
 22 42  1  0  0  0  0
M  END
$$$$
ZINC03505574
  -OEChem-08230709453D

 45 47  0     0  0  0  0  0  0999 V2000
   -0.2829   -4.1106    2.3286 C   0  0  0  0  0  0  0  0  0  0  0  0
    0.2446   -2.5568    1.5554 S   0  0  0  0  0  0  0  0  0  0  0  0
   -1.2253   -1.9293    0.8135 C   0  0  0  0  0  0  0  0  0  0  0  0
   -2.4157   -2.6345    0.9223 C   0  0  0  0  0  0  0  0  0  0  0  0
   -3.5672   -2.1399    0.3399 C   0  0  0  0  0  0  0  0  0  0  0  0
   -3.5380   -0.9428   -0.3521 C   0  0  0  0  0  0  0  0  0  0  0  0
   -2.3579   -0.2310   -0.4610 C   0  0  0  0  0  0  0  0  0  0  0  0
   -1.1963   -0.7217    0.1154 C   0  0  0  0  0  0  0  0  0  0  0  0
    0.0021   -0.0041    0.0020 N   0  0  0  0  0  0  0  0  0  0  0  0
   -0.0166    1.3436    0.0051 C   0  0  0  0  0  0  0  0  0  0  0  0
   -1.0753    1.9354    0.0181 O   0  0  0  0  0  0  0  0  0  0  0  0
    1.2777    2.1151   -0.0138 C   0  0  0  0  0  0  0  0  0  0  0  0
    0.9901    3.5516   -0.0063 N   0  0  0  0  0  0  0  0  0  0  0  0
    0.8590    4.2928    1.1133 C   0  0  0  0  0  0  0  0  0  0  0  0
    0.9533    3.9123    2.2606 O   0  0  0  0  0  0  0  0  0  0  0  0
    0.5702    5.6976    0.6360 C   0  0  0  0  0  0  0  0  0  0  0  0
    1.6660    6.6515    1.0985 C   0  0  0  0  0  0  0  0  0  0  0  0
    1.3704    8.0619    0.5819 C   0  0  0  0  0  0  0  0  0  0  0  0
    0.0116    8.5236    1.1127 C   0  0  0  0  0  0  0  0  0  0  0  0
   -1.0798    7.5712    0.6200 C   0  0  0  0  0  0  0  0  0  0  0  0
   -0.7941    6.1588    1.1366 C   0  0  0  0  0  0  0  0  0  0  0  0
    0.5703    5.5838   -0.8279 N   0  0  0  0  0  0  0  0  0  0  0  0
    0.8305    4.2928   -1.1096 C   0  0  0  0  0  0  0  0  0  0  0  0
    0.9084    3.8497   -2.2386 O   0  0  0  0  0  0  0  0  0  0  0  0
   -0.6760   -4.7815    1.5647 H   0  0  0  0  0  0  0  0  0  0  0  0
    0.5695   -4.5795    2.8202 H   0  0  0  0  0  0  0  0  0  0  0  0
   -1.0592   -3.9045    3.0655 H   0  0  0  0  0  0  0  0  0  0  0  0
   -2.4421   -3.5695    1.4622 H   0  0  0  0  0  0  0  0  0  0  0  0
   -4.4928   -2.6897    0.4257 H   0  0  0  0  0  0  0  0  0  0  0  0
   -4.4408   -0.5609   -0.8053 H   0  0  0  0  0  0  0  0  0  0  0  0
   -2.3399    0.7057   -0.9984 H   0  0  0  0  0  0  0  0  0  0  0  0
    0.8450   -0.4772   -0.0787 H   0  0  0  0  0  0  0  0  0  0  0  0
    1.8670    1.8579    0.8664 H   0  0  0  0  0  0  0  0  0  0  0  0
    1.8387    1.8616   -0.9134 H   0  0  0  0  0  0  0  0  0  0  0  0
    1.7006    6.6639    2.1879 H   0  0  0  0  0  0  0  0  0  0  0  0
    2.6273    6.3164    0.7090 H   0  0  0  0  0  0  0  0  0  0  0  0
    1.3510    8.0531   -0.5079 H   0  0  0  0  0  0  0  0  0  0  0  0
    2.1465    8.7454    0.9262 H   0  0  0  0  0  0  0  0  0  0  0  0
   -0.1958    9.5312    0.7523 H   0  0  0  0  0  0  0  0  0  0  0  0
    0.0285    8.5240    2.2025 H   0  0  0  0  0  0  0  0  0  0  0  0
   -1.0912    7.5641   -0.4699 H   0  0  0  0  0  0  0  0  0  0  0  0
   -2.0485    7.9051    0.9916 H   0  0  0  0  0  0  0  0  0  0  0  0
   -1.5633    5.4771    0.7738 H   0  0  0  0  0  0  0  0  0  0  0  0
   -0.7982    6.1636    2.2266 H   0  0  0  0  0  0  0  0  0  0  0  0
    0.4174    6.2982   -1.4661 H   0  0  0  0  0  0  0  0  0  0  0  0
  1  2  1  0  0  0  0
  1 25  1  0  0  0  0
  1 26  1  0  0  0  0
  1 27  1  0  0  0  0
  2  3  1  0  0  0  0
  3  8  2  0  0  0  0
  3  4  1  0  0  0  0
  4  5  2  0  0  0  0
  4 28  1  0  0  0  0
  5  6  1  0  0  0  0
  5 29  1  0  0  0  0
  6  7  2  0  0  0  0
  6 30  1  0  0  0  0
  7  8  1  0  0  0  0
  7 31  1  0  0  0  0
  8  9  1  0  0  0  0
  9 10  1  0  0  0  0
  9 32  1  0  0  0  0
 10 11  2  0  0  0  0
 10 12  1  0  0  0  0
 12 13  1  0  0  0  0
 12 33  1  0  0  0  0
 12 34  1  0  0  0  0
 13 23  1  0  0  0  0
 13 14  1  0  0  0  0
 14 15  2  0  0  0  0
 14 16  1  0  0  0  0
 16 21  1  0  0  0  0
 16 17  1  0  0  0  0
 16 22  1  0  0  0  0
 17 18  1  0  0  0  0
 17 35  1  0  0  0  0
 17 36  1  0  0  0  0
 18 19  1  0  0  0  0
 18 37  1  0  0  0  0
 18 38  1  0  0  0  0
 19 20  1  0  0  0  0
 19 39  1  0  0  0  0
 19 40  1  0  0  0  0
 20 21  1  0  0  0  0
 20 41  1  0  0  0  0
 20 42  1  0  0  0  0
 21 43  1  0  0  0  0
 21 44  1  0  0  0  0
 22 23  1  0  0  0  0
 22 45  1  0  0  0  0
 23 24  2  0  0  0  0
M  END
$$$$
ZINC03507946
  -OEChem-08230709453D

 40 41  0     0  0  0  0  0  0999 V2000
    8.7810   -5.7824    0.9086 C   0  0  0  0  0  0  0  0  0  0  0  0
    7.6216   -6.5068    0.2745 C   0  0  0  0  0  0  0  0  0  0  0  0
    6.3418   -5.9982    0.3945 C   0  0  0  0  0  0  0  0  0  0  0  0
    5.2739   -6.6633   -0.1888 C   0  0  0  0  0  0  0  0  0  0  0  0
    5.4939   -7.8467   -0.8907 C   0  0  0  0  0  0  0  0  0  0  0  0
    6.7794   -8.3478   -1.0115 C   0  0  0  0  0  0  0  0  0  0  0  0
    7.8406   -7.6789   -0.4269 C   0  0  0  0  0  0  0  0  0  0  0  0
    9.4501   -8.3127   -0.5734 Cl  0  0  0  0  0  0  0  0  0  0  0  0
    4.4495   -8.5053   -1.4602 O   0  0  0  0  0  0  0  0  0  0  0  0
    4.7497   -9.7120   -2.1642 C   0  0  0  0  0  0  0  0  0  0  0  0
    3.9755   -6.1493   -0.0678 N   0  0  0  0  0  0  0  0  0  0  0  0
    3.7771   -4.8163   -0.0518 C   0  0  0  0  0  0  0  0  0  0  0  0
    4.7268   -4.0617   -0.0607 O   0  0  0  0  0  0  0  0  0  0  0  0
    2.3756   -4.2634   -0.0230 C   0  0  0  0  0  0  0  0  0  0  0  0
    2.4279   -2.8124   -0.0102 O   0  0  0  0  0  0  0  0  0  0  0  0
    1.2502   -2.1580    0.0159 C   0  0  0  0  0  0  0  0  0  0  0  0
    0.2082   -2.7827    0.0275 O   0  0  0  0  0  0  0  0  0  0  0  0
    1.2262   -0.6835    0.0302 C   0  0  0  0  0  0  0  0  0  0  0  0
    0.0056   -0.0027    0.0572 C   0  0  0  0  0  0  0  0  0  0  0  0
   -0.0124    1.3739    0.0710 C   0  0  0  0  0  0  0  0  0  0  0  0
    1.1810    2.0867    0.0581 C   0  0  0  0  0  0  0  0  0  0  0  0
    2.3970    1.4136    0.0312 C   0  0  0  0  0  0  0  0  0  0  0  0
    2.4239    0.0372    0.0173 C   0  0  0  0  0  0  0  0  0  0  0  0
    1.1588    3.4435    0.0718 O   0  0  0  0  0  0  0  0  0  0  0  0
    8.9265   -6.1489    1.9248 H   0  0  0  0  0  0  0  0  0  0  0  0
    9.6842   -5.9612    0.3251 H   0  0  0  0  0  0  0  0  0  0  0  0
    8.5710   -4.7132    0.9346 H   0  0  0  0  0  0  0  0  0  0  0  0
    6.1737   -5.0827    0.9423 H   0  0  0  0  0  0  0  0  0  0  0  0
    6.9532   -9.2625   -1.5588 H   0  0  0  0  0  0  0  0  0  0  0  0
    5.4389   -9.4947   -2.9802 H   0  0  0  0  0  0  0  0  0  0  0  0
    5.2092  -10.4265   -1.4812 H   0  0  0  0  0  0  0  0  0  0  0  0
    3.8302  -10.1353   -2.5683 H   0  0  0  0  0  0  0  0  0  0  0  0
    3.2197   -6.7530    0.0046 H   0  0  0  0  0  0  0  0  0  0  0  0
    1.8640   -4.6164    0.8725 H   0  0  0  0  0  0  0  0  0  0  0  0
    1.8340   -4.5996   -0.9072 H   0  0  0  0  0  0  0  0  0  0  0  0
   -0.9220   -0.5558    0.0676 H   0  0  0  0  0  0  0  0  0  0  0  0
   -0.9551    1.9007    0.0873 H   0  0  0  0  0  0  0  0  0  0  0  0
    3.3219    1.9712    0.0209 H   0  0  0  0  0  0  0  0  0  0  0  0
    3.3691   -0.4850   -0.0032 H   0  0  0  0  0  0  0  0  0  0  0  0
    1.1671    3.8281    0.9590 H   0  0  0  0  0  0  0  0  0  0  0  0
  1  2  1  0  0  0  0
  1 25  1  0  0  0  0
  1 26  1  0  0  0  0
  1 27  1  0  0  0  0
  2  7  2  0  0  0  0
  2  3  1  0  0  0  0
  3  4  2  0  0  0  0
  3 28  1  0  0  0  0
  4  5  1  0  0  0  0
  4 11  1  0  0  0  0
  5  6  2  0  0  0  0
  5  9  1  0  0  0  0
  6  7  1  0  0  0  0
  6 29  1  0  0  0  0
  7  8  1  0  0  0  0
  9 10  1  0  0  0  0
 10 30  1  0  0  0  0
 10 31  1  0  0  0  0
 10 32  1  0  0  0  0
 11 12  1  0  0  0  0
 11 33  1  0  0  0  0
 12 13  2  0  0  0  0
 12 14  1  0  0  0  0
 14 15  1  0  0  0  0
 14 34  1  0  0  0  0
 14 35  1  0  0  0  0
 15 16  1  0  0  0  0
 16 17  2  0  0  0  0
 16 18  1  0  0  0  0
 18 23  2  0  0  0  0
 18 19  1  0  0  0  0
 19 20  2  0  0  0  0
 19 36  1  0  0  0  0
 20 21  1  0  0  0  0
 20 37  1  0  0  0  0
 21 22  2  0  0  0  0
 21 24  1  0  0  0  0
 22 23  1  0  0  0  0
 22 38  1  0  0  0  0
 23 39  1  0  0  0  0
 24 40  1  0  0  0  0
M  END
$$$$
ZINC03508543
  -OEChem-08230709453D

 39 40  0     0  0  0  0  0  0999 V2000
    3.1805    9.9759    2.1322 C   0  0  0  0  0  0  0  0  0  0  0  0
    4.3750    9.4632    1.3696 C   0  0  0  0  0  0  0  0  0  0  0  0
    4.5202    8.1067    1.1462 C   0  0  0  0  0  0  0  0  0  0  0  0
    5.6184    7.6334    0.4442 C   0  0  0  0  0  0  0  0  0  0  0  0
    6.5763    8.5273   -0.0298 C   0  0  0  0  0  0  0  0  0  0  0  0
    6.4218    9.8855    0.1931 C   0  0  0  0  0  0  0  0  0  0  0  0
    5.3234   10.3511    0.8944 C   0  0  0  0  0  0  0  0  0  0  0  0
    5.1355   12.0533    1.1788 Cl  0  0  0  0  0  0  0  0  0  0  0  0
    7.6577    8.0677   -0.7142 O   0  0  0  0  0  0  0  0  0  0  0  0
    8.5987    9.0417   -1.1702 C   0  0  0  0  0  0  0  0  0  0  0  0
    5.7676    6.2582    0.2172 N   0  0  0  0  0  0  0  0  0  0  0  0
    4.6852    5.4552    0.2094 C   0  0  0  0  0  0  0  0  0  0  0  0
    3.5742    5.9340    0.2978 O   0  0  0  0  0  0  0  0  0  0  0  0
    4.8552    3.9625    0.0910 C   0  0  0  0  0  0  0  0  0  0  0  0
    3.5511    3.3242    0.1060 O   0  0  0  0  0  0  0  0  0  0  0  0
    3.5266    1.9806    0.0078 C   0  0  0  0  0  0  0  0  0  0  0  0
    4.5663    1.3594   -0.0876 O   0  0  0  0  0  0  0  0  0  0  0  0
    2.2365    1.2633    0.0164 C   0  0  0  0  0  0  0  0  0  0  0  0
    2.2096   -0.1414    0.0239 C   0  0  0  0  0  0  0  0  0  0  0  0
    1.0431   -0.7763    0.0319 N   0  0  0  0  0  0  0  0  0  0  0  0
   -0.0833   -0.0871    0.0328 C   0  0  0  0  0  0  0  0  0  0  0  0
   -0.0562    1.3005    0.0254 C   0  0  0  0  0  0  0  0  0  0  0  0
    1.0933    1.9437    0.0174 N   0  0  0  0  0  0  0  0  0  0  0  0
    3.3911   -0.8590    0.0233 N   0  0  0  0  0  0  0  0  0  0  0  0
    3.4161   10.0106    3.1959 H   0  0  0  0  0  0  0  0  0  0  0  0
    2.9290   10.9773    1.7829 H   0  0  0  0  0  0  0  0  0  0  0  0
    2.3326    9.3106    1.9694 H   0  0  0  0  0  0  0  0  0  0  0  0
    3.7781    7.4157    1.5180 H   0  0  0  0  0  0  0  0  0  0  0  0
    7.1606   10.5810   -0.1771 H   0  0  0  0  0  0  0  0  0  0  0  0
    9.4104    8.5426   -1.6996 H   0  0  0  0  0  0  0  0  0  0  0  0
    8.1015    9.7402   -1.8431 H   0  0  0  0  0  0  0  0  0  0  0  0
    9.0022    9.5850   -0.3157 H   0  0  0  0  0  0  0  0  0  0  0  0
    6.6498    5.8846    0.0656 H   0  0  0  0  0  0  0  0  0  0  0  0
    5.4484    3.5968    0.9291 H   0  0  0  0  0  0  0  0  0  0  0  0
    5.3639    3.7278   -0.8440 H   0  0  0  0  0  0  0  0  0  0  0  0
   -1.0305   -0.6059    0.0390 H   0  0  0  0  0  0  0  0  0  0  0  0
   -0.9825    1.8558    0.0217 H   0  0  0  0  0  0  0  0  0  0  0  0
    3.3717   -1.8254    0.1037 H   0  0  0  0  0  0  0  0  0  0  0  0
    4.2397   -0.3960   -0.0575 H   0  0  0  0  0  0  0  0  0  0  0  0
  1  2  1  0  0  0  0
  1 25  1  0  0  0  0
  1 26  1  0  0  0  0
  1 27  1  0  0  0  0
  2  7  2  0  0  0  0
  2  3  1  0  0  0  0
  3  4  2  0  0  0  0
  3 28  1  0  0  0  0
  4  5  1  0  0  0  0
  4 11  1  0  0  0  0
  5  6  2  0  0  0  0
  5  9  1  0  0  0  0
  6  7  1  0  0  0  0
  6 29  1  0  0  0  0
  7  8  1  0  0  0  0
  9 10  1  0  0  0  0
 10 30  1  0  0  0  0
 10 31  1  0  0  0  0
 10 32  1  0  0  0  0
 11 12  1  0  0  0  0
 11 33  1  0  0  0  0
 12 13  2  0  0  0  0
 12 14  1  0  0  0  0
 14 15  1  0  0  0  0
 14 34  1  0  0  0  0
 14 35  1  0  0  0  0
 15 16  1  0  0  0  0
 16 17  2  0  0  0  0
 16 18  1  0  0  0  0
 18 23  2  0  0  0  0
 18 19  1  0  0  0  0
 19 20  2  0  0  0  0
 19 24  1  0  0  0  0
 20 21  1  0  0  0  0
 21 22  2  0  0  0  0
 21 36  1  0  0  0  0
 22 23  1  0  0  0  0
 22 37  1  0  0  0  0
 24 38  1  0  0  0  0
 24 39  1  0  0  0  0
M  END
$$$$
ZINC03509822
  -OEChem-08230709453D

 44 46  0     0  0  0  0  0  0999 V2000
    9.2050    3.8622   -0.0658 C   0  0  0  0  0  0  0  0  0  0  0  0
    7.8580    4.5378   -0.0496 C   0  0  0  0  0  0  0  0  0  0  0  0
    6.6711    3.9083   -0.0412 C   0  0  0  0  0  0  0  0  0  0  0  0
    5.6443    4.9590   -0.0258 C   0  0  0  0  0  0  0  0  0  0  0  0
    6.3302    6.1595   -0.0318 C   0  0  0  0  0  0  0  0  0  0  0  0
    7.6494    5.8886   -0.0405 N   0  0  0  0  0  0  0  0  0  0  0  0
    8.6654    6.8558   -0.0454 C   0  0  0  0  0  0  0  0  0  0  0  0
    8.8253    7.7003    1.0449 C   0  0  0  0  0  0  0  0  0  0  0  0
    9.8289    8.6486    1.0418 C   0  0  0  0  0  0  0  0  0  0  0  0
   10.6707    8.7646   -0.0549 C   0  0  0  0  0  0  0  0  0  0  0  0
   10.5076    7.9247   -1.1471 C   0  0  0  0  0  0  0  0  0  0  0  0
    9.5077    6.9726   -1.1428 C   0  0  0  0  0  0  0  0  0  0  0  0
   11.6553    9.7019   -0.0596 O   0  0  0  0  0  0  0  0  0  0  0  0
   11.7658   10.5326    1.0979 C   0  0  0  0  0  0  0  0  0  0  0  0
    5.7094    7.5327   -0.0260 C   0  0  0  0  0  0  0  0  0  0  0  0
    4.1921    4.7729   -0.0130 C   0  0  0  0  0  0  0  0  0  0  0  0
    3.4568    5.7382   -0.0012 O   0  0  0  0  0  0  0  0  0  0  0  0
    3.6105    3.3827   -0.0145 C   0  0  0  0  0  0  0  0  0  0  0  0
    1.7994    3.4848    0.0031 S   0  0  0  0  0  0  0  0  0  0  0  0
    1.2775    1.8019   -0.0005 C   0  0  0  0  0  0  0  0  0  0  0  0
   -0.0164    1.3619    0.0095 N   0  0  0  0  0  0  0  0  0  0  0  0
   -0.8089    1.9213    0.0165 H   0  0  0  0  0  0  0  0  0  0  0  0
    0.0021   -0.0041    0.0020 C   0  0  0  0  0  0  0  0  0  0  0  0
    1.2534   -0.3924   -0.0120 N   0  0  0  0  0  0  0  0  0  0  0  0
    2.0620    0.7517   -0.0136 N   0  0  0  0  0  0  0  0  0  0  0  0
   -1.1105   -0.8355    0.0082 N   0  0  0  0  0  0  0  0  0  0  0  0
    9.5201    3.7047   -1.0973 H   0  0  0  0  0  0  0  0  0  0  0  0
    9.9336    4.4921    0.4446 H   0  0  0  0  0  0  0  0  0  0  0  0
    9.1355    2.9011    0.4437 H   0  0  0  0  0  0  0  0  0  0  0  0
    6.5048    2.8412   -0.0455 H   0  0  0  0  0  0  0  0  0  0  0  0
    8.1675    7.6128    1.8969 H   0  0  0  0  0  0  0  0  0  0  0  0
    9.9560    9.3029    1.8916 H   0  0  0  0  0  0  0  0  0  0  0  0
   11.1631    8.0154   -2.0006 H   0  0  0  0  0  0  0  0  0  0  0  0
    9.3806    6.3190   -1.9932 H   0  0  0  0  0  0  0  0  0  0  0  0
   11.9563    9.9120    1.9736 H   0  0  0  0  0  0  0  0  0  0  0  0
   12.5888   11.2346    0.9641 H   0  0  0  0  0  0  0  0  0  0  0  0
   10.8366   11.0846    1.2390 H   0  0  0  0  0  0  0  0  0  0  0  0
    5.5695    7.8638    1.0031 H   0  0  0  0  0  0  0  0  0  0  0  0
    6.3658    8.2304   -0.5460 H   0  0  0  0  0  0  0  0  0  0  0  0
    4.7440    7.4972   -0.5306 H   0  0  0  0  0  0  0  0  0  0  0  0
    3.9244    2.8892    0.7966 H   0  0  0  0  0  0  0  0  0  0  0  0
    3.9359    2.8537   -0.9103 H   0  0  0  0  0  0  0  0  0  0  0  0
   -2.0018   -0.4529    0.0187 H   0  0  0  0  0  0  0  0  0  0  0  0
   -0.9962   -1.7987    0.0019 H   0  0  0  0  0  0  0  0  0  0  0  0
  1  2  1  0  0  0  0
  1 27  1  0  0  0  0
  1 28  1  0  0  0  0
  1 29  1  0  0  0  0
  2  6  1  0  0  0  0
  2  3  2  0  0  0  0
  3  4  1  0  0  0  0
  3 30  1  0  0  0  0
  4  5  2  0  0  0  0
  4 16  1  0  0  0  0
  5  6  1  0  0  0  0
  5 15  1  0  0  0  0
  6  7  1  0  0  0  0
  7 12  2  0  0  0  0
  7  8  1  0  0  0  0
  8  9  2  0  0  0  0
  8 31  1  0  0  0  0
  9 10  1  0  0  0  0
  9 32  1  0  0  0  0
 10 11  2  0  0  0  0
 10 13  1  0  0  0  0
 11 12  1  0  0  0  0
 11 33  1  0  0  0  0
 12 34  1  0  0  0  0
 13 14  1  0  0  0  0
 14 35  1  0  0  0  0
 14 36  1  0  0  0  0
 14 37  1  0  0  0  0
 15 38  1  0  0  0  0
 15 39  1  0  0  0  0
 15 40  1  0  0  0  0
 16 17  2  0  0  0  0
 16 18  1  0  0  0  0
 18 19  1  0  0  0  0
 18 41  1  0  0  0  0
 18 42  1  0  0  0  0
 19 20  1  0  0  0  0
 20 25  2  0  0  0  0
 20 21  1  0  0  0  0
 21 22  1  0  0  0  0
 21 23  1  0  0  0  0
 23 24  2  0  0  0  0
 23 26  1  0  0  0  0
 24 25  1  0  0  0  0
 26 43  1  0  0  0  0
 26 44  1  0  0  0  0
M  END
$$$$
ZINC03511165
  -OEChem-08230709453D

 40 41  0     0  0  0  0  0  0999 V2000
   11.7673    5.2982   -2.0186 C   0  0  0  0  0  0  0  0  0  0  0  0
   10.8979    5.6155   -3.2080 C   0  0  0  0  0  0  0  0  0  0  0  0
    9.7001    4.9482   -3.3842 C   0  0  0  0  0  0  0  0  0  0  0  0
    8.8988    5.2393   -4.4778 C   0  0  0  0  0  0  0  0  0  0  0  0
    9.3065    6.2011   -5.3999 C   0  0  0  0  0  0  0  0  0  0  0  0
   10.5053    6.8695   -5.2143 C   0  0  0  0  0  0  0  0  0  0  0  0
   11.3002    6.5741   -4.1207 C   0  0  0  0  0  0  0  0  0  0  0  0
   12.8058    7.4080   -3.8939 Cl  0  0  0  0  0  0  0  0  0  0  0  0
    8.5267    6.4865   -6.4767 O   0  0  0  0  0  0  0  0  0  0  0  0
    9.0081    7.4835   -7.3802 C   0  0  0  0  0  0  0  0  0  0  0  0
    7.6841    4.5634   -4.6584 N   0  0  0  0  0  0  0  0  0  0  0  0
    6.9473    4.2043   -3.5886 C   0  0  0  0  0  0  0  0  0  0  0  0
    7.3723    4.3932   -2.4684 O   0  0  0  0  0  0  0  0  0  0  0  0
    5.5952    3.5680   -3.7842 C   0  0  0  0  0  0  0  0  0  0  0  0
    5.0058    3.2762   -2.4897 O   0  0  0  0  0  0  0  0  0  0  0  0
    3.7877    2.7010   -2.4880 C   0  0  0  0  0  0  0  0  0  0  0  0
    3.2330    2.4502   -3.5391 O   0  0  0  0  0  0  0  0  0  0  0  0
    3.1263    2.3754   -1.2076 C   0  0  0  0  0  0  0  0  0  0  0  0
    3.7615    2.6630    0.0024 C   0  0  0  0  0  0  0  0  0  0  0  0
    3.1407    2.3579    1.1959 C   0  0  0  0  0  0  0  0  0  0  0  0
    1.8878    1.7723    1.1989 C   0  0  0  0  0  0  0  0  0  0  0  0
    1.2508    1.4777    0.0012 C   0  0  0  0  0  0  0  0  0  0  0  0
    1.8645    1.7796   -1.2029 C   0  0  0  0  0  0  0  0  0  0  0  0
    0.0216    0.8978    0.0105 O   0  0  0  0  0  0  0  0  0  0  0  0
   12.4604    4.4980   -2.2783 H   0  0  0  0  0  0  0  0  0  0  0  0
   12.3294    6.1870   -1.7320 H   0  0  0  0  0  0  0  0  0  0  0  0
   11.1409    4.9801   -1.1852 H   0  0  0  0  0  0  0  0  0  0  0  0
    9.3883    4.2006   -2.6700 H   0  0  0  0  0  0  0  0  0  0  0  0
   10.8215    7.6186   -5.9251 H   0  0  0  0  0  0  0  0  0  0  0  0
    9.1301    8.4272   -6.8485 H   0  0  0  0  0  0  0  0  0  0  0  0
    9.9686    7.1700   -7.7890 H   0  0  0  0  0  0  0  0  0  0  0  0
    8.2927    7.6138   -8.1922 H   0  0  0  0  0  0  0  0  0  0  0  0
    7.3739    4.3542   -5.5533 H   0  0  0  0  0  0  0  0  0  0  0  0
    5.7074    2.6427   -4.3492 H   0  0  0  0  0  0  0  0  0  0  0  0
    4.9476    4.2522   -4.3323 H   0  0  0  0  0  0  0  0  0  0  0  0
    4.7380    3.1244    0.0037 H   0  0  0  0  0  0  0  0  0  0  0  0
    3.6329    2.5809    2.1310 H   0  0  0  0  0  0  0  0  0  0  0  0
    1.4050    1.5395    2.1365 H   0  0  0  0  0  0  0  0  0  0  0  0
    1.3683    1.5543   -2.1353 H   0  0  0  0  0  0  0  0  0  0  0  0
    0.0428   -0.0690    0.0049 H   0  0  0  0  0  0  0  0  0  0  0  0
  1  2  1  0  0  0  0
  1 25  1  0  0  0  0
  1 26  1  0  0  0  0
  1 27  1  0  0  0  0
  2  7  2  0  0  0  0
  2  3  1  0  0  0  0
  3  4  2  0  0  0  0
  3 28  1  0  0  0  0
  4  5  1  0  0  0  0
  4 11  1  0  0  0  0
  5  6  2  0  0  0  0
  5  9  1  0  0  0  0
  6  7  1  0  0  0  0
  6 29  1  0  0  0  0
  7  8  1  0  0  0  0
  9 10  1  0  0  0  0
 10 30  1  0  0  0  0
 10 31  1  0  0  0  0
 10 32  1  0  0  0  0
 11 12  1  0  0  0  0
 11 33  1  0  0  0  0
 12 13  2  0  0  0  0
 12 14  1  0  0  0  0
 14 15  1  0  0  0  0
 14 34  1  0  0  0  0
 14 35  1  0  0  0  0
 15 16  1  0  0  0  0
 16 17  2  0  0  0  0
 16 18  1  0  0  0  0
 18 23  2  0  0  0  0
 18 19  1  0  0  0  0
 19 20  2  0  0  0  0
 19 36  1  0  0  0  0
 20 21  1  0  0  0  0
 20 37  1  0  0  0  0
 21 22  2  0  0  0  0
 21 38  1  0  0  0  0
 22 23  1  0  0  0  0
 22 24  1  0  0  0  0
 23 39  1  0  0  0  0
 24 40  1  0  0  0  0
M  END
$$$$
ZINC03523894
  -OEChem-08230709453D

 42 44  0     1  0  0  0  0  0999 V2000
   -3.1394   -1.3837    5.4520 C   0  0  0  0  0  0  0  0  0  0  0  0
   -2.6576   -1.2246    4.0330 C   0  0  0  0  0  0  0  0  0  0  0  0
   -3.4438   -0.5665    3.1058 C   0  0  0  0  0  0  0  0  0  0  0  0
   -3.0020   -0.4210    1.8040 C   0  0  0  0  0  0  0  0  0  0  0  0
   -1.7740   -0.9335    1.4295 C   0  0  0  0  0  0  0  0  0  0  0  0
   -0.9902   -1.5962    2.3554 C   0  0  0  0  0  0  0  0  0  0  0  0
   -1.4296   -1.7372    3.6584 C   0  0  0  0  0  0  0  0  0  0  0  0
   -1.2926   -0.7753    0.0102 C   0  0  1  0  0  0  0  0  0  0  0  0
   -1.9793   -0.2795   -0.5214 H   0  0  0  0  0  0  0  0  0  0  0  0
    0.0021   -0.0041    0.0020 C   0  0  0  0  0  0  0  0  0  0  0  0
    1.0602   -0.5960   -0.0113 O   0  0  0  0  0  0  0  0  0  0  0  0
   -0.0179    1.4674    0.0101 C   0  0  0  0  0  0  0  0  0  0  0  0
   -1.2364    2.1538    0.0196 C   0  0  0  0  0  0  0  0  0  0  0  0
   -1.2467    3.5326    0.0330 C   0  0  0  0  0  0  0  0  0  0  0  0
   -0.0554    4.2372    0.0259 C   0  0  0  0  0  0  0  0  0  0  0  0
    1.1544    3.5653    0.0102 C   0  0  0  0  0  0  0  0  0  0  0  0
    1.1815    2.1867    0.0025 C   0  0  0  0  0  0  0  0  0  0  0  0
   -0.0759    5.7441    0.0347 C   0  0  0  0  0  0  0  0  0  0  0  0
   -1.0259   -2.4125   -0.7239 S   0  0  0  0  0  0  0  0  0  0  0  0
   -2.6373   -3.1233   -0.7773 C   0  0  0  0  0  0  0  0  0  0  0  0
   -2.9532   -4.3626   -1.2595 N   0  0  0  0  0  0  0  0  0  0  0  0
   -2.3297   -5.0053   -1.6324 H   0  0  0  0  0  0  0  0  0  0  0  0
   -4.3010   -4.5381   -1.1219 C   0  0  0  0  0  0  0  0  0  0  0  0
   -4.7986   -3.4512   -0.5853 N   0  0  0  0  0  0  0  0  0  0  0  0
   -3.7446   -2.5544   -0.3668 N   0  0  0  0  0  0  0  0  0  0  0  0
   -5.0188   -5.6685   -1.4908 N   0  0  0  0  0  0  0  0  0  0  0  0
   -3.7035   -2.3120    5.5422 H   0  0  0  0  0  0  0  0  0  0  0  0
   -2.2829   -1.4121    6.1255 H   0  0  0  0  0  0  0  0  0  0  0  0
   -3.7804   -0.5421    5.7146 H   0  0  0  0  0  0  0  0  0  0  0  0
   -4.4033   -0.1664    3.3983 H   0  0  0  0  0  0  0  0  0  0  0  0
   -3.6164    0.0929    1.0795 H   0  0  0  0  0  0  0  0  0  0  0  0
   -0.0327   -2.0005    2.0617 H   0  0  0  0  0  0  0  0  0  0  0  0
   -0.8156   -2.2516    4.3827 H   0  0  0  0  0  0  0  0  0  0  0  0
   -2.1667    1.6054    0.0210 H   0  0  0  0  0  0  0  0  0  0  0  0
   -2.1868    4.0641    0.0449 H   0  0  0  0  0  0  0  0  0  0  0  0
    2.0798    4.1222    0.0044 H   0  0  0  0  0  0  0  0  0  0  0  0
    2.1264    1.6638   -0.0090 H   0  0  0  0  0  0  0  0  0  0  0  0
   -0.0908    6.1132   -0.9907 H   0  0  0  0  0  0  0  0  0  0  0  0
   -0.9656    6.0923    0.5593 H   0  0  0  0  0  0  0  0  0  0  0  0
    0.8141    6.1165    0.5420 H   0  0  0  0  0  0  0  0  0  0  0  0
   -5.9790   -5.6987   -1.3561 H   0  0  0  0  0  0  0  0  0  0  0  0
   -4.5600   -6.4278   -1.8830 H   0  0  0  0  0  0  0  0  0  0  0  0
  1  2  1  0  0  0  0
  1 27  1  0  0  0  0
  1 28  1  0  0  0  0
  1 29  1  0  0  0  0
  2  7  2  0  0  0  0
  2  3  1  0  0  0  0
  3  4  2  0  0  0  0
  3 30  1  0  0  0  0
  4  5  1  0  0  0  0
  4 31  1  0  0  0  0
  5  6  2  0  0  0  0
  5  8  1  0  0  0  0
  6  7  1  0  0  0  0
  6 32  1  0  0  0  0
  7 33  1  0  0  0  0
  8  9  1  0  0  0  0
  8 10  1  0  0  0  0
  8 19  1  0  0  0  0
 10 11  2  0  0  0  0
 10 12  1  0  0  0  0
 12 17  2  0  0  0  0
 12 13  1  0  0  0  0
 13 14  2  0  0  0  0
 13 34  1  0  0  0  0
 14 15  1  0  0  0  0
 14 35  1  0  0  0  0
 15 16  2  0  0  0  0
 15 18  1  0  0  0  0
 16 17  1  0  0  0  0
 16 36  1  0  0  0  0
 17 37  1  0  0  0  0
 18 38  1  0  0  0  0
 18 39  1  0  0  0  0
 18 40  1  0  0  0  0
 19 20  1  0  0  0  0
 20 25  2  0  0  0  0
 20 21  1  0  0  0  0
 21 22  1  0  0  0  0
 21 23  1  0  0  0  0
 23 24  2  0  0  0  0
 23 26  1  0  0  0  0
 24 25  1  0  0  0  0
 26 41  1  0  0  0  0
 26 42  1  0  0  0  0
M  END
$$$$
ZINC03523895
  -OEChem-08230709453D

 42 44  0     1  0  0  0  0  0999 V2000
    2.9846    3.2537   -5.3103 C   0  0  0  0  0  0  0  0  0  0  0  0
    2.5416    2.9184   -3.9095 C   0  0  0  0  0  0  0  0  0  0  0  0
    3.3480    2.1444   -3.0961 C   0  0  0  0  0  0  0  0  0  0  0  0
    2.9418    1.8371   -1.8110 C   0  0  0  0  0  0  0  0  0  0  0  0
    1.7290    2.3036   -1.3394 C   0  0  0  0  0  0  0  0  0  0  0  0
    0.9200    3.0729   -2.1547 C   0  0  0  0  0  0  0  0  0  0  0  0
    1.3286    3.3845   -3.4380 C   0  0  0  0  0  0  0  0  0  0  0  0
    1.2859    1.9683    0.0614 C   0  0  2  0  0  0  0  0  0  0  0  0
    1.9830    1.4057    0.5058 H   0  0  0  0  0  0  0  0  0  0  0  0
   -0.0144    1.2083    0.0087 C   0  0  0  0  0  0  0  0  0  0  0  0
   -0.0087   -0.0042    0.0173 O   0  0  0  0  0  0  0  0  0  0  0  0
   -1.2907    1.9378   -0.0594 C   0  0  0  0  0  0  0  0  0  0  0  0
   -2.5020    1.2458    0.0404 C   0  0  0  0  0  0  0  0  0  0  0  0
   -3.6936    1.9372   -0.0180 C   0  0  0  0  0  0  0  0  0  0  0  0
   -3.6932    3.3109   -0.1869 C   0  0  0  0  0  0  0  0  0  0  0  0
   -2.4988    4.0021   -0.2926 C   0  0  0  0  0  0  0  0  0  0  0  0
   -1.2988    3.3259   -0.2298 C   0  0  0  0  0  0  0  0  0  0  0  0
   -5.0002    4.0579   -0.2555 C   0  0  0  0  0  0  0  0  0  0  0  0
    1.0532    3.5000    1.0050 S   0  0  0  0  0  0  0  0  0  0  0  0
    0.6871    2.9442    2.6364 C   0  0  0  0  0  0  0  0  0  0  0  0
    0.4366    3.7399    3.7191 N   0  0  0  0  0  0  0  0  0  0  0  0
    0.4291    4.7099    3.7243 H   0  0  0  0  0  0  0  0  0  0  0  0
    0.1962    2.9294    4.7921 C   0  0  0  0  0  0  0  0  0  0  0  0
    0.3015    1.6860    4.3925 N   0  0  0  0  0  0  0  0  0  0  0  0
    0.6126    1.6949    3.0265 N   0  0  0  0  0  0  0  0  0  0  0  0
   -0.1025    3.3497    6.0819 N   0  0  0  0  0  0  0  0  0  0  0  0
    2.6292    2.4859   -5.9974 H   0  0  0  0  0  0  0  0  0  0  0  0
    2.5721    4.2201   -5.6003 H   0  0  0  0  0  0  0  0  0  0  0  0
    4.0732    3.2979   -5.3463 H   0  0  0  0  0  0  0  0  0  0  0  0
    4.2955    1.7800   -3.4646 H   0  0  0  0  0  0  0  0  0  0  0  0
    3.5718    1.2324   -1.1756 H   0  0  0  0  0  0  0  0  0  0  0  0
   -0.0295    3.4336   -1.7877 H   0  0  0  0  0  0  0  0  0  0  0  0
    0.6984    3.9889   -4.0736 H   0  0  0  0  0  0  0  0  0  0  0  0
   -2.5039    0.1733    0.1677 H   0  0  0  0  0  0  0  0  0  0  0  0
   -4.6297    1.4048    0.0640 H   0  0  0  0  0  0  0  0  0  0  0  0
   -2.5067    5.0740   -0.4242 H   0  0  0  0  0  0  0  0  0  0  0  0
   -0.3676    3.8667   -0.3118 H   0  0  0  0  0  0  0  0  0  0  0  0
   -5.3332    4.1130   -1.2919 H   0  0  0  0  0  0  0  0  0  0  0  0
   -5.7491    3.5353    0.3395 H   0  0  0  0  0  0  0  0  0  0  0  0
   -4.8635    5.0659    0.1363 H   0  0  0  0  0  0  0  0  0  0  0  0
   -0.2548    2.6958    6.7820 H   0  0  0  0  0  0  0  0  0  0  0  0
   -0.1587    4.2970    6.2825 H   0  0  0  0  0  0  0  0  0  0  0  0
  1  2  1  0  0  0  0
  1 27  1  0  0  0  0
  1 28  1  0  0  0  0
  1 29  1  0  0  0  0
  2  7  2  0  0  0  0
  2  3  1  0  0  0  0
  3  4  2  0  0  0  0
  3 30  1  0  0  0  0
  4  5  1  0  0  0  0
  4 31  1  0  0  0  0
  5  6  2  0  0  0  0
  5  8  1  0  0  0  0
  6  7  1  0  0  0  0
  6 32  1  0  0  0  0
  7 33  1  0  0  0  0
  8  9  1  0  0  0  0
  8 10  1  0  0  0  0
  8 19  1  0  0  0  0
 10 11  2  0  0  0  0
 10 12  1  0  0  0  0
 12 17  2  0  0  0  0
 12 13  1  0  0  0  0
 13 14  2  0  0  0  0
 13 34  1  0  0  0  0
 14 15  1  0  0  0  0
 14 35  1  0  0  0  0
 15 16  2  0  0  0  0
 15 18  1  0  0  0  0
 16 17  1  0  0  0  0
 16 36  1  0  0  0  0
 17 37  1  0  0  0  0
 18 38  1  0  0  0  0
 18 39  1  0  0  0  0
 18 40  1  0  0  0  0
 19 20  1  0  0  0  0
 20 25  2  0  0  0  0
 20 21  1  0  0  0  0
 21 22  1  0  0  0  0
 21 23  1  0  0  0  0
 23 24  2  0  0  0  0
 23 26  1  0  0  0  0
 24 25  1  0  0  0  0
 26 41  1  0  0  0  0
 26 42  1  0  0  0  0
M  END
$$$$
ZINC03525556
  -OEChem-08230709453D

 41 43  0     0  0  0  0  0  0999 V2000
    0.0021   -0.0041    0.0020 C   0  0  0  0  0  0  0  0  0  0  0  0
   -0.0166    1.3719    0.0096 C   0  0  0  0  0  0  0  0  0  0  0  0
    1.1785    2.0858    0.0020 C   0  0  0  0  0  0  0  0  0  0  0  0
    2.3959    1.4108   -0.0133 C   0  0  0  0  0  0  0  0  0  0  0  0
    2.4215    0.0349   -0.0210 C   0  0  0  0  0  0  0  0  0  0  0  0
    1.2231   -0.6850   -0.0133 C   0  0  0  0  0  0  0  0  0  0  0  0
    1.2468   -2.1596   -0.0210 C   0  0  0  0  0  0  0  0  0  0  0  0
    0.2030   -2.7849   -0.0139 O   0  0  0  0  0  0  0  0  0  0  0  0
    2.4246   -2.8146   -0.0358 N   0  0  0  0  0  0  0  0  0  0  0  0
    2.4471   -4.2154   -0.0431 N   0  0  0  0  0  0  0  0  0  0  0  0
    3.5852   -4.8483   -0.0574 C   0  0  0  0  0  0  0  0  0  0  0  0
    3.6087   -6.3117   -0.0650 C   0  0  0  0  0  0  0  0  0  0  0  0
    4.6983   -7.1661   -0.0799 C   0  0  0  0  0  0  0  0  0  0  0  0
    4.4683   -8.5207   -0.0845 C   0  0  0  0  0  0  0  0  0  0  0  0
    3.1786   -8.9762   -0.0742 C   0  0  0  0  0  0  0  0  0  0  0  0
    2.2402   -7.4580   -0.0495 S   0  0  0  0  0  0  0  0  0  0  0  0
    2.7164  -10.2879   -0.0763 N   0  0  0  0  0  0  0  0  0  0  0  0
    3.2471  -11.0316   -1.2281 C   0  0  0  0  0  0  0  0  0  0  0  0
    2.7629  -12.4824   -1.1589 C   0  0  0  0  0  0  0  0  0  0  0  0
    1.3336  -12.5010   -1.1144 O   0  0  0  0  0  0  0  0  0  0  0  0
    0.7828  -11.7865   -0.0047 C   0  0  0  0  0  0  0  0  0  0  0  0
    1.2469  -10.3287   -0.0622 C   0  0  0  0  0  0  0  0  0  0  0  0
    1.1562    3.4765    0.0093 N   0  0  0  0  0  0  0  0  0  0  0  0
   -0.9254   -0.5573    0.0083 H   0  0  0  0  0  0  0  0  0  0  0  0
   -0.9595    1.8986    0.0169 H   0  0  0  0  0  0  0  0  0  0  0  0
    3.3214    1.9676   -0.0192 H   0  0  0  0  0  0  0  0  0  0  0  0
    3.3663   -0.4881   -0.0325 H   0  0  0  0  0  0  0  0  0  0  0  0
    3.2567   -2.3161   -0.0414 H   0  0  0  0  0  0  0  0  0  0  0  0
    4.5117   -4.2933   -0.0637 H   0  0  0  0  0  0  0  0  0  0  0  0
    5.7056   -6.7767   -0.0875 H   0  0  0  0  0  0  0  0  0  0  0  0
    5.2944   -9.2163   -0.0965 H   0  0  0  0  0  0  0  0  0  0  0  0
    2.8932  -10.5735   -2.1516 H   0  0  0  0  0  0  0  0  0  0  0  0
    4.3367  -11.0101   -1.2046 H   0  0  0  0  0  0  0  0  0  0  0  0
    3.1612  -12.9566   -0.2619 H   0  0  0  0  0  0  0  0  0  0  0  0
    3.1067  -13.0239   -2.0401 H   0  0  0  0  0  0  0  0  0  0  0  0
    1.1235  -12.2405    0.9258 H   0  0  0  0  0  0  0  0  0  0  0  0
   -0.3056  -11.8240   -0.0508 H   0  0  0  0  0  0  0  0  0  0  0  0
    0.8764   -9.7939    0.8124 H   0  0  0  0  0  0  0  0  0  0  0  0
    0.8610   -9.8593   -0.9671 H   0  0  0  0  0  0  0  0  0  0  0  0
    0.3085    3.9479    0.0196 H   0  0  0  0  0  0  0  0  0  0  0  0
    1.9883    3.9750    0.0040 H   0  0  0  0  0  0  0  0  0  0  0  0
  1  6  2  0  0  0  0
  1  2  1  0  0  0  0
  1 24  1  0  0  0  0
  2  3  2  0  0  0  0
  2 25  1  0  0  0  0
  3  4  1  0  0  0  0
  3 23  1  0  0  0  0
  4  5  2  0  0  0  0
  4 26  1  0  0  0  0
  5  6  1  0  0  0  0
  5 27  1  0  0  0  0
  6  7  1  0  0  0  0
  7  8  2  0  0  0  0
  7  9  1  0  0  0  0
  9 10  1  0  0  0  0
  9 28  1  0  0  0  0
 10 11  2  0  0  0  0
 11 12  1  0  0  0  0
 11 29  1  0  0  0  0
 12 16  1  0  0  0  0
 12 13  2  0  0  0  0
 13 14  1  0  0  0  0
 13 30  1  0  0  0  0
 14 15  2  0  0  0  0
 14 31  1  0  0  0  0
 15 16  1  0  0  0  0
 15 17  1  0  0  0  0
 17 22  1  0  0  0  0
 17 18  1  0  0  0  0
 18 19  1  0  0  0  0
 18 32  1  0  0  0  0
 18 33  1  0  0  0  0
 19 20  1  0  0  0  0
 19 34  1  0  0  0  0
 19 35  1  0  0  0  0
 20 21  1  0  0  0  0
 21 22  1  0  0  0  0
 21 36  1  0  0  0  0
 21 37  1  0  0  0  0
 22 38  1  0  0  0  0
 22 39  1  0  0  0  0
 23 40  1  0  0  0  0
 23 41  1  0  0  0  0
M  END
$$$$
ZINC03528611
  -OEChem-08230709453D

 52 53  0     0  0  0  0  0  0999 V2000
   -2.3112   -0.1093   -3.6846 C   0  0  0  0  0  0  0  0  0  0  0  0
   -1.7210   -0.1511   -2.2736 C   0  0  0  0  0  0  0  0  0  0  0  0
   -2.6835   -0.8874   -1.3397 C   0  0  0  0  0  0  0  0  0  0  0  0
   -0.3786   -0.8846   -2.3039 C   0  0  0  0  0  0  0  0  0  0  0  0
    0.2426   -0.8210   -0.9786 N   0  0  0  0  0  0  0  0  0  0  0  0
   -0.0155   -1.8068   -0.0546 C   0  0  0  0  0  0  0  0  0  0  0  0
    0.5764   -1.7352    1.1900 C   0  0  0  0  0  0  0  0  0  0  0  0
    1.4287   -0.6519    1.4757 C   0  0  0  0  0  0  0  0  0  0  0  0
    1.9645   -0.5637    2.5676 O   0  0  0  0  0  0  0  0  0  0  0  0
    1.6480    0.2873    0.5348 N   0  0  0  0  0  0  0  0  0  0  0  0
    2.2501    1.0594    0.7380 H   0  0  0  0  0  0  0  0  0  0  0  0
    1.0664    0.1982   -0.6745 C   0  0  0  0  0  0  0  0  0  0  0  0
    1.2854    1.0573   -1.5068 O   0  0  0  0  0  0  0  0  0  0  0  0
    0.3314   -2.7301    2.1591 N   0  0  0  0  0  0  0  0  0  0  0  0
    0.6531   -4.1297    1.8697 C   0  0  0  0  0  0  0  0  0  0  0  0
    2.0993   -4.4158    2.2792 C   0  0  0  0  0  0  0  0  0  0  0  0
    2.3917   -5.9080    2.1097 C   0  0  0  0  0  0  0  0  0  0  0  0
    3.0495   -3.6062    1.3945 C   0  0  0  0  0  0  0  0  0  0  0  0
   -0.1988   -2.3932    3.3516 C   0  0  0  0  0  0  0  0  0  0  0  0
   -0.3483   -3.2400    4.2116 O   0  0  0  0  0  0  0  0  0  0  0  0
   -0.5982   -0.9955    3.6139 C   0  0  0  0  0  0  0  0  0  0  0  0
   -0.9129   -0.1455    2.5515 C   0  0  0  0  0  0  0  0  0  0  0  0
   -1.2897    1.1565    2.8022 C   0  0  0  0  0  0  0  0  0  0  0  0
   -1.3464    1.6257    4.1057 C   0  0  0  0  0  0  0  0  0  0  0  0
   -1.0299    0.7875    5.1639 C   0  0  0  0  0  0  0  0  0  0  0  0
   -0.6570   -0.5178    4.9248 C   0  0  0  0  0  0  0  0  0  0  0  0
   -1.7117    2.9040    4.3456 F   0  0  0  0  0  0  0  0  0  0  0  0
   -0.8533   -2.8505   -0.3671 N   0  0  0  0  0  0  0  0  0  0  0  0
   -2.4611   -1.1267   -4.0459 H   0  0  0  0  0  0  0  0  0  0  0  0
   -3.2676    0.4132   -3.6630 H   0  0  0  0  0  0  0  0  0  0  0  0
   -1.6255    0.4153   -4.3499 H   0  0  0  0  0  0  0  0  0  0  0  0
   -1.5710    0.8663   -1.9122 H   0  0  0  0  0  0  0  0  0  0  0  0
   -3.6399   -0.3648   -1.3181 H   0  0  0  0  0  0  0  0  0  0  0  0
   -2.8334   -1.9047   -1.7011 H   0  0  0  0  0  0  0  0  0  0  0  0
   -2.2630   -0.9171   -0.3345 H   0  0  0  0  0  0  0  0  0  0  0  0
    0.2771   -0.4123   -3.0355 H   0  0  0  0  0  0  0  0  0  0  0  0
   -0.5401   -1.9266   -2.5798 H   0  0  0  0  0  0  0  0  0  0  0  0
   -0.0185   -4.7803    2.4298 H   0  0  0  0  0  0  0  0  0  0  0  0
    0.5339   -4.3167    0.8025 H   0  0  0  0  0  0  0  0  0  0  0  0
    2.2443   -4.1333    3.3219 H   0  0  0  0  0  0  0  0  0  0  0  0
    2.2466   -6.1905    1.0670 H   0  0  0  0  0  0  0  0  0  0  0  0
    3.4219   -6.1118    2.4014 H   0  0  0  0  0  0  0  0  0  0  0  0
    1.7147   -6.4847    2.7399 H   0  0  0  0  0  0  0  0  0  0  0  0
    2.8245   -3.8013    0.3460 H   0  0  0  0  0  0  0  0  0  0  0  0
    2.9223   -2.5437    1.6018 H   0  0  0  0  0  0  0  0  0  0  0  0
    4.0786   -3.8969    1.6055 H   0  0  0  0  0  0  0  0  0  0  0  0
   -0.8650   -0.5088    1.5355 H   0  0  0  0  0  0  0  0  0  0  0  0
   -1.5371    1.8136    1.9816 H   0  0  0  0  0  0  0  0  0  0  0  0
   -1.0761    1.1579    6.1773 H   0  0  0  0  0  0  0  0  0  0  0  0
   -0.4111   -1.1699    5.7498 H   0  0  0  0  0  0  0  0  0  0  0  0
   -1.3047   -2.8698   -1.2254 H   0  0  0  0  0  0  0  0  0  0  0  0
   -0.9933   -3.5677    0.2708 H   0  0  0  0  0  0  0  0  0  0  0  0
  1  2  1  0  0  0  0
  1 29  1  0  0  0  0
  1 30  1  0  0  0  0
  1 31  1  0  0  0  0
  2  3  1  0  0  0  0
  2  4  1  0  0  0  0
  2 32  1  0  0  0  0
  3 33  1  0  0  0  0
  3 34  1  0  0  0  0
  3 35  1  0  0  0  0
  4  5  1  0  0  0  0
  4 36  1  0  0  0  0
  4 37  1  0  0  0  0
  5 12  1  0  0  0  0
  5  6  1  0  0  0  0
  6  7  2  0  0  0  0
  6 28  1  0  0  0  0
  7  8  1  0  0  0  0
  7 14  1  0  0  0  0
  8  9  2  0  0  0  0
  8 10  1  0  0  0  0
 10 11  1  0  0  0  0
 10 12  1  0  0  0  0
 12 13  2  0  0  0  0
 14 15  1  0  0  0  0
 14 19  1  0  0  0  0
 15 16  1  0  0  0  0
 15 38  1  0  0  0  0
 15 39  1  0  0  0  0
 16 17  1  0  0  0  0
 16 18  1  0  0  0  0
 16 40  1  0  0  0  0
 17 41  1  0  0  0  0
 17 42  1  0  0  0  0
 17 43  1  0  0  0  0
 18 44  1  0  0  0  0
 18 45  1  0  0  0  0
 18 46  1  0  0  0  0
 19 20  2  0  0  0  0
 19 21  1  0  0  0  0
 21 26  2  0  0  0  0
 21 22  1  0  0  0  0
 22 23  2  0  0  0  0
 22 47  1  0  0  0  0
 23 24  1  0  0  0  0
 23 48  1  0  0  0  0
 24 25  2  0  0  0  0
 24 27  1  0  0  0  0
 25 26  1  0  0  0  0
 25 49  1  0  0  0  0
 26 50  1  0  0  0  0
 28 51  1  0  0  0  0
 28 52  1  0  0  0  0
M  END
$$$$
ZINC03528687
  -OEChem-08230709453D

 46 47  0     0  0  0  0  0  0999 V2000
   -4.6216    3.8759   -2.3079 C   0  0  0  0  0  0  0  0  0  0  0  0
   -4.1133    3.5622   -0.8993 C   0  0  0  0  0  0  0  0  0  0  0  0
   -2.6759    3.0441   -0.9794 C   0  0  0  0  0  0  0  0  0  0  0  0
   -2.1676    2.7305    0.4292 C   0  0  0  0  0  0  0  0  0  0  0  0
   -0.7913    2.2344    0.3525 N   0  0  0  0  0  0  0  0  0  0  0  0
    0.2593    3.1200    0.4181 C   0  0  0  0  0  0  0  0  0  0  0  0
    1.5510    2.6396    0.3446 C   0  0  0  0  0  0  0  0  0  0  0  0
    1.7533    1.2536    0.2044 C   0  0  0  0  0  0  0  0  0  0  0  0
    2.8841    0.8021    0.1374 O   0  0  0  0  0  0  0  0  0  0  0  0
    0.6892    0.4292    0.1451 N   0  0  0  0  0  0  0  0  0  0  0  0
    0.8319   -0.5559    0.0494 H   0  0  0  0  0  0  0  0  0  0  0  0
   -0.5625    0.9160    0.2132 C   0  0  0  0  0  0  0  0  0  0  0  0
   -1.5049    0.1499    0.1525 O   0  0  0  0  0  0  0  0  0  0  0  0
    2.6492    3.5219    0.4094 N   0  0  0  0  0  0  0  0  0  0  0  0
    2.8194    4.3955    1.5731 C   0  0  0  0  0  0  0  0  0  0  0  0
    3.6506    3.6734    2.6355 C   0  0  0  0  0  0  0  0  0  0  0  0
    3.5422    3.5616   -0.5993 C   0  0  0  0  0  0  0  0  0  0  0  0
    4.5299    4.2656   -0.5098 O   0  0  0  0  0  0  0  0  0  0  0  0
    3.3214    2.7499   -1.8135 C   0  0  0  0  0  0  0  0  0  0  0  0
    2.0415    2.2839   -2.1217 C   0  0  0  0  0  0  0  0  0  0  0  0
    1.8401    1.5313   -3.2588 C   0  0  0  0  0  0  0  0  0  0  0  0
    2.9073    1.2275   -4.0902 C   0  0  0  0  0  0  0  0  0  0  0  0
    4.1811    1.6829   -3.7859 C   0  0  0  0  0  0  0  0  0  0  0  0
    4.3927    2.4410   -2.6544 C   0  0  0  0  0  0  0  0  0  0  0  0
    2.7053    0.4855   -5.2010 F   0  0  0  0  0  0  0  0  0  0  0  0
    0.0254    4.4673    0.5556 N   0  0  0  0  0  0  0  0  0  0  0  0
   -5.6456    4.2450   -2.2508 H   0  0  0  0  0  0  0  0  0  0  0  0
   -3.9863    4.6359   -2.7626 H   0  0  0  0  0  0  0  0  0  0  0  0
   -4.5951    2.9702   -2.9137 H   0  0  0  0  0  0  0  0  0  0  0  0
   -4.7486    2.8022   -0.4446 H   0  0  0  0  0  0  0  0  0  0  0  0
   -4.1398    4.4679   -0.2934 H   0  0  0  0  0  0  0  0  0  0  0  0
   -2.0406    3.8042   -1.4341 H   0  0  0  0  0  0  0  0  0  0  0  0
   -2.6494    2.1384   -1.5853 H   0  0  0  0  0  0  0  0  0  0  0  0
   -2.8029    1.9704    0.8839 H   0  0  0  0  0  0  0  0  0  0  0  0
   -2.1941    3.6362    1.0351 H   0  0  0  0  0  0  0  0  0  0  0  0
    3.3314    5.3088    1.2701 H   0  0  0  0  0  0  0  0  0  0  0  0
    1.8420    4.6464    1.9851 H   0  0  0  0  0  0  0  0  0  0  0  0
    3.1387    2.7601    2.9386 H   0  0  0  0  0  0  0  0  0  0  0  0
    4.6281    3.4225    2.2235 H   0  0  0  0  0  0  0  0  0  0  0  0
    3.7773    4.3233    3.5014 H   0  0  0  0  0  0  0  0  0  0  0  0
    1.2102    2.5165   -1.4726 H   0  0  0  0  0  0  0  0  0  0  0  0
    0.8499    1.1744   -3.5007 H   0  0  0  0  0  0  0  0  0  0  0  0
    5.0090    1.4434   -4.4369 H   0  0  0  0  0  0  0  0  0  0  0  0
    5.3852    2.7958   -2.4187 H   0  0  0  0  0  0  0  0  0  0  0  0
    0.7559    5.0985    0.4619 H   0  0  0  0  0  0  0  0  0  0  0  0
   -0.8703    4.7870    0.7464 H   0  0  0  0  0  0  0  0  0  0  0  0
  1  2  1  0  0  0  0
  1 27  1  0  0  0  0
  1 28  1  0  0  0  0
  1 29  1  0  0  0  0
  2  3  1  0  0  0  0
  2 30  1  0  0  0  0
  2 31  1  0  0  0  0
  3  4  1  0  0  0  0
  3 32  1  0  0  0  0
  3 33  1  0  0  0  0
  4  5  1  0  0  0  0
  4 34  1  0  0  0  0
  4 35  1  0  0  0  0
  5 12  1  0  0  0  0
  5  6  1  0  0  0  0
  6  7  2  0  0  0  0
  6 26  1  0  0  0  0
  7  8  1  0  0  0  0
  7 14  1  0  0  0  0
  8  9  2  0  0  0  0
  8 10  1  0  0  0  0
 10 11  1  0  0  0  0
 10 12  1  0  0  0  0
 12 13  2  0  0  0  0
 14 15  1  0  0  0  0
 14 17  1  0  0  0  0
 15 16  1  0  0  0  0
 15 36  1  0  0  0  0
 15 37  1  0  0  0  0
 16 38  1  0  0  0  0
 16 39  1  0  0  0  0
 16 40  1  0  0  0  0
 17 18  2  0  0  0  0
 17 19  1  0  0  0  0
 19 24  2  0  0  0  0
 19 20  1  0  0  0  0
 20 21  2  0  0  0  0
 20 41  1  0  0  0  0
 21 22  1  0  0  0  0
 21 42  1  0  0  0  0
 22 23  2  0  0  0  0
 22 25  1  0  0  0  0
 23 24  1  0  0  0  0
 23 43  1  0  0  0  0
 24 44  1  0  0  0  0
 26 45  1  0  0  0  0
 26 46  1  0  0  0  0
M  END
$$$$
ZINC03528689
  -OEChem-08230709453D

 46 47  0     0  0  0  0  0  0999 V2000
   -4.2780    6.9836   -3.1848 C   0  0  0  0  0  0  0  0  0  0  0  0
   -4.0370    6.4550   -1.7694 C   0  0  0  0  0  0  0  0  0  0  0  0
   -2.8674    5.4688   -1.7856 C   0  0  0  0  0  0  0  0  0  0  0  0
   -2.6264    4.9401   -0.3702 C   0  0  0  0  0  0  0  0  0  0  0  0
   -1.5065    3.9958   -0.3857 N   0  0  0  0  0  0  0  0  0  0  0  0
   -0.2242    4.4525   -0.1872 C   0  0  0  0  0  0  0  0  0  0  0  0
    0.8218    3.5525   -0.2042 C   0  0  0  0  0  0  0  0  0  0  0  0
    0.5425    2.1905   -0.4251 C   0  0  0  0  0  0  0  0  0  0  0  0
    1.4478    1.3738   -0.4455 O   0  0  0  0  0  0  0  0  0  0  0  0
   -0.7317    1.7955   -0.6141 N   0  0  0  0  0  0  0  0  0  0  0  0
   -0.9316    0.8277   -0.7669 H   0  0  0  0  0  0  0  0  0  0  0  0
   -1.7377    2.6878   -0.5996 C   0  0  0  0  0  0  0  0  0  0  0  0
   -2.8779    2.3047   -0.7784 O   0  0  0  0  0  0  0  0  0  0  0  0
    2.1476    3.9895   -0.0034 N   0  0  0  0  0  0  0  0  0  0  0  0
    3.1675    3.7272   -1.0217 C   0  0  0  0  0  0  0  0  0  0  0  0
    3.1508    4.8496   -2.0613 C   0  0  0  0  0  0  0  0  0  0  0  0
    2.4762    4.6485    1.1254 C   0  0  0  0  0  0  0  0  0  0  0  0
    3.6129    5.0499    1.2862 O   0  0  0  0  0  0  0  0  0  0  0  0
    1.4559    4.8833    2.1670 C   0  0  0  0  0  0  0  0  0  0  0  0
    0.3388    4.0498    2.2557 C   0  0  0  0  0  0  0  0  0  0  0  0
   -0.6073    4.2712    3.2337 C   0  0  0  0  0  0  0  0  0  0  0  0
   -0.4588    5.3233    4.1214 C   0  0  0  0  0  0  0  0  0  0  0  0
    0.6403    6.1571    4.0383 C   0  0  0  0  0  0  0  0  0  0  0  0
    1.6006    5.9446    3.0658 C   0  0  0  0  0  0  0  0  0  0  0  0
    2.6747    6.7600    2.9844 F   0  0  0  0  0  0  0  0  0  0  0  0
    0.0123    5.7895    0.0262 N   0  0  0  0  0  0  0  0  0  0  0  0
   -3.3809    7.4898   -3.5412 H   0  0  0  0  0  0  0  0  0  0  0  0
   -4.5136    6.1515   -3.8482 H   0  0  0  0  0  0  0  0  0  0  0  0
   -5.1113    7.6862   -3.1732 H   0  0  0  0  0  0  0  0  0  0  0  0
   -4.9341    5.9489   -1.4129 H   0  0  0  0  0  0  0  0  0  0  0  0
   -3.8014    7.2871   -1.1059 H   0  0  0  0  0  0  0  0  0  0  0  0
   -1.9703    5.9749   -2.1421 H   0  0  0  0  0  0  0  0  0  0  0  0
   -3.1030    4.6366   -2.4490 H   0  0  0  0  0  0  0  0  0  0  0  0
   -3.5235    4.4340   -0.0137 H   0  0  0  0  0  0  0  0  0  0  0  0
   -2.3908    5.7723    0.2932 H   0  0  0  0  0  0  0  0  0  0  0  0
    4.1492    3.6835   -0.5500 H   0  0  0  0  0  0  0  0  0  0  0  0
    2.9567    2.7760   -1.5106 H   0  0  0  0  0  0  0  0  0  0  0  0
    3.9097    4.6544   -2.8190 H   0  0  0  0  0  0  0  0  0  0  0  0
    2.1691    4.8933   -2.5331 H   0  0  0  0  0  0  0  0  0  0  0  0
    3.3616    5.8008   -1.5725 H   0  0  0  0  0  0  0  0  0  0  0  0
    0.2183    3.2310    1.5619 H   0  0  0  0  0  0  0  0  0  0  0  0
   -1.4694    3.6246    3.3048 H   0  0  0  0  0  0  0  0  0  0  0  0
   -1.2059    5.4935    4.8825 H   0  0  0  0  0  0  0  0  0  0  0  0
    0.7493    6.9763    4.7336 H   0  0  0  0  0  0  0  0  0  0  0  0
    0.9217    6.1271    0.0263 H   0  0  0  0  0  0  0  0  0  0  0  0
   -0.7300    6.3954    0.1766 H   0  0  0  0  0  0  0  0  0  0  0  0
  1  2  1  0  0  0  0
  1 27  1  0  0  0  0
  1 28  1  0  0  0  0
  1 29  1  0  0  0  0
  2  3  1  0  0  0  0
  2 30  1  0  0  0  0
  2 31  1  0  0  0  0
  3  4  1  0  0  0  0
  3 32  1  0  0  0  0
  3 33  1  0  0  0  0
  4  5  1  0  0  0  0
  4 34  1  0  0  0  0
  4 35  1  0  0  0  0
  5 12  1  0  0  0  0
  5  6  1  0  0  0  0
  6  7  2  0  0  0  0
  6 26  1  0  0  0  0
  7  8  1  0  0  0  0
  7 14  1  0  0  0  0
  8  9  2  0  0  0  0
  8 10  1  0  0  0  0
 10 11  1  0  0  0  0
 10 12  1  0  0  0  0
 12 13  2  0  0  0  0
 14 15  1  0  0  0  0
 14 17  1  0  0  0  0
 15 16  1  0  0  0  0
 15 36  1  0  0  0  0
 15 37  1  0  0  0  0
 16 38  1  0  0  0  0
 16 39  1  0  0  0  0
 16 40  1  0  0  0  0
 17 18  2  0  0  0  0
 17 19  1  0  0  0  0
 19 24  2  0  0  0  0
 19 20  1  0  0  0  0
 20 21  2  0  0  0  0
 20 41  1  0  0  0  0
 21 22  1  0  0  0  0
 21 42  1  0  0  0  0
 22 23  2  0  0  0  0
 22 43  1  0  0  0  0
 23 24  1  0  0  0  0
 23 44  1  0  0  0  0
 24 25  1  0  0  0  0
 26 45  1  0  0  0  0
 26 46  1  0  0  0  0
M  END
$$$$
ZINC03530039
  -OEChem-08230709453D

 41 43  0     0  0  0  0  0  0999 V2000
   -2.9991   -5.2887   -0.5221 C   0  0  0  0  0  0  0  0  0  0  0  0
   -2.8094   -6.6518   -0.6206 C   0  0  0  0  0  0  0  0  0  0  0  0
   -3.8967   -7.4999   -0.7310 C   0  0  0  0  0  0  0  0  0  0  0  0
   -5.1892   -6.9841   -0.7379 C   0  0  0  0  0  0  0  0  0  0  0  0
   -5.3899   -5.6173   -0.6341 C   0  0  0  0  0  0  0  0  0  0  0  0
   -4.2923   -4.7617   -0.5228 C   0  0  0  0  0  0  0  0  0  0  0  0
   -4.4981   -3.3035   -0.4122 C   0  0  0  0  0  0  0  0  0  0  0  0
   -5.6237   -2.8468   -0.4180 O   0  0  0  0  0  0  0  0  0  0  0  0
   -3.4374   -2.4798   -0.3049 O   0  0  0  0  0  0  0  0  0  0  0  0
   -3.7146   -1.0584   -0.2000 C   0  0  0  0  0  0  0  0  0  0  0  0
   -2.4169   -0.3004   -0.0890 C   0  0  0  0  0  0  0  0  0  0  0  0
   -1.3621   -0.8992   -0.0974 O   0  0  0  0  0  0  0  0  0  0  0  0
   -2.4282    1.0429    0.0196 N   0  0  0  0  0  0  0  0  0  0  0  0
   -1.2242    1.7557    0.0116 C   0  0  0  0  0  0  0  0  0  0  0  0
   -0.1512    1.3024   -0.7448 C   0  0  0  0  0  0  0  0  0  0  0  0
    1.0320    2.0120   -0.7532 C   0  0  0  0  0  0  0  0  0  0  0  0
    1.1570    3.1721   -0.0059 C   0  0  0  0  0  0  0  0  0  0  0  0
    0.0922    3.6231    0.7524 C   0  0  0  0  0  0  0  0  0  0  0  0
   -1.0962    2.9143    0.7640 C   0  0  0  0  0  0  0  0  0  0  0  0
    0.4788    4.8992    1.4693 C   0  0  0  0  0  0  0  0  0  0  0  0
    1.7324    5.4136    0.7305 C   0  0  0  0  0  0  0  0  0  0  0  0
    2.3313    4.1149    0.1501 C   0  0  0  0  0  0  0  0  0  0  0  0
   -6.2848   -7.8450   -0.8491 N   0  0  0  0  0  0  0  0  0  0  0  0
   -3.6481   -9.2131   -0.8606 Cl  0  0  0  0  0  0  0  0  0  0  0  0
   -2.1475   -4.6295   -0.4406 H   0  0  0  0  0  0  0  0  0  0  0  0
   -1.8086   -7.0576   -0.6158 H   0  0  0  0  0  0  0  0  0  0  0  0
   -6.3922   -5.2149   -0.6396 H   0  0  0  0  0  0  0  0  0  0  0  0
   -4.3218   -0.8710    0.6856 H   0  0  0  0  0  0  0  0  0  0  0  0
   -4.2542   -0.7270   -1.0873 H   0  0  0  0  0  0  0  0  0  0  0  0
   -3.2711    1.5156    0.1034 H   0  0  0  0  0  0  0  0  0  0  0  0
   -0.2443    0.3986   -1.3288 H   0  0  0  0  0  0  0  0  0  0  0  0
    1.8648    1.6614   -1.3448 H   0  0  0  0  0  0  0  0  0  0  0  0
   -1.9280    3.2669    1.3559 H   0  0  0  0  0  0  0  0  0  0  0  0
   -0.3269    5.6302    1.4012 H   0  0  0  0  0  0  0  0  0  0  0  0
    0.7138    4.6903    2.5130 H   0  0  0  0  0  0  0  0  0  0  0  0
    1.4564    6.1032   -0.0671 H   0  0  0  0  0  0  0  0  0  0  0  0
    2.4272    5.8831    1.4270 H   0  0  0  0  0  0  0  0  0  0  0  0
    3.0641    3.6954    0.8393 H   0  0  0  0  0  0  0  0  0  0  0  0
    2.7907    4.3103   -0.8188 H   0  0  0  0  0  0  0  0  0  0  0  0
   -7.1857   -7.4855   -0.8536 H   0  0  0  0  0  0  0  0  0  0  0  0
   -6.1442   -8.8020   -0.9218 H   0  0  0  0  0  0  0  0  0  0  0  0
  1  6  2  0  0  0  0
  1  2  1  0  0  0  0
  1 25  1  0  0  0  0
  2  3  2  0  0  0  0
  2 26  1  0  0  0  0
  3  4  1  0  0  0  0
  3 24  1  0  0  0  0
  4  5  2  0  0  0  0
  4 23  1  0  0  0  0
  5  6  1  0  0  0  0
  5 27  1  0  0  0  0
  6  7  1  0  0  0  0
  7  8  2  0  0  0  0
  7  9  1  0  0  0  0
  9 10  1  0  0  0  0
 10 11  1  0  0  0  0
 10 28  1  0  0  0  0
 10 29  1  0  0  0  0
 11 12  2  0  0  0  0
 11 13  1  0  0  0  0
 13 14  1  0  0  0  0
 13 30  1  0  0  0  0
 14 19  2  0  0  0  0
 14 15  1  0  0  0  0
 15 16  2  0  0  0  0
 15 31  1  0  0  0  0
 16 17  1  0  0  0  0
 16 32  1  0  0  0  0
 17 22  1  0  0  0  0
 17 18  2  0  0  0  0
 18 19  1  0  0  0  0
 18 20  1  0  0  0  0
 19 33  1  0  0  0  0
 20 21  1  0  0  0  0
 20 34  1  0  0  0  0
 20 35  1  0  0  0  0
 21 22  1  0  0  0  0
 21 36  1  0  0  0  0
 21 37  1  0  0  0  0
 22 38  1  0  0  0  0
 22 39  1  0  0  0  0
 23 40  1  0  0  0  0
 23 41  1  0  0  0  0
M  END
$$$$
ZINC03531498
  -OEChem-08230709453D

 46 48  0     0  0  0  0  0  0999 V2000
   -1.2149    1.7508    0.0173 C   0  0  0  0  0  0  0  0  0  0  0  0
   -0.0126    1.0758    0.0080 C   0  0  0  0  0  0  0  0  0  0  0  0
    1.1878    1.7933    0.0003 C   0  0  0  0  0  0  0  0  0  0  0  0
    1.1584    3.1915    0.0082 C   0  0  0  0  0  0  0  0  0  0  0  0
   -0.0520    3.8519    0.0233 C   0  0  0  0  0  0  0  0  0  0  0  0
   -1.2357    3.1346    0.0308 C   0  0  0  0  0  0  0  0  0  0  0  0
   -2.5541    3.8643    0.0473 C   0  0  0  0  0  0  0  0  0  0  0  0
   -3.3376    3.4735    1.3020 C   0  0  0  0  0  0  0  0  0  0  0  0
   -4.6762    4.2143    1.3189 C   0  0  0  0  0  0  0  0  0  0  0  0
   -5.4836    3.8370    0.0752 C   0  0  0  0  0  0  0  0  0  0  0  0
   -4.7001    4.2278   -1.1795 C   0  0  0  0  0  0  0  0  0  0  0  0
   -3.3615    3.4870   -1.1963 C   0  0  0  0  0  0  0  0  0  0  0  0
    2.4754    1.0808   -0.0163 C   0  0  0  0  0  0  0  0  0  0  0  0
    2.4973   -0.1316   -0.0235 O   0  0  0  0  0  0  0  0  0  0  0  0
    3.7666    1.8578   -0.0245 C   0  0  0  0  0  0  0  0  0  0  0  0
    5.1633    0.7068   -0.0447 S   0  0  0  0  0  0  0  0  0  0  0  0
    6.5029    1.8513   -0.0512 C   0  0  0  0  0  0  0  0  0  0  0  0
    6.2418    3.1504   -0.0466 N   0  0  0  0  0  0  0  0  0  0  0  0
    7.2284    4.0438   -0.0457 C   0  0  0  0  0  0  0  0  0  0  0  0
    8.5466    3.5974   -0.0612 C   0  0  0  0  0  0  0  0  0  0  0  0
    8.7817    2.2256   -0.0713 C   0  0  0  0  0  0  0  0  0  0  0  0
    7.7452    1.3906   -0.0660 N   0  0  0  0  0  0  0  0  0  0  0  0
   10.0783    1.7354   -0.0863 N   0  0  0  0  0  0  0  0  0  0  0  0
    6.9467    5.4010   -0.0348 N   0  0  0  0  0  0  0  0  0  0  0  0
   -2.1428    1.1982    0.0187 H   0  0  0  0  0  0  0  0  0  0  0  0
    0.0021   -0.0041    0.0020 H   0  0  0  0  0  0  0  0  0  0  0  0
    2.0812    3.7526    0.0020 H   0  0  0  0  0  0  0  0  0  0  0  0
   -0.0764    4.9316    0.0290 H   0  0  0  0  0  0  0  0  0  0  0  0
   -2.3744    4.9394    0.0514 H   0  0  0  0  0  0  0  0  0  0  0  0
   -3.5174    2.3984    1.2980 H   0  0  0  0  0  0  0  0  0  0  0  0
   -2.7624    3.7423    2.1880 H   0  0  0  0  0  0  0  0  0  0  0  0
   -4.4964    5.2894    1.3229 H   0  0  0  0  0  0  0  0  0  0  0  0
   -5.2344    3.9359    2.2127 H   0  0  0  0  0  0  0  0  0  0  0  0
   -6.4372    4.3647    0.0872 H   0  0  0  0  0  0  0  0  0  0  0  0
   -5.6633    2.7619    0.0711 H   0  0  0  0  0  0  0  0  0  0  0  0
   -4.5203    5.3029   -1.1754 H   0  0  0  0  0  0  0  0  0  0  0  0
   -5.2753    3.9590   -2.0655 H   0  0  0  0  0  0  0  0  0  0  0  0
   -2.8033    3.7654   -2.0902 H   0  0  0  0  0  0  0  0  0  0  0  0
   -3.5413    2.4119   -1.2004 H   0  0  0  0  0  0  0  0  0  0  0  0
    3.8012    2.4382   -0.8381 H   0  0  0  0  0  0  0  0  0  0  0  0
    3.8217    2.4803    0.8686 H   0  0  0  0  0  0  0  0  0  0  0  0
    9.3677    4.2989   -0.0655 H   0  0  0  0  0  0  0  0  0  0  0  0
   10.2348    0.7781   -0.0930 H   0  0  0  0  0  0  0  0  0  0  0  0
   10.8290    2.3496   -0.0901 H   0  0  0  0  0  0  0  0  0  0  0  0
    7.6706    6.0467   -0.0378 H   0  0  0  0  0  0  0  0  0  0  0  0
    6.0256    5.7051   -0.0240 H   0  0  0  0  0  0  0  0  0  0  0  0
  1  6  2  0  0  0  0
  1  2  1  0  0  0  0
  1 25  1  0  0  0  0
  2  3  2  0  0  0  0
  2 26  1  0  0  0  0
  3  4  1  0  0  0  0
  3 13  1  0  0  0  0
  4  5  2  0  0  0  0
  4 27  1  0  0  0  0
  5  6  1  0  0  0  0
  5 28  1  0  0  0  0
  6  7  1  0  0  0  0
  7 12  1  0  0  0  0
  7  8  1  0  0  0  0
  7 29  1  0  0  0  0
  8  9  1  0  0  0  0
  8 30  1  0  0  0  0
  8 31  1  0  0  0  0
  9 10  1  0  0  0  0
  9 32  1  0  0  0  0
  9 33  1  0  0  0  0
 10 11  1  0  0  0  0
 10 34  1  0  0  0  0
 10 35  1  0  0  0  0
 11 12  1  0  0  0  0
 11 36  1  0  0  0  0
 11 37  1  0  0  0  0
 12 38  1  0  0  0  0
 12 39  1  0  0  0  0
 13 14  2  0  0  0  0
 13 15  1  0  0  0  0
 15 16  1  0  0  0  0
 15 40  1  0  0  0  0
 15 41  1  0  0  0  0
 16 17  1  0  0  0  0
 17 22  2  0  0  0  0
 17 18  1  0  0  0  0
 18 19  2  0  0  0  0
 19 20  1  0  0  0  0
 19 24  1  0  0  0  0
 20 21  2  0  0  0  0
 20 42  1  0  0  0  0
 21 22  1  0  0  0  0
 21 23  1  0  0  0  0
 23 43  1  0  0  0  0
 23 44  1  0  0  0  0
 24 45  1  0  0  0  0
 24 46  1  0  0  0  0
M  END
$$$$
ZINC03535764
  -OEChem-08230709453D

 43 44  0     1  0  0  0  0  0999 V2000
    4.4814    0.4173    1.3811 C   0  0  0  0  0  0  0  0  0  0  0  0
    3.2071    1.2633    1.3435 C   0  0  0  0  0  0  0  0  0  0  0  0
    2.4948    1.0535    0.0058 C   0  0  2  0  0  0  0  0  0  0  0  0
    2.3147   -0.0106   -0.1470 H   0  0  0  0  0  0  0  0  0  0  0  0
    3.3707    1.5905   -1.1280 C   0  0  0  0  0  0  0  0  0  0  0  0
    1.1797    1.7892    0.0161 C   0  0  0  0  0  0  0  0  0  0  0  0
   -0.0023    1.0919   -0.1544 C   0  0  0  0  0  0  0  0  0  0  0  0
   -1.2089    1.7639   -0.1507 C   0  0  0  0  0  0  0  0  0  0  0  0
   -1.2350    3.1400    0.0346 C   0  0  0  0  0  0  0  0  0  0  0  0
   -0.0463    3.8372    0.2061 C   0  0  0  0  0  0  0  0  0  0  0  0
    1.1573    3.1600    0.1966 C   0  0  0  0  0  0  0  0  0  0  0  0
   -2.4561    3.8232    0.0433 N   0  0  0  0  0  0  0  0  0  0  0  0
   -2.5298    5.0778   -0.4434 C   0  0  0  0  0  0  0  0  0  0  0  0
   -1.5623    5.5796   -0.9756 O   0  0  0  0  0  0  0  0  0  0  0  0
   -3.8143    5.8572   -0.3264 C   0  0  1  0  0  0  0  0  0  0  0  0
   -4.6614    5.1792   -0.4303 H   0  0  0  0  0  0  0  0  0  0  0  0
   -3.8731    6.5412    1.0409 C   0  0  0  0  0  0  0  0  0  0  0  0
   -3.8810    7.1128   -1.6340 S   0  0  0  0  0  0  0  0  0  0  0  0
   -5.4816    7.8278   -1.4572 C   0  0  0  0  0  0  0  0  0  0  0  0
   -6.0010    8.8344   -2.2220 N   0  0  0  0  0  0  0  0  0  0  0  0
   -5.5533    9.2804   -2.9579 H   0  0  0  0  0  0  0  0  0  0  0  0
   -7.2626    9.1000   -1.7702 C   0  0  0  0  0  0  0  0  0  0  0  0
   -7.5099    8.2980   -0.7640 N   0  0  0  0  0  0  0  0  0  0  0  0
   -6.3816    7.4916   -0.5653 N   0  0  0  0  0  0  0  0  0  0  0  0
   -8.1292   10.0561   -2.2840 N   0  0  0  0  0  0  0  0  0  0  0  0
    4.2220   -0.6354    1.2687 H   0  0  0  0  0  0  0  0  0  0  0  0
    5.1411    0.7179    0.5671 H   0  0  0  0  0  0  0  0  0  0  0  0
    4.9888    0.5668    2.3341 H   0  0  0  0  0  0  0  0  0  0  0  0
    3.4664    2.3160    1.4559 H   0  0  0  0  0  0  0  0  0  0  0  0
    2.5473    0.9627    2.1575 H   0  0  0  0  0  0  0  0  0  0  0  0
    3.5508    2.6546   -0.9752 H   0  0  0  0  0  0  0  0  0  0  0  0
    4.3219    1.0583   -1.1355 H   0  0  0  0  0  0  0  0  0  0  0  0
    2.8633    1.4410   -2.0811 H   0  0  0  0  0  0  0  0  0  0  0  0
    0.0185    0.0213   -0.2951 H   0  0  0  0  0  0  0  0  0  0  0  0
   -2.1313    1.2194   -0.2884 H   0  0  0  0  0  0  0  0  0  0  0  0
   -0.0631    4.9079    0.3470 H   0  0  0  0  0  0  0  0  0  0  0  0
    2.0821    3.7017    0.3298 H   0  0  0  0  0  0  0  0  0  0  0  0
   -3.2496    3.3938    0.3996 H   0  0  0  0  0  0  0  0  0  0  0  0
   -3.0260    7.2192    1.1447 H   0  0  0  0  0  0  0  0  0  0  0  0
   -4.8021    7.1049    1.1255 H   0  0  0  0  0  0  0  0  0  0  0  0
   -3.8330    5.7867    1.8266 H   0  0  0  0  0  0  0  0  0  0  0  0
   -9.0083   10.1747   -1.8917 H   0  0  0  0  0  0  0  0  0  0  0  0
   -7.8553   10.6052   -3.0353 H   0  0  0  0  0  0  0  0  0  0  0  0
  1  2  1  0  0  0  0
  1 26  1  0  0  0  0
  1 27  1  0  0  0  0
  1 28  1  0  0  0  0
  2  3  1  0  0  0  0
  2 29  1  0  0  0  0
  2 30  1  0  0  0  0
  3  4  1  0  0  0  0
  3  5  1  0  0  0  0
  3  6  1  0  0  0  0
  5 31  1  0  0  0  0
  5 32  1  0  0  0  0
  5 33  1  0  0  0  0
  6 11  2  0  0  0  0
  6  7  1  0  0  0  0
  7  8  2  0  0  0  0
  7 34  1  0  0  0  0
  8  9  1  0  0  0  0
  8 35  1  0  0  0  0
  9 10  2  0  0  0  0
  9 12  1  0  0  0  0
 10 11  1  0  0  0  0
 10 36  1  0  0  0  0
 11 37  1  0  0  0  0
 12 13  1  0  0  0  0
 12 38  1  0  0  0  0
 13 14  2  0  0  0  0
 13 15  1  0  0  0  0
 15 16  1  0  0  0  0
 15 17  1  0  0  0  0
 15 18  1  0  0  0  0
 17 39  1  0  0  0  0
 17 40  1  0  0  0  0
 17 41  1  0  0  0  0
 18 19  1  0  0  0  0
 19 24  2  0  0  0  0
 19 20  1  0  0  0  0
 20 21  1  0  0  0  0
 20 22  1  0  0  0  0
 22 23  2  0  0  0  0
 22 25  1  0  0  0  0
 23 24  1  0  0  0  0
 25 42  1  0  0  0  0
 25 43  1  0  0  0  0
M  END
$$$$
ZINC03535818
  -OEChem-08230709453D

 42 43  0     1  0  0  0  0  0999 V2000
   -7.4955   -9.7084    1.6331 C   0  0  0  0  0  0  0  0  0  0  0  0
   -6.4688   -8.5804    1.5130 C   0  0  0  0  0  0  0  0  0  0  0  0
   -5.2756   -9.0628    0.6856 C   0  0  1  0  0  0  0  0  0  0  0  0
   -4.8712   -9.9733    1.1277 H   0  0  0  0  0  0  0  0  0  0  0  0
   -5.7309   -9.3499   -0.7466 C   0  0  0  0  0  0  0  0  0  0  0  0
   -4.2111   -7.9962    0.6700 C   0  0  0  0  0  0  0  0  0  0  0  0
   -2.9528   -8.2699    1.1741 C   0  0  0  0  0  0  0  0  0  0  0  0
   -1.9750   -7.2946    1.1613 C   0  0  0  0  0  0  0  0  0  0  0  0
   -2.2565   -6.0380    0.6415 C   0  0  0  0  0  0  0  0  0  0  0  0
   -3.5228   -5.7645    0.1412 C   0  0  0  0  0  0  0  0  0  0  0  0
   -4.4947   -6.7458    0.1521 C   0  0  0  0  0  0  0  0  0  0  0  0
   -1.2681   -5.0477    0.6270 N   0  0  0  0  0  0  0  0  0  0  0  0
    0.0205   -5.3847    0.4206 C   0  0  0  0  0  0  0  0  0  0  0  0
    0.3350   -6.5526    0.3312 O   0  0  0  0  0  0  0  0  0  0  0  0
    1.0704   -4.3103    0.3011 C   0  0  1  0  0  0  0  0  0  0  0  0
    0.6451   -3.4407   -0.2000 H   0  0  0  0  0  0  0  0  0  0  0  0
    1.5516   -3.9097    1.6971 C   0  0  0  0  0  0  0  0  0  0  0  0
    2.4717   -4.9390   -0.6642 S   0  0  0  0  0  0  0  0  0  0  0  0
    3.5302   -3.5413   -0.8391 C   0  0  0  0  0  0  0  0  0  0  0  0
    3.3727   -2.3117   -0.3878 N   0  0  0  0  0  0  0  0  0  0  0  0
    4.3345   -1.3613   -0.6414 N   0  0  0  0  0  0  0  0  0  0  0  0
    5.4091   -1.6835   -1.3343 C   0  0  0  0  0  0  0  0  0  0  0  0
    5.1033   -3.4101   -1.6751 S   0  0  0  0  0  0  0  0  0  0  0  0
    6.4907   -0.8915   -1.7014 N   0  0  0  0  0  0  0  0  0  0  0  0
   -8.3455   -9.3647    2.2226 H   0  0  0  0  0  0  0  0  0  0  0  0
   -7.8359   -9.9972    0.6387 H   0  0  0  0  0  0  0  0  0  0  0  0
   -7.0365  -10.5668    2.1236 H   0  0  0  0  0  0  0  0  0  0  0  0
   -6.1283   -8.2916    2.5074 H   0  0  0  0  0  0  0  0  0  0  0  0
   -6.9278   -7.7220    1.0225 H   0  0  0  0  0  0  0  0  0  0  0  0
   -4.8809   -9.6935   -1.3361 H   0  0  0  0  0  0  0  0  0  0  0  0
   -6.5009  -10.1213   -0.7353 H   0  0  0  0  0  0  0  0  0  0  0  0
   -6.1353   -8.4393   -1.1887 H   0  0  0  0  0  0  0  0  0  0  0  0
   -2.7346   -9.2472    1.5786 H   0  0  0  0  0  0  0  0  0  0  0  0
   -0.9926   -7.5088    1.5555 H   0  0  0  0  0  0  0  0  0  0  0  0
   -3.7462   -4.7869   -0.2597 H   0  0  0  0  0  0  0  0  0  0  0  0
   -5.4785   -6.5350   -0.2405 H   0  0  0  0  0  0  0  0  0  0  0  0
   -1.5102   -4.1187    0.7654 H   0  0  0  0  0  0  0  0  0  0  0  0
    1.9769   -4.7793    2.1982 H   0  0  0  0  0  0  0  0  0  0  0  0
    2.3110   -3.1326    1.6106 H   0  0  0  0  0  0  0  0  0  0  0  0
    0.7095   -3.5319    2.2771 H   0  0  0  0  0  0  0  0  0  0  0  0
    7.2176   -1.2726   -2.2183 H   0  0  0  0  0  0  0  0  0  0  0  0
    6.5186    0.0424   -1.4405 H   0  0  0  0  0  0  0  0  0  0  0  0
  1  2  1  0  0  0  0
  1 25  1  0  0  0  0
  1 26  1  0  0  0  0
  1 27  1  0  0  0  0
  2  3  1  0  0  0  0
  2 28  1  0  0  0  0
  2 29  1  0  0  0  0
  3  4  1  0  0  0  0
  3  5  1  0  0  0  0
  3  6  1  0  0  0  0
  5 30  1  0  0  0  0
  5 31  1  0  0  0  0
  5 32  1  0  0  0  0
  6 11  2  0  0  0  0
  6  7  1  0  0  0  0
  7  8  2  0  0  0  0
  7 33  1  0  0  0  0
  8  9  1  0  0  0  0
  8 34  1  0  0  0  0
  9 10  2  0  0  0  0
  9 12  1  0  0  0  0
 10 11  1  0  0  0  0
 10 35  1  0  0  0  0
 11 36  1  0  0  0  0
 12 13  1  0  0  0  0
 12 37  1  0  0  0  0
 13 14  2  0  0  0  0
 13 15  1  0  0  0  0
 15 16  1  0  0  0  0
 15 17  1  0  0  0  0
 15 18  1  0  0  0  0
 17 38  1  0  0  0  0
 17 39  1  0  0  0  0
 17 40  1  0  0  0  0
 18 19  1  0  0  0  0
 19 23  1  0  0  0  0
 19 20  2  0  0  0  0
 20 21  1  0  0  0  0
 21 22  2  0  0  0  0
 22 23  1  0  0  0  0
 22 24  1  0  0  0  0
 24 41  1  0  0  0  0
 24 42  1  0  0  0  0
M  END
$$$$
ZINC03535819
  -OEChem-08230709453D

 42 43  0     1  0  0  0  0  0999 V2000
   -0.4510    9.7592   -1.7762 C   0  0  0  0  0  0  0  0  0  0  0  0
   -0.3787    8.2383   -1.6267 C   0  0  0  0  0  0  0  0  0  0  0  0
   -1.0509    7.8221   -0.3168 C   0  0  2  0  0  0  0  0  0  0  0  0
   -2.0678    8.2136   -0.2898 H   0  0  0  0  0  0  0  0  0  0  0  0
   -0.2570    8.3831    0.8646 C   0  0  0  0  0  0  0  0  0  0  0  0
   -1.0891    6.3182   -0.2274 C   0  0  0  0  0  0  0  0  0  0  0  0
   -2.3031    5.6634   -0.1300 C   0  0  0  0  0  0  0  0  0  0  0  0
   -2.3415    4.2853   -0.0480 C   0  0  0  0  0  0  0  0  0  0  0  0
   -1.1591    3.5571   -0.0634 C   0  0  0  0  0  0  0  0  0  0  0  0
    0.0588    4.2180   -0.1556 C   0  0  0  0  0  0  0  0  0  0  0  0
    0.0900    5.5959   -0.2435 C   0  0  0  0  0  0  0  0  0  0  0  0
   -1.1946    2.1607    0.0195 N   0  0  0  0  0  0  0  0  0  0  0  0
   -2.1981    1.4762   -0.5643 C   0  0  0  0  0  0  0  0  0  0  0  0
   -3.1169    2.0730   -1.0847 O   0  0  0  0  0  0  0  0  0  0  0  0
   -2.1818   -0.0307   -0.5651 C   0  0  1  0  0  0  0  0  0  0  0  0
   -1.1547   -0.3829   -0.6600 H   0  0  0  0  0  0  0  0  0  0  0  0
   -2.7794   -0.5478    0.7450 C   0  0  0  0  0  0  0  0  0  0  0  0
   -3.1631   -0.6453   -1.9615 S   0  0  0  0  0  0  0  0  0  0  0  0
   -2.9268   -2.3907   -1.9131 C   0  0  0  0  0  0  0  0  0  0  0  0
   -2.2070   -3.1140   -1.0771 N   0  0  0  0  0  0  0  0  0  0  0  0
   -2.1638   -4.4818   -1.2179 N   0  0  0  0  0  0  0  0  0  0  0  0
   -2.8329   -5.0625   -2.1946 C   0  0  0  0  0  0  0  0  0  0  0  0
   -3.5916   -3.6532   -2.9878 S   0  0  0  0  0  0  0  0  0  0  0  0
   -2.9232   -6.4108   -2.5202 N   0  0  0  0  0  0  0  0  0  0  0  0
    0.0279   10.0557   -2.7094 H   0  0  0  0  0  0  0  0  0  0  0  0
   -1.4945   10.0740   -1.7873 H   0  0  0  0  0  0  0  0  0  0  0  0
    0.0621   10.2315   -0.9385 H   0  0  0  0  0  0  0  0  0  0  0  0
    0.6648    7.9235   -1.6156 H   0  0  0  0  0  0  0  0  0  0  0  0
   -0.8918    7.7660   -2.4644 H   0  0  0  0  0  0  0  0  0  0  0  0
   -0.7358    8.0866    1.7978 H   0  0  0  0  0  0  0  0  0  0  0  0
    0.7600    7.9917    0.8377 H   0  0  0  0  0  0  0  0  0  0  0  0
   -0.2293    9.4709    0.8000 H   0  0  0  0  0  0  0  0  0  0  0  0
   -3.2223    6.2303   -0.1177 H   0  0  0  0  0  0  0  0  0  0  0  0
   -3.2901    3.7745    0.0277 H   0  0  0  0  0  0  0  0  0  0  0  0
    0.9802    3.6547   -0.1633 H   0  0  0  0  0  0  0  0  0  0  0  0
    1.0366    6.1102   -0.3200 H   0  0  0  0  0  0  0  0  0  0  0  0
   -0.4969    1.6854    0.4971 H   0  0  0  0  0  0  0  0  0  0  0  0
   -2.1898   -0.1785    1.5840 H   0  0  0  0  0  0  0  0  0  0  0  0
   -3.8066   -0.1956    0.8398 H   0  0  0  0  0  0  0  0  0  0  0  0
   -2.7676   -1.6378    0.7444 H   0  0  0  0  0  0  0  0  0  0  0  0
   -3.4607   -6.6920   -3.2771 H   0  0  0  0  0  0  0  0  0  0  0  0
   -2.4488   -7.0705   -1.9904 H   0  0  0  0  0  0  0  0  0  0  0  0
  1  2  1  0  0  0  0
  1 25  1  0  0  0  0
  1 26  1  0  0  0  0
  1 27  1  0  0  0  0
  2  3  1  0  0  0  0
  2 28  1  0  0  0  0
  2 29  1  0  0  0  0
  3  4  1  0  0  0  0
  3  5  1  0  0  0  0
  3  6  1  0  0  0  0
  5 30  1  0  0  0  0
  5 31  1  0  0  0  0
  5 32  1  0  0  0  0
  6 11  2  0  0  0  0
  6  7  1  0  0  0  0
  7  8  2  0  0  0  0
  7 33  1  0  0  0  0
  8  9  1  0  0  0  0
  8 34  1  0  0  0  0
  9 10  2  0  0  0  0
  9 12  1  0  0  0  0
 10 11  1  0  0  0  0
 10 35  1  0  0  0  0
 11 36  1  0  0  0  0
 12 13  1  0  0  0  0
 12 37  1  0  0  0  0
 13 14  2  0  0  0  0
 13 15  1  0  0  0  0
 15 16  1  0  0  0  0
 15 17  1  0  0  0  0
 15 18  1  0  0  0  0
 17 38  1  0  0  0  0
 17 39  1  0  0  0  0
 17 40  1  0  0  0  0
 18 19  1  0  0  0  0
 19 23  1  0  0  0  0
 19 20  2  0  0  0  0
 20 21  1  0  0  0  0
 21 22  2  0  0  0  0
 22 23  1  0  0  0  0
 22 24  1  0  0  0  0
 24 41  1  0  0  0  0
 24 42  1  0  0  0  0
M  END
$$$$
ZINC03535820
  -OEChem-08230709453D

 42 43  0     1  0  0  0  0  0999 V2000
    0.0568    0.9538    0.1217 C   0  0  0  0  0  0  0  0  0  0  0  0
   -0.6761    1.4332    1.3763 C   0  0  0  0  0  0  0  0  0  0  0  0
   -2.1589    1.0714    1.2703 C   0  0  1  0  0  0  0  0  0  0  0  0
   -2.5673    1.4796    0.3458 H   0  0  0  0  0  0  0  0  0  0  0  0
   -2.3136   -0.4507    1.2678 C   0  0  0  0  0  0  0  0  0  0  0  0
   -2.9025    1.6500    2.4464 C   0  0  0  0  0  0  0  0  0  0  0  0
   -2.5614    1.2719    3.7321 C   0  0  0  0  0  0  0  0  0  0  0  0
   -3.2377    1.8040    4.8123 C   0  0  0  0  0  0  0  0  0  0  0  0
   -4.2682    2.7117    4.6059 C   0  0  0  0  0  0  0  0  0  0  0  0
   -4.6118    3.0854    3.3133 C   0  0  0  0  0  0  0  0  0  0  0  0
   -3.9282    2.5536    2.2375 C   0  0  0  0  0  0  0  0  0  0  0  0
   -4.9592    3.2482    5.6979 N   0  0  0  0  0  0  0  0  0  0  0  0
   -6.2696    3.5435    5.5871 C   0  0  0  0  0  0  0  0  0  0  0  0
   -6.8724    3.2565    4.5746 O   0  0  0  0  0  0  0  0  0  0  0  0
   -6.9857    4.2304    6.7214 C   0  0  2  0  0  0  0  0  0  0  0  0
   -6.3362    4.9919    7.1531 H   0  0  0  0  0  0  0  0  0  0  0  0
   -7.3475    3.2010    7.7939 C   0  0  0  0  0  0  0  0  0  0  0  0
   -8.4997    5.0103    6.0966 S   0  0  0  0  0  0  0  0  0  0  0  0
   -9.1353    5.8831    7.4890 C   0  0  0  0  0  0  0  0  0  0  0  0
   -8.6540    5.9664    8.7145 N   0  0  0  0  0  0  0  0  0  0  0  0
   -9.3153    6.7158    9.6599 N   0  0  0  0  0  0  0  0  0  0  0  0
  -10.4329    7.3381    9.3400 C   0  0  0  0  0  0  0  0  0  0  0  0
  -10.6080    6.8855    7.6209 S   0  0  0  0  0  0  0  0  0  0  0  0
  -11.2552    8.1334   10.1295 N   0  0  0  0  0  0  0  0  0  0  0  0
   -0.0479   -0.1273    0.0305 H   0  0  0  0  0  0  0  0  0  0  0  0
    1.1132    1.2115    0.1972 H   0  0  0  0  0  0  0  0  0  0  0  0
   -0.3729    1.4358   -0.7565 H   0  0  0  0  0  0  0  0  0  0  0  0
   -0.2464    0.9512    2.2545 H   0  0  0  0  0  0  0  0  0  0  0  0
   -0.5715    2.5143    1.4674 H   0  0  0  0  0  0  0  0  0  0  0  0
   -1.9053   -0.8589    2.1924 H   0  0  0  0  0  0  0  0  0  0  0  0
   -3.3700   -0.7085    1.1923 H   0  0  0  0  0  0  0  0  0  0  0  0
   -1.7758   -0.8693    0.4171 H   0  0  0  0  0  0  0  0  0  0  0  0
   -1.7626    0.5628    3.8918 H   0  0  0  0  0  0  0  0  0  0  0  0
   -2.9681    1.5114    5.8164 H   0  0  0  0  0  0  0  0  0  0  0  0
   -5.4126    3.7913    3.1494 H   0  0  0  0  0  0  0  0  0  0  0  0
   -4.1951    2.8436    1.2320 H   0  0  0  0  0  0  0  0  0  0  0  0
   -4.4952    3.4077    6.5347 H   0  0  0  0  0  0  0  0  0  0  0  0
   -6.4378    2.7323    8.1693 H   0  0  0  0  0  0  0  0  0  0  0  0
   -7.8655    3.6978    8.6143 H   0  0  0  0  0  0  0  0  0  0  0  0
   -7.9970    2.4395    7.3622 H   0  0  0  0  0  0  0  0  0  0  0  0
  -12.0557    8.5293    9.7508 H   0  0  0  0  0  0  0  0  0  0  0  0
  -11.0287    8.2923   11.0592 H   0  0  0  0  0  0  0  0  0  0  0  0
  1  2  1  0  0  0  0
  1 25  1  0  0  0  0
  1 26  1  0  0  0  0
  1 27  1  0  0  0  0
  2  3  1  0  0  0  0
  2 28  1  0  0  0  0
  2 29  1  0  0  0  0
  3  4  1  0  0  0  0
  3  5  1  0  0  0  0
  3  6  1  0  0  0  0
  5 30  1  0  0  0  0
  5 31  1  0  0  0  0
  5 32  1  0  0  0  0
  6 11  2  0  0  0  0
  6  7  1  0  0  0  0
  7  8  2  0  0  0  0
  7 33  1  0  0  0  0
  8  9  1  0  0  0  0
  8 34  1  0  0  0  0
  9 10  2  0  0  0  0
  9 12  1  0  0  0  0
 10 11  1  0  0  0  0
 10 35  1  0  0  0  0
 11 36  1  0  0  0  0
 12 13  1  0  0  0  0
 12 37  1  0  0  0  0
 13 14  2  0  0  0  0
 13 15  1  0  0  0  0
 15 16  1  0  0  0  0
 15 17  1  0  0  0  0
 15 18  1  0  0  0  0
 17 38  1  0  0  0  0
 17 39  1  0  0  0  0
 17 40  1  0  0  0  0
 18 19  1  0  0  0  0
 19 23  1  0  0  0  0
 19 20  2  0  0  0  0
 20 21  1  0  0  0  0
 21 22  2  0  0  0  0
 22 23  1  0  0  0  0
 22 24  1  0  0  0  0
 24 41  1  0  0  0  0
 24 42  1  0  0  0  0
M  END
$$$$
ZINC03535821
  -OEChem-08230709453D

 42 43  0     1  0  0  0  0  0999 V2000
   -3.9192    3.0014   -8.9228 C   0  0  0  0  0  0  0  0  0  0  0  0
   -3.2375    2.6286   -7.6048 C   0  0  0  0  0  0  0  0  0  0  0  0
   -4.2364    2.7737   -6.4550 C   0  0  2  0  0  0  0  0  0  0  0  0
   -5.1247    2.1791   -6.6682 H   0  0  0  0  0  0  0  0  0  0  0  0
   -4.6310    4.2443   -6.3048 C   0  0  0  0  0  0  0  0  0  0  0  0
   -3.6034    2.2903   -5.1757 C   0  0  0  0  0  0  0  0  0  0  0  0
   -4.1716    1.2396   -4.4789 C   0  0  0  0  0  0  0  0  0  0  0  0
   -3.5939    0.7942   -3.3061 C   0  0  0  0  0  0  0  0  0  0  0  0
   -2.4410    1.4024   -2.8270 C   0  0  0  0  0  0  0  0  0  0  0  0
   -1.8757    2.4605   -3.5266 C   0  0  0  0  0  0  0  0  0  0  0  0
   -2.4555    2.8980   -4.7013 C   0  0  0  0  0  0  0  0  0  0  0  0
   -1.8536    0.9539   -1.6389 N   0  0  0  0  0  0  0  0  0  0  0  0
   -1.8807   -0.3570   -1.3267 C   0  0  0  0  0  0  0  0  0  0  0  0
   -2.4861   -1.1360   -2.0323 O   0  0  0  0  0  0  0  0  0  0  0  0
   -1.1588   -0.8548   -0.1011 C   0  0  2  0  0  0  0  0  0  0  0  0
   -1.2938   -0.1437    0.7139 H   0  0  0  0  0  0  0  0  0  0  0  0
    0.3326   -0.9985   -0.4108 C   0  0  0  0  0  0  0  0  0  0  0  0
   -1.8335   -2.4669    0.3850 S   0  0  0  0  0  0  0  0  0  0  0  0
   -1.0030   -2.8392    1.8937 C   0  0  0  0  0  0  0  0  0  0  0  0
   -0.0937   -2.1376    2.5426 N   0  0  0  0  0  0  0  0  0  0  0  0
    0.4280   -2.6176    3.7217 N   0  0  0  0  0  0  0  0  0  0  0  0
    0.0250   -3.7817    4.1919 C   0  0  0  0  0  0  0  0  0  0  0  0
   -1.1615   -4.2713    2.9496 S   0  0  0  0  0  0  0  0  0  0  0  0
    0.4186   -4.4495    5.3456 N   0  0  0  0  0  0  0  0  0  0  0  0
   -4.7679    2.3388   -9.0930 H   0  0  0  0  0  0  0  0  0  0  0  0
   -4.2680    4.0329   -8.8724 H   0  0  0  0  0  0  0  0  0  0  0  0
   -3.2076    2.8980   -9.7419 H   0  0  0  0  0  0  0  0  0  0  0  0
   -2.3888    3.2912   -7.4346 H   0  0  0  0  0  0  0  0  0  0  0  0
   -2.8887    1.5972   -7.6551 H   0  0  0  0  0  0  0  0  0  0  0  0
   -5.3427    4.3477   -5.4857 H   0  0  0  0  0  0  0  0  0  0  0  0
   -3.7428    4.8389   -6.0916 H   0  0  0  0  0  0  0  0  0  0  0  0
   -5.0889    4.5940   -7.2301 H   0  0  0  0  0  0  0  0  0  0  0  0
   -5.0681    0.7670   -4.8520 H   0  0  0  0  0  0  0  0  0  0  0  0
   -4.0381   -0.0264   -2.7624 H   0  0  0  0  0  0  0  0  0  0  0  0
   -0.9814    2.9382   -3.1544 H   0  0  0  0  0  0  0  0  0  0  0  0
   -2.0142    3.7184   -5.2477 H   0  0  0  0  0  0  0  0  0  0  0  0
   -1.4269    1.5863   -1.0399 H   0  0  0  0  0  0  0  0  0  0  0  0
    0.4676   -1.7095   -1.2259 H   0  0  0  0  0  0  0  0  0  0  0  0
    0.7380   -0.0298   -0.7029 H   0  0  0  0  0  0  0  0  0  0  0  0
    0.8547   -1.3585    0.4757 H   0  0  0  0  0  0  0  0  0  0  0  0
    0.0295   -5.3108    5.5641 H   0  0  0  0  0  0  0  0  0  0  0  0
    1.0824   -4.0543    5.9322 H   0  0  0  0  0  0  0  0  0  0  0  0
  1  2  1  0  0  0  0
  1 25  1  0  0  0  0
  1 26  1  0  0  0  0
  1 27  1  0  0  0  0
  2  3  1  0  0  0  0
  2 28  1  0  0  0  0
  2 29  1  0  0  0  0
  3  4  1  0  0  0  0
  3  5  1  0  0  0  0
  3  6  1  0  0  0  0
  5 30  1  0  0  0  0
  5 31  1  0  0  0  0
  5 32  1  0  0  0  0
  6 11  2  0  0  0  0
  6  7  1  0  0  0  0
  7  8  2  0  0  0  0
  7 33  1  0  0  0  0
  8  9  1  0  0  0  0
  8 34  1  0  0  0  0
  9 10  2  0  0  0  0
  9 12  1  0  0  0  0
 10 11  1  0  0  0  0
 10 35  1  0  0  0  0
 11 36  1  0  0  0  0
 12 13  1  0  0  0  0
 12 37  1  0  0  0  0
 13 14  2  0  0  0  0
 13 15  1  0  0  0  0
 15 16  1  0  0  0  0
 15 17  1  0  0  0  0
 15 18  1  0  0  0  0
 17 38  1  0  0  0  0
 17 39  1  0  0  0  0
 17 40  1  0  0  0  0
 18 19  1  0  0  0  0
 19 23  1  0  0  0  0
 19 20  2  0  0  0  0
 20 21  1  0  0  0  0
 21 22  2  0  0  0  0
 22 23  1  0  0  0  0
 22 24  1  0  0  0  0
 24 41  1  0  0  0  0
 24 42  1  0  0  0  0
M  END
$$$$
ZINC03542986
  -OEChem-08230709453D

 46 49  0     0  0  0  0  0  0999 V2000
   -0.5940    4.6029    1.6632 C   0  0  0  0  0  0  0  0  0  0  0  0
   -1.4302    3.4445    2.1426 C   0  0  0  0  0  0  0  0  0  0  0  0
   -1.9771    3.3321    3.3647 C   0  0  0  0  0  0  0  0  0  0  0  0
   -2.6976    2.0519    3.3793 C   0  0  0  0  0  0  0  0  0  0  0  0
   -2.5151    1.5011    2.1248 C   0  0  0  0  0  0  0  0  0  0  0  0
   -1.7527    2.3427    1.4043 N   0  0  0  0  0  0  0  0  0  0  0  0
   -1.3328    2.1124    0.0198 C   0  0  0  0  0  0  0  0  0  0  0  0
   -0.0167    1.3783    0.0096 C   0  0  0  0  0  0  0  0  0  0  0  0
    0.0021   -0.0041    0.0020 C   0  0  0  0  0  0  0  0  0  0  0  0
    1.2068   -0.6819   -0.0131 C   0  0  0  0  0  0  0  0  0  0  0  0
    2.3992    0.0235   -0.0203 C   0  0  0  0  0  0  0  0  0  0  0  0
    2.3803    1.4160   -0.0126 C   0  0  0  0  0  0  0  0  0  0  0  0
    1.1692    2.0887    0.0021 C   0  0  0  0  0  0  0  0  0  0  0  0
    3.6676    1.8698   -0.0223 O   0  0  0  0  0  0  0  0  0  0  0  0
    4.4667    0.7503   -0.4482 C   0  0  0  0  0  0  0  0  0  0  0  0
    3.6983   -0.3951   -0.0349 O   0  0  0  0  0  0  0  0  0  0  0  0
   -3.0712    0.1840    1.6481 C   0  0  0  0  0  0  0  0  0  0  0  0
   -3.4580    1.4798    4.4925 C   0  0  0  0  0  0  0  0  0  0  0  0
   -4.0064    0.4050    4.3636 O   0  0  0  0  0  0  0  0  0  0  0  0
   -3.5594    2.2257    5.7979 C   0  0  0  0  0  0  0  0  0  0  0  0
   -4.5591    1.2647    6.9674 S   0  0  0  0  0  0  0  0  0  0  0  0
   -4.5829    2.2567    8.4234 C   0  0  0  0  0  0  0  0  0  0  0  0
   -5.2180    1.9503    9.5942 N   0  0  0  0  0  0  0  0  0  0  0  0
   -5.7356    1.1488    9.7693 H   0  0  0  0  0  0  0  0  0  0  0  0
   -4.9965    2.9712   10.4745 C   0  0  0  0  0  0  0  0  0  0  0  0
   -4.2563    3.8705    9.8742 N   0  0  0  0  0  0  0  0  0  0  0  0
   -3.9899    3.4158    8.5760 N   0  0  0  0  0  0  0  0  0  0  0  0
   -5.4720    3.0432   11.7775 N   0  0  0  0  0  0  0  0  0  0  0  0
   -1.2406    5.3555    1.2119 H   0  0  0  0  0  0  0  0  0  0  0  0
   -0.0614    5.0406    2.5075 H   0  0  0  0  0  0  0  0  0  0  0  0
    0.1247    4.2506    0.9234 H   0  0  0  0  0  0  0  0  0  0  0  0
   -1.9023    4.0420    4.1751 H   0  0  0  0  0  0  0  0  0  0  0  0
   -1.2190    3.0694   -0.4894 H   0  0  0  0  0  0  0  0  0  0  0  0
   -2.0860    1.5149   -0.4937 H   0  0  0  0  0  0  0  0  0  0  0  0
   -0.9265   -0.5556    0.0083 H   0  0  0  0  0  0  0  0  0  0  0  0
    1.2184   -1.7618   -0.0191 H   0  0  0  0  0  0  0  0  0  0  0  0
    1.1516    3.1685    0.0077 H   0  0  0  0  0  0  0  0  0  0  0  0
    4.5905    0.7580   -1.5311 H   0  0  0  0  0  0  0  0  0  0  0  0
    5.4365    0.7607    0.0493 H   0  0  0  0  0  0  0  0  0  0  0  0
   -2.3600   -0.6119    1.8688 H   0  0  0  0  0  0  0  0  0  0  0  0
   -4.0130   -0.0186    2.1581 H   0  0  0  0  0  0  0  0  0  0  0  0
   -3.2429    0.2300    0.5727 H   0  0  0  0  0  0  0  0  0  0  0  0
   -2.6437    2.3622    6.1758 H   0  0  0  0  0  0  0  0  0  0  0  0
   -4.0302    3.1939    5.6275 H   0  0  0  0  0  0  0  0  0  0  0  0
   -6.0154    2.3240   12.1359 H   0  0  0  0  0  0  0  0  0  0  0  0
   -5.2608    3.8126   12.3291 H   0  0  0  0  0  0  0  0  0  0  0  0
  1  2  1  0  0  0  0
  1 29  1  0  0  0  0
  1 30  1  0  0  0  0
  1 31  1  0  0  0  0
  2  6  1  0  0  0  0
  2  3  2  0  0  0  0
  3  4  1  0  0  0  0
  3 32  1  0  0  0  0
  4  5  2  0  0  0  0
  4 18  1  0  0  0  0
  5  6  1  0  0  0  0
  5 17  1  0  0  0  0
  6  7  1  0  0  0  0
  7  8  1  0  0  0  0
  7 33  1  0  0  0  0
  7 34  1  0  0  0  0
  8 13  2  0  0  0  0
  8  9  1  0  0  0  0
  9 10  2  0  0  0  0
  9 35  1  0  0  0  0
 10 11  1  0  0  0  0
 10 36  1  0  0  0  0
 11 16  1  0  0  0  0
 11 12  2  0  0  0  0
 12 13  1  0  0  0  0
 12 14  1  0  0  0  0
 13 37  1  0  0  0  0
 14 15  1  0  0  0  0
 15 16  1  0  0  0  0
 15 38  1  0  0  0  0
 15 39  1  0  0  0  0
 17 40  1  0  0  0  0
 17 41  1  0  0  0  0
 17 42  1  0  0  0  0
 18 19  2  0  0  0  0
 18 20  1  0  0  0  0
 20 21  1  0  0  0  0
 20 43  1  0  0  0  0
 20 44  1  0  0  0  0
 21 22  1  0  0  0  0
 22 27  2  0  0  0  0
 22 23  1  0  0  0  0
 23 24  1  0  0  0  0
 23 25  1  0  0  0  0
 25 26  2  0  0  0  0
 25 28  1  0  0  0  0
 26 27  1  0  0  0  0
 28 45  1  0  0  0  0
 28 46  1  0  0  0  0
M  END
$$$$
ZINC03543224
  -OEChem-08230709453D

 43 44  0     1  0  0  0  0  0999 V2000
    7.8214    1.4830   -0.1958 C   0  0  0  0  0  0  0  0  0  0  0  0
    7.1051    2.7827   -0.4579 C   0  0  0  0  0  0  0  0  0  0  0  0
    7.6982    4.0206   -0.7228 C   0  0  0  0  0  0  0  0  0  0  0  0
    6.7065    4.9268   -0.8992 C   0  0  0  0  0  0  0  0  0  0  0  0
    5.5157    4.3068   -0.7617 N   0  0  0  0  0  0  0  0  0  0  0  0
    4.6460    4.7285   -0.8444 H   0  0  0  0  0  0  0  0  0  0  0  0
    5.7392    2.9772   -0.4817 C   0  0  0  0  0  0  0  0  0  0  0  0
    4.7143    1.9550   -0.2564 C   0  0  0  0  0  0  0  0  0  0  0  0
    5.0414    0.8073   -0.0216 O   0  0  0  0  0  0  0  0  0  0  0  0
    3.4078    2.2866   -0.3094 O   0  0  0  0  0  0  0  0  0  0  0  0
    2.4477    1.2226   -0.0762 C   0  0  0  0  0  0  0  0  0  0  0  0
    1.0498    1.7769   -0.1744 C   0  0  0  0  0  0  0  0  0  0  0  0
    0.8795    2.9530   -0.4171 O   0  0  0  0  0  0  0  0  0  0  0  0
   -0.0111    0.9658    0.0074 N   0  0  0  0  0  0  0  0  0  0  0  0
   -1.3051    1.4989    0.0221 C   0  0  0  0  0  0  0  0  0  0  0  0
   -1.5282    2.7695    0.5362 C   0  0  0  0  0  0  0  0  0  0  0  0
   -2.8053    3.2951    0.5447 C   0  0  0  0  0  0  0  0  0  0  0  0
   -3.8636    2.5527    0.0517 C   0  0  0  0  0  0  0  0  0  0  0  0
   -3.6451    1.2842   -0.4559 C   0  0  0  0  0  0  0  0  0  0  0  0
   -2.3692    0.7559   -0.4721 C   0  0  0  0  0  0  0  0  0  0  0  0
   -5.6119    3.2731    0.0711 Br  0  0  0  0  0  0  0  0  0  0  0  0
    6.9016    6.3893   -1.2059 C   0  0  0  0  0  0  0  0  0  0  0  0
    9.1775    4.2980   -0.7982 C   0  0  1  0  0  0  0  0  0  0  0  0
    9.7262    3.4646   -0.3594 H   0  0  0  0  0  0  0  0  0  0  0  0
    9.5908    4.4668   -2.2616 C   0  0  0  0  0  0  0  0  0  0  0  0
    9.4748    5.4959   -0.0780 O   0  0  0  0  0  0  0  0  0  0  0  0
    7.9821    0.9601   -1.1386 H   0  0  0  0  0  0  0  0  0  0  0  0
    8.7830    1.6866    0.2752 H   0  0  0  0  0  0  0  0  0  0  0  0
    7.2171    0.8621    0.4656 H   0  0  0  0  0  0  0  0  0  0  0  0
    2.6036    0.8040    0.9181 H   0  0  0  0  0  0  0  0  0  0  0  0
    2.5822    0.4414   -0.8244 H   0  0  0  0  0  0  0  0  0  0  0  0
    0.1219    0.0121    0.1240 H   0  0  0  0  0  0  0  0  0  0  0  0
   -0.7031    3.3477    0.9252 H   0  0  0  0  0  0  0  0  0  0  0  0
   -2.9787    4.2850    0.9404 H   0  0  0  0  0  0  0  0  0  0  0  0
   -4.4730    0.7068   -0.8401 H   0  0  0  0  0  0  0  0  0  0  0  0
   -2.1990   -0.2339   -0.8690 H   0  0  0  0  0  0  0  0  0  0  0  0
    6.9363    6.5325   -2.2859 H   0  0  0  0  0  0  0  0  0  0  0  0
    6.0724    6.9615   -0.7899 H   0  0  0  0  0  0  0  0  0  0  0  0
    7.8372    6.7316   -0.7637 H   0  0  0  0  0  0  0  0  0  0  0  0
    9.3640    3.5531   -2.8109 H   0  0  0  0  0  0  0  0  0  0  0  0
    9.0421    5.3002   -2.7003 H   0  0  0  0  0  0  0  0  0  0  0  0
   10.6608    4.6674   -2.3161 H   0  0  0  0  0  0  0  0  0  0  0  0
   10.4115    5.7362   -0.0840 H   0  0  0  0  0  0  0  0  0  0  0  0
  1  2  1  0  0  0  0
  1 27  1  0  0  0  0
  1 28  1  0  0  0  0
  1 29  1  0  0  0  0
  2  7  2  0  0  0  0
  2  3  1  0  0  0  0
  3  4  2  0  0  0  0
  3 23  1  0  0  0  0
  4  5  1  0  0  0  0
  4 22  1  0  0  0  0
  5  6  1  0  0  0  0
  5  7  1  0  0  0  0
  7  8  1  0  0  0  0
  8  9  2  0  0  0  0
  8 10  1  0  0  0  0
 10 11  1  0  0  0  0
 11 12  1  0  0  0  0
 11 30  1  0  0  0  0
 11 31  1  0  0  0  0
 12 13  2  0  0  0  0
 12 14  1  0  0  0  0
 14 15  1  0  0  0  0
 14 32  1  0  0  0  0
 15 20  2  0  0  0  0
 15 16  1  0  0  0  0
 16 17  2  0  0  0  0
 16 33  1  0  0  0  0
 17 18  1  0  0  0  0
 17 34  1  0  0  0  0
 18 19  2  0  0  0  0
 18 21  1  0  0  0  0
 19 20  1  0  0  0  0
 19 35  1  0  0  0  0
 20 36  1  0  0  0  0
 22 37  1  0  0  0  0
 22 38  1  0  0  0  0
 22 39  1  0  0  0  0
 23 24  1  0  0  0  0
 23 25  1  0  0  0  0
 23 26  1  0  0  0  0
 25 40  1  0  0  0  0
 25 41  1  0  0  0  0
 25 42  1  0  0  0  0
 26 43  1  0  0  0  0
M  END
$$$$
ZINC03543225
  -OEChem-08230709453D

 43 44  0     1  0  0  0  0  0999 V2000
    2.9133    3.5891    1.8351 C   0  0  0  0  0  0  0  0  0  0  0  0
    1.8619    3.9504    0.8178 C   0  0  0  0  0  0  0  0  0  0  0  0
    1.1433    3.0617    0.0126 C   0  0  0  0  0  0  0  0  0  0  0  0
    0.2975    3.7892   -0.7562 C   0  0  0  0  0  0  0  0  0  0  0  0
    0.4596    5.0980   -0.4699 N   0  0  0  0  0  0  0  0  0  0  0  0
   -0.0253    5.8307   -0.8808 H   0  0  0  0  0  0  0  0  0  0  0  0
    1.4275    5.2215    0.5017 C   0  0  0  0  0  0  0  0  0  0  0  0
    1.9049    6.4729    1.0952 C   0  0  0  0  0  0  0  0  0  0  0  0
    2.7692    6.4494    1.9506 O   0  0  0  0  0  0  0  0  0  0  0  0
    1.3859    7.6512    0.6930 O   0  0  0  0  0  0  0  0  0  0  0  0
    1.9065    8.8506    1.3243 C   0  0  0  0  0  0  0  0  0  0  0  0
    1.2134   10.0605    0.7525 C   0  0  0  0  0  0  0  0  0  0  0  0
    0.3644    9.9252   -0.1030 O   0  0  0  0  0  0  0  0  0  0  0  0
    1.5372   11.2929    1.1917 N   0  0  0  0  0  0  0  0  0  0  0  0
    0.9648   12.4216    0.5939 C   0  0  0  0  0  0  0  0  0  0  0  0
    1.7047   13.5893    0.4617 C   0  0  0  0  0  0  0  0  0  0  0  0
    1.1391   14.6999   -0.1333 C   0  0  0  0  0  0  0  0  0  0  0  0
   -0.1669   14.6533   -0.5876 C   0  0  0  0  0  0  0  0  0  0  0  0
   -0.9082   13.4929   -0.4521 C   0  0  0  0  0  0  0  0  0  0  0  0
   -0.3458   12.3776    0.1370 C   0  0  0  0  0  0  0  0  0  0  0  0
   -0.9400   16.1781   -1.3958 Br  0  0  0  0  0  0  0  0  0  0  0  0
   -0.6682    3.2276   -1.7677 C   0  0  0  0  0  0  0  0  0  0  0  0
    1.2805    1.5610    0.0057 C   0  0  2  0  0  0  0  0  0  0  0  0
    1.8273    1.2420    0.8930 H   0  0  0  0  0  0  0  0  0  0  0  0
    2.0423    1.1243   -1.2473 C   0  0  0  0  0  0  0  0  0  0  0  0
   -0.0178    0.9640    0.0060 O   0  0  0  0  0  0  0  0  0  0  0  0
    3.8921    3.5722    1.3557 H   0  0  0  0  0  0  0  0  0  0  0  0
    2.9136    4.3288    2.6357 H   0  0  0  0  0  0  0  0  0  0  0  0
    2.6948    2.6050    2.2497 H   0  0  0  0  0  0  0  0  0  0  0  0
    1.7270    8.8030    2.3984 H   0  0  0  0  0  0  0  0  0  0  0  0
    2.9779    8.9236    1.1378 H   0  0  0  0  0  0  0  0  0  0  0  0
    2.1668   11.3976    1.9221 H   0  0  0  0  0  0  0  0  0  0  0  0
    2.7229   13.6275    0.8199 H   0  0  0  0  0  0  0  0  0  0  0  0
    1.7157   15.6069   -0.2407 H   0  0  0  0  0  0  0  0  0  0  0  0
   -1.9275   13.4593   -0.8075 H   0  0  0  0  0  0  0  0  0  0  0  0
   -0.9246   11.4719    0.2419 H   0  0  0  0  0  0  0  0  0  0  0  0
   -1.6229    3.0223   -1.2835 H   0  0  0  0  0  0  0  0  0  0  0  0
   -0.8157    3.9507   -2.5698 H   0  0  0  0  0  0  0  0  0  0  0  0
   -0.2645    2.3034   -2.1814 H   0  0  0  0  0  0  0  0  0  0  0  0
    2.1415    0.0388   -1.2523 H   0  0  0  0  0  0  0  0  0  0  0  0
    1.4955    1.4433   -2.1346 H   0  0  0  0  0  0  0  0  0  0  0  0
    3.0326    1.5797   -1.2475 H   0  0  0  0  0  0  0  0  0  0  0  0
   -0.0061   -0.0029    0.0017 H   0  0  0  0  0  0  0  0  0  0  0  0
  1  2  1  0  0  0  0
  1 27  1  0  0  0  0
  1 28  1  0  0  0  0
  1 29  1  0  0  0  0
  2  7  2  0  0  0  0
  2  3  1  0  0  0  0
  3  4  2  0  0  0  0
  3 23  1  0  0  0  0
  4  5  1  0  0  0  0
  4 22  1  0  0  0  0
  5  6  1  0  0  0  0
  5  7  1  0  0  0  0
  7  8  1  0  0  0  0
  8  9  2  0  0  0  0
  8 10  1  0  0  0  0
 10 11  1  0  0  0  0
 11 12  1  0  0  0  0
 11 30  1  0  0  0  0
 11 31  1  0  0  0  0
 12 13  2  0  0  0  0
 12 14  1  0  0  0  0
 14 15  1  0  0  0  0
 14 32  1  0  0  0  0
 15 20  2  0  0  0  0
 15 16  1  0  0  0  0
 16 17  2  0  0  0  0
 16 33  1  0  0  0  0
 17 18  1  0  0  0  0
 17 34  1  0  0  0  0
 18 19  2  0  0  0  0
 18 21  1  0  0  0  0
 19 20  1  0  0  0  0
 19 35  1  0  0  0  0
 20 36  1  0  0  0  0
 22 37  1  0  0  0  0
 22 38  1  0  0  0  0
 22 39  1  0  0  0  0
 23 24  1  0  0  0  0
 23 25  1  0  0  0  0
 23 26  1  0  0  0  0
 25 40  1  0  0  0  0
 25 41  1  0  0  0  0
 25 42  1  0  0  0  0
 26 43  1  0  0  0  0
M  END
$$$$
ZINC03543253
  -OEChem-08230709453D

 46 47  0     1  0  0  0  0  0999 V2000
    3.4412    2.1922    1.0182 C   0  0  0  0  0  0  0  0  0  0  0  0
    2.2727    1.4157    0.4678 C   0  0  0  0  0  0  0  0  0  0  0  0
    1.1844    2.0876   -0.0732 C   0  0  0  0  0  0  0  0  0  0  0  0
    0.1098    1.3687   -0.5797 C   0  0  0  0  0  0  0  0  0  0  0  0
    0.1258   -0.0122   -0.5444 C   0  0  0  0  0  0  0  0  0  0  0  0
    1.2101   -0.6792   -0.0055 C   0  0  0  0  0  0  0  0  0  0  0  0
    2.2831    0.0341    0.5004 C   0  0  0  0  0  0  0  0  0  0  0  0
    3.6430   -0.8074    1.1758 Cl  0  0  0  0  0  0  0  0  0  0  0  0
    1.1707    3.4864   -0.1077 N   0  0  0  0  0  0  0  0  0  0  0  0
   -0.0028    4.1479   -0.1521 C   0  0  0  0  0  0  0  0  0  0  0  0
   -1.0469    3.5373   -0.0626 O   0  0  0  0  0  0  0  0  0  0  0  0
   -0.0175    5.6462   -0.3128 C   0  0  0  0  0  0  0  0  0  0  0  0
   -1.3908    6.1174   -0.3322 O   0  0  0  0  0  0  0  0  0  0  0  0
   -1.5805    7.4457   -0.4707 C   0  0  0  0  0  0  0  0  0  0  0  0
   -0.6235    8.1894   -0.5725 O   0  0  0  0  0  0  0  0  0  0  0  0
   -2.9393    7.9926   -0.4985 C   0  0  0  0  0  0  0  0  0  0  0  0
   -3.2812    9.3226   -0.6337 C   0  0  0  0  0  0  0  0  0  0  0  0
   -4.6774    9.3895   -0.6090 C   0  0  0  0  0  0  0  0  0  0  0  0
   -5.1509    8.1285   -0.4626 C   0  0  0  0  0  0  0  0  0  0  0  0
   -4.1091    7.2728   -0.4004 N   0  0  0  0  0  0  0  0  0  0  0  0
   -4.1736    6.3101   -0.3009 H   0  0  0  0  0  0  0  0  0  0  0  0
   -6.6058    7.7430   -0.3879 C   0  0  0  0  0  0  0  0  0  0  0  0
   -5.5081   10.6415   -0.7242 C   0  0  1  0  0  0  0  0  0  0  0  0
   -6.5460   10.3722   -0.9198 H   0  0  0  0  0  0  0  0  0  0  0  0
   -5.4239   11.4316    0.5833 C   0  0  0  0  0  0  0  0  0  0  0  0
   -5.0137   11.4440   -1.7983 O   0  0  0  0  0  0  0  0  0  0  0  0
   -2.3304   10.4826   -0.7797 C   0  0  0  0  0  0  0  0  0  0  0  0
    4.1707    2.3609    0.2261 H   0  0  0  0  0  0  0  0  0  0  0  0
    3.0922    3.1512    1.4010 H   0  0  0  0  0  0  0  0  0  0  0  0
    3.9058    1.6260    1.8254 H   0  0  0  0  0  0  0  0  0  0  0  0
   -0.7358    1.8886   -1.0050 H   0  0  0  0  0  0  0  0  0  0  0  0
   -0.7101   -0.5714   -0.9381 H   0  0  0  0  0  0  0  0  0  0  0  0
    1.2199   -1.7588    0.0212 H   0  0  0  0  0  0  0  0  0  0  0  0
    2.0057    3.9799   -0.0998 H   0  0  0  0  0  0  0  0  0  0  0  0
    0.5128    6.1063    0.5209 H   0  0  0  0  0  0  0  0  0  0  0  0
    0.4724    5.9160   -1.2484 H   0  0  0  0  0  0  0  0  0  0  0  0
   -7.0033    7.6273   -1.3962 H   0  0  0  0  0  0  0  0  0  0  0  0
   -6.7049    6.8013    0.1520 H   0  0  0  0  0  0  0  0  0  0  0  0
   -7.1616    8.5216    0.1346 H   0  0  0  0  0  0  0  0  0  0  0  0
   -4.3859   11.7009    0.7789 H   0  0  0  0  0  0  0  0  0  0  0  0
   -6.0247   12.3372    0.5000 H   0  0  0  0  0  0  0  0  0  0  0  0
   -5.8010   10.8195    1.4026 H   0  0  0  0  0  0  0  0  0  0  0  0
   -4.0735   11.6589   -1.7283 H   0  0  0  0  0  0  0  0  0  0  0  0
   -2.1244   10.6528   -1.8364 H   0  0  0  0  0  0  0  0  0  0  0  0
   -2.7796   11.3772   -0.3484 H   0  0  0  0  0  0  0  0  0  0  0  0
   -1.3993   10.2569   -0.2598 H   0  0  0  0  0  0  0  0  0  0  0  0
  1  2  1  0  0  0  0
  1 28  1  0  0  0  0
  1 29  1  0  0  0  0
  1 30  1  0  0  0  0
  2  7  2  0  0  0  0
  2  3  1  0  0  0  0
  3  4  2  0  0  0  0
  3  9  1  0  0  0  0
  4  5  1  0  0  0  0
  4 31  1  0  0  0  0
  5  6  2  0  0  0  0
  5 32  1  0  0  0  0
  6  7  1  0  0  0  0
  6 33  1  0  0  0  0
  7  8  1  0  0  0  0
  9 10  1  0  0  0  0
  9 34  1  0  0  0  0
 10 11  2  0  0  0  0
 10 12  1  0  0  0  0
 12 13  1  0  0  0  0
 12 35  1  0  0  0  0
 12 36  1  0  0  0  0
 13 14  1  0  0  0  0
 14 15  2  0  0  0  0
 14 16  1  0  0  0  0
 16 20  1  0  0  0  0
 16 17  2  0  0  0  0
 17 18  1  0  0  0  0
 17 27  1  0  0  0  0
 18 19  2  0  0  0  0
 18 23  1  0  0  0  0
 19 20  1  0  0  0  0
 19 22  1  0  0  0  0
 20 21  1  0  0  0  0
 22 37  1  0  0  0  0
 22 38  1  0  0  0  0
 22 39  1  0  0  0  0
 23 24  1  0  0  0  0
 23 25  1  0  0  0  0
 23 26  1  0  0  0  0
 25 40  1  0  0  0  0
 25 41  1  0  0  0  0
 25 42  1  0  0  0  0
 26 43  1  0  0  0  0
 27 44  1  0  0  0  0
 27 45  1  0  0  0  0
 27 46  1  0  0  0  0
M  END
$$$$
ZINC03543254
  -OEChem-08230709453D

 46 47  0     1  0  0  0  0  0999 V2000
    1.5610    0.9770    2.5804 C   0  0  0  0  0  0  0  0  0  0  0  0
    0.3838    0.4110    1.8288 C   0  0  0  0  0  0  0  0  0  0  0  0
   -0.4579    1.2557    1.1171 C   0  0  0  0  0  0  0  0  0  0  0  0
   -1.5414    0.7304    0.4254 C   0  0  0  0  0  0  0  0  0  0  0  0
   -1.7794   -0.6302    0.4469 C   0  0  0  0  0  0  0  0  0  0  0  0
   -0.9404   -1.4694    1.1560 C   0  0  0  0  0  0  0  0  0  0  0  0
    0.1407   -0.9494    1.8466 C   0  0  0  0  0  0  0  0  0  0  0  0
    1.1922   -2.0068    2.7354 Cl  0  0  0  0  0  0  0  0  0  0  0  0
   -0.2147    2.6335    1.0969 N   0  0  0  0  0  0  0  0  0  0  0  0
   -1.2150    3.4903    0.8108 C   0  0  0  0  0  0  0  0  0  0  0  0
   -2.3471    3.0769    0.6741 O   0  0  0  0  0  0  0  0  0  0  0  0
   -0.9269    4.9619    0.6608 C   0  0  0  0  0  0  0  0  0  0  0  0
   -2.1587    5.6676    0.3558 O   0  0  0  0  0  0  0  0  0  0  0  0
   -2.0740    7.0035    0.1896 C   0  0  0  0  0  0  0  0  0  0  0  0
   -0.9994    7.5628    0.2968 O   0  0  0  0  0  0  0  0  0  0  0  0
   -3.2765    7.7807   -0.1201 C   0  0  0  0  0  0  0  0  0  0  0  0
   -3.3395    9.1461   -0.3098 C   0  0  0  0  0  0  0  0  0  0  0  0
   -4.6742    9.4588   -0.5838 C   0  0  0  0  0  0  0  0  0  0  0  0
   -5.3861    8.3066   -0.5490 C   0  0  0  0  0  0  0  0  0  0  0  0
   -4.5518    7.2833   -0.2694 N   0  0  0  0  0  0  0  0  0  0  0  0
   -4.8083    6.3515   -0.1866 H   0  0  0  0  0  0  0  0  0  0  0  0
   -6.8697    8.1869   -0.7850 C   0  0  0  0  0  0  0  0  0  0  0  0
   -5.2245   10.8339   -0.8620 C   0  0  2  0  0  0  0  0  0  0  0  0
   -6.3123   10.8101   -0.7963 H   0  0  0  0  0  0  0  0  0  0  0  0
   -4.8079   11.2754   -2.2664 C   0  0  0  0  0  0  0  0  0  0  0  0
   -4.7093   11.7567    0.0998 O   0  0  0  0  0  0  0  0  0  0  0  0
   -2.1878   10.1155   -0.2383 C   0  0  0  0  0  0  0  0  0  0  0  0
    2.4333    0.9973    1.9271 H   0  0  0  0  0  0  0  0  0  0  0  0
    1.3293    1.9902    2.9088 H   0  0  0  0  0  0  0  0  0  0  0  0
    1.7718    0.3528    3.4487 H   0  0  0  0  0  0  0  0  0  0  0  0
   -2.1949    1.3846   -0.1325 H   0  0  0  0  0  0  0  0  0  0  0  0
   -2.6223   -1.0388   -0.0908 H   0  0  0  0  0  0  0  0  0  0  0  0
   -1.1289   -2.5327    1.1714 H   0  0  0  0  0  0  0  0  0  0  0  0
    0.6738    2.9720    1.2888 H   0  0  0  0  0  0  0  0  0  0  0  0
   -0.5084    5.3468    1.5908 H   0  0  0  0  0  0  0  0  0  0  0  0
   -0.2125    5.1116   -0.1486 H   0  0  0  0  0  0  0  0  0  0  0  0
   -7.4027    8.3849    0.1449 H   0  0  0  0  0  0  0  0  0  0  0  0
   -7.1769    8.9097   -1.5408 H   0  0  0  0  0  0  0  0  0  0  0  0
   -7.1026    7.1795   -1.1299 H   0  0  0  0  0  0  0  0  0  0  0  0
   -5.2009   10.5716   -3.0001 H   0  0  0  0  0  0  0  0  0  0  0  0
   -5.2059   12.2700   -2.4676 H   0  0  0  0  0  0  0  0  0  0  0  0
   -3.7201   11.2992   -2.3321 H   0  0  0  0  0  0  0  0  0  0  0  0
   -3.7719   11.9637   -0.0165 H   0  0  0  0  0  0  0  0  0  0  0  0
   -1.8070   10.3019   -1.2425 H   0  0  0  0  0  0  0  0  0  0  0  0
   -2.5288   11.0530    0.2008 H   0  0  0  0  0  0  0  0  0  0  0  0
   -1.3947    9.6926    0.3783 H   0  0  0  0  0  0  0  0  0  0  0  0
  1  2  1  0  0  0  0
  1 28  1  0  0  0  0
  1 29  1  0  0  0  0
  1 30  1  0  0  0  0
  2  7  2  0  0  0  0
  2  3  1  0  0  0  0
  3  4  2  0  0  0  0
  3  9  1  0  0  0  0
  4  5  1  0  0  0  0
  4 31  1  0  0  0  0
  5  6  2  0  0  0  0
  5 32  1  0  0  0  0
  6  7  1  0  0  0  0
  6 33  1  0  0  0  0
  7  8  1  0  0  0  0
  9 10  1  0  0  0  0
  9 34  1  0  0  0  0
 10 11  2  0  0  0  0
 10 12  1  0  0  0  0
 12 13  1  0  0  0  0
 12 35  1  0  0  0  0
 12 36  1  0  0  0  0
 13 14  1  0  0  0  0
 14 15  2  0  0  0  0
 14 16  1  0  0  0  0
 16 20  1  0  0  0  0
 16 17  2  0  0  0  0
 17 18  1  0  0  0  0
 17 27  1  0  0  0  0
 18 19  2  0  0  0  0
 18 23  1  0  0  0  0
 19 20  1  0  0  0  0
 19 22  1  0  0  0  0
 20 21  1  0  0  0  0
 22 37  1  0  0  0  0
 22 38  1  0  0  0  0
 22 39  1  0  0  0  0
 23 24  1  0  0  0  0
 23 25  1  0  0  0  0
 23 26  1  0  0  0  0
 25 40  1  0  0  0  0
 25 41  1  0  0  0  0
 25 42  1  0  0  0  0
 26 43  1  0  0  0  0
 27 44  1  0  0  0  0
 27 45  1  0  0  0  0
 27 46  1  0  0  0  0
M  END
$$$$
ZINC03543270
  -OEChem-08230709453D

 46 47  0     1  0  0  0  0  0999 V2000
    0.1770   16.0081    1.4884 C   0  0  0  0  0  0  0  0  0  0  0  0
    0.2929   14.7199    0.7150 C   0  0  0  0  0  0  0  0  0  0  0  0
   -0.1666   14.6526   -0.5877 C   0  0  0  0  0  0  0  0  0  0  0  0
   -0.0613   13.4729   -1.3010 C   0  0  0  0  0  0  0  0  0  0  0  0
    0.5079   12.3586   -0.7156 C   0  0  0  0  0  0  0  0  0  0  0  0
    0.9650   12.4213    0.5940 C   0  0  0  0  0  0  0  0  0  0  0  0
    0.8581   13.6081    1.3077 C   0  0  0  0  0  0  0  0  0  0  0  0
    1.5372   11.2929    1.1917 N   0  0  0  0  0  0  0  0  0  0  0  0
    1.0931   10.0617    0.8700 C   0  0  0  0  0  0  0  0  0  0  0  0
    0.1355    9.9349    0.1365 O   0  0  0  0  0  0  0  0  0  0  0  0
    1.7864    8.8427    1.4217 C   0  0  0  0  0  0  0  0  0  0  0  0
    1.1246    7.6465    0.9322 O   0  0  0  0  0  0  0  0  0  0  0  0
    1.6256    6.4608    1.3357 C   0  0  0  0  0  0  0  0  0  0  0  0
    2.5896    6.4285    2.0766 O   0  0  0  0  0  0  0  0  0  0  0  0
    1.0087    5.2122    0.8815 C   0  0  0  0  0  0  0  0  0  0  0  0
    1.4097    3.9348    1.2157 C   0  0  0  0  0  0  0  0  0  0  0  0
    0.5467    3.0517    0.5603 C   0  0  0  0  0  0  0  0  0  0  0  0
   -0.3494    3.7891   -0.1389 C   0  0  0  0  0  0  0  0  0  0  0  0
   -0.0808    5.0985    0.0471 N   0  0  0  0  0  0  0  0  0  0  0  0
   -0.5735    5.8375   -0.3429 H   0  0  0  0  0  0  0  0  0  0  0  0
   -1.4657    3.2364   -0.9871 C   0  0  0  0  0  0  0  0  0  0  0  0
    0.5996    1.5470    0.6252 C   0  0  2  0  0  0  0  0  0  0  0  0
    1.2371    1.2413    1.4548 H   0  0  0  0  0  0  0  0  0  0  0  0
    1.1701    0.9998   -0.6848 C   0  0  0  0  0  0  0  0  0  0  0  0
   -0.7187    1.0320    0.8226 O   0  0  0  0  0  0  0  0  0  0  0  0
    2.5613    3.5626    2.1137 C   0  0  0  0  0  0  0  0  0  0  0  0
    1.0745   16.6070    1.3332 H   0  0  0  0  0  0  0  0  0  0  0  0
   -0.6946   16.5631    1.1415 H   0  0  0  0  0  0  0  0  0  0  0  0
    0.0675   15.7860    2.5499 H   0  0  0  0  0  0  0  0  0  0  0  0
   -0.6082   15.5236   -1.0490 H   0  0  0  0  0  0  0  0  0  0  0  0
   -0.4207   13.4236   -2.3182 H   0  0  0  0  0  0  0  0  0  0  0  0
    0.5939   11.4386   -1.2747 H   0  0  0  0  0  0  0  0  0  0  0  0
    1.2164   13.6612    2.3251 H   0  0  0  0  0  0  0  0  0  0  0  0
    2.2534   11.3967    1.8375 H   0  0  0  0  0  0  0  0  0  0  0  0
    1.7434    8.8619    2.5107 H   0  0  0  0  0  0  0  0  0  0  0  0
    2.8276    8.8397    1.0991 H   0  0  0  0  0  0  0  0  0  0  0  0
   -2.3605    3.1158   -0.3764 H   0  0  0  0  0  0  0  0  0  0  0  0
   -1.6748    3.9248   -1.8060 H   0  0  0  0  0  0  0  0  0  0  0  0
   -1.1693    2.2690   -1.3924 H   0  0  0  0  0  0  0  0  0  0  0  0
    2.1756    1.3926   -0.8354 H   0  0  0  0  0  0  0  0  0  0  0  0
    1.2084   -0.0885   -0.6379 H   0  0  0  0  0  0  0  0  0  0  0  0
    0.5326    1.3055   -1.5144 H   0  0  0  0  0  0  0  0  0  0  0  0
   -0.7604    0.0673    0.8741 H   0  0  0  0  0  0  0  0  0  0  0  0
    3.4683    3.4605    1.5180 H   0  0  0  0  0  0  0  0  0  0  0  0
    2.7043    4.3413    2.8628 H   0  0  0  0  0  0  0  0  0  0  0  0
    2.3441    2.6167    2.6098 H   0  0  0  0  0  0  0  0  0  0  0  0
  1  2  1  0  0  0  0
  1 27  1  0  0  0  0
  1 28  1  0  0  0  0
  1 29  1  0  0  0  0
  2  7  2  0  0  0  0
  2  3  1  0  0  0  0
  3  4  2  0  0  0  0
  3 30  1  0  0  0  0
  4  5  1  0  0  0  0
  4 31  1  0  0  0  0
  5  6  2  0  0  0  0
  5 32  1  0  0  0  0
  6  7  1  0  0  0  0
  6  8  1  0  0  0  0
  7 33  1  0  0  0  0
  8  9  1  0  0  0  0
  8 34  1  0  0  0  0
  9 10  2  0  0  0  0
  9 11  1  0  0  0  0
 11 12  1  0  0  0  0
 11 35  1  0  0  0  0
 11 36  1  0  0  0  0
 12 13  1  0  0  0  0
 13 14  2  0  0  0  0
 13 15  1  0  0  0  0
 15 19  1  0  0  0  0
 15 16  2  0  0  0  0
 16 17  1  0  0  0  0
 16 26  1  0  0  0  0
 17 18  2  0  0  0  0
 17 22  1  0  0  0  0
 18 19  1  0  0  0  0
 18 21  1  0  0  0  0
 19 20  1  0  0  0  0
 21 37  1  0  0  0  0
 21 38  1  0  0  0  0
 21 39  1  0  0  0  0
 22 23  1  0  0  0  0
 22 24  1  0  0  0  0
 22 25  1  0  0  0  0
 24 40  1  0  0  0  0
 24 41  1  0  0  0  0
 24 42  1  0  0  0  0
 25 43  1  0  0  0  0
 26 44  1  0  0  0  0
 26 45  1  0  0  0  0
 26 46  1  0  0  0  0
M  END
$$$$
ZINC03543281
  -OEChem-08230709453D

 43 44  0     1  0  0  0  0  0999 V2000
    2.6093   -0.5772    0.6952 C   0  0  0  0  0  0  0  0  0  0  0  0
    2.5492    0.8819    0.3231 C   0  0  0  0  0  0  0  0  0  0  0  0
    1.3965    1.6233    0.0475 C   0  0  0  0  0  0  0  0  0  0  0  0
    1.7780    2.8894   -0.2476 C   0  0  0  0  0  0  0  0  0  0  0  0
    3.1220    2.9748   -0.1598 N   0  0  0  0  0  0  0  0  0  0  0  0
    3.6493    3.7731   -0.3196 H   0  0  0  0  0  0  0  0  0  0  0  0
    3.6215    1.7401    0.1897 C   0  0  0  0  0  0  0  0  0  0  0  0
    5.0330    1.4000    0.3850 C   0  0  0  0  0  0  0  0  0  0  0  0
    5.3483    0.2671    0.6953 O   0  0  0  0  0  0  0  0  0  0  0  0
    5.9830    2.3434    0.2206 O   0  0  0  0  0  0  0  0  0  0  0  0
    7.3606    1.9353    0.4304 C   0  0  0  0  0  0  0  0  0  0  0  0
    8.2734    3.1128    0.2041 C   0  0  0  0  0  0  0  0  0  0  0  0
    7.8087    4.1900   -0.1038 O   0  0  0  0  0  0  0  0  0  0  0  0
    9.6062    2.9689    0.3437 N   0  0  0  0  0  0  0  0  0  0  0  0
   10.4607    4.0360    0.0428 C   0  0  0  0  0  0  0  0  0  0  0  0
   10.0612    5.3409    0.2990 C   0  0  0  0  0  0  0  0  0  0  0  0
   10.9089    6.3914    0.0063 C   0  0  0  0  0  0  0  0  0  0  0  0
   12.1501    6.1460   -0.5520 C   0  0  0  0  0  0  0  0  0  0  0  0
   12.5494    4.8485   -0.8139 C   0  0  0  0  0  0  0  0  0  0  0  0
   11.7084    3.7922   -0.5182 C   0  0  0  0  0  0  0  0  0  0  0  0
   12.2099    2.1632   -0.8477 Cl  0  0  0  0  0  0  0  0  0  0  0  0
    0.8510    4.0206   -0.6113 C   0  0  0  0  0  0  0  0  0  0  0  0
   -0.0183    1.1048    0.0684 C   0  0  1  0  0  0  0  0  0  0  0  0
   -0.0059    0.0149    0.0684 H   0  0  0  0  0  0  0  0  0  0  0  0
   -0.7269    1.6068    1.3281 C   0  0  0  0  0  0  0  0  0  0  0  0
   -0.7145    1.5732   -1.0883 O   0  0  0  0  0  0  0  0  0  0  0  0
    2.7004   -1.1793   -0.2089 H   0  0  0  0  0  0  0  0  0  0  0  0
    3.4722   -0.7532    1.3374 H   0  0  0  0  0  0  0  0  0  0  0  0
    1.6986   -0.8546    1.2261 H   0  0  0  0  0  0  0  0  0  0  0  0
    7.4808    1.5734    1.4515 H   0  0  0  0  0  0  0  0  0  0  0  0
    7.6143    1.1391   -0.2695 H   0  0  0  0  0  0  0  0  0  0  0  0
    9.9733    2.1259    0.6528 H   0  0  0  0  0  0  0  0  0  0  0  0
    9.0902    5.5340    0.7305 H   0  0  0  0  0  0  0  0  0  0  0  0
   10.6001    7.4062    0.2095 H   0  0  0  0  0  0  0  0  0  0  0  0
   12.8088    6.9697   -0.7843 H   0  0  0  0  0  0  0  0  0  0  0  0
   13.5192    4.6602   -1.2503 H   0  0  0  0  0  0  0  0  0  0  0  0
    0.5492    4.5482    0.2935 H   0  0  0  0  0  0  0  0  0  0  0  0
    1.3651    4.7109   -1.2800 H   0  0  0  0  0  0  0  0  0  0  0  0
   -0.0317    3.6208   -1.1104 H   0  0  0  0  0  0  0  0  0  0  0  0
   -1.7502    1.2318    1.3433 H   0  0  0  0  0  0  0  0  0  0  0  0
   -0.1959    1.2495    2.2104 H   0  0  0  0  0  0  0  0  0  0  0  0
   -0.7393    2.6967    1.3281 H   0  0  0  0  0  0  0  0  0  0  0  0
   -1.6336    1.2774   -1.1409 H   0  0  0  0  0  0  0  0  0  0  0  0
  1  2  1  0  0  0  0
  1 27  1  0  0  0  0
  1 28  1  0  0  0  0
  1 29  1  0  0  0  0
  2  7  2  0  0  0  0
  2  3  1  0  0  0  0
  3  4  2  0  0  0  0
  3 23  1  0  0  0  0
  4  5  1  0  0  0  0
  4 22  1  0  0  0  0
  5  6  1  0  0  0  0
  5  7  1  0  0  0  0
  7  8  1  0  0  0  0
  8  9  2  0  0  0  0
  8 10  1  0  0  0  0
 10 11  1  0  0  0  0
 11 12  1  0  0  0  0
 11 30  1  0  0  0  0
 11 31  1  0  0  0  0
 12 13  2  0  0  0  0
 12 14  1  0  0  0  0
 14 15  1  0  0  0  0
 14 32  1  0  0  0  0
 15 20  2  0  0  0  0
 15 16  1  0  0  0  0
 16 17  2  0  0  0  0
 16 33  1  0  0  0  0
 17 18  1  0  0  0  0
 17 34  1  0  0  0  0
 18 19  2  0  0  0  0
 18 35  1  0  0  0  0
 19 20  1  0  0  0  0
 19 36  1  0  0  0  0
 20 21  1  0  0  0  0
 22 37  1  0  0  0  0
 22 38  1  0  0  0  0
 22 39  1  0  0  0  0
 23 24  1  0  0  0  0
 23 25  1  0  0  0  0
 23 26  1  0  0  0  0
 25 40  1  0  0  0  0
 25 41  1  0  0  0  0
 25 42  1  0  0  0  0
 26 43  1  0  0  0  0
M  END
$$$$
ZINC03543282
  -OEChem-08230709453D

 43 44  0     1  0  0  0  0  0999 V2000
    2.9176    3.4594   -1.9646 C   0  0  0  0  0  0  0  0  0  0  0  0
    2.7235    1.9726   -2.1162 C   0  0  0  0  0  0  0  0  0  0  0  0
    1.9847    1.1396   -1.2709 C   0  0  0  0  0  0  0  0  0  0  0  0
    2.0591   -0.1210   -1.7616 C   0  0  0  0  0  0  0  0  0  0  0  0
    2.8183   -0.1138   -2.8773 N   0  0  0  0  0  0  0  0  0  0  0  0
    3.0292   -0.8880   -3.4224 H   0  0  0  0  0  0  0  0  0  0  0  0
    3.2438    1.1742   -3.1142 C   0  0  0  0  0  0  0  0  0  0  0  0
    4.0894    1.6168   -4.2255 C   0  0  0  0  0  0  0  0  0  0  0  0
    4.3977    2.7890   -4.3258 O   0  0  0  0  0  0  0  0  0  0  0  0
    4.5262    0.7241   -5.1377 O   0  0  0  0  0  0  0  0  0  0  0  0
    5.3602    1.2335   -6.2117 C   0  0  0  0  0  0  0  0  0  0  0  0
    5.7493    0.1006   -7.1261 C   0  0  0  0  0  0  0  0  0  0  0  0
    5.3619   -1.0253   -6.8953 O   0  0  0  0  0  0  0  0  0  0  0  0
    6.5278    0.3385   -8.2002 N   0  0  0  0  0  0  0  0  0  0  0  0
    6.9665   -0.7260   -8.9962 C   0  0  0  0  0  0  0  0  0  0  0  0
    6.1466   -1.8284   -9.1975 C   0  0  0  0  0  0  0  0  0  0  0  0
    6.5800   -2.8747   -9.9881 C   0  0  0  0  0  0  0  0  0  0  0  0
    7.8338   -2.8309  -10.5701 C   0  0  0  0  0  0  0  0  0  0  0  0
    8.6556   -1.7376  -10.3675 C   0  0  0  0  0  0  0  0  0  0  0  0
    8.2258   -0.6845   -9.5821 C   0  0  0  0  0  0  0  0  0  0  0  0
    9.2582    0.6878   -9.3276 Cl  0  0  0  0  0  0  0  0  0  0  0  0
    1.4004   -1.3351   -1.1589 C   0  0  0  0  0  0  0  0  0  0  0  0
    1.2337    1.5687   -0.0368 C   0  0  2  0  0  0  0  0  0  0  0  0
    1.1285    2.6536   -0.0344 H   0  0  0  0  0  0  0  0  0  0  0  0
    2.0055    1.1285    1.2088 C   0  0  0  0  0  0  0  0  0  0  0  0
   -0.0612    0.9645   -0.0330 O   0  0  0  0  0  0  0  0  0  0  0  0
    3.8039    3.6502   -1.3595 H   0  0  0  0  0  0  0  0  0  0  0  0
    3.0449    3.9114   -2.9482 H   0  0  0  0  0  0  0  0  0  0  0  0
    2.0443    3.8918   -1.4763 H   0  0  0  0  0  0  0  0  0  0  0  0
    4.8067    1.9832   -6.7772 H   0  0  0  0  0  0  0  0  0  0  0  0
    6.2583    1.6858   -5.7910 H   0  0  0  0  0  0  0  0  0  0  0  0
    6.7840    1.2475   -8.4217 H   0  0  0  0  0  0  0  0  0  0  0  0
    5.1692   -1.8658   -8.7396 H   0  0  0  0  0  0  0  0  0  0  0  0
    5.9407   -3.7302  -10.1484 H   0  0  0  0  0  0  0  0  0  0  0  0
    8.1719   -3.6527  -11.1838 H   0  0  0  0  0  0  0  0  0  0  0  0
    9.6343   -1.7066  -10.8231 H   0  0  0  0  0  0  0  0  0  0  0  0
    0.4035   -1.4557   -1.5828 H   0  0  0  0  0  0  0  0  0  0  0  0
    1.9982   -2.2196   -1.3789 H   0  0  0  0  0  0  0  0  0  0  0  0
    1.3232   -1.2082   -0.0791 H   0  0  0  0  0  0  0  0  0  0  0  0
    2.1108    0.0435    1.2064 H   0  0  0  0  0  0  0  0  0  0  0  0
    2.9933    1.5893    1.2059 H   0  0  0  0  0  0  0  0  0  0  0  0
    1.4623    1.4388    2.1014 H   0  0  0  0  0  0  0  0  0  0  0  0
   -0.0442   -0.0023   -0.0349 H   0  0  0  0  0  0  0  0  0  0  0  0
  1  2  1  0  0  0  0
  1 27  1  0  0  0  0
  1 28  1  0  0  0  0
  1 29  1  0  0  0  0
  2  7  2  0  0  0  0
  2  3  1  0  0  0  0
  3  4  2  0  0  0  0
  3 23  1  0  0  0  0
  4  5  1  0  0  0  0
  4 22  1  0  0  0  0
  5  6  1  0  0  0  0
  5  7  1  0  0  0  0
  7  8  1  0  0  0  0
  8  9  2  0  0  0  0
  8 10  1  0  0  0  0
 10 11  1  0  0  0  0
 11 12  1  0  0  0  0
 11 30  1  0  0  0  0
 11 31  1  0  0  0  0
 12 13  2  0  0  0  0
 12 14  1  0  0  0  0
 14 15  1  0  0  0  0
 14 32  1  0  0  0  0
 15 20  2  0  0  0  0
 15 16  1  0  0  0  0
 16 17  2  0  0  0  0
 16 33  1  0  0  0  0
 17 18  1  0  0  0  0
 17 34  1  0  0  0  0
 18 19  2  0  0  0  0
 18 35  1  0  0  0  0
 19 20  1  0  0  0  0
 19 36  1  0  0  0  0
 20 21  1  0  0  0  0
 22 37  1  0  0  0  0
 22 38  1  0  0  0  0
 22 39  1  0  0  0  0
 23 24  1  0  0  0  0
 23 25  1  0  0  0  0
 23 26  1  0  0  0  0
 25 40  1  0  0  0  0
 25 41  1  0  0  0  0
 25 42  1  0  0  0  0
 26 43  1  0  0  0  0
M  END
$$$$
ZINC03543287
  -OEChem-08230709453D

 43 44  0     1  0  0  0  0  0999 V2000
   -1.0970   -0.7483    0.3377 C   0  0  0  0  0  0  0  0  0  0  0  0
    0.1065    0.1446    0.1790 C   0  0  0  0  0  0  0  0  0  0  0  0
    1.4333   -0.2674    0.0234 C   0  0  0  0  0  0  0  0  0  0  0  0
    2.2026    0.8425   -0.0856 C   0  0  0  0  0  0  0  0  0  0  0  0
    1.4128    1.9338   -0.0047 N   0  0  0  0  0  0  0  0  0  0  0  0
    1.7141    2.8545   -0.0544 H   0  0  0  0  0  0  0  0  0  0  0  0
    0.1084    1.5244    0.1596 C   0  0  0  0  0  0  0  0  0  0  0  0
   -1.0636    2.3944    0.2846 C   0  0  0  0  0  0  0  0  0  0  0  0
   -2.1701    1.9082    0.4207 O   0  0  0  0  0  0  0  0  0  0  0  0
   -0.9156    3.7347    0.2487 O   0  0  0  0  0  0  0  0  0  0  0  0
   -2.1204    4.5346    0.3784 C   0  0  0  0  0  0  0  0  0  0  0  0
   -1.7616    5.9969    0.3162 C   0  0  0  0  0  0  0  0  0  0  0  0
   -0.6044    6.3320    0.1763 O   0  0  0  0  0  0  0  0  0  0  0  0
   -2.7267    6.9324    0.4161 N   0  0  0  0  0  0  0  0  0  0  0  0
   -2.3848    8.2887    0.4565 C   0  0  0  0  0  0  0  0  0  0  0  0
   -3.1274    9.1707    1.2312 C   0  0  0  0  0  0  0  0  0  0  0  0
   -2.7852   10.5079    1.2727 C   0  0  0  0  0  0  0  0  0  0  0  0
   -1.7102   10.9716    0.5366 C   0  0  0  0  0  0  0  0  0  0  0  0
   -0.9715   10.0969   -0.2401 C   0  0  0  0  0  0  0  0  0  0  0  0
   -1.3063    8.7565   -0.2820 C   0  0  0  0  0  0  0  0  0  0  0  0
    0.4968   10.7359   -1.2459 Br  0  0  0  0  0  0  0  0  0  0  0  0
    3.6985    0.8562   -0.2672 C   0  0  0  0  0  0  0  0  0  0  0  0
    1.9211   -1.6927   -0.0158 C   0  0  1  0  0  0  0  0  0  0  0  0
    2.9449   -1.7162   -0.3892 H   0  0  0  0  0  0  0  0  0  0  0  0
    1.8788   -2.2851    1.3943 C   0  0  0  0  0  0  0  0  0  0  0  0
    1.0811   -2.4602   -0.8803 O   0  0  0  0  0  0  0  0  0  0  0  0
   -1.5110   -0.9781   -0.6441 H   0  0  0  0  0  0  0  0  0  0  0  0
   -0.8006   -1.6732    0.8325 H   0  0  0  0  0  0  0  0  0  0  0  0
   -1.8501   -0.2396    0.9395 H   0  0  0  0  0  0  0  0  0  0  0  0
   -2.8058    4.2937   -0.4342 H   0  0  0  0  0  0  0  0  0  0  0  0
   -2.5991    4.3183    1.3335 H   0  0  0  0  0  0  0  0  0  0  0  0
   -3.6582    6.6656    0.4599 H   0  0  0  0  0  0  0  0  0  0  0  0
   -3.9694    8.8102    1.8034 H   0  0  0  0  0  0  0  0  0  0  0  0
   -3.3604   11.1933    1.8776 H   0  0  0  0  0  0  0  0  0  0  0  0
   -1.4470   12.0185    0.5679 H   0  0  0  0  0  0  0  0  0  0  0  0
   -0.7293    8.0738   -0.8881 H   0  0  0  0  0  0  0  0  0  0  0  0
    3.9350    0.9334   -1.3285 H   0  0  0  0  0  0  0  0  0  0  0  0
    4.1210    1.7102    0.2622 H   0  0  0  0  0  0  0  0  0  0  0  0
    4.1216   -0.0651    0.1332 H   0  0  0  0  0  0  0  0  0  0  0  0
    0.8551   -2.2616    1.7677 H   0  0  0  0  0  0  0  0  0  0  0  0
    2.2317   -3.3160    1.3660 H   0  0  0  0  0  0  0  0  0  0  0  0
    2.5196   -1.6997    2.0537 H   0  0  0  0  0  0  0  0  0  0  0  0
    0.1430   -2.4277   -0.6477 H   0  0  0  0  0  0  0  0  0  0  0  0
  1  2  1  0  0  0  0
  1 27  1  0  0  0  0
  1 28  1  0  0  0  0
  1 29  1  0  0  0  0
  2  7  2  0  0  0  0
  2  3  1  0  0  0  0
  3  4  2  0  0  0  0
  3 23  1  0  0  0  0
  4  5  1  0  0  0  0
  4 22  1  0  0  0  0
  5  6  1  0  0  0  0
  5  7  1  0  0  0  0
  7  8  1  0  0  0  0
  8  9  2  0  0  0  0
  8 10  1  0  0  0  0
 10 11  1  0  0  0  0
 11 12  1  0  0  0  0
 11 30  1  0  0  0  0
 11 31  1  0  0  0  0
 12 13  2  0  0  0  0
 12 14  1  0  0  0  0
 14 15  1  0  0  0  0
 14 32  1  0  0  0  0
 15 20  2  0  0  0  0
 15 16  1  0  0  0  0
 16 17  2  0  0  0  0
 16 33  1  0  0  0  0
 17 18  1  0  0  0  0
 17 34  1  0  0  0  0
 18 19  2  0  0  0  0
 18 35  1  0  0  0  0
 19 20  1  0  0  0  0
 19 21  1  0  0  0  0
 20 36  1  0  0  0  0
 22 37  1  0  0  0  0
 22 38  1  0  0  0  0
 22 39  1  0  0  0  0
 23 24  1  0  0  0  0
 23 25  1  0  0  0  0
 23 26  1  0  0  0  0
 25 40  1  0  0  0  0
 25 41  1  0  0  0  0
 25 42  1  0  0  0  0
 26 43  1  0  0  0  0
M  END
$$$$
ZINC03543288
  -OEChem-08230709453D

 43 44  0     1  0  0  0  0  0999 V2000
    2.9476    3.4570   -1.9461 C   0  0  0  0  0  0  0  0  0  0  0  0
    2.7557    1.9697   -2.0954 C   0  0  0  0  0  0  0  0  0  0  0  0
    2.0236    1.1359   -1.2451 C   0  0  0  0  0  0  0  0  0  0  0  0
    2.0977   -0.1250   -1.7352 C   0  0  0  0  0  0  0  0  0  0  0  0
    2.8504   -0.1172   -2.8554 N   0  0  0  0  0  0  0  0  0  0  0  0
    3.0602   -0.8914   -3.4008 H   0  0  0  0  0  0  0  0  0  0  0  0
    3.2718    1.1715   -3.0958 C   0  0  0  0  0  0  0  0  0  0  0  0
    4.1100    1.6149   -4.2124 C   0  0  0  0  0  0  0  0  0  0  0  0
    4.4153    2.7877   -4.3153 O   0  0  0  0  0  0  0  0  0  0  0  0
    4.5434    0.7225   -5.1264 O   0  0  0  0  0  0  0  0  0  0  0  0
    5.3700    1.2327   -6.2056 C   0  0  0  0  0  0  0  0  0  0  0  0
    5.7561    0.0999   -7.1213 C   0  0  0  0  0  0  0  0  0  0  0  0
    5.3723   -1.0267   -6.8875 O   0  0  0  0  0  0  0  0  0  0  0  0
    6.5278    0.3385   -8.2002 N   0  0  0  0  0  0  0  0  0  0  0  0
    6.9664   -0.7256   -8.9959 C   0  0  0  0  0  0  0  0  0  0  0  0
    8.2207   -0.6788   -9.5908 C   0  0  0  0  0  0  0  0  0  0  0  0
    8.6528   -1.7323  -10.3721 C   0  0  0  0  0  0  0  0  0  0  0  0
    7.8346   -2.8293  -10.5706 C   0  0  0  0  0  0  0  0  0  0  0  0
    6.5826   -2.8771   -9.9840 C   0  0  0  0  0  0  0  0  0  0  0  0
    6.1464   -1.8277   -9.1970 C   0  0  0  0  0  0  0  0  0  0  0  0
    5.4668   -4.3787  -10.2595 Br  0  0  0  0  0  0  0  0  0  0  0  0
    1.4451   -1.3400   -1.1278 C   0  0  0  0  0  0  0  0  0  0  0  0
    1.2789    1.5644   -0.0070 C   0  0  2  0  0  0  0  0  0  0  0  0
    1.1715    2.6491   -0.0048 H   0  0  0  0  0  0  0  0  0  0  0  0
    2.0589    1.1267    1.2344 C   0  0  0  0  0  0  0  0  0  0  0  0
   -0.0148    0.9575    0.0048 O   0  0  0  0  0  0  0  0  0  0  0  0
    3.8371    3.6501   -1.3463 H   0  0  0  0  0  0  0  0  0  0  0  0
    3.0683    3.9084   -2.9308 H   0  0  0  0  0  0  0  0  0  0  0  0
    2.0763    3.8880   -1.4530 H   0  0  0  0  0  0  0  0  0  0  0  0
    4.8116    1.9808   -6.7684 H   0  0  0  0  0  0  0  0  0  0  0  0
    6.2696    1.6871   -5.7905 H   0  0  0  0  0  0  0  0  0  0  0  0
    6.7791    1.2480   -8.4251 H   0  0  0  0  0  0  0  0  0  0  0  0
    8.8589    0.1791   -9.4394 H   0  0  0  0  0  0  0  0  0  0  0  0
    9.6294   -1.6976  -10.8320 H   0  0  0  0  0  0  0  0  0  0  0  0
    8.1735   -3.6502  -11.1852 H   0  0  0  0  0  0  0  0  0  0  0  0
    5.1692   -1.8653   -8.7388 H   0  0  0  0  0  0  0  0  0  0  0  0
    0.4460   -1.4630   -1.5458 H   0  0  0  0  0  0  0  0  0  0  0  0
    2.0434   -2.2234   -1.3506 H   0  0  0  0  0  0  0  0  0  0  0  0
    1.3738   -1.2124   -0.0476 H   0  0  0  0  0  0  0  0  0  0  0  0
    2.1664    0.0420    1.2322 H   0  0  0  0  0  0  0  0  0  0  0  0
    3.0457    1.5896    1.2254 H   0  0  0  0  0  0  0  0  0  0  0  0
    1.5203    1.4367    2.1299 H   0  0  0  0  0  0  0  0  0  0  0  0
    0.0043   -0.0093    0.0036 H   0  0  0  0  0  0  0  0  0  0  0  0
  1  2  1  0  0  0  0
  1 27  1  0  0  0  0
  1 28  1  0  0  0  0
  1 29  1  0  0  0  0
  2  7  2  0  0  0  0
  2  3  1  0  0  0  0
  3  4  2  0  0  0  0
  3 23  1  0  0  0  0
  4  5  1  0  0  0  0
  4 22  1  0  0  0  0
  5  6  1  0  0  0  0
  5  7  1  0  0  0  0
  7  8  1  0  0  0  0
  8  9  2  0  0  0  0
  8 10  1  0  0  0  0
 10 11  1  0  0  0  0
 11 12  1  0  0  0  0
 11 30  1  0  0  0  0
 11 31  1  0  0  0  0
 12 13  2  0  0  0  0
 12 14  1  0  0  0  0
 14 15  1  0  0  0  0
 14 32  1  0  0  0  0
 15 20  2  0  0  0  0
 15 16  1  0  0  0  0
 16 17  2  0  0  0  0
 16 33  1  0  0  0  0
 17 18  1  0  0  0  0
 17 34  1  0  0  0  0
 18 19  2  0  0  0  0
 18 35  1  0  0  0  0
 19 20  1  0  0  0  0
 19 21  1  0  0  0  0
 20 36  1  0  0  0  0
 22 37  1  0  0  0  0
 22 38  1  0  0  0  0
 22 39  1  0  0  0  0
 23 24  1  0  0  0  0
 23 25  1  0  0  0  0
 23 26  1  0  0  0  0
 25 40  1  0  0  0  0
 25 41  1  0  0  0  0
 25 42  1  0  0  0  0
 26 43  1  0  0  0  0
M  END
$$$$
ZINC03543289
  -OEChem-08230709453D

 46 47  0     1  0  0  0  0  0999 V2000
    9.3080    6.6524    3.9173 C   0  0  0  0  0  0  0  0  0  0  0  0
    8.7280    7.5744    2.8759 C   0  0  0  0  0  0  0  0  0  0  0  0
    9.1250    8.8965    2.8247 C   0  0  0  0  0  0  0  0  0  0  0  0
    8.5940    9.7428    1.8689 C   0  0  0  0  0  0  0  0  0  0  0  0
    7.6641    9.2690    0.9614 C   0  0  0  0  0  0  0  0  0  0  0  0
    7.2667    7.9472    1.0042 C   0  0  0  0  0  0  0  0  0  0  0  0
    7.7943    7.0958    1.9665 C   0  0  0  0  0  0  0  0  0  0  0  0
    7.3900    5.7571    2.0157 N   0  0  0  0  0  0  0  0  0  0  0  0
    6.0947    5.4369    1.8253 C   0  0  0  0  0  0  0  0  0  0  0  0
    5.2936    6.2992    1.5324 O   0  0  0  0  0  0  0  0  0  0  0  0
    5.6418    4.0075    1.9763 C   0  0  0  0  0  0  0  0  0  0  0  0
    4.2147    3.9226    1.7223 O   0  0  0  0  0  0  0  0  0  0  0  0
    3.6474    2.7025    1.8173 C   0  0  0  0  0  0  0  0  0  0  0  0
    4.3277    1.7362    2.1047 O   0  0  0  0  0  0  0  0  0  0  0  0
    2.2118    2.5413    1.5743 C   0  0  0  0  0  0  0  0  0  0  0  0
    1.5010    1.3601    1.6359 C   0  0  0  0  0  0  0  0  0  0  0  0
    0.1708    1.6682    1.3360 C   0  0  0  0  0  0  0  0  0  0  0  0
    0.0968    2.9998    1.0971 C   0  0  0  0  0  0  0  0  0  0  0  0
    1.3245    3.5410    1.2433 N   0  0  0  0  0  0  0  0  0  0  0  0
    1.5458    4.4786    1.1307 H   0  0  0  0  0  0  0  0  0  0  0  0
   -1.1548    3.7551    0.7309 C   0  0  0  0  0  0  0  0  0  0  0  0
   -0.9758    0.6918    1.2818 C   0  0  1  0  0  0  0  0  0  0  0  0
   -1.9188    1.2384    1.2812 H   0  0  0  0  0  0  0  0  0  0  0  0
   -0.8717   -0.1468    0.0063 C   0  0  0  0  0  0  0  0  0  0  0  0
   -0.9240   -0.1675    2.4224 O   0  0  0  0  0  0  0  0  0  0  0  0
    2.0537   -0.0029    1.9641 C   0  0  0  0  0  0  0  0  0  0  0  0
   10.2063    6.1778    3.5226 H   0  0  0  0  0  0  0  0  0  0  0  0
    9.5618    7.2256    4.8091 H   0  0  0  0  0  0  0  0  0  0  0  0
    8.5753    5.8872    4.1736 H   0  0  0  0  0  0  0  0  0  0  0  0
    9.8512    9.2694    3.5318 H   0  0  0  0  0  0  0  0  0  0  0  0
    8.9063   10.7759    1.8308 H   0  0  0  0  0  0  0  0  0  0  0  0
    7.2517    9.9323    0.2156 H   0  0  0  0  0  0  0  0  0  0  0  0
    6.5438    7.5767    0.2924 H   0  0  0  0  0  0  0  0  0  0  0  0
    8.0419    5.0595    2.1868 H   0  0  0  0  0  0  0  0  0  0  0  0
    5.8515    3.6651    2.9897 H   0  0  0  0  0  0  0  0  0  0  0  0
    6.1758    3.3799    1.2629 H   0  0  0  0  0  0  0  0  0  0  0  0
   -1.6995    4.0172    1.6379 H   0  0  0  0  0  0  0  0  0  0  0  0
   -0.8862    4.6642    0.1929 H   0  0  0  0  0  0  0  0  0  0  0  0
   -1.7839    3.1302    0.0970 H   0  0  0  0  0  0  0  0  0  0  0  0
    0.0713   -0.6934    0.0069 H   0  0  0  0  0  0  0  0  0  0  0  0
   -1.7010   -0.8530   -0.0329 H   0  0  0  0  0  0  0  0  0  0  0  0
   -0.9112    0.5087   -0.8637 H   0  0  0  0  0  0  0  0  0  0  0  0
   -0.1882   -0.7948    2.4092 H   0  0  0  0  0  0  0  0  0  0  0  0
    2.2883   -0.5319    1.0404 H   0  0  0  0  0  0  0  0  0  0  0  0
    2.9596    0.1063    2.5603 H   0  0  0  0  0  0  0  0  0  0  0  0
    1.3130   -0.5690    2.5289 H   0  0  0  0  0  0  0  0  0  0  0  0
  1  2  1  0  0  0  0
  1 27  1  0  0  0  0
  1 28  1  0  0  0  0
  1 29  1  0  0  0  0
  2  7  2  0  0  0  0
  2  3  1  0  0  0  0
  3  4  2  0  0  0  0
  3 30  1  0  0  0  0
  4  5  1  0  0  0  0
  4 31  1  0  0  0  0
  5  6  2  0  0  0  0
  5 32  1  0  0  0  0
  6  7  1  0  0  0  0
  6 33  1  0  0  0  0
  7  8  1  0  0  0  0
  8  9  1  0  0  0  0
  8 34  1  0  0  0  0
  9 10  2  0  0  0  0
  9 11  1  0  0  0  0
 11 12  1  0  0  0  0
 11 35  1  0  0  0  0
 11 36  1  0  0  0  0
 12 13  1  0  0  0  0
 13 14  2  0  0  0  0
 13 15  1  0  0  0  0
 15 19  1  0  0  0  0
 15 16  2  0  0  0  0
 16 17  1  0  0  0  0
 16 26  1  0  0  0  0
 17 18  2  0  0  0  0
 17 22  1  0  0  0  0
 18 19  1  0  0  0  0
 18 21  1  0  0  0  0
 19 20  1  0  0  0  0
 21 37  1  0  0  0  0
 21 38  1  0  0  0  0
 21 39  1  0  0  0  0
 22 23  1  0  0  0  0
 22 24  1  0  0  0  0
 22 25  1  0  0  0  0
 24 40  1  0  0  0  0
 24 41  1  0  0  0  0
 24 42  1  0  0  0  0
 25 43  1  0  0  0  0
 26 44  1  0  0  0  0
 26 45  1  0  0  0  0
 26 46  1  0  0  0  0
M  END
$$$$
ZINC03543290
  -OEChem-08230709453D

 46 47  0     1  0  0  0  0  0999 V2000
    7.1890    0.8742  -10.9150 C   0  0  0  0  0  0  0  0  0  0  0  0
    7.2993   -0.5086  -10.3260 C   0  0  0  0  0  0  0  0  0  0  0  0
    7.7316   -1.5612  -11.1091 C   0  0  0  0  0  0  0  0  0  0  0  0
    7.8340   -2.8299  -10.5692 C   0  0  0  0  0  0  0  0  0  0  0  0
    7.5042   -3.0495   -9.2441 C   0  0  0  0  0  0  0  0  0  0  0  0
    7.0760   -2.0005   -8.4547 C   0  0  0  0  0  0  0  0  0  0  0  0
    6.9670   -0.7258   -8.9955 C   0  0  0  0  0  0  0  0  0  0  0  0
    6.5288    0.3383   -8.1996 N   0  0  0  0  0  0  0  0  0  0  0  0
    5.7581    0.0996   -7.1199 C   0  0  0  0  0  0  0  0  0  0  0  0
    5.3615   -1.0242   -6.8945 O   0  0  0  0  0  0  0  0  0  0  0  0
    5.3893    1.2289   -6.1928 C   0  0  0  0  0  0  0  0  0  0  0  0
    4.5604    0.7193   -5.1150 O   0  0  0  0  0  0  0  0  0  0  0  0
    4.1414    1.6088   -4.1916 C   0  0  0  0  0  0  0  0  0  0  0  0
    4.4605    2.7787   -4.2854 O   0  0  0  0  0  0  0  0  0  0  0  0
    3.3018    1.1658   -3.0759 C   0  0  0  0  0  0  0  0  0  0  0  0
    2.7978    1.9616   -2.0674 C   0  0  0  0  0  0  0  0  0  0  0  0
    2.0590    1.1292   -1.2215 C   0  0  0  0  0  0  0  0  0  0  0  0
    2.1163   -0.1282   -1.7227 C   0  0  0  0  0  0  0  0  0  0  0  0
    2.8656   -0.1197   -2.8452 N   0  0  0  0  0  0  0  0  0  0  0  0
    3.0641   -0.8916   -3.3980 H   0  0  0  0  0  0  0  0  0  0  0  0
    1.4509   -1.3404   -1.1237 C   0  0  0  0  0  0  0  0  0  0  0  0
    1.3240    1.5559    0.0230 C   0  0  2  0  0  0  0  0  0  0  0  0
    1.2294    2.6417    0.0349 H   0  0  0  0  0  0  0  0  0  0  0  0
    2.1033    1.0983    1.2576 C   0  0  0  0  0  0  0  0  0  0  0  0
    0.0233    0.9643    0.0344 O   0  0  0  0  0  0  0  0  0  0  0  0
    3.0073    3.4453   -1.9065 C   0  0  0  0  0  0  0  0  0  0  0  0
    8.1335    1.4019  -10.7828 H   0  0  0  0  0  0  0  0  0  0  0  0
    6.9605    0.7990  -11.9782 H   0  0  0  0  0  0  0  0  0  0  0  0
    6.3931    1.4217  -10.4102 H   0  0  0  0  0  0  0  0  0  0  0  0
    7.9902   -1.3929  -12.1441 H   0  0  0  0  0  0  0  0  0  0  0  0
    8.1725   -3.6512  -11.1834 H   0  0  0  0  0  0  0  0  0  0  0  0
    7.5859   -4.0415   -8.8252 H   0  0  0  0  0  0  0  0  0  0  0  0
    6.8228   -2.1717   -7.4189 H   0  0  0  0  0  0  0  0  0  0  0  0
    6.7796    1.2479   -8.4248 H   0  0  0  0  0  0  0  0  0  0  0  0
    4.8380    1.9886   -6.7470 H   0  0  0  0  0  0  0  0  0  0  0  0
    6.2959    1.6686   -5.7771 H   0  0  0  0  0  0  0  0  0  0  0  0
    0.4491   -1.4477   -1.5396 H   0  0  0  0  0  0  0  0  0  0  0  0
    2.0378   -2.2290   -1.3560 H   0  0  0  0  0  0  0  0  0  0  0  0
    1.3845   -1.2212   -0.0423 H   0  0  0  0  0  0  0  0  0  0  0  0
    2.1979    0.0125    1.2457 H   0  0  0  0  0  0  0  0  0  0  0  0
    3.0954    1.5496    1.2489 H   0  0  0  0  0  0  0  0  0  0  0  0
    1.5717    1.4069    2.1578 H   0  0  0  0  0  0  0  0  0  0  0  0
    0.0309   -0.0026    0.0249 H   0  0  0  0  0  0  0  0  0  0  0  0
    3.9009    3.6232   -1.3082 H   0  0  0  0  0  0  0  0  0  0  0  0
    3.1300    3.9035   -2.8878 H   0  0  0  0  0  0  0  0  0  0  0  0
    2.1427    3.8822   -1.4069 H   0  0  0  0  0  0  0  0  0  0  0  0
  1  2  1  0  0  0  0
  1 27  1  0  0  0  0
  1 28  1  0  0  0  0
  1 29  1  0  0  0  0
  2  7  2  0  0  0  0
  2  3  1  0  0  0  0
  3  4  2  0  0  0  0
  3 30  1  0  0  0  0
  4  5  1  0  0  0  0
  4 31  1  0  0  0  0
  5  6  2  0  0  0  0
  5 32  1  0  0  0  0
  6  7  1  0  0  0  0
  6 33  1  0  0  0  0
  7  8  1  0  0  0  0
  8  9  1  0  0  0  0
  8 34  1  0  0  0  0
  9 10  2  0  0  0  0
  9 11  1  0  0  0  0
 11 12  1  0  0  0  0
 11 35  1  0  0  0  0
 11 36  1  0  0  0  0
 12 13  1  0  0  0  0
 13 14  2  0  0  0  0
 13 15  1  0  0  0  0
 15 19  1  0  0  0  0
 15 16  2  0  0  0  0
 16 17  1  0  0  0  0
 16 26  1  0  0  0  0
 17 18  2  0  0  0  0
 17 22  1  0  0  0  0
 18 19  1  0  0  0  0
 18 21  1  0  0  0  0
 19 20  1  0  0  0  0
 21 37  1  0  0  0  0
 21 38  1  0  0  0  0
 21 39  1  0  0  0  0
 22 23  1  0  0  0  0
 22 24  1  0  0  0  0
 22 25  1  0  0  0  0
 24 40  1  0  0  0  0
 24 41  1  0  0  0  0
 24 42  1  0  0  0  0
 25 43  1  0  0  0  0
 26 44  1  0  0  0  0
 26 45  1  0  0  0  0
 26 46  1  0  0  0  0
M  END
$$$$
ZINC03543293
  -OEChem-08230709453D

 46 47  0     1  0  0  0  0  0999 V2000
    1.1432    3.5928   -0.0155 C   0  0  0  0  0  0  0  0  0  0  0  0
    1.1682    2.0860   -0.0167 C   0  0  0  0  0  0  0  0  0  0  0  0
    2.1113    1.4123   -0.7709 C   0  0  0  0  0  0  0  0  0  0  0  0
    2.1370    0.0314   -0.7742 C   0  0  0  0  0  0  0  0  0  0  0  0
    1.2143   -0.6805   -0.0189 C   0  0  0  0  0  0  0  0  0  0  0  0
    0.2684   -0.0009    0.7374 C   0  0  0  0  0  0  0  0  0  0  0  0
    0.2481    1.3801    0.7364 C   0  0  0  0  0  0  0  0  0  0  0  0
    1.2373   -2.0795   -0.0204 N   0  0  0  0  0  0  0  0  0  0  0  0
    2.4096   -2.7341   -0.1369 C   0  0  0  0  0  0  0  0  0  0  0  0
    3.4521   -2.1143   -0.1440 O   0  0  0  0  0  0  0  0  0  0  0  0
    2.4252   -4.2361   -0.2581 C   0  0  0  0  0  0  0  0  0  0  0  0
    3.7970   -4.6985   -0.3700 O   0  0  0  0  0  0  0  0  0  0  0  0
    3.9873   -6.0288   -0.4870 C   0  0  0  0  0  0  0  0  0  0  0  0
    3.0319   -6.7814   -0.4952 O   0  0  0  0  0  0  0  0  0  0  0  0
    5.3447   -6.5671   -0.6042 C   0  0  0  0  0  0  0  0  0  0  0  0
    5.6870   -7.8980   -0.7296 C   0  0  0  0  0  0  0  0  0  0  0  0
    7.0815   -7.9548   -0.8102 C   0  0  0  0  0  0  0  0  0  0  0  0
    7.5537   -6.6871   -0.7343 C   0  0  0  0  0  0  0  0  0  0  0  0
    6.5122   -5.8371   -0.6154 N   0  0  0  0  0  0  0  0  0  0  0  0
    6.5757   -4.8716   -0.5470 H   0  0  0  0  0  0  0  0  0  0  0  0
    9.0066   -6.2900   -0.7817 C   0  0  0  0  0  0  0  0  0  0  0  0
    7.9119   -9.2040   -0.9552 C   0  0  1  0  0  0  0  0  0  0  0  0
    7.3000  -10.0759   -0.7241 H   0  0  0  0  0  0  0  0  0  0  0  0
    8.4282   -9.3093   -2.3916 C   0  0  0  0  0  0  0  0  0  0  0  0
    9.0194   -9.1470   -0.0539 O   0  0  0  0  0  0  0  0  0  0  0  0
    4.7380   -9.0679   -0.7712 C   0  0  0  0  0  0  0  0  0  0  0  0
    0.4909    3.9460   -0.8142 H   0  0  0  0  0  0  0  0  0  0  0  0
    0.7684    3.9492    0.9440 H   0  0  0  0  0  0  0  0  0  0  0  0
    2.1521    3.9731   -0.1754 H   0  0  0  0  0  0  0  0  0  0  0  0
    2.8315    1.9666   -1.3546 H   0  0  0  0  0  0  0  0  0  0  0  0
    2.8736   -0.4942   -1.3637 H   0  0  0  0  0  0  0  0  0  0  0  0
   -0.4507   -0.5517    1.3255 H   0  0  0  0  0  0  0  0  0  0  0  0
   -0.4870    1.9092    1.3247 H   0  0  0  0  0  0  0  0  0  0  0  0
    0.4094   -2.5783    0.0623 H   0  0  0  0  0  0  0  0  0  0  0  0
    1.9642   -4.6768    0.6259 H   0  0  0  0  0  0  0  0  0  0  0  0
    1.8676   -4.5348   -1.1458 H   0  0  0  0  0  0  0  0  0  0  0  0
    9.3012   -6.1123   -1.8160 H   0  0  0  0  0  0  0  0  0  0  0  0
    9.1536   -5.3797   -0.2005 H   0  0  0  0  0  0  0  0  0  0  0  0
    9.6160   -7.0909   -0.3629 H   0  0  0  0  0  0  0  0  0  0  0  0
    7.5834   -9.3528   -3.0790 H   0  0  0  0  0  0  0  0  0  0  0  0
    9.0401   -8.4374   -2.6226 H   0  0  0  0  0  0  0  0  0  0  0  0
    9.0288  -10.2128   -2.4964 H   0  0  0  0  0  0  0  0  0  0  0  0
    9.5985   -9.9204   -0.0930 H   0  0  0  0  0  0  0  0  0  0  0  0
    4.4534   -9.2684   -1.8041 H   0  0  0  0  0  0  0  0  0  0  0  0
    5.2267   -9.9473   -0.3518 H   0  0  0  0  0  0  0  0  0  0  0  0
    3.8474   -8.8343   -0.1877 H   0  0  0  0  0  0  0  0  0  0  0  0
  1  2  1  0  0  0  0
  1 27  1  0  0  0  0
  1 28  1  0  0  0  0
  1 29  1  0  0  0  0
  2  7  2  0  0  0  0
  2  3  1  0  0  0  0
  3  4  2  0  0  0  0
  3 30  1  0  0  0  0
  4  5  1  0  0  0  0
  4 31  1  0  0  0  0
  5  6  2  0  0  0  0
  5  8  1  0  0  0  0
  6  7  1  0  0  0  0
  6 32  1  0  0  0  0
  7 33  1  0  0  0  0
  8  9  1  0  0  0  0
  8 34  1  0  0  0  0
  9 10  2  0  0  0  0
  9 11  1  0  0  0  0
 11 12  1  0  0  0  0
 11 35  1  0  0  0  0
 11 36  1  0  0  0  0
 12 13  1  0  0  0  0
 13 14  2  0  0  0  0
 13 15  1  0  0  0  0
 15 19  1  0  0  0  0
 15 16  2  0  0  0  0
 16 17  1  0  0  0  0
 16 26  1  0  0  0  0
 17 18  2  0  0  0  0
 17 22  1  0  0  0  0
 18 19  1  0  0  0  0
 18 21  1  0  0  0  0
 19 20  1  0  0  0  0
 21 37  1  0  0  0  0
 21 38  1  0  0  0  0
 21 39  1  0  0  0  0
 22 23  1  0  0  0  0
 22 24  1  0  0  0  0
 22 25  1  0  0  0  0
 24 40  1  0  0  0  0
 24 41  1  0  0  0  0
 24 42  1  0  0  0  0
 25 43  1  0  0  0  0
 26 44  1  0  0  0  0
 26 45  1  0  0  0  0
 26 46  1  0  0  0  0
M  END
$$$$
ZINC03543294
  -OEChem-08230709453D

 46 47  0     1  0  0  0  0  0999 V2000
   -0.7827   15.8679   -1.2316 C   0  0  0  0  0  0  0  0  0  0  0  0
   -0.1664   14.6526   -0.5879 C   0  0  0  0  0  0  0  0  0  0  0  0
   -0.9075   13.4930   -0.4524 C   0  0  0  0  0  0  0  0  0  0  0  0
   -0.3457   12.3775    0.1371 C   0  0  0  0  0  0  0  0  0  0  0  0
    0.9650   12.4213    0.5940 C   0  0  0  0  0  0  0  0  0  0  0  0
    1.7047   13.5891    0.4617 C   0  0  0  0  0  0  0  0  0  0  0  0
    1.1390   14.6993   -0.1343 C   0  0  0  0  0  0  0  0  0  0  0  0
    1.5372   11.2929    1.1917 N   0  0  0  0  0  0  0  0  0  0  0  0
    1.2134   10.0605    0.7525 C   0  0  0  0  0  0  0  0  0  0  0  0
    0.3643    9.9252   -0.1029 O   0  0  0  0  0  0  0  0  0  0  0  0
    1.9064    8.8506    1.3243 C   0  0  0  0  0  0  0  0  0  0  0  0
    1.3858    7.6512    0.6930 O   0  0  0  0  0  0  0  0  0  0  0  0
    1.9049    6.4728    1.0952 C   0  0  0  0  0  0  0  0  0  0  0  0
    2.7692    6.4494    1.9505 O   0  0  0  0  0  0  0  0  0  0  0  0
    1.4275    5.2215    0.5018 C   0  0  0  0  0  0  0  0  0  0  0  0
    1.8618    3.9504    0.8178 C   0  0  0  0  0  0  0  0  0  0  0  0
    1.1432    3.0617    0.0127 C   0  0  0  0  0  0  0  0  0  0  0  0
    0.2974    3.7892   -0.7561 C   0  0  0  0  0  0  0  0  0  0  0  0
    0.4595    5.0980   -0.4698 N   0  0  0  0  0  0  0  0  0  0  0  0
   -0.0254    5.8307   -0.8807 H   0  0  0  0  0  0  0  0  0  0  0  0
   -0.6683    3.2276   -1.7676 C   0  0  0  0  0  0  0  0  0  0  0  0
    1.2804    1.5610    0.0057 C   0  0  2  0  0  0  0  0  0  0  0  0
    1.8272    1.2420    0.8930 H   0  0  0  0  0  0  0  0  0  0  0  0
    2.0422    1.1243   -1.2472 C   0  0  0  0  0  0  0  0  0  0  0  0
   -0.0179    0.9640    0.0061 O   0  0  0  0  0  0  0  0  0  0  0  0
    2.9133    3.5891    1.8351 C   0  0  0  0  0  0  0  0  0  0  0  0
   -1.2623   16.4798   -0.4677 H   0  0  0  0  0  0  0  0  0  0  0  0
   -0.0058   16.4494   -1.7280 H   0  0  0  0  0  0  0  0  0  0  0  0
   -1.5256   15.5535   -1.9646 H   0  0  0  0  0  0  0  0  0  0  0  0
   -1.9269   13.4597   -0.8077 H   0  0  0  0  0  0  0  0  0  0  0  0
   -0.9249   11.4721    0.2422 H   0  0  0  0  0  0  0  0  0  0  0  0
    2.7228   13.6277    0.8201 H   0  0  0  0  0  0  0  0  0  0  0  0
    1.7153   15.6063   -0.2418 H   0  0  0  0  0  0  0  0  0  0  0  0
    2.1668   11.3976    1.9221 H   0  0  0  0  0  0  0  0  0  0  0  0
    1.7271    8.8030    2.3984 H   0  0  0  0  0  0  0  0  0  0  0  0
    2.9779    8.9236    1.1378 H   0  0  0  0  0  0  0  0  0  0  0  0
   -1.6230    3.0223   -1.2833 H   0  0  0  0  0  0  0  0  0  0  0  0
   -0.8158    3.9507   -2.5696 H   0  0  0  0  0  0  0  0  0  0  0  0
   -0.2646    2.3034   -2.1812 H   0  0  0  0  0  0  0  0  0  0  0  0
    2.1414    0.0388   -1.2523 H   0  0  0  0  0  0  0  0  0  0  0  0
    1.4954    1.4433   -2.1345 H   0  0  0  0  0  0  0  0  0  0  0  0
    3.0325    1.5797   -1.2475 H   0  0  0  0  0  0  0  0  0  0  0  0
   -0.0062   -0.0029    0.0018 H   0  0  0  0  0  0  0  0  0  0  0  0
    3.8921    3.5722    1.3557 H   0  0  0  0  0  0  0  0  0  0  0  0
    2.9136    4.3288    2.6357 H   0  0  0  0  0  0  0  0  0  0  0  0
    2.6948    2.6050    2.2498 H   0  0  0  0  0  0  0  0  0  0  0  0
  1  2  1  0  0  0  0
  1 27  1  0  0  0  0
  1 28  1  0  0  0  0
  1 29  1  0  0  0  0
  2  7  2  0  0  0  0
  2  3  1  0  0  0  0
  3  4  2  0  0  0  0
  3 30  1  0  0  0  0
  4  5  1  0  0  0  0
  4 31  1  0  0  0  0
  5  6  2  0  0  0  0
  5  8  1  0  0  0  0
  6  7  1  0  0  0  0
  6 32  1  0  0  0  0
  7 33  1  0  0  0  0
  8  9  1  0  0  0  0
  8 34  1  0  0  0  0
  9 10  2  0  0  0  0
  9 11  1  0  0  0  0
 11 12  1  0  0  0  0
 11 35  1  0  0  0  0
 11 36  1  0  0  0  0
 12 13  1  0  0  0  0
 13 14  2  0  0  0  0
 13 15  1  0  0  0  0
 15 19  1  0  0  0  0
 15 16  2  0  0  0  0
 16 17  1  0  0  0  0
 16 26  1  0  0  0  0
 17 18  2  0  0  0  0
 17 22  1  0  0  0  0
 18 19  1  0  0  0  0
 18 21  1  0  0  0  0
 19 20  1  0  0  0  0
 21 37  1  0  0  0  0
 21 38  1  0  0  0  0
 21 39  1  0  0  0  0
 22 23  1  0  0  0  0
 22 24  1  0  0  0  0
 22 25  1  0  0  0  0
 24 40  1  0  0  0  0
 24 41  1  0  0  0  0
 24 42  1  0  0  0  0
 25 43  1  0  0  0  0
 26 44  1  0  0  0  0
 26 45  1  0  0  0  0
 26 46  1  0  0  0  0
M  END
$$$$
ZINC03543297
  -OEChem-08230709453D

 43 44  0     1  0  0  0  0  0999 V2000
   -1.0977   -0.7484    0.3377 C   0  0  0  0  0  0  0  0  0  0  0  0
    0.1060    0.1443    0.1789 C   0  0  0  0  0  0  0  0  0  0  0  0
    1.4326   -0.2679    0.0231 C   0  0  0  0  0  0  0  0  0  0  0  0
    2.2022    0.8419   -0.0858 C   0  0  0  0  0  0  0  0  0  0  0  0
    1.4125    1.9334   -0.0047 N   0  0  0  0  0  0  0  0  0  0  0  0
    1.7141    2.8540   -0.0543 H   0  0  0  0  0  0  0  0  0  0  0  0
    0.1081    1.5241    0.1597 C   0  0  0  0  0  0  0  0  0  0  0  0
   -1.0638    2.3943    0.2849 C   0  0  0  0  0  0  0  0  0  0  0  0
   -2.1703    1.9082    0.4210 O   0  0  0  0  0  0  0  0  0  0  0  0
   -0.9155    3.7345    0.2491 O   0  0  0  0  0  0  0  0  0  0  0  0
   -2.1202    4.5347    0.3790 C   0  0  0  0  0  0  0  0  0  0  0  0
   -1.7611    5.9970    0.3169 C   0  0  0  0  0  0  0  0  0  0  0  0
   -0.6038    6.3318    0.1769 O   0  0  0  0  0  0  0  0  0  0  0  0
   -2.7260    6.9326    0.4169 N   0  0  0  0  0  0  0  0  0  0  0  0
   -2.3837    8.2898    0.4575 C   0  0  0  0  0  0  0  0  0  0  0  0
   -3.1263    9.1711    1.2324 C   0  0  0  0  0  0  0  0  0  0  0  0
   -2.7844   10.5086    1.2764 C   0  0  0  0  0  0  0  0  0  0  0  0
   -1.7088   10.9742    0.5398 C   0  0  0  0  0  0  0  0  0  0  0  0
   -0.9688   10.0977   -0.2394 C   0  0  0  0  0  0  0  0  0  0  0  0
   -1.3051    8.7567   -0.2811 C   0  0  0  0  0  0  0  0  0  0  0  0
    0.0810   10.5536   -0.9574 F   0  0  0  0  0  0  0  0  0  0  0  0
   -1.3794   12.2838    0.5804 F   0  0  0  0  0  0  0  0  0  0  0  0
    3.6981    0.8554   -0.2675 C   0  0  0  0  0  0  0  0  0  0  0  0
    1.9203   -1.6933   -0.0162 C   0  0  1  0  0  0  0  0  0  0  0  0
    2.9440   -1.7169   -0.3897 H   0  0  0  0  0  0  0  0  0  0  0  0
    1.8780   -2.2858    1.3938 C   0  0  0  0  0  0  0  0  0  0  0  0
    1.0800   -2.4605   -0.8807 O   0  0  0  0  0  0  0  0  0  0  0  0
   -1.5118   -0.9780   -0.6441 H   0  0  0  0  0  0  0  0  0  0  0  0
   -0.8013   -1.6734    0.8324 H   0  0  0  0  0  0  0  0  0  0  0  0
   -1.8506   -0.2396    0.9396 H   0  0  0  0  0  0  0  0  0  0  0  0
   -2.8056    4.2940   -0.4336 H   0  0  0  0  0  0  0  0  0  0  0  0
   -2.5988    4.3183    1.3341 H   0  0  0  0  0  0  0  0  0  0  0  0
   -3.6576    6.6659    0.4608 H   0  0  0  0  0  0  0  0  0  0  0  0
   -3.9686    8.8099    1.8037 H   0  0  0  0  0  0  0  0  0  0  0  0
   -3.3596   11.1928    1.8826 H   0  0  0  0  0  0  0  0  0  0  0  0
   -0.7293    8.0736   -0.8880 H   0  0  0  0  0  0  0  0  0  0  0  0
    3.9345    0.9326   -1.3288 H   0  0  0  0  0  0  0  0  0  0  0  0
    4.1208    1.7092    0.2619 H   0  0  0  0  0  0  0  0  0  0  0  0
    4.1211   -0.0660    0.1328 H   0  0  0  0  0  0  0  0  0  0  0  0
    0.8543   -2.2622    1.7673 H   0  0  0  0  0  0  0  0  0  0  0  0
    2.2307   -3.3168    1.3654 H   0  0  0  0  0  0  0  0  0  0  0  0
    2.5189   -1.7006    2.0532 H   0  0  0  0  0  0  0  0  0  0  0  0
    0.1419   -2.4279   -0.6480 H   0  0  0  0  0  0  0  0  0  0  0  0
  1  2  1  0  0  0  0
  1 28  1  0  0  0  0
  1 29  1  0  0  0  0
  1 30  1  0  0  0  0
  2  7  2  0  0  0  0
  2  3  1  0  0  0  0
  3  4  2  0  0  0  0
  3 24  1  0  0  0  0
  4  5  1  0  0  0  0
  4 23  1  0  0  0  0
  5  6  1  0  0  0  0
  5  7  1  0  0  0  0
  7  8  1  0  0  0  0
  8  9  2  0  0  0  0
  8 10  1  0  0  0  0
 10 11  1  0  0  0  0
 11 12  1  0  0  0  0
 11 31  1  0  0  0  0
 11 32  1  0  0  0  0
 12 13  2  0  0  0  0
 12 14  1  0  0  0  0
 14 15  1  0  0  0  0
 14 33  1  0  0  0  0
 15 20  2  0  0  0  0
 15 16  1  0  0  0  0
 16 17  2  0  0  0  0
 16 34  1  0  0  0  0
 17 18  1  0  0  0  0
 17 35  1  0  0  0  0
 18 19  2  0  0  0  0
 18 22  1  0  0  0  0
 19 20  1  0  0  0  0
 19 21  1  0  0  0  0
 20 36  1  0  0  0  0
 23 37  1  0  0  0  0
 23 38  1  0  0  0  0
 23 39  1  0  0  0  0
 24 25  1  0  0  0  0
 24 26  1  0  0  0  0
 24 27  1  0  0  0  0
 26 40  1  0  0  0  0
 26 41  1  0  0  0  0
 26 42  1  0  0  0  0
 27 43  1  0  0  0  0
M  END
$$$$
ZINC03543298
  -OEChem-08230709453D

 43 44  0     1  0  0  0  0  0999 V2000
    2.9476    3.4569   -1.9461 C   0  0  0  0  0  0  0  0  0  0  0  0
    2.7556    1.9697   -2.0955 C   0  0  0  0  0  0  0  0  0  0  0  0
    2.0235    1.1359   -1.2452 C   0  0  0  0  0  0  0  0  0  0  0  0
    2.0976   -0.1250   -1.7353 C   0  0  0  0  0  0  0  0  0  0  0  0
    2.8503   -0.1171   -2.8555 N   0  0  0  0  0  0  0  0  0  0  0  0
    3.0601   -0.8914   -3.4009 H   0  0  0  0  0  0  0  0  0  0  0  0
    3.2717    1.1715   -3.0959 C   0  0  0  0  0  0  0  0  0  0  0  0
    4.1100    1.6149   -4.2124 C   0  0  0  0  0  0  0  0  0  0  0  0
    4.4153    2.7877   -4.3153 O   0  0  0  0  0  0  0  0  0  0  0  0
    4.5433    0.7225   -5.1264 O   0  0  0  0  0  0  0  0  0  0  0  0
    5.3700    1.2327   -6.2056 C   0  0  0  0  0  0  0  0  0  0  0  0
    5.7560    0.0999   -7.1214 C   0  0  0  0  0  0  0  0  0  0  0  0
    5.3722   -1.0267   -6.8875 O   0  0  0  0  0  0  0  0  0  0  0  0
    6.5278    0.3385   -8.2002 N   0  0  0  0  0  0  0  0  0  0  0  0
    6.9667   -0.7263   -8.9965 C   0  0  0  0  0  0  0  0  0  0  0  0
    8.2208   -0.6790   -9.5909 C   0  0  0  0  0  0  0  0  0  0  0  0
    8.6554   -1.7324  -10.3715 C   0  0  0  0  0  0  0  0  0  0  0  0
    7.8373   -2.8310  -10.5716 C   0  0  0  0  0  0  0  0  0  0  0  0
    6.5821   -2.8788   -9.9841 C   0  0  0  0  0  0  0  0  0  0  0  0
    6.1463   -1.8280   -9.1971 C   0  0  0  0  0  0  0  0  0  0  0  0
    5.7850   -3.9519  -10.1799 F   0  0  0  0  0  0  0  0  0  0  0  0
    8.2623   -3.8579  -11.3397 F   0  0  0  0  0  0  0  0  0  0  0  0
    1.4449   -1.3400   -1.1279 C   0  0  0  0  0  0  0  0  0  0  0  0
    1.2788    1.5644   -0.0071 C   0  0  2  0  0  0  0  0  0  0  0  0
    1.1714    2.6491   -0.0049 H   0  0  0  0  0  0  0  0  0  0  0  0
    2.0587    1.1267    1.2343 C   0  0  0  0  0  0  0  0  0  0  0  0
   -0.0149    0.9576    0.0047 O   0  0  0  0  0  0  0  0  0  0  0  0
    3.8370    3.6501   -1.3463 H   0  0  0  0  0  0  0  0  0  0  0  0
    3.0683    3.9084   -2.9308 H   0  0  0  0  0  0  0  0  0  0  0  0
    2.0763    3.8881   -1.4530 H   0  0  0  0  0  0  0  0  0  0  0  0
    4.8117    1.9808   -6.7684 H   0  0  0  0  0  0  0  0  0  0  0  0
    6.2696    1.6871   -5.7905 H   0  0  0  0  0  0  0  0  0  0  0  0
    6.7792    1.2480   -8.4251 H   0  0  0  0  0  0  0  0  0  0  0  0
    8.8581    0.1797   -9.4394 H   0  0  0  0  0  0  0  0  0  0  0  0
    9.6326   -1.6970  -10.8299 H   0  0  0  0  0  0  0  0  0  0  0  0
    5.1687   -1.8645   -8.7396 H   0  0  0  0  0  0  0  0  0  0  0  0
    0.4458   -1.4629   -1.5459 H   0  0  0  0  0  0  0  0  0  0  0  0
    2.0432   -2.2234   -1.3507 H   0  0  0  0  0  0  0  0  0  0  0  0
    1.3736   -1.2124   -0.0477 H   0  0  0  0  0  0  0  0  0  0  0  0
    2.1662    0.0420    1.2321 H   0  0  0  0  0  0  0  0  0  0  0  0
    3.0455    1.5896    1.2254 H   0  0  0  0  0  0  0  0  0  0  0  0
    1.5201    1.4367    2.1298 H   0  0  0  0  0  0  0  0  0  0  0  0
    0.0042   -0.0092    0.0035 H   0  0  0  0  0  0  0  0  0  0  0  0
  1  2  1  0  0  0  0
  1 28  1  0  0  0  0
  1 29  1  0  0  0  0
  1 30  1  0  0  0  0
  2  7  2  0  0  0  0
  2  3  1  0  0  0  0
  3  4  2  0  0  0  0
  3 24  1  0  0  0  0
  4  5  1  0  0  0  0
  4 23  1  0  0  0  0
  5  6  1  0  0  0  0
  5  7  1  0  0  0  0
  7  8  1  0  0  0  0
  8  9  2  0  0  0  0
  8 10  1  0  0  0  0
 10 11  1  0  0  0  0
 11 12  1  0  0  0  0
 11 31  1  0  0  0  0
 11 32  1  0  0  0  0
 12 13  2  0  0  0  0
 12 14  1  0  0  0  0
 14 15  1  0  0  0  0
 14 33  1  0  0  0  0
 15 20  2  0  0  0  0
 15 16  1  0  0  0  0
 16 17  2  0  0  0  0
 16 34  1  0  0  0  0
 17 18  1  0  0  0  0
 17 35  1  0  0  0  0
 18 19  2  0  0  0  0
 18 22  1  0  0  0  0
 19 20  1  0  0  0  0
 19 21  1  0  0  0  0
 20 36  1  0  0  0  0
 23 37  1  0  0  0  0
 23 38  1  0  0  0  0
 23 39  1  0  0  0  0
 24 25  1  0  0  0  0
 24 26  1  0  0  0  0
 24 27  1  0  0  0  0
 26 40  1  0  0  0  0
 26 41  1  0  0  0  0
 26 42  1  0  0  0  0
 27 43  1  0  0  0  0
M  END
$$$$
ZINC03543304
  -OEChem-08230709453D

 43 44  0     1  0  0  0  0  0999 V2000
    2.9127    3.4599   -1.9677 C   0  0  0  0  0  0  0  0  0  0  0  0
    2.7192    1.9731   -2.1190 C   0  0  0  0  0  0  0  0  0  0  0  0
    1.9797    1.1402   -1.2742 C   0  0  0  0  0  0  0  0  0  0  0  0
    2.0543   -0.1205   -1.7648 C   0  0  0  0  0  0  0  0  0  0  0  0
    2.8151   -0.1135   -2.8795 N   0  0  0  0  0  0  0  0  0  0  0  0
    3.0267   -0.8878   -3.4242 H   0  0  0  0  0  0  0  0  0  0  0  0
    3.2413    1.1744   -3.1159 C   0  0  0  0  0  0  0  0  0  0  0  0
    4.0880    1.6168   -4.2265 C   0  0  0  0  0  0  0  0  0  0  0  0
    4.3968    2.7889   -4.3262 O   0  0  0  0  0  0  0  0  0  0  0  0
    4.5251    0.7242   -5.1385 O   0  0  0  0  0  0  0  0  0  0  0  0
    5.3601    1.2334   -6.2117 C   0  0  0  0  0  0  0  0  0  0  0  0
    5.7494    0.1005   -7.1260 C   0  0  0  0  0  0  0  0  0  0  0  0
    5.3613   -1.0254   -6.8958 O   0  0  0  0  0  0  0  0  0  0  0  0
    6.5288    0.3383   -8.1996 N   0  0  0  0  0  0  0  0  0  0  0  0
    6.9677   -0.7275   -8.9967 C   0  0  0  0  0  0  0  0  0  0  0  0
    6.1474   -1.8288   -9.1979 C   0  0  0  0  0  0  0  0  0  0  0  0
    6.5815   -2.8783   -9.9843 C   0  0  0  0  0  0  0  0  0  0  0  0
    7.8341   -2.8330  -10.5729 C   0  0  0  0  0  0  0  0  0  0  0  0
    8.6553   -1.7360  -10.3747 C   0  0  0  0  0  0  0  0  0  0  0  0
    8.2233   -0.6807   -9.5920 C   0  0  0  0  0  0  0  0  0  0  0  0
    9.0220    0.3924   -9.4027 F   0  0  0  0  0  0  0  0  0  0  0  0
    8.2558   -3.8609  -11.3415 F   0  0  0  0  0  0  0  0  0  0  0  0
    1.3945   -1.3344   -1.1631 C   0  0  0  0  0  0  0  0  0  0  0  0
    1.2279    1.5694   -0.0407 C   0  0  2  0  0  0  0  0  0  0  0  0
    1.1227    2.6543   -0.0384 H   0  0  0  0  0  0  0  0  0  0  0  0
    1.9987    1.1291    1.2054 C   0  0  0  0  0  0  0  0  0  0  0  0
   -0.0672    0.9653   -0.0379 O   0  0  0  0  0  0  0  0  0  0  0  0
    3.7983    3.6512   -1.3617 H   0  0  0  0  0  0  0  0  0  0  0  0
    3.0411    3.9116   -2.9513 H   0  0  0  0  0  0  0  0  0  0  0  0
    2.0388    3.8923   -1.4805 H   0  0  0  0  0  0  0  0  0  0  0  0
    4.8073    1.9834   -6.7775 H   0  0  0  0  0  0  0  0  0  0  0  0
    6.2581    1.6852   -5.7902 H   0  0  0  0  0  0  0  0  0  0  0  0
    6.7859    1.2472   -8.4204 H   0  0  0  0  0  0  0  0  0  0  0  0
    5.1700   -1.8652   -8.7400 H   0  0  0  0  0  0  0  0  0  0  0  0
    5.9429   -3.7352  -10.1406 H   0  0  0  0  0  0  0  0  0  0  0  0
    9.6318   -1.7025  -10.8349 H   0  0  0  0  0  0  0  0  0  0  0  0
    0.3981   -1.4547   -1.5883 H   0  0  0  0  0  0  0  0  0  0  0  0
    1.9923   -2.2191   -1.3823 H   0  0  0  0  0  0  0  0  0  0  0  0
    1.3158   -1.2075   -0.0834 H   0  0  0  0  0  0  0  0  0  0  0  0
    2.1039    0.0441    1.2031 H   0  0  0  0  0  0  0  0  0  0  0  0
    2.9865    1.5898    1.2033 H   0  0  0  0  0  0  0  0  0  0  0  0
    1.4549    1.4395    2.0976 H   0  0  0  0  0  0  0  0  0  0  0  0
   -0.0502   -0.0016   -0.0397 H   0  0  0  0  0  0  0  0  0  0  0  0
  1  2  1  0  0  0  0
  1 28  1  0  0  0  0
  1 29  1  0  0  0  0
  1 30  1  0  0  0  0
  2  7  2  0  0  0  0
  2  3  1  0  0  0  0
  3  4  2  0  0  0  0
  3 24  1  0  0  0  0
  4  5  1  0  0  0  0
  4 23  1  0  0  0  0
  5  6  1  0  0  0  0
  5  7  1  0  0  0  0
  7  8  1  0  0  0  0
  8  9  2  0  0  0  0
  8 10  1  0  0  0  0
 10 11  1  0  0  0  0
 11 12  1  0  0  0  0
 11 31  1  0  0  0  0
 11 32  1  0  0  0  0
 12 13  2  0  0  0  0
 12 14  1  0  0  0  0
 14 15  1  0  0  0  0
 14 33  1  0  0  0  0
 15 20  2  0  0  0  0
 15 16  1  0  0  0  0
 16 17  2  0  0  0  0
 16 34  1  0  0  0  0
 17 18  1  0  0  0  0
 17 35  1  0  0  0  0
 18 19  2  0  0  0  0
 18 22  1  0  0  0  0
 19 20  1  0  0  0  0
 19 36  1  0  0  0  0
 20 21  1  0  0  0  0
 23 37  1  0  0  0  0
 23 38  1  0  0  0  0
 23 39  1  0  0  0  0
 24 25  1  0  0  0  0
 24 26  1  0  0  0  0
 24 27  1  0  0  0  0
 26 40  1  0  0  0  0
 26 41  1  0  0  0  0
 26 42  1  0  0  0  0
 27 43  1  0  0  0  0
M  END
$$$$
ZINC03543351
  -OEChem-08230709453D

 43 44  0     1  0  0  0  0  0999 V2000
    7.1531   -1.2588   -1.3422 C   0  0  0  0  0  0  0  0  0  0  0  0
    7.0409    0.2429   -1.3999 C   0  0  0  0  0  0  0  0  0  0  0  0
    8.0972    1.1579   -1.3651 C   0  0  0  0  0  0  0  0  0  0  0  0
    7.5699    2.4037   -1.4395 C   0  0  0  0  0  0  0  0  0  0  0  0
    6.2265    2.3074   -1.5255 N   0  0  0  0  0  0  0  0  0  0  0  0
    5.6097    3.0529   -1.5942 H   0  0  0  0  0  0  0  0  0  0  0  0
    5.8759    0.9761   -1.4966 C   0  0  0  0  0  0  0  0  0  0  0  0
    4.5155    0.4367   -1.5628 C   0  0  0  0  0  0  0  0  0  0  0  0
    4.3361   -0.7658   -1.5337 O   0  0  0  0  0  0  0  0  0  0  0  0
    3.4619    1.2738   -1.6562 O   0  0  0  0  0  0  0  0  0  0  0  0
    2.1431    0.6692   -1.7176 C   0  0  0  0  0  0  0  0  0  0  0  0
    1.0988    1.7510   -1.8186 C   0  0  0  0  0  0  0  0  0  0  0  0
    1.4331    2.9168   -1.8370 O   0  0  0  0  0  0  0  0  0  0  0  0
   -0.2066    1.4231   -1.8885 N   0  0  0  0  0  0  0  0  0  0  0  0
   -1.1823    2.4275   -1.8786 C   0  0  0  0  0  0  0  0  0  0  0  0
   -0.9760    3.5899   -1.1478 C   0  0  0  0  0  0  0  0  0  0  0  0
   -1.9376    4.5814   -1.1433 C   0  0  0  0  0  0  0  0  0  0  0  0
   -3.1112    4.4122   -1.8584 C   0  0  0  0  0  0  0  0  0  0  0  0
   -3.3211    3.2514   -2.5837 C   0  0  0  0  0  0  0  0  0  0  0  0
   -2.3598    2.2598   -2.5951 C   0  0  0  0  0  0  0  0  0  0  0  0
   -4.0526    5.3812   -1.8489 F   0  0  0  0  0  0  0  0  0  0  0  0
    8.3567    3.6890   -1.4338 C   0  0  0  0  0  0  0  0  0  0  0  0
    9.5620    0.8189   -1.2625 C   0  0  1  0  0  0  0  0  0  0  0  0
   10.1566    1.6995   -1.5057 H   0  0  0  0  0  0  0  0  0  0  0  0
    9.8819    0.3653    0.1633 C   0  0  0  0  0  0  0  0  0  0  0  0
    9.8727   -0.2333   -2.1781 O   0  0  0  0  0  0  0  0  0  0  0  0
    7.2439   -1.6555   -2.3533 H   0  0  0  0  0  0  0  0  0  0  0  0
    8.0341   -1.5354   -0.7629 H   0  0  0  0  0  0  0  0  0  0  0  0
    6.2625   -1.6718   -0.8685 H   0  0  0  0  0  0  0  0  0  0  0  0
    1.9708    0.0809   -0.8164 H   0  0  0  0  0  0  0  0  0  0  0  0
    2.0808    0.0214   -2.5920 H   0  0  0  0  0  0  0  0  0  0  0  0
   -0.4700    0.4916   -1.9496 H   0  0  0  0  0  0  0  0  0  0  0  0
   -0.0626    3.7205   -0.5866 H   0  0  0  0  0  0  0  0  0  0  0  0
   -1.7756    5.4876   -0.5785 H   0  0  0  0  0  0  0  0  0  0  0  0
   -4.2370    3.1216   -3.1411 H   0  0  0  0  0  0  0  0  0  0  0  0
   -2.5237    1.3548   -3.1612 H   0  0  0  0  0  0  0  0  0  0  0  0
    8.6953    3.9122   -2.4455 H   0  0  0  0  0  0  0  0  0  0  0  0
    7.7240    4.5008   -1.0750 H   0  0  0  0  0  0  0  0  0  0  0  0
    9.2200    3.5836   -0.7767 H   0  0  0  0  0  0  0  0  0  0  0  0
    9.2873   -0.5152    0.4064 H   0  0  0  0  0  0  0  0  0  0  0  0
   10.9414    0.1201    0.2375 H   0  0  0  0  0  0  0  0  0  0  0  0
    9.6449    1.1680    0.8617 H   0  0  0  0  0  0  0  0  0  0  0  0
    9.4565   -1.0789   -1.9614 H   0  0  0  0  0  0  0  0  0  0  0  0
  1  2  1  0  0  0  0
  1 27  1  0  0  0  0
  1 28  1  0  0  0  0
  1 29  1  0  0  0  0
  2  7  2  0  0  0  0
  2  3  1  0  0  0  0
  3  4  2  0  0  0  0
  3 23  1  0  0  0  0
  4  5  1  0  0  0  0
  4 22  1  0  0  0  0
  5  6  1  0  0  0  0
  5  7  1  0  0  0  0
  7  8  1  0  0  0  0
  8  9  2  0  0  0  0
  8 10  1  0  0  0  0
 10 11  1  0  0  0  0
 11 12  1  0  0  0  0
 11 30  1  0  0  0  0
 11 31  1  0  0  0  0
 12 13  2  0  0  0  0
 12 14  1  0  0  0  0
 14 15  1  0  0  0  0
 14 32  1  0  0  0  0
 15 20  2  0  0  0  0
 15 16  1  0  0  0  0
 16 17  2  0  0  0  0
 16 33  1  0  0  0  0
 17 18  1  0  0  0  0
 17 34  1  0  0  0  0
 18 19  2  0  0  0  0
 18 21  1  0  0  0  0
 19 20  1  0  0  0  0
 19 35  1  0  0  0  0
 20 36  1  0  0  0  0
 22 37  1  0  0  0  0
 22 38  1  0  0  0  0
 22 39  1  0  0  0  0
 23 24  1  0  0  0  0
 23 25  1  0  0  0  0
 23 26  1  0  0  0  0
 25 40  1  0  0  0  0
 25 41  1  0  0  0  0
 25 42  1  0  0  0  0
 26 43  1  0  0  0  0
M  END
$$$$
ZINC03543352
  -OEChem-08230709453D

 43 44  0     1  0  0  0  0  0999 V2000
    2.9476    3.4569   -1.9461 C   0  0  0  0  0  0  0  0  0  0  0  0
    2.7556    1.9697   -2.0955 C   0  0  0  0  0  0  0  0  0  0  0  0
    2.0234    1.1359   -1.2452 C   0  0  0  0  0  0  0  0  0  0  0  0
    2.0975   -0.1250   -1.7354 C   0  0  0  0  0  0  0  0  0  0  0  0
    2.8502   -0.1171   -2.8555 N   0  0  0  0  0  0  0  0  0  0  0  0
    3.0600   -0.8914   -3.4009 H   0  0  0  0  0  0  0  0  0  0  0  0
    3.2717    1.1715   -3.0959 C   0  0  0  0  0  0  0  0  0  0  0  0
    4.1100    1.6149   -4.2124 C   0  0  0  0  0  0  0  0  0  0  0  0
    4.4153    2.7877   -4.3153 O   0  0  0  0  0  0  0  0  0  0  0  0
    4.5433    0.7225   -5.1264 O   0  0  0  0  0  0  0  0  0  0  0  0
    5.3700    1.2327   -6.2056 C   0  0  0  0  0  0  0  0  0  0  0  0
    5.7560    0.0999   -7.1214 C   0  0  0  0  0  0  0  0  0  0  0  0
    5.3722   -1.0267   -6.8875 O   0  0  0  0  0  0  0  0  0  0  0  0
    6.5278    0.3385   -8.2002 N   0  0  0  0  0  0  0  0  0  0  0  0
    6.9667   -0.7264   -8.9965 C   0  0  0  0  0  0  0  0  0  0  0  0
    8.2207   -0.6792   -9.5909 C   0  0  0  0  0  0  0  0  0  0  0  0
    8.6540   -1.7332  -10.3712 C   0  0  0  0  0  0  0  0  0  0  0  0
    7.8343   -2.8314  -10.5703 C   0  0  0  0  0  0  0  0  0  0  0  0
    6.5811   -2.8778   -9.9830 C   0  0  0  0  0  0  0  0  0  0  0  0
    6.1463   -1.8285   -9.1973 C   0  0  0  0  0  0  0  0  0  0  0  0
    8.2580   -3.8590  -11.3382 F   0  0  0  0  0  0  0  0  0  0  0  0
    1.4448   -1.3400   -1.1280 C   0  0  0  0  0  0  0  0  0  0  0  0
    1.2787    1.5644   -0.0071 C   0  0  2  0  0  0  0  0  0  0  0  0
    1.1713    2.6491   -0.0049 H   0  0  0  0  0  0  0  0  0  0  0  0
    2.0586    1.1267    1.2343 C   0  0  0  0  0  0  0  0  0  0  0  0
   -0.0150    0.9576    0.0046 O   0  0  0  0  0  0  0  0  0  0  0  0
    3.8370    3.6500   -1.3463 H   0  0  0  0  0  0  0  0  0  0  0  0
    3.0683    3.9085   -2.9308 H   0  0  0  0  0  0  0  0  0  0  0  0
    2.0763    3.8881   -1.4531 H   0  0  0  0  0  0  0  0  0  0  0  0
    4.8117    1.9808   -6.7684 H   0  0  0  0  0  0  0  0  0  0  0  0
    6.2696    1.6871   -5.7905 H   0  0  0  0  0  0  0  0  0  0  0  0
    6.7792    1.2480   -8.4251 H   0  0  0  0  0  0  0  0  0  0  0  0
    8.8585    0.1791   -9.4395 H   0  0  0  0  0  0  0  0  0  0  0  0
    9.6312   -1.6990  -10.8299 H   0  0  0  0  0  0  0  0  0  0  0  0
    5.9434   -3.7354  -10.1392 H   0  0  0  0  0  0  0  0  0  0  0  0
    5.1690   -1.8652   -8.7392 H   0  0  0  0  0  0  0  0  0  0  0  0
    0.4457   -1.4629   -1.5460 H   0  0  0  0  0  0  0  0  0  0  0  0
    2.0431   -2.2234   -1.3508 H   0  0  0  0  0  0  0  0  0  0  0  0
    1.3735   -1.2124   -0.0478 H   0  0  0  0  0  0  0  0  0  0  0  0
    2.1661    0.0420    1.2321 H   0  0  0  0  0  0  0  0  0  0  0  0
    3.0455    1.5895    1.2253 H   0  0  0  0  0  0  0  0  0  0  0  0
    1.5200    1.4366    2.1298 H   0  0  0  0  0  0  0  0  0  0  0  0
    0.0041   -0.0092    0.0034 H   0  0  0  0  0  0  0  0  0  0  0  0
  1  2  1  0  0  0  0
  1 27  1  0  0  0  0
  1 28  1  0  0  0  0
  1 29  1  0  0  0  0
  2  7  2  0  0  0  0
  2  3  1  0  0  0  0
  3  4  2  0  0  0  0
  3 23  1  0  0  0  0
  4  5  1  0  0  0  0
  4 22  1  0  0  0  0
  5  6  1  0  0  0  0
  5  7  1  0  0  0  0
  7  8  1  0  0  0  0
  8  9  2  0  0  0  0
  8 10  1  0  0  0  0
 10 11  1  0  0  0  0
 11 12  1  0  0  0  0
 11 30  1  0  0  0  0
 11 31  1  0  0  0  0
 12 13  2  0  0  0  0
 12 14  1  0  0  0  0
 14 15  1  0  0  0  0
 14 32  1  0  0  0  0
 15 20  2  0  0  0  0
 15 16  1  0  0  0  0
 16 17  2  0  0  0  0
 16 33  1  0  0  0  0
 17 18  1  0  0  0  0
 17 34  1  0  0  0  0
 18 19  2  0  0  0  0
 18 21  1  0  0  0  0
 19 20  1  0  0  0  0
 19 35  1  0  0  0  0
 20 36  1  0  0  0  0
 22 37  1  0  0  0  0
 22 38  1  0  0  0  0
 22 39  1  0  0  0  0
 23 24  1  0  0  0  0
 23 25  1  0  0  0  0
 23 26  1  0  0  0  0
 25 40  1  0  0  0  0
 25 41  1  0  0  0  0
 25 42  1  0  0  0  0
 26 43  1  0  0  0  0
M  END
$$$$
ZINC03543357
  -OEChem-08230709453D

 43 44  0     1  0  0  0  0  0999 V2000
   -1.0973   -0.7483    0.3377 C   0  0  0  0  0  0  0  0  0  0  0  0
    0.1063    0.1445    0.1790 C   0  0  0  0  0  0  0  0  0  0  0  0
    1.4330   -0.2676    0.0233 C   0  0  0  0  0  0  0  0  0  0  0  0
    2.2024    0.8423   -0.0856 C   0  0  0  0  0  0  0  0  0  0  0  0
    1.4127    1.9337   -0.0047 N   0  0  0  0  0  0  0  0  0  0  0  0
    1.7141    2.8543   -0.0543 H   0  0  0  0  0  0  0  0  0  0  0  0
    0.1083    1.5243    0.1597 C   0  0  0  0  0  0  0  0  0  0  0  0
   -1.0637    2.3944    0.2847 C   0  0  0  0  0  0  0  0  0  0  0  0
   -2.1702    1.9082    0.4208 O   0  0  0  0  0  0  0  0  0  0  0  0
   -0.9156    3.7346    0.2488 O   0  0  0  0  0  0  0  0  0  0  0  0
   -2.1203    4.5347    0.3787 C   0  0  0  0  0  0  0  0  0  0  0  0
   -1.7614    5.9970    0.3165 C   0  0  0  0  0  0  0  0  0  0  0  0
   -0.6042    6.3319    0.1765 O   0  0  0  0  0  0  0  0  0  0  0  0
   -2.7264    6.9325    0.4164 N   0  0  0  0  0  0  0  0  0  0  0  0
   -2.3845    8.2888    0.4569 C   0  0  0  0  0  0  0  0  0  0  0  0
   -3.1269    9.1707    1.2316 C   0  0  0  0  0  0  0  0  0  0  0  0
   -2.7842   10.5079    1.2741 C   0  0  0  0  0  0  0  0  0  0  0  0
   -1.7096   10.9717    0.5378 C   0  0  0  0  0  0  0  0  0  0  0  0
   -0.9707   10.0970   -0.2393 C   0  0  0  0  0  0  0  0  0  0  0  0
   -1.3059    8.7564   -0.2816 C   0  0  0  0  0  0  0  0  0  0  0  0
    0.3776   10.6836   -1.1621 Cl  0  0  0  0  0  0  0  0  0  0  0  0
    3.6984    0.8559   -0.2673 C   0  0  0  0  0  0  0  0  0  0  0  0
    1.9208   -1.6929   -0.0159 C   0  0  1  0  0  0  0  0  0  0  0  0
    2.9446   -1.7165   -0.3893 H   0  0  0  0  0  0  0  0  0  0  0  0
    1.8785   -2.2854    1.3941 C   0  0  0  0  0  0  0  0  0  0  0  0
    1.0807   -2.4603   -0.8804 O   0  0  0  0  0  0  0  0  0  0  0  0
   -1.5113   -0.9781   -0.6441 H   0  0  0  0  0  0  0  0  0  0  0  0
   -0.8009   -1.6732    0.8325 H   0  0  0  0  0  0  0  0  0  0  0  0
   -1.8503   -0.2395    0.9396 H   0  0  0  0  0  0  0  0  0  0  0  0
   -2.8057    4.2939   -0.4340 H   0  0  0  0  0  0  0  0  0  0  0  0
   -2.5990    4.3183    1.3338 H   0  0  0  0  0  0  0  0  0  0  0  0
   -3.6580    6.6657    0.4602 H   0  0  0  0  0  0  0  0  0  0  0  0
   -3.9694    8.8104    1.8033 H   0  0  0  0  0  0  0  0  0  0  0  0
   -3.3592   11.1930    1.8794 H   0  0  0  0  0  0  0  0  0  0  0  0
   -1.4466   12.0188    0.5690 H   0  0  0  0  0  0  0  0  0  0  0  0
   -0.7293    8.0738   -0.8881 H   0  0  0  0  0  0  0  0  0  0  0  0
    3.9348    0.9331   -1.3286 H   0  0  0  0  0  0  0  0  0  0  0  0
    4.1209    1.7099    0.2621 H   0  0  0  0  0  0  0  0  0  0  0  0
    4.1214   -0.0654    0.1330 H   0  0  0  0  0  0  0  0  0  0  0  0
    0.8548   -2.2618    1.7676 H   0  0  0  0  0  0  0  0  0  0  0  0
    2.2313   -3.3163    1.3658 H   0  0  0  0  0  0  0  0  0  0  0  0
    2.5194   -1.7000    2.0535 H   0  0  0  0  0  0  0  0  0  0  0  0
    0.1426   -2.4277   -0.6478 H   0  0  0  0  0  0  0  0  0  0  0  0
  1  2  1  0  0  0  0
  1 27  1  0  0  0  0
  1 28  1  0  0  0  0
  1 29  1  0  0  0  0
  2  7  2  0  0  0  0
  2  3  1  0  0  0  0
  3  4  2  0  0  0  0
  3 23  1  0  0  0  0
  4  5  1  0  0  0  0
  4 22  1  0  0  0  0
  5  6  1  0  0  0  0
  5  7  1  0  0  0  0
  7  8  1  0  0  0  0
  8  9  2  0  0  0  0
  8 10  1  0  0  0  0
 10 11  1  0  0  0  0
 11 12  1  0  0  0  0
 11 30  1  0  0  0  0
 11 31  1  0  0  0  0
 12 13  2  0  0  0  0
 12 14  1  0  0  0  0
 14 15  1  0  0  0  0
 14 32  1  0  0  0  0
 15 20  2  0  0  0  0
 15 16  1  0  0  0  0
 16 17  2  0  0  0  0
 16 33  1  0  0  0  0
 17 18  1  0  0  0  0
 17 34  1  0  0  0  0
 18 19  2  0  0  0  0
 18 35  1  0  0  0  0
 19 20  1  0  0  0  0
 19 21  1  0  0  0  0
 20 36  1  0  0  0  0
 22 37  1  0  0  0  0
 22 38  1  0  0  0  0
 22 39  1  0  0  0  0
 23 24  1  0  0  0  0
 23 25  1  0  0  0  0
 23 26  1  0  0  0  0
 25 40  1  0  0  0  0
 25 41  1  0  0  0  0
 25 42  1  0  0  0  0
 26 43  1  0  0  0  0
M  END
$$$$
ZINC03543358
  -OEChem-08230709453D

 43 44  0     1  0  0  0  0  0999 V2000
    2.9476    3.4570   -1.9461 C   0  0  0  0  0  0  0  0  0  0  0  0
    2.7557    1.9697   -2.0954 C   0  0  0  0  0  0  0  0  0  0  0  0
    2.0235    1.1359   -1.2451 C   0  0  0  0  0  0  0  0  0  0  0  0
    2.0976   -0.1250   -1.7353 C   0  0  0  0  0  0  0  0  0  0  0  0
    2.8504   -0.1171   -2.8554 N   0  0  0  0  0  0  0  0  0  0  0  0
    3.0601   -0.8914   -3.4008 H   0  0  0  0  0  0  0  0  0  0  0  0
    3.2718    1.1715   -3.0958 C   0  0  0  0  0  0  0  0  0  0  0  0
    4.1100    1.6149   -4.2124 C   0  0  0  0  0  0  0  0  0  0  0  0
    4.4153    2.7877   -4.3153 O   0  0  0  0  0  0  0  0  0  0  0  0
    4.5433    0.7225   -5.1264 O   0  0  0  0  0  0  0  0  0  0  0  0
    5.3700    1.2327   -6.2056 C   0  0  0  0  0  0  0  0  0  0  0  0
    5.7561    0.0999   -7.1213 C   0  0  0  0  0  0  0  0  0  0  0  0
    5.3723   -1.0267   -6.8875 O   0  0  0  0  0  0  0  0  0  0  0  0
    6.5278    0.3385   -8.2002 N   0  0  0  0  0  0  0  0  0  0  0  0
    6.9664   -0.7256   -8.9959 C   0  0  0  0  0  0  0  0  0  0  0  0
    8.2207   -0.6788   -9.5907 C   0  0  0  0  0  0  0  0  0  0  0  0
    8.6534   -1.7327  -10.3713 C   0  0  0  0  0  0  0  0  0  0  0  0
    7.8352   -2.8295  -10.5703 C   0  0  0  0  0  0  0  0  0  0  0  0
    6.5829   -2.8774   -9.9837 C   0  0  0  0  0  0  0  0  0  0  0  0
    6.1464   -1.8277   -9.1970 C   0  0  0  0  0  0  0  0  0  0  0  0
    5.5589   -4.2563  -10.2362 Cl  0  0  0  0  0  0  0  0  0  0  0  0
    1.4450   -1.3400   -1.1278 C   0  0  0  0  0  0  0  0  0  0  0  0
    1.2789    1.5644   -0.0070 C   0  0  2  0  0  0  0  0  0  0  0  0
    1.1714    2.6491   -0.0048 H   0  0  0  0  0  0  0  0  0  0  0  0
    2.0588    1.1267    1.2344 C   0  0  0  0  0  0  0  0  0  0  0  0
   -0.0148    0.9576    0.0047 O   0  0  0  0  0  0  0  0  0  0  0  0
    3.8371    3.6501   -1.3463 H   0  0  0  0  0  0  0  0  0  0  0  0
    3.0683    3.9084   -2.9308 H   0  0  0  0  0  0  0  0  0  0  0  0
    2.0763    3.8880   -1.4530 H   0  0  0  0  0  0  0  0  0  0  0  0
    4.8116    1.9808   -6.7684 H   0  0  0  0  0  0  0  0  0  0  0  0
    6.2696    1.6871   -5.7905 H   0  0  0  0  0  0  0  0  0  0  0  0
    6.7791    1.2480   -8.4251 H   0  0  0  0  0  0  0  0  0  0  0  0
    8.8586    0.1795   -9.4398 H   0  0  0  0  0  0  0  0  0  0  0  0
    9.6302   -1.6980  -10.8307 H   0  0  0  0  0  0  0  0  0  0  0  0
    8.1741   -3.6502  -11.1851 H   0  0  0  0  0  0  0  0  0  0  0  0
    5.1690   -1.8651   -8.7391 H   0  0  0  0  0  0  0  0  0  0  0  0
    0.4459   -1.4630   -1.5458 H   0  0  0  0  0  0  0  0  0  0  0  0
    2.0433   -2.2234   -1.3506 H   0  0  0  0  0  0  0  0  0  0  0  0
    1.3738   -1.2124   -0.0477 H   0  0  0  0  0  0  0  0  0  0  0  0
    2.1663    0.0420    1.2322 H   0  0  0  0  0  0  0  0  0  0  0  0
    3.0456    1.5896    1.2254 H   0  0  0  0  0  0  0  0  0  0  0  0
    1.5202    1.4367    2.1299 H   0  0  0  0  0  0  0  0  0  0  0  0
    0.0043   -0.0092    0.0035 H   0  0  0  0  0  0  0  0  0  0  0  0
  1  2  1  0  0  0  0
  1 27  1  0  0  0  0
  1 28  1  0  0  0  0
  1 29  1  0  0  0  0
  2  7  2  0  0  0  0
  2  3  1  0  0  0  0
  3  4  2  0  0  0  0
  3 23  1  0  0  0  0
  4  5  1  0  0  0  0
  4 22  1  0  0  0  0
  5  6  1  0  0  0  0
  5  7  1  0  0  0  0
  7  8  1  0  0  0  0
  8  9  2  0  0  0  0
  8 10  1  0  0  0  0
 10 11  1  0  0  0  0
 11 12  1  0  0  0  0
 11 30  1  0  0  0  0
 11 31  1  0  0  0  0
 12 13  2  0  0  0  0
 12 14  1  0  0  0  0
 14 15  1  0  0  0  0
 14 32  1  0  0  0  0
 15 20  2  0  0  0  0
 15 16  1  0  0  0  0
 16 17  2  0  0  0  0
 16 33  1  0  0  0  0
 17 18  1  0  0  0  0
 17 34  1  0  0  0  0
 18 19  2  0  0  0  0
 18 35  1  0  0  0  0
 19 20  1  0  0  0  0
 19 21  1  0  0  0  0
 20 36  1  0  0  0  0
 22 37  1  0  0  0  0
 22 38  1  0  0  0  0
 22 39  1  0  0  0  0
 23 24  1  0  0  0  0
 23 25  1  0  0  0  0
 23 26  1  0  0  0  0
 25 40  1  0  0  0  0
 25 41  1  0  0  0  0
 25 42  1  0  0  0  0
 26 43  1  0  0  0  0
M  END
$$$$
ZINC03543913
  -OEChem-08230709453D

 43 44  0     1  0  0  0  0  0999 V2000
   -1.0966   -0.7483    0.3377 C   0  0  0  0  0  0  0  0  0  0  0  0
    0.1068    0.1448    0.1790 C   0  0  0  0  0  0  0  0  0  0  0  0
    1.4336   -0.2671    0.0235 C   0  0  0  0  0  0  0  0  0  0  0  0
    2.2029    0.8429   -0.0855 C   0  0  0  0  0  0  0  0  0  0  0  0
    1.4129    1.9341   -0.0047 N   0  0  0  0  0  0  0  0  0  0  0  0
    1.7142    2.8548   -0.0544 H   0  0  0  0  0  0  0  0  0  0  0  0
    0.1086    1.5246    0.1596 C   0  0  0  0  0  0  0  0  0  0  0  0
   -1.0636    2.3944    0.2844 C   0  0  0  0  0  0  0  0  0  0  0  0
   -2.1700    1.9081    0.4205 O   0  0  0  0  0  0  0  0  0  0  0  0
   -0.9157    3.7347    0.2485 O   0  0  0  0  0  0  0  0  0  0  0  0
   -2.1206    4.5345    0.3781 C   0  0  0  0  0  0  0  0  0  0  0  0
   -1.7619    5.9969    0.3158 C   0  0  0  0  0  0  0  0  0  0  0  0
   -0.6047    6.3321    0.1759 O   0  0  0  0  0  0  0  0  0  0  0  0
   -2.7271    6.9323    0.4155 N   0  0  0  0  0  0  0  0  0  0  0  0
   -2.3854    8.2886    0.4560 C   0  0  0  0  0  0  0  0  0  0  0  0
   -3.1281    9.1704    1.2307 C   0  0  0  0  0  0  0  0  0  0  0  0
   -2.7865   10.5078    1.2732 C   0  0  0  0  0  0  0  0  0  0  0  0
   -1.7119   10.9726    0.5376 C   0  0  0  0  0  0  0  0  0  0  0  0
   -0.9719   10.0978   -0.2402 C   0  0  0  0  0  0  0  0  0  0  0  0
   -1.3070    8.7562   -0.2825 C   0  0  0  0  0  0  0  0  0  0  0  0
    0.0773   10.5548   -0.9582 F   0  0  0  0  0  0  0  0  0  0  0  0
    3.6988    0.8567   -0.2670 C   0  0  0  0  0  0  0  0  0  0  0  0
    1.9217   -1.6924   -0.0155 C   0  0  1  0  0  0  0  0  0  0  0  0
    2.9455   -1.7158   -0.3889 H   0  0  0  0  0  0  0  0  0  0  0  0
    1.8793   -2.2847    1.3945 C   0  0  0  0  0  0  0  0  0  0  0  0
    1.0817   -2.4600   -0.8800 O   0  0  0  0  0  0  0  0  0  0  0  0
   -1.5105   -0.9782   -0.6441 H   0  0  0  0  0  0  0  0  0  0  0  0
   -0.8001   -1.6731    0.8326 H   0  0  0  0  0  0  0  0  0  0  0  0
   -1.8498   -0.2396    0.9395 H   0  0  0  0  0  0  0  0  0  0  0  0
   -2.8058    4.2936   -0.4346 H   0  0  0  0  0  0  0  0  0  0  0  0
   -2.5993    4.3182    1.3332 H   0  0  0  0  0  0  0  0  0  0  0  0
   -3.6586    6.6653    0.4593 H   0  0  0  0  0  0  0  0  0  0  0  0
   -3.9705    8.8096    1.8022 H   0  0  0  0  0  0  0  0  0  0  0  0
   -3.3620   11.1924    1.8786 H   0  0  0  0  0  0  0  0  0  0  0  0
   -1.4495   12.0198    0.5695 H   0  0  0  0  0  0  0  0  0  0  0  0
   -0.7302    8.0736   -0.8890 H   0  0  0  0  0  0  0  0  0  0  0  0
    3.9353    0.9339   -1.3283 H   0  0  0  0  0  0  0  0  0  0  0  0
    4.1212    1.7108    0.2624 H   0  0  0  0  0  0  0  0  0  0  0  0
    4.1220   -0.0645    0.1335 H   0  0  0  0  0  0  0  0  0  0  0  0
    0.8555   -2.2613    1.7679 H   0  0  0  0  0  0  0  0  0  0  0  0
    2.2323   -3.3156    1.3663 H   0  0  0  0  0  0  0  0  0  0  0  0
    2.5200   -1.6992    2.0540 H   0  0  0  0  0  0  0  0  0  0  0  0
    0.1436   -2.4275   -0.6475 H   0  0  0  0  0  0  0  0  0  0  0  0
  1  2  1  0  0  0  0
  1 27  1  0  0  0  0
  1 28  1  0  0  0  0
  1 29  1  0  0  0  0
  2  7  2  0  0  0  0
  2  3  1  0  0  0  0
  3  4  2  0  0  0  0
  3 23  1  0  0  0  0
  4  5  1  0  0  0  0
  4 22  1  0  0  0  0
  5  6  1  0  0  0  0
  5  7  1  0  0  0  0
  7  8  1  0  0  0  0
  8  9  2  0  0  0  0
  8 10  1  0  0  0  0
 10 11  1  0  0  0  0
 11 12  1  0  0  0  0
 11 30  1  0  0  0  0
 11 31  1  0  0  0  0
 12 13  2  0  0  0  0
 12 14  1  0  0  0  0
 14 15  1  0  0  0  0
 14 32  1  0  0  0  0
 15 20  2  0  0  0  0
 15 16  1  0  0  0  0
 16 17  2  0  0  0  0
 16 33  1  0  0  0  0
 17 18  1  0  0  0  0
 17 34  1  0  0  0  0
 18 19  2  0  0  0  0
 18 35  1  0  0  0  0
 19 20  1  0  0  0  0
 19 21  1  0  0  0  0
 20 36  1  0  0  0  0
 22 37  1  0  0  0  0
 22 38  1  0  0  0  0
 22 39  1  0  0  0  0
 23 24  1  0  0  0  0
 23 25  1  0  0  0  0
 23 26  1  0  0  0  0
 25 40  1  0  0  0  0
 25 41  1  0  0  0  0
 25 42  1  0  0  0  0
 26 43  1  0  0  0  0
M  END
$$$$
ZINC03543914
  -OEChem-08230709453D

 43 44  0     1  0  0  0  0  0999 V2000
    2.9476    3.4570   -1.9461 C   0  0  0  0  0  0  0  0  0  0  0  0
    2.7557    1.9697   -2.0954 C   0  0  0  0  0  0  0  0  0  0  0  0
    2.0236    1.1359   -1.2450 C   0  0  0  0  0  0  0  0  0  0  0  0
    2.0978   -0.1250   -1.7352 C   0  0  0  0  0  0  0  0  0  0  0  0
    2.8505   -0.1172   -2.8553 N   0  0  0  0  0  0  0  0  0  0  0  0
    3.0603   -0.8914   -3.4007 H   0  0  0  0  0  0  0  0  0  0  0  0
    3.2719    1.1715   -3.0958 C   0  0  0  0  0  0  0  0  0  0  0  0
    4.1101    1.6149   -4.2124 C   0  0  0  0  0  0  0  0  0  0  0  0
    4.4153    2.7877   -4.3153 O   0  0  0  0  0  0  0  0  0  0  0  0
    4.5434    0.7225   -5.1264 O   0  0  0  0  0  0  0  0  0  0  0  0
    5.3700    1.2327   -6.2056 C   0  0  0  0  0  0  0  0  0  0  0  0
    5.7561    0.0999   -7.1213 C   0  0  0  0  0  0  0  0  0  0  0  0
    5.3724   -1.0267   -6.8874 O   0  0  0  0  0  0  0  0  0  0  0  0
    6.5278    0.3385   -8.2002 N   0  0  0  0  0  0  0  0  0  0  0  0
    6.9664   -0.7256   -8.9959 C   0  0  0  0  0  0  0  0  0  0  0  0
    8.2208   -0.6786   -9.5907 C   0  0  0  0  0  0  0  0  0  0  0  0
    8.6540   -1.7320  -10.3717 C   0  0  0  0  0  0  0  0  0  0  0  0
    7.8368   -2.8293  -10.5710 C   0  0  0  0  0  0  0  0  0  0  0  0
    6.5833   -2.8779   -9.9842 C   0  0  0  0  0  0  0  0  0  0  0  0
    6.1464   -1.8274   -9.1968 C   0  0  0  0  0  0  0  0  0  0  0  0
    5.7867   -3.9512  -10.1809 F   0  0  0  0  0  0  0  0  0  0  0  0
    1.4452   -1.3400   -1.1277 C   0  0  0  0  0  0  0  0  0  0  0  0
    1.2790    1.5644   -0.0069 C   0  0  2  0  0  0  0  0  0  0  0  0
    1.1715    2.6491   -0.0048 H   0  0  0  0  0  0  0  0  0  0  0  0
    2.0590    1.1268    1.2344 C   0  0  0  0  0  0  0  0  0  0  0  0
   -0.0147    0.9575    0.0048 O   0  0  0  0  0  0  0  0  0  0  0  0
    3.8371    3.6501   -1.3463 H   0  0  0  0  0  0  0  0  0  0  0  0
    3.0683    3.9084   -2.9308 H   0  0  0  0  0  0  0  0  0  0  0  0
    2.0763    3.8880   -1.4530 H   0  0  0  0  0  0  0  0  0  0  0  0
    4.8116    1.9808   -6.7684 H   0  0  0  0  0  0  0  0  0  0  0  0
    6.2696    1.6872   -5.7905 H   0  0  0  0  0  0  0  0  0  0  0  0
    6.7791    1.2480   -8.4251 H   0  0  0  0  0  0  0  0  0  0  0  0
    8.8584    0.1798   -9.4396 H   0  0  0  0  0  0  0  0  0  0  0  0
    9.6309   -1.6967  -10.8309 H   0  0  0  0  0  0  0  0  0  0  0  0
    8.1764   -3.6499  -11.1856 H   0  0  0  0  0  0  0  0  0  0  0  0
    5.1690   -1.8649   -8.7390 H   0  0  0  0  0  0  0  0  0  0  0  0
    0.4461   -1.4630   -1.5457 H   0  0  0  0  0  0  0  0  0  0  0  0
    2.0435   -2.2235   -1.3505 H   0  0  0  0  0  0  0  0  0  0  0  0
    1.3739   -1.2124   -0.0475 H   0  0  0  0  0  0  0  0  0  0  0  0
    2.1665    0.0421    1.2323 H   0  0  0  0  0  0  0  0  0  0  0  0
    3.0457    1.5897    1.2254 H   0  0  0  0  0  0  0  0  0  0  0  0
    1.5204    1.4367    2.1299 H   0  0  0  0  0  0  0  0  0  0  0  0
    0.0044   -0.0093    0.0037 H   0  0  0  0  0  0  0  0  0  0  0  0
  1  2  1  0  0  0  0
  1 27  1  0  0  0  0
  1 28  1  0  0  0  0
  1 29  1  0  0  0  0
  2  7  2  0  0  0  0
  2  3  1  0  0  0  0
  3  4  2  0  0  0  0
  3 23  1  0  0  0  0
  4  5  1  0  0  0  0
  4 22  1  0  0  0  0
  5  6  1  0  0  0  0
  5  7  1  0  0  0  0
  7  8  1  0  0  0  0
  8  9  2  0  0  0  0
  8 10  1  0  0  0  0
 10 11  1  0  0  0  0
 11 12  1  0  0  0  0
 11 30  1  0  0  0  0
 11 31  1  0  0  0  0
 12 13  2  0  0  0  0
 12 14  1  0  0  0  0
 14 15  1  0  0  0  0
 14 32  1  0  0  0  0
 15 20  2  0  0  0  0
 15 16  1  0  0  0  0
 16 17  2  0  0  0  0
 16 33  1  0  0  0  0
 17 18  1  0  0  0  0
 17 34  1  0  0  0  0
 18 19  2  0  0  0  0
 18 35  1  0  0  0  0
 19 20  1  0  0  0  0
 19 21  1  0  0  0  0
 20 36  1  0  0  0  0
 22 37  1  0  0  0  0
 22 38  1  0  0  0  0
 22 39  1  0  0  0  0
 23 24  1  0  0  0  0
 23 25  1  0  0  0  0
 23 26  1  0  0  0  0
 25 40  1  0  0  0  0
 25 41  1  0  0  0  0
 25 42  1  0  0  0  0
 26 43  1  0  0  0  0
M  END
$$$$
ZINC03543919
  -OEChem-08230709453D

 42 43  0     1  0  0  0  0  0999 V2000
  -10.1652    4.7061   -0.5517 C   0  0  0  0  0  0  0  0  0  0  0  0
   -9.6908    3.2762   -0.5189 C   0  0  0  0  0  0  0  0  0  0  0  0
  -10.4918    2.1322   -0.5834 C   0  0  0  0  0  0  0  0  0  0  0  0
   -9.6773    1.0512   -0.5231 C   0  0  0  0  0  0  0  0  0  0  0  0
   -8.3978    1.4701   -0.4294 N   0  0  0  0  0  0  0  0  0  0  0  0
   -7.6177    0.8962   -0.3760 H   0  0  0  0  0  0  0  0  0  0  0  0
   -8.3831    2.8470   -0.4190 C   0  0  0  0  0  0  0  0  0  0  0  0
   -7.1959    3.7001   -0.3254 C   0  0  0  0  0  0  0  0  0  0  0  0
   -7.3148    4.9105   -0.3317 O   0  0  0  0  0  0  0  0  0  0  0  0
   -5.9708    3.1432   -0.2322 O   0  0  0  0  0  0  0  0  0  0  0  0
   -4.8398    4.0494   -0.1428 C   0  0  0  0  0  0  0  0  0  0  0  0
   -3.5642    3.2528   -0.0463 C   0  0  0  0  0  0  0  0  0  0  0  0
   -3.6044    2.0406   -0.0522 O   0  0  0  0  0  0  0  0  0  0  0  0
   -2.3789    3.8874    0.0467 N   0  0  0  0  0  0  0  0  0  0  0  0
   -1.1885    3.1505    0.0467 C   0  0  0  0  0  0  0  0  0  0  0  0
   -1.1368    1.8920    0.6394 C   0  0  0  0  0  0  0  0  0  0  0  0
    0.0655    1.2036    0.6193 C   0  0  0  0  0  0  0  0  0  0  0  0
    1.1630    1.7783    0.0063 C   0  0  0  0  0  0  0  0  0  0  0  0
    1.0806    2.9702   -0.5524 N   0  0  0  0  0  0  0  0  0  0  0  0
   -0.0425    3.6618   -0.5511 C   0  0  0  0  0  0  0  0  0  0  0  0
   -0.0897    5.2259   -1.3027 Cl  0  0  0  0  0  0  0  0  0  0  0  0
  -10.1270   -0.3867   -0.5611 C   0  0  0  0  0  0  0  0  0  0  0  0
  -11.9941    2.1062   -0.6989 C   0  0  1  0  0  0  0  0  0  0  0  0
  -12.3940    3.0917   -0.4603 H   0  0  0  0  0  0  0  0  0  0  0  0
  -12.3893    1.7276   -2.1277 C   0  0  0  0  0  0  0  0  0  0  0  0
  -12.5254    1.1430    0.2133 O   0  0  0  0  0  0  0  0  0  0  0  0
  -10.2009    5.0535   -1.5842 H   0  0  0  0  0  0  0  0  0  0  0  0
  -11.1610    4.7687   -0.1127 H   0  0  0  0  0  0  0  0  0  0  0  0
   -9.4770    5.3305    0.0181 H   0  0  0  0  0  0  0  0  0  0  0  0
   -4.9451    4.6756    0.7432 H   0  0  0  0  0  0  0  0  0  0  0  0
   -4.8082    4.6798   -1.0315 H   0  0  0  0  0  0  0  0  0  0  0  0
   -2.3505    4.8547    0.1136 H   0  0  0  0  0  0  0  0  0  0  0  0
   -2.0113    1.4646    1.1073 H   0  0  0  0  0  0  0  0  0  0  0  0
    0.1431    0.2269    1.0737 H   0  0  0  0  0  0  0  0  0  0  0  0
    2.1011    1.2436   -0.0159 H   0  0  0  0  0  0  0  0  0  0  0  0
  -10.1564   -0.7309   -1.5949 H   0  0  0  0  0  0  0  0  0  0  0  0
   -9.4283   -1.0010    0.0067 H   0  0  0  0  0  0  0  0  0  0  0  0
  -11.1216   -0.4680   -0.1226 H   0  0  0  0  0  0  0  0  0  0  0  0
  -11.9894    0.7421   -2.3662 H   0  0  0  0  0  0  0  0  0  0  0  0
  -13.4759    1.7088   -2.2112 H   0  0  0  0  0  0  0  0  0  0  0  0
  -11.9841    2.4623   -2.8235 H   0  0  0  0  0  0  0  0  0  0  0  0
  -13.4896    1.0722    0.1932 H   0  0  0  0  0  0  0  0  0  0  0  0
  1  2  1  0  0  0  0
  1 27  1  0  0  0  0
  1 28  1  0  0  0  0
  1 29  1  0  0  0  0
  2  7  2  0  0  0  0
  2  3  1  0  0  0  0
  3  4  2  0  0  0  0
  3 23  1  0  0  0  0
  4  5  1  0  0  0  0
  4 22  1  0  0  0  0
  5  6  1  0  0  0  0
  5  7  1  0  0  0  0
  7  8  1  0  0  0  0
  8  9  2  0  0  0  0
  8 10  1  0  0  0  0
 10 11  1  0  0  0  0
 11 12  1  0  0  0  0
 11 30  1  0  0  0  0
 11 31  1  0  0  0  0
 12 13  2  0  0  0  0
 12 14  1  0  0  0  0
 14 15  1  0  0  0  0
 14 32  1  0  0  0  0
 15 20  2  0  0  0  0
 15 16  1  0  0  0  0
 16 17  2  0  0  0  0
 16 33  1  0  0  0  0
 17 18  1  0  0  0  0
 17 34  1  0  0  0  0
 18 19  2  0  0  0  0
 18 35  1  0  0  0  0
 19 20  1  0  0  0  0
 20 21  1  0  0  0  0
 22 36  1  0  0  0  0
 22 37  1  0  0  0  0
 22 38  1  0  0  0  0
 23 24  1  0  0  0  0
 23 25  1  0  0  0  0
 23 26  1  0  0  0  0
 25 39  1  0  0  0  0
 25 40  1  0  0  0  0
 25 41  1  0  0  0  0
 26 42  1  0  0  0  0
M  END
$$$$
ZINC03543921
  -OEChem-08230709453D

 43 44  0     1  0  0  0  0  0999 V2000
   -6.6958    2.3463   -0.0166 C   0  0  0  0  0  0  0  0  0  0  0  0
   -6.1530    0.9404   -0.0191 C   0  0  0  0  0  0  0  0  0  0  0  0
   -6.9015   -0.2403   -0.0248 C   0  0  0  0  0  0  0  0  0  0  0  0
   -6.0345   -1.2814   -0.0249 C   0  0  0  0  0  0  0  0  0  0  0  0
   -4.7729   -0.8022   -0.0255 N   0  0  0  0  0  0  0  0  0  0  0  0
   -3.9646   -1.3384   -0.0299 H   0  0  0  0  0  0  0  0  0  0  0  0
   -4.8226    0.5739   -0.0159 C   0  0  0  0  0  0  0  0  0  0  0  0
   -3.6735    1.4825   -0.0097 C   0  0  0  0  0  0  0  0  0  0  0  0
   -3.8498    2.6858   -0.0069 O   0  0  0  0  0  0  0  0  0  0  0  0
   -2.4199    0.9844   -0.0070 O   0  0  0  0  0  0  0  0  0  0  0  0
   -1.3296    1.9433   -0.0009 C   0  0  0  0  0  0  0  0  0  0  0  0
   -0.0141    1.2082    0.0013 C   0  0  0  0  0  0  0  0  0  0  0  0
    0.0029   -0.0046   -0.0020 O   0  0  0  0  0  0  0  0  0  0  0  0
    1.1435    1.8984    0.0013 N   0  0  0  0  0  0  0  0  0  0  0  0
    2.3643    1.2182    0.0917 C   0  0  0  0  0  0  0  0  0  0  0  0
    2.5137   -0.0248   -0.5074 C   0  0  0  0  0  0  0  0  0  0  0  0
    3.7224   -0.6922   -0.4204 C   0  0  0  0  0  0  0  0  0  0  0  0
    4.7793   -0.1258    0.2726 C   0  0  0  0  0  0  0  0  0  0  0  0
    4.6316    1.1099    0.8748 C   0  0  0  0  0  0  0  0  0  0  0  0
    3.4273    1.7842    0.7868 C   0  0  0  0  0  0  0  0  0  0  0  0
    3.2840    2.9918    1.3752 F   0  0  0  0  0  0  0  0  0  0  0  0
    3.8703   -1.8999   -1.0076 F   0  0  0  0  0  0  0  0  0  0  0  0
   -6.4172   -2.7390   -0.0301 C   0  0  0  0  0  0  0  0  0  0  0  0
   -8.4053   -0.3376   -0.0294 C   0  0  1  0  0  0  0  0  0  0  0  0
   -8.8329    0.6287    0.2382 H   0  0  0  0  0  0  0  0  0  0  0  0
   -8.8861   -0.7391   -1.4254 C   0  0  0  0  0  0  0  0  0  0  0  0
   -8.8219   -1.3219    0.9191 O   0  0  0  0  0  0  0  0  0  0  0  0
   -6.8237    2.6883   -1.0436 H   0  0  0  0  0  0  0  0  0  0  0  0
   -7.6584    2.3632    0.4945 H   0  0  0  0  0  0  0  0  0  0  0  0
   -5.9979    3.0043    0.5012 H   0  0  0  0  0  0  0  0  0  0  0  0
   -1.3990    2.5667    0.8906 H   0  0  0  0  0  0  0  0  0  0  0  0
   -1.3933    2.5716   -0.8893 H   0  0  0  0  0  0  0  0  0  0  0  0
    1.1311    2.8663   -0.0613 H   0  0  0  0  0  0  0  0  0  0  0  0
    1.6885   -0.4687   -1.0445 H   0  0  0  0  0  0  0  0  0  0  0  0
    5.7206   -0.6506    0.3430 H   0  0  0  0  0  0  0  0  0  0  0  0
    5.4574    1.5489    1.4149 H   0  0  0  0  0  0  0  0  0  0  0  0
   -6.5061   -3.0876   -1.0590 H   0  0  0  0  0  0  0  0  0  0  0  0
   -5.6502   -3.3178    0.4846 H   0  0  0  0  0  0  0  0  0  0  0  0
   -7.3719   -2.8659    0.4804 H   0  0  0  0  0  0  0  0  0  0  0  0
   -8.4586   -1.7054   -1.6929 H   0  0  0  0  0  0  0  0  0  0  0  0
   -9.9738   -0.8095   -1.4287 H   0  0  0  0  0  0  0  0  0  0  0  0
   -8.5684    0.0117   -2.1489 H   0  0  0  0  0  0  0  0  0  0  0  0
   -9.7805   -1.4382    0.9700 H   0  0  0  0  0  0  0  0  0  0  0  0
  1  2  1  0  0  0  0
  1 28  1  0  0  0  0
  1 29  1  0  0  0  0
  1 30  1  0  0  0  0
  2  7  2  0  0  0  0
  2  3  1  0  0  0  0
  3  4  2  0  0  0  0
  3 24  1  0  0  0  0
  4  5  1  0  0  0  0
  4 23  1  0  0  0  0
  5  6  1  0  0  0  0
  5  7  1  0  0  0  0
  7  8  1  0  0  0  0
  8  9  2  0  0  0  0
  8 10  1  0  0  0  0
 10 11  1  0  0  0  0
 11 12  1  0  0  0  0
 11 31  1  0  0  0  0
 11 32  1  0  0  0  0
 12 13  2  0  0  0  0
 12 14  1  0  0  0  0
 14 15  1  0  0  0  0
 14 33  1  0  0  0  0
 15 20  2  0  0  0  0
 15 16  1  0  0  0  0
 16 17  2  0  0  0  0
 16 34  1  0  0  0  0
 17 18  1  0  0  0  0
 17 22  1  0  0  0  0
 18 19  2  0  0  0  0
 18 35  1  0  0  0  0
 19 20  1  0  0  0  0
 19 36  1  0  0  0  0
 20 21  1  0  0  0  0
 23 37  1  0  0  0  0
 23 38  1  0  0  0  0
 23 39  1  0  0  0  0
 24 25  1  0  0  0  0
 24 26  1  0  0  0  0
 24 27  1  0  0  0  0
 26 40  1  0  0  0  0
 26 41  1  0  0  0  0
 26 42  1  0  0  0  0
 27 43  1  0  0  0  0
M  END
$$$$
ZINC03543922
  -OEChem-08230709453D

 43 44  0     1  0  0  0  0  0999 V2000
    2.9138    3.4598   -1.9669 C   0  0  0  0  0  0  0  0  0  0  0  0
    2.7197    1.9730   -2.1187 C   0  0  0  0  0  0  0  0  0  0  0  0
    1.9803    1.1401   -1.2738 C   0  0  0  0  0  0  0  0  0  0  0  0
    2.0549   -0.1206   -1.7644 C   0  0  0  0  0  0  0  0  0  0  0  0
    2.8149   -0.1134   -2.8797 N   0  0  0  0  0  0  0  0  0  0  0  0
    3.0265   -0.8877   -3.4243 H   0  0  0  0  0  0  0  0  0  0  0  0
    3.2406    1.1745   -3.1164 C   0  0  0  0  0  0  0  0  0  0  0  0
    4.0870    1.6170   -4.2271 C   0  0  0  0  0  0  0  0  0  0  0  0
    4.3954    2.7892   -4.3272 O   0  0  0  0  0  0  0  0  0  0  0  0
    4.5243    0.7244   -5.1390 O   0  0  0  0  0  0  0  0  0  0  0  0
    5.3590    1.2337   -6.2124 C   0  0  0  0  0  0  0  0  0  0  0  0
    5.7486    0.1007   -7.1265 C   0  0  0  0  0  0  0  0  0  0  0  0
    5.3609   -1.0253   -6.8961 O   0  0  0  0  0  0  0  0  0  0  0  0
    6.5278    0.3385   -8.2002 N   0  0  0  0  0  0  0  0  0  0  0  0
    6.9667   -0.7265   -8.9966 C   0  0  0  0  0  0  0  0  0  0  0  0
    6.1470   -1.8283   -9.1976 C   0  0  0  0  0  0  0  0  0  0  0  0
    6.5819   -2.8771   -9.9880 C   0  0  0  0  0  0  0  0  0  0  0  0
    7.8375   -2.8324  -10.5708 C   0  0  0  0  0  0  0  0  0  0  0  0
    8.6580   -1.7382  -10.3683 C   0  0  0  0  0  0  0  0  0  0  0  0
    8.2269   -0.6848   -9.5827 C   0  0  0  0  0  0  0  0  0  0  0  0
    9.0293    0.3840   -9.3853 F   0  0  0  0  0  0  0  0  0  0  0  0
    5.7828   -3.9479  -10.1880 F   0  0  0  0  0  0  0  0  0  0  0  0
    1.3958   -1.3346   -1.1622 C   0  0  0  0  0  0  0  0  0  0  0  0
    1.2286    1.5693   -0.0402 C   0  0  2  0  0  0  0  0  0  0  0  0
    1.1234    2.6542   -0.0379 H   0  0  0  0  0  0  0  0  0  0  0  0
    1.9995    1.1290    1.2058 C   0  0  0  0  0  0  0  0  0  0  0  0
   -0.0665    0.9652   -0.0373 O   0  0  0  0  0  0  0  0  0  0  0  0
    3.7997    3.6505   -1.3613 H   0  0  0  0  0  0  0  0  0  0  0  0
    3.0418    3.9117   -2.9505 H   0  0  0  0  0  0  0  0  0  0  0  0
    2.0402    3.8923   -1.4792 H   0  0  0  0  0  0  0  0  0  0  0  0
    4.8059    1.9833   -6.7783 H   0  0  0  0  0  0  0  0  0  0  0  0
    6.2569    1.6858   -5.7912 H   0  0  0  0  0  0  0  0  0  0  0  0
    6.7845    1.2474   -8.4213 H   0  0  0  0  0  0  0  0  0  0  0  0
    5.1695   -1.8655   -8.7400 H   0  0  0  0  0  0  0  0  0  0  0  0
    8.1764   -3.6540  -11.1843 H   0  0  0  0  0  0  0  0  0  0  0  0
    9.6367   -1.7063  -10.8237 H   0  0  0  0  0  0  0  0  0  0  0  0
    0.3991   -1.4552   -1.5867 H   0  0  0  0  0  0  0  0  0  0  0  0
    1.9937   -2.2192   -1.3818 H   0  0  0  0  0  0  0  0  0  0  0  0
    1.3178   -1.2077   -0.0824 H   0  0  0  0  0  0  0  0  0  0  0  0
    2.1047    0.0441    1.2035 H   0  0  0  0  0  0  0  0  0  0  0  0
    2.9873    1.5898    1.2036 H   0  0  0  0  0  0  0  0  0  0  0  0
    1.4558    1.4394    2.0981 H   0  0  0  0  0  0  0  0  0  0  0  0
   -0.0494   -0.0017   -0.0391 H   0  0  0  0  0  0  0  0  0  0  0  0
  1  2  1  0  0  0  0
  1 28  1  0  0  0  0
  1 29  1  0  0  0  0
  1 30  1  0  0  0  0
  2  7  2  0  0  0  0
  2  3  1  0  0  0  0
  3  4  2  0  0  0  0
  3 24  1  0  0  0  0
  4  5  1  0  0  0  0
  4 23  1  0  0  0  0
  5  6  1  0  0  0  0
  5  7  1  0  0  0  0
  7  8  1  0  0  0  0
  8  9  2  0  0  0  0
  8 10  1  0  0  0  0
 10 11  1  0  0  0  0
 11 12  1  0  0  0  0
 11 31  1  0  0  0  0
 11 32  1  0  0  0  0
 12 13  2  0  0  0  0
 12 14  1  0  0  0  0
 14 15  1  0  0  0  0
 14 33  1  0  0  0  0
 15 20  2  0  0  0  0
 15 16  1  0  0  0  0
 16 17  2  0  0  0  0
 16 34  1  0  0  0  0
 17 18  1  0  0  0  0
 17 22  1  0  0  0  0
 18 19  2  0  0  0  0
 18 35  1  0  0  0  0
 19 20  1  0  0  0  0
 19 36  1  0  0  0  0
 20 21  1  0  0  0  0
 23 37  1  0  0  0  0
 23 38  1  0  0  0  0
 23 39  1  0  0  0  0
 24 25  1  0  0  0  0
 24 26  1  0  0  0  0
 24 27  1  0  0  0  0
 26 40  1  0  0  0  0
 26 41  1  0  0  0  0
 26 42  1  0  0  0  0
 27 43  1  0  0  0  0
M  END
$$$$
ZINC03543923
  -OEChem-08230709453D

 46 47  0     1  0  0  0  0  0999 V2000
    2.3940    1.2722    1.0250 C   0  0  0  0  0  0  0  0  0  0  0  0
    1.1305    1.8887    0.4822 C   0  0  0  0  0  0  0  0  0  0  0  0
   -0.0575    1.1854    0.5304 C   0  0  0  0  0  0  0  0  0  0  0  0
   -1.2161    1.7468    0.0274 C   0  0  0  0  0  0  0  0  0  0  0  0
   -1.1921    3.0207   -0.5163 C   0  0  0  0  0  0  0  0  0  0  0  0
   -0.0052    3.7291   -0.5670 C   0  0  0  0  0  0  0  0  0  0  0  0
    1.1603    3.1638   -0.0671 C   0  0  0  0  0  0  0  0  0  0  0  0
    2.3626    3.8777   -0.1164 N   0  0  0  0  0  0  0  0  0  0  0  0
    2.3451    5.2244   -0.1681 C   0  0  0  0  0  0  0  0  0  0  0  0
    1.2936    5.8213   -0.0726 O   0  0  0  0  0  0  0  0  0  0  0  0
    3.6319    5.9885   -0.3447 C   0  0  0  0  0  0  0  0  0  0  0  0
    3.3497    7.4126   -0.3695 O   0  0  0  0  0  0  0  0  0  0  0  0
    4.4018    8.2429   -0.5221 C   0  0  0  0  0  0  0  0  0  0  0  0
    5.5245    7.7881   -0.6314 O   0  0  0  0  0  0  0  0  0  0  0  0
    4.1922    9.6923   -0.5562 C   0  0  0  0  0  0  0  0  0  0  0  0
    5.1694   10.6551   -0.7055 C   0  0  0  0  0  0  0  0  0  0  0  0
    4.5264   11.8962   -0.6821 C   0  0  0  0  0  0  0  0  0  0  0  0
    3.1996   11.6733   -0.5225 C   0  0  0  0  0  0  0  0  0  0  0  0
    2.9833   10.3431   -0.4509 N   0  0  0  0  0  0  0  0  0  0  0  0
    2.1192    9.9161   -0.3413 H   0  0  0  0  0  0  0  0  0  0  0  0
    2.1363   12.7385   -0.4443 C   0  0  0  0  0  0  0  0  0  0  0  0
    5.1910   13.2426   -0.8108 C   0  0  1  0  0  0  0  0  0  0  0  0
    4.4352   14.0039   -1.0038 H   0  0  0  0  0  0  0  0  0  0  0  0
    5.9283   13.5737    0.4883 C   0  0  0  0  0  0  0  0  0  0  0  0
    6.1235   13.2120   -1.8932 O   0  0  0  0  0  0  0  0  0  0  0  0
    6.6487   10.4144   -0.8634 C   0  0  0  0  0  0  0  0  0  0  0  0
   -2.3272    3.5692   -1.0021 F   0  0  0  0  0  0  0  0  0  0  0  0
    2.8993    0.7212    0.2318 H   0  0  0  0  0  0  0  0  0  0  0  0
    3.0511    2.0583    1.3969 H   0  0  0  0  0  0  0  0  0  0  0  0
    2.1453    0.5912    1.8390 H   0  0  0  0  0  0  0  0  0  0  0  0
   -0.0801    0.1938    0.9577 H   0  0  0  0  0  0  0  0  0  0  0  0
   -2.1426    1.1928    0.0620 H   0  0  0  0  0  0  0  0  0  0  0  0
    0.0150    4.7205   -0.9951 H   0  0  0  0  0  0  0  0  0  0  0  0
    3.2088    3.4035   -0.1133 H   0  0  0  0  0  0  0  0  0  0  0  0
    4.3035    5.7656    0.4843 H   0  0  0  0  0  0  0  0  0  0  0  0
    4.1029    5.6951   -1.2829 H   0  0  0  0  0  0  0  0  0  0  0  0
    1.8277   13.0184   -1.4515 H   0  0  0  0  0  0  0  0  0  0  0  0
    1.2770   12.3544    0.1054 H   0  0  0  0  0  0  0  0  0  0  0  0
    2.5352   13.6129    0.0697 H   0  0  0  0  0  0  0  0  0  0  0  0
    6.6841   12.8124    0.6813 H   0  0  0  0  0  0  0  0  0  0  0  0
    6.4090   14.5476    0.3952 H   0  0  0  0  0  0  0  0  0  0  0  0
    5.2170   13.5971    1.3139 H   0  0  0  0  0  0  0  0  0  0  0  0
    6.7820   12.5071   -1.8252 H   0  0  0  0  0  0  0  0  0  0  0  0
    6.8898   10.3158   -1.9218 H   0  0  0  0  0  0  0  0  0  0  0  0
    7.2005   11.2545   -0.4418 H   0  0  0  0  0  0  0  0  0  0  0  0
    6.9256    9.4988   -0.3409 H   0  0  0  0  0  0  0  0  0  0  0  0
  1  2  1  0  0  0  0
  1 28  1  0  0  0  0
  1 29  1  0  0  0  0
  1 30  1  0  0  0  0
  2  7  2  0  0  0  0
  2  3  1  0  0  0  0
  3  4  2  0  0  0  0
  3 31  1  0  0  0  0
  4  5  1  0  0  0  0
  4 32  1  0  0  0  0
  5  6  2  0  0  0  0
  5 27  1  0  0  0  0
  6  7  1  0  0  0  0
  6 33  1  0  0  0  0
  7  8  1  0  0  0  0
  8  9  1  0  0  0  0
  8 34  1  0  0  0  0
  9 10  2  0  0  0  0
  9 11  1  0  0  0  0
 11 12  1  0  0  0  0
 11 35  1  0  0  0  0
 11 36  1  0  0  0  0
 12 13  1  0  0  0  0
 13 14  2  0  0  0  0
 13 15  1  0  0  0  0
 15 19  1  0  0  0  0
 15 16  2  0  0  0  0
 16 17  1  0  0  0  0
 16 26  1  0  0  0  0
 17 18  2  0  0  0  0
 17 22  1  0  0  0  0
 18 19  1  0  0  0  0
 18 21  1  0  0  0  0
 19 20  1  0  0  0  0
 21 37  1  0  0  0  0
 21 38  1  0  0  0  0
 21 39  1  0  0  0  0
 22 23  1  0  0  0  0
 22 24  1  0  0  0  0
 22 25  1  0  0  0  0
 24 40  1  0  0  0  0
 24 41  1  0  0  0  0
 24 42  1  0  0  0  0
 25 43  1  0  0  0  0
 26 44  1  0  0  0  0
 26 45  1  0  0  0  0
 26 46  1  0  0  0  0
M  END
$$$$
ZINC03543924
  -OEChem-08230709453D

 46 47  0     1  0  0  0  0  0999 V2000
    1.3689   13.6840    2.7236 C   0  0  0  0  0  0  0  0  0  0  0  0
    0.8635   13.6093    1.3058 C   0  0  0  0  0  0  0  0  0  0  0  0
    0.2988   14.7225    0.7141 C   0  0  0  0  0  0  0  0  0  0  0  0
   -0.1657   14.6558   -0.5861 C   0  0  0  0  0  0  0  0  0  0  0  0
   -0.0665   13.4726   -1.2998 C   0  0  0  0  0  0  0  0  0  0  0  0
    0.5029   12.3567   -0.7137 C   0  0  0  0  0  0  0  0  0  0  0  0
    0.9650   12.4213    0.5940 C   0  0  0  0  0  0  0  0  0  0  0  0
    1.5372   11.2929    1.1917 N   0  0  0  0  0  0  0  0  0  0  0  0
    1.2145   10.0605    0.7516 C   0  0  0  0  0  0  0  0  0  0  0  0
    0.3548    9.9240   -0.0930 O   0  0  0  0  0  0  0  0  0  0  0  0
    1.9218    8.8522    1.3089 C   0  0  0  0  0  0  0  0  0  0  0  0
    1.3996    7.6525    0.6795 O   0  0  0  0  0  0  0  0  0  0  0  0
    1.9305    6.4755    1.0697 C   0  0  0  0  0  0  0  0  0  0  0  0
    2.8063    6.4533    1.9133 O   0  0  0  0  0  0  0  0  0  0  0  0
    1.4522    5.2239    0.4773 C   0  0  0  0  0  0  0  0  0  0  0  0
    1.8978    3.9540    0.7821 C   0  0  0  0  0  0  0  0  0  0  0  0
    1.1736    3.0647   -0.0172 C   0  0  0  0  0  0  0  0  0  0  0  0
    0.3135    3.7906   -0.7715 C   0  0  0  0  0  0  0  0  0  0  0  0
    0.4721    5.0991   -0.4818 N   0  0  0  0  0  0  0  0  0  0  0  0
   -0.0224    5.8308   -0.8831 H   0  0  0  0  0  0  0  0  0  0  0  0
   -0.6625    3.2277   -1.7724 C   0  0  0  0  0  0  0  0  0  0  0  0
    1.3190    1.5648   -0.0324 C   0  0  2  0  0  0  0  0  0  0  0  0
    1.8794    1.2452    0.8461 H   0  0  0  0  0  0  0  0  0  0  0  0
    2.0664    1.1377   -1.2973 C   0  0  0  0  0  0  0  0  0  0  0  0
    0.0242    0.9605   -0.0173 O   0  0  0  0  0  0  0  0  0  0  0  0
    2.9648    3.5943    1.7837 C   0  0  0  0  0  0  0  0  0  0  0  0
   -0.5214   13.4103   -2.5704 F   0  0  0  0  0  0  0  0  0  0  0  0
    2.4158   13.9876    2.7206 H   0  0  0  0  0  0  0  0  0  0  0  0
    0.7808   14.4130    3.2810 H   0  0  0  0  0  0  0  0  0  0  0  0
    1.2757   12.7055    3.1946 H   0  0  0  0  0  0  0  0  0  0  0  0
    0.2204   15.6463    1.2680 H   0  0  0  0  0  0  0  0  0  0  0  0
   -0.6065   15.5277   -1.0464 H   0  0  0  0  0  0  0  0  0  0  0  0
    0.5842   11.4352   -1.2711 H   0  0  0  0  0  0  0  0  0  0  0  0
    2.1661   11.3976    1.9227 H   0  0  0  0  0  0  0  0  0  0  0  0
    1.7571    8.7990    2.3851 H   0  0  0  0  0  0  0  0  0  0  0  0
    2.9903    8.9320    1.1084 H   0  0  0  0  0  0  0  0  0  0  0  0
   -1.6095    3.0150   -1.2764 H   0  0  0  0  0  0  0  0  0  0  0  0
   -0.8248    3.9535   -2.5693 H   0  0  0  0  0  0  0  0  0  0  0  0
   -0.2592    2.3077   -2.1954 H   0  0  0  0  0  0  0  0  0  0  0  0
    1.5060    1.4573   -2.1758 H   0  0  0  0  0  0  0  0  0  0  0  0
    3.0541    1.5986   -1.3088 H   0  0  0  0  0  0  0  0  0  0  0  0
    2.1716    0.0528   -1.3083 H   0  0  0  0  0  0  0  0  0  0  0  0
    0.0412   -0.0063   -0.0259 H   0  0  0  0  0  0  0  0  0  0  0  0
    3.9372    3.5850    1.2912 H   0  0  0  0  0  0  0  0  0  0  0  0
    2.9717    4.3306    2.5874 H   0  0  0  0  0  0  0  0  0  0  0  0
    2.7574    2.6073    2.1970 H   0  0  0  0  0  0  0  0  0  0  0  0
  1  2  1  0  0  0  0
  1 28  1  0  0  0  0
  1 29  1  0  0  0  0
  1 30  1  0  0  0  0
  2  7  2  0  0  0  0
  2  3  1  0  0  0  0
  3  4  2  0  0  0  0
  3 31  1  0  0  0  0
  4  5  1  0  0  0  0
  4 32  1  0  0  0  0
  5  6  2  0  0  0  0
  5 27  1  0  0  0  0
  6  7  1  0  0  0  0
  6 33  1  0  0  0  0
  7  8  1  0  0  0  0
  8  9  1  0  0  0  0
  8 34  1  0  0  0  0
  9 10  2  0  0  0  0
  9 11  1  0  0  0  0
 11 12  1  0  0  0  0
 11 35  1  0  0  0  0
 11 36  1  0  0  0  0
 12 13  1  0  0  0  0
 13 14  2  0  0  0  0
 13 15  1  0  0  0  0
 15 19  1  0  0  0  0
 15 16  2  0  0  0  0
 16 17  1  0  0  0  0
 16 26  1  0  0  0  0
 17 18  2  0  0  0  0
 17 22  1  0  0  0  0
 18 19  1  0  0  0  0
 18 21  1  0  0  0  0
 19 20  1  0  0  0  0
 21 37  1  0  0  0  0
 21 38  1  0  0  0  0
 21 39  1  0  0  0  0
 22 23  1  0  0  0  0
 22 24  1  0  0  0  0
 22 25  1  0  0  0  0
 24 40  1  0  0  0  0
 24 41  1  0  0  0  0
 24 42  1  0  0  0  0
 25 43  1  0  0  0  0
 26 44  1  0  0  0  0
 26 45  1  0  0  0  0
 26 46  1  0  0  0  0
M  END
$$$$
ZINC03543925
  -OEChem-08230709453D

 46 47  0     1  0  0  0  0  0999 V2000
    2.4951    1.0546   -0.0377 C   0  0  0  0  0  0  0  0  0  0  0  0
    1.1794    1.7891   -0.0157 C   0  0  0  0  0  0  0  0  0  0  0  0
    1.0437    2.9393    0.7395 C   0  0  0  0  0  0  0  0  0  0  0  0
   -0.1624    3.6115    0.7668 C   0  0  0  0  0  0  0  0  0  0  0  0
   -1.2376    3.1384    0.0254 C   0  0  0  0  0  0  0  0  0  0  0  0
   -1.1005    1.9835   -0.7325 C   0  0  0  0  0  0  0  0  0  0  0  0
    0.1082    1.3105   -0.7515 C   0  0  0  0  0  0  0  0  0  0  0  0
    0.2436    0.1864   -1.4885 F   0  0  0  0  0  0  0  0  0  0  0  0
   -2.4585    3.8215    0.0470 N   0  0  0  0  0  0  0  0  0  0  0  0
   -3.6156    3.1369   -0.0474 C   0  0  0  0  0  0  0  0  0  0  0  0
   -3.6038    1.9241   -0.0546 O   0  0  0  0  0  0  0  0  0  0  0  0
   -4.9241    3.8783   -0.1439 C   0  0  0  0  0  0  0  0  0  0  0  0
   -6.0152    2.9246   -0.2350 O   0  0  0  0  0  0  0  0  0  0  0  0
   -7.2629    3.4286   -0.3284 C   0  0  0  0  0  0  0  0  0  0  0  0
   -7.4335    4.6328   -0.3336 O   0  0  0  0  0  0  0  0  0  0  0  0
   -8.4124    2.5255   -0.4237 C   0  0  0  0  0  0  0  0  0  0  0  0
   -9.7372    2.8984   -0.5239 C   0  0  0  0  0  0  0  0  0  0  0  0
  -10.4885    1.7213   -0.5901 C   0  0  0  0  0  0  0  0  0  0  0  0
   -9.6286    0.6761   -0.5304 C   0  0  0  0  0  0  0  0  0  0  0  0
   -8.3682    1.1493   -0.4355 N   0  0  0  0  0  0  0  0  0  0  0  0
   -7.5642    0.6092   -0.3822 H   0  0  0  0  0  0  0  0  0  0  0  0
  -10.0162   -0.7797   -0.5702 C   0  0  0  0  0  0  0  0  0  0  0  0
  -11.9883    1.6311   -0.7066 C   0  0  1  0  0  0  0  0  0  0  0  0
  -12.4301    2.5984   -0.4673 H   0  0  0  0  0  0  0  0  0  0  0  0
  -12.3660    1.2375   -2.1361 C   0  0  0  0  0  0  0  0  0  0  0  0
  -12.4784    0.6451    0.2042 O   0  0  0  0  0  0  0  0  0  0  0  0
  -10.2725    4.3068   -0.5556 C   0  0  0  0  0  0  0  0  0  0  0  0
    2.5111    0.3137    0.7616 H   0  0  0  0  0  0  0  0  0  0  0  0
    2.6162    0.5549   -0.9988 H   0  0  0  0  0  0  0  0  0  0  0  0
    3.3097    1.7640    0.1081 H   0  0  0  0  0  0  0  0  0  0  0  0
    1.8807    3.3102    1.3123 H   0  0  0  0  0  0  0  0  0  0  0  0
   -0.2683    4.5071    1.3610 H   0  0  0  0  0  0  0  0  0  0  0  0
   -1.9361    1.6107   -1.3061 H   0  0  0  0  0  0  0  0  0  0  0  0
   -2.4722    4.7879    0.1299 H   0  0  0  0  0  0  0  0  0  0  0  0
   -5.0566    4.4984    0.7426 H   0  0  0  0  0  0  0  0  0  0  0  0
   -4.9189    4.5103   -1.0320 H   0  0  0  0  0  0  0  0  0  0  0  0
  -10.0302   -1.1238   -1.6043 H   0  0  0  0  0  0  0  0  0  0  0  0
   -9.2922   -1.3641   -0.0025 H   0  0  0  0  0  0  0  0  0  0  0  0
  -11.0067   -0.9040   -0.1325 H   0  0  0  0  0  0  0  0  0  0  0  0
  -11.9922    1.9896   -2.8308 H   0  0  0  0  0  0  0  0  0  0  0  0
  -11.9241    0.2702   -2.3754 H   0  0  0  0  0  0  0  0  0  0  0  0
  -13.4508    1.1722   -2.2203 H   0  0  0  0  0  0  0  0  0  0  0  0
  -13.4386    0.5331    0.1834 H   0  0  0  0  0  0  0  0  0  0  0  0
  -10.3223    4.6534   -1.5878 H   0  0  0  0  0  0  0  0  0  0  0  0
  -11.2702    4.3263   -0.1172 H   0  0  0  0  0  0  0  0  0  0  0  0
   -9.6120    4.9594    0.0153 H   0  0  0  0  0  0  0  0  0  0  0  0
  1  2  1  0  0  0  0
  1 28  1  0  0  0  0
  1 29  1  0  0  0  0
  1 30  1  0  0  0  0
  2  7  2  0  0  0  0
  2  3  1  0  0  0  0
  3  4  2  0  0  0  0
  3 31  1  0  0  0  0
  4  5  1  0  0  0  0
  4 32  1  0  0  0  0
  5  6  2  0  0  0  0
  5  9  1  0  0  0  0
  6  7  1  0  0  0  0
  6 33  1  0  0  0  0
  7  8  1  0  0  0  0
  9 10  1  0  0  0  0
  9 34  1  0  0  0  0
 10 11  2  0  0  0  0
 10 12  1  0  0  0  0
 12 13  1  0  0  0  0
 12 35  1  0  0  0  0
 12 36  1  0  0  0  0
 13 14  1  0  0  0  0
 14 15  2  0  0  0  0
 14 16  1  0  0  0  0
 16 20  1  0  0  0  0
 16 17  2  0  0  0  0
 17 18  1  0  0  0  0
 17 27  1  0  0  0  0
 18 19  2  0  0  0  0
 18 23  1  0  0  0  0
 19 20  1  0  0  0  0
 19 22  1  0  0  0  0
 20 21  1  0  0  0  0
 22 37  1  0  0  0  0
 22 38  1  0  0  0  0
 22 39  1  0  0  0  0
 23 24  1  0  0  0  0
 23 25  1  0  0  0  0
 23 26  1  0  0  0  0
 25 40  1  0  0  0  0
 25 41  1  0  0  0  0
 25 42  1  0  0  0  0
 26 43  1  0  0  0  0
 27 44  1  0  0  0  0
 27 45  1  0  0  0  0
 27 46  1  0  0  0  0
M  END
$$$$
ZINC03543926
  -OEChem-08230709453D

 46 47  0     1  0  0  0  0  0999 V2000
    8.3114   -3.9751  -11.4271 C   0  0  0  0  0  0  0  0  0  0  0  0
    7.8371   -2.8297  -10.5702 C   0  0  0  0  0  0  0  0  0  0  0  0
    8.6547   -1.7328  -10.3702 C   0  0  0  0  0  0  0  0  0  0  0  0
    8.2208   -0.6786   -9.5907 C   0  0  0  0  0  0  0  0  0  0  0  0
    6.9664   -0.7256   -8.9959 C   0  0  0  0  0  0  0  0  0  0  0  0
    6.1464   -1.8274   -9.1968 C   0  0  0  0  0  0  0  0  0  0  0  0
    6.5833   -2.8779   -9.9842 C   0  0  0  0  0  0  0  0  0  0  0  0
    5.7867   -3.9512  -10.1809 F   0  0  0  0  0  0  0  0  0  0  0  0
    6.5278    0.3385   -8.2002 N   0  0  0  0  0  0  0  0  0  0  0  0
    5.7561    0.0999   -7.1213 C   0  0  0  0  0  0  0  0  0  0  0  0
    5.3723   -1.0267   -6.8875 O   0  0  0  0  0  0  0  0  0  0  0  0
    5.3700    1.2327   -6.2056 C   0  0  0  0  0  0  0  0  0  0  0  0
    4.5433    0.7225   -5.1264 O   0  0  0  0  0  0  0  0  0  0  0  0
    4.1100    1.6149   -4.2124 C   0  0  0  0  0  0  0  0  0  0  0  0
    4.4153    2.7877   -4.3153 O   0  0  0  0  0  0  0  0  0  0  0  0
    3.2718    1.1715   -3.0958 C   0  0  0  0  0  0  0  0  0  0  0  0
    2.7557    1.9697   -2.0954 C   0  0  0  0  0  0  0  0  0  0  0  0
    2.0235    1.1359   -1.2451 C   0  0  0  0  0  0  0  0  0  0  0  0
    2.0976   -0.1250   -1.7353 C   0  0  0  0  0  0  0  0  0  0  0  0
    2.8504   -0.1171   -2.8554 N   0  0  0  0  0  0  0  0  0  0  0  0
    3.0601   -0.8914   -3.4008 H   0  0  0  0  0  0  0  0  0  0  0  0
    1.4450   -1.3400   -1.1278 C   0  0  0  0  0  0  0  0  0  0  0  0
    1.2789    1.5644   -0.0070 C   0  0  2  0  0  0  0  0  0  0  0  0
    1.1714    2.6491   -0.0048 H   0  0  0  0  0  0  0  0  0  0  0  0
    2.0588    1.1267    1.2344 C   0  0  0  0  0  0  0  0  0  0  0  0
   -0.0148    0.9576    0.0047 O   0  0  0  0  0  0  0  0  0  0  0  0
    2.9476    3.4570   -1.9461 C   0  0  0  0  0  0  0  0  0  0  0  0
    8.0209   -3.7988  -12.4627 H   0  0  0  0  0  0  0  0  0  0  0  0
    9.3968   -4.0522  -11.3623 H   0  0  0  0  0  0  0  0  0  0  0  0
    7.8597   -4.9029  -11.0759 H   0  0  0  0  0  0  0  0  0  0  0  0
    9.6322   -1.6981  -10.8283 H   0  0  0  0  0  0  0  0  0  0  0  0
    8.8584    0.1798   -9.4396 H   0  0  0  0  0  0  0  0  0  0  0  0
    5.1687   -1.8645   -8.7396 H   0  0  0  0  0  0  0  0  0  0  0  0
    6.7791    1.2480   -8.4251 H   0  0  0  0  0  0  0  0  0  0  0  0
    4.8117    1.9808   -6.7684 H   0  0  0  0  0  0  0  0  0  0  0  0
    6.2696    1.6871   -5.7905 H   0  0  0  0  0  0  0  0  0  0  0  0
    0.4459   -1.4630   -1.5458 H   0  0  0  0  0  0  0  0  0  0  0  0
    2.0433   -2.2234   -1.3506 H   0  0  0  0  0  0  0  0  0  0  0  0
    1.3738   -1.2124   -0.0477 H   0  0  0  0  0  0  0  0  0  0  0  0
    2.1663    0.0420    1.2322 H   0  0  0  0  0  0  0  0  0  0  0  0
    3.0456    1.5896    1.2254 H   0  0  0  0  0  0  0  0  0  0  0  0
    1.5202    1.4367    2.1299 H   0  0  0  0  0  0  0  0  0  0  0  0
    0.0043   -0.0092    0.0035 H   0  0  0  0  0  0  0  0  0  0  0  0
    3.8371    3.6501   -1.3463 H   0  0  0  0  0  0  0  0  0  0  0  0
    3.0683    3.9084   -2.9308 H   0  0  0  0  0  0  0  0  0  0  0  0
    2.0763    3.8880   -1.4530 H   0  0  0  0  0  0  0  0  0  0  0  0
  1  2  1  0  0  0  0
  1 28  1  0  0  0  0
  1 29  1  0  0  0  0
  1 30  1  0  0  0  0
  2  7  2  0  0  0  0
  2  3  1  0  0  0  0
  3  4  2  0  0  0  0
  3 31  1  0  0  0  0
  4  5  1  0  0  0  0
  4 32  1  0  0  0  0
  5  6  2  0  0  0  0
  5  9  1  0  0  0  0
  6  7  1  0  0  0  0
  6 33  1  0  0  0  0
  7  8  1  0  0  0  0
  9 10  1  0  0  0  0
  9 34  1  0  0  0  0
 10 11  2  0  0  0  0
 10 12  1  0  0  0  0
 12 13  1  0  0  0  0
 12 35  1  0  0  0  0
 12 36  1  0  0  0  0
 13 14  1  0  0  0  0
 14 15  2  0  0  0  0
 14 16  1  0  0  0  0
 16 20  1  0  0  0  0
 16 17  2  0  0  0  0
 17 18  1  0  0  0  0
 17 27  1  0  0  0  0
 18 19  2  0  0  0  0
 18 23  1  0  0  0  0
 19 20  1  0  0  0  0
 19 22  1  0  0  0  0
 20 21  1  0  0  0  0
 22 37  1  0  0  0  0
 22 38  1  0  0  0  0
 22 39  1  0  0  0  0
 23 24  1  0  0  0  0
 23 25  1  0  0  0  0
 23 26  1  0  0  0  0
 25 40  1  0  0  0  0
 25 41  1  0  0  0  0
 25 42  1  0  0  0  0
 26 43  1  0  0  0  0
 27 44  1  0  0  0  0
 27 45  1  0  0  0  0
 27 46  1  0  0  0  0
M  END
$$$$
ZINC03544217
  -OEChem-08230709453D

 43 44  0     1  0  0  0  0  0999 V2000
    7.8214    1.4833   -0.1956 C   0  0  0  0  0  0  0  0  0  0  0  0
    7.1050    2.7830   -0.4577 C   0  0  0  0  0  0  0  0  0  0  0  0
    7.6980    4.0210   -0.7225 C   0  0  0  0  0  0  0  0  0  0  0  0
    6.7063    4.9271   -0.8989 C   0  0  0  0  0  0  0  0  0  0  0  0
    5.5155    4.3071   -0.7615 N   0  0  0  0  0  0  0  0  0  0  0  0
    4.6459    4.7287   -0.8442 H   0  0  0  0  0  0  0  0  0  0  0  0
    5.7391    2.9775   -0.4815 C   0  0  0  0  0  0  0  0  0  0  0  0
    4.7143    1.9552   -0.2563 C   0  0  0  0  0  0  0  0  0  0  0  0
    5.0414    0.8076   -0.0215 O   0  0  0  0  0  0  0  0  0  0  0  0
    3.4078    2.2867   -0.3093 O   0  0  0  0  0  0  0  0  0  0  0  0
    2.4477    1.2227   -0.0762 C   0  0  0  0  0  0  0  0  0  0  0  0
    1.0498    1.7770   -0.1744 C   0  0  0  0  0  0  0  0  0  0  0  0
    0.8794    2.9531   -0.4170 O   0  0  0  0  0  0  0  0  0  0  0  0
   -0.0111    0.9658    0.0074 N   0  0  0  0  0  0  0  0  0  0  0  0
   -1.3053    1.4989    0.0221 C   0  0  0  0  0  0  0  0  0  0  0  0
   -1.5283    2.7695    0.5361 C   0  0  0  0  0  0  0  0  0  0  0  0
   -2.8052    3.2957    0.5434 C   0  0  0  0  0  0  0  0  0  0  0  0
   -3.8638    2.5530    0.0508 C   0  0  0  0  0  0  0  0  0  0  0  0
   -3.6452    1.2842   -0.4564 C   0  0  0  0  0  0  0  0  0  0  0  0
   -2.3692    0.7559   -0.4721 C   0  0  0  0  0  0  0  0  0  0  0  0
   -5.4688    3.2144    0.0685 Cl  0  0  0  0  0  0  0  0  0  0  0  0
    6.9014    6.3897   -1.2055 C   0  0  0  0  0  0  0  0  0  0  0  0
    9.1774    4.2985   -0.7979 C   0  0  1  0  0  0  0  0  0  0  0  0
    9.7261    3.4651   -0.3592 H   0  0  0  0  0  0  0  0  0  0  0  0
    9.5907    4.4673   -2.2613 C   0  0  0  0  0  0  0  0  0  0  0  0
    9.4746    5.4963   -0.0776 O   0  0  0  0  0  0  0  0  0  0  0  0
    7.9821    0.9605   -1.1385 H   0  0  0  0  0  0  0  0  0  0  0  0
    8.7830    1.6870    0.2754 H   0  0  0  0  0  0  0  0  0  0  0  0
    7.2171    0.8624    0.4657 H   0  0  0  0  0  0  0  0  0  0  0  0
    2.6036    0.8041    0.9181 H   0  0  0  0  0  0  0  0  0  0  0  0
    2.5822    0.4416   -0.8244 H   0  0  0  0  0  0  0  0  0  0  0  0
    0.1220    0.0121    0.1239 H   0  0  0  0  0  0  0  0  0  0  0  0
   -0.7033    3.3475    0.9255 H   0  0  0  0  0  0  0  0  0  0  0  0
   -2.9784    4.2859    0.9384 H   0  0  0  0  0  0  0  0  0  0  0  0
   -4.4730    0.7067   -0.8406 H   0  0  0  0  0  0  0  0  0  0  0  0
   -2.1990   -0.2342   -0.8686 H   0  0  0  0  0  0  0  0  0  0  0  0
    6.9361    6.5330   -2.2855 H   0  0  0  0  0  0  0  0  0  0  0  0
    6.0721    6.9618   -0.7896 H   0  0  0  0  0  0  0  0  0  0  0  0
    7.8370    6.7320   -0.7633 H   0  0  0  0  0  0  0  0  0  0  0  0
    9.3639    3.5536   -2.8106 H   0  0  0  0  0  0  0  0  0  0  0  0
    9.0419    5.3007   -2.7000 H   0  0  0  0  0  0  0  0  0  0  0  0
   10.6607    4.6680   -2.3158 H   0  0  0  0  0  0  0  0  0  0  0  0
   10.4113    5.7367   -0.0837 H   0  0  0  0  0  0  0  0  0  0  0  0
  1  2  1  0  0  0  0
  1 27  1  0  0  0  0
  1 28  1  0  0  0  0
  1 29  1  0  0  0  0
  2  7  2  0  0  0  0
  2  3  1  0  0  0  0
  3  4  2  0  0  0  0
  3 23  1  0  0  0  0
  4  5  1  0  0  0  0
  4 22  1  0  0  0  0
  5  6  1  0  0  0  0
  5  7  1  0  0  0  0
  7  8  1  0  0  0  0
  8  9  2  0  0  0  0
  8 10  1  0  0  0  0
 10 11  1  0  0  0  0
 11 12  1  0  0  0  0
 11 30  1  0  0  0  0
 11 31  1  0  0  0  0
 12 13  2  0  0  0  0
 12 14  1  0  0  0  0
 14 15  1  0  0  0  0
 14 32  1  0  0  0  0
 15 20  2  0  0  0  0
 15 16  1  0  0  0  0
 16 17  2  0  0  0  0
 16 33  1  0  0  0  0
 17 18  1  0  0  0  0
 17 34  1  0  0  0  0
 18 19  2  0  0  0  0
 18 21  1  0  0  0  0
 19 20  1  0  0  0  0
 19 35  1  0  0  0  0
 20 36  1  0  0  0  0
 22 37  1  0  0  0  0
 22 38  1  0  0  0  0
 22 39  1  0  0  0  0
 23 24  1  0  0  0  0
 23 25  1  0  0  0  0
 23 26  1  0  0  0  0
 25 40  1  0  0  0  0
 25 41  1  0  0  0  0
 25 42  1  0  0  0  0
 26 43  1  0  0  0  0
M  END
$$$$
ZINC03544218
  -OEChem-08230709453D

 43 44  0     1  0  0  0  0  0999 V2000
    2.9133    3.5891    1.8351 C   0  0  0  0  0  0  0  0  0  0  0  0
    1.8619    3.9504    0.8178 C   0  0  0  0  0  0  0  0  0  0  0  0
    1.1433    3.0617    0.0126 C   0  0  0  0  0  0  0  0  0  0  0  0
    0.2975    3.7892   -0.7562 C   0  0  0  0  0  0  0  0  0  0  0  0
    0.4596    5.0980   -0.4699 N   0  0  0  0  0  0  0  0  0  0  0  0
   -0.0253    5.8307   -0.8808 H   0  0  0  0  0  0  0  0  0  0  0  0
    1.4275    5.2215    0.5017 C   0  0  0  0  0  0  0  0  0  0  0  0
    1.9049    6.4729    1.0952 C   0  0  0  0  0  0  0  0  0  0  0  0
    2.7692    6.4494    1.9506 O   0  0  0  0  0  0  0  0  0  0  0  0
    1.3859    7.6512    0.6930 O   0  0  0  0  0  0  0  0  0  0  0  0
    1.9065    8.8506    1.3243 C   0  0  0  0  0  0  0  0  0  0  0  0
    1.2134   10.0605    0.7525 C   0  0  0  0  0  0  0  0  0  0  0  0
    0.3644    9.9252   -0.1030 O   0  0  0  0  0  0  0  0  0  0  0  0
    1.5372   11.2929    1.1917 N   0  0  0  0  0  0  0  0  0  0  0  0
    0.9648   12.4217    0.5938 C   0  0  0  0  0  0  0  0  0  0  0  0
    1.7047   13.5893    0.4617 C   0  0  0  0  0  0  0  0  0  0  0  0
    1.1391   14.7002   -0.1329 C   0  0  0  0  0  0  0  0  0  0  0  0
   -0.1672   14.6537   -0.5873 C   0  0  0  0  0  0  0  0  0  0  0  0
   -0.9084   13.4929   -0.4521 C   0  0  0  0  0  0  0  0  0  0  0  0
   -0.3458   12.3776    0.1370 C   0  0  0  0  0  0  0  0  0  0  0  0
   -0.8771   16.0536   -1.3288 Cl  0  0  0  0  0  0  0  0  0  0  0  0
   -0.6682    3.2276   -1.7677 C   0  0  0  0  0  0  0  0  0  0  0  0
    1.2805    1.5610    0.0056 C   0  0  2  0  0  0  0  0  0  0  0  0
    1.8273    1.2420    0.8930 H   0  0  0  0  0  0  0  0  0  0  0  0
    2.0423    1.1243   -1.2473 C   0  0  0  0  0  0  0  0  0  0  0  0
   -0.0178    0.9640    0.0060 O   0  0  0  0  0  0  0  0  0  0  0  0
    3.8921    3.5722    1.3557 H   0  0  0  0  0  0  0  0  0  0  0  0
    2.9136    4.3288    2.6357 H   0  0  0  0  0  0  0  0  0  0  0  0
    2.6948    2.6050    2.2497 H   0  0  0  0  0  0  0  0  0  0  0  0
    1.7270    8.8030    2.3984 H   0  0  0  0  0  0  0  0  0  0  0  0
    2.9779    8.9236    1.1378 H   0  0  0  0  0  0  0  0  0  0  0  0
    2.1668   11.3976    1.9221 H   0  0  0  0  0  0  0  0  0  0  0  0
    2.7228   13.6274    0.8199 H   0  0  0  0  0  0  0  0  0  0  0  0
    1.7156   15.6072   -0.2399 H   0  0  0  0  0  0  0  0  0  0  0  0
   -1.9275   13.4590   -0.8079 H   0  0  0  0  0  0  0  0  0  0  0  0
   -0.9246   11.4718    0.2420 H   0  0  0  0  0  0  0  0  0  0  0  0
   -1.6229    3.0223   -1.2835 H   0  0  0  0  0  0  0  0  0  0  0  0
   -0.8157    3.9507   -2.5698 H   0  0  0  0  0  0  0  0  0  0  0  0
   -0.2645    2.3035   -2.1814 H   0  0  0  0  0  0  0  0  0  0  0  0
    2.1415    0.0388   -1.2523 H   0  0  0  0  0  0  0  0  0  0  0  0
    1.4955    1.4433   -2.1346 H   0  0  0  0  0  0  0  0  0  0  0  0
    3.0326    1.5797   -1.2475 H   0  0  0  0  0  0  0  0  0  0  0  0
   -0.0061   -0.0029    0.0017 H   0  0  0  0  0  0  0  0  0  0  0  0
  1  2  1  0  0  0  0
  1 27  1  0  0  0  0
  1 28  1  0  0  0  0
  1 29  1  0  0  0  0
  2  7  2  0  0  0  0
  2  3  1  0  0  0  0
  3  4  2  0  0  0  0
  3 23  1  0  0  0  0
  4  5  1  0  0  0  0
  4 22  1  0  0  0  0
  5  6  1  0  0  0  0
  5  7  1  0  0  0  0
  7  8  1  0  0  0  0
  8  9  2  0  0  0  0
  8 10  1  0  0  0  0
 10 11  1  0  0  0  0
 11 12  1  0  0  0  0
 11 30  1  0  0  0  0
 11 31  1  0  0  0  0
 12 13  2  0  0  0  0
 12 14  1  0  0  0  0
 14 15  1  0  0  0  0
 14 32  1  0  0  0  0
 15 20  2  0  0  0  0
 15 16  1  0  0  0  0
 16 17  2  0  0  0  0
 16 33  1  0  0  0  0
 17 18  1  0  0  0  0
 17 34  1  0  0  0  0
 18 19  2  0  0  0  0
 18 21  1  0  0  0  0
 19 20  1  0  0  0  0
 19 35  1  0  0  0  0
 20 36  1  0  0  0  0
 22 37  1  0  0  0  0
 22 38  1  0  0  0  0
 22 39  1  0  0  0  0
 23 24  1  0  0  0  0
 23 25  1  0  0  0  0
 23 26  1  0  0  0  0
 25 40  1  0  0  0  0
 25 41  1  0  0  0  0
 25 42  1  0  0  0  0
 26 43  1  0  0  0  0
M  END
$$$$
ZINC03544241
  -OEChem-08230709453D

 43 44  0     1  0  0  0  0  0999 V2000
    0.7093   -0.0156    2.1816 C   0  0  0  0  0  0  0  0  0  0  0  0
    0.3280    1.3621    1.7044 C   0  0  0  0  0  0  0  0  0  0  0  0
   -0.9179    1.7548    1.2066 C   0  0  0  0  0  0  0  0  0  0  0  0
   -0.8413    3.0689    0.8857 C   0  0  0  0  0  0  0  0  0  0  0  0
    0.3990    3.5186    1.1700 N   0  0  0  0  0  0  0  0  0  0  0  0
    0.7155    4.4258    1.0368 H   0  0  0  0  0  0  0  0  0  0  0  0
    1.1424    2.4758    1.6758 C   0  0  0  0  0  0  0  0  0  0  0  0
    2.5414    2.5375    2.1058 C   0  0  0  0  0  0  0  0  0  0  0  0
    3.0892    1.5414    2.5381 O   0  0  0  0  0  0  0  0  0  0  0  0
    3.2221    3.6990    2.0222 O   0  0  0  0  0  0  0  0  0  0  0  0
    4.6045    3.6864    2.4662 C   0  0  0  0  0  0  0  0  0  0  0  0
    5.1982    5.0615    2.2996 C   0  0  0  0  0  0  0  0  0  0  0  0
    4.5227    5.9634    1.8509 O   0  0  0  0  0  0  0  0  0  0  0  0
    6.4798    5.2890    2.6492 N   0  0  0  0  0  0  0  0  0  0  0  0
    6.9968    6.5899    2.6067 C   0  0  0  0  0  0  0  0  0  0  0  0
    6.1386    7.6806    2.6288 C   0  0  0  0  0  0  0  0  0  0  0  0
    6.6516    8.9628    2.5925 C   0  0  0  0  0  0  0  0  0  0  0  0
    8.0183    9.1614    2.5227 C   0  0  0  0  0  0  0  0  0  0  0  0
    8.8771    8.0781    2.4947 C   0  0  0  0  0  0  0  0  0  0  0  0
    8.3707    6.7917    2.5365 C   0  0  0  0  0  0  0  0  0  0  0  0
    9.2096    5.7331    2.5087 F   0  0  0  0  0  0  0  0  0  0  0  0
   -1.9611    3.8956    0.3081 C   0  0  0  0  0  0  0  0  0  0  0  0
   -2.1289    0.8719    1.0488 C   0  0  1  0  0  0  0  0  0  0  0  0
   -3.0147    1.4916    0.9093 H   0  0  0  0  0  0  0  0  0  0  0  0
   -1.9438   -0.0349   -0.1695 C   0  0  0  0  0  0  0  0  0  0  0  0
   -2.2890    0.0691    2.2201 O   0  0  0  0  0  0  0  0  0  0  0  0
    1.0502   -0.6118    1.3352 H   0  0  0  0  0  0  0  0  0  0  0  0
    1.5103    0.0632    2.9166 H   0  0  0  0  0  0  0  0  0  0  0  0
   -0.1569   -0.4946    2.6381 H   0  0  0  0  0  0  0  0  0  0  0  0
    4.6463    3.3974    3.5163 H   0  0  0  0  0  0  0  0  0  0  0  0
    5.1711    2.9713    1.8697 H   0  0  0  0  0  0  0  0  0  0  0  0
    7.0440    4.5518    2.9303 H   0  0  0  0  0  0  0  0  0  0  0  0
    5.0707    7.5271    2.6788 H   0  0  0  0  0  0  0  0  0  0  0  0
    5.9839    9.8114    2.6138 H   0  0  0  0  0  0  0  0  0  0  0  0
    8.4158   10.1650    2.4896 H   0  0  0  0  0  0  0  0  0  0  0  0
    9.9440    8.2366    2.4397 H   0  0  0  0  0  0  0  0  0  0  0  0
   -2.5936    4.2650    1.1154 H   0  0  0  0  0  0  0  0  0  0  0  0
   -1.5438    4.7392   -0.2416 H   0  0  0  0  0  0  0  0  0  0  0  0
   -2.5560    3.2805   -0.3670 H   0  0  0  0  0  0  0  0  0  0  0  0
   -1.0580   -0.6546   -0.0300 H   0  0  0  0  0  0  0  0  0  0  0  0
   -2.8197   -0.6735   -0.2836 H   0  0  0  0  0  0  0  0  0  0  0  0
   -1.8217    0.5775   -1.0630 H   0  0  0  0  0  0  0  0  0  0  0  0
   -1.6562   -0.6590    2.2874 H   0  0  0  0  0  0  0  0  0  0  0  0
  1  2  1  0  0  0  0
  1 27  1  0  0  0  0
  1 28  1  0  0  0  0
  1 29  1  0  0  0  0
  2  7  2  0  0  0  0
  2  3  1  0  0  0  0
  3  4  2  0  0  0  0
  3 23  1  0  0  0  0
  4  5  1  0  0  0  0
  4 22  1  0  0  0  0
  5  6  1  0  0  0  0
  5  7  1  0  0  0  0
  7  8  1  0  0  0  0
  8  9  2  0  0  0  0
  8 10  1  0  0  0  0
 10 11  1  0  0  0  0
 11 12  1  0  0  0  0
 11 30  1  0  0  0  0
 11 31  1  0  0  0  0
 12 13  2  0  0  0  0
 12 14  1  0  0  0  0
 14 15  1  0  0  0  0
 14 32  1  0  0  0  0
 15 20  2  0  0  0  0
 15 16  1  0  0  0  0
 16 17  2  0  0  0  0
 16 33  1  0  0  0  0
 17 18  1  0  0  0  0
 17 34  1  0  0  0  0
 18 19  2  0  0  0  0
 18 35  1  0  0  0  0
 19 20  1  0  0  0  0
 19 36  1  0  0  0  0
 20 21  1  0  0  0  0
 22 37  1  0  0  0  0
 22 38  1  0  0  0  0
 22 39  1  0  0  0  0
 23 24  1  0  0  0  0
 23 25  1  0  0  0  0
 23 26  1  0  0  0  0
 25 40  1  0  0  0  0
 25 41  1  0  0  0  0
 25 42  1  0  0  0  0
 26 43  1  0  0  0  0
M  END
$$$$
ZINC03544242
  -OEChem-08230709453D

 43 44  0     1  0  0  0  0  0999 V2000
    2.8822    3.5858    1.8607 C   0  0  0  0  0  0  0  0  0  0  0  0
    1.8286    3.9476    0.8458 C   0  0  0  0  0  0  0  0  0  0  0  0
    1.1032    3.0589    0.0468 C   0  0  0  0  0  0  0  0  0  0  0  0
    0.2578    3.7870   -0.7218 C   0  0  0  0  0  0  0  0  0  0  0  0
    0.4266    5.0963   -0.4413 N   0  0  0  0  0  0  0  0  0  0  0  0
   -0.0571    5.8294   -0.8529 H   0  0  0  0  0  0  0  0  0  0  0  0
    1.3986    5.2193    0.5263 C   0  0  0  0  0  0  0  0  0  0  0  0
    1.8836    6.4709    1.1130 C   0  0  0  0  0  0  0  0  0  0  0  0
    2.7509    6.4471    1.9653 O   0  0  0  0  0  0  0  0  0  0  0  0
    1.3682    7.6499    0.7080 O   0  0  0  0  0  0  0  0  0  0  0  0
    1.8963    8.8496    1.3327 C   0  0  0  0  0  0  0  0  0  0  0  0
    1.2065   10.0602    0.7586 C   0  0  0  0  0  0  0  0  0  0  0  0
    0.3537    9.9252   -0.0933 O   0  0  0  0  0  0  0  0  0  0  0  0
    1.5372   11.2929    1.1917 N   0  0  0  0  0  0  0  0  0  0  0  0
    0.9645   12.4223    0.5935 C   0  0  0  0  0  0  0  0  0  0  0  0
   -0.3456   12.3787    0.1367 C   0  0  0  0  0  0  0  0  0  0  0  0
   -0.9098   13.4960   -0.4477 C   0  0  0  0  0  0  0  0  0  0  0  0
   -0.1680   14.6545   -0.5889 C   0  0  0  0  0  0  0  0  0  0  0  0
    1.1392   14.7012   -0.1406 C   0  0  0  0  0  0  0  0  0  0  0  0
    1.7087   13.5881    0.4507 C   0  0  0  0  0  0  0  0  0  0  0  0
    2.9860   13.6334    0.8883 F   0  0  0  0  0  0  0  0  0  0  0  0
   -0.7141    3.2256   -1.7275 C   0  0  0  0  0  0  0  0  0  0  0  0
    1.2339    1.5576    0.0453 C   0  0  2  0  0  0  0  0  0  0  0  0
    1.7825    1.2397    0.9319 H   0  0  0  0  0  0  0  0  0  0  0  0
    1.9892    1.1126   -1.2087 C   0  0  0  0  0  0  0  0  0  0  0  0
   -0.0670    0.9663    0.0527 O   0  0  0  0  0  0  0  0  0  0  0  0
    3.8591    3.5627    1.3778 H   0  0  0  0  0  0  0  0  0  0  0  0
    2.8886    4.3286    2.6584 H   0  0  0  0  0  0  0  0  0  0  0  0
    2.6609    2.6043    2.2800 H   0  0  0  0  0  0  0  0  0  0  0  0
    1.7207    8.8069    2.4076 H   0  0  0  0  0  0  0  0  0  0  0  0
    2.9674    8.9172    1.1420 H   0  0  0  0  0  0  0  0  0  0  0  0
    2.1718   11.3978    1.9177 H   0  0  0  0  0  0  0  0  0  0  0  0
   -0.9248   11.4733    0.2422 H   0  0  0  0  0  0  0  0  0  0  0  0
   -1.9304   13.4632   -0.7994 H   0  0  0  0  0  0  0  0  0  0  0  0
   -0.6106   15.5247   -1.0506 H   0  0  0  0  0  0  0  0  0  0  0  0
    1.7160   15.6074   -0.2526 H   0  0  0  0  0  0  0  0  0  0  0  0
   -1.6679    3.0264   -1.2390 H   0  0  0  0  0  0  0  0  0  0  0  0
   -0.8613    3.9462   -2.5319 H   0  0  0  0  0  0  0  0  0  0  0  0
   -0.3159    2.2981   -2.1390 H   0  0  0  0  0  0  0  0  0  0  0  0
    2.9815    1.5637   -1.2143 H   0  0  0  0  0  0  0  0  0  0  0  0
    2.0837    0.0267   -1.2097 H   0  0  0  0  0  0  0  0  0  0  0  0
    1.4405    1.4305   -2.0953 H   0  0  0  0  0  0  0  0  0  0  0  0
   -0.0595   -0.0007    0.0522 H   0  0  0  0  0  0  0  0  0  0  0  0
  1  2  1  0  0  0  0
  1 27  1  0  0  0  0
  1 28  1  0  0  0  0
  1 29  1  0  0  0  0
  2  7  2  0  0  0  0
  2  3  1  0  0  0  0
  3  4  2  0  0  0  0
  3 23  1  0  0  0  0
  4  5  1  0  0  0  0
  4 22  1  0  0  0  0
  5  6  1  0  0  0  0
  5  7  1  0  0  0  0
  7  8  1  0  0  0  0
  8  9  2  0  0  0  0
  8 10  1  0  0  0  0
 10 11  1  0  0  0  0
 11 12  1  0  0  0  0
 11 30  1  0  0  0  0
 11 31  1  0  0  0  0
 12 13  2  0  0  0  0
 12 14  1  0  0  0  0
 14 15  1  0  0  0  0
 14 32  1  0  0  0  0
 15 20  2  0  0  0  0
 15 16  1  0  0  0  0
 16 17  2  0  0  0  0
 16 33  1  0  0  0  0
 17 18  1  0  0  0  0
 17 34  1  0  0  0  0
 18 19  2  0  0  0  0
 18 35  1  0  0  0  0
 19 20  1  0  0  0  0
 19 36  1  0  0  0  0
 20 21  1  0  0  0  0
 22 37  1  0  0  0  0
 22 38  1  0  0  0  0
 22 39  1  0  0  0  0
 23 24  1  0  0  0  0
 23 25  1  0  0  0  0
 23 26  1  0  0  0  0
 25 40  1  0  0  0  0
 25 41  1  0  0  0  0
 25 42  1  0  0  0  0
 26 43  1  0  0  0  0
M  END
$$$$
ZINC03544257
  -OEChem-08230709453D

 43 44  0     1  0  0  0  0  0999 V2000
    2.6095   -0.5779    0.6933 C   0  0  0  0  0  0  0  0  0  0  0  0
    2.5494    0.8812    0.3212 C   0  0  0  0  0  0  0  0  0  0  0  0
    1.3967    1.6226    0.0453 C   0  0  0  0  0  0  0  0  0  0  0  0
    1.7782    2.8887   -0.2497 C   0  0  0  0  0  0  0  0  0  0  0  0
    3.1222    2.9742   -0.1615 N   0  0  0  0  0  0  0  0  0  0  0  0
    3.6494    3.7726   -0.3212 H   0  0  0  0  0  0  0  0  0  0  0  0
    3.6217    1.7395    0.1881 C   0  0  0  0  0  0  0  0  0  0  0  0
    5.0331    1.3996    0.3837 C   0  0  0  0  0  0  0  0  0  0  0  0
    5.3484    0.2667    0.6941 O   0  0  0  0  0  0  0  0  0  0  0  0
    5.9831    2.3431    0.2196 O   0  0  0  0  0  0  0  0  0  0  0  0
    7.3607    1.9351    0.4298 C   0  0  0  0  0  0  0  0  0  0  0  0
    8.2735    3.1127    0.2037 C   0  0  0  0  0  0  0  0  0  0  0  0
    7.8087    4.1899   -0.1043 O   0  0  0  0  0  0  0  0  0  0  0  0
    9.6062    2.9689    0.3437 N   0  0  0  0  0  0  0  0  0  0  0  0
   10.4606    4.0359    0.0428 C   0  0  0  0  0  0  0  0  0  0  0  0
   10.0611    5.3409    0.2990 C   0  0  0  0  0  0  0  0  0  0  0  0
   10.9079    6.3914    0.0046 C   0  0  0  0  0  0  0  0  0  0  0  0
   12.1493    6.1458   -0.5534 C   0  0  0  0  0  0  0  0  0  0  0  0
   12.5488    4.8482   -0.8144 C   0  0  0  0  0  0  0  0  0  0  0  0
   11.7080    3.7920   -0.5181 C   0  0  0  0  0  0  0  0  0  0  0  0
   12.2544    2.0175   -0.8764 Br  0  0  0  0  0  0  0  0  0  0  0  0
    0.8512    4.0198   -0.6136 C   0  0  0  0  0  0  0  0  0  0  0  0
   -0.0181    1.1040    0.0658 C   0  0  1  0  0  0  0  0  0  0  0  0
   -0.0056    0.0140    0.0659 H   0  0  0  0  0  0  0  0  0  0  0  0
   -0.7270    1.6059    1.3254 C   0  0  0  0  0  0  0  0  0  0  0  0
   -0.7139    1.5723   -1.0911 O   0  0  0  0  0  0  0  0  0  0  0  0
    2.7009   -1.1799   -0.2108 H   0  0  0  0  0  0  0  0  0  0  0  0
    3.4723   -0.7538    1.3357 H   0  0  0  0  0  0  0  0  0  0  0  0
    1.6987   -0.8553    1.2240 H   0  0  0  0  0  0  0  0  0  0  0  0
    7.4806    1.5732    1.4509 H   0  0  0  0  0  0  0  0  0  0  0  0
    7.6146    1.1389   -0.2700 H   0  0  0  0  0  0  0  0  0  0  0  0
    9.9732    2.1260    0.6530 H   0  0  0  0  0  0  0  0  0  0  0  0
    9.0903    5.5340    0.7313 H   0  0  0  0  0  0  0  0  0  0  0  0
   10.5987    7.4063    0.2065 H   0  0  0  0  0  0  0  0  0  0  0  0
   12.8080    6.9694   -0.7860 H   0  0  0  0  0  0  0  0  0  0  0  0
   13.5187    4.6597   -1.2504 H   0  0  0  0  0  0  0  0  0  0  0  0
    0.5491    4.5474    0.2911 H   0  0  0  0  0  0  0  0  0  0  0  0
    1.3654    4.7102   -1.2822 H   0  0  0  0  0  0  0  0  0  0  0  0
   -0.0314    3.6199   -1.1129 H   0  0  0  0  0  0  0  0  0  0  0  0
   -1.7503    1.2308    1.3402 H   0  0  0  0  0  0  0  0  0  0  0  0
   -0.1962    1.2486    2.2078 H   0  0  0  0  0  0  0  0  0  0  0  0
   -0.7395    2.6958    1.3253 H   0  0  0  0  0  0  0  0  0  0  0  0
   -1.6330    1.2764   -1.1439 H   0  0  0  0  0  0  0  0  0  0  0  0
  1  2  1  0  0  0  0
  1 27  1  0  0  0  0
  1 28  1  0  0  0  0
  1 29  1  0  0  0  0
  2  7  2  0  0  0  0
  2  3  1  0  0  0  0
  3  4  2  0  0  0  0
  3 23  1  0  0  0  0
  4  5  1  0  0  0  0
  4 22  1  0  0  0  0
  5  6  1  0  0  0  0
  5  7  1  0  0  0  0
  7  8  1  0  0  0  0
  8  9  2  0  0  0  0
  8 10  1  0  0  0  0
 10 11  1  0  0  0  0
 11 12  1  0  0  0  0
 11 30  1  0  0  0  0
 11 31  1  0  0  0  0
 12 13  2  0  0  0  0
 12 14  1  0  0  0  0
 14 15  1  0  0  0  0
 14 32  1  0  0  0  0
 15 20  2  0  0  0  0
 15 16  1  0  0  0  0
 16 17  2  0  0  0  0
 16 33  1  0  0  0  0
 17 18  1  0  0  0  0
 17 34  1  0  0  0  0
 18 19  2  0  0  0  0
 18 35  1  0  0  0  0
 19 20  1  0  0  0  0
 19 36  1  0  0  0  0
 20 21  1  0  0  0  0
 22 37  1  0  0  0  0
 22 38  1  0  0  0  0
 22 39  1  0  0  0  0
 23 24  1  0  0  0  0
 23 25  1  0  0  0  0
 23 26  1  0  0  0  0
 25 40  1  0  0  0  0
 25 41  1  0  0  0  0
 25 42  1  0  0  0  0
 26 43  1  0  0  0  0
M  END
$$$$
ZINC03544258
  -OEChem-08230709453D

 43 44  0     1  0  0  0  0  0999 V2000
    2.9193    3.4592   -1.9635 C   0  0  0  0  0  0  0  0  0  0  0  0
    2.7251    1.9725   -2.1151 C   0  0  0  0  0  0  0  0  0  0  0  0
    1.9866    1.1394   -1.2696 C   0  0  0  0  0  0  0  0  0  0  0  0
    2.0609   -0.1212   -1.7603 C   0  0  0  0  0  0  0  0  0  0  0  0
    2.8199   -0.1140   -2.8763 N   0  0  0  0  0  0  0  0  0  0  0  0
    3.0306   -0.8881   -3.4214 H   0  0  0  0  0  0  0  0  0  0  0  0
    3.2452    1.1740   -3.1133 C   0  0  0  0  0  0  0  0  0  0  0  0
    4.0905    1.6166   -4.2248 C   0  0  0  0  0  0  0  0  0  0  0  0
    4.3987    2.7889   -4.3251 O   0  0  0  0  0  0  0  0  0  0  0  0
    4.5271    0.7241   -5.1371 O   0  0  0  0  0  0  0  0  0  0  0  0
    5.3607    1.2335   -6.2113 C   0  0  0  0  0  0  0  0  0  0  0  0
    5.7496    0.1006   -7.1258 C   0  0  0  0  0  0  0  0  0  0  0  0
    5.3623   -1.0254   -6.8950 O   0  0  0  0  0  0  0  0  0  0  0  0
    6.5278    0.3385   -8.2002 N   0  0  0  0  0  0  0  0  0  0  0  0
    6.9665   -0.7259   -8.9961 C   0  0  0  0  0  0  0  0  0  0  0  0
    6.1465   -1.8283   -9.1974 C   0  0  0  0  0  0  0  0  0  0  0  0
    6.5807   -2.8754   -9.9864 C   0  0  0  0  0  0  0  0  0  0  0  0
    7.8344   -2.8313  -10.5687 C   0  0  0  0  0  0  0  0  0  0  0  0
    8.6556   -1.7375  -10.3668 C   0  0  0  0  0  0  0  0  0  0  0  0
    8.2256   -0.6844   -9.5818 C   0  0  0  0  0  0  0  0  0  0  0  0
    9.3498    0.8108   -9.3050 Br  0  0  0  0  0  0  0  0  0  0  0  0
    1.4025   -1.3354   -1.1575 C   0  0  0  0  0  0  0  0  0  0  0  0
    1.2360    1.5685   -0.0353 C   0  0  2  0  0  0  0  0  0  0  0  0
    1.1307    2.6534   -0.0328 H   0  0  0  0  0  0  0  0  0  0  0  0
    2.0081    1.1282    1.2101 C   0  0  0  0  0  0  0  0  0  0  0  0
   -0.0590    0.9642   -0.0312 O   0  0  0  0  0  0  0  0  0  0  0  0
    3.8058    3.6500   -1.3587 H   0  0  0  0  0  0  0  0  0  0  0  0
    3.0463    3.9112   -2.9472 H   0  0  0  0  0  0  0  0  0  0  0  0
    2.0461    3.8916   -1.4750 H   0  0  0  0  0  0  0  0  0  0  0  0
    4.8070    1.9831   -6.7766 H   0  0  0  0  0  0  0  0  0  0  0  0
    6.2590    1.6857   -5.7909 H   0  0  0  0  0  0  0  0  0  0  0  0
    6.7838    1.2475   -8.4219 H   0  0  0  0  0  0  0  0  0  0  0  0
    5.1688   -1.8654   -8.7401 H   0  0  0  0  0  0  0  0  0  0  0  0
    5.9420   -3.7316  -10.1456 H   0  0  0  0  0  0  0  0  0  0  0  0
    8.1727   -3.6532  -11.1821 H   0  0  0  0  0  0  0  0  0  0  0  0
    9.6342   -1.7063  -10.8225 H   0  0  0  0  0  0  0  0  0  0  0  0
    0.4054   -1.4560   -1.5811 H   0  0  0  0  0  0  0  0  0  0  0  0
    2.0002   -2.2199   -1.3777 H   0  0  0  0  0  0  0  0  0  0  0  0
    1.3255   -1.2085   -0.0776 H   0  0  0  0  0  0  0  0  0  0  0  0
    2.1134    0.0433    1.2076 H   0  0  0  0  0  0  0  0  0  0  0  0
    2.9959    1.5891    1.2069 H   0  0  0  0  0  0  0  0  0  0  0  0
    1.4652    1.4385    2.1028 H   0  0  0  0  0  0  0  0  0  0  0  0
   -0.0419   -0.0026   -0.0331 H   0  0  0  0  0  0  0  0  0  0  0  0
  1  2  1  0  0  0  0
  1 27  1  0  0  0  0
  1 28  1  0  0  0  0
  1 29  1  0  0  0  0
  2  7  2  0  0  0  0
  2  3  1  0  0  0  0
  3  4  2  0  0  0  0
  3 23  1  0  0  0  0
  4  5  1  0  0  0  0
  4 22  1  0  0  0  0
  5  6  1  0  0  0  0
  5  7  1  0  0  0  0
  7  8  1  0  0  0  0
  8  9  2  0  0  0  0
  8 10  1  0  0  0  0
 10 11  1  0  0  0  0
 11 12  1  0  0  0  0
 11 30  1  0  0  0  0
 11 31  1  0  0  0  0
 12 13  2  0  0  0  0
 12 14  1  0  0  0  0
 14 15  1  0  0  0  0
 14 32  1  0  0  0  0
 15 20  2  0  0  0  0
 15 16  1  0  0  0  0
 16 17  2  0  0  0  0
 16 33  1  0  0  0  0
 17 18  1  0  0  0  0
 17 34  1  0  0  0  0
 18 19  2  0  0  0  0
 18 35  1  0  0  0  0
 19 20  1  0  0  0  0
 19 36  1  0  0  0  0
 20 21  1  0  0  0  0
 22 37  1  0  0  0  0
 22 38  1  0  0  0  0
 22 39  1  0  0  0  0
 23 24  1  0  0  0  0
 23 25  1  0  0  0  0
 23 26  1  0  0  0  0
 25 40  1  0  0  0  0
 25 41  1  0  0  0  0
 25 42  1  0  0  0  0
 26 43  1  0  0  0  0
M  END
$$$$
ZINC03545071
  -OEChem-08230709453D

 42 44  0     0  0  0  0  0  0999 V2000
   -2.5172   10.5869   -5.4982 C   0  0  0  0  0  0  0  0  0  0  0  0
   -1.7145   11.4326   -4.5076 C   0  0  0  0  0  0  0  0  0  0  0  0
   -2.5907   11.8046   -3.3393 C   0  0  0  0  0  0  0  0  0  0  0  0
   -3.2525   13.0170   -3.3298 C   0  0  0  0  0  0  0  0  0  0  0  0
   -4.0566   13.3591   -2.2584 C   0  0  0  0  0  0  0  0  0  0  0  0
   -4.2012   12.4892   -1.1929 C   0  0  0  0  0  0  0  0  0  0  0  0
   -3.5458   11.2737   -1.1981 C   0  0  0  0  0  0  0  0  0  0  0  0
   -2.7334   10.9291   -2.2709 C   0  0  0  0  0  0  0  0  0  0  0  0
   -2.0652    9.7007   -2.2776 N   0  0  0  0  0  0  0  0  0  0  0  0
   -1.7753    9.0657   -1.0856 C   0  0  0  0  0  0  0  0  0  0  0  0
   -1.2408    7.8464   -1.0927 N   0  0  0  0  0  0  0  0  0  0  0  0
   -0.9685    7.2359    0.0470 C   0  0  0  0  0  0  0  0  0  0  0  0
   -1.2153    7.8367    1.1981 N   0  0  0  0  0  0  0  0  0  0  0  0
   -1.7446    9.0579    1.2133 C   0  0  0  0  0  0  0  0  0  0  0  0
   -2.0248    9.6729    0.0693 N   0  0  0  0  0  0  0  0  0  0  0  0
   -2.0024    9.6842    2.4156 N   0  0  0  0  0  0  0  0  0  0  0  0
   -0.3692    5.8533    0.0344 C   0  0  0  0  0  0  0  0  0  0  0  0
   -1.6948    4.6209    0.0479 S   0  0  0  0  0  0  0  0  0  0  0  0
   -0.7377    3.1417    0.0302 C   0  0  0  0  0  0  0  0  0  0  0  0
    0.5725    3.0598    0.0120 N   0  0  0  0  0  0  0  0  0  0  0  0
    0.9328    1.8261    0.0032 N   0  0  0  0  0  0  0  0  0  0  0  0
   -0.1165    1.0537    0.0152 C   0  0  0  0  0  0  0  0  0  0  0  0
   -1.2183    1.8637    0.0276 N   0  0  0  0  0  0  0  0  0  0  0  0
   -2.6226    1.4467    0.0389 C   0  0  0  0  0  0  0  0  0  0  0  0
   -1.8834   10.3178   -6.3432 H   0  0  0  0  0  0  0  0  0  0  0  0
   -2.8663    9.6809   -5.0029 H   0  0  0  0  0  0  0  0  0  0  0  0
   -3.3737   11.1594   -5.8542 H   0  0  0  0  0  0  0  0  0  0  0  0
   -1.3654   12.3387   -5.0029 H   0  0  0  0  0  0  0  0  0  0  0  0
   -0.8580   10.8601   -4.1516 H   0  0  0  0  0  0  0  0  0  0  0  0
   -3.1420   13.6984   -4.1605 H   0  0  0  0  0  0  0  0  0  0  0  0
   -4.5732   14.3075   -2.2535 H   0  0  0  0  0  0  0  0  0  0  0  0
   -4.8303   12.7592   -0.3576 H   0  0  0  0  0  0  0  0  0  0  0  0
   -3.6621   10.5933   -0.3675 H   0  0  0  0  0  0  0  0  0  0  0  0
   -1.8053    9.2945   -3.1192 H   0  0  0  0  0  0  0  0  0  0  0  0
   -1.7979    9.2346    3.2504 H   0  0  0  0  0  0  0  0  0  0  0  0
   -2.3881   10.5742    2.4259 H   0  0  0  0  0  0  0  0  0  0  0  0
    0.2586    5.7213    0.9156 H   0  0  0  0  0  0  0  0  0  0  0  0
    0.2348    5.7273   -0.8642 H   0  0  0  0  0  0  0  0  0  0  0  0
   -0.1161   -0.0263    0.0112 H   0  0  0  0  0  0  0  0  0  0  0  0
   -2.9618    1.3405    1.0693 H   0  0  0  0  0  0  0  0  0  0  0  0
   -3.2287    2.1979   -0.4676 H   0  0  0  0  0  0  0  0  0  0  0  0
   -2.7222    0.4916   -0.4768 H   0  0  0  0  0  0  0  0  0  0  0  0
  1  2  1  0  0  0  0
  1 25  1  0  0  0  0
  1 26  1  0  0  0  0
  1 27  1  0  0  0  0
  2  3  1  0  0  0  0
  2 28  1  0  0  0  0
  2 29  1  0  0  0  0
  3  8  2  0  0  0  0
  3  4  1  0  0  0  0
  4  5  2  0  0  0  0
  4 30  1  0  0  0  0
  5  6  1  0  0  0  0
  5 31  1  0  0  0  0
  6  7  2  0  0  0  0
  6 32  1  0  0  0  0
  7  8  1  0  0  0  0
  7 33  1  0  0  0  0
  8  9  1  0  0  0  0
  9 10  1  0  0  0  0
  9 34  1  0  0  0  0
 10 15  2  0  0  0  0
 10 11  1  0  0  0  0
 11 12  2  0  0  0  0
 12 13  1  0  0  0  0
 12 17  1  0  0  0  0
 13 14  2  0  0  0  0
 14 15  1  0  0  0  0
 14 16  1  0  0  0  0
 16 35  1  0  0  0  0
 16 36  1  0  0  0  0
 17 18  1  0  0  0  0
 17 37  1  0  0  0  0
 17 38  1  0  0  0  0
 18 19  1  0  0  0  0
 19 23  1  0  0  0  0
 19 20  2  0  0  0  0
 20 21  1  0  0  0  0
 21 22  2  0  0  0  0
 22 23  1  0  0  0  0
 22 39  1  0  0  0  0
 23 24  1  0  0  0  0
 24 40  1  0  0  0  0
 24 41  1  0  0  0  0
 24 42  1  0  0  0  0
M  END
$$$$
ZINC03546390
  -OEChem-08230709453D

 46 47  0     1  0  0  0  0  0999 V2000
   10.8102   -0.5606   -2.9048 C   0  0  0  0  0  0  0  0  0  0  0  0
   10.5212    0.6454   -2.0486 C   0  0  0  0  0  0  0  0  0  0  0  0
   11.3706    1.7344   -1.8315 C   0  0  0  0  0  0  0  0  0  0  0  0
   10.7350    2.5979   -1.0033 C   0  0  0  0  0  0  0  0  0  0  0  0
    9.5194    2.0982   -0.6967 N   0  0  0  0  0  0  0  0  0  0  0  0
    8.8622    2.5225   -0.1233 H   0  0  0  0  0  0  0  0  0  0  0  0
    9.3679    0.8846   -1.3295 C   0  0  0  0  0  0  0  0  0  0  0  0
    8.1947    0.0104   -1.2576 C   0  0  0  0  0  0  0  0  0  0  0  0
    8.1805   -1.0400   -1.8705 O   0  0  0  0  0  0  0  0  0  0  0  0
    7.1300    0.3704   -0.5115 O   0  0  0  0  0  0  0  0  0  0  0  0
    6.0028   -0.5445   -0.4867 C   0  0  1  0  0  0  0  0  0  0  0  0
    5.9534   -1.0859   -1.4314 H   0  0  0  0  0  0  0  0  0  0  0  0
    6.1785   -1.5391    0.6626 C   0  0  0  0  0  0  0  0  0  0  0  0
    4.7281    0.2342   -0.2868 C   0  0  0  0  0  0  0  0  0  0  0  0
    4.7660    1.4414   -0.1761 O   0  0  0  0  0  0  0  0  0  0  0  0
    3.5461   -0.4109   -0.2309 N   0  0  0  0  0  0  0  0  0  0  0  0
    2.3543    0.3180   -0.1531 C   0  0  0  0  0  0  0  0  0  0  0  0
    2.2488    1.5489   -0.7874 C   0  0  0  0  0  0  0  0  0  0  0  0
    1.0708    2.2657   -0.7091 C   0  0  0  0  0  0  0  0  0  0  0  0
   -0.0027    1.7592    0.0003 C   0  0  0  0  0  0  0  0  0  0  0  0
    0.0992    0.5338    0.6330 C   0  0  0  0  0  0  0  0  0  0  0  0
    1.2742   -0.1882    0.5581 C   0  0  0  0  0  0  0  0  0  0  0  0
   11.2928    3.9080   -0.5095 C   0  0  0  0  0  0  0  0  0  0  0  0
   12.7480    1.9156   -2.4154 C   0  0  1  0  0  0  0  0  0  0  0  0
   13.0662    2.9495   -2.2815 H   0  0  0  0  0  0  0  0  0  0  0  0
   13.7304    0.9834   -1.7035 C   0  0  0  0  0  0  0  0  0  0  0  0
   12.7194    1.6028   -3.8094 O   0  0  0  0  0  0  0  0  0  0  0  0
   10.4729   -0.3719   -3.9240 H   0  0  0  0  0  0  0  0  0  0  0  0
   11.8825   -0.7559   -2.9072 H   0  0  0  0  0  0  0  0  0  0  0  0
   10.2841   -1.4263   -2.5024 H   0  0  0  0  0  0  0  0  0  0  0  0
    5.3323   -2.2259    0.6813 H   0  0  0  0  0  0  0  0  0  0  0  0
    7.1004   -2.1022    0.5180 H   0  0  0  0  0  0  0  0  0  0  0  0
    6.2278   -0.9976    1.6073 H   0  0  0  0  0  0  0  0  0  0  0  0
    3.5216   -1.3805   -0.2447 H   0  0  0  0  0  0  0  0  0  0  0  0
    3.0870    1.9454   -1.3410 H   0  0  0  0  0  0  0  0  0  0  0  0
    0.9881    3.2231   -1.2021 H   0  0  0  0  0  0  0  0  0  0  0  0
   -0.9211    2.3238    0.0641 H   0  0  0  0  0  0  0  0  0  0  0  0
   -0.7409    0.1410    1.1866 H   0  0  0  0  0  0  0  0  0  0  0  0
    1.3530   -1.1453    1.0521 H   0  0  0  0  0  0  0  0  0  0  0  0
   10.9544    4.7150   -1.1594 H   0  0  0  0  0  0  0  0  0  0  0  0
   10.9453    4.0905    0.5074 H   0  0  0  0  0  0  0  0  0  0  0  0
   12.3819    3.8659   -0.5193 H   0  0  0  0  0  0  0  0  0  0  0  0
   13.4122   -0.0505   -1.8373 H   0  0  0  0  0  0  0  0  0  0  0  0
   14.7267    1.1146   -2.1257 H   0  0  0  0  0  0  0  0  0  0  0  0
   13.7522    1.2221   -0.6401 H   0  0  0  0  0  0  0  0  0  0  0  0
   12.5399    0.6719   -4.0000 H   0  0  0  0  0  0  0  0  0  0  0  0
  1  2  1  0  0  0  0
  1 28  1  0  0  0  0
  1 29  1  0  0  0  0
  1 30  1  0  0  0  0
  2  7  2  0  0  0  0
  2  3  1  0  0  0  0
  3  4  2  0  0  0  0
  3 24  1  0  0  0  0
  4  5  1  0  0  0  0
  4 23  1  0  0  0  0
  5  6  1  0  0  0  0
  5  7  1  0  0  0  0
  7  8  1  0  0  0  0
  8  9  2  0  0  0  0
  8 10  1  0  0  0  0
 10 11  1  0  0  0  0
 11 12  1  0  0  0  0
 11 13  1  0  0  0  0
 11 14  1  0  0  0  0
 13 31  1  0  0  0  0
 13 32  1  0  0  0  0
 13 33  1  0  0  0  0
 14 15  2  0  0  0  0
 14 16  1  0  0  0  0
 16 17  1  0  0  0  0
 16 34  1  0  0  0  0
 17 22  2  0  0  0  0
 17 18  1  0  0  0  0
 18 19  2  0  0  0  0
 18 35  1  0  0  0  0
 19 20  1  0  0  0  0
 19 36  1  0  0  0  0
 20 21  2  0  0  0  0
 20 37  1  0  0  0  0
 21 22  1  0  0  0  0
 21 38  1  0  0  0  0
 22 39  1  0  0  0  0
 23 40  1  0  0  0  0
 23 41  1  0  0  0  0
 23 42  1  0  0  0  0
 24 25  1  0  0  0  0
 24 26  1  0  0  0  0
 24 27  1  0  0  0  0
 26 43  1  0  0  0  0
 26 44  1  0  0  0  0
 26 45  1  0  0  0  0
 27 46  1  0  0  0  0
M  END
$$$$
ZINC03546391
  -OEChem-08230709453D

 46 47  0     1  0  0  0  0  0999 V2000
   10.3940   -0.9604   -2.3894 C   0  0  0  0  0  0  0  0  0  0  0  0
   10.3406    0.4406   -1.8367 C   0  0  0  0  0  0  0  0  0  0  0  0
   11.2278    1.4823   -2.1235 C   0  0  0  0  0  0  0  0  0  0  0  0
   10.8324    2.5701   -1.4191 C   0  0  0  0  0  0  0  0  0  0  0  0
    9.7303    2.2550   -0.7067 N   0  0  0  0  0  0  0  0  0  0  0  0
    9.2472    2.8556   -0.1178 H   0  0  0  0  0  0  0  0  0  0  0  0
    9.4053    0.9399   -0.9535 C   0  0  0  0  0  0  0  0  0  0  0  0
    8.2768    0.2036   -0.3787 C   0  0  0  0  0  0  0  0  0  0  0  0
    8.0955   -0.9614   -0.6770 O   0  0  0  0  0  0  0  0  0  0  0  0
    7.4387    0.8179    0.4815 O   0  0  0  0  0  0  0  0  0  0  0  0
    6.3423    0.0271    1.0117 C   0  0  1  0  0  0  0  0  0  0  0  0
    6.0501   -0.7257    0.2797 H   0  0  0  0  0  0  0  0  0  0  0  0
    6.7887   -0.6627    2.3024 C   0  0  0  0  0  0  0  0  0  0  0  0
    5.1690    0.9268    1.3029 C   0  0  0  0  0  0  0  0  0  0  0  0
    5.2781    2.1276    1.1712 O   0  0  0  0  0  0  0  0  0  0  0  0
    3.9983    0.3971    1.7097 N   0  0  0  0  0  0  0  0  0  0  0  0
    2.8772    1.2187    1.8710 C   0  0  0  0  0  0  0  0  0  0  0  0
    2.6941    2.3169    1.0411 C   0  0  0  0  0  0  0  0  0  0  0  0
    1.5862    3.1256    1.2027 C   0  0  0  0  0  0  0  0  0  0  0  0
    0.6600    2.8429    2.1898 C   0  0  0  0  0  0  0  0  0  0  0  0
    0.8395    1.7501    3.0179 C   0  0  0  0  0  0  0  0  0  0  0  0
    1.9450    0.9372    2.8612 C   0  0  0  0  0  0  0  0  0  0  0  0
   11.5129    3.9146   -1.4298 C   0  0  0  0  0  0  0  0  0  0  0  0
   12.4163    1.4069   -3.0469 C   0  0  2  0  0  0  0  0  0  0  0  0
   13.0548    2.2761   -2.8890 H   0  0  0  0  0  0  0  0  0  0  0  0
   11.9337    1.3856   -4.4986 C   0  0  0  0  0  0  0  0  0  0  0  0
   13.1571    0.2159   -2.7736 O   0  0  0  0  0  0  0  0  0  0  0  0
    9.9129   -0.9838   -3.3672 H   0  0  0  0  0  0  0  0  0  0  0  0
   11.4336   -1.2726   -2.4884 H   0  0  0  0  0  0  0  0  0  0  0  0
    9.8740   -1.6381   -1.7123 H   0  0  0  0  0  0  0  0  0  0  0  0
    7.6374   -1.3135    2.0917 H   0  0  0  0  0  0  0  0  0  0  0  0
    7.0810    0.0901    3.0344 H   0  0  0  0  0  0  0  0  0  0  0  0
    5.9657   -1.2563    2.7004 H   0  0  0  0  0  0  0  0  0  0  0  0
    3.9330   -0.5536    1.8905 H   0  0  0  0  0  0  0  0  0  0  0  0
    3.4174    2.5386    0.2703 H   0  0  0  0  0  0  0  0  0  0  0  0
    1.4432    3.9799    0.5575 H   0  0  0  0  0  0  0  0  0  0  0  0
   -0.2030    3.4796    2.3173 H   0  0  0  0  0  0  0  0  0  0  0  0
    0.1146    1.5322    3.7883 H   0  0  0  0  0  0  0  0  0  0  0  0
    2.0844    0.0837    3.5080 H   0  0  0  0  0  0  0  0  0  0  0  0
   12.3305    3.9137   -0.7088 H   0  0  0  0  0  0  0  0  0  0  0  0
   11.9073    4.1143   -2.4261 H   0  0  0  0  0  0  0  0  0  0  0  0
   10.7933    4.6882   -1.1621 H   0  0  0  0  0  0  0  0  0  0  0  0
   11.3687    2.2941   -4.7071 H   0  0  0  0  0  0  0  0  0  0  0  0
   12.7934    1.3311   -5.1665 H   0  0  0  0  0  0  0  0  0  0  0  0
   11.2953    0.5164   -4.6565 H   0  0  0  0  0  0  0  0  0  0  0  0
   12.7179   -0.5956   -3.0631 H   0  0  0  0  0  0  0  0  0  0  0  0
  1  2  1  0  0  0  0
  1 28  1  0  0  0  0
  1 29  1  0  0  0  0
  1 30  1  0  0  0  0
  2  7  2  0  0  0  0
  2  3  1  0  0  0  0
  3  4  2  0  0  0  0
  3 24  1  0  0  0  0
  4  5  1  0  0  0  0
  4 23  1  0  0  0  0
  5  6  1  0  0  0  0
  5  7  1  0  0  0  0
  7  8  1  0  0  0  0
  8  9  2  0  0  0  0
  8 10  1  0  0  0  0
 10 11  1  0  0  0  0
 11 12  1  0  0  0  0
 11 13  1  0  0  0  0
 11 14  1  0  0  0  0
 13 31  1  0  0  0  0
 13 32  1  0  0  0  0
 13 33  1  0  0  0  0
 14 15  2  0  0  0  0
 14 16  1  0  0  0  0
 16 17  1  0  0  0  0
 16 34  1  0  0  0  0
 17 22  2  0  0  0  0
 17 18  1  0  0  0  0
 18 19  2  0  0  0  0
 18 35  1  0  0  0  0
 19 20  1  0  0  0  0
 19 36  1  0  0  0  0
 20 21  2  0  0  0  0
 20 37  1  0  0  0  0
 21 22  1  0  0  0  0
 21 38  1  0  0  0  0
 22 39  1  0  0  0  0
 23 40  1  0  0  0  0
 23 41  1  0  0  0  0
 23 42  1  0  0  0  0
 24 25  1  0  0  0  0
 24 26  1  0  0  0  0
 24 27  1  0  0  0  0
 26 43  1  0  0  0  0
 26 44  1  0  0  0  0
 26 45  1  0  0  0  0
 27 46  1  0  0  0  0
M  END
$$$$
ZINC03546392
  -OEChem-08230709453D

 46 47  0     1  0  0  0  0  0999 V2000
   11.2048   -0.8905    1.3642 C   0  0  0  0  0  0  0  0  0  0  0  0
   10.7601    0.4274    0.7841 C   0  0  0  0  0  0  0  0  0  0  0  0
   11.5409    1.5777    0.6378 C   0  0  0  0  0  0  0  0  0  0  0  0
   10.7658    2.5371    0.0770 C   0  0  0  0  0  0  0  0  0  0  0  0
    9.5325    2.0338   -0.1400 N   0  0  0  0  0  0  0  0  0  0  0  0
    8.7880    2.5134   -0.5357 H   0  0  0  0  0  0  0  0  0  0  0  0
    9.5046    0.7282    0.2967 C   0  0  0  0  0  0  0  0  0  0  0  0
    8.3544   -0.1776    0.2472 C   0  0  0  0  0  0  0  0  0  0  0  0
    8.4587   -1.3162    0.6619 O   0  0  0  0  0  0  0  0  0  0  0  0
    7.1795    0.2511   -0.2583 O   0  0  0  0  0  0  0  0  0  0  0  0
    6.0830   -0.7006   -0.2759 C   0  0  2  0  0  0  0  0  0  0  0  0
    6.1923   -1.3962    0.5561 H   0  0  0  0  0  0  0  0  0  0  0  0
    6.1017   -1.4759   -1.5948 C   0  0  0  0  0  0  0  0  0  0  0  0
    4.7755    0.0372   -0.1454 C   0  0  0  0  0  0  0  0  0  0  0  0
    4.7615    1.2500   -0.1386 O   0  0  0  0  0  0  0  0  0  0  0  0
    3.6216   -0.6506   -0.0364 N   0  0  0  0  0  0  0  0  0  0  0  0
    2.3993    0.0305   -0.0265 C   0  0  0  0  0  0  0  0  0  0  0  0
    2.2453    1.1944   -0.7683 C   0  0  0  0  0  0  0  0  0  0  0  0
    1.0377    1.8646   -0.7560 C   0  0  0  0  0  0  0  0  0  0  0  0
   -0.0173    1.3778   -0.0062 C   0  0  0  0  0  0  0  0  0  0  0  0
    0.1329    0.2192    0.7336 C   0  0  0  0  0  0  0  0  0  0  0  0
    1.3379   -0.4557    0.7255 C   0  0  0  0  0  0  0  0  0  0  0  0
   11.2108    3.9377   -0.2566 C   0  0  0  0  0  0  0  0  0  0  0  0
   12.9875    1.7247    1.0340 C   0  0  1  0  0  0  0  0  0  0  0  0
   13.2699    0.9014    1.6902 H   0  0  0  0  0  0  0  0  0  0  0  0
   13.8644    1.7017   -0.2195 C   0  0  0  0  0  0  0  0  0  0  0  0
   13.1698    2.9648    1.7202 O   0  0  0  0  0  0  0  0  0  0  0  0
   11.6000   -1.5226    0.5690 H   0  0  0  0  0  0  0  0  0  0  0  0
   11.9809   -0.7161    2.1094 H   0  0  0  0  0  0  0  0  0  0  0  0
   10.3550   -1.3860    1.8338 H   0  0  0  0  0  0  0  0  0  0  0  0
    7.0475   -2.0095   -1.6891 H   0  0  0  0  0  0  0  0  0  0  0  0
    5.2786   -2.1903   -1.6080 H   0  0  0  0  0  0  0  0  0  0  0  0
    5.9925   -0.7802   -2.4268 H   0  0  0  0  0  0  0  0  0  0  0  0
    3.6384   -1.6178    0.0352 H   0  0  0  0  0  0  0  0  0  0  0  0
    3.0690    1.5752   -1.3538 H   0  0  0  0  0  0  0  0  0  0  0  0
    0.9174    2.7699   -1.3324 H   0  0  0  0  0  0  0  0  0  0  0  0
   -0.9592    1.9062    0.0053 H   0  0  0  0  0  0  0  0  0  0  0  0
   -0.6930   -0.1584    1.3182 H   0  0  0  0  0  0  0  0  0  0  0  0
    1.4545   -1.3606    1.3034 H   0  0  0  0  0  0  0  0  0  0  0  0
   11.6059    3.9611   -1.2723 H   0  0  0  0  0  0  0  0  0  0  0  0
   10.3613    4.6164   -0.1814 H   0  0  0  0  0  0  0  0  0  0  0  0
   11.9872    4.2485    0.4425 H   0  0  0  0  0  0  0  0  0  0  0  0
   13.5820    2.5250   -0.8757 H   0  0  0  0  0  0  0  0  0  0  0  0
   14.9107    1.8081    0.0670 H   0  0  0  0  0  0  0  0  0  0  0  0
   13.7254    0.7558   -0.7429 H   0  0  0  0  0  0  0  0  0  0  0  0
   14.0795    3.1265    2.0054 H   0  0  0  0  0  0  0  0  0  0  0  0
  1  2  1  0  0  0  0
  1 28  1  0  0  0  0
  1 29  1  0  0  0  0
  1 30  1  0  0  0  0
  2  7  2  0  0  0  0
  2  3  1  0  0  0  0
  3  4  2  0  0  0  0
  3 24  1  0  0  0  0
  4  5  1  0  0  0  0
  4 23  1  0  0  0  0
  5  6  1  0  0  0  0
  5  7  1  0  0  0  0
  7  8  1  0  0  0  0
  8  9  2  0  0  0  0
  8 10  1  0  0  0  0
 10 11  1  0  0  0  0
 11 12  1  0  0  0  0
 11 13  1  0  0  0  0
 11 14  1  0  0  0  0
 13 31  1  0  0  0  0
 13 32  1  0  0  0  0
 13 33  1  0  0  0  0
 14 15  2  0  0  0  0
 14 16  1  0  0  0  0
 16 17  1  0  0  0  0
 16 34  1  0  0  0  0
 17 22  2  0  0  0  0
 17 18  1  0  0  0  0
 18 19  2  0  0  0  0
 18 35  1  0  0  0  0
 19 20  1  0  0  0  0
 19 36  1  0  0  0  0
 20 21  2  0  0  0  0
 20 37  1  0  0  0  0
 21 22  1  0  0  0  0
 21 38  1  0  0  0  0
 22 39  1  0  0  0  0
 23 40  1  0  0  0  0
 23 41  1  0  0  0  0
 23 42  1  0  0  0  0
 24 25  1  0  0  0  0
 24 26  1  0  0  0  0
 24 27  1  0  0  0  0
 26 43  1  0  0  0  0
 26 44  1  0  0  0  0
 26 45  1  0  0  0  0
 27 46  1  0  0  0  0
M  END
$$$$
ZINC03546393
  -OEChem-08230709453D

 46 47  0     1  0  0  0  0  0999 V2000
    2.9493    3.4629   -1.9518 C   0  0  0  0  0  0  0  0  0  0  0  0
    2.7562    1.9756   -2.0987 C   0  0  0  0  0  0  0  0  0  0  0  0
    2.0228    1.1438   -1.2475 C   0  0  0  0  0  0  0  0  0  0  0  0
    2.0955   -0.1179   -1.7359 C   0  0  0  0  0  0  0  0  0  0  0  0
    2.8493   -0.1126   -2.8553 N   0  0  0  0  0  0  0  0  0  0  0  0
    3.0583   -0.8878   -3.3996 H   0  0  0  0  0  0  0  0  0  0  0  0
    3.2728    1.1752   -3.0971 C   0  0  0  0  0  0  0  0  0  0  0  0
    4.1121    1.6160   -4.2139 C   0  0  0  0  0  0  0  0  0  0  0  0
    4.4192    2.7882   -4.3181 O   0  0  0  0  0  0  0  0  0  0  0  0
    4.5444    0.7218   -5.1267 O   0  0  0  0  0  0  0  0  0  0  0  0
    5.3723    1.2295   -6.2061 C   0  0  2  0  0  0  0  0  0  0  0  0
    5.9385    2.0922   -5.8549 H   0  0  0  0  0  0  0  0  0  0  0  0
    4.4821    1.6467   -7.3785 C   0  0  0  0  0  0  0  0  0  0  0  0
    6.3253    0.1529   -6.6573 C   0  0  0  0  0  0  0  0  0  0  0  0
    6.2484   -0.9618   -6.1855 O   0  0  0  0  0  0  0  0  0  0  0  0
    7.2633    0.4287   -7.5850 N   0  0  0  0  0  0  0  0  0  0  0  0
    8.2092   -0.5417   -7.9336 C   0  0  0  0  0  0  0  0  0  0  0  0
    9.5059   -0.1646   -8.2574 C   0  0  0  0  0  0  0  0  0  0  0  0
   10.4387   -1.1253   -8.5959 C   0  0  0  0  0  0  0  0  0  0  0  0
   10.0796   -2.4604   -8.6232 C   0  0  0  0  0  0  0  0  0  0  0  0
    8.7877   -2.8386   -8.3068 C   0  0  0  0  0  0  0  0  0  0  0  0
    7.8518   -1.8833   -7.9619 C   0  0  0  0  0  0  0  0  0  0  0  0
    1.4406   -1.3311   -1.1274 C   0  0  0  0  0  0  0  0  0  0  0  0
    1.2782    1.5750   -0.0103 C   0  0  2  0  0  0  0  0  0  0  0  0
    1.1720    2.6598   -0.0096 H   0  0  0  0  0  0  0  0  0  0  0  0
    2.0572    1.1381    1.2320 C   0  0  0  0  0  0  0  0  0  0  0  0
   -0.0162    0.9697    0.0019 O   0  0  0  0  0  0  0  0  0  0  0  0
    3.8384    3.6563   -1.3517 H   0  0  0  0  0  0  0  0  0  0  0  0
    3.0710    3.9126   -2.9372 H   0  0  0  0  0  0  0  0  0  0  0  0
    2.0779    3.8956   -1.4601 H   0  0  0  0  0  0  0  0  0  0  0  0
    5.1036    2.0278   -8.1889 H   0  0  0  0  0  0  0  0  0  0  0  0
    3.9159    0.7841   -7.7297 H   0  0  0  0  0  0  0  0  0  0  0  0
    3.7928    2.4254   -7.0522 H   0  0  0  0  0  0  0  0  0  0  0  0
    7.2825    1.2999   -8.0111 H   0  0  0  0  0  0  0  0  0  0  0  0
    9.7859    0.8783   -8.2402 H   0  0  0  0  0  0  0  0  0  0  0  0
   11.4485   -0.8332   -8.8435 H   0  0  0  0  0  0  0  0  0  0  0  0
   10.8098   -3.2094   -8.8919 H   0  0  0  0  0  0  0  0  0  0  0  0
    8.5103   -3.8822   -8.3291 H   0  0  0  0  0  0  0  0  0  0  0  0
    6.8429   -2.1793   -7.7149 H   0  0  0  0  0  0  0  0  0  0  0  0
    0.4417   -1.4532   -1.5462 H   0  0  0  0  0  0  0  0  0  0  0  0
    2.0379   -2.2157   -1.3484 H   0  0  0  0  0  0  0  0  0  0  0  0
    1.3685   -1.2019   -0.0475 H   0  0  0  0  0  0  0  0  0  0  0  0
    2.1634    0.0532    1.2314 H   0  0  0  0  0  0  0  0  0  0  0  0
    3.0445    1.5998    1.2227 H   0  0  0  0  0  0  0  0  0  0  0  0
    1.5186    1.4499    2.1269 H   0  0  0  0  0  0  0  0  0  0  0  0
    0.0017    0.0028    0.0020 H   0  0  0  0  0  0  0  0  0  0  0  0
  1  2  1  0  0  0  0
  1 28  1  0  0  0  0
  1 29  1  0  0  0  0
  1 30  1  0  0  0  0
  2  7  2  0  0  0  0
  2  3  1  0  0  0  0
  3  4  2  0  0  0  0
  3 24  1  0  0  0  0
  4  5  1  0  0  0  0
  4 23  1  0  0  0  0
  5  6  1  0  0  0  0
  5  7  1  0  0  0  0
  7  8  1  0  0  0  0
  8  9  2  0  0  0  0
  8 10  1  0  0  0  0
 10 11  1  0  0  0  0
 11 12  1  0  0  0  0
 11 13  1  0  0  0  0
 11 14  1  0  0  0  0
 13 31  1  0  0  0  0
 13 32  1  0  0  0  0
 13 33  1  0  0  0  0
 14 15  2  0  0  0  0
 14 16  1  0  0  0  0
 16 17  1  0  0  0  0
 16 34  1  0  0  0  0
 17 22  2  0  0  0  0
 17 18  1  0  0  0  0
 18 19  2  0  0  0  0
 18 35  1  0  0  0  0
 19 20  1  0  0  0  0
 19 36  1  0  0  0  0
 20 21  2  0  0  0  0
 20 37  1  0  0  0  0
 21 22  1  0  0  0  0
 21 38  1  0  0  0  0
 22 39  1  0  0  0  0
 23 40  1  0  0  0  0
 23 41  1  0  0  0  0
 23 42  1  0  0  0  0
 24 25  1  0  0  0  0
 24 26  1  0  0  0  0
 24 27  1  0  0  0  0
 26 43  1  0  0  0  0
 26 44  1  0  0  0  0
 26 45  1  0  0  0  0
 27 46  1  0  0  0  0
M  END
$$$$
ZINC03546795
  -OEChem-08230709453D

 44 46  0     0  0  0  0  0  0999 V2000
    4.4338   -0.4404    1.1623 C   0  0  0  0  0  0  0  0  0  0  0  0
    3.5777   -0.6486    0.0372 O   0  0  0  0  0  0  0  0  0  0  0  0
    2.3954    0.0206    0.0296 C   0  0  0  0  0  0  0  0  0  0  0  0
    2.0687    0.8611    1.0867 C   0  0  0  0  0  0  0  0  0  0  0  0
    0.8707    1.5429    1.0856 C   0  0  0  0  0  0  0  0  0  0  0  0
   -0.0173    1.3896    0.0210 C   0  0  0  0  0  0  0  0  0  0  0  0
    0.3127    0.5427   -1.0434 C   0  0  0  0  0  0  0  0  0  0  0  0
    1.5184   -0.1377   -1.0331 C   0  0  0  0  0  0  0  0  0  0  0  0
   -0.5473    0.3888   -2.0833 O   0  0  0  0  0  0  0  0  0  0  0  0
   -1.3069    2.1154    0.0197 C   0  0  0  0  0  0  0  0  0  0  0  0
   -1.3242    3.4454    0.1278 C   0  0  0  0  0  0  0  0  0  0  0  0
   -2.5046    1.4092   -0.0944 N   0  0  0  0  0  0  0  0  0  0  0  0
   -3.7256    2.0963   -0.0956 N   0  0  0  0  0  0  0  0  0  0  0  0
   -4.8827    1.4140   -0.2058 C   0  0  0  0  0  0  0  0  0  0  0  0
   -4.8669    0.2011   -0.3044 O   0  0  0  0  0  0  0  0  0  0  0  0
   -6.1601    2.1329   -0.2071 C   0  0  0  0  0  0  0  0  0  0  0  0
   -7.4438    1.6296   -0.3086 C   0  0  0  0  0  0  0  0  0  0  0  0
   -8.5012    2.5244   -0.2852 C   0  0  0  0  0  0  0  0  0  0  0  0
   -8.1847    3.8474   -0.1625 C   0  0  0  0  0  0  0  0  0  0  0  0
   -6.4653    3.8862   -0.0700 S   0  0  0  0  0  0  0  0  0  0  0  0
   -9.1364    5.0028   -0.1141 C   0  0  0  0  0  0  0  0  0  0  0  0
  -10.5113    4.5181   -0.5960 C   0  0  0  0  0  0  0  0  0  0  0  0
  -10.8532    3.2113    0.1252 C   0  0  0  0  0  0  0  0  0  0  0  0
   -9.9588    2.0828   -0.3890 C   0  0  0  0  0  0  0  0  0  0  0  0
    4.6947    0.6157    1.2297 H   0  0  0  0  0  0  0  0  0  0  0  0
    3.9183   -0.7462    2.0727 H   0  0  0  0  0  0  0  0  0  0  0  0
    5.3414   -1.0320    1.0426 H   0  0  0  0  0  0  0  0  0  0  0  0
    2.7553    0.9804    1.9118 H   0  0  0  0  0  0  0  0  0  0  0  0
    0.6196    2.1951    1.9089 H   0  0  0  0  0  0  0  0  0  0  0  0
    1.7761   -0.7919   -1.8528 H   0  0  0  0  0  0  0  0  0  0  0  0
   -0.4113    1.0202   -2.8029 H   0  0  0  0  0  0  0  0  0  0  0  0
   -2.2653    3.9678    0.2164 H   0  0  0  0  0  0  0  0  0  0  0  0
   -0.3971    3.9994    0.1266 H   0  0  0  0  0  0  0  0  0  0  0  0
   -2.4921    0.4424   -0.1729 H   0  0  0  0  0  0  0  0  0  0  0  0
   -3.7381    3.0630   -0.0170 H   0  0  0  0  0  0  0  0  0  0  0  0
   -7.6175    0.5679   -0.4040 H   0  0  0  0  0  0  0  0  0  0  0  0
   -8.7791    5.8002   -0.7657 H   0  0  0  0  0  0  0  0  0  0  0  0
   -9.2147    5.3713    0.9088 H   0  0  0  0  0  0  0  0  0  0  0  0
  -10.4814    4.3449   -1.6717 H   0  0  0  0  0  0  0  0  0  0  0  0
  -11.2668    5.2699   -0.3678 H   0  0  0  0  0  0  0  0  0  0  0  0
  -11.8972    2.9584   -0.0596 H   0  0  0  0  0  0  0  0  0  0  0  0
  -10.6957    3.3386    1.1962 H   0  0  0  0  0  0  0  0  0  0  0  0
  -10.2024    1.8687   -1.4296 H   0  0  0  0  0  0  0  0  0  0  0  0
  -10.1138    1.1894    0.2159 H   0  0  0  0  0  0  0  0  0  0  0  0
  1  2  1  0  0  0  0
  1 25  1  0  0  0  0
  1 26  1  0  0  0  0
  1 27  1  0  0  0  0
  2  3  1  0  0  0  0
  3  8  2  0  0  0  0
  3  4  1  0  0  0  0
  4  5  2  0  0  0  0
  4 28  1  0  0  0  0
  5  6  1  0  0  0  0
  5 29  1  0  0  0  0
  6  7  2  0  0  0  0
  6 10  1  0  0  0  0
  7  8  1  0  0  0  0
  7  9  1  0  0  0  0
  8 30  1  0  0  0  0
  9 31  1  0  0  0  0
 10 11  2  0  0  0  0
 10 12  1  0  0  0  0
 11 32  1  0  0  0  0
 11 33  1  0  0  0  0
 12 13  1  0  0  0  0
 12 34  1  0  0  0  0
 13 14  1  0  0  0  0
 13 35  1  0  0  0  0
 14 15  2  0  0  0  0
 14 16  1  0  0  0  0
 16 20  1  0  0  0  0
 16 17  2  0  0  0  0
 17 18  1  0  0  0  0
 17 36  1  0  0  0  0
 18 24  1  0  0  0  0
 18 19  2  0  0  0  0
 19 20  1  0  0  0  0
 19 21  1  0  0  0  0
 21 22  1  0  0  0  0
 21 37  1  0  0  0  0
 21 38  1  0  0  0  0
 22 23  1  0  0  0  0
 22 39  1  0  0  0  0
 22 40  1  0  0  0  0
 23 24  1  0  0  0  0
 23 41  1  0  0  0  0
 23 42  1  0  0  0  0
 24 43  1  0  0  0  0
 24 44  1  0  0  0  0
M  END
$$$$
ZINC03568132
  -OEChem-08230709453D

 44 46  0     0  0  0  0  0  0999 V2000
  -10.3896    0.9241    2.1543 C   0  0  0  0  0  0  0  0  0  0  0  0
   -9.9267    1.0296    0.6998 C   0  0  0  0  0  0  0  0  0  0  0  0
  -10.1785    2.4486    0.1861 C   0  0  0  0  0  0  0  0  0  0  0  0
   -9.7226    2.5526   -1.2465 C   0  0  0  0  0  0  0  0  0  0  0  0
  -10.6187    2.3764   -2.2611 C   0  0  0  0  0  0  0  0  0  0  0  0
  -10.1703    2.4785   -3.5896 C   0  0  0  0  0  0  0  0  0  0  0  0
  -10.9444    2.3268   -4.5204 O   0  0  0  0  0  0  0  0  0  0  0  0
   -8.8677    2.7528   -3.8158 N   0  0  0  0  0  0  0  0  0  0  0  0
   -8.5280    2.8374   -4.7525 H   0  0  0  0  0  0  0  0  0  0  0  0
   -8.0183    2.9138   -2.7636 C   0  0  0  0  0  0  0  0  0  0  0  0
   -8.4474    2.8163   -1.5200 N   0  0  0  0  0  0  0  0  0  0  0  0
   -6.3188    3.2654   -3.0683 S   0  0  0  0  0  0  0  0  0  0  0  0
   -5.7111    3.3776   -1.3671 C   0  0  0  0  0  0  0  0  0  0  0  0
   -4.2125    3.6857   -1.3801 C   0  0  0  0  0  0  0  0  0  0  0  0
   -3.6988    3.7806    0.0579 C   0  0  0  0  0  0  0  0  0  0  0  0
   -2.2639    4.0756    0.0454 N   0  0  0  0  0  0  0  0  0  0  0  0
   -1.2381    3.1335    0.0307 C   0  0  0  0  0  0  0  0  0  0  0  0
   -1.2195    1.7470    0.0173 C   0  0  0  0  0  0  0  0  0  0  0  0
   -0.0126    1.0758    0.0080 C   0  0  0  0  0  0  0  0  0  0  0  0
    1.1786    1.7813    0.0004 C   0  0  0  0  0  0  0  0  0  0  0  0
    1.1701    3.1624    0.0074 C   0  0  0  0  0  0  0  0  0  0  0  0
   -0.0368    3.8450    0.0226 C   0  0  0  0  0  0  0  0  0  0  0  0
   -0.3698    5.1974    0.0327 N   0  0  0  0  0  0  0  0  0  0  0  0
    0.2581    5.9367    0.0308 H   0  0  0  0  0  0  0  0  0  0  0  0
   -1.7120    5.3036    0.0463 C   0  0  0  0  0  0  0  0  0  0  0  0
   -2.3320    6.3506    0.0582 O   0  0  0  0  0  0  0  0  0  0  0  0
   -9.8338    1.6355    2.7650 H   0  0  0  0  0  0  0  0  0  0  0  0
  -11.4546    1.1484    2.2138 H   0  0  0  0  0  0  0  0  0  0  0  0
  -10.2103   -0.0869    2.5202 H   0  0  0  0  0  0  0  0  0  0  0  0
  -10.4826    0.3181    0.0891 H   0  0  0  0  0  0  0  0  0  0  0  0
   -8.8617    0.8052    0.6403 H   0  0  0  0  0  0  0  0  0  0  0  0
   -9.6226    3.1600    0.7969 H   0  0  0  0  0  0  0  0  0  0  0  0
  -11.2435    2.6730    0.2457 H   0  0  0  0  0  0  0  0  0  0  0  0
  -11.6553    2.1624   -2.0467 H   0  0  0  0  0  0  0  0  0  0  0  0
   -5.8828    2.4299   -0.8567 H   0  0  0  0  0  0  0  0  0  0  0  0
   -6.2411    4.1733   -0.8437 H   0  0  0  0  0  0  0  0  0  0  0  0
   -4.0409    4.6334   -1.8905 H   0  0  0  0  0  0  0  0  0  0  0  0
   -3.6825    2.8900   -1.9035 H   0  0  0  0  0  0  0  0  0  0  0  0
   -3.8705    2.8328    0.5683 H   0  0  0  0  0  0  0  0  0  0  0  0
   -4.2288    4.5763    0.5813 H   0  0  0  0  0  0  0  0  0  0  0  0
   -2.1467    1.1933    0.0184 H   0  0  0  0  0  0  0  0  0  0  0  0
    0.0021   -0.0041    0.0020 H   0  0  0  0  0  0  0  0  0  0  0  0
    2.1184    1.2495   -0.0115 H   0  0  0  0  0  0  0  0  0  0  0  0
    2.1013    3.7093    0.0015 H   0  0  0  0  0  0  0  0  0  0  0  0
  1  2  1  0  0  0  0
  1 27  1  0  0  0  0
  1 28  1  0  0  0  0
  1 29  1  0  0  0  0
  2  3  1  0  0  0  0
  2 30  1  0  0  0  0
  2 31  1  0  0  0  0
  3  4  1  0  0  0  0
  3 32  1  0  0  0  0
  3 33  1  0  0  0  0
  4 11  1  0  0  0  0
  4  5  2  0  0  0  0
  5  6  1  0  0  0  0
  5 34  1  0  0  0  0
  6  7  2  0  0  0  0
  6  8  1  0  0  0  0
  8  9  1  0  0  0  0
  8 10  1  0  0  0  0
 10 11  2  0  0  0  0
 10 12  1  0  0  0  0
 12 13  1  0  0  0  0
 13 14  1  0  0  0  0
 13 35  1  0  0  0  0
 13 36  1  0  0  0  0
 14 15  1  0  0  0  0
 14 37  1  0  0  0  0
 14 38  1  0  0  0  0
 15 16  1  0  0  0  0
 15 39  1  0  0  0  0
 15 40  1  0  0  0  0
 16 25  1  0  0  0  0
 16 17  1  0  0  0  0
 17 22  2  0  0  0  0
 17 18  1  0  0  0  0
 18 19  2  0  0  0  0
 18 41  1  0  0  0  0
 19 20  1  0  0  0  0
 19 42  1  0  0  0  0
 20 21  2  0  0  0  0
 20 43  1  0  0  0  0
 21 22  1  0  0  0  0
 21 44  1  0  0  0  0
 22 23  1  0  0  0  0
 23 24  1  0  0  0  0
 23 25  1  0  0  0  0
 25 26  2  0  0  0  0
M  END
$$$$
ZINC03568132
  -OEChem-08230709453D

 44 46  0     0  0  0  0  0  0999 V2000
  -10.3794    0.9006    2.1496 C   0  0  0  0  0  0  0  0  0  0  0  0
   -9.9177    1.0122    0.6952 C   0  0  0  0  0  0  0  0  0  0  0  0
  -10.1751    2.4317    0.1859 C   0  0  0  0  0  0  0  0  0  0  0  0
   -9.7204    2.5417   -1.2466 C   0  0  0  0  0  0  0  0  0  0  0  0
  -10.6164    2.3652   -2.2612 C   0  0  0  0  0  0  0  0  0  0  0  0
  -10.1703    2.4785   -3.5896 C   0  0  0  0  0  0  0  0  0  0  0  0
  -10.9444    2.3268   -4.5204 O   0  0  0  0  0  0  0  0  0  0  0  0
   -8.8676    2.7522   -3.8158 N   0  0  0  0  0  0  0  0  0  0  0  0
   -7.8001    2.9377   -0.7675 H   0  0  0  0  0  0  0  0  0  0  0  0
   -8.0182    2.9132   -2.7636 C   0  0  0  0  0  0  0  0  0  0  0  0
   -8.4463    2.8107   -1.5201 N   0  0  0  0  0  0  0  0  0  0  0  0
   -6.3186    3.2644   -3.0683 S   0  0  0  0  0  0  0  0  0  0  0  0
   -5.7109    3.3768   -1.3671 C   0  0  0  0  0  0  0  0  0  0  0  0
   -4.2123    3.6846   -1.3801 C   0  0  0  0  0  0  0  0  0  0  0  0
   -3.6986    3.7797    0.0579 C   0  0  0  0  0  0  0  0  0  0  0  0
   -2.2636    4.0744    0.0454 N   0  0  0  0  0  0  0  0  0  0  0  0
   -1.2380    3.1321    0.0309 C   0  0  0  0  0  0  0  0  0  0  0  0
   -1.2197    1.7456    0.0177 C   0  0  0  0  0  0  0  0  0  0  0  0
   -0.0129    1.0741    0.0086 C   0  0  0  0  0  0  0  0  0  0  0  0
    1.1784    1.7794    0.0009 C   0  0  0  0  0  0  0  0  0  0  0  0
    1.1702    3.1605    0.0077 C   0  0  0  0  0  0  0  0  0  0  0  0
   -0.0366    3.8433    0.0227 C   0  0  0  0  0  0  0  0  0  0  0  0
   -0.3693    5.1958    0.0326 N   0  0  0  0  0  0  0  0  0  0  0  0
    0.2587    5.9350    0.0306 H   0  0  0  0  0  0  0  0  0  0  0  0
   -1.7115    5.3023    0.0461 C   0  0  0  0  0  0  0  0  0  0  0  0
   -2.3313    6.3494    0.0578 O   0  0  0  0  0  0  0  0  0  0  0  0
   -9.8259    1.6122    2.7622 H   0  0  0  0  0  0  0  0  0  0  0  0
  -11.4452    1.1207    2.2104 H   0  0  0  0  0  0  0  0  0  0  0  0
  -10.1961   -0.1108    2.5124 H   0  0  0  0  0  0  0  0  0  0  0  0
  -10.4713    0.3004    0.0827 H   0  0  0  0  0  0  0  0  0  0  0  0
   -8.8519    0.7919    0.6344 H   0  0  0  0  0  0  0  0  0  0  0  0
   -9.6215    3.1434    0.7985 H   0  0  0  0  0  0  0  0  0  0  0  0
  -11.2409    2.6520    0.2468 H   0  0  0  0  0  0  0  0  0  0  0  0
  -11.6520    2.1464   -2.0469 H   0  0  0  0  0  0  0  0  0  0  0  0
   -5.8828    2.4292   -0.8566 H   0  0  0  0  0  0  0  0  0  0  0  0
   -6.2408    4.1727   -0.8439 H   0  0  0  0  0  0  0  0  0  0  0  0
   -4.0405    4.6322   -1.8907 H   0  0  0  0  0  0  0  0  0  0  0  0
   -3.6824    2.8887   -1.9034 H   0  0  0  0  0  0  0  0  0  0  0  0
   -3.8705    2.8320    0.5684 H   0  0  0  0  0  0  0  0  0  0  0  0
   -4.2285    4.5755    0.5811 H   0  0  0  0  0  0  0  0  0  0  0  0
   -2.1470    1.1920    0.0189 H   0  0  0  0  0  0  0  0  0  0  0  0
    0.0016   -0.0058    0.0028 H   0  0  0  0  0  0  0  0  0  0  0  0
    2.1181    1.2474   -0.0109 H   0  0  0  0  0  0  0  0  0  0  0  0
    2.1015    3.7072    0.0017 H   0  0  0  0  0  0  0  0  0  0  0  0
  1  2  1  0  0  0  0
  1 27  1  0  0  0  0
  1 28  1  0  0  0  0
  1 29  1  0  0  0  0
  2  3  1  0  0  0  0
  2 30  1  0  0  0  0
  2 31  1  0  0  0  0
  3  4  1  0  0  0  0
  3 32  1  0  0  0  0
  3 33  1  0  0  0  0
  4  5  2  0  0  0  0
  4 11  1  0  0  0  0
  5 34  1  0  0  0  0
  5  6  1  0  0  0  0
  6  8  1  0  0  0  0
  6  7  2  0  0  0  0
  8 10  2  0  0  0  0
  9 11  1  0  0  0  0
 10 12  1  0  0  0  0
 10 11  1  0  0  0  0
 12 13  1  0  0  0  0
 13 14  1  0  0  0  0
 13 35  1  0  0  0  0
 13 36  1  0  0  0  0
 14 15  1  0  0  0  0
 14 37  1  0  0  0  0
 14 38  1  0  0  0  0
 15 16  1  0  0  0  0
 15 39  1  0  0  0  0
 15 40  1  0  0  0  0
 16 25  1  0  0  0  0
 16 17  1  0  0  0  0
 17 22  2  0  0  0  0
 17 18  1  0  0  0  0
 18 19  2  0  0  0  0
 18 41  1  0  0  0  0
 19 20  1  0  0  0  0
 19 42  1  0  0  0  0
 20 21  2  0  0  0  0
 20 43  1  0  0  0  0
 21 22  1  0  0  0  0
 21 44  1  0  0  0  0
 22 23  1  0  0  0  0
 23 24  1  0  0  0  0
 23 25  1  0  0  0  0
 25 26  2  0  0  0  0
M  END
$$$$
ZINC03568132
  -OEChem-08230709453D

 44 46  0     0  0  0  0  0  0999 V2000
  -10.3805    0.9031    2.1502 C   0  0  0  0  0  0  0  0  0  0  0  0
   -9.9187    1.0141    0.6957 C   0  0  0  0  0  0  0  0  0  0  0  0
  -10.1754    2.4336    0.1859 C   0  0  0  0  0  0  0  0  0  0  0  0
   -9.7206    2.5429   -1.2466 C   0  0  0  0  0  0  0  0  0  0  0  0
  -10.6166    2.3662   -2.2612 C   0  0  0  0  0  0  0  0  0  0  0  0
  -10.1702    2.4779   -3.5896 C   0  0  0  0  0  0  0  0  0  0  0  0
  -10.9433    2.3213   -4.5204 O   0  0  0  0  0  0  0  0  0  0  0  0
   -8.8676    2.7522   -3.8158 N   0  0  0  0  0  0  0  0  0  0  0  0
  -11.8578    2.1276   -4.1652 H   0  0  0  0  0  0  0  0  0  0  0  0
   -8.0183    2.9138   -2.7636 C   0  0  0  0  0  0  0  0  0  0  0  0
   -8.4464    2.8116   -1.5200 N   0  0  0  0  0  0  0  0  0  0  0  0
   -6.3188    3.2654   -3.0683 S   0  0  0  0  0  0  0  0  0  0  0  0
   -5.7111    3.3776   -1.3671 C   0  0  0  0  0  0  0  0  0  0  0  0
   -4.2125    3.6857   -1.3801 C   0  0  0  0  0  0  0  0  0  0  0  0
   -3.6988    3.7806    0.0579 C   0  0  0  0  0  0  0  0  0  0  0  0
   -2.2639    4.0756    0.0454 N   0  0  0  0  0  0  0  0  0  0  0  0
   -1.2381    3.1335    0.0307 C   0  0  0  0  0  0  0  0  0  0  0  0
   -1.2195    1.7470    0.0173 C   0  0  0  0  0  0  0  0  0  0  0  0
   -0.0126    1.0758    0.0080 C   0  0  0  0  0  0  0  0  0  0  0  0
    1.1786    1.7813    0.0004 C   0  0  0  0  0  0  0  0  0  0  0  0
    1.1701    3.1624    0.0074 C   0  0  0  0  0  0  0  0  0  0  0  0
   -0.0368    3.8450    0.0226 C   0  0  0  0  0  0  0  0  0  0  0  0
   -0.3698    5.1974    0.0327 N   0  0  0  0  0  0  0  0  0  0  0  0
    0.2581    5.9367    0.0308 H   0  0  0  0  0  0  0  0  0  0  0  0
   -1.7120    5.3036    0.0463 C   0  0  0  0  0  0  0  0  0  0  0  0
   -2.3320    6.3506    0.0582 O   0  0  0  0  0  0  0  0  0  0  0  0
   -9.8267    1.6147    2.7625 H   0  0  0  0  0  0  0  0  0  0  0  0
  -11.4462    1.1238    2.2108 H   0  0  0  0  0  0  0  0  0  0  0  0
  -10.1977   -0.1082    2.5133 H   0  0  0  0  0  0  0  0  0  0  0  0
  -10.4725    0.3024    0.0834 H   0  0  0  0  0  0  0  0  0  0  0  0
   -8.8530    0.7933    0.6351 H   0  0  0  0  0  0  0  0  0  0  0  0
   -9.6216    3.1452    0.7984 H   0  0  0  0  0  0  0  0  0  0  0  0
  -11.2411    2.6543    0.2467 H   0  0  0  0  0  0  0  0  0  0  0  0
  -11.6523    2.1478   -2.0469 H   0  0  0  0  0  0  0  0  0  0  0  0
   -5.8828    2.4299   -0.8567 H   0  0  0  0  0  0  0  0  0  0  0  0
   -6.2411    4.1733   -0.8437 H   0  0  0  0  0  0  0  0  0  0  0  0
   -4.0409    4.6334   -1.8905 H   0  0  0  0  0  0  0  0  0  0  0  0
   -3.6825    2.8900   -1.9035 H   0  0  0  0  0  0  0  0  0  0  0  0
   -3.8705    2.8328    0.5683 H   0  0  0  0  0  0  0  0  0  0  0  0
   -4.2288    4.5763    0.5813 H   0  0  0  0  0  0  0  0  0  0  0  0
   -2.1467    1.1933    0.0184 H   0  0  0  0  0  0  0  0  0  0  0  0
    0.0021   -0.0041    0.0020 H   0  0  0  0  0  0  0  0  0  0  0  0
    2.1184    1.2495   -0.0115 H   0  0  0  0  0  0  0  0  0  0  0  0
    2.1013    3.7093    0.0015 H   0  0  0  0  0  0  0  0  0  0  0  0
  1  2  1  0  0  0  0
  1 27  1  0  0  0  0
  1 28  1  0  0  0  0
  1 29  1  0  0  0  0
  2  3  1  0  0  0  0
  2 30  1  0  0  0  0
  2 31  1  0  0  0  0
  3  4  1  0  0  0  0
  3 32  1  0  0  0  0
  3 33  1  0  0  0  0
  4  5  2  0  0  0  0
  4 11  1  0  0  0  0
  5 34  1  0  0  0  0
  5  6  1  0  0  0  0
  6  8  2  0  0  0  0
  6  7  1  0  0  0  0
  7  9  1  0  0  0  0
  8 10  1  0  0  0  0
 10 12  1  0  0  0  0
 10 11  2  0  0  0  0
 12 13  1  0  0  0  0
 13 14  1  0  0  0  0
 13 35  1  0  0  0  0
 13 36  1  0  0  0  0
 14 15  1  0  0  0  0
 14 37  1  0  0  0  0
 14 38  1  0  0  0  0
 15 16  1  0  0  0  0
 15 39  1  0  0  0  0
 15 40  1  0  0  0  0
 16 25  1  0  0  0  0
 16 17  1  0  0  0  0
 17 22  2  0  0  0  0
 17 18  1  0  0  0  0
 18 19  2  0  0  0  0
 18 41  1  0  0  0  0
 19 20  1  0  0  0  0
 19 42  1  0  0  0  0
 20 21  2  0  0  0  0
 20 43  1  0  0  0  0
 21 22  1  0  0  0  0
 21 44  1  0  0  0  0
 22 23  1  0  0  0  0
 23 24  1  0  0  0  0
 23 25  1  0  0  0  0
 25 26  2  0  0  0  0
M  END
$$$$
ZINC03572379
  -OEChem-08230709453D

 45 47  0     0  0  0  0  0  0999 V2000
    6.4848    7.8893    2.1691 C   0  0  0  0  0  0  0  0  0  0  0  0
    6.0860    8.0135    0.6972 C   0  0  0  0  0  0  0  0  0  0  0  0
    4.6463    8.2666    0.6010 N   0  0  0  0  0  0  0  0  0  0  0  0
    4.0416    9.4858    0.5889 C   0  0  0  0  0  0  0  0  0  0  0  0
    2.7521    9.3451    0.4930 N   0  0  0  0  0  0  0  0  0  0  0  0
    2.4416    8.0235    0.4368 C   0  0  0  0  0  0  0  0  0  0  0  0
    3.6550    7.3142    0.5055 C   0  0  0  0  0  0  0  0  0  0  0  0
    3.6544    5.9244    0.4699 C   0  0  0  0  0  0  0  0  0  0  0  0
    2.4766    5.2418    0.3734 C   0  0  0  0  0  0  0  0  0  0  0  0
    1.2598    5.9322    0.2985 C   0  0  0  0  0  0  0  0  0  0  0  0
    1.2411    7.3232    0.3328 C   0  0  0  0  0  0  0  0  0  0  0  0
   -0.0071    5.1813    0.1890 C   0  0  0  0  0  0  0  0  0  0  0  0
   -1.0644    5.7785    0.1289 O   0  0  0  0  0  0  0  0  0  0  0  0
    0.0087    3.8341    0.1555 N   0  0  0  0  0  0  0  0  0  0  0  0
   -1.1932    3.1217    0.0516 N   0  0  0  0  0  0  0  0  0  0  0  0
   -1.1768    1.7271    0.0170 C   0  0  0  0  0  0  0  0  0  0  0  0
   -0.0167    1.0718    0.0829 C   0  0  0  0  0  0  0  0  0  0  0  0
   -2.4468    0.9744   -0.0928 C   0  0  0  0  0  0  0  0  0  0  0  0
   -2.7782    0.0165    0.8647 C   0  0  0  0  0  0  0  0  0  0  0  0
   -3.9648   -0.6829    0.7571 C   0  0  0  0  0  0  0  0  0  0  0  0
   -4.8269   -0.4349   -0.2995 C   0  0  0  0  0  0  0  0  0  0  0  0
   -4.5067    0.5126   -1.2530 C   0  0  0  0  0  0  0  0  0  0  0  0
   -3.3225    1.2251   -1.1544 C   0  0  0  0  0  0  0  0  0  0  0  0
   -3.0105    2.1610   -2.0886 O   0  0  0  0  0  0  0  0  0  0  0  0
   -4.2859   -1.6111    1.6847 F   0  0  0  0  0  0  0  0  0  0  0  0
    4.7614   10.8069    0.6748 C   0  0  0  0  0  0  0  0  0  0  0  0
    6.2431    8.8156    2.6904 H   0  0  0  0  0  0  0  0  0  0  0  0
    5.9393    7.0629    2.6248 H   0  0  0  0  0  0  0  0  0  0  0  0
    7.5560    7.7010    2.2407 H   0  0  0  0  0  0  0  0  0  0  0  0
    6.3277    7.0872    0.1759 H   0  0  0  0  0  0  0  0  0  0  0  0
    6.6315    8.8398    0.2415 H   0  0  0  0  0  0  0  0  0  0  0  0
    4.5877    5.3836    0.5229 H   0  0  0  0  0  0  0  0  0  0  0  0
    2.4829    4.1621    0.3503 H   0  0  0  0  0  0  0  0  0  0  0  0
    0.3033    7.8561    0.2797 H   0  0  0  0  0  0  0  0  0  0  0  0
    0.8523    3.3576    0.2034 H   0  0  0  0  0  0  0  0  0  0  0  0
   -2.0368    3.5982    0.0037 H   0  0  0  0  0  0  0  0  0  0  0  0
   -0.0082   -0.0065    0.1430 H   0  0  0  0  0  0  0  0  0  0  0  0
    0.9142    1.6193    0.0716 H   0  0  0  0  0  0  0  0  0  0  0  0
   -2.1085   -0.1782    1.6893 H   0  0  0  0  0  0  0  0  0  0  0  0
   -5.7530   -0.9849   -0.3780 H   0  0  0  0  0  0  0  0  0  0  0  0
   -5.1827    0.7013   -2.0739 H   0  0  0  0  0  0  0  0  0  0  0  0
   -2.5122    1.8145   -2.8414 H   0  0  0  0  0  0  0  0  0  0  0  0
    4.8612   11.0990    1.7202 H   0  0  0  0  0  0  0  0  0  0  0  0
    5.7511   10.7112    0.2283 H   0  0  0  0  0  0  0  0  0  0  0  0
    4.1926   11.5662    0.1382 H   0  0  0  0  0  0  0  0  0  0  0  0
  1  2  1  0  0  0  0
  1 27  1  0  0  0  0
  1 28  1  0  0  0  0
  1 29  1  0  0  0  0
  2  3  1  0  0  0  0
  2 30  1  0  0  0  0
  2 31  1  0  0  0  0
  3  7  1  0  0  0  0
  3  4  1  0  0  0  0
  4  5  2  0  0  0  0
  4 26  1  0  0  0  0
  5  6  1  0  0  0  0
  6 11  2  0  0  0  0
  6  7  1  0  0  0  0
  7  8  2  0  0  0  0
  8  9  1  0  0  0  0
  8 32  1  0  0  0  0
  9 10  2  0  0  0  0
  9 33  1  0  0  0  0
 10 11  1  0  0  0  0
 10 12  1  0  0  0  0
 11 34  1  0  0  0  0
 12 13  2  0  0  0  0
 12 14  1  0  0  0  0
 14 15  1  0  0  0  0
 14 35  1  0  0  0  0
 15 16  1  0  0  0  0
 15 36  1  0  0  0  0
 16 17  2  0  0  0  0
 16 18  1  0  0  0  0
 17 37  1  0  0  0  0
 17 38  1  0  0  0  0
 18 23  2  0  0  0  0
 18 19  1  0  0  0  0
 19 20  2  0  0  0  0
 19 39  1  0  0  0  0
 20 21  1  0  0  0  0
 20 25  1  0  0  0  0
 21 22  2  0  0  0  0
 21 40  1  0  0  0  0
 22 23  1  0  0  0  0
 22 41  1  0  0  0  0
 23 24  1  0  0  0  0
 24 42  1  0  0  0  0
 26 43  1  0  0  0  0
 26 44  1  0  0  0  0
 26 45  1  0  0  0  0
M  END
$$$$
ZINC03576397
  -OEChem-08230709453D

 45 46  0     0  0  0  0  0  0999 V2000
    1.1408   10.0260    0.3959 C   0  0  0  0  0  0  0  0  0  0  0  0
    2.4174    9.3883    0.4706 O   0  0  0  0  0  0  0  0  0  0  0  0
    2.4314    8.0288    0.4362 C   0  0  0  0  0  0  0  0  0  0  0  0
    1.2442    7.3283    0.3332 C   0  0  0  0  0  0  0  0  0  0  0  0
    1.2592    5.9318    0.2984 C   0  0  0  0  0  0  0  0  0  0  0  0
    2.4744    5.2467    0.3733 C   0  0  0  0  0  0  0  0  0  0  0  0
    3.6593    5.9519    0.4705 C   0  0  0  0  0  0  0  0  0  0  0  0
    3.6415    7.3437    0.5054 C   0  0  0  0  0  0  0  0  0  0  0  0
    4.8073    8.0346    0.6067 O   0  0  0  0  0  0  0  0  0  0  0  0
    5.2729    8.3319    1.9246 C   0  0  0  0  0  0  0  0  0  0  0  0
    4.8430    5.2857    0.5378 O   0  0  0  0  0  0  0  0  0  0  0  0
    4.7873    3.8583    0.4967 C   0  0  0  0  0  0  0  0  0  0  0  0
   -0.0071    5.1813    0.1890 C   0  0  0  0  0  0  0  0  0  0  0  0
   -1.0645    5.7785    0.1289 O   0  0  0  0  0  0  0  0  0  0  0  0
    0.0087    3.8341    0.1555 N   0  0  0  0  0  0  0  0  0  0  0  0
   -1.1932    3.1217    0.0516 N   0  0  0  0  0  0  0  0  0  0  0  0
   -1.1768    1.7271    0.0170 C   0  0  0  0  0  0  0  0  0  0  0  0
   -0.0167    1.0718    0.0829 C   0  0  0  0  0  0  0  0  0  0  0  0
   -2.4468    0.9744   -0.0928 C   0  0  0  0  0  0  0  0  0  0  0  0
   -2.7782    0.0165    0.8647 C   0  0  0  0  0  0  0  0  0  0  0  0
   -3.9648   -0.6829    0.7571 C   0  0  0  0  0  0  0  0  0  0  0  0
   -4.8269   -0.4349   -0.2995 C   0  0  0  0  0  0  0  0  0  0  0  0
   -4.5067    0.5126   -1.2530 C   0  0  0  0  0  0  0  0  0  0  0  0
   -3.3225    1.2251   -1.1544 C   0  0  0  0  0  0  0  0  0  0  0  0
   -3.0105    2.1610   -2.0886 O   0  0  0  0  0  0  0  0  0  0  0  0
   -4.2859   -1.6111    1.6847 F   0  0  0  0  0  0  0  0  0  0  0  0
    1.2721   11.1074    0.4334 H   0  0  0  0  0  0  0  0  0  0  0  0
    0.6517    9.7516   -0.5388 H   0  0  0  0  0  0  0  0  0  0  0  0
    0.5248    9.7055    1.2361 H   0  0  0  0  0  0  0  0  0  0  0  0
    0.3058    7.8602    0.2799 H   0  0  0  0  0  0  0  0  0  0  0  0
    2.4884    4.1670    0.3508 H   0  0  0  0  0  0  0  0  0  0  0  0
    5.4347    7.4027    2.4710 H   0  0  0  0  0  0  0  0  0  0  0  0
    6.2101    8.8849    1.8627 H   0  0  0  0  0  0  0  0  0  0  0  0
    4.5290    8.9348    2.4454 H   0  0  0  0  0  0  0  0  0  0  0  0
    4.3245    3.5395   -0.4372 H   0  0  0  0  0  0  0  0  0  0  0  0
    5.7974    3.4534    0.5584 H   0  0  0  0  0  0  0  0  0  0  0  0
    4.1976    3.4934    1.3377 H   0  0  0  0  0  0  0  0  0  0  0  0
    0.8523    3.3576    0.2034 H   0  0  0  0  0  0  0  0  0  0  0  0
   -2.0368    3.5982    0.0037 H   0  0  0  0  0  0  0  0  0  0  0  0
   -0.0082   -0.0065    0.1430 H   0  0  0  0  0  0  0  0  0  0  0  0
    0.9142    1.6193    0.0716 H   0  0  0  0  0  0  0  0  0  0  0  0
   -2.1085   -0.1782    1.6893 H   0  0  0  0  0  0  0  0  0  0  0  0
   -5.7530   -0.9849   -0.3780 H   0  0  0  0  0  0  0  0  0  0  0  0
   -5.1827    0.7013   -2.0739 H   0  0  0  0  0  0  0  0  0  0  0  0
   -2.5122    1.8145   -2.8414 H   0  0  0  0  0  0  0  0  0  0  0  0
  1  2  1  0  0  0  0
  1 27  1  0  0  0  0
  1 28  1  0  0  0  0
  1 29  1  0  0  0  0
  2  3  1  0  0  0  0
  3  8  2  0  0  0  0
  3  4  1  0  0  0  0
  4  5  2  0  0  0  0
  4 30  1  0  0  0  0
  5  6  1  0  0  0  0
  5 13  1  0  0  0  0
  6  7  2  0  0  0  0
  6 31  1  0  0  0  0
  7  8  1  0  0  0  0
  7 11  1  0  0  0  0
  8  9  1  0  0  0  0
  9 10  1  0  0  0  0
 10 32  1  0  0  0  0
 10 33  1  0  0  0  0
 10 34  1  0  0  0  0
 11 12  1  0  0  0  0
 12 35  1  0  0  0  0
 12 36  1  0  0  0  0
 12 37  1  0  0  0  0
 13 14  2  0  0  0  0
 13 15  1  0  0  0  0
 15 16  1  0  0  0  0
 15 38  1  0  0  0  0
 16 17  1  0  0  0  0
 16 39  1  0  0  0  0
 17 18  2  0  0  0  0
 17 19  1  0  0  0  0
 18 40  1  0  0  0  0
 18 41  1  0  0  0  0
 19 24  2  0  0  0  0
 19 20  1  0  0  0  0
 20 21  2  0  0  0  0
 20 42  1  0  0  0  0
 21 22  1  0  0  0  0
 21 26  1  0  0  0  0
 22 23  2  0  0  0  0
 22 43  1  0  0  0  0
 23 24  1  0  0  0  0
 23 44  1  0  0  0  0
 24 25  1  0  0  0  0
 25 45  1  0  0  0  0
M  END
$$$$
ZINC03577192
  -OEChem-08230709453D

 42 44  0     0  0  0  0  0  0999 V2000
   -6.9243   -3.2181    1.1914 C   0  0  0  0  0  0  0  0  0  0  0  0
   -5.6862   -2.3960    0.9420 C   0  0  0  0  0  0  0  0  0  0  0  0
   -4.6653   -2.9057    0.1604 C   0  0  0  0  0  0  0  0  0  0  0  0
   -3.5294   -2.1551   -0.0697 C   0  0  0  0  0  0  0  0  0  0  0  0
   -3.4128   -0.8866    0.4844 C   0  0  0  0  0  0  0  0  0  0  0  0
   -4.4377   -0.3797    1.2726 C   0  0  0  0  0  0  0  0  0  0  0  0
   -5.5732   -1.1339    1.4953 C   0  0  0  0  0  0  0  0  0  0  0  0
   -4.3129    0.9935    1.8808 C   0  0  0  0  0  0  0  0  0  0  0  0
   -2.2634   -0.1240    0.2537 N   0  0  0  0  0  0  0  0  0  0  0  0
   -1.0449   -0.6837    0.3893 C   0  0  0  0  0  0  0  0  0  0  0  0
   -0.9039   -2.3561    0.7272 S   0  0  0  0  0  0  0  0  0  0  0  0
    0.0626    0.0732    0.2588 N   0  0  0  0  0  0  0  0  0  0  0  0
   -0.0436    1.3333    0.0041 N   0  0  0  0  0  0  0  0  0  0  0  0
    1.0302    2.0890   -0.0314 C   0  0  0  0  0  0  0  0  0  0  0  0
    2.4449    1.6649    0.0738 C   0  0  0  0  0  0  0  0  0  0  0  0
    3.0740    0.4386    0.2316 C   0  0  0  0  0  0  0  0  0  0  0  0
    4.4525    0.3794    0.2967 C   0  0  0  0  0  0  0  0  0  0  0  0
    5.2058    1.5395    0.2047 C   0  0  0  0  0  0  0  0  0  0  0  0
    4.5972    2.7646    0.0402 C   0  0  0  0  0  0  0  0  0  0  0  0
    3.2023    2.8499   -0.0239 C   0  0  0  0  0  0  0  0  0  0  0  0
    2.3615    3.9077   -0.1654 N   0  0  0  0  0  0  0  0  0  0  0  0
    1.1023    3.5550   -0.1789 C   0  0  0  0  0  0  0  0  0  0  0  0
    0.0451    4.3924   -0.3070 O   0  0  0  0  0  0  0  0  0  0  0  0
    5.4336    4.0145   -0.0555 C   0  0  0  0  0  0  0  0  0  0  0  0
   -6.7849   -3.8220    2.0881 H   0  0  0  0  0  0  0  0  0  0  0  0
   -7.7789   -2.5556    1.3288 H   0  0  0  0  0  0  0  0  0  0  0  0
   -7.1047   -3.8715    0.3378 H   0  0  0  0  0  0  0  0  0  0  0  0
   -4.7565   -3.8920   -0.2700 H   0  0  0  0  0  0  0  0  0  0  0  0
   -2.7322   -2.5540   -0.6795 H   0  0  0  0  0  0  0  0  0  0  0  0
   -6.3719   -0.7391    2.1057 H   0  0  0  0  0  0  0  0  0  0  0  0
   -4.7219    1.7339    1.1933 H   0  0  0  0  0  0  0  0  0  0  0  0
   -4.8645    1.0263    2.8203 H   0  0  0  0  0  0  0  0  0  0  0  0
   -3.2620    1.2135    2.0686 H   0  0  0  0  0  0  0  0  0  0  0  0
   -2.3432    0.8078   -0.0039 H   0  0  0  0  0  0  0  0  0  0  0  0
    0.9396   -0.3296    0.3564 H   0  0  0  0  0  0  0  0  0  0  0  0
    2.4885   -0.4661    0.3031 H   0  0  0  0  0  0  0  0  0  0  0  0
    4.9450   -0.5738    0.4199 H   0  0  0  0  0  0  0  0  0  0  0  0
    6.2830    1.4816    0.2568 H   0  0  0  0  0  0  0  0  0  0  0  0
    0.2895    5.3240   -0.3928 H   0  0  0  0  0  0  0  0  0  0  0  0
    5.5948    4.4211    0.9429 H   0  0  0  0  0  0  0  0  0  0  0  0
    6.3950    3.7744   -0.5096 H   0  0  0  0  0  0  0  0  0  0  0  0
    4.9161    4.7519   -0.6690 H   0  0  0  0  0  0  0  0  0  0  0  0
  1  2  1  0  0  0  0
  1 25  1  0  0  0  0
  1 26  1  0  0  0  0
  1 27  1  0  0  0  0
  2  7  2  0  0  0  0
  2  3  1  0  0  0  0
  3  4  2  0  0  0  0
  3 28  1  0  0  0  0
  4  5  1  0  0  0  0
  4 29  1  0  0  0  0
  5  6  2  0  0  0  0
  5  9  1  0  0  0  0
  6  7  1  0  0  0  0
  6  8  1  0  0  0  0
  7 30  1  0  0  0  0
  8 31  1  0  0  0  0
  8 32  1  0  0  0  0
  8 33  1  0  0  0  0
  9 10  1  0  0  0  0
  9 34  1  0  0  0  0
 10 11  2  0  0  0  0
 10 12  1  0  0  0  0
 12 13  1  0  0  0  0
 12 35  1  0  0  0  0
 13 14  2  0  0  0  0
 14 22  1  0  0  0  0
 14 15  1  0  0  0  0
 15 20  2  0  0  0  0
 15 16  1  0  0  0  0
 16 17  2  0  0  0  0
 16 36  1  0  0  0  0
 17 18  1  0  0  0  0
 17 37  1  0  0  0  0
 18 19  2  0  0  0  0
 18 38  1  0  0  0  0
 19 20  1  0  0  0  0
 19 24  1  0  0  0  0
 20 21  1  0  0  0  0
 21 22  2  0  0  0  0
 22 23  1  0  0  0  0
 23 39  1  0  0  0  0
 24 40  1  0  0  0  0
 24 41  1  0  0  0  0
 24 42  1  0  0  0  0
M  END
$$$$
ZINC03581071
  -OEChem-08230709453D

 41 43  0     1  0  0  0  0  0999 V2000
    0.2624    8.9474    8.8303 C   0  0  0  0  0  0  0  0  0  0  0  0
    0.4387    7.4950    8.3829 C   0  0  1  0  0  0  0  0  0  0  0  0
    1.4922    7.2229    8.4481 H   0  0  0  0  0  0  0  0  0  0  0  0
   -0.3806    6.5786    9.2960 C   0  0  0  0  0  0  0  0  0  0  0  0
    0.0126    5.1213    9.0143 C   0  0  0  0  0  0  0  0  0  0  0  0
    0.0027    4.9076    7.5320 C   0  0  0  0  0  0  0  0  0  0  0  0
   -0.0193    5.8685    6.5616 C   0  0  0  0  0  0  0  0  0  0  0  0
   -0.0253    5.4284    5.2478 C   0  0  0  0  0  0  0  0  0  0  0  0
   -0.0084    4.0652    5.0158 C   0  0  0  0  0  0  0  0  0  0  0  0
    0.0083    3.4125    6.6769 S   0  0  0  0  0  0  0  0  0  0  0  0
   -0.0101    3.3448    3.7397 C   0  0  0  0  0  0  0  0  0  0  0  0
   -0.0285    3.9636    2.6913 O   0  0  0  0  0  0  0  0  0  0  0  0
    0.0086    1.9972    3.7266 N   0  0  0  0  0  0  0  0  0  0  0  0
    0.0069    1.3085    2.5065 N   0  0  0  0  0  0  0  0  0  0  0  0
    0.0250    0.0102    2.4939 C   0  0  0  0  0  0  0  0  0  0  0  0
    0.0232   -0.7140    1.2111 C   0  0  0  0  0  0  0  0  0  0  0  0
    0.0421   -2.1111    1.1943 C   0  0  0  0  0  0  0  0  0  0  0  0
    0.0399   -2.7845   -0.0076 C   0  0  0  0  0  0  0  0  0  0  0  0
    0.0194   -2.0789   -1.2049 C   0  0  0  0  0  0  0  0  0  0  0  0
   -0.0057   -0.6919   -1.1988 C   0  0  0  0  0  0  0  0  0  0  0  0
    0.0021   -0.0041    0.0020 C   0  0  0  0  0  0  0  0  0  0  0  0
   -0.0163    1.3538    0.0095 O   0  0  0  0  0  0  0  0  0  0  0  0
    0.0174   -2.7503   -2.3859 O   0  0  0  0  0  0  0  0  0  0  0  0
   -0.0350    7.3481    6.9365 C   0  0  0  0  0  0  0  0  0  0  0  0
   -0.7898    9.2235    8.7620 H   0  0  0  0  0  0  0  0  0  0  0  0
    0.5998    9.0535    9.8613 H   0  0  0  0  0  0  0  0  0  0  0  0
    0.8518    9.6001    8.1862 H   0  0  0  0  0  0  0  0  0  0  0  0
   -0.1706    6.8189   10.3383 H   0  0  0  0  0  0  0  0  0  0  0  0
   -1.4429    6.7181    9.0957 H   0  0  0  0  0  0  0  0  0  0  0  0
    1.0111    4.9281    9.4064 H   0  0  0  0  0  0  0  0  0  0  0  0
   -0.7039    4.4498    9.4874 H   0  0  0  0  0  0  0  0  0  0  0  0
   -0.0430    6.1307    4.4275 H   0  0  0  0  0  0  0  0  0  0  0  0
    0.0232    1.5042    4.5618 H   0  0  0  0  0  0  0  0  0  0  0  0
    0.0412   -0.5387    3.4238 H   0  0  0  0  0  0  0  0  0  0  0  0
    0.0588   -2.6626    2.1227 H   0  0  0  0  0  0  0  0  0  0  0  0
    0.0546   -3.8644   -0.0195 H   0  0  0  0  0  0  0  0  0  0  0  0
   -0.0264   -0.1484   -2.1318 H   0  0  0  0  0  0  0  0  0  0  0  0
    0.8616    1.7591    0.0033 H   0  0  0  0  0  0  0  0  0  0  0  0
   -0.8664   -2.9564   -2.7196 H   0  0  0  0  0  0  0  0  0  0  0  0
    0.6334    7.8997    6.2754 H   0  0  0  0  0  0  0  0  0  0  0  0
   -1.0481    7.7387    6.8403 H   0  0  0  0  0  0  0  0  0  0  0  0
  1  2  1  0  0  0  0
  1 25  1  0  0  0  0
  1 26  1  0  0  0  0
  1 27  1  0  0  0  0
  2  3  1  0  0  0  0
  2 24  1  0  0  0  0
  2  4  1  0  0  0  0
  4  5  1  0  0  0  0
  4 28  1  0  0  0  0
  4 29  1  0  0  0  0
  5  6  1  0  0  0  0
  5 30  1  0  0  0  0
  5 31  1  0  0  0  0
  6 10  1  0  0  0  0
  6  7  2  0  0  0  0
  7  8  1  0  0  0  0
  7 24  1  0  0  0  0
  8  9  2  0  0  0  0
  8 32  1  0  0  0  0
  9 10  1  0  0  0  0
  9 11  1  0  0  0  0
 11 12  2  0  0  0  0
 11 13  1  0  0  0  0
 13 14  1  0  0  0  0
 13 33  1  0  0  0  0
 14 15  2  0  0  0  0
 15 16  1  0  0  0  0
 15 34  1  0  0  0  0
 16 21  2  0  0  0  0
 16 17  1  0  0  0  0
 17 18  2  0  0  0  0
 17 35  1  0  0  0  0
 18 19  1  0  0  0  0
 18 36  1  0  0  0  0
 19 20  2  0  0  0  0
 19 23  1  0  0  0  0
 20 21  1  0  0  0  0
 20 37  1  0  0  0  0
 21 22  1  0  0  0  0
 22 38  1  0  0  0  0
 23 39  1  0  0  0  0
 24 40  1  0  0  0  0
 24 41  1  0  0  0  0
M  END
$$$$
ZINC03581075
  -OEChem-08230709453D

 41 43  0     1  0  0  0  0  0999 V2000
    0.8302   -1.9980    1.2590 C   0  0  0  0  0  0  0  0  0  0  0  0
    0.9913   -0.4888    1.0656 C   0  0  2  0  0  0  0  0  0  0  0  0
    0.7883    0.0205    2.0077 H   0  0  0  0  0  0  0  0  0  0  0  0
    0.0021   -0.0041    0.0020 C   0  0  0  0  0  0  0  0  0  0  0  0
   -0.0187    1.5312    0.0105 C   0  0  0  0  0  0  0  0  0  0  0  0
    1.3959    2.0228   -0.0004 C   0  0  0  0  0  0  0  0  0  0  0  0
    2.5219    1.2971    0.2657 C   0  0  0  0  0  0  0  0  0  0  0  0
    3.7303    1.9711    0.1929 C   0  0  0  0  0  0  0  0  0  0  0  0
    3.7102    3.3134   -0.1389 C   0  0  0  0  0  0  0  0  0  0  0  0
    1.9628    3.6118   -0.3471 S   0  0  0  0  0  0  0  0  0  0  0  0
    4.8308    4.2468   -0.2828 C   0  0  0  0  0  0  0  0  0  0  0  0
    5.9712    3.8614   -0.1007 O   0  0  0  0  0  0  0  0  0  0  0  0
    4.5989    5.5317   -0.6167 N   0  0  0  0  0  0  0  0  0  0  0  0
    5.6702    6.4240   -0.7543 N   0  0  0  0  0  0  0  0  0  0  0  0
    5.4468    7.6621   -1.0760 C   0  0  0  0  0  0  0  0  0  0  0  0
    6.5732    8.6002   -1.2207 C   0  0  0  0  0  0  0  0  0  0  0  0
    6.3364    9.9317   -1.5724 C   0  0  0  0  0  0  0  0  0  0  0  0
    7.3924   10.8071   -1.7019 C   0  0  0  0  0  0  0  0  0  0  0  0
    8.6946   10.3681   -1.4937 C   0  0  0  0  0  0  0  0  0  0  0  0
    8.9406    9.0470   -1.1494 C   0  0  0  0  0  0  0  0  0  0  0  0
    7.8879    8.1594   -1.0116 C   0  0  0  0  0  0  0  0  0  0  0  0
    8.1272    6.8655   -0.6755 O   0  0  0  0  0  0  0  0  0  0  0  0
    9.7308   11.2362   -1.6285 O   0  0  0  0  0  0  0  0  0  0  0  0
    2.4229   -0.1835    0.6237 C   0  0  0  0  0  0  0  0  0  0  0  0
    1.0297   -2.5084    0.3168 H   0  0  0  0  0  0  0  0  0  0  0  0
    1.5339   -2.3445    2.0159 H   0  0  0  0  0  0  0  0  0  0  0  0
   -0.1877   -2.2163    1.5821 H   0  0  0  0  0  0  0  0  0  0  0  0
   -0.9939   -0.3843    0.2289 H   0  0  0  0  0  0  0  0  0  0  0  0
    0.3142   -0.3599   -0.9798 H   0  0  0  0  0  0  0  0  0  0  0  0
   -0.5410    1.8962   -0.8739 H   0  0  0  0  0  0  0  0  0  0  0  0
   -0.5240    1.8866    0.9085 H   0  0  0  0  0  0  0  0  0  0  0  0
    4.6622    1.4620    0.3896 H   0  0  0  0  0  0  0  0  0  0  0  0
    3.6903    5.8388   -0.7618 H   0  0  0  0  0  0  0  0  0  0  0  0
    4.4352    8.0039   -1.2375 H   0  0  0  0  0  0  0  0  0  0  0  0
    5.3262   10.2751   -1.7392 H   0  0  0  0  0  0  0  0  0  0  0  0
    7.2079   11.8370   -1.9697 H   0  0  0  0  0  0  0  0  0  0  0  0
    9.9543    8.7109   -0.9891 H   0  0  0  0  0  0  0  0  0  0  0  0
    8.2621    6.2807   -1.4336 H   0  0  0  0  0  0  0  0  0  0  0  0
   10.0961   11.2768   -2.5229 H   0  0  0  0  0  0  0  0  0  0  0  0
    3.1123   -0.4096    1.4371 H   0  0  0  0  0  0  0  0  0  0  0  0
    2.6728   -0.7878   -0.2483 H   0  0  0  0  0  0  0  0  0  0  0  0
  1  2  1  0  0  0  0
  1 25  1  0  0  0  0
  1 26  1  0  0  0  0
  1 27  1  0  0  0  0
  2  3  1  0  0  0  0
  2 24  1  0  0  0  0
  2  4  1  0  0  0  0
  4  5  1  0  0  0  0
  4 28  1  0  0  0  0
  4 29  1  0  0  0  0
  5  6  1  0  0  0  0
  5 30  1  0  0  0  0
  5 31  1  0  0  0  0
  6 10  1  0  0  0  0
  6  7  2  0  0  0  0
  7  8  1  0  0  0  0
  7 24  1  0  0  0  0
  8  9  2  0  0  0  0
  8 32  1  0  0  0  0
  9 10  1  0  0  0  0
  9 11  1  0  0  0  0
 11 12  2  0  0  0  0
 11 13  1  0  0  0  0
 13 14  1  0  0  0  0
 13 33  1  0  0  0  0
 14 15  2  0  0  0  0
 15 16  1  0  0  0  0
 15 34  1  0  0  0  0
 16 21  2  0  0  0  0
 16 17  1  0  0  0  0
 17 18  2  0  0  0  0
 17 35  1  0  0  0  0
 18 19  1  0  0  0  0
 18 36  1  0  0  0  0
 19 20  2  0  0  0  0
 19 23  1  0  0  0  0
 20 21  1  0  0  0  0
 20 37  1  0  0  0  0
 21 22  1  0  0  0  0
 22 38  1  0  0  0  0
 23 39  1  0  0  0  0
 24 40  1  0  0  0  0
 24 41  1  0  0  0  0
M  END
$$$$
ZINC03581117
  -OEChem-08230709453D

 41 43  0     1  0  0  0  0  0999 V2000
    8.5742    0.2183   -0.3807 C   0  0  0  0  0  0  0  0  0  0  0  0
    7.0983   -0.1566   -0.5293 C   0  0  1  0  0  0  0  0  0  0  0  0
    6.8828   -0.3642   -1.5774 H   0  0  0  0  0  0  0  0  0  0  0  0
    6.8041   -1.4049    0.3073 C   0  0  0  0  0  0  0  0  0  0  0  0
    5.4067   -1.9259   -0.0581 C   0  0  0  0  0  0  0  0  0  0  0  0
    4.4534   -0.7709   -0.0442 C   0  0  0  0  0  0  0  0  0  0  0  0
    4.7696    0.5578   -0.0405 C   0  0  0  0  0  0  0  0  0  0  0  0
    3.7107    1.4511   -0.0256 C   0  0  0  0  0  0  0  0  0  0  0  0
    2.4256    0.9402   -0.0161 C   0  0  0  0  0  0  0  0  0  0  0  0
    2.7319   -0.8182   -0.0205 S   0  0  0  0  0  0  0  0  0  0  0  0
    1.1468    1.6555   -0.0000 C   0  0  0  0  0  0  0  0  0  0  0  0
    1.1303    2.8728    0.0067 O   0  0  0  0  0  0  0  0  0  0  0  0
   -0.0111    0.9658    0.0074 N   0  0  0  0  0  0  0  0  0  0  0  0
   -1.2338    1.6498    0.0169 N   0  0  0  0  0  0  0  0  0  0  0  0
   -2.3490    0.9855    0.0185 C   0  0  0  0  0  0  0  0  0  0  0  0
   -3.6356    1.7052    0.0286 C   0  0  0  0  0  0  0  0  0  0  0  0
   -3.6566    3.1022    0.0363 C   0  0  0  0  0  0  0  0  0  0  0  0
   -4.8611    3.7734    0.0457 C   0  0  0  0  0  0  0  0  0  0  0  0
   -6.0538    3.0649    0.0471 C   0  0  0  0  0  0  0  0  0  0  0  0
   -6.0406    1.6718    0.0394 C   0  0  0  0  0  0  0  0  0  0  0  0
   -4.8371    0.9919    0.0246 C   0  0  0  0  0  0  0  0  0  0  0  0
   -7.2119    0.9808    0.0404 O   0  0  0  0  0  0  0  0  0  0  0  0
   -7.2385    3.7316    0.0554 O   0  0  0  0  0  0  0  0  0  0  0  0
    6.2284    1.0072   -0.0529 C   0  0  0  0  0  0  0  0  0  0  0  0
    8.7916    0.4306    0.6661 H   0  0  0  0  0  0  0  0  0  0  0  0
    9.1956   -0.6105   -0.7200 H   0  0  0  0  0  0  0  0  0  0  0  0
    8.7870    1.1020   -0.9823 H   0  0  0  0  0  0  0  0  0  0  0  0
    7.5479   -2.1722    0.0928 H   0  0  0  0  0  0  0  0  0  0  0  0
    6.8362   -1.1507    1.3668 H   0  0  0  0  0  0  0  0  0  0  0  0
    5.4294   -2.3712   -1.0527 H   0  0  0  0  0  0  0  0  0  0  0  0
    5.0909   -2.6721    0.6710 H   0  0  0  0  0  0  0  0  0  0  0  0
    3.8841    2.5171   -0.0212 H   0  0  0  0  0  0  0  0  0  0  0  0
    0.0021   -0.0041    0.0020 H   0  0  0  0  0  0  0  0  0  0  0  0
   -2.3344   -0.0944    0.0126 H   0  0  0  0  0  0  0  0  0  0  0  0
   -2.7295    3.6563    0.0345 H   0  0  0  0  0  0  0  0  0  0  0  0
   -4.8760    4.8533    0.0516 H   0  0  0  0  0  0  0  0  0  0  0  0
   -4.8255   -0.0879    0.0138 H   0  0  0  0  0  0  0  0  0  0  0  0
   -7.5542    0.7857   -0.8427 H   0  0  0  0  0  0  0  0  0  0  0  0
   -7.5849    3.9290   -0.8255 H   0  0  0  0  0  0  0  0  0  0  0  0
    6.3447    1.8520   -0.7317 H   0  0  0  0  0  0  0  0  0  0  0  0
    6.5284    1.3024    0.9526 H   0  0  0  0  0  0  0  0  0  0  0  0
  1  2  1  0  0  0  0
  1 25  1  0  0  0  0
  1 26  1  0  0  0  0
  1 27  1  0  0  0  0
  2  3  1  0  0  0  0
  2 24  1  0  0  0  0
  2  4  1  0  0  0  0
  4  5  1  0  0  0  0
  4 28  1  0  0  0  0
  4 29  1  0  0  0  0
  5  6  1  0  0  0  0
  5 30  1  0  0  0  0
  5 31  1  0  0  0  0
  6 10  1  0  0  0  0
  6  7  2  0  0  0  0
  7  8  1  0  0  0  0
  7 24  1  0  0  0  0
  8  9  2  0  0  0  0
  8 32  1  0  0  0  0
  9 10  1  0  0  0  0
  9 11  1  0  0  0  0
 11 12  2  0  0  0  0
 11 13  1  0  0  0  0
 13 14  1  0  0  0  0
 13 33  1  0  0  0  0
 14 15  2  0  0  0  0
 15 16  1  0  0  0  0
 15 34  1  0  0  0  0
 16 21  2  0  0  0  0
 16 17  1  0  0  0  0
 17 18  2  0  0  0  0
 17 35  1  0  0  0  0
 18 19  1  0  0  0  0
 18 36  1  0  0  0  0
 19 20  2  0  0  0  0
 19 23  1  0  0  0  0
 20 21  1  0  0  0  0
 20 22  1  0  0  0  0
 21 37  1  0  0  0  0
 22 38  1  0  0  0  0
 23 39  1  0  0  0  0
 24 40  1  0  0  0  0
 24 41  1  0  0  0  0
M  END
$$$$
ZINC03581120
  -OEChem-08230709453D

 41 43  0     1  0  0  0  0  0999 V2000
    0.8296   -1.9979    1.2595 C   0  0  0  0  0  0  0  0  0  0  0  0
    0.9908   -0.4887    1.0661 C   0  0  2  0  0  0  0  0  0  0  0  0
    0.7874    0.0207    2.0080 H   0  0  0  0  0  0  0  0  0  0  0  0
    0.0021   -0.0041    0.0020 C   0  0  0  0  0  0  0  0  0  0  0  0
   -0.0187    1.5313    0.0105 C   0  0  0  0  0  0  0  0  0  0  0  0
    1.3959    2.0227   -0.0004 C   0  0  0  0  0  0  0  0  0  0  0  0
    2.5219    1.2970    0.2664 C   0  0  0  0  0  0  0  0  0  0  0  0
    3.7302    1.9709    0.1942 C   0  0  0  0  0  0  0  0  0  0  0  0
    3.7104    3.3128   -0.1398 C   0  0  0  0  0  0  0  0  0  0  0  0
    1.9631    3.6113   -0.3485 S   0  0  0  0  0  0  0  0  0  0  0  0
    4.8310    4.2460   -0.2836 C   0  0  0  0  0  0  0  0  0  0  0  0
    5.9713    3.8609   -0.0999 O   0  0  0  0  0  0  0  0  0  0  0  0
    4.5994    5.5306   -0.6192 N   0  0  0  0  0  0  0  0  0  0  0  0
    5.6708    6.4228   -0.7567 N   0  0  0  0  0  0  0  0  0  0  0  0
    5.4478    7.6600   -1.0799 C   0  0  0  0  0  0  0  0  0  0  0  0
    6.5751    8.5988   -1.2246 C   0  0  0  0  0  0  0  0  0  0  0  0
    7.8845    8.1587   -1.0142 C   0  0  0  0  0  0  0  0  0  0  0  0
    8.9376    9.0384   -1.1505 C   0  0  0  0  0  0  0  0  0  0  0  0
    8.7008   10.3608   -1.4969 C   0  0  0  0  0  0  0  0  0  0  0  0
    7.3980   10.8066   -1.7082 C   0  0  0  0  0  0  0  0  0  0  0  0
    6.3375    9.9296   -1.5782 C   0  0  0  0  0  0  0  0  0  0  0  0
    7.1699   12.1038   -2.0471 O   0  0  0  0  0  0  0  0  0  0  0  0
    9.7428   11.2236   -1.6308 O   0  0  0  0  0  0  0  0  0  0  0  0
    2.4226   -0.1835    0.6250 C   0  0  0  0  0  0  0  0  0  0  0  0
    1.0295   -2.5084    0.3174 H   0  0  0  0  0  0  0  0  0  0  0  0
    1.5329   -2.3443    2.0168 H   0  0  0  0  0  0  0  0  0  0  0  0
   -0.1884   -2.2162    1.5822 H   0  0  0  0  0  0  0  0  0  0  0  0
   -0.9940   -0.3843    0.2284 H   0  0  0  0  0  0  0  0  0  0  0  0
    0.3147   -0.3599   -0.9797 H   0  0  0  0  0  0  0  0  0  0  0  0
   -0.5410    1.8962   -0.8739 H   0  0  0  0  0  0  0  0  0  0  0  0
   -0.5240    1.8866    0.9085 H   0  0  0  0  0  0  0  0  0  0  0  0
    4.6620    1.4621    0.3923 H   0  0  0  0  0  0  0  0  0  0  0  0
    3.6910    5.8374   -0.7656 H   0  0  0  0  0  0  0  0  0  0  0  0
    4.4363    8.0016   -1.2429 H   0  0  0  0  0  0  0  0  0  0  0  0
    8.0717    7.1297   -0.7452 H   0  0  0  0  0  0  0  0  0  0  0  0
    9.9492    8.6971   -0.9876 H   0  0  0  0  0  0  0  0  0  0  0  0
    5.3273   10.2730   -1.7458 H   0  0  0  0  0  0  0  0  0  0  0  0
    7.1701   12.2672   -3.0002 H   0  0  0  0  0  0  0  0  0  0  0  0
   10.1100   11.2610   -2.5245 H   0  0  0  0  0  0  0  0  0  0  0  0
    3.1116   -0.4092    1.4389 H   0  0  0  0  0  0  0  0  0  0  0  0
    2.6732   -0.7881   -0.2466 H   0  0  0  0  0  0  0  0  0  0  0  0
  1  2  1  0  0  0  0
  1 25  1  0  0  0  0
  1 26  1  0  0  0  0
  1 27  1  0  0  0  0
  2  3  1  0  0  0  0
  2 24  1  0  0  0  0
  2  4  1  0  0  0  0
  4  5  1  0  0  0  0
  4 28  1  0  0  0  0
  4 29  1  0  0  0  0
  5  6  1  0  0  0  0
  5 30  1  0  0  0  0
  5 31  1  0  0  0  0
  6 10  1  0  0  0  0
  6  7  2  0  0  0  0
  7  8  1  0  0  0  0
  7 24  1  0  0  0  0
  8  9  2  0  0  0  0
  8 32  1  0  0  0  0
  9 10  1  0  0  0  0
  9 11  1  0  0  0  0
 11 12  2  0  0  0  0
 11 13  1  0  0  0  0
 13 14  1  0  0  0  0
 13 33  1  0  0  0  0
 14 15  2  0  0  0  0
 15 16  1  0  0  0  0
 15 34  1  0  0  0  0
 16 21  2  0  0  0  0
 16 17  1  0  0  0  0
 17 18  2  0  0  0  0
 17 35  1  0  0  0  0
 18 19  1  0  0  0  0
 18 36  1  0  0  0  0
 19 20  2  0  0  0  0
 19 23  1  0  0  0  0
 20 21  1  0  0  0  0
 20 22  1  0  0  0  0
 21 37  1  0  0  0  0
 22 38  1  0  0  0  0
 23 39  1  0  0  0  0
 24 40  1  0  0  0  0
 24 41  1  0  0  0  0
M  END
$$$$
ZINC03596845
  -OEChem-08230709453D

 48 50  0     1  0  0  0  0  0999 V2000
    7.8035    0.4080    7.0199 C   0  0  0  0  0  0  0  0  0  0  0  0
    6.4205    1.1810    6.1366 S   0  0  0  0  0  0  0  0  0  0  0  0
    7.1827    2.4440    5.1730 C   0  0  0  0  0  0  0  0  0  0  0  0
    8.5595    2.6294    5.2322 C   0  0  0  0  0  0  0  0  0  0  0  0
    9.1572    3.6198    4.4777 C   0  0  0  0  0  0  0  0  0  0  0  0
    8.3897    4.4294    3.6618 C   0  0  0  0  0  0  0  0  0  0  0  0
    7.0137    4.2492    3.5975 C   0  0  0  0  0  0  0  0  0  0  0  0
    6.4089    3.2586    4.3576 C   0  0  0  0  0  0  0  0  0  0  0  0
    6.2379    5.0699    2.7715 N   0  0  0  0  0  0  0  0  0  0  0  0
    5.1366    4.5749    2.1725 C   0  0  0  0  0  0  0  0  0  0  0  0
    4.8706    3.3957    2.2716 O   0  0  0  0  0  0  0  0  0  0  0  0
    4.2358    5.4865    1.3797 C   0  0  0  0  0  0  0  0  0  0  0  0
    3.1175    4.7137    0.8336 N   0  0  0  0  0  0  0  0  0  0  0  0
    3.1345    4.1027   -0.3675 C   0  0  0  0  0  0  0  0  0  0  0  0
    4.0436    4.0892   -1.1694 O   0  0  0  0  0  0  0  0  0  0  0  0
    1.7808    3.4349   -0.5068 C   0  0  2  0  0  0  0  0  0  0  0  0
    1.2387    3.8366   -1.3628 H   0  0  0  0  0  0  0  0  0  0  0  0
    1.0938    3.7795    0.7500 N   0  0  0  0  0  0  0  0  0  0  0  0
    1.9533    4.5267    1.4660 C   0  0  0  0  0  0  0  0  0  0  0  0
    1.7006    4.9811    2.5645 O   0  0  0  0  0  0  0  0  0  0  0  0
    1.9393    1.9186   -0.6353 C   0  0  0  0  0  0  0  0  0  0  0  0
    0.5608    1.2730   -0.7899 C   0  0  0  0  0  0  0  0  0  0  0  0
    0.7193   -0.2433   -0.9184 C   0  0  0  0  0  0  0  0  0  0  0  0
    1.4021   -0.7928    0.3357 C   0  0  0  0  0  0  0  0  0  0  0  0
    2.7806   -0.1473    0.4903 C   0  0  0  0  0  0  0  0  0  0  0  0
    2.6221    1.3691    0.6188 C   0  0  0  0  0  0  0  0  0  0  0  0
    7.4270   -0.3968    7.6513 H   0  0  0  0  0  0  0  0  0  0  0  0
    8.5137    0.0025    6.2993 H   0  0  0  0  0  0  0  0  0  0  0  0
    8.3009    1.1538    7.6400 H   0  0  0  0  0  0  0  0  0  0  0  0
    9.1620    1.9987    5.8690 H   0  0  0  0  0  0  0  0  0  0  0  0
   10.2267    3.7622    4.5256 H   0  0  0  0  0  0  0  0  0  0  0  0
    8.8603    5.2033    3.0736 H   0  0  0  0  0  0  0  0  0  0  0  0
    5.3388    3.1193    4.3124 H   0  0  0  0  0  0  0  0  0  0  0  0
    6.4926    5.9951    2.6299 H   0  0  0  0  0  0  0  0  0  0  0  0
    4.8009    5.9349    0.5626 H   0  0  0  0  0  0  0  0  0  0  0  0
    3.8513    6.2724    2.0298 H   0  0  0  0  0  0  0  0  0  0  0  0
    0.1968    3.5182    1.0106 H   0  0  0  0  0  0  0  0  0  0  0  0
    2.5478    1.6897   -1.5102 H   0  0  0  0  0  0  0  0  0  0  0  0
    0.0744    1.6645   -1.6833 H   0  0  0  0  0  0  0  0  0  0  0  0
   -0.0477    1.5019    0.0850 H   0  0  0  0  0  0  0  0  0  0  0  0
   -0.2628   -0.7032   -1.0285 H   0  0  0  0  0  0  0  0  0  0  0  0
    1.3278   -0.4722   -1.7933 H   0  0  0  0  0  0  0  0  0  0  0  0
    0.7935   -0.5640    1.2105 H   0  0  0  0  0  0  0  0  0  0  0  0
    1.5150   -1.8731    0.2441 H   0  0  0  0  0  0  0  0  0  0  0  0
    3.2670   -0.5388    1.3837 H   0  0  0  0  0  0  0  0  0  0  0  0
    3.3891   -0.3761   -0.3846 H   0  0  0  0  0  0  0  0  0  0  0  0
    2.0135    1.5979    1.4937 H   0  0  0  0  0  0  0  0  0  0  0  0
    3.6041    1.8290    0.7289 H   0  0  0  0  0  0  0  0  0  0  0  0
  1  2  1  0  0  0  0
  1 27  1  0  0  0  0
  1 28  1  0  0  0  0
  1 29  1  0  0  0  0
  2  3  1  0  0  0  0
  3  8  2  0  0  0  0
  3  4  1  0  0  0  0
  4  5  2  0  0  0  0
  4 30  1  0  0  0  0
  5  6  1  0  0  0  0
  5 31  1  0  0  0  0
  6  7  2  0  0  0  0
  6 32  1  0  0  0  0
  7  8  1  0  0  0  0
  7  9  1  0  0  0  0
  8 33  1  0  0  0  0
  9 10  1  0  0  0  0
  9 34  1  0  0  0  0
 10 11  2  0  0  0  0
 10 12  1  0  0  0  0
 12 13  1  0  0  0  0
 12 35  1  0  0  0  0
 12 36  1  0  0  0  0
 13 19  1  0  0  0  0
 13 14  1  0  0  0  0
 14 15  2  0  0  0  0
 14 16  1  0  0  0  0
 16 17  1  0  0  0  0
 16 18  1  0  0  0  0
 16 21  1  0  0  0  0
 18 19  1  0  0  0  0
 18 37  1  0  0  0  0
 19 20  2  0  0  0  0
 21 26  1  0  0  0  0
 21 22  1  0  0  0  0
 21 38  1  0  0  0  0
 22 23  1  0  0  0  0
 22 39  1  0  0  0  0
 22 40  1  0  0  0  0
 23 24  1  0  0  0  0
 23 41  1  0  0  0  0
 23 42  1  0  0  0  0
 24 25  1  0  0  0  0
 24 43  1  0  0  0  0
 24 44  1  0  0  0  0
 25 26  1  0  0  0  0
 25 45  1  0  0  0  0
 25 46  1  0  0  0  0
 26 47  1  0  0  0  0
 26 48  1  0  0  0  0
M  END
$$$$
ZINC03597831
  -OEChem-08230709453D

 40 43  0     0  0  0  0  0  0999 V2000
    1.9566   -8.4833   -0.5329 C   0  0  0  0  0  0  0  0  0  0  0  0
    2.0794   -6.6986   -0.2578 S   0  0  0  0  0  0  0  0  0  0  0  0
    0.3696   -6.2731   -0.2416 C   0  0  0  0  0  0  0  0  0  0  0  0
   -0.5339   -7.2318   -0.4130 N   0  0  0  0  0  0  0  0  0  0  0  0
   -1.8255   -6.9605   -0.4084 C   0  0  0  0  0  0  0  0  0  0  0  0
   -2.2424   -5.6379   -0.2190 C   0  0  0  0  0  0  0  0  0  0  0  0
   -1.2531   -4.6463   -0.0400 C   0  0  0  0  0  0  0  0  0  0  0  0
    0.0249   -5.0058   -0.0637 N   0  0  0  0  0  0  0  0  0  0  0  0
   -1.6080   -3.3264    0.1502 N   0  0  0  0  0  0  0  0  0  0  0  0
   -0.6289   -2.3290    0.1265 C   0  0  0  0  0  0  0  0  0  0  0  0
    0.6375   -2.6008    0.6651 C   0  0  0  0  0  0  0  0  0  0  0  0
    1.6234   -1.6713    0.6684 C   0  0  0  0  0  0  0  0  0  0  0  0
    1.3808   -0.3941    0.1176 C   0  0  0  0  0  0  0  0  0  0  0  0
    2.1322    0.7553   -0.0412 C   0  0  0  0  0  0  0  0  0  0  0  0
    1.3618    1.6717   -0.6429 N   0  0  0  0  0  0  0  0  0  0  0  0
    1.6520    2.5987   -0.8805 H   0  0  0  0  0  0  0  0  0  0  0  0
    0.0910    1.1398   -0.8897 N   0  0  0  0  0  0  0  0  0  0  0  0
    0.0538   -0.1047   -0.4484 C   0  0  0  0  0  0  0  0  0  0  0  0
   -0.9285   -1.1168   -0.4198 C   0  0  0  0  0  0  0  0  0  0  0  0
   -3.6721   -5.2903   -0.2071 C   0  0  0  0  0  0  0  0  0  0  0  0
   -4.0142   -4.1230   -0.1989 O   0  0  0  0  0  0  0  0  0  0  0  0
   -4.6027   -6.2652   -0.2052 N   0  0  0  0  0  0  0  0  0  0  0  0
   -6.0262   -5.9190   -0.1934 C   0  0  0  0  0  0  0  0  0  0  0  0
   -6.9381   -6.7113    0.7456 C   0  0  0  0  0  0  0  0  0  0  0  0
   -7.0074   -6.9444   -0.7649 C   0  0  0  0  0  0  0  0  0  0  0  0
    2.9568   -8.9149   -0.5702 H   0  0  0  0  0  0  0  0  0  0  0  0
    1.3946   -8.9388    0.2825 H   0  0  0  0  0  0  0  0  0  0  0  0
    1.4444   -8.6711   -1.4765 H   0  0  0  0  0  0  0  0  0  0  0  0
   -2.5508   -7.7483   -0.5491 H   0  0  0  0  0  0  0  0  0  0  0  0
   -2.5369   -3.0907    0.3005 H   0  0  0  0  0  0  0  0  0  0  0  0
    0.8314   -3.5754    1.0881 H   0  0  0  0  0  0  0  0  0  0  0  0
    2.5898   -1.9063    1.0895 H   0  0  0  0  0  0  0  0  0  0  0  0
    3.1588    0.8908    0.2656 H   0  0  0  0  0  0  0  0  0  0  0  0
   -1.9113   -0.9323   -0.8278 H   0  0  0  0  0  0  0  0  0  0  0  0
   -4.3300   -7.1960   -0.2117 H   0  0  0  0  0  0  0  0  0  0  0  0
   -6.2548   -4.8642   -0.3460 H   0  0  0  0  0  0  0  0  0  0  0  0
   -6.4790   -7.4900    1.3545 H   0  0  0  0  0  0  0  0  0  0  0  0
   -7.7669   -6.1777    1.2110 H   0  0  0  0  0  0  0  0  0  0  0  0
   -7.8817   -6.5643   -1.2933 H   0  0  0  0  0  0  0  0  0  0  0  0
   -6.5937   -7.8764   -1.1501 H   0  0  0  0  0  0  0  0  0  0  0  0
  1  2  1  0  0  0  0
  1 26  1  0  0  0  0
  1 27  1  0  0  0  0
  1 28  1  0  0  0  0
  2  3  1  0  0  0  0
  3  8  2  0  0  0  0
  3  4  1  0  0  0  0
  4  5  2  0  0  0  0
  5  6  1  0  0  0  0
  5 29  1  0  0  0  0
  6  7  2  0  0  0  0
  6 20  1  0  0  0  0
  7  8  1  0  0  0  0
  7  9  1  0  0  0  0
  9 10  1  0  0  0  0
  9 30  1  0  0  0  0
 10 19  2  0  0  0  0
 10 11  1  0  0  0  0
 11 12  2  0  0  0  0
 11 31  1  0  0  0  0
 12 13  1  0  0  0  0
 12 32  1  0  0  0  0
 13 18  1  0  0  0  0
 13 14  2  0  0  0  0
 14 15  1  0  0  0  0
 14 33  1  0  0  0  0
 15 16  1  0  0  0  0
 15 17  1  0  0  0  0
 17 18  2  0  0  0  0
 18 19  1  0  0  0  0
 19 34  1  0  0  0  0
 20 21  2  0  0  0  0
 20 22  1  0  0  0  0
 22 23  1  0  0  0  0
 22 35  1  0  0  0  0
 23 25  1  0  0  0  0
 23 24  1  0  0  0  0
 23 36  1  0  0  0  0
 24 25  1  0  0  0  0
 24 37  1  0  0  0  0
 24 38  1  0  0  0  0
 25 39  1  0  0  0  0
 25 40  1  0  0  0  0
M  END
$$$$
ZINC03597831
  -OEChem-08230709453D

 40 43  0     0  0  0  0  0  0999 V2000
    1.9566   -8.4833   -0.5329 C   0  0  0  0  0  0  0  0  0  0  0  0
    2.0794   -6.6986   -0.2578 S   0  0  0  0  0  0  0  0  0  0  0  0
    0.3696   -6.2731   -0.2416 C   0  0  0  0  0  0  0  0  0  0  0  0
   -0.5339   -7.2318   -0.4130 N   0  0  0  0  0  0  0  0  0  0  0  0
   -1.8255   -6.9605   -0.4084 C   0  0  0  0  0  0  0  0  0  0  0  0
   -2.2424   -5.6379   -0.2190 C   0  0  0  0  0  0  0  0  0  0  0  0
   -1.2531   -4.6463   -0.0400 C   0  0  0  0  0  0  0  0  0  0  0  0
    0.0249   -5.0058   -0.0637 N   0  0  0  0  0  0  0  0  0  0  0  0
   -1.6080   -3.3264    0.1502 N   0  0  0  0  0  0  0  0  0  0  0  0
   -0.6289   -2.3290    0.1265 C   0  0  0  0  0  0  0  0  0  0  0  0
    0.6375   -2.6008    0.6651 C   0  0  0  0  0  0  0  0  0  0  0  0
    1.6234   -1.6713    0.6684 C   0  0  0  0  0  0  0  0  0  0  0  0
    1.3808   -0.3941    0.1176 C   0  0  0  0  0  0  0  0  0  0  0  0
    2.1324    0.7551   -0.0416 C   0  0  0  0  0  0  0  0  0  0  0  0
    1.3620    1.6715   -0.6436 N   0  0  0  0  0  0  0  0  0  0  0  0
   -0.6659    1.6233   -1.3294 H   0  0  0  0  0  0  0  0  0  0  0  0
    0.0911    1.1396   -0.8901 N   0  0  0  0  0  0  0  0  0  0  0  0
    0.0538   -0.1047   -0.4484 C   0  0  0  0  0  0  0  0  0  0  0  0
   -0.9285   -1.1168   -0.4198 C   0  0  0  0  0  0  0  0  0  0  0  0
   -3.6721   -5.2903   -0.2071 C   0  0  0  0  0  0  0  0  0  0  0  0
   -4.0142   -4.1230   -0.1989 O   0  0  0  0  0  0  0  0  0  0  0  0
   -4.6027   -6.2652   -0.2052 N   0  0  0  0  0  0  0  0  0  0  0  0
   -6.0262   -5.9190   -0.1934 C   0  0  0  0  0  0  0  0  0  0  0  0
   -6.9381   -6.7113    0.7456 C   0  0  0  0  0  0  0  0  0  0  0  0
   -7.0074   -6.9444   -0.7649 C   0  0  0  0  0  0  0  0  0  0  0  0
    2.9568   -8.9149   -0.5702 H   0  0  0  0  0  0  0  0  0  0  0  0
    1.3946   -8.9388    0.2825 H   0  0  0  0  0  0  0  0  0  0  0  0
    1.4444   -8.6711   -1.4765 H   0  0  0  0  0  0  0  0  0  0  0  0
   -2.5508   -7.7483   -0.5491 H   0  0  0  0  0  0  0  0  0  0  0  0
   -2.5369   -3.0907    0.3005 H   0  0  0  0  0  0  0  0  0  0  0  0
    0.8314   -3.5754    1.0881 H   0  0  0  0  0  0  0  0  0  0  0  0
    2.5898   -1.9063    1.0895 H   0  0  0  0  0  0  0  0  0  0  0  0
    3.1590    0.8906    0.2650 H   0  0  0  0  0  0  0  0  0  0  0  0
   -1.9113   -0.9323   -0.8278 H   0  0  0  0  0  0  0  0  0  0  0  0
   -4.3300   -7.1960   -0.2117 H   0  0  0  0  0  0  0  0  0  0  0  0
   -6.2548   -4.8642   -0.3460 H   0  0  0  0  0  0  0  0  0  0  0  0
   -6.4790   -7.4900    1.3545 H   0  0  0  0  0  0  0  0  0  0  0  0
   -7.7669   -6.1777    1.2110 H   0  0  0  0  0  0  0  0  0  0  0  0
   -7.8817   -6.5643   -1.2933 H   0  0  0  0  0  0  0  0  0  0  0  0
   -6.5937   -7.8764   -1.1501 H   0  0  0  0  0  0  0  0  0  0  0  0
  1  2  1  0  0  0  0
  1 26  1  0  0  0  0
  1 27  1  0  0  0  0
  1 28  1  0  0  0  0
  2  3  1  0  0  0  0
  3  8  2  0  0  0  0
  3  4  1  0  0  0  0
  4  5  2  0  0  0  0
  5  6  1  0  0  0  0
  5 29  1  0  0  0  0
  6  7  2  0  0  0  0
  6 20  1  0  0  0  0
  7  8  1  0  0  0  0
  7  9  1  0  0  0  0
  9 10  1  0  0  0  0
  9 30  1  0  0  0  0
 10 19  2  0  0  0  0
 10 11  1  0  0  0  0
 11 12  2  0  0  0  0
 11 31  1  0  0  0  0
 12 13  1  0  0  0  0
 12 32  1  0  0  0  0
 13 14  1  0  0  0  0
 13 18  2  0  0  0  0
 14 33  1  0  0  0  0
 14 15  2  0  0  0  0
 15 17  1  0  0  0  0
 16 17  1  0  0  0  0
 17 18  1  0  0  0  0
 18 19  1  0  0  0  0
 19 34  1  0  0  0  0
 20 21  2  0  0  0  0
 20 22  1  0  0  0  0
 22 23  1  0  0  0  0
 22 35  1  0  0  0  0
 23 25  1  0  0  0  0
 23 24  1  0  0  0  0
 23 36  1  0  0  0  0
 24 25  1  0  0  0  0
 24 37  1  0  0  0  0
 24 38  1  0  0  0  0
 25 39  1  0  0  0  0
 25 40  1  0  0  0  0
M  END
$$$$
ZINC03597834
  -OEChem-08230709453D

 39 41  0     0  0  0  0  0  0999 V2000
    0.7904   10.2061   -1.7908 C   0  0  0  0  0  0  0  0  0  0  0  0
    0.3909    9.7024   -0.4024 C   0  0  0  0  0  0  0  0  0  0  0  0
   -0.1698    8.3536   -0.5150 N   0  0  0  0  0  0  0  0  0  0  0  0
   -0.5930    7.7055    0.5883 C   0  0  0  0  0  0  0  0  0  0  0  0
   -0.5095    8.2405    1.6776 O   0  0  0  0  0  0  0  0  0  0  0  0
   -1.1562    6.3508    0.4753 C   0  0  0  0  0  0  0  0  0  0  0  0
   -1.1222    5.6571   -0.7398 C   0  0  0  0  0  0  0  0  0  0  0  0
   -1.6335    4.4417   -0.7993 N   0  0  0  0  0  0  0  0  0  0  0  0
   -2.1858    3.8762    0.2683 C   0  0  0  0  0  0  0  0  0  0  0  0
   -2.2420    4.4922    1.4404 N   0  0  0  0  0  0  0  0  0  0  0  0
   -1.7463    5.7150    1.5897 C   0  0  0  0  0  0  0  0  0  0  0  0
   -1.8063    6.3528    2.8116 N   0  0  0  0  0  0  0  0  0  0  0  0
   -2.5704    5.8064    3.8496 C   0  0  0  0  0  0  0  0  0  0  0  0
   -2.6289    4.4130    3.9962 C   0  0  0  0  0  0  0  0  0  0  0  0
   -3.3524    3.8292    4.9823 C   0  0  0  0  0  0  0  0  0  0  0  0
   -4.0707    4.6340    5.8932 C   0  0  0  0  0  0  0  0  0  0  0  0
   -4.0109    6.0961    5.7423 C   0  0  0  0  0  0  0  0  0  0  0  0
   -3.2351    6.6411    4.6966 C   0  0  0  0  0  0  0  0  0  0  0  0
   -4.7936    6.6258    6.7511 C   0  0  0  0  0  0  0  0  0  0  0  0
   -5.2942    5.6056    7.4632 N   0  0  0  0  0  0  0  0  0  0  0  0
   -5.8970    5.6998    8.2555 H   0  0  0  0  0  0  0  0  0  0  0  0
   -4.8480    4.3896    6.9332 N   0  0  0  0  0  0  0  0  0  0  0  0
   -2.8582    2.2539    0.1234 S   0  0  0  0  0  0  0  0  0  0  0  0
   -2.5150    1.9264   -1.6233 C   0  0  0  0  0  0  0  0  0  0  0  0
    1.5367    9.5370   -2.2192 H   0  0  0  0  0  0  0  0  0  0  0  0
   -0.0883   10.2305   -2.4352 H   0  0  0  0  0  0  0  0  0  0  0  0
    1.2076   11.2096   -1.7070 H   0  0  0  0  0  0  0  0  0  0  0  0
   -0.3553   10.3715    0.0260 H   0  0  0  0  0  0  0  0  0  0  0  0
    1.2697    9.6779    0.2420 H   0  0  0  0  0  0  0  0  0  0  0  0
   -0.2364    7.9270   -1.3836 H   0  0  0  0  0  0  0  0  0  0  0  0
   -0.6797    6.1083   -1.6156 H   0  0  0  0  0  0  0  0  0  0  0  0
   -1.3190    7.1798    2.9515 H   0  0  0  0  0  0  0  0  0  0  0  0
   -2.0830    3.7883    3.3046 H   0  0  0  0  0  0  0  0  0  0  0  0
   -3.3797    2.7532    5.0708 H   0  0  0  0  0  0  0  0  0  0  0  0
   -3.1717    7.7114    4.5669 H   0  0  0  0  0  0  0  0  0  0  0  0
   -4.9706    7.6755    6.9334 H   0  0  0  0  0  0  0  0  0  0  0  0
   -2.8787    0.9327   -1.8849 H   0  0  0  0  0  0  0  0  0  0  0  0
   -1.4404    1.9777   -1.7983 H   0  0  0  0  0  0  0  0  0  0  0  0
   -3.0194    2.6714   -2.2386 H   0  0  0  0  0  0  0  0  0  0  0  0
  1  2  1  0  0  0  0
  1 25  1  0  0  0  0
  1 26  1  0  0  0  0
  1 27  1  0  0  0  0
  2  3  1  0  0  0  0
  2 28  1  0  0  0  0
  2 29  1  0  0  0  0
  3  4  1  0  0  0  0
  3 30  1  0  0  0  0
  4  5  2  0  0  0  0
  4  6  1  0  0  0  0
  6 11  2  0  0  0  0
  6  7  1  0  0  0  0
  7  8  2  0  0  0  0
  7 31  1  0  0  0  0
  8  9  1  0  0  0  0
  9 10  2  0  0  0  0
  9 23  1  0  0  0  0
 10 11  1  0  0  0  0
 11 12  1  0  0  0  0
 12 13  1  0  0  0  0
 12 32  1  0  0  0  0
 13 18  2  0  0  0  0
 13 14  1  0  0  0  0
 14 15  2  0  0  0  0
 14 33  1  0  0  0  0
 15 16  1  0  0  0  0
 15 34  1  0  0  0  0
 16 22  2  0  0  0  0
 16 17  1  0  0  0  0
 17 18  1  0  0  0  0
 17 19  2  0  0  0  0
 18 35  1  0  0  0  0
 19 20  1  0  0  0  0
 19 36  1  0  0  0  0
 20 21  1  0  0  0  0
 20 22  1  0  0  0  0
 23 24  1  0  0  0  0
 24 37  1  0  0  0  0
 24 38  1  0  0  0  0
 24 39  1  0  0  0  0
M  END
$$$$
ZINC03597834
  -OEChem-08230709453D

 39 41  0     0  0  0  0  0  0999 V2000
    0.7904   10.2061   -1.7908 C   0  0  0  0  0  0  0  0  0  0  0  0
    0.3909    9.7024   -0.4024 C   0  0  0  0  0  0  0  0  0  0  0  0
   -0.1698    8.3536   -0.5150 N   0  0  0  0  0  0  0  0  0  0  0  0
   -0.5930    7.7055    0.5883 C   0  0  0  0  0  0  0  0  0  0  0  0
   -0.5095    8.2405    1.6776 O   0  0  0  0  0  0  0  0  0  0  0  0
   -1.1562    6.3508    0.4753 C   0  0  0  0  0  0  0  0  0  0  0  0
   -1.1222    5.6571   -0.7398 C   0  0  0  0  0  0  0  0  0  0  0  0
   -1.6335    4.4417   -0.7993 N   0  0  0  0  0  0  0  0  0  0  0  0
   -2.1858    3.8762    0.2683 C   0  0  0  0  0  0  0  0  0  0  0  0
   -2.2420    4.4922    1.4404 N   0  0  0  0  0  0  0  0  0  0  0  0
   -1.7463    5.7150    1.5897 C   0  0  0  0  0  0  0  0  0  0  0  0
   -1.8063    6.3528    2.8116 N   0  0  0  0  0  0  0  0  0  0  0  0
   -2.5704    5.8064    3.8496 C   0  0  0  0  0  0  0  0  0  0  0  0
   -2.6289    4.4130    3.9962 C   0  0  0  0  0  0  0  0  0  0  0  0
   -3.3524    3.8292    4.9823 C   0  0  0  0  0  0  0  0  0  0  0  0
   -4.0707    4.6340    5.8932 C   0  0  0  0  0  0  0  0  0  0  0  0
   -4.0109    6.0961    5.7423 C   0  0  0  0  0  0  0  0  0  0  0  0
   -3.2351    6.6411    4.6966 C   0  0  0  0  0  0  0  0  0  0  0  0
   -4.7971    6.6257    6.7485 C   0  0  0  0  0  0  0  0  0  0  0  0
   -5.2997    5.6054    7.4590 N   0  0  0  0  0  0  0  0  0  0  0  0
   -5.0841    3.4825    7.2816 H   0  0  0  0  0  0  0  0  0  0  0  0
   -4.8513    4.3895    6.9307 N   0  0  0  0  0  0  0  0  0  0  0  0
   -2.8582    2.2539    0.1234 S   0  0  0  0  0  0  0  0  0  0  0  0
   -2.5150    1.9264   -1.6233 C   0  0  0  0  0  0  0  0  0  0  0  0
    1.5367    9.5370   -2.2192 H   0  0  0  0  0  0  0  0  0  0  0  0
   -0.0883   10.2305   -2.4352 H   0  0  0  0  0  0  0  0  0  0  0  0
    1.2076   11.2096   -1.7070 H   0  0  0  0  0  0  0  0  0  0  0  0
   -0.3553   10.3715    0.0260 H   0  0  0  0  0  0  0  0  0  0  0  0
    1.2697    9.6779    0.2420 H   0  0  0  0  0  0  0  0  0  0  0  0
   -0.2364    7.9270   -1.3836 H   0  0  0  0  0  0  0  0  0  0  0  0
   -0.6797    6.1083   -1.6156 H   0  0  0  0  0  0  0  0  0  0  0  0
   -1.3190    7.1798    2.9515 H   0  0  0  0  0  0  0  0  0  0  0  0
   -2.0830    3.7883    3.3046 H   0  0  0  0  0  0  0  0  0  0  0  0
   -3.3797    2.7532    5.0708 H   0  0  0  0  0  0  0  0  0  0  0  0
   -3.1717    7.7114    4.5669 H   0  0  0  0  0  0  0  0  0  0  0  0
   -4.9750    7.6753    6.9300 H   0  0  0  0  0  0  0  0  0  0  0  0
   -2.8787    0.9327   -1.8849 H   0  0  0  0  0  0  0  0  0  0  0  0
   -1.4404    1.9777   -1.7983 H   0  0  0  0  0  0  0  0  0  0  0  0
   -3.0194    2.6714   -2.2386 H   0  0  0  0  0  0  0  0  0  0  0  0
  1  2  1  0  0  0  0
  1 25  1  0  0  0  0
  1 26  1  0  0  0  0
  1 27  1  0  0  0  0
  2  3  1  0  0  0  0
  2 28  1  0  0  0  0
  2 29  1  0  0  0  0
  3  4  1  0  0  0  0
  3 30  1  0  0  0  0
  4  5  2  0  0  0  0
  4  6  1  0  0  0  0
  6 11  2  0  0  0  0
  6  7  1  0  0  0  0
  7  8  2  0  0  0  0
  7 31  1  0  0  0  0
  8  9  1  0  0  0  0
  9 10  2  0  0  0  0
  9 23  1  0  0  0  0
 10 11  1  0  0  0  0
 11 12  1  0  0  0  0
 12 13  1  0  0  0  0
 12 32  1  0  0  0  0
 13 18  2  0  0  0  0
 13 14  1  0  0  0  0
 14 15  2  0  0  0  0
 14 33  1  0  0  0  0
 15 16  1  0  0  0  0
 15 34  1  0  0  0  0
 16 17  2  0  0  0  0
 16 22  1  0  0  0  0
 17 18  1  0  0  0  0
 17 19  1  0  0  0  0
 18 35  1  0  0  0  0
 19 36  1  0  0  0  0
 19 20  2  0  0  0  0
 20 22  1  0  0  0  0
 21 22  1  0  0  0  0
 23 24  1  0  0  0  0
 24 37  1  0  0  0  0
 24 38  1  0  0  0  0
 24 39  1  0  0  0  0
M  END
$$$$
ZINC03598147
  -OEChem-08230709453D

 44 45  0     1  0  0  0  0  0999 V2000
    5.1065   -7.7466    1.7033 C   0  0  0  0  0  0  0  0  0  0  0  0
    3.9436   -6.8725    1.2294 C   0  0  0  0  0  0  0  0  0  0  0  0
    2.6459   -7.3522    1.8826 C   0  0  0  0  0  0  0  0  0  0  0  0
    4.2055   -5.4176    1.6237 C   0  0  0  0  0  0  0  0  0  0  0  0
    3.1063   -4.5259    1.0427 C   0  0  1  0  0  0  0  0  0  0  0  0
    2.1245   -4.8651    1.3730 H   0  0  0  0  0  0  0  0  0  0  0  0
    3.3338   -3.0785    1.4313 C   0  0  0  0  0  0  0  0  0  0  0  0
    3.3632   -2.6172    2.5521 O   0  0  0  0  0  0  0  0  0  0  0  0
    3.4947   -2.4109    0.2718 N   0  0  0  0  0  0  0  0  0  0  0  0
    3.4089   -3.2280   -0.7842 C   0  0  0  0  0  0  0  0  0  0  0  0
    3.5250   -2.8579   -1.9360 O   0  0  0  0  0  0  0  0  0  0  0  0
    3.1795   -4.5050   -0.4285 N   0  0  0  0  0  0  0  0  0  0  0  0
    3.7397   -0.9695    0.1792 C   0  0  0  0  0  0  0  0  0  0  0  0
    2.4239   -0.2416    0.0812 C   0  0  0  0  0  0  0  0  0  0  0  0
    1.3837   -0.8654    0.0879 O   0  0  0  0  0  0  0  0  0  0  0  0
    2.4028    1.1027   -0.0140 N   0  0  0  0  0  0  0  0  0  0  0  0
    1.1815    1.7854   -0.0077 C   0  0  0  0  0  0  0  0  0  0  0  0
    1.0839    3.0305    0.6018 C   0  0  0  0  0  0  0  0  0  0  0  0
   -0.1225    3.7036    0.6131 C   0  0  0  0  0  0  0  0  0  0  0  0
   -1.2335    3.1466    0.0096 C   0  0  0  0  0  0  0  0  0  0  0  0
   -1.1429    1.9016   -0.6019 C   0  0  0  0  0  0  0  0  0  0  0  0
    0.0672    1.2204   -0.6100 C   0  0  0  0  0  0  0  0  0  0  0  0
   -2.5619    1.1883   -1.3652 S   0  0  0  0  0  0  0  0  0  0  0  0
   -3.8673    2.4200   -1.1024 C   0  0  0  0  0  0  0  0  0  0  0  0
    5.1970   -7.6745    2.7872 H   0  0  0  0  0  0  0  0  0  0  0  0
    4.9199   -8.7831    1.4225 H   0  0  0  0  0  0  0  0  0  0  0  0
    6.0311   -7.4048    1.2380 H   0  0  0  0  0  0  0  0  0  0  0  0
    3.8531   -6.9446    0.1456 H   0  0  0  0  0  0  0  0  0  0  0  0
    2.7364   -7.2801    2.9665 H   0  0  0  0  0  0  0  0  0  0  0  0
    1.8174   -6.7295    1.5450 H   0  0  0  0  0  0  0  0  0  0  0  0
    2.4593   -8.3887    1.6018 H   0  0  0  0  0  0  0  0  0  0  0  0
    5.1730   -5.1035    1.2320 H   0  0  0  0  0  0  0  0  0  0  0  0
    4.2077   -5.3303    2.7102 H   0  0  0  0  0  0  0  0  0  0  0  0
    3.0810   -5.2639   -1.0245 H   0  0  0  0  0  0  0  0  0  0  0  0
    4.3384   -0.7589   -0.7070 H   0  0  0  0  0  0  0  0  0  0  0  0
    4.2751   -0.6342    1.0675 H   0  0  0  0  0  0  0  0  0  0  0  0
    3.2343    1.5968   -0.0870 H   0  0  0  0  0  0  0  0  0  0  0  0
    1.9513    3.4705    1.0713 H   0  0  0  0  0  0  0  0  0  0  0  0
   -0.1964    4.6690    1.0914 H   0  0  0  0  0  0  0  0  0  0  0  0
   -2.1742    3.6770    0.0168 H   0  0  0  0  0  0  0  0  0  0  0  0
    0.1407    0.2531   -1.0847 H   0  0  0  0  0  0  0  0  0  0  0  0
   -4.7973    2.0640   -1.5456 H   0  0  0  0  0  0  0  0  0  0  0  0
   -4.0106    2.5752   -0.0330 H   0  0  0  0  0  0  0  0  0  0  0  0
   -3.5786    3.3610   -1.5706 H   0  0  0  0  0  0  0  0  0  0  0  0
  1  2  1  0  0  0  0
  1 25  1  0  0  0  0
  1 26  1  0  0  0  0
  1 27  1  0  0  0  0
  2  3  1  0  0  0  0
  2  4  1  0  0  0  0
  2 28  1  0  0  0  0
  3 29  1  0  0  0  0
  3 30  1  0  0  0  0
  3 31  1  0  0  0  0
  4  5  1  0  0  0  0
  4 32  1  0  0  0  0
  4 33  1  0  0  0  0
  5  6  1  0  0  0  0
  5 12  1  0  0  0  0
  5  7  1  0  0  0  0
  7  8  2  0  0  0  0
  7  9  1  0  0  0  0
  9 10  1  0  0  0  0
  9 13  1  0  0  0  0
 10 11  2  0  0  0  0
 10 12  1  0  0  0  0
 12 34  1  0  0  0  0
 13 14  1  0  0  0  0
 13 35  1  0  0  0  0
 13 36  1  0  0  0  0
 14 15  2  0  0  0  0
 14 16  1  0  0  0  0
 16 17  1  0  0  0  0
 16 37  1  0  0  0  0
 17 22  2  0  0  0  0
 17 18  1  0  0  0  0
 18 19  2  0  0  0  0
 18 38  1  0  0  0  0
 19 20  1  0  0  0  0
 19 39  1  0  0  0  0
 20 21  2  0  0  0  0
 20 40  1  0  0  0  0
 21 22  1  0  0  0  0
 21 23  1  0  0  0  0
 22 41  1  0  0  0  0
 23 24  1  0  0  0  0
 24 42  1  0  0  0  0
 24 43  1  0  0  0  0
 24 44  1  0  0  0  0
M  END
$$$$
ZINC03598149
  -OEChem-08230709453D

 44 45  0     1  0  0  0  0  0999 V2000
   -6.7244    6.3287   -3.4348 C   0  0  0  0  0  0  0  0  0  0  0  0
   -5.8397    7.4888   -2.9739 C   0  0  0  0  0  0  0  0  0  0  0  0
   -6.4088    8.8061   -3.5047 C   0  0  0  0  0  0  0  0  0  0  0  0
   -5.8052    7.5276   -1.4448 C   0  0  0  0  0  0  0  0  0  0  0  0
   -4.8061    8.5908   -0.9841 C   0  0  2  0  0  0  0  0  0  0  0  0
   -5.0066    9.5426   -1.4760 H   0  0  0  0  0  0  0  0  0  0  0  0
   -3.3818    8.1465   -1.2518 C   0  0  0  0  0  0  0  0  0  0  0  0
   -2.8815    7.9005   -2.3284 O   0  0  0  0  0  0  0  0  0  0  0  0
   -2.7877    8.0802   -0.0439 N   0  0  0  0  0  0  0  0  0  0  0  0
   -3.6278    8.4244    0.9388 C   0  0  0  0  0  0  0  0  0  0  0  0
   -3.3200    8.4454    2.1144 O   0  0  0  0  0  0  0  0  0  0  0  0
   -4.8513    8.7446    0.4803 N   0  0  0  0  0  0  0  0  0  0  0  0
   -1.3925    7.6859    0.1664 C   0  0  0  0  0  0  0  0  0  0  0  0
   -1.3170    6.1944    0.3685 C   0  0  0  0  0  0  0  0  0  0  0  0
   -2.3290    5.5265    0.3396 O   0  0  0  0  0  0  0  0  0  0  0  0
   -0.1249    5.6027    0.5813 N   0  0  0  0  0  0  0  0  0  0  0  0
   -0.0406    4.2083    0.6628 C   0  0  0  0  0  0  0  0  0  0  0  0
    0.8951    3.6161    1.5024 C   0  0  0  0  0  0  0  0  0  0  0  0
    0.9753    2.2395    1.5885 C   0  0  0  0  0  0  0  0  0  0  0  0
    0.1338    1.4468    0.8322 C   0  0  0  0  0  0  0  0  0  0  0  0
   -0.8045    2.0327   -0.0097 C   0  0  0  0  0  0  0  0  0  0  0  0
   -0.8911    3.4161   -0.0939 C   0  0  0  0  0  0  0  0  0  0  0  0
   -1.8828    1.0213   -0.9683 S   0  0  0  0  0  0  0  0  0  0  0  0
   -1.4020   -0.6719   -0.5295 C   0  0  0  0  0  0  0  0  0  0  0  0
   -7.7353    6.4683   -3.0519 H   0  0  0  0  0  0  0  0  0  0  0  0
   -6.7490    6.3010   -4.5241 H   0  0  0  0  0  0  0  0  0  0  0  0
   -6.3190    5.3902   -3.0566 H   0  0  0  0  0  0  0  0  0  0  0  0
   -4.8288    7.3492   -3.3568 H   0  0  0  0  0  0  0  0  0  0  0  0
   -7.3788    8.9945   -3.0447 H   0  0  0  0  0  0  0  0  0  0  0  0
   -5.7268    9.6208   -3.2613 H   0  0  0  0  0  0  0  0  0  0  0  0
   -6.5261    8.7415   -4.5865 H   0  0  0  0  0  0  0  0  0  0  0  0
   -5.5003    6.5531   -1.0634 H   0  0  0  0  0  0  0  0  0  0  0  0
   -6.7971    7.7723   -1.0650 H   0  0  0  0  0  0  0  0  0  0  0  0
   -5.6144    9.0230    1.0105 H   0  0  0  0  0  0  0  0  0  0  0  0
   -1.0009    8.1923    1.0486 H   0  0  0  0  0  0  0  0  0  0  0  0
   -0.8007    7.9648   -0.7054 H   0  0  0  0  0  0  0  0  0  0  0  0
    0.6746    6.1434    0.6779 H   0  0  0  0  0  0  0  0  0  0  0  0
    1.5575    4.2328    2.0918 H   0  0  0  0  0  0  0  0  0  0  0  0
    1.7004    1.7821    2.2452 H   0  0  0  0  0  0  0  0  0  0  0  0
    0.2020    0.3710    0.8984 H   0  0  0  0  0  0  0  0  0  0  0  0
   -1.6193    3.8740   -0.7468 H   0  0  0  0  0  0  0  0  0  0  0  0
   -1.5407   -0.8231    0.5410 H   0  0  0  0  0  0  0  0  0  0  0  0
   -2.0217   -1.3798   -1.0798 H   0  0  0  0  0  0  0  0  0  0  0  0
   -0.3545   -0.8302   -0.7860 H   0  0  0  0  0  0  0  0  0  0  0  0
  1  2  1  0  0  0  0
  1 25  1  0  0  0  0
  1 26  1  0  0  0  0
  1 27  1  0  0  0  0
  2  3  1  0  0  0  0
  2  4  1  0  0  0  0
  2 28  1  0  0  0  0
  3 29  1  0  0  0  0
  3 30  1  0  0  0  0
  3 31  1  0  0  0  0
  4  5  1  0  0  0  0
  4 32  1  0  0  0  0
  4 33  1  0  0  0  0
  5  6  1  0  0  0  0
  5 12  1  0  0  0  0
  5  7  1  0  0  0  0
  7  8  2  0  0  0  0
  7  9  1  0  0  0  0
  9 10  1  0  0  0  0
  9 13  1  0  0  0  0
 10 11  2  0  0  0  0
 10 12  1  0  0  0  0
 12 34  1  0  0  0  0
 13 14  1  0  0  0  0
 13 35  1  0  0  0  0
 13 36  1  0  0  0  0
 14 15  2  0  0  0  0
 14 16  1  0  0  0  0
 16 17  1  0  0  0  0
 16 37  1  0  0  0  0
 17 22  2  0  0  0  0
 17 18  1  0  0  0  0
 18 19  2  0  0  0  0
 18 38  1  0  0  0  0
 19 20  1  0  0  0  0
 19 39  1  0  0  0  0
 20 21  2  0  0  0  0
 20 40  1  0  0  0  0
 21 22  1  0  0  0  0
 21 23  1  0  0  0  0
 22 41  1  0  0  0  0
 23 24  1  0  0  0  0
 24 42  1  0  0  0  0
 24 43  1  0  0  0  0
 24 44  1  0  0  0  0
M  END
$$$$
ZINC03605510
  -OEChem-08230709453D

 40 41  0     0  0  0  0  0  0999 V2000
    2.4943    1.1268   -0.3270 C   0  0  0  0  0  0  0  0  0  0  0  0
    1.1714    1.8486   -0.3367 C   0  0  0  0  0  0  0  0  0  0  0  0
   -0.0032    1.1386   -0.1646 C   0  0  0  0  0  0  0  0  0  0  0  0
   -1.2173    1.7957   -0.1790 C   0  0  0  0  0  0  0  0  0  0  0  0
   -1.2577    3.1738   -0.3553 C   0  0  0  0  0  0  0  0  0  0  0  0
   -0.0758    3.8837   -0.5278 C   0  0  0  0  0  0  0  0  0  0  0  0
    1.1347    3.2190   -0.5180 C   0  0  0  0  0  0  0  0  0  0  0  0
    2.4172    3.9881   -0.7045 C   0  0  0  0  0  0  0  0  0  0  0  0
   -2.8045    4.0176   -0.3678 S   0  0  0  0  0  0  0  0  0  0  0  0
   -4.0250    2.7004   -0.1111 C   0  0  0  0  0  0  0  0  0  0  0  0
   -5.4101    3.2940   -0.1005 C   0  0  0  0  0  0  0  0  0  0  0  0
   -5.5592    4.4881   -0.2512 O   0  0  0  0  0  0  0  0  0  0  0  0
   -6.4832    2.4980    0.0766 N   0  0  0  0  0  0  0  0  0  0  0  0
   -7.7545    3.0580    0.1965 C   0  0  0  0  0  0  0  0  0  0  0  0
   -7.9132    4.2931    0.8171 C   0  0  0  0  0  0  0  0  0  0  0  0
   -9.1665    4.8510    0.9328 C   0  0  0  0  0  0  0  0  0  0  0  0
  -10.2812    4.1704    0.4357 C   0  0  0  0  0  0  0  0  0  0  0  0
  -10.1189    2.9276   -0.1823 C   0  0  0  0  0  0  0  0  0  0  0  0
   -8.8623    2.3777   -0.2995 C   0  0  0  0  0  0  0  0  0  0  0  0
  -11.6269    4.7632    0.5627 C   0  0  0  0  0  0  0  0  0  0  0  0
  -12.5958    4.1701    0.1294 O   0  0  0  0  0  0  0  0  0  0  0  0
  -11.7818    5.9619    1.1590 N   0  0  0  0  0  0  0  0  0  0  0  0
    2.7465    0.8169   -1.3411 H   0  0  0  0  0  0  0  0  0  0  0  0
    3.2689    1.7931    0.0525 H   0  0  0  0  0  0  0  0  0  0  0  0
    2.4242    0.2484    0.3146 H   0  0  0  0  0  0  0  0  0  0  0  0
    0.0292    0.0684   -0.0232 H   0  0  0  0  0  0  0  0  0  0  0  0
   -2.1343    1.2401   -0.0494 H   0  0  0  0  0  0  0  0  0  0  0  0
   -0.1037    4.9540   -0.6699 H   0  0  0  0  0  0  0  0  0  0  0  0
    2.6603    4.0372   -1.7659 H   0  0  0  0  0  0  0  0  0  0  0  0
    2.2956    4.9978   -0.3125 H   0  0  0  0  0  0  0  0  0  0  0  0
    3.2233    3.4854   -0.1701 H   0  0  0  0  0  0  0  0  0  0  0  0
   -3.9483    1.9716   -0.9180 H   0  0  0  0  0  0  0  0  0  0  0  0
   -3.8334    2.2082    0.8424 H   0  0  0  0  0  0  0  0  0  0  0  0
   -6.3710    1.5355    0.1205 H   0  0  0  0  0  0  0  0  0  0  0  0
   -7.0518    4.8166    1.2047 H   0  0  0  0  0  0  0  0  0  0  0  0
   -9.2885    5.8117    1.4110 H   0  0  0  0  0  0  0  0  0  0  0  0
  -10.9783    2.3992   -0.5678 H   0  0  0  0  0  0  0  0  0  0  0  0
   -8.7361    1.4174   -0.7773 H   0  0  0  0  0  0  0  0  0  0  0  0
  -11.0088    6.4351    1.5047 H   0  0  0  0  0  0  0  0  0  0  0  0
  -12.6662    6.3515    1.2424 H   0  0  0  0  0  0  0  0  0  0  0  0
  1  2  1  0  0  0  0
  1 23  1  0  0  0  0
  1 24  1  0  0  0  0
  1 25  1  0  0  0  0
  2  7  2  0  0  0  0
  2  3  1  0  0  0  0
  3  4  2  0  0  0  0
  3 26  1  0  0  0  0
  4  5  1  0  0  0  0
  4 27  1  0  0  0  0
  5  6  2  0  0  0  0
  5  9  1  0  0  0  0
  6  7  1  0  0  0  0
  6 28  1  0  0  0  0
  7  8  1  0  0  0  0
  8 29  1  0  0  0  0
  8 30  1  0  0  0  0
  8 31  1  0  0  0  0
  9 10  1  0  0  0  0
 10 11  1  0  0  0  0
 10 32  1  0  0  0  0
 10 33  1  0  0  0  0
 11 12  2  0  0  0  0
 11 13  1  0  0  0  0
 13 14  1  0  0  0  0
 13 34  1  0  0  0  0
 14 19  2  0  0  0  0
 14 15  1  0  0  0  0
 15 16  2  0  0  0  0
 15 35  1  0  0  0  0
 16 17  1  0  0  0  0
 16 36  1  0  0  0  0
 17 18  2  0  0  0  0
 17 20  1  0  0  0  0
 18 19  1  0  0  0  0
 18 37  1  0  0  0  0
 19 38  1  0  0  0  0
 20 21  2  0  0  0  0
 20 22  1  0  0  0  0
 22 39  1  0  0  0  0
 22 40  1  0  0  0  0
M  END
$$$$
ZINC03605594
  -OEChem-08230709453D

 40 41  0     0  0  0  0  0  0999 V2000
   -2.5116    3.7953    0.0788 C   0  0  0  0  0  0  0  0  0  0  0  0
   -1.1965    3.0935   -0.1427 C   0  0  0  0  0  0  0  0  0  0  0  0
   -1.1668    1.7220   -0.3207 C   0  0  0  0  0  0  0  0  0  0  0  0
    0.0381    1.0731   -0.5190 C   0  0  0  0  0  0  0  0  0  0  0  0
    1.2155    1.7942   -0.5514 C   0  0  0  0  0  0  0  0  0  0  0  0
    1.1889    3.1727   -0.3786 C   0  0  0  0  0  0  0  0  0  0  0  0
   -0.0235    3.8208   -0.1738 C   0  0  0  0  0  0  0  0  0  0  0  0
    2.6886    4.0968   -0.4186 S   0  0  0  0  0  0  0  0  0  0  0  0
    2.1556    5.8102   -0.1526 C   0  0  0  0  0  0  0  0  0  0  0  0
    3.3584    6.7180   -0.1641 C   0  0  0  0  0  0  0  0  0  0  0  0
    4.4661    6.2548   -0.3349 O   0  0  0  0  0  0  0  0  0  0  0  0
    3.2031    8.0447    0.0155 N   0  0  0  0  0  0  0  0  0  0  0  0
    4.3222    8.8705    0.1149 C   0  0  0  0  0  0  0  0  0  0  0  0
    5.4843    8.3954    0.7146 C   0  0  0  0  0  0  0  0  0  0  0  0
    6.5926    9.2065    0.8100 C   0  0  0  0  0  0  0  0  0  0  0  0
    6.5460   10.5120    0.3134 C   0  0  0  0  0  0  0  0  0  0  0  0
    5.3754   10.9877   -0.2836 C   0  0  0  0  0  0  0  0  0  0  0  0
    4.2724   10.1696   -0.3806 C   0  0  0  0  0  0  0  0  0  0  0  0
    7.7306   11.3861    0.4186 C   0  0  0  0  0  0  0  0  0  0  0  0
    7.6887   12.5215   -0.0143 O   0  0  0  0  0  0  0  0  0  0  0  0
    8.8588   10.9257    0.9946 N   0  0  0  0  0  0  0  0  0  0  0  0
    2.5274    1.0869   -0.7742 C   0  0  0  0  0  0  0  0  0  0  0  0
   -2.9330    4.0893   -0.8825 H   0  0  0  0  0  0  0  0  0  0  0  0
   -3.2016    3.1220    0.5874 H   0  0  0  0  0  0  0  0  0  0  0  0
   -2.3513    4.6822    0.6918 H   0  0  0  0  0  0  0  0  0  0  0  0
   -2.0865    1.1561   -0.3003 H   0  0  0  0  0  0  0  0  0  0  0  0
    0.0579    0.0017   -0.6532 H   0  0  0  0  0  0  0  0  0  0  0  0
   -0.0479    4.8922   -0.0396 H   0  0  0  0  0  0  0  0  0  0  0  0
    1.4703    6.1050   -0.9473 H   0  0  0  0  0  0  0  0  0  0  0  0
    1.6506    5.8882    0.8102 H   0  0  0  0  0  0  0  0  0  0  0  0
    2.3128    8.4250    0.0755 H   0  0  0  0  0  0  0  0  0  0  0  0
    5.5184    7.3878    1.1018 H   0  0  0  0  0  0  0  0  0  0  0  0
    7.4957    8.8358    1.2719 H   0  0  0  0  0  0  0  0  0  0  0  0
    5.3362   11.9960   -0.6687 H   0  0  0  0  0  0  0  0  0  0  0  0
    3.3676   10.5366   -0.8421 H   0  0  0  0  0  0  0  0  0  0  0  0
    8.8922   10.0199    1.3400 H   0  0  0  0  0  0  0  0  0  0  0  0
    9.6373   11.5002    1.0638 H   0  0  0  0  0  0  0  0  0  0  0  0
    2.7390    1.0418   -1.8425 H   0  0  0  0  0  0  0  0  0  0  0  0
    3.3245    1.6320   -0.2687 H   0  0  0  0  0  0  0  0  0  0  0  0
    2.4676    0.0753   -0.3727 H   0  0  0  0  0  0  0  0  0  0  0  0
  1  2  1  0  0  0  0
  1 23  1  0  0  0  0
  1 24  1  0  0  0  0
  1 25  1  0  0  0  0
  2  7  2  0  0  0  0
  2  3  1  0  0  0  0
  3  4  2  0  0  0  0
  3 26  1  0  0  0  0
  4  5  1  0  0  0  0
  4 27  1  0  0  0  0
  5  6  2  0  0  0  0
  5 22  1  0  0  0  0
  6  7  1  0  0  0  0
  6  8  1  0  0  0  0
  7 28  1  0  0  0  0
  8  9  1  0  0  0  0
  9 10  1  0  0  0  0
  9 29  1  0  0  0  0
  9 30  1  0  0  0  0
 10 11  2  0  0  0  0
 10 12  1  0  0  0  0
 12 13  1  0  0  0  0
 12 31  1  0  0  0  0
 13 18  2  0  0  0  0
 13 14  1  0  0  0  0
 14 15  2  0  0  0  0
 14 32  1  0  0  0  0
 15 16  1  0  0  0  0
 15 33  1  0  0  0  0
 16 17  2  0  0  0  0
 16 19  1  0  0  0  0
 17 18  1  0  0  0  0
 17 34  1  0  0  0  0
 18 35  1  0  0  0  0
 19 20  2  0  0  0  0
 19 21  1  0  0  0  0
 21 36  1  0  0  0  0
 21 37  1  0  0  0  0
 22 38  1  0  0  0  0
 22 39  1  0  0  0  0
 22 40  1  0  0  0  0
M  END
$$$$
ZINC03605629
  -OEChem-08230709453D

 40 41  0     0  0  0  0  0  0999 V2000
    2.0720   -0.7315   -6.1001 C   0  0  0  0  0  0  0  0  0  0  0  0
    1.2698   -0.2108   -4.9355 C   0  0  0  0  0  0  0  0  0  0  0  0
    1.7570   -0.3437   -3.6477 C   0  0  0  0  0  0  0  0  0  0  0  0
    1.0246    0.1317   -2.5783 C   0  0  0  0  0  0  0  0  0  0  0  0
   -0.2035    0.7448   -2.7969 C   0  0  0  0  0  0  0  0  0  0  0  0
   -0.6922    0.8718   -4.0915 C   0  0  0  0  0  0  0  0  0  0  0  0
    0.0482    0.3982   -5.1568 C   0  0  0  0  0  0  0  0  0  0  0  0
   -2.0260    1.5302   -4.3332 C   0  0  0  0  0  0  0  0  0  0  0  0
   -1.1418    1.3531   -1.4352 S   0  0  0  0  0  0  0  0  0  0  0  0
   -0.1211    0.9593    0.0118 C   0  0  0  0  0  0  0  0  0  0  0  0
   -0.8175    1.4327    1.2616 C   0  0  0  0  0  0  0  0  0  0  0  0
   -1.8961    1.9816    1.1839 O   0  0  0  0  0  0  0  0  0  0  0  0
   -0.2416    1.2460    2.4658 N   0  0  0  0  0  0  0  0  0  0  0  0
   -0.8312    1.7800    3.6109 C   0  0  0  0  0  0  0  0  0  0  0  0
   -1.5123    2.9912    3.5405 C   0  0  0  0  0  0  0  0  0  0  0  0
   -2.0998    3.5189    4.6683 C   0  0  0  0  0  0  0  0  0  0  0  0
   -2.0023    2.8419    5.8869 C   0  0  0  0  0  0  0  0  0  0  0  0
   -1.3129    1.6282    5.9552 C   0  0  0  0  0  0  0  0  0  0  0  0
   -0.7323    1.1034    4.8226 C   0  0  0  0  0  0  0  0  0  0  0  0
   -2.6264    3.4072    7.0991 C   0  0  0  0  0  0  0  0  0  0  0  0
   -2.5411    2.8169    8.1585 O   0  0  0  0  0  0  0  0  0  0  0  0
   -3.2909    4.5779    7.0315 N   0  0  0  0  0  0  0  0  0  0  0  0
    1.7960   -1.7673   -6.2973 H   0  0  0  0  0  0  0  0  0  0  0  0
    1.8658   -0.1262   -6.9829 H   0  0  0  0  0  0  0  0  0  0  0  0
    3.1344   -0.6774   -5.8626 H   0  0  0  0  0  0  0  0  0  0  0  0
    2.7113   -0.8202   -3.4786 H   0  0  0  0  0  0  0  0  0  0  0  0
    1.4053    0.0270   -1.5731 H   0  0  0  0  0  0  0  0  0  0  0  0
   -0.3293    0.4999   -6.1635 H   0  0  0  0  0  0  0  0  0  0  0  0
   -1.8818    2.6009   -4.4778 H   0  0  0  0  0  0  0  0  0  0  0  0
   -2.4866    1.1021   -5.2235 H   0  0  0  0  0  0  0  0  0  0  0  0
   -2.6745    1.3639   -3.4730 H   0  0  0  0  0  0  0  0  0  0  0  0
    0.0310   -0.1187    0.0667 H   0  0  0  0  0  0  0  0  0  0  0  0
    0.8439    1.4582   -0.0776 H   0  0  0  0  0  0  0  0  0  0  0  0
    0.5831    0.7400    2.5358 H   0  0  0  0  0  0  0  0  0  0  0  0
   -1.5837    3.5160    2.5993 H   0  0  0  0  0  0  0  0  0  0  0  0
   -2.6318    4.4571    4.6121 H   0  0  0  0  0  0  0  0  0  0  0  0
   -1.2361    1.1023    6.8954 H   0  0  0  0  0  0  0  0  0  0  0  0
   -0.1997    0.1653    4.8746 H   0  0  0  0  0  0  0  0  0  0  0  0
   -3.3589    5.0488    6.1862 H   0  0  0  0  0  0  0  0  0  0  0  0
   -3.7011    4.9494    7.8281 H   0  0  0  0  0  0  0  0  0  0  0  0
  1  2  1  0  0  0  0
  1 23  1  0  0  0  0
  1 24  1  0  0  0  0
  1 25  1  0  0  0  0
  2  7  2  0  0  0  0
  2  3  1  0  0  0  0
  3  4  2  0  0  0  0
  3 26  1  0  0  0  0
  4  5  1  0  0  0  0
  4 27  1  0  0  0  0
  5  6  2  0  0  0  0
  5  9  1  0  0  0  0
  6  7  1  0  0  0  0
  6  8  1  0  0  0  0
  7 28  1  0  0  0  0
  8 29  1  0  0  0  0
  8 30  1  0  0  0  0
  8 31  1  0  0  0  0
  9 10  1  0  0  0  0
 10 11  1  0  0  0  0
 10 32  1  0  0  0  0
 10 33  1  0  0  0  0
 11 12  2  0  0  0  0
 11 13  1  0  0  0  0
 13 14  1  0  0  0  0
 13 34  1  0  0  0  0
 14 19  2  0  0  0  0
 14 15  1  0  0  0  0
 15 16  2  0  0  0  0
 15 35  1  0  0  0  0
 16 17  1  0  0  0  0
 16 36  1  0  0  0  0
 17 18  2  0  0  0  0
 17 20  1  0  0  0  0
 18 19  1  0  0  0  0
 18 37  1  0  0  0  0
 19 38  1  0  0  0  0
 20 21  2  0  0  0  0
 20 22  1  0  0  0  0
 22 39  1  0  0  0  0
 22 40  1  0  0  0  0
M  END
$$$$
ZINC03617101
  -OEChem-08230709453D

 41 41  0     0  0  0  0  0  0999 V2000
    4.3930    3.9763    3.7737 C   0  0  0  0  0  0  0  0  0  0  0  0
    2.8973    4.1616    3.5104 C   0  0  0  0  0  0  0  0  0  0  0  0
    2.6313    3.9715    2.1193 O   0  0  0  0  0  0  0  0  0  0  0  0
    1.1569    4.0918    1.4840 P   0  0  0  0  0  0  0  0  0  0  0  0
   -0.0607    3.1837    2.5636 S   0  0  0  0  0  0  0  0  0  0  0  0
    0.7379    5.6435    1.3903 O   0  0  0  0  0  0  0  0  0  0  0  0
    0.3465    6.4141    2.5283 C   0  0  0  0  0  0  0  0  0  0  0  0
    0.0157    7.8416    2.0883 C   0  0  0  0  0  0  0  0  0  0  0  0
    1.1534    3.4450    0.0096 O   0  0  0  0  0  0  0  0  0  0  0  0
    1.1754    2.0866    0.0020 C   0  0  0  0  0  0  0  0  0  0  0  0
   -0.0166    1.3745    0.0096 C   0  0  0  0  0  0  0  0  0  0  0  0
    0.0021   -0.0041    0.0020 C   0  0  0  0  0  0  0  0  0  0  0  0
    1.2201   -0.6833   -0.0133 C   0  0  0  0  0  0  0  0  0  0  0  0
    2.4156    0.0351   -0.0209 C   0  0  0  0  0  0  0  0  0  0  0  0
    2.3898    1.4135   -0.0133 C   0  0  0  0  0  0  0  0  0  0  0  0
    1.2441   -2.1642   -0.0210 C   0  0  0  0  0  0  0  0  0  0  0  0
    0.0983   -2.8508   -0.0133 C   0  0  0  0  0  0  0  0  0  0  0  0
    2.4589   -2.8396   -0.0363 N   0  0  0  0  0  0  0  0  0  0  0  0
    2.4786   -4.0574   -0.0426 O   0  0  0  0  0  0  0  0  0  0  0  0
    3.6848   -4.6476   -0.0574 C   0  0  0  0  0  0  0  0  0  0  0  0
    4.6934   -3.9690   -0.0638 O   0  0  0  0  0  0  0  0  0  0  0  0
    3.7770   -5.9922   -0.0650 N   0  0  0  0  0  0  0  0  0  0  0  0
    4.5959    4.1212    4.8348 H   0  0  0  0  0  0  0  0  0  0  0  0
    4.6915    2.9696    3.4809 H   0  0  0  0  0  0  0  0  0  0  0  0
    4.9573    4.7059    3.1929 H   0  0  0  0  0  0  0  0  0  0  0  0
    2.5988    5.1682    3.8032 H   0  0  0  0  0  0  0  0  0  0  0  0
    2.3330    3.4319    4.0912 H   0  0  0  0  0  0  0  0  0  0  0  0
   -0.5328    5.9626    2.9878 H   0  0  0  0  0  0  0  0  0  0  0  0
    1.1628    6.4363    3.2502 H   0  0  0  0  0  0  0  0  0  0  0  0
   -0.2828    8.4294    2.9563 H   0  0  0  0  0  0  0  0  0  0  0  0
    0.8950    8.2931    1.6288 H   0  0  0  0  0  0  0  0  0  0  0  0
   -0.8006    7.8194    1.3663 H   0  0  0  0  0  0  0  0  0  0  0  0
   -0.9595    1.9011    0.0169 H   0  0  0  0  0  0  0  0  0  0  0  0
   -0.9254   -0.5574    0.0083 H   0  0  0  0  0  0  0  0  0  0  0  0
    3.3605   -0.4879   -0.0324 H   0  0  0  0  0  0  0  0  0  0  0  0
    3.3151    1.9704   -0.0191 H   0  0  0  0  0  0  0  0  0  0  0  0
    0.1157   -3.9306   -0.0189 H   0  0  0  0  0  0  0  0  0  0  0  0
   -0.8456   -2.3260   -0.0014 H   0  0  0  0  0  0  0  0  0  0  0  0
    3.2910   -2.3411   -0.0419 H   0  0  0  0  0  0  0  0  0  0  0  0
    2.9722   -6.5336   -0.0599 H   0  0  0  0  0  0  0  0  0  0  0  0
    4.6483   -6.4185   -0.0757 H   0  0  0  0  0  0  0  0  0  0  0  0
  1  2  1  0  0  0  0
  1 23  1  0  0  0  0
  1 24  1  0  0  0  0
  1 25  1  0  0  0  0
  2  3  1  0  0  0  0
  2 26  1  0  0  0  0
  2 27  1  0  0  0  0
  3  4  1  0  0  0  0
  4  5  2  0  0  0  0
  4  6  1  0  0  0  0
  4  9  1  0  0  0  0
  6  7  1  0  0  0  0
  7  8  1  0  0  0  0
  7 28  1  0  0  0  0
  7 29  1  0  0  0  0
  8 30  1  0  0  0  0
  8 31  1  0  0  0  0
  8 32  1  0  0  0  0
  9 10  1  0  0  0  0
 10 15  2  0  0  0  0
 10 11  1  0  0  0  0
 11 12  2  0  0  0  0
 11 33  1  0  0  0  0
 12 13  1  0  0  0  0
 12 34  1  0  0  0  0
 13 14  2  0  0  0  0
 13 16  1  0  0  0  0
 14 15  1  0  0  0  0
 14 35  1  0  0  0  0
 15 36  1  0  0  0  0
 16 17  2  0  0  0  0
 16 18  1  0  0  0  0
 17 37  1  0  0  0  0
 17 38  1  0  0  0  0
 18 19  1  0  0  0  0
 18 39  1  0  0  0  0
 19 20  1  0  0  0  0
 20 21  2  0  0  0  0
 20 22  1  0  0  0  0
 22 40  1  0  0  0  0
 22 41  1  0  0  0  0
M  END
$$$$
ZINC03625097
  -OEChem-08230709453D

 43 44  0     0  0  0  0  0  0999 V2000
    2.5008    1.0769   -0.0385 C   0  0  0  0  0  0  0  0  0  0  0  0
    1.1725    1.7885   -0.0218 C   0  0  0  0  0  0  0  0  0  0  0  0
   -0.0136    1.0757   -0.0231 C   0  0  0  0  0  0  0  0  0  0  0  0
   -1.2181    1.7563   -0.0134 C   0  0  0  0  0  0  0  0  0  0  0  0
   -1.2586    3.0740    0.0072 N   0  0  0  0  0  0  0  0  0  0  0  0
   -0.1543    3.8057    0.0097 C   0  0  0  0  0  0  0  0  0  0  0  0
    1.1082    3.1863   -0.0050 C   0  0  0  0  0  0  0  0  0  0  0  0
    2.3409    3.9943   -0.0024 C   0  0  0  0  0  0  0  0  0  0  0  0
    2.8436    4.3400   -1.0543 O   0  0  0  0  0  0  0  0  0  0  0  0
    2.9109    4.3501    1.1660 N   0  0  0  0  0  0  0  0  0  0  0  0
   -0.2678    5.5640    0.0309 S   0  0  0  0  0  0  0  0  0  0  0  0
   -2.0668    5.7626    0.0439 C   0  0  0  0  0  0  0  0  0  0  0  0
   -2.4100    7.2299    0.0631 C   0  0  0  0  0  0  0  0  0  0  0  0
   -1.5253    8.0597    0.0676 O   0  0  0  0  0  0  0  0  0  0  0  0
   -3.7000    7.6201    0.0753 N   0  0  0  0  0  0  0  0  0  0  0  0
   -4.0197    8.9794    0.1909 C   0  0  0  0  0  0  0  0  0  0  0  0
   -5.1510    9.3693    0.8950 C   0  0  0  0  0  0  0  0  0  0  0  0
   -5.4626   10.7094    1.0130 C   0  0  0  0  0  0  0  0  0  0  0  0
   -4.6519   11.6653    0.4185 C   0  0  0  0  0  0  0  0  0  0  0  0
   -3.5243   11.2761   -0.2896 C   0  0  0  0  0  0  0  0  0  0  0  0
   -3.2084    9.9366   -0.4035 C   0  0  0  0  0  0  0  0  0  0  0  0
   -4.9624   12.9844    0.5302 O   0  0  0  0  0  0  0  0  0  0  0  0
   -6.1376   13.3135    1.2736 C   0  0  0  0  0  0  0  0  0  0  0  0
   -2.5079    0.9769   -0.0211 C   0  0  0  0  0  0  0  0  0  0  0  0
    2.8148    0.9178   -1.0700 H   0  0  0  0  0  0  0  0  0  0  0  0
    3.2445    1.6837    0.4782 H   0  0  0  0  0  0  0  0  0  0  0  0
    2.4039    0.1147    0.4644 H   0  0  0  0  0  0  0  0  0  0  0  0
    0.0009   -0.0042   -0.0362 H   0  0  0  0  0  0  0  0  0  0  0  0
    2.5099    4.0743    2.0051 H   0  0  0  0  0  0  0  0  0  0  0  0
    3.7221    4.8819    1.1677 H   0  0  0  0  0  0  0  0  0  0  0  0
   -2.4896    5.3022   -0.8491 H   0  0  0  0  0  0  0  0  0  0  0  0
   -2.4791    5.2814    0.9308 H   0  0  0  0  0  0  0  0  0  0  0  0
   -4.4071    6.9599    0.0041 H   0  0  0  0  0  0  0  0  0  0  0  0
   -5.7849    8.6250    1.3539 H   0  0  0  0  0  0  0  0  0  0  0  0
   -6.3399   11.0132    1.5647 H   0  0  0  0  0  0  0  0  0  0  0  0
   -2.8936   12.0207   -0.7523 H   0  0  0  0  0  0  0  0  0  0  0  0
   -2.3303    9.6337   -0.9546 H   0  0  0  0  0  0  0  0  0  0  0  0
   -6.0350   12.9491    2.2957 H   0  0  0  0  0  0  0  0  0  0  0  0
   -6.2692   14.3955    1.2850 H   0  0  0  0  0  0  0  0  0  0  0  0
   -7.0052   12.8469    0.8069 H   0  0  0  0  0  0  0  0  0  0  0  0
   -2.8175    0.7765    1.0046 H   0  0  0  0  0  0  0  0  0  0  0  0
   -3.2798    1.5568   -0.5270 H   0  0  0  0  0  0  0  0  0  0  0  0
   -2.3592    0.0335   -0.5466 H   0  0  0  0  0  0  0  0  0  0  0  0
  1  2  1  0  0  0  0
  1 25  1  0  0  0  0
  1 26  1  0  0  0  0
  1 27  1  0  0  0  0
  2  7  2  0  0  0  0
  2  3  1  0  0  0  0
  3  4  2  0  0  0  0
  3 28  1  0  0  0  0
  4  5  1  0  0  0  0
  4 24  1  0  0  0  0
  5  6  2  0  0  0  0
  6  7  1  0  0  0  0
  6 11  1  0  0  0  0
  7  8  1  0  0  0  0
  8  9  2  0  0  0  0
  8 10  1  0  0  0  0
 10 29  1  0  0  0  0
 10 30  1  0  0  0  0
 11 12  1  0  0  0  0
 12 13  1  0  0  0  0
 12 31  1  0  0  0  0
 12 32  1  0  0  0  0
 13 14  2  0  0  0  0
 13 15  1  0  0  0  0
 15 16  1  0  0  0  0
 15 33  1  0  0  0  0
 16 21  2  0  0  0  0
 16 17  1  0  0  0  0
 17 18  2  0  0  0  0
 17 34  1  0  0  0  0
 18 19  1  0  0  0  0
 18 35  1  0  0  0  0
 19 20  2  0  0  0  0
 19 22  1  0  0  0  0
 20 21  1  0  0  0  0
 20 36  1  0  0  0  0
 21 37  1  0  0  0  0
 22 23  1  0  0  0  0
 23 38  1  0  0  0  0
 23 39  1  0  0  0  0
 23 40  1  0  0  0  0
 24 41  1  0  0  0  0
 24 42  1  0  0  0  0
 24 43  1  0  0  0  0
M  END
$$$$
ZINC03647388
  -OEChem-08230709453D

 45 48  0     1  0  0  0  0  0999 V2000
   -1.0129   11.2025    2.7325 C   0  0  0  0  0  0  0  0  0  0  0  0
   -1.6190   10.6994    1.4208 C   0  0  0  0  0  0  0  0  0  0  0  0
   -1.9857    9.3016    1.5619 O   0  0  0  0  0  0  0  0  0  0  0  0
   -2.5370    8.7031    0.4892 C   0  0  0  0  0  0  0  0  0  0  0  0
   -2.7070    9.3316   -0.5367 O   0  0  0  0  0  0  0  0  0  0  0  0
   -2.9002    7.4068    0.5534 N   0  0  0  0  0  0  0  0  0  0  0  0
   -3.5047    6.7252   -0.6012 C   0  0  0  0  0  0  0  0  0  0  0  0
   -2.5752    5.6102   -1.0830 C   0  0  0  0  0  0  0  0  0  0  0  0
   -2.1246    4.7792    0.1123 C   0  0  0  0  0  0  0  0  0  0  0  0
   -2.1954    5.2700    1.3715 C   0  0  0  0  0  0  0  0  0  0  0  0
   -1.5615    3.9768    2.4054 S   0  0  0  0  0  0  0  0  0  0  0  0
   -1.2128    2.8176    1.1965 C   0  0  0  0  0  0  0  0  0  0  0  0
   -1.5917    3.4324   -0.0036 C   0  0  0  0  0  0  0  0  0  0  0  0
   -1.4108    2.6504   -1.2541 C   0  0  0  0  0  0  0  0  0  0  0  0
   -0.6979    1.5588   -1.1881 N   0  0  0  0  0  0  0  0  0  0  0  0
   -0.0127    1.0858    0.0080 C   0  0  2  0  0  0  0  0  0  0  0  0
    0.0021   -0.0041    0.0020 H   0  0  0  0  0  0  0  0  0  0  0  0
   -0.6829    1.5514    1.2367 N   0  0  0  0  0  0  0  0  0  0  0  0
    1.4050    1.5967   -0.0028 C   0  0  0  0  0  0  0  0  0  0  0  0
    2.0638    1.8296    1.1903 C   0  0  0  0  0  0  0  0  0  0  0  0
    3.3653    2.2926    1.1831 C   0  0  0  0  0  0  0  0  0  0  0  0
    4.0074    2.5350   -0.0226 C   0  0  0  0  0  0  0  0  0  0  0  0
    3.3422    2.3059   -1.2183 C   0  0  0  0  0  0  0  0  0  0  0  0
    2.0428    1.8371   -1.2057 C   0  0  0  0  0  0  0  0  0  0  0  0
    5.2855    2.9966   -0.0323 O   0  0  0  0  0  0  0  0  0  0  0  0
   -1.9650    3.0557   -2.4201 O   0  0  0  0  0  0  0  0  0  0  0  0
   -2.7060    6.6165    1.7852 C   0  0  0  0  0  0  0  0  0  0  0  0
   -0.1254   10.6164    2.9711 H   0  0  0  0  0  0  0  0  0  0  0  0
   -0.7376   12.2519    2.6266 H   0  0  0  0  0  0  0  0  0  0  0  0
   -1.7438   11.0978    3.5343 H   0  0  0  0  0  0  0  0  0  0  0  0
   -0.8880   10.8042    0.6191 H   0  0  0  0  0  0  0  0  0  0  0  0
   -2.5064   11.2856    1.1823 H   0  0  0  0  0  0  0  0  0  0  0  0
   -3.6584    7.4431   -1.4068 H   0  0  0  0  0  0  0  0  0  0  0  0
   -4.4635    6.2973   -0.3084 H   0  0  0  0  0  0  0  0  0  0  0  0
   -1.7044    6.0478   -1.5710 H   0  0  0  0  0  0  0  0  0  0  0  0
   -3.1071    4.9729   -1.7895 H   0  0  0  0  0  0  0  0  0  0  0  0
   -0.7453    0.9951    2.0288 H   0  0  0  0  0  0  0  0  0  0  0  0
    1.5618    1.6456    2.1287 H   0  0  0  0  0  0  0  0  0  0  0  0
    3.8809    2.4705    2.1153 H   0  0  0  0  0  0  0  0  0  0  0  0
    3.8400    2.4936   -2.1582 H   0  0  0  0  0  0  0  0  0  0  0  0
    1.5246    1.6586   -2.1363 H   0  0  0  0  0  0  0  0  0  0  0  0
    5.3555    3.9611   -0.0275 H   0  0  0  0  0  0  0  0  0  0  0  0
   -1.7812    2.4702   -3.1674 H   0  0  0  0  0  0  0  0  0  0  0  0
   -3.6551    6.5084    2.3103 H   0  0  0  0  0  0  0  0  0  0  0  0
   -1.9776    7.1076    2.4304 H   0  0  0  0  0  0  0  0  0  0  0  0
  1  2  1  0  0  0  0
  1 28  1  0  0  0  0
  1 29  1  0  0  0  0
  1 30  1  0  0  0  0
  2  3  1  0  0  0  0
  2 31  1  0  0  0  0
  2 32  1  0  0  0  0
  3  4  1  0  0  0  0
  4  5  2  0  0  0  0
  4  6  1  0  0  0  0
  6 27  1  0  0  0  0
  6  7  1  0  0  0  0
  7  8  1  0  0  0  0
  7 33  1  0  0  0  0
  7 34  1  0  0  0  0
  8  9  1  0  0  0  0
  8 35  1  0  0  0  0
  8 36  1  0  0  0  0
  9 13  1  0  0  0  0
  9 10  2  0  0  0  0
 10 11  1  0  0  0  0
 10 27  1  0  0  0  0
 11 12  1  0  0  0  0
 12 18  1  0  0  0  0
 12 13  2  0  0  0  0
 13 14  1  0  0  0  0
 14 15  2  0  0  0  0
 14 26  1  0  0  0  0
 15 16  1  0  0  0  0
 16 17  1  0  0  0  0
 16 18  1  0  0  0  0
 16 19  1  0  0  0  0
 18 37  1  0  0  0  0
 19 24  2  0  0  0  0
 19 20  1  0  0  0  0
 20 21  2  0  0  0  0
 20 38  1  0  0  0  0
 21 22  1  0  0  0  0
 21 39  1  0  0  0  0
 22 23  2  0  0  0  0
 22 25  1  0  0  0  0
 23 24  1  0  0  0  0
 23 40  1  0  0  0  0
 24 41  1  0  0  0  0
 25 42  1  0  0  0  0
 26 43  1  0  0  0  0
 27 44  1  0  0  0  0
 27 45  1  0  0  0  0
M  END
$$$$
ZINC03684800
  -OEChem-08230709453D

 47 49  0     0  0  0  0  0  0999 V2000
   -3.7144   -0.9913    1.0970 C   0  0  0  0  0  0  0  0  0  0  0  0
   -3.6027   -1.9573   -0.0841 C   0  0  0  0  0  0  0  0  0  0  0  0
   -3.6326   -1.1671   -1.3939 C   0  0  0  0  0  0  0  0  0  0  0  0
   -2.3432   -2.6997    0.0096 N   0  0  0  0  0  0  0  0  0  0  0  0
   -2.3602   -4.1611    0.1123 C   0  0  0  0  0  0  0  0  0  0  0  0
   -2.4134   -4.5682    1.5860 C   0  0  0  0  0  0  0  0  0  0  0  0
   -3.6503   -4.1350    2.1556 O   0  0  0  0  0  0  0  0  0  0  0  0
   -1.1353   -2.0194    0.0013 C   0  0  0  0  0  0  0  0  0  0  0  0
    0.0627   -2.7497   -0.0144 C   0  0  0  0  0  0  0  0  0  0  0  0
    1.2560   -2.0935   -0.0226 C   0  0  0  0  0  0  0  0  0  0  0  0
    1.2447   -0.6826   -0.0151 C   0  0  0  0  0  0  0  0  0  0  0  0
    0.0021   -0.0041    0.0020 C   0  0  0  0  0  0  0  0  0  0  0  0
   -1.1385   -0.7024    0.0088 N   0  0  0  0  0  0  0  0  0  0  0  0
   -0.0161    1.3348    0.0113 N   0  0  0  0  0  0  0  0  0  0  0  0
    1.1130    2.0047    0.0058 C   0  0  0  0  0  0  0  0  0  0  0  0
    2.3435    1.3326   -0.0095 C   0  0  0  0  0  0  0  0  0  0  0  0
    2.3846    0.0148   -0.0200 N   0  0  0  0  0  0  0  0  0  0  0  0
    3.4990    2.0428   -0.0144 O   0  0  0  0  0  0  0  0  0  0  0  0
    1.0863    3.5114    0.0162 C   0  0  0  0  0  0  0  0  0  0  0  0
    1.0899    4.0041    1.4405 C   0  0  0  0  0  0  0  0  0  0  0  0
   -0.1059    4.2140    2.1017 C   0  0  0  0  0  0  0  0  0  0  0  0
   -0.1038    4.6612    3.4093 C   0  0  0  0  0  0  0  0  0  0  0  0
    1.0964    4.9089    4.0537 C   0  0  0  0  0  0  0  0  0  0  0  0
    2.2933    4.7033    3.3887 C   0  0  0  0  0  0  0  0  0  0  0  0
    2.2888    4.2512    2.0829 C   0  0  0  0  0  0  0  0  0  0  0  0
    1.0996    5.3506    5.3305 F   0  0  0  0  0  0  0  0  0  0  0  0
   -2.8782   -0.2924    1.0752 H   0  0  0  0  0  0  0  0  0  0  0  0
   -4.6515   -0.4390    1.0273 H   0  0  0  0  0  0  0  0  0  0  0  0
   -3.6932   -1.5543    2.0302 H   0  0  0  0  0  0  0  0  0  0  0  0
   -4.4389   -2.6562   -0.0623 H   0  0  0  0  0  0  0  0  0  0  0  0
   -3.5530   -1.8554   -2.2353 H   0  0  0  0  0  0  0  0  0  0  0  0
   -4.5697   -0.6147   -1.4637 H   0  0  0  0  0  0  0  0  0  0  0  0
   -2.7964   -0.4682   -1.4157 H   0  0  0  0  0  0  0  0  0  0  0  0
   -3.2370   -4.5513   -0.4045 H   0  0  0  0  0  0  0  0  0  0  0  0
   -1.4581   -4.5679   -0.3448 H   0  0  0  0  0  0  0  0  0  0  0  0
   -2.3364   -5.6526    1.6665 H   0  0  0  0  0  0  0  0  0  0  0  0
   -1.5847   -4.1045    2.1212 H   0  0  0  0  0  0  0  0  0  0  0  0
   -3.7528   -4.3597    3.0905 H   0  0  0  0  0  0  0  0  0  0  0  0
    0.0386   -3.8294   -0.0194 H   0  0  0  0  0  0  0  0  0  0  0  0
    2.1877   -2.6394   -0.0350 H   0  0  0  0  0  0  0  0  0  0  0  0
    3.2644   -0.4604   -0.0315 H   0  0  0  0  0  0  0  0  0  0  0  0
    1.9652    3.8940   -0.5028 H   0  0  0  0  0  0  0  0  0  0  0  0
    0.1855    3.8623   -0.4873 H   0  0  0  0  0  0  0  0  0  0  0  0
   -1.0420    4.0245    1.5975 H   0  0  0  0  0  0  0  0  0  0  0  0
   -1.0380    4.8212    3.9270 H   0  0  0  0  0  0  0  0  0  0  0  0
    3.2301    4.8959    3.8905 H   0  0  0  0  0  0  0  0  0  0  0  0
    3.2223    4.0904    1.5641 H   0  0  0  0  0  0  0  0  0  0  0  0
  1  2  1  0  0  0  0
  1 27  1  0  0  0  0
  1 28  1  0  0  0  0
  1 29  1  0  0  0  0
  2  3  1  0  0  0  0
  2  4  1  0  0  0  0
  2 30  1  0  0  0  0
  3 31  1  0  0  0  0
  3 32  1  0  0  0  0
  3 33  1  0  0  0  0
  4  5  1  0  0  0  0
  4  8  1  0  0  0  0
  5  6  1  0  0  0  0
  5 34  1  0  0  0  0
  5 35  1  0  0  0  0
  6  7  1  0  0  0  0
  6 36  1  0  0  0  0
  6 37  1  0  0  0  0
  7 38  1  0  0  0  0
  8 13  2  0  0  0  0
  8  9  1  0  0  0  0
  9 10  2  0  0  0  0
  9 39  1  0  0  0  0
 10 11  1  0  0  0  0
 10 40  1  0  0  0  0
 11 12  2  0  0  0  0
 11 17  1  0  0  0  0
 12 13  1  0  0  0  0
 12 14  1  0  0  0  0
 14 15  2  0  0  0  0
 15 19  1  0  0  0  0
 15 16  1  0  0  0  0
 16 17  1  0  0  0  0
 16 18  2  0  0  0  0
 17 41  1  0  0  0  0
 19 20  1  0  0  0  0
 19 42  1  0  0  0  0
 19 43  1  0  0  0  0
 20 25  2  0  0  0  0
 20 21  1  0  0  0  0
 21 22  2  0  0  0  0
 21 44  1  0  0  0  0
 22 23  1  0  0  0  0
 22 45  1  0  0  0  0
 23 24  2  0  0  0  0
 23 26  1  0  0  0  0
 24 25  1  0  0  0  0
 24 46  1  0  0  0  0
 25 47  1  0  0  0  0
M  END
$$$$
ZINC03684800
  -OEChem-08230709453D

 48 50  0     1  0  0  0  0  0999 V2000
   -3.7144   -0.9913    1.0970 C   0  0  0  0  0  0  0  0  0  0  0  0
   -3.6027   -1.9573   -0.0841 C   0  0  0  0  0  0  0  0  0  0  0  0
   -3.6326   -1.1671   -1.3939 C   0  0  0  0  0  0  0  0  0  0  0  0
   -2.3432   -2.6997    0.0096 N   0  0  3  0  0  0  0  0  0  0  0  0
   -2.3602   -4.1611    0.1123 C   0  0  0  0  0  0  0  0  0  0  0  0
   -2.4134   -4.5682    1.5860 C   0  0  0  0  0  0  0  0  0  0  0  0
   -3.6503   -4.1350    2.1556 O   0  0  0  0  0  0  0  0  0  0  0  0
   -1.1353   -2.0194    0.0013 C   0  0  0  0  0  0  0  0  0  0  0  0
    0.0627   -2.7497   -0.0144 C   0  0  0  0  0  0  0  0  0  0  0  0
    1.2560   -2.0935   -0.0226 C   0  0  0  0  0  0  0  0  0  0  0  0
    1.2447   -0.6826   -0.0151 C   0  0  0  0  0  0  0  0  0  0  0  0
    0.0021   -0.0041    0.0020 C   0  0  0  0  0  0  0  0  0  0  0  0
   -0.0161    1.3348    0.0113 N   0  0  0  0  0  0  0  0  0  0  0  0
    1.1130    2.0047    0.0058 C   0  0  0  0  0  0  0  0  0  0  0  0
    2.3435    1.3326   -0.0095 C   0  0  0  0  0  0  0  0  0  0  0  0
    2.3846    0.0148   -0.0200 N   0  0  0  0  0  0  0  0  0  0  0  0
    3.4990    2.0428   -0.0144 O   0  0  0  0  0  0  0  0  0  0  0  0
    1.0863    3.5114    0.0162 C   0  0  0  0  0  0  0  0  0  0  0  0
    1.0899    4.0041    1.4405 C   0  0  0  0  0  0  0  0  0  0  0  0
   -0.1059    4.2140    2.1017 C   0  0  0  0  0  0  0  0  0  0  0  0
   -0.1038    4.6612    3.4093 C   0  0  0  0  0  0  0  0  0  0  0  0
    1.0964    4.9089    4.0537 C   0  0  0  0  0  0  0  0  0  0  0  0
    2.2933    4.7033    3.3887 C   0  0  0  0  0  0  0  0  0  0  0  0
    2.2888    4.2512    2.0829 C   0  0  0  0  0  0  0  0  0  0  0  0
    1.0996    5.3506    5.3305 F   0  0  0  0  0  0  0  0  0  0  0  0
   -2.8782   -0.2924    1.0752 H   0  0  0  0  0  0  0  0  0  0  0  0
   -4.6515   -0.4390    1.0273 H   0  0  0  0  0  0  0  0  0  0  0  0
   -3.6932   -1.5543    2.0302 H   0  0  0  0  0  0  0  0  0  0  0  0
   -4.4389   -2.6562   -0.0623 H   0  0  0  0  0  0  0  0  0  0  0  0
   -3.5530   -1.8554   -2.2353 H   0  0  0  0  0  0  0  0  0  0  0  0
   -4.5697   -0.6147   -1.4637 H   0  0  0  0  0  0  0  0  0  0  0  0
   -2.7964   -0.4682   -1.4157 H   0  0  0  0  0  0  0  0  0  0  0  0
   -3.2370   -4.5513   -0.4045 H   0  0  0  0  0  0  0  0  0  0  0  0
   -1.4581   -4.5679   -0.3448 H   0  0  0  0  0  0  0  0  0  0  0  0
   -2.3364   -5.6526    1.6665 H   0  0  0  0  0  0  0  0  0  0  0  0
   -1.5847   -4.1045    2.1212 H   0  0  0  0  0  0  0  0  0  0  0  0
   -3.7528   -4.3597    3.0905 H   0  0  0  0  0  0  0  0  0  0  0  0
    0.0386   -3.8294   -0.0194 H   0  0  0  0  0  0  0  0  0  0  0  0
    2.1877   -2.6394   -0.0350 H   0  0  0  0  0  0  0  0  0  0  0  0
    3.2644   -0.4604   -0.0316 H   0  0  0  0  0  0  0  0  0  0  0  0
    1.9652    3.8940   -0.5028 H   0  0  0  0  0  0  0  0  0  0  0  0
    0.1855    3.8623   -0.4873 H   0  0  0  0  0  0  0  0  0  0  0  0
   -1.0420    4.0245    1.5975 H   0  0  0  0  0  0  0  0  0  0  0  0
   -1.0380    4.8212    3.9270 H   0  0  0  0  0  0  0  0  0  0  0  0
    3.2301    4.8959    3.8905 H   0  0  0  0  0  0  0  0  0  0  0  0
    3.2223    4.0904    1.5641 H   0  0  0  0  0  0  0  0  0  0  0  0
   -1.2062   -0.6649    0.0097 N   0  3  0  0  0  0  0  0  0  0  0  0
   -2.1027   -0.1646    0.0209 H   0  0  0  0  0  0  0  0  0  0  0  0
  1  2  1  0  0  0  0
  1 26  1  0  0  0  0
  1 27  1  0  0  0  0
  1 28  1  0  0  0  0
  2  3  1  0  0  0  0
  2  4  1  0  0  0  0
  2 29  1  0  0  0  0
  3 30  1  0  0  0  0
  3 31  1  0  0  0  0
  3 32  1  0  0  0  0
  4  5  1  0  0  0  0
  4  8  1  0  0  0  0
  5  6  1  0  0  0  0
  5 33  1  0  0  0  0
  5 34  1  0  0  0  0
  6  7  1  0  0  0  0
  6 35  1  0  0  0  0
  6 36  1  0  0  0  0
  7 37  1  0  0  0  0
  8  9  2  0  0  0  0
  8 47  1  0  0  0  0
  9 10  1  0  0  0  0
  9 38  1  0  0  0  0
 10 11  2  0  0  0  0
 10 39  1  0  0  0  0
 11 12  1  0  0  0  0
 11 16  1  0  0  0  0
 12 13  1  0  0  0  0
 12 47  2  0  0  0  0
 13 14  2  0  0  0  0
 14 18  1  0  0  0  0
 14 15  1  0  0  0  0
 15 16  1  0  0  0  0
 15 17  2  0  0  0  0
 16 40  1  0  0  0  0
 18 19  1  0  0  0  0
 18 41  1  0  0  0  0
 18 42  1  0  0  0  0
 19 24  2  0  0  0  0
 19 20  1  0  0  0  0
 20 21  2  0  0  0  0
 20 43  1  0  0  0  0
 21 22  1  0  0  0  0
 21 44  1  0  0  0  0
 22 23  2  0  0  0  0
 22 25  1  0  0  0  0
 23 24  1  0  0  0  0
 23 45  1  0  0  0  0
 24 46  1  0  0  0  0
 47 48  1  0  0  0  0
M  CHG  1  47   1
M  END
$$$$
ZINC03684800
  -OEChem-08230709453D

 48 50  0     1  0  0  0  0  0999 V2000
   -3.7165   -0.9881    1.0882 C   0  0  0  0  0  0  0  0  0  0  0  0
   -3.6026   -1.9576   -0.0899 C   0  0  0  0  0  0  0  0  0  0  0  0
   -3.6300   -1.1712   -1.4020 C   0  0  0  0  0  0  0  0  0  0  0  0
   -2.3432   -2.6997    0.0084 N   0  0  3  0  0  0  0  0  0  0  0  0
   -2.3604   -4.1608    0.1153 C   0  0  0  0  0  0  0  0  0  0  0  0
   -2.4164   -4.5636    1.5901 C   0  0  0  0  0  0  0  0  0  0  0  0
   -3.6544   -4.1287    2.1561 O   0  0  0  0  0  0  0  0  0  0  0  0
   -1.1353   -2.0194    0.0004 C   0  0  0  0  0  0  0  0  0  0  0  0
    0.0627   -2.7497   -0.0109 C   0  0  0  0  0  0  0  0  0  0  0  0
    1.2560   -2.0935   -0.0231 C   0  0  0  0  0  0  0  0  0  0  0  0
    1.2447   -0.6826   -0.0154 C   0  0  0  0  0  0  0  0  0  0  0  0
    0.0021   -0.0041   -0.0026 C   0  0  0  0  0  0  0  0  0  0  0  0
   -0.0162    1.3349    0.0027 N   0  0  0  0  0  0  0  0  0  0  0  0
    1.1129    2.0048   -0.0026 C   0  0  0  0  0  0  0  0  0  0  0  0
    2.3435    1.3326   -0.0095 C   0  0  0  0  0  0  0  0  0  0  0  0
    2.3846    0.0148   -0.0200 N   0  0  0  0  0  0  0  0  0  0  0  0
    3.4990    2.0428   -0.0136 O   0  0  0  0  0  0  0  0  0  0  0  0
    1.0862    3.5115    0.0032 C   0  0  0  0  0  0  0  0  0  0  0  0
    1.0872    4.0085    1.4260 C   0  0  0  0  0  0  0  0  0  0  0  0
   -0.1099    4.2204    2.0844 C   0  0  0  0  0  0  0  0  0  0  0  0
   -0.1102    4.6715    3.3906 C   0  0  0  0  0  0  0  0  0  0  0  0
    1.0888    4.9212    4.0365 C   0  0  0  0  0  0  0  0  0  0  0  0
    2.2869    4.7136    3.3743 C   0  0  0  0  0  0  0  0  0  0  0  0
    2.2849    4.2575    2.0699 C   0  0  0  0  0  0  0  0  0  0  0  0
    1.0897    5.3667    5.3120 F   0  0  0  0  0  0  0  0  0  0  0  0
   -2.8803   -0.2893    1.0659 H   0  0  0  0  0  0  0  0  0  0  0  0
   -4.6535   -0.4360    1.0151 H   0  0  0  0  0  0  0  0  0  0  0  0
   -3.6971   -1.5484    2.0231 H   0  0  0  0  0  0  0  0  0  0  0  0
   -4.4388   -2.6564   -0.0676 H   0  0  0  0  0  0  0  0  0  0  0  0
   -3.5488   -1.8619   -2.2413 H   0  0  0  0  0  0  0  0  0  0  0  0
   -4.5669   -0.6190   -1.4752 H   0  0  0  0  0  0  0  0  0  0  0  0
   -2.7937   -0.4723   -1.4243 H   0  0  0  0  0  0  0  0  0  0  0  0
   -3.2362   -4.5525   -0.4020 H   0  0  0  0  0  0  0  0  0  0  0  0
   -1.4574   -4.5689   -0.3389 H   0  0  0  0  0  0  0  0  0  0  0  0
   -2.3395   -5.6477    1.6739 H   0  0  0  0  0  0  0  0  0  0  0  0
   -1.5887   -4.0983    2.1255 H   0  0  0  0  0  0  0  0  0  0  0  0
   -3.7587   -4.3507    3.0914 H   0  0  0  0  0  0  0  0  0  0  0  0
    0.0386   -3.8294   -0.0128 H   0  0  0  0  0  0  0  0  0  0  0  0
    2.1877   -2.6394   -0.0355 H   0  0  0  0  0  0  0  0  0  0  0  0
    3.2893    3.0205   -0.0043 H   0  0  0  0  0  0  0  0  0  0  0  0
    1.9661    3.8925   -0.5153 H   0  0  0  0  0  0  0  0  0  0  0  0
    0.1863    3.8608   -0.5030 H   0  0  0  0  0  0  0  0  0  0  0  0
   -1.0450    4.0293    1.5790 H   0  0  0  0  0  0  0  0  0  0  0  0
   -1.0453    4.8331    3.9061 H   0  0  0  0  0  0  0  0  0  0  0  0
    3.2228    4.9077    3.8773 H   0  0  0  0  0  0  0  0  0  0  0  0
    3.2193    4.0952    1.5533 H   0  0  0  0  0  0  0  0  0  0  0  0
   -1.2062   -0.6649    0.0046 N   0  3  0  0  0  0  0  0  0  0  0  0
   -2.1028   -0.1645    0.0128 H   0  0  0  0  0  0  0  0  0  0  0  0
  1  2  1  0  0  0  0
  1 26  1  0  0  0  0
  1 27  1  0  0  0  0
  1 28  1  0  0  0  0
  2  3  1  0  0  0  0
  2  4  1  0  0  0  0
  2 29  1  0  0  0  0
  3 30  1  0  0  0  0
  3 31  1  0  0  0  0
  3 32  1  0  0  0  0
  4  5  1  0  0  0  0
  4  8  1  0  0  0  0
  5  6  1  0  0  0  0
  5 33  1  0  0  0  0
  5 34  1  0  0  0  0
  6  7  1  0  0  0  0
  6 35  1  0  0  0  0
  6 36  1  0  0  0  0
  7 37  1  0  0  0  0
  8  9  2  0  0  0  0
  8 47  1  0  0  0  0
  9 10  1  0  0  0  0
  9 38  1  0  0  0  0
 10 11  2  0  0  0  0
 10 39  1  0  0  0  0
 11 12  1  0  0  0  0
 11 16  1  0  0  0  0
 12 47  2  0  0  0  0
 12 13  1  0  0  0  0
 13 14  2  0  0  0  0
 14 18  1  0  0  0  0
 14 15  1  0  0  0  0
 15 16  2  0  0  0  0
 15 17  1  0  0  0  0
 17 40  1  0  0  0  0
 18 19  1  0  0  0  0
 18 41  1  0  0  0  0
 18 42  1  0  0  0  0
 19 24  2  0  0  0  0
 19 20  1  0  0  0  0
 20 21  2  0  0  0  0
 20 43  1  0  0  0  0
 21 22  1  0  0  0  0
 21 44  1  0  0  0  0
 22 23  2  0  0  0  0
 22 25  1  0  0  0  0
 23 24  1  0  0  0  0
 23 45  1  0  0  0  0
 24 46  1  0  0  0  0
 47 48  1  0  0  0  0
M  CHG  1  47   1
M  END
$$$$
ZINC03684800
  -OEChem-08230709453D

 47 49  0     0  0  0  0  0  0999 V2000
   -3.7164   -0.9881    1.0885 C   0  0  0  0  0  0  0  0  0  0  0  0
   -3.6026   -1.9576   -0.0896 C   0  0  0  0  0  0  0  0  0  0  0  0
   -3.6301   -1.1712   -1.4018 C   0  0  0  0  0  0  0  0  0  0  0  0
   -2.3432   -2.6997    0.0085 N   0  0  0  0  0  0  0  0  0  0  0  0
   -2.3604   -4.1608    0.1155 C   0  0  0  0  0  0  0  0  0  0  0  0
   -2.4163   -4.5636    1.5902 C   0  0  0  0  0  0  0  0  0  0  0  0
   -3.6542   -4.1287    2.1563 O   0  0  0  0  0  0  0  0  0  0  0  0
   -1.1353   -2.0194    0.0005 C   0  0  0  0  0  0  0  0  0  0  0  0
    0.0627   -2.7497   -0.0109 C   0  0  0  0  0  0  0  0  0  0  0  0
    1.2560   -2.0935   -0.0232 C   0  0  0  0  0  0  0  0  0  0  0  0
    1.2447   -0.6826   -0.0155 C   0  0  0  0  0  0  0  0  0  0  0  0
    0.0021   -0.0041   -0.0026 C   0  0  0  0  0  0  0  0  0  0  0  0
   -1.1385   -0.7024    0.0040 N   0  0  0  0  0  0  0  0  0  0  0  0
   -0.0162    1.3349    0.0027 N   0  0  0  0  0  0  0  0  0  0  0  0
    1.1129    2.0048   -0.0026 C   0  0  0  0  0  0  0  0  0  0  0  0
    2.3435    1.3326   -0.0097 C   0  0  0  0  0  0  0  0  0  0  0  0
    2.3846    0.0148   -0.0202 N   0  0  0  0  0  0  0  0  0  0  0  0
    3.4990    2.0428   -0.0138 O   0  0  0  0  0  0  0  0  0  0  0  0
    1.0862    3.5115    0.0032 C   0  0  0  0  0  0  0  0  0  0  0  0
    1.0872    4.0085    1.4260 C   0  0  0  0  0  0  0  0  0  0  0  0
   -0.1099    4.2204    2.0844 C   0  0  0  0  0  0  0  0  0  0  0  0
   -0.1102    4.6715    3.3906 C   0  0  0  0  0  0  0  0  0  0  0  0
    1.0888    4.9212    4.0365 C   0  0  0  0  0  0  0  0  0  0  0  0
    2.2869    4.7136    3.3743 C   0  0  0  0  0  0  0  0  0  0  0  0
    2.2849    4.2575    2.0699 C   0  0  0  0  0  0  0  0  0  0  0  0
    1.0897    5.3667    5.3120 F   0  0  0  0  0  0  0  0  0  0  0  0
   -2.8802   -0.2893    1.0661 H   0  0  0  0  0  0  0  0  0  0  0  0
   -4.6534   -0.4360    1.0154 H   0  0  0  0  0  0  0  0  0  0  0  0
   -3.6969   -1.5484    2.0233 H   0  0  0  0  0  0  0  0  0  0  0  0
   -4.4388   -2.6564   -0.0673 H   0  0  0  0  0  0  0  0  0  0  0  0
   -3.5489   -1.8619   -2.2410 H   0  0  0  0  0  0  0  0  0  0  0  0
   -4.5671   -0.6190   -1.4749 H   0  0  0  0  0  0  0  0  0  0  0  0
   -2.7938   -0.4723   -1.4241 H   0  0  0  0  0  0  0  0  0  0  0  0
   -3.2363   -4.5525   -0.4018 H   0  0  0  0  0  0  0  0  0  0  0  0
   -1.4575   -4.5689   -0.3388 H   0  0  0  0  0  0  0  0  0  0  0  0
   -2.3394   -5.6477    1.6741 H   0  0  0  0  0  0  0  0  0  0  0  0
   -1.5886   -4.0983    2.1256 H   0  0  0  0  0  0  0  0  0  0  0  0
   -3.7584   -4.3507    3.0917 H   0  0  0  0  0  0  0  0  0  0  0  0
    0.0386   -3.8294   -0.0128 H   0  0  0  0  0  0  0  0  0  0  0  0
    2.1877   -2.6394   -0.0356 H   0  0  0  0  0  0  0  0  0  0  0  0
    3.2893    3.0205   -0.0045 H   0  0  0  0  0  0  0  0  0  0  0  0
    1.9661    3.8925   -0.5153 H   0  0  0  0  0  0  0  0  0  0  0  0
    0.1863    3.8608   -0.5030 H   0  0  0  0  0  0  0  0  0  0  0  0
   -1.0450    4.0293    1.5790 H   0  0  0  0  0  0  0  0  0  0  0  0
   -1.0453    4.8331    3.9061 H   0  0  0  0  0  0  0  0  0  0  0  0
    3.2228    4.9077    3.8773 H   0  0  0  0  0  0  0  0  0  0  0  0
    3.2193    4.0952    1.5533 H   0  0  0  0  0  0  0  0  0  0  0  0
  1  2  1  0  0  0  0
  1 27  1  0  0  0  0
  1 28  1  0  0  0  0
  1 29  1  0  0  0  0
  2  3  1  0  0  0  0
  2  4  1  0  0  0  0
  2 30  1  0  0  0  0
  3 31  1  0  0  0  0
  3 32  1  0  0  0  0
  3 33  1  0  0  0  0
  4  5  1  0  0  0  0
  4  8  1  0  0  0  0
  5  6  1  0  0  0  0
  5 34  1  0  0  0  0
  5 35  1  0  0  0  0
  6  7  1  0  0  0  0
  6 36  1  0  0  0  0
  6 37  1  0  0  0  0
  7 38  1  0  0  0  0
  8 13  2  0  0  0  0
  8  9  1  0  0  0  0
  9 10  2  0  0  0  0
  9 39  1  0  0  0  0
 10 11  1  0  0  0  0
 10 40  1  0  0  0  0
 11 12  2  0  0  0  0
 11 17  1  0  0  0  0
 12 13  1  0  0  0  0
 12 14  1  0  0  0  0
 14 15  2  0  0  0  0
 15 19  1  0  0  0  0
 15 16  1  0  0  0  0
 16 17  2  0  0  0  0
 16 18  1  0  0  0  0
 18 41  1  0  0  0  0
 19 20  1  0  0  0  0
 19 42  1  0  0  0  0
 19 43  1  0  0  0  0
 20 25  2  0  0  0  0
 20 21  1  0  0  0  0
 21 22  2  0  0  0  0
 21 44  1  0  0  0  0
 22 23  1  0  0  0  0
 22 45  1  0  0  0  0
 23 24  2  0  0  0  0
 23 26  1  0  0  0  0
 24 25  1  0  0  0  0
 24 46  1  0  0  0  0
 25 47  1  0  0  0  0
M  END
$$$$
ZINC03684813
  -OEChem-08230709453D

 46 49  0     1  0  0  0  0  0999 V2000
    4.7011    5.5158    2.0610 C   0  0  0  0  0  0  0  0  0  0  0  0
    5.0968    5.7521    3.3639 C   0  0  0  0  0  0  0  0  0  0  0  0
    5.9364    4.8570    4.0050 C   0  0  0  0  0  0  0  0  0  0  0  0
    6.3735    3.7229    3.3420 C   0  0  0  0  0  0  0  0  0  0  0  0
    5.9716    3.4855    2.0412 C   0  0  0  0  0  0  0  0  0  0  0  0
    5.1336    4.3802    1.4019 C   0  0  0  0  0  0  0  0  0  0  0  0
    4.6964    4.1205   -0.0167 C   0  0  0  0  0  0  0  0  0  0  0  0
    3.4207    3.3181   -0.0102 C   0  0  0  0  0  0  0  0  0  0  0  0
    3.4820    1.9169   -0.0182 C   0  0  0  0  0  0  0  0  0  0  0  0
    2.3756    1.2002   -0.0140 N   0  0  0  0  0  0  0  0  0  0  0  0
    1.1890    1.8152   -0.0001 C   0  0  0  0  0  0  0  0  0  0  0  0
   -0.0126    1.0758    0.0070 C   0  0  0  0  0  0  0  0  0  0  0  0
   -1.1914    1.7577    0.0163 C   0  0  0  0  0  0  0  0  0  0  0  0
   -1.1860    3.1607    0.0290 C   0  0  0  0  0  0  0  0  0  0  0  0
    1.1270    3.2294    0.0087 C   0  0  0  0  0  0  0  0  0  0  0  0
    2.2637    3.9377    0.0029 N   0  0  0  0  0  0  0  0  0  0  0  0
   -2.3929    3.8427    0.0433 N   0  0  2  0  0  0  0  0  0  0  0  0
   -3.1847    3.4938    1.2428 C   0  0  0  0  0  0  0  0  0  0  0  0
   -4.6676    3.5193    0.8284 C   0  0  0  0  0  0  0  0  0  0  0  0
   -4.6601    3.8710   -0.6770 C   0  0  0  0  0  0  0  0  0  0  0  0
   -3.2331    3.4626   -1.1211 C   0  0  1  0  0  0  0  0  0  0  0  0
   -3.1784    2.3888   -1.3006 H   0  0  0  0  0  0  0  0  0  0  0  0
   -2.8118    4.2422   -2.3684 C   0  0  0  0  0  0  0  0  0  0  0  0
   -3.0709    5.6335   -2.1705 O   0  0  0  0  0  0  0  0  0  0  0  0
    4.6874    1.2952   -0.0314 O   0  0  0  0  0  0  0  0  0  0  0  0
    6.3292    5.0903    5.2765 F   0  0  0  0  0  0  0  0  0  0  0  0
    4.0504    6.2164    1.5591 H   0  0  0  0  0  0  0  0  0  0  0  0
    4.7550    6.6369    3.8803 H   0  0  0  0  0  0  0  0  0  0  0  0
    7.0288    3.0242    3.8409 H   0  0  0  0  0  0  0  0  0  0  0  0
    6.3125    2.6009    1.5237 H   0  0  0  0  0  0  0  0  0  0  0  0
    5.4734    3.5634   -0.5402 H   0  0  0  0  0  0  0  0  0  0  0  0
    4.5258    5.0700   -0.5240 H   0  0  0  0  0  0  0  0  0  0  0  0
    0.0021   -0.0041    0.0008 H   0  0  0  0  0  0  0  0  0  0  0  0
   -2.1280    1.2199    0.0170 H   0  0  0  0  0  0  0  0  0  0  0  0
   -2.9132    2.4968    1.5898 H   0  0  0  0  0  0  0  0  0  0  0  0
   -3.0068    4.2254    2.0310 H   0  0  0  0  0  0  0  0  0  0  0  0
   -5.1214    2.5409    0.9862 H   0  0  0  0  0  0  0  0  0  0  0  0
   -5.2050    4.2818    1.3923 H   0  0  0  0  0  0  0  0  0  0  0  0
   -5.4116    3.2906   -1.2124 H   0  0  0  0  0  0  0  0  0  0  0  0
   -4.8191    4.9392   -0.8244 H   0  0  0  0  0  0  0  0  0  0  0  0
   -1.7471    4.0929   -2.5479 H   0  0  0  0  0  0  0  0  0  0  0  0
   -3.3787    3.8858   -3.2283 H   0  0  0  0  0  0  0  0  0  0  0  0
   -2.8276    6.1898   -2.9231 H   0  0  0  0  0  0  0  0  0  0  0  0
    2.4239    0.2014   -0.0212 H   0  0  0  0  0  0  0  0  0  0  0  0
   -0.0633    3.9219    0.0232 N   0  3  0  0  0  0  0  0  0  0  0  0
   -0.0987    4.9480    0.0294 H   0  0  0  0  0  0  0  0  0  0  0  0
  1  6  2  0  0  0  0
  1  2  1  0  0  0  0
  1 27  1  0  0  0  0
  2  3  2  0  0  0  0
  2 28  1  0  0  0  0
  3  4  1  0  0  0  0
  3 26  1  0  0  0  0
  4  5  2  0  0  0  0
  4 29  1  0  0  0  0
  5  6  1  0  0  0  0
  5 30  1  0  0  0  0
  6  7  1  0  0  0  0
  7  8  1  0  0  0  0
  7 31  1  0  0  0  0
  7 32  1  0  0  0  0
  8  9  1  0  0  0  0
  8 16  2  0  0  0  0
  9 10  1  0  0  0  0
  9 25  2  0  0  0  0
 10 44  1  0  0  0  0
 10 11  1  0  0  0  0
 11 12  2  0  0  0  0
 11 15  1  0  0  0  0
 12 13  1  0  0  0  0
 12 33  1  0  0  0  0
 13 14  2  0  0  0  0
 13 34  1  0  0  0  0
 14 17  1  0  0  0  0
 14 45  1  0  0  0  0
 15 45  2  0  0  0  0
 15 16  1  0  0  0  0
 17 21  1  0  0  0  0
 17 18  1  0  0  0  0
 18 19  1  0  0  0  0
 18 35  1  0  0  0  0
 18 36  1  0  0  0  0
 19 20  1  0  0  0  0
 19 37  1  0  0  0  0
 19 38  1  0  0  0  0
 20 21  1  0  0  0  0
 20 39  1  0  0  0  0
 20 40  1  0  0  0  0
 21 22  1  0  0  0  0
 21 23  1  0  0  0  0
 23 24  1  0  0  0  0
 23 41  1  0  0  0  0
 23 42  1  0  0  0  0
 24 43  1  0  0  0  0
 45 46  1  0  0  0  0
M  CHG  1  45   1
M  END
$$$$
ZINC03684813
  -OEChem-08230709453D

 46 49  0     1  0  0  0  0  0999 V2000
    4.7018    5.5173    2.0570 C   0  0  0  0  0  0  0  0  0  0  0  0
    5.0980    5.7546    3.3596 C   0  0  0  0  0  0  0  0  0  0  0  0
    5.9379    4.8600    4.0010 C   0  0  0  0  0  0  0  0  0  0  0  0
    6.3747    3.7254    3.3386 C   0  0  0  0  0  0  0  0  0  0  0  0
    5.9724    3.4870    2.0382 C   0  0  0  0  0  0  0  0  0  0  0  0
    5.1341    4.3813    1.3985 C   0  0  0  0  0  0  0  0  0  0  0  0
    4.6964    4.1205   -0.0197 C   0  0  0  0  0  0  0  0  0  0  0  0
    3.4207    3.3181   -0.0121 C   0  0  0  0  0  0  0  0  0  0  0  0
    3.4820    1.9169   -0.0183 C   0  0  0  0  0  0  0  0  0  0  0  0
    2.3756    1.2002   -0.0141 N   0  0  0  0  0  0  0  0  0  0  0  0
    1.1890    1.8152   -0.0002 C   0  0  0  0  0  0  0  0  0  0  0  0
   -0.0126    1.0758    0.0069 C   0  0  0  0  0  0  0  0  0  0  0  0
   -1.1914    1.7577    0.0172 C   0  0  0  0  0  0  0  0  0  0  0  0
   -1.1860    3.1607    0.0289 C   0  0  0  0  0  0  0  0  0  0  0  0
    1.1270    3.2294    0.0077 C   0  0  0  0  0  0  0  0  0  0  0  0
    2.2637    3.9377    0.0009 N   0  0  0  0  0  0  0  0  0  0  0  0
   -2.3929    3.8427    0.0432 N   0  0  0  0  0  0  0  0  0  0  0  0
   -3.1842    3.4946    1.2433 C   0  0  0  0  0  0  0  0  0  0  0  0
   -4.6673    3.5198    0.8294 C   0  0  0  0  0  0  0  0  0  0  0  0
   -4.6604    3.8705   -0.6762 C   0  0  0  0  0  0  0  0  0  0  0  0
   -3.2336    3.4618   -1.1206 C   0  0  1  0  0  0  0  0  0  0  0  0
   -3.1789    2.3879   -1.2994 H   0  0  0  0  0  0  0  0  0  0  0  0
   -2.8127    4.2405   -2.3686 C   0  0  0  0  0  0  0  0  0  0  0  0
   -3.0718    5.6320   -2.1716 O   0  0  0  0  0  0  0  0  0  0  0  0
    4.6874    1.2952   -0.0305 O   0  0  0  0  0  0  0  0  0  0  0  0
    6.3312    5.0942    5.2722 F   0  0  0  0  0  0  0  0  0  0  0  0
    4.0510    6.2176    1.5548 H   0  0  0  0  0  0  0  0  0  0  0  0
    4.7564    6.6398    3.8754 H   0  0  0  0  0  0  0  0  0  0  0  0
    7.0302    3.0270    3.8378 H   0  0  0  0  0  0  0  0  0  0  0  0
    6.3131    2.6021    1.5212 H   0  0  0  0  0  0  0  0  0  0  0  0
    5.4732    3.5630   -0.5431 H   0  0  0  0  0  0  0  0  0  0  0  0
    4.5256    5.0696   -0.5276 H   0  0  0  0  0  0  0  0  0  0  0  0
    0.0021   -0.0041    0.0007 H   0  0  0  0  0  0  0  0  0  0  0  0
   -2.1280    1.2199    0.0186 H   0  0  0  0  0  0  0  0  0  0  0  0
   -2.9126    2.4979    1.5909 H   0  0  0  0  0  0  0  0  0  0  0  0
   -3.0060    4.2268    2.0309 H   0  0  0  0  0  0  0  0  0  0  0  0
   -5.1210    2.5415    0.9881 H   0  0  0  0  0  0  0  0  0  0  0  0
   -5.2045    4.2827    1.3930 H   0  0  0  0  0  0  0  0  0  0  0  0
   -5.4121    3.2897   -1.2109 H   0  0  0  0  0  0  0  0  0  0  0  0
   -4.8194    4.9386   -0.8243 H   0  0  0  0  0  0  0  0  0  0  0  0
   -1.7481    4.0911   -2.5484 H   0  0  0  0  0  0  0  0  0  0  0  0
   -3.3800    3.8835   -3.2280 H   0  0  0  0  0  0  0  0  0  0  0  0
   -2.8288    6.1877   -2.9246 H   0  0  0  0  0  0  0  0  0  0  0  0
    5.4158    1.9803   -0.0321 H   0  0  0  0  0  0  0  0  0  0  0  0
   -0.0633    3.9219    0.0221 N   0  3  0  0  0  0  0  0  0  0  0  0
   -0.0987    4.9480    0.0276 H   0  0  0  0  0  0  0  0  0  0  0  0
  1  6  2  0  0  0  0
  1  2  1  0  0  0  0
  1 27  1  0  0  0  0
  2  3  2  0  0  0  0
  2 28  1  0  0  0  0
  3  4  1  0  0  0  0
  3 26  1  0  0  0  0
  4  5  2  0  0  0  0
  4 29  1  0  0  0  0
  5  6  1  0  0  0  0
  5 30  1  0  0  0  0
  6  7  1  0  0  0  0
  7  8  1  0  0  0  0
  7 31  1  0  0  0  0
  7 32  1  0  0  0  0
  8  9  2  0  0  0  0
  8 16  1  0  0  0  0
  9 10  1  0  0  0  0
  9 25  1  0  0  0  0
 10 11  2  0  0  0  0
 11 12  1  0  0  0  0
 11 15  1  0  0  0  0
 12 13  2  0  0  0  0
 12 33  1  0  0  0  0
 13 14  1  0  0  0  0
 13 34  1  0  0  0  0
 14 17  1  0  0  0  0
 14 45  2  0  0  0  0
 15 45  1  0  0  0  0
 15 16  2  0  0  0  0
 17 21  1  0  0  0  0
 17 18  1  0  0  0  0
 18 19  1  0  0  0  0
 18 35  1  0  0  0  0
 18 36  1  0  0  0  0
 19 20  1  0  0  0  0
 19 37  1  0  0  0  0
 19 38  1  0  0  0  0
 20 21  1  0  0  0  0
 20 39  1  0  0  0  0
 20 40  1  0  0  0  0
 21 22  1  0  0  0  0
 21 23  1  0  0  0  0
 23 24  1  0  0  0  0
 23 41  1  0  0  0  0
 23 42  1  0  0  0  0
 24 43  1  0  0  0  0
 25 44  1  0  0  0  0
 45 46  1  0  0  0  0
M  CHG  1  45   1
M  END
$$$$
ZINC03768044
  -OEChem-08230709453D

 42 44  0     1  0  0  0  0  0999 V2000
   -4.0754   12.2800    2.3402 C   0  0  0  0  0  0  0  0  0  0  0  0
   -4.1274   12.6130    0.8478 C   0  0  1  0  0  0  0  0  0  0  0  0
   -4.0020   13.6868    0.7087 H   0  0  0  0  0  0  0  0  0  0  0  0
   -3.0081   11.8667    0.1164 C   0  0  0  0  0  0  0  0  0  0  0  0
   -3.2230   10.3829    0.2515 C   0  0  0  0  0  0  0  0  0  0  0  0
   -4.4642    9.8643    0.3707 C   0  0  0  0  0  0  0  0  0  0  0  0
   -5.6014   10.6777    0.3905 C   0  0  0  0  0  0  0  0  0  0  0  0
   -6.7011   10.1728    0.5029 O   0  0  0  0  0  0  0  0  0  0  0  0
   -5.4759   12.1744    0.2681 C   0  0  1  0  0  0  0  0  0  0  0  0
   -5.5266   12.4390   -0.6949 H   0  0  0  0  0  0  0  0  0  0  0  0
   -6.6097   12.8495    1.0424 C   0  0  0  0  0  0  0  0  0  0  0  0
   -2.1463    9.5478    0.2478 N   0  0  0  0  0  0  0  0  0  0  0  0
   -2.3364    8.1598    0.2560 N   0  0  0  0  0  0  0  0  0  0  0  0
   -1.2470    7.3107    0.1468 C   0  0  0  0  0  0  0  0  0  0  0  0
   -1.2156    5.9910    0.1289 N   0  0  0  0  0  0  0  0  0  0  0  0
   -0.0644    5.3314    0.0197 C   0  0  0  0  0  0  0  0  0  0  0  0
    1.1015    6.0349   -0.0861 C   0  0  0  0  0  0  0  0  0  0  0  0
    0.4869    7.7123   -0.0153 S   0  0  0  0  0  0  0  0  0  0  0  0
   -0.0487    3.8485    0.0068 C   0  0  0  0  0  0  0  0  0  0  0  0
    1.1650    3.1622   -0.0087 C   0  0  0  0  0  0  0  0  0  0  0  0
    1.1769    1.7822   -0.0211 C   0  0  0  0  0  0  0  0  0  0  0  0
   -0.0122    1.0767   -0.0183 C   0  0  0  0  0  0  0  0  0  0  0  0
   -1.2248    1.7522   -0.0088 C   0  0  0  0  0  0  0  0  0  0  0  0
   -1.2463    3.1372    0.0096 C   0  0  0  0  0  0  0  0  0  0  0  0
   -2.3911    1.0546   -0.0122 O   0  0  0  0  0  0  0  0  0  0  0  0
   -3.1110   12.5842    2.7470 H   0  0  0  0  0  0  0  0  0  0  0  0
   -4.8727   12.8121    2.8592 H   0  0  0  0  0  0  0  0  0  0  0  0
   -4.2055   11.2066    2.4778 H   0  0  0  0  0  0  0  0  0  0  0  0
   -2.0463   12.1359    0.5529 H   0  0  0  0  0  0  0  0  0  0  0  0
   -3.0178   12.1407   -0.9386 H   0  0  0  0  0  0  0  0  0  0  0  0
   -4.5812    8.7941    0.4568 H   0  0  0  0  0  0  0  0  0  0  0  0
   -6.5133   13.9320    0.9578 H   0  0  0  0  0  0  0  0  0  0  0  0
   -7.5686   12.5367    0.6291 H   0  0  0  0  0  0  0  0  0  0  0  0
   -6.5550   12.5609    2.0921 H   0  0  0  0  0  0  0  0  0  0  0  0
   -1.2482    9.9143    0.2395 H   0  0  0  0  0  0  0  0  0  0  0  0
   -3.2306    7.7932    0.3382 H   0  0  0  0  0  0  0  0  0  0  0  0
    2.1156    5.6766   -0.1850 H   0  0  0  0  0  0  0  0  0  0  0  0
    2.0955    3.7104   -0.0112 H   0  0  0  0  0  0  0  0  0  0  0  0
    2.1176    1.2518   -0.0334 H   0  0  0  0  0  0  0  0  0  0  0  0
    0.0024   -0.0032   -0.0281 H   0  0  0  0  0  0  0  0  0  0  0  0
   -2.1890    3.6640    0.0212 H   0  0  0  0  0  0  0  0  0  0  0  0
   -2.7263    0.8444    0.8702 H   0  0  0  0  0  0  0  0  0  0  0  0
  1  2  1  0  0  0  0
  1 26  1  0  0  0  0
  1 27  1  0  0  0  0
  1 28  1  0  0  0  0
  2  3  1  0  0  0  0
  2  9  1  0  0  0  0
  2  4  1  0  0  0  0
  4  5  1  0  0  0  0
  4 29  1  0  0  0  0
  4 30  1  0  0  0  0
  5  6  2  0  0  0  0
  5 12  1  0  0  0  0
  6  7  1  0  0  0  0
  6 31  1  0  0  0  0
  7  8  2  0  0  0  0
  7  9  1  0  0  0  0
  9 10  1  0  0  0  0
  9 11  1  0  0  0  0
 11 32  1  0  0  0  0
 11 33  1  0  0  0  0
 11 34  1  0  0  0  0
 12 13  1  0  0  0  0
 12 35  1  0  0  0  0
 13 14  1  0  0  0  0
 13 36  1  0  0  0  0
 14 18  1  0  0  0  0
 14 15  2  0  0  0  0
 15 16  1  0  0  0  0
 16 17  2  0  0  0  0
 16 19  1  0  0  0  0
 17 18  1  0  0  0  0
 17 37  1  0  0  0  0
 19 24  2  0  0  0  0
 19 20  1  0  0  0  0
 20 21  2  0  0  0  0
 20 38  1  0  0  0  0
 21 22  1  0  0  0  0
 21 39  1  0  0  0  0
 22 23  2  0  0  0  0
 22 40  1  0  0  0  0
 23 24  1  0  0  0  0
 23 25  1  0  0  0  0
 24 41  1  0  0  0  0
 25 42  1  0  0  0  0
M  END
$$$$
ZINC03789780
  -OEChem-08230709453D

 44 46  0     0  0  0  0  0  0999 V2000
    4.5080    1.4632    2.5008 C   0  0  0  0  0  0  0  0  0  0  0  0
    3.4960    2.1941    1.6162 C   0  0  0  0  0  0  0  0  0  0  0  0
    2.1704    1.4301    1.6192 C   0  0  0  0  0  0  0  0  0  0  0  0
    1.1585    2.1611    0.7346 C   0  0  0  0  0  0  0  0  0  0  0  0
   -0.1472    1.4086    0.7375 C   0  0  0  0  0  0  0  0  0  0  0  0
   -0.2575    0.3880    1.3836 O   0  0  0  0  0  0  0  0  0  0  0  0
   -1.1906    1.8666    0.0178 N   0  0  0  0  0  0  0  0  0  0  0  0
   -2.3632    1.1099   -0.0733 C   0  0  0  0  0  0  0  0  0  0  0  0
   -2.2945   -0.2781   -0.0790 C   0  0  0  0  0  0  0  0  0  0  0  0
   -3.4496   -1.0263   -0.1630 C   0  0  0  0  0  0  0  0  0  0  0  0
   -4.6862   -0.3893   -0.2534 C   0  0  0  0  0  0  0  0  0  0  0  0
   -4.7522    1.0031   -0.2532 C   0  0  0  0  0  0  0  0  0  0  0  0
   -3.5949    1.7471   -0.1637 C   0  0  0  0  0  0  0  0  0  0  0  0
   -5.9300   -1.1920   -0.3500 C   0  0  0  0  0  0  0  0  0  0  0  0
   -7.0099   -0.9312    0.4993 C   0  0  0  0  0  0  0  0  0  0  0  0
   -8.1496   -1.7062    0.3638 C   0  0  0  0  0  0  0  0  0  0  0  0
   -8.1817   -2.7213   -0.5987 C   0  0  0  0  0  0  0  0  0  0  0  0
   -9.4296   -3.3234   -0.4988 N   0  0  0  0  0  0  0  0  0  0  0  0
   -9.7463   -4.0633   -1.0403 H   0  0  0  0  0  0  0  0  0  0  0  0
  -10.1257   -2.7083    0.4749 C   0  0  0  0  0  0  0  0  0  0  0  0
  -11.2579   -2.9958    0.8153 O   0  0  0  0  0  0  0  0  0  0  0  0
   -9.3795   -1.7263    1.0156 N   0  0  0  0  0  0  0  0  0  0  0  0
   -9.6519   -1.1350    1.7347 H   0  0  0  0  0  0  0  0  0  0  0  0
   -7.1358   -2.9397   -1.3798 N   0  0  0  0  0  0  0  0  0  0  0  0
   -6.0364   -2.2201   -1.2845 C   0  0  0  0  0  0  0  0  0  0  0  0
   -4.8759   -2.5137   -2.1999 C   0  0  0  0  0  0  0  0  0  0  0  0
    5.4523    2.0075    2.4987 H   0  0  0  0  0  0  0  0  0  0  0  0
    4.1246    1.4047    3.5195 H   0  0  0  0  0  0  0  0  0  0  0  0
    4.6679    0.4565    2.1144 H   0  0  0  0  0  0  0  0  0  0  0  0
    3.8794    2.2526    0.5975 H   0  0  0  0  0  0  0  0  0  0  0  0
    3.3361    3.2008    2.0025 H   0  0  0  0  0  0  0  0  0  0  0  0
    1.7871    1.3717    2.6379 H   0  0  0  0  0  0  0  0  0  0  0  0
    2.3304    0.4235    1.2328 H   0  0  0  0  0  0  0  0  0  0  0  0
    1.5419    2.2196   -0.2841 H   0  0  0  0  0  0  0  0  0  0  0  0
    0.9986    3.1677    1.1209 H   0  0  0  0  0  0  0  0  0  0  0  0
   -1.1283    2.7212   -0.4369 H   0  0  0  0  0  0  0  0  0  0  0  0
   -1.3359   -0.7711   -0.0130 H   0  0  0  0  0  0  0  0  0  0  0  0
   -3.3960   -2.1049   -0.1630 H   0  0  0  0  0  0  0  0  0  0  0  0
   -5.7092    1.4988   -0.3235 H   0  0  0  0  0  0  0  0  0  0  0  0
   -3.6456    2.8259   -0.1636 H   0  0  0  0  0  0  0  0  0  0  0  0
   -6.9582   -0.1444    1.2374 H   0  0  0  0  0  0  0  0  0  0  0  0
   -4.2212   -3.2490   -1.7322 H   0  0  0  0  0  0  0  0  0  0  0  0
   -5.2493   -2.9085   -3.1448 H   0  0  0  0  0  0  0  0  0  0  0  0
   -4.3178   -1.5958   -2.3849 H   0  0  0  0  0  0  0  0  0  0  0  0
  1  2  1  0  0  0  0
  1 27  1  0  0  0  0
  1 28  1  0  0  0  0
  1 29  1  0  0  0  0
  2  3  1  0  0  0  0
  2 30  1  0  0  0  0
  2 31  1  0  0  0  0
  3  4  1  0  0  0  0
  3 32  1  0  0  0  0
  3 33  1  0  0  0  0
  4  5  1  0  0  0  0
  4 34  1  0  0  0  0
  4 35  1  0  0  0  0
  5  6  2  0  0  0  0
  5  7  1  0  0  0  0
  7  8  1  0  0  0  0
  7 36  1  0  0  0  0
  8 13  2  0  0  0  0
  8  9  1  0  0  0  0
  9 10  2  0  0  0  0
  9 37  1  0  0  0  0
 10 11  1  0  0  0  0
 10 38  1  0  0  0  0
 11 12  2  0  0  0  0
 11 14  1  0  0  0  0
 12 13  1  0  0  0  0
 12 39  1  0  0  0  0
 13 40  1  0  0  0  0
 14 25  2  0  0  0  0
 14 15  1  0  0  0  0
 15 16  2  0  0  0  0
 15 41  1  0  0  0  0
 16 22  1  0  0  0  0
 16 17  1  0  0  0  0
 17 18  1  0  0  0  0
 17 24  2  0  0  0  0
 18 19  1  0  0  0  0
 18 20  1  0  0  0  0
 20 21  2  0  0  0  0
 20 22  1  0  0  0  0
 22 23  1  0  0  0  0
 24 25  1  0  0  0  0
 25 26  1  0  0  0  0
 26 42  1  0  0  0  0
 26 43  1  0  0  0  0
 26 44  1  0  0  0  0
M  END
$$$$
ZINC03798959
  -OEChem-08230709453D

 45 46  0     0  0  0  0  0  0999 V2000
   -2.7182    1.3373    2.3676 C   0  0  0  0  0  0  0  0  0  0  0  0
   -1.6047    1.9209    1.5366 C   0  0  0  0  0  0  0  0  0  0  0  0
   -0.6884    1.0849    0.9247 C   0  0  0  0  0  0  0  0  0  0  0  0
    0.3312    1.6159    0.1564 C   0  0  0  0  0  0  0  0  0  0  0  0
    0.4408    2.9841    0.0018 C   0  0  0  0  0  0  0  0  0  0  0  0
   -0.4743    3.8267    0.6196 C   0  0  0  0  0  0  0  0  0  0  0  0
   -1.4972    3.2898    1.3912 C   0  0  0  0  0  0  0  0  0  0  0  0
   -0.3660    5.2118    0.4657 N   0  0  0  0  0  0  0  0  0  0  0  0
    0.8775    5.7923    0.2690 C   0  0  0  0  0  0  0  0  0  0  0  0
    1.0026    7.1790    0.1574 C   0  0  0  0  0  0  0  0  0  0  0  0
    2.2610    7.7133   -0.0380 C   0  0  0  0  0  0  0  0  0  0  0  0
    3.3055    6.9013   -0.1133 N   0  0  0  0  0  0  0  0  0  0  0  0
    3.1576    5.5894   -0.0040 C   0  0  0  0  0  0  0  0  0  0  0  0
    1.9689    5.0378    0.1894 N   0  0  0  0  0  0  0  0  0  0  0  0
    4.2736    4.7752   -0.0877 N   0  0  0  0  0  0  0  0  0  0  0  0
   -0.4131    8.2227    0.2628 S   0  0  0  0  0  0  0  0  0  0  0  0
    0.0710    9.5556    0.3546 O   0  0  0  0  0  0  0  0  0  0  0  0
   -1.3033    7.8045   -0.7628 O   0  0  0  0  0  0  0  0  0  0  0  0
   -1.1603    7.8903    1.7028 N   0  0  0  0  0  0  0  0  0  0  0  0
   -0.5502    8.1962    2.8650 C   0  0  0  0  0  0  0  0  0  0  0  0
    0.9338    9.0497    2.8540 S   0  0  0  0  0  0  0  0  0  0  0  0
   -1.1085    7.8302    4.0358 N   0  0  0  0  0  0  0  0  0  0  0  0
   -0.4453    8.1627    5.2991 C   0  0  0  0  0  0  0  0  0  0  0  0
   -0.8372    9.5795    5.7233 C   0  0  0  0  0  0  0  0  0  0  0  0
   -0.8778    7.1689    6.3791 C   0  0  0  0  0  0  0  0  0  0  0  0
   -2.3881    1.2422    3.4020 H   0  0  0  0  0  0  0  0  0  0  0  0
   -3.5875    1.9934    2.3224 H   0  0  0  0  0  0  0  0  0  0  0  0
   -2.9845    0.3542    1.9793 H   0  0  0  0  0  0  0  0  0  0  0  0
   -0.7721    0.0147    1.0436 H   0  0  0  0  0  0  0  0  0  0  0  0
    1.0424    0.9602   -0.3238 H   0  0  0  0  0  0  0  0  0  0  0  0
    1.2374    3.3983   -0.5984 H   0  0  0  0  0  0  0  0  0  0  0  0
   -2.2105    3.9423    1.8730 H   0  0  0  0  0  0  0  0  0  0  0  0
   -1.1609    5.7669    0.4964 H   0  0  0  0  0  0  0  0  0  0  0  0
    2.3924    8.7814   -0.1281 H   0  0  0  0  0  0  0  0  0  0  0  0
    5.1504    5.1668   -0.2248 H   0  0  0  0  0  0  0  0  0  0  0  0
    4.1790    3.8131   -0.0092 H   0  0  0  0  0  0  0  0  0  0  0  0
   -2.0371    7.4755    1.7098 H   0  0  0  0  0  0  0  0  0  0  0  0
   -1.9493    7.3467    4.0420 H   0  0  0  0  0  0  0  0  0  0  0  0
    0.6353    8.1087    5.1674 H   0  0  0  0  0  0  0  0  0  0  0  0
   -1.9179    9.6335    5.8551 H   0  0  0  0  0  0  0  0  0  0  0  0
   -0.3438    9.8269    6.6633 H   0  0  0  0  0  0  0  0  0  0  0  0
   -0.5291   10.2875    4.9539 H   0  0  0  0  0  0  0  0  0  0  0  0
   -0.5986    6.1596    6.0768 H   0  0  0  0  0  0  0  0  0  0  0  0
   -0.3844    7.4163    7.3190 H   0  0  0  0  0  0  0  0  0  0  0  0
   -1.9585    7.2230    6.5108 H   0  0  0  0  0  0  0  0  0  0  0  0
  1  2  1  0  0  0  0
  1 26  1  0  0  0  0
  1 27  1  0  0  0  0
  1 28  1  0  0  0  0
  2  7  2  0  0  0  0
  2  3  1  0  0  0  0
  3  4  2  0  0  0  0
  3 29  1  0  0  0  0
  4  5  1  0  0  0  0
  4 30  1  0  0  0  0
  5  6  2  0  0  0  0
  5 31  1  0  0  0  0
  6  7  1  0  0  0  0
  6  8  1  0  0  0  0
  7 32  1  0  0  0  0
  8  9  1  0  0  0  0
  8 33  1  0  0  0  0
  9 14  2  0  0  0  0
  9 10  1  0  0  0  0
 10 11  2  0  0  0  0
 10 16  1  0  0  0  0
 11 12  1  0  0  0  0
 11 34  1  0  0  0  0
 12 13  2  0  0  0  0
 13 14  1  0  0  0  0
 13 15  1  0  0  0  0
 15 35  1  0  0  0  0
 15 36  1  0  0  0  0
 16 17  2  0  0  0  0
 16 18  2  0  0  0  0
 16 19  1  0  0  0  0
 19 20  1  0  0  0  0
 19 37  1  0  0  0  0
 20 21  2  0  0  0  0
 20 22  1  0  0  0  0
 22 23  1  0  0  0  0
 22 38  1  0  0  0  0
 23 24  1  0  0  0  0
 23 25  1  0  0  0  0
 23 39  1  0  0  0  0
 24 40  1  0  0  0  0
 24 41  1  0  0  0  0
 24 42  1  0  0  0  0
 25 43  1  0  0  0  0
 25 44  1  0  0  0  0
 25 45  1  0  0  0  0
M  END
$$$$
ZINC03808110
  -OEChem-08230709453D

 46 49  0     1  0  0  0  0  0999 V2000
    2.5717   -2.6133    2.7219 C   0  0  0  0  0  0  0  0  0  0  0  0
    1.2816   -2.7847    3.4816 C   0  0  0  0  0  0  0  0  0  0  0  0
    0.0589   -2.5319    2.8459 C   0  0  0  0  0  0  0  0  0  0  0  0
   -1.1411   -2.6847    3.5540 C   0  0  0  0  0  0  0  0  0  0  0  0
   -1.0828   -3.1079    4.9105 C   0  0  0  0  0  0  0  0  0  0  0  0
   -2.2017   -3.3340    5.8304 C   0  0  0  0  0  0  0  0  0  0  0  0
   -1.8952   -3.7314    7.0809 C   0  0  0  0  0  0  0  0  0  0  0  0
   -0.1260   -3.8288    7.1143 S   0  0  0  0  0  0  0  0  0  0  0  0
    0.2020   -3.3320    5.4400 C   0  0  0  0  0  0  0  0  0  0  0  0
   -2.8488   -4.0261    8.1990 C   0  0  0  0  0  0  0  0  0  0  0  0
   -4.2231   -3.4511    7.8277 C   0  0  1  0  0  0  0  0  0  0  0  0
   -4.1937   -2.3633    7.8914 H   0  0  0  0  0  0  0  0  0  0  0  0
   -4.5608   -3.8729    6.3946 C   0  0  0  0  0  0  0  0  0  0  0  0
   -3.6549   -3.1346    5.4087 C   0  0  0  0  0  0  0  0  0  0  0  0
   -5.2135   -3.9601    8.7232 O   0  0  0  0  0  0  0  0  0  0  0  0
   -2.3557   -2.4344    2.9452 N   0  0  0  0  0  0  0  0  0  0  0  0
    0.0349   -2.1011    1.4403 C   0  0  0  0  0  0  0  0  0  0  0  0
   -0.0232   -2.9287    0.5519 O   0  0  0  0  0  0  0  0  0  0  0  0
    0.0773   -0.7884    1.1369 O   0  0  0  0  0  0  0  0  0  0  0  0
    0.0501   -0.4362   -0.2715 C   0  0  0  0  0  0  0  0  0  0  0  0
    0.1044    1.0630   -0.4155 C   0  0  0  0  0  0  0  0  0  0  0  0
   -1.0599    1.8148   -0.4546 C   0  0  0  0  0  0  0  0  0  0  0  0
   -0.9707    3.1880   -0.5834 C   0  0  0  0  0  0  0  0  0  0  0  0
    0.2029    3.7818   -0.6781 N   0  0  0  0  0  0  0  0  0  0  0  0
    1.3302    3.0983   -0.6493 C   0  0  0  0  0  0  0  0  0  0  0  0
    1.3197    1.7226   -0.5179 C   0  0  0  0  0  0  0  0  0  0  0  0
    2.9294   -1.5904    2.8395 H   0  0  0  0  0  0  0  0  0  0  0  0
    3.3176   -3.3061    3.1115 H   0  0  0  0  0  0  0  0  0  0  0  0
    2.4013   -2.8194    1.6652 H   0  0  0  0  0  0  0  0  0  0  0  0
   -2.9277   -5.1041    8.3396 H   0  0  0  0  0  0  0  0  0  0  0  0
   -2.4918   -3.5612    9.1180 H   0  0  0  0  0  0  0  0  0  0  0  0
   -4.4114   -4.9474    6.2886 H   0  0  0  0  0  0  0  0  0  0  0  0
   -5.6019   -3.6303    6.1815 H   0  0  0  0  0  0  0  0  0  0  0  0
   -3.8954   -2.0715    5.4181 H   0  0  0  0  0  0  0  0  0  0  0  0
   -3.8025   -3.5355    4.4059 H   0  0  0  0  0  0  0  0  0  0  0  0
   -5.0548   -3.7401    9.6514 H   0  0  0  0  0  0  0  0  0  0  0  0
   -2.4179   -2.4132    1.9774 H   0  0  0  0  0  0  0  0  0  0  0  0
   -3.1463   -2.2798    3.4855 H   0  0  0  0  0  0  0  0  0  0  0  0
   -0.8687   -0.8114   -0.7222 H   0  0  0  0  0  0  0  0  0  0  0  0
    0.9092   -0.8808   -0.7739 H   0  0  0  0  0  0  0  0  0  0  0  0
   -2.0241    1.3339   -0.3820 H   0  0  0  0  0  0  0  0  0  0  0  0
   -1.8728    3.7811   -0.6112 H   0  0  0  0  0  0  0  0  0  0  0  0
    2.2727    3.6196   -0.7296 H   0  0  0  0  0  0  0  0  0  0  0  0
    2.2463    1.1682   -0.4957 H   0  0  0  0  0  0  0  0  0  0  0  0
    1.3788   -3.1848    4.7733 N   0  3  0  0  0  0  0  0  0  0  0  0
    2.2849   -3.3655    5.2210 H   0  0  0  0  0  0  0  0  0  0  0  0
  1  2  1  0  0  0  0
  1 27  1  0  0  0  0
  1 28  1  0  0  0  0
  1 29  1  0  0  0  0
  2  3  2  0  0  0  0
  2 45  1  0  0  0  0
  3  4  1  0  0  0  0
  3 17  1  0  0  0  0
  4  5  2  0  0  0  0
  4 16  1  0  0  0  0
  5  9  1  0  0  0  0
  5  6  1  0  0  0  0
  6 14  1  0  0  0  0
  6  7  2  0  0  0  0
  7  8  1  0  0  0  0
  7 10  1  0  0  0  0
  8  9  1  0  0  0  0
  9 45  2  0  0  0  0
 10 11  1  0  0  0  0
 10 30  1  0  0  0  0
 10 31  1  0  0  0  0
 11 12  1  0  0  0  0
 11 13  1  0  0  0  0
 11 15  1  0  0  0  0
 13 14  1  0  0  0  0
 13 32  1  0  0  0  0
 13 33  1  0  0  0  0
 14 34  1  0  0  0  0
 14 35  1  0  0  0  0
 15 36  1  0  0  0  0
 16 37  1  0  0  0  0
 16 38  1  0  0  0  0
 17 18  2  0  0  0  0
 17 19  1  0  0  0  0
 19 20  1  0  0  0  0
 20 21  1  0  0  0  0
 20 39  1  0  0  0  0
 20 40  1  0  0  0  0
 21 26  2  0  0  0  0
 21 22  1  0  0  0  0
 22 23  2  0  0  0  0
 22 41  1  0  0  0  0
 23 24  1  0  0  0  0
 23 42  1  0  0  0  0
 24 25  2  0  0  0  0
 25 26  1  0  0  0  0
 25 43  1  0  0  0  0
 26 44  1  0  0  0  0
 45 46  1  0  0  0  0
M  CHG  1  45   1
M  END
$$$$
ZINC03817267
  -OEChem-08230709453D

 49 52  0     1  0  0  0  0  0999 V2000
   -0.0127    1.0858    0.0080 C   0  0  0  0  0  0  0  0  0  0  0  0
   -0.7288    1.5792    1.2668 C   0  0  0  0  0  0  0  0  0  0  0  0
    0.0000    1.0800    2.4877 C   0  0  0  0  0  0  0  0  0  0  0  0
   -0.3383   -0.1545    3.0795 C   0  0  0  0  0  0  0  0  0  0  0  0
   -1.3520   -0.9622    2.5456 C   0  0  0  0  0  0  0  0  0  0  0  0
   -1.6495   -2.1656    3.1490 C   0  0  0  0  0  0  0  0  0  0  0  0
   -0.9432   -2.5874    4.2827 C   0  0  0  0  0  0  0  0  0  0  0  0
    0.0472   -1.8247    4.8142 C   0  0  0  0  0  0  0  0  0  0  0  0
    0.3783   -0.5890    4.2246 C   0  0  0  0  0  0  0  0  0  0  0  0
    1.3481    0.1713    4.7337 N   0  0  0  0  0  0  0  0  0  0  0  0
    1.6716    1.3347    4.1914 C   0  0  0  0  0  0  0  0  0  0  0  0
    0.9980    1.8097    3.0524 C   0  0  0  0  0  0  0  0  0  0  0  0
    1.6118    3.1420    2.7070 C   0  0  0  0  0  0  0  0  0  0  0  0
    2.6599    3.3897    3.7058 N   0  0  0  0  0  0  0  0  0  0  0  0
    2.6958    2.3349    4.5732 C   0  0  0  0  0  0  0  0  0  0  0  0
    3.6041    2.3270    5.6125 C   0  0  0  0  0  0  0  0  0  0  0  0
    4.4865    3.3982    5.7766 C   0  0  0  0  0  0  0  0  0  0  0  0
    4.4393    4.4452    4.9024 C   0  0  0  0  0  0  0  0  0  0  0  0
    3.5059    4.4298    3.8528 C   0  0  0  0  0  0  0  0  0  0  0  0
    3.4601    5.3638    3.0687 O   0  0  0  0  0  0  0  0  0  0  0  0
    5.3819    5.6101    5.0623 C   0  0  0  0  0  0  0  0  0  0  0  0
    5.4815    3.3970    6.9084 C   0  0  1  0  0  0  0  0  0  0  0  0
    6.1348    4.2649    6.8187 H   0  0  0  0  0  0  0  0  0  0  0  0
    4.7358    3.4557    8.2431 C   0  0  0  0  0  0  0  0  0  0  0  0
    5.7452    3.5802    9.3862 C   0  0  0  0  0  0  0  0  0  0  0  0
    6.2650    2.2032    6.8526 O   0  0  0  0  0  0  0  0  0  0  0  0
   -2.6622   -2.9703    2.6257 N   0  0  0  0  0  0  0  0  0  0  0  0
    0.0021   -0.0041    0.0020 H   0  0  0  0  0  0  0  0  0  0  0  0
    1.0099    1.4631    0.0003 H   0  0  0  0  0  0  0  0  0  0  0  0
   -0.5399    1.4469   -0.8751 H   0  0  0  0  0  0  0  0  0  0  0  0
   -0.7436    2.6691    1.2728 H   0  0  0  0  0  0  0  0  0  0  0  0
   -1.7514    1.2020    1.2746 H   0  0  0  0  0  0  0  0  0  0  0  0
   -1.8996   -0.6416    1.6716 H   0  0  0  0  0  0  0  0  0  0  0  0
   -1.1901   -3.5334    4.7416 H   0  0  0  0  0  0  0  0  0  0  0  0
    0.5807   -2.1656    5.6892 H   0  0  0  0  0  0  0  0  0  0  0  0
    2.0481    3.1050    1.7088 H   0  0  0  0  0  0  0  0  0  0  0  0
    0.8558    3.9256    2.7553 H   0  0  0  0  0  0  0  0  0  0  0  0
    3.6332    1.4932    6.2984 H   0  0  0  0  0  0  0  0  0  0  0  0
    6.2948    5.4188    4.4983 H   0  0  0  0  0  0  0  0  0  0  0  0
    4.9064    6.5164    4.6873 H   0  0  0  0  0  0  0  0  0  0  0  0
    5.6262    5.7376    6.1169 H   0  0  0  0  0  0  0  0  0  0  0  0
    4.0707    4.3193    8.2500 H   0  0  0  0  0  0  0  0  0  0  0  0
    4.1506    2.5453    8.3727 H   0  0  0  0  0  0  0  0  0  0  0  0
    5.2140    3.6221   10.3370 H   0  0  0  0  0  0  0  0  0  0  0  0
    6.4103    2.7167    9.3793 H   0  0  0  0  0  0  0  0  0  0  0  0
    6.3304    4.4906    9.2566 H   0  0  0  0  0  0  0  0  0  0  0  0
    5.7478    1.3895    6.9266 H   0  0  0  0  0  0  0  0  0  0  0  0
   -2.8746   -3.8179    3.0469 H   0  0  0  0  0  0  0  0  0  0  0  0
   -3.1538   -2.6821    1.8407 H   0  0  0  0  0  0  0  0  0  0  0  0
  1  2  1  0  0  0  0
  1 28  1  0  0  0  0
  1 29  1  0  0  0  0
  1 30  1  0  0  0  0
  2  3  1  0  0  0  0
  2 31  1  0  0  0  0
  2 32  1  0  0  0  0
  3 12  2  0  0  0  0
  3  4  1  0  0  0  0
  4  9  2  0  0  0  0
  4  5  1  0  0  0  0
  5  6  2  0  0  0  0
  5 33  1  0  0  0  0
  6  7  1  0  0  0  0
  6 27  1  0  0  0  0
  7  8  2  0  0  0  0
  7 34  1  0  0  0  0
  8  9  1  0  0  0  0
  8 35  1  0  0  0  0
  9 10  1  0  0  0  0
 10 11  2  0  0  0  0
 11 15  1  0  0  0  0
 11 12  1  0  0  0  0
 12 13  1  0  0  0  0
 13 14  1  0  0  0  0
 13 36  1  0  0  0  0
 13 37  1  0  0  0  0
 14 19  1  0  0  0  0
 14 15  1  0  0  0  0
 15 16  2  0  0  0  0
 16 17  1  0  0  0  0
 16 38  1  0  0  0  0
 17 18  2  0  0  0  0
 17 22  1  0  0  0  0
 18 19  1  0  0  0  0
 18 21  1  0  0  0  0
 19 20  2  0  0  0  0
 21 39  1  0  0  0  0
 21 40  1  0  0  0  0
 21 41  1  0  0  0  0
 22 23  1  0  0  0  0
 22 24  1  0  0  0  0
 22 26  1  0  0  0  0
 24 25  1  0  0  0  0
 24 42  1  0  0  0  0
 24 43  1  0  0  0  0
 25 44  1  0  0  0  0
 25 45  1  0  0  0  0
 25 46  1  0  0  0  0
 26 47  1  0  0  0  0
 27 48  1  0  0  0  0
 27 49  1  0  0  0  0
M  END
$$$$
ZINC03817839
  -OEChem-08230709453D

 45 48  0     0  0  0  0  0  0999 V2000
   -6.1112    4.0805    0.0781 C   0  0  0  0  0  0  0  0  0  0  0  0
   -4.6998    4.6084    0.0684 C   0  0  0  0  0  0  0  0  0  0  0  0
   -4.4692    5.9581    0.0733 C   0  0  0  0  0  0  0  0  0  0  0  0
   -2.6810    5.9862    0.0578 S   0  0  0  0  0  0  0  0  0  0  0  0
   -2.4344    4.2155    0.0466 C   0  0  0  0  0  0  0  0  0  0  0  0
   -3.6850    3.7779    0.0502 N   0  0  0  0  0  0  0  0  0  0  0  0
   -1.1742    3.4464    0.0309 C   0  0  0  0  0  0  0  0  0  0  0  0
    0.0566    4.1251    0.0227 C   0  0  0  0  0  0  0  0  0  0  0  0
    1.2298    3.4375    0.0083 C   0  0  0  0  0  0  0  0  0  0  0  0
    1.2174    2.0363    0.0014 C   0  0  0  0  0  0  0  0  0  0  0  0
   -0.0161    1.3381    0.0094 C   0  0  0  0  0  0  0  0  0  0  0  0
   -1.2144    2.0591    0.0305 C   0  0  0  0  0  0  0  0  0  0  0  0
    0.0021   -0.0041    0.0020 N   0  0  0  0  0  0  0  0  0  0  0  0
    1.1418   -0.6537   -0.0123 C   0  0  0  0  0  0  0  0  0  0  0  0
    2.3167   -0.0450   -0.0202 N   0  0  0  0  0  0  0  0  0  0  0  0
    2.4124    1.2784   -0.0140 C   0  0  0  0  0  0  0  0  0  0  0  0
    3.6439    1.8989   -0.0224 N   0  0  0  0  0  0  0  0  0  0  0  0
   -5.3758    7.0159    0.0867 N   0  0  0  0  0  0  0  0  0  0  0  0
   -4.8893    8.3977    0.0889 C   0  0  0  0  0  0  0  0  0  0  0  0
   -4.5882    8.8301    1.5253 C   0  0  0  0  0  0  0  0  0  0  0  0
   -4.0801   10.2733    1.5277 C   0  0  0  0  0  0  0  0  0  0  0  0
   -5.1493   11.1914    0.9322 C   0  0  0  0  0  0  0  0  0  0  0  0
   -5.4504   10.7590   -0.5042 C   0  0  0  0  0  0  0  0  0  0  0  0
   -5.9585    9.3159   -0.5066 C   0  0  0  0  0  0  0  0  0  0  0  0
   -6.4606    3.9585   -0.9472 H   0  0  0  0  0  0  0  0  0  0  0  0
   -6.1353    3.1170    0.5873 H   0  0  0  0  0  0  0  0  0  0  0  0
   -6.7588    4.7842    0.6012 H   0  0  0  0  0  0  0  0  0  0  0  0
    0.0707    5.2050    0.0276 H   0  0  0  0  0  0  0  0  0  0  0  0
    2.1692    3.9704    0.0025 H   0  0  0  0  0  0  0  0  0  0  0  0
   -2.1620    1.5412    0.0414 H   0  0  0  0  0  0  0  0  0  0  0  0
    1.1202   -1.7334   -0.0183 H   0  0  0  0  0  0  0  0  0  0  0  0
    4.4550    1.3669   -0.0330 H   0  0  0  0  0  0  0  0  0  0  0  0
    3.6991    2.8673   -0.0178 H   0  0  0  0  0  0  0  0  0  0  0  0
   -6.3292    6.8374    0.0945 H   0  0  0  0  0  0  0  0  0  0  0  0
   -3.9800    8.4637   -0.5085 H   0  0  0  0  0  0  0  0  0  0  0  0
   -5.4975    8.7641    2.1228 H   0  0  0  0  0  0  0  0  0  0  0  0
   -3.8265    8.1760    1.9496 H   0  0  0  0  0  0  0  0  0  0  0  0
   -3.1708   10.3392    0.9303 H   0  0  0  0  0  0  0  0  0  0  0  0
   -3.8656   10.5813    2.5510 H   0  0  0  0  0  0  0  0  0  0  0  0
   -4.7873   12.2195    0.9339 H   0  0  0  0  0  0  0  0  0  0  0  0
   -6.0586   11.1254    1.5296 H   0  0  0  0  0  0  0  0  0  0  0  0
   -4.5411   10.8250   -1.1017 H   0  0  0  0  0  0  0  0  0  0  0  0
   -6.2121   11.4132   -0.9285 H   0  0  0  0  0  0  0  0  0  0  0  0
   -6.1730    9.0079   -1.5299 H   0  0  0  0  0  0  0  0  0  0  0  0
   -6.8678    9.2499    0.0908 H   0  0  0  0  0  0  0  0  0  0  0  0
  1  2  1  0  0  0  0
  1 25  1  0  0  0  0
  1 26  1  0  0  0  0
  1 27  1  0  0  0  0
  2  6  1  0  0  0  0
  2  3  2  0  0  0  0
  3  4  1  0  0  0  0
  3 18  1  0  0  0  0
  4  5  1  0  0  0  0
  5  6  2  0  0  0  0
  5  7  1  0  0  0  0
  7 12  2  0  0  0  0
  7  8  1  0  0  0  0
  8  9  2  0  0  0  0
  8 28  1  0  0  0  0
  9 10  1  0  0  0  0
  9 29  1  0  0  0  0
 10 16  2  0  0  0  0
 10 11  1  0  0  0  0
 11 12  1  0  0  0  0
 11 13  2  0  0  0  0
 12 30  1  0  0  0  0
 13 14  1  0  0  0  0
 14 15  2  0  0  0  0
 14 31  1  0  0  0  0
 15 16  1  0  0  0  0
 16 17  1  0  0  0  0
 17 32  1  0  0  0  0
 17 33  1  0  0  0  0
 18 19  1  0  0  0  0
 18 34  1  0  0  0  0
 19 24  1  0  0  0  0
 19 20  1  0  0  0  0
 19 35  1  0  0  0  0
 20 21  1  0  0  0  0
 20 36  1  0  0  0  0
 20 37  1  0  0  0  0
 21 22  1  0  0  0  0
 21 38  1  0  0  0  0
 21 39  1  0  0  0  0
 22 23  1  0  0  0  0
 22 40  1  0  0  0  0
 22 41  1  0  0  0  0
 23 24  1  0  0  0  0
 23 42  1  0  0  0  0
 23 43  1  0  0  0  0
 24 44  1  0  0  0  0
 24 45  1  0  0  0  0
M  END
$$$$
ZINC03817845
  -OEChem-08230709453D

 46 49  0     1  0  0  0  0  0999 V2000
   -0.6700    5.9993    1.4900 C   0  0  0  0  0  0  0  0  0  0  0  0
   -0.0870    5.0624    2.4537 N   0  0  0  0  0  0  0  0  0  0  0  0
    0.5563    5.5181    3.5583 C   0  0  0  0  0  0  0  0  0  0  0  0
    1.0881    4.6419    4.4358 C   0  0  0  0  0  0  0  0  0  0  0  0
    0.6694    3.0721    3.6944 S   0  0  0  0  0  0  0  0  0  0  0  0
   -0.1813    3.7012    2.2552 C   0  0  0  0  0  0  0  0  0  0  0  0
   -0.7487    3.0441    1.2749 N   0  0  0  0  0  0  0  0  0  0  0  0
   -0.7288    1.5792    1.2668 C   0  0  2  0  0  0  0  0  0  0  0  0
   -0.2017    1.2182    2.1499 H   0  0  0  0  0  0  0  0  0  0  0  0
   -0.0127    1.0858    0.0080 C   0  0  0  0  0  0  0  0  0  0  0  0
   -0.7527    1.5927   -1.2315 C   0  0  0  0  0  0  0  0  0  0  0  0
   -2.1881    1.0631   -1.2207 C   0  0  0  0  0  0  0  0  0  0  0  0
   -2.9042    1.5565    0.0381 C   0  0  2  0  0  0  0  0  0  0  0  0
   -2.9190    2.6464    0.0441 H   0  0  0  0  0  0  0  0  0  0  0  0
   -2.1642    1.0497    1.2777 C   0  0  0  0  0  0  0  0  0  0  0  0
   -4.2449    1.0619    0.0483 O   0  0  0  0  0  0  0  0  0  0  0  0
    1.8223    4.9116    5.6894 C   0  0  0  0  0  0  0  0  0  0  0  0
    2.0406    6.2384    6.0973 C   0  0  0  0  0  0  0  0  0  0  0  0
    2.7137    6.5105    7.2472 C   0  0  0  0  0  0  0  0  0  0  0  0
    3.1972    5.4595    8.0380 C   0  0  0  0  0  0  0  0  0  0  0  0
    2.9844    4.1160    7.6388 C   0  0  0  0  0  0  0  0  0  0  0  0
    2.2855    3.8525    6.4567 C   0  0  0  0  0  0  0  0  0  0  0  0
    3.4591    3.1294    8.4156 N   0  0  0  0  0  0  0  0  0  0  0  0
    4.1071    3.4074    9.5221 C   0  0  0  0  0  0  0  0  0  0  0  0
    4.3292    4.6450    9.9340 N   0  0  0  0  0  0  0  0  0  0  0  0
    3.9031    5.6937    9.2415 C   0  0  0  0  0  0  0  0  0  0  0  0
    4.1421    6.9780    9.6833 N   0  0  0  0  0  0  0  0  0  0  0  0
   -1.7000    6.2169    1.7723 H   0  0  0  0  0  0  0  0  0  0  0  0
   -0.0915    6.9231    1.4857 H   0  0  0  0  0  0  0  0  0  0  0  0
   -0.6522    5.5549    0.4949 H   0  0  0  0  0  0  0  0  0  0  0  0
    0.6422    6.5801    3.7348 H   0  0  0  0  0  0  0  0  0  0  0  0
    0.0021   -0.0041    0.0020 H   0  0  0  0  0  0  0  0  0  0  0  0
    1.0099    1.4631    0.0003 H   0  0  0  0  0  0  0  0  0  0  0  0
   -0.7675    2.6825   -1.2255 H   0  0  0  0  0  0  0  0  0  0  0  0
   -0.2425    1.2411   -2.1283 H   0  0  0  0  0  0  0  0  0  0  0  0
   -2.7153    1.4241   -2.1037 H   0  0  0  0  0  0  0  0  0  0  0  0
   -2.1733   -0.0268   -1.2266 H   0  0  0  0  0  0  0  0  0  0  0  0
   -2.6744    1.4012    2.1745 H   0  0  0  0  0  0  0  0  0  0  0  0
   -2.1494   -0.0402    1.2717 H   0  0  0  0  0  0  0  0  0  0  0  0
   -4.7740    1.3442   -0.7102 H   0  0  0  0  0  0  0  0  0  0  0  0
    1.6693    7.0513    5.4909 H   0  0  0  0  0  0  0  0  0  0  0  0
    2.8749    7.5344    7.5505 H   0  0  0  0  0  0  0  0  0  0  0  0
    2.1114    2.8342    6.1419 H   0  0  0  0  0  0  0  0  0  0  0  0
    4.4759    2.5895   10.1233 H   0  0  0  0  0  0  0  0  0  0  0  0
    3.8248    7.7354    9.1670 H   0  0  0  0  0  0  0  0  0  0  0  0
    4.6274    7.1240   10.5104 H   0  0  0  0  0  0  0  0  0  0  0  0
  1  2  1  0  0  0  0
  1 28  1  0  0  0  0
  1 29  1  0  0  0  0
  1 30  1  0  0  0  0
  2  6  1  0  0  0  0
  2  3  1  0  0  0  0
  3  4  2  0  0  0  0
  3 31  1  0  0  0  0
  4  5  1  0  0  0  0
  4 17  1  0  0  0  0
  5  6  1  0  0  0  0
  6  7  2  0  0  0  0
  7  8  1  0  0  0  0
  8  9  1  0  0  0  0
  8 15  1  0  0  0  0
  8 10  1  0  0  0  0
 10 11  1  0  0  0  0
 10 32  1  0  0  0  0
 10 33  1  0  0  0  0
 11 12  1  0  0  0  0
 11 34  1  0  0  0  0
 11 35  1  0  0  0  0
 12 13  1  0  0  0  0
 12 36  1  0  0  0  0
 12 37  1  0  0  0  0
 13 14  1  0  0  0  0
 13 15  1  0  0  0  0
 13 16  1  0  0  0  0
 15 38  1  0  0  0  0
 15 39  1  0  0  0  0
 16 40  1  0  0  0  0
 17 22  2  0  0  0  0
 17 18  1  0  0  0  0
 18 19  2  0  0  0  0
 18 41  1  0  0  0  0
 19 20  1  0  0  0  0
 19 42  1  0  0  0  0
 20 26  2  0  0  0  0
 20 21  1  0  0  0  0
 21 22  1  0  0  0  0
 21 23  2  0  0  0  0
 22 43  1  0  0  0  0
 23 24  1  0  0  0  0
 24 25  2  0  0  0  0
 24 44  1  0  0  0  0
 25 26  1  0  0  0  0
 26 27  1  0  0  0  0
 27 45  1  0  0  0  0
 27 46  1  0  0  0  0
M  END
$$$$
ZINC03817995
  -OEChem-08230709453D

 46 49  0     0  0  0  0  0  0999 V2000
   -6.7755    0.0775    0.2597 C   0  0  0  0  0  0  0  0  0  0  0  0
   -5.2683   -0.0780    0.4719 C   0  0  0  0  0  0  0  0  0  0  0  0
   -4.5245    0.9634   -0.3688 C   0  0  0  0  0  0  0  0  0  0  0  0
   -3.0441    0.9811    0.0316 C   0  0  0  0  0  0  0  0  0  0  0  0
   -2.5318   -0.4375    0.0291 C   0  0  0  0  0  0  0  0  0  0  0  0
   -3.3267   -1.5342    0.0261 C   0  0  0  0  0  0  0  0  0  0  0  0
   -2.5361   -2.6226    0.0118 N   0  0  0  0  0  0  0  0  0  0  0  0
   -2.8460   -3.5734    0.0091 H   0  0  0  0  0  0  0  0  0  0  0  0
   -1.2014   -2.1914    0.0013 N   0  0  0  0  0  0  0  0  0  0  0  0
   -1.1960   -0.8711    0.0083 C   0  0  0  0  0  0  0  0  0  0  0  0
    0.0021   -0.0041    0.0020 C   0  0  0  0  0  0  0  0  0  0  0  0
    1.2972   -0.4499   -0.0127 N   0  0  0  0  0  0  0  0  0  0  0  0
    1.5963   -1.4041   -0.0206 H   0  0  0  0  0  0  0  0  0  0  0  0
    2.1130    0.6650   -0.0145 C   0  0  0  0  0  0  0  0  0  0  0  0
    3.4881    0.8511   -0.0270 C   0  0  0  0  0  0  0  0  0  0  0  0
    4.0056    2.1341   -0.0255 C   0  0  0  0  0  0  0  0  0  0  0  0
    3.1544    3.2358   -0.0115 C   0  0  0  0  0  0  0  0  0  0  0  0
    1.7995    3.0678    0.0014 C   0  0  0  0  0  0  0  0  0  0  0  0
    1.2554    1.7791   -0.0004 C   0  0  0  0  0  0  0  0  0  0  0  0
   -0.0157    1.3059    0.0092 N   0  0  0  0  0  0  0  0  0  0  0  0
    5.3522    2.3201   -0.0373 O   0  0  0  0  0  0  0  0  0  0  0  0
    5.8207    3.6701   -0.0350 C   0  0  0  0  0  0  0  0  0  0  0  0
    7.3507    3.6790   -0.0494 C   0  0  0  0  0  0  0  0  0  0  0  0
    7.8187    3.1185   -1.2777 O   0  0  0  0  0  0  0  0  0  0  0  0
   -4.8345   -1.4854    0.0445 C   0  0  0  0  0  0  0  0  0  0  0  0
   -4.9374    0.1303    1.9511 C   0  0  0  0  0  0  0  0  0  0  0  0
   -7.3050   -0.6635    0.8586 H   0  0  0  0  0  0  0  0  0  0  0  0
   -7.0839    1.0778    0.5635 H   0  0  0  0  0  0  0  0  0  0  0  0
   -7.0113   -0.0711   -0.7940 H   0  0  0  0  0  0  0  0  0  0  0  0
   -4.6122    0.7078   -1.4247 H   0  0  0  0  0  0  0  0  0  0  0  0
   -4.9594    1.9478   -0.1959 H   0  0  0  0  0  0  0  0  0  0  0  0
   -2.4781    1.5802   -0.6816 H   0  0  0  0  0  0  0  0  0  0  0  0
   -2.9392    1.4037    1.0309 H   0  0  0  0  0  0  0  0  0  0  0  0
    4.1510   -0.0015   -0.0376 H   0  0  0  0  0  0  0  0  0  0  0  0
    3.5698    4.2328   -0.0104 H   0  0  0  0  0  0  0  0  0  0  0  0
    1.1483    3.9292    0.0125 H   0  0  0  0  0  0  0  0  0  0  0  0
    5.4461    4.1862   -0.9189 H   0  0  0  0  0  0  0  0  0  0  0  0
    5.4629    4.1773    0.8610 H   0  0  0  0  0  0  0  0  0  0  0  0
    7.7089    4.7044    0.0420 H   0  0  0  0  0  0  0  0  0  0  0  0
    7.7253    3.0875    0.7860 H   0  0  0  0  0  0  0  0  0  0  0  0
    8.7822    3.0922   -1.3561 H   0  0  0  0  0  0  0  0  0  0  0  0
   -5.2209   -1.7020   -0.9514 H   0  0  0  0  0  0  0  0  0  0  0  0
   -5.2168   -2.2188    0.7545 H   0  0  0  0  0  0  0  0  0  0  0  0
   -3.8637    0.0193    2.1024 H   0  0  0  0  0  0  0  0  0  0  0  0
   -5.2457    1.1307    2.2550 H   0  0  0  0  0  0  0  0  0  0  0  0
   -5.4672   -0.6107    2.5498 H   0  0  0  0  0  0  0  0  0  0  0  0
  1  2  1  0  0  0  0
  1 27  1  0  0  0  0
  1 28  1  0  0  0  0
  1 29  1  0  0  0  0
  2 25  1  0  0  0  0
  2  3  1  0  0  0  0
  2 26  1  0  0  0  0
  3  4  1  0  0  0  0
  3 30  1  0  0  0  0
  3 31  1  0  0  0  0
  4  5  1  0  0  0  0
  4 32  1  0  0  0  0
  4 33  1  0  0  0  0
  5 10  1  0  0  0  0
  5  6  2  0  0  0  0
  6  7  1  0  0  0  0
  6 25  1  0  0  0  0
  7  8  1  0  0  0  0
  7  9  1  0  0  0  0
  9 10  2  0  0  0  0
 10 11  1  0  0  0  0
 11 20  2  0  0  0  0
 11 12  1  0  0  0  0
 12 13  1  0  0  0  0
 12 14  1  0  0  0  0
 14 19  2  0  0  0  0
 14 15  1  0  0  0  0
 15 16  2  0  0  0  0
 15 34  1  0  0  0  0
 16 17  1  0  0  0  0
 16 21  1  0  0  0  0
 17 18  2  0  0  0  0
 17 35  1  0  0  0  0
 18 19  1  0  0  0  0
 18 36  1  0  0  0  0
 19 20  1  0  0  0  0
 21 22  1  0  0  0  0
 22 23  1  0  0  0  0
 22 37  1  0  0  0  0
 22 38  1  0  0  0  0
 23 24  1  0  0  0  0
 23 39  1  0  0  0  0
 23 40  1  0  0  0  0
 24 41  1  0  0  0  0
 25 42  1  0  0  0  0
 25 43  1  0  0  0  0
 26 44  1  0  0  0  0
 26 45  1  0  0  0  0
 26 46  1  0  0  0  0
M  END
$$$$
ZINC03817995
  -OEChem-08230709453D

 47 50  0     0  0  0  0  0  0999 V2000
   -6.7755    0.0775    0.2597 C   0  0  0  0  0  0  0  0  0  0  0  0
   -5.2683   -0.0780    0.4719 C   0  0  0  0  0  0  0  0  0  0  0  0
   -4.5245    0.9634   -0.3688 C   0  0  0  0  0  0  0  0  0  0  0  0
   -3.0441    0.9811    0.0316 C   0  0  0  0  0  0  0  0  0  0  0  0
   -2.5318   -0.4375    0.0291 C   0  0  0  0  0  0  0  0  0  0  0  0
   -3.3267   -1.5342    0.0261 C   0  0  0  0  0  0  0  0  0  0  0  0
   -2.5361   -2.6226    0.0118 N   0  0  0  0  0  0  0  0  0  0  0  0
   -2.8460   -3.5734    0.0091 H   0  0  0  0  0  0  0  0  0  0  0  0
   -1.2014   -2.1914    0.0013 N   0  0  0  0  0  0  0  0  0  0  0  0
   -1.1960   -0.8711    0.0083 C   0  0  0  0  0  0  0  0  0  0  0  0
    0.0021   -0.0041    0.0020 C   0  0  0  0  0  0  0  0  0  0  0  0
    1.2972   -0.4499   -0.0127 N   0  0  0  0  0  0  0  0  0  0  0  0
    1.5963   -1.4041   -0.0206 H   0  0  0  0  0  0  0  0  0  0  0  0
    2.1130    0.6650   -0.0145 C   0  0  0  0  0  0  0  0  0  0  0  0
    3.4881    0.8511   -0.0270 C   0  0  0  0  0  0  0  0  0  0  0  0
    4.0056    2.1341   -0.0255 C   0  0  0  0  0  0  0  0  0  0  0  0
    3.1544    3.2358   -0.0115 C   0  0  0  0  0  0  0  0  0  0  0  0
    1.7995    3.0678    0.0014 C   0  0  0  0  0  0  0  0  0  0  0  0
    1.2554    1.7791   -0.0004 C   0  0  0  0  0  0  0  0  0  0  0  0
    5.3522    2.3201   -0.0373 O   0  0  0  0  0  0  0  0  0  0  0  0
    5.8207    3.6701   -0.0350 C   0  0  0  0  0  0  0  0  0  0  0  0
    7.3507    3.6790   -0.0494 C   0  0  0  0  0  0  0  0  0  0  0  0
    7.8187    3.1185   -1.2777 O   0  0  0  0  0  0  0  0  0  0  0  0
   -4.8345   -1.4854    0.0445 C   0  0  0  0  0  0  0  0  0  0  0  0
   -4.9374    0.1303    1.9511 C   0  0  0  0  0  0  0  0  0  0  0  0
   -7.3050   -0.6635    0.8586 H   0  0  0  0  0  0  0  0  0  0  0  0
   -7.0839    1.0778    0.5635 H   0  0  0  0  0  0  0  0  0  0  0  0
   -7.0113   -0.0711   -0.7940 H   0  0  0  0  0  0  0  0  0  0  0  0
   -4.6122    0.7078   -1.4247 H   0  0  0  0  0  0  0  0  0  0  0  0
   -4.9594    1.9478   -0.1959 H   0  0  0  0  0  0  0  0  0  0  0  0
   -2.4781    1.5802   -0.6816 H   0  0  0  0  0  0  0  0  0  0  0  0
   -2.9392    1.4037    1.0309 H   0  0  0  0  0  0  0  0  0  0  0  0
    4.1510   -0.0015   -0.0376 H   0  0  0  0  0  0  0  0  0  0  0  0
    3.5698    4.2328   -0.0104 H   0  0  0  0  0  0  0  0  0  0  0  0
    1.1483    3.9292    0.0125 H   0  0  0  0  0  0  0  0  0  0  0  0
    5.4461    4.1862   -0.9189 H   0  0  0  0  0  0  0  0  0  0  0  0
    5.4629    4.1773    0.8610 H   0  0  0  0  0  0  0  0  0  0  0  0
    7.7089    4.7044    0.0420 H   0  0  0  0  0  0  0  0  0  0  0  0
    7.7253    3.0875    0.7860 H   0  0  0  0  0  0  0  0  0  0  0  0
    8.7822    3.0922   -1.3561 H   0  0  0  0  0  0  0  0  0  0  0  0
   -5.2209   -1.7020   -0.9514 H   0  0  0  0  0  0  0  0  0  0  0  0
   -5.2168   -2.2188    0.7545 H   0  0  0  0  0  0  0  0  0  0  0  0
   -3.8637    0.0193    2.1024 H   0  0  0  0  0  0  0  0  0  0  0  0
   -5.2457    1.1307    2.2550 H   0  0  0  0  0  0  0  0  0  0  0  0
   -5.4672   -0.6107    2.5498 H   0  0  0  0  0  0  0  0  0  0  0  0
   -0.0166    1.3065    0.0092 N   0  3  0  0  0  0  0  0  0  0  0  0
   -0.8637    1.8865    0.0204 H   0  0  0  0  0  0  0  0  0  0  0  0
  1  2  1  0  0  0  0
  1 26  1  0  0  0  0
  1 27  1  0  0  0  0
  1 28  1  0  0  0  0
  2 24  1  0  0  0  0
  2  3  1  0  0  0  0
  2 25  1  0  0  0  0
  3  4  1  0  0  0  0
  3 29  1  0  0  0  0
  3 30  1  0  0  0  0
  4  5  1  0  0  0  0
  4 31  1  0  0  0  0
  4 32  1  0  0  0  0
  5 10  1  0  0  0  0
  5  6  2  0  0  0  0
  6  7  1  0  0  0  0
  6 24  1  0  0  0  0
  7  8  1  0  0  0  0
  7  9  1  0  0  0  0
  9 10  2  0  0  0  0
 10 11  1  0  0  0  0
 11 12  1  0  0  0  0
 11 46  2  0  0  0  0
 12 13  1  0  0  0  0
 12 14  1  0  0  0  0
 14 19  2  0  0  0  0
 14 15  1  0  0  0  0
 15 16  2  0  0  0  0
 15 33  1  0  0  0  0
 16 17  1  0  0  0  0
 16 20  1  0  0  0  0
 17 18  2  0  0  0  0
 17 34  1  0  0  0  0
 18 19  1  0  0  0  0
 18 35  1  0  0  0  0
 19 46  1  0  0  0  0
 20 21  1  0  0  0  0
 21 22  1  0  0  0  0
 21 36  1  0  0  0  0
 21 37  1  0  0  0  0
 22 23  1  0  0  0  0
 22 38  1  0  0  0  0
 22 39  1  0  0  0  0
 23 40  1  0  0  0  0
 24 41  1  0  0  0  0
 24 42  1  0  0  0  0
 25 43  1  0  0  0  0
 25 44  1  0  0  0  0
 25 45  1  0  0  0  0
 46 47  1  0  0  0  0
M  CHG  1  46   1
M  END
$$$$
ZINC03819467
  -OEChem-08230709453D

 45 47  0     0  0  0  0  0  0999 V2000
   -4.9377   -2.3769    0.3156 C   0  0  0  0  0  0  0  0  0  0  0  0
   -3.4817   -2.0721   -0.0422 C   0  0  0  0  0  0  0  0  0  0  0  0
   -3.3157   -2.0904   -1.5631 C   0  0  0  0  0  0  0  0  0  0  0  0
   -2.5705   -3.1302    0.5831 C   0  0  0  0  0  0  0  0  0  0  0  0
   -3.1085   -0.7114    0.4874 C   0  0  0  0  0  0  0  0  0  0  0  0
   -1.8954   -0.0929    0.3658 C   0  0  0  0  0  0  0  0  0  0  0  0
   -1.9861    1.1107    0.9873 N   0  0  0  0  0  0  0  0  0  0  0  0
   -3.1887    1.2522    1.4666 C   0  0  0  0  0  0  0  0  0  0  0  0
   -3.9150    0.1411    1.1804 N   0  0  0  0  0  0  0  0  0  0  0  0
   -4.8689   -0.0221    1.4325 H   0  0  0  0  0  0  0  0  0  0  0  0
   -0.7089   -0.6343   -0.3084 C   0  0  0  0  0  0  0  0  0  0  0  0
    0.3981    0.1357   -0.4554 C   0  0  0  0  0  0  0  0  0  0  0  0
    1.6340   -0.4426   -0.9949 C   0  0  0  0  0  0  0  0  0  0  0  0
    1.6118   -1.5244   -1.5530 O   0  0  0  0  0  0  0  0  0  0  0  0
    2.7955    0.2327   -0.8679 N   0  0  0  0  0  0  0  0  0  0  0  0
    3.6184   -0.1393   -1.2220 H   0  0  0  0  0  0  0  0  0  0  0  0
    2.8035    1.4723   -0.2226 C   0  0  0  0  0  0  0  0  0  0  0  0
    3.9736    2.0306    0.1673 C   0  0  0  0  0  0  0  0  0  0  0  0
    5.2237    1.2617    0.0707 C   0  0  0  0  0  0  0  0  0  0  0  0
    6.4299    1.9130   -0.2093 C   0  0  0  0  0  0  0  0  0  0  0  0
    7.5982    1.1864   -0.2981 C   0  0  0  0  0  0  0  0  0  0  0  0
    7.5811   -0.1848   -0.1115 C   0  0  0  0  0  0  0  0  0  0  0  0
    6.3910   -0.8387    0.1663 C   0  0  0  0  0  0  0  0  0  0  0  0
    5.2134   -0.1233    0.2640 C   0  0  0  0  0  0  0  0  0  0  0  0
    6.3835   -2.1774    0.3474 F   0  0  0  0  0  0  0  0  0  0  0  0
    1.5305    2.1664    0.0294 C   0  0  0  0  0  0  0  0  0  0  0  0
    1.5244    3.3418    0.3448 O   0  0  0  0  0  0  0  0  0  0  0  0
    0.3696    1.4884   -0.0928 N   0  0  0  0  0  0  0  0  0  0  0  0
   -0.4768    1.9350    0.0653 H   0  0  0  0  0  0  0  0  0  0  0  0
   -5.5868   -1.6231   -0.1298 H   0  0  0  0  0  0  0  0  0  0  0  0
   -5.2076   -3.3610   -0.0674 H   0  0  0  0  0  0  0  0  0  0  0  0
   -5.0559   -2.3638    1.3991 H   0  0  0  0  0  0  0  0  0  0  0  0
   -2.2784   -1.8733   -1.8180 H   0  0  0  0  0  0  0  0  0  0  0  0
   -3.5856   -3.0746   -1.9461 H   0  0  0  0  0  0  0  0  0  0  0  0
   -3.9649   -1.3366   -2.0085 H   0  0  0  0  0  0  0  0  0  0  0  0
   -2.6888   -3.1171    1.6666 H   0  0  0  0  0  0  0  0  0  0  0  0
   -2.8404   -4.1143    0.2000 H   0  0  0  0  0  0  0  0  0  0  0  0
   -1.5333   -2.9130    0.3281 H   0  0  0  0  0  0  0  0  0  0  0  0
   -3.5493    2.1136    2.0091 H   0  0  0  0  0  0  0  0  0  0  0  0
   -0.7175   -1.6456   -0.6874 H   0  0  0  0  0  0  0  0  0  0  0  0
    3.9891    3.0407    0.5493 H   0  0  0  0  0  0  0  0  0  0  0  0
    6.4457    2.9829   -0.3560 H   0  0  0  0  0  0  0  0  0  0  0  0
    8.5295    1.6888   -0.5142 H   0  0  0  0  0  0  0  0  0  0  0  0
    8.4998   -0.7481   -0.1824 H   0  0  0  0  0  0  0  0  0  0  0  0
    4.2869   -0.6325    0.4845 H   0  0  0  0  0  0  0  0  0  0  0  0
  1  2  1  0  0  0  0
  1 30  1  0  0  0  0
  1 31  1  0  0  0  0
  1 32  1  0  0  0  0
  2  3  1  0  0  0  0
  2  4  1  0  0  0  0
  2  5  1  0  0  0  0
  3 33  1  0  0  0  0
  3 34  1  0  0  0  0
  3 35  1  0  0  0  0
  4 36  1  0  0  0  0
  4 37  1  0  0  0  0
  4 38  1  0  0  0  0
  5  9  1  0  0  0  0
  5  6  2  0  0  0  0
  6  7  1  0  0  0  0
  6 11  1  0  0  0  0
  7  8  2  0  0  0  0
  8  9  1  0  0  0  0
  8 39  1  0  0  0  0
  9 10  1  0  0  0  0
 11 12  2  0  0  0  0
 11 40  1  0  0  0  0
 12 28  1  0  0  0  0
 12 13  1  0  0  0  0
 13 14  2  0  0  0  0
 13 15  1  0  0  0  0
 15 16  1  0  0  0  0
 15 17  1  0  0  0  0
 17 18  2  0  0  0  0
 17 26  1  0  0  0  0
 18 19  1  0  0  0  0
 18 41  1  0  0  0  0
 19 24  2  0  0  0  0
 19 20  1  0  0  0  0
 20 21  2  0  0  0  0
 20 42  1  0  0  0  0
 21 22  1  0  0  0  0
 21 43  1  0  0  0  0
 22 23  2  0  0  0  0
 22 44  1  0  0  0  0
 23 24  1  0  0  0  0
 23 25  1  0  0  0  0
 24 45  1  0  0  0  0
 26 27  2  0  0  0  0
 26 28  1  0  0  0  0
 28 29  1  0  0  0  0
M  END
$$$$
ZINC03819467
  -OEChem-08230709453D

 46 48  0     0  0  0  0  0  0999 V2000
   -4.9377   -2.3769    0.3156 C   0  0  0  0  0  0  0  0  0  0  0  0
   -3.4817   -2.0721   -0.0422 C   0  0  0  0  0  0  0  0  0  0  0  0
   -3.3157   -2.0904   -1.5631 C   0  0  0  0  0  0  0  0  0  0  0  0
   -2.5705   -3.1302    0.5831 C   0  0  0  0  0  0  0  0  0  0  0  0
   -3.1085   -0.7114    0.4874 C   0  0  0  0  0  0  0  0  0  0  0  0
   -1.8954   -0.0929    0.3658 C   0  0  0  0  0  0  0  0  0  0  0  0
   -3.1887    1.2522    1.4666 C   0  0  0  0  0  0  0  0  0  0  0  0
   -3.9150    0.1411    1.1804 N   0  0  0  0  0  0  0  0  0  0  0  0
   -4.8689   -0.0221    1.4325 H   0  0  0  0  0  0  0  0  0  0  0  0
   -0.7089   -0.6343   -0.3084 C   0  0  0  0  0  0  0  0  0  0  0  0
    0.3981    0.1357   -0.4554 C   0  0  0  0  0  0  0  0  0  0  0  0
    1.6340   -0.4426   -0.9949 C   0  0  0  0  0  0  0  0  0  0  0  0
    1.6118   -1.5244   -1.5530 O   0  0  0  0  0  0  0  0  0  0  0  0
    2.7955    0.2327   -0.8679 N   0  0  0  0  0  0  0  0  0  0  0  0
    3.6184   -0.1393   -1.2220 H   0  0  0  0  0  0  0  0  0  0  0  0
    2.8035    1.4723   -0.2226 C   0  0  0  0  0  0  0  0  0  0  0  0
    3.9736    2.0306    0.1673 C   0  0  0  0  0  0  0  0  0  0  0  0
    5.2237    1.2617    0.0707 C   0  0  0  0  0  0  0  0  0  0  0  0
    6.4299    1.9130   -0.2093 C   0  0  0  0  0  0  0  0  0  0  0  0
    7.5982    1.1864   -0.2981 C   0  0  0  0  0  0  0  0  0  0  0  0
    7.5811   -0.1848   -0.1115 C   0  0  0  0  0  0  0  0  0  0  0  0
    6.3910   -0.8387    0.1663 C   0  0  0  0  0  0  0  0  0  0  0  0
    5.2134   -0.1233    0.2640 C   0  0  0  0  0  0  0  0  0  0  0  0
    6.3835   -2.1774    0.3474 F   0  0  0  0  0  0  0  0  0  0  0  0
    1.5305    2.1664    0.0294 C   0  0  0  0  0  0  0  0  0  0  0  0
    1.5244    3.3418    0.3448 O   0  0  0  0  0  0  0  0  0  0  0  0
    0.3696    1.4884   -0.0928 N   0  0  0  0  0  0  0  0  0  0  0  0
   -0.4768    1.9350    0.0653 H   0  0  0  0  0  0  0  0  0  0  0  0
   -5.5868   -1.6231   -0.1298 H   0  0  0  0  0  0  0  0  0  0  0  0
   -5.2076   -3.3610   -0.0674 H   0  0  0  0  0  0  0  0  0  0  0  0
   -5.0559   -2.3638    1.3991 H   0  0  0  0  0  0  0  0  0  0  0  0
   -2.2784   -1.8733   -1.8180 H   0  0  0  0  0  0  0  0  0  0  0  0
   -3.5856   -3.0746   -1.9461 H   0  0  0  0  0  0  0  0  0  0  0  0
   -3.9649   -1.3366   -2.0085 H   0  0  0  0  0  0  0  0  0  0  0  0
   -2.6888   -3.1171    1.6666 H   0  0  0  0  0  0  0  0  0  0  0  0
   -2.8404   -4.1143    0.2000 H   0  0  0  0  0  0  0  0  0  0  0  0
   -1.5333   -2.9130    0.3281 H   0  0  0  0  0  0  0  0  0  0  0  0
   -3.5493    2.1136    2.0091 H   0  0  0  0  0  0  0  0  0  0  0  0
   -0.7175   -1.6456   -0.6874 H   0  0  0  0  0  0  0  0  0  0  0  0
    3.9891    3.0407    0.5493 H   0  0  0  0  0  0  0  0  0  0  0  0
    6.4457    2.9829   -0.3560 H   0  0  0  0  0  0  0  0  0  0  0  0
    8.5295    1.6888   -0.5142 H   0  0  0  0  0  0  0  0  0  0  0  0
    8.4998   -0.7481   -0.1824 H   0  0  0  0  0  0  0  0  0  0  0  0
    4.2869   -0.6325    0.4845 H   0  0  0  0  0  0  0  0  0  0  0  0
   -1.9880    1.1089    0.9871 N   0  3  0  0  0  0  0  0  0  0  0  0
   -1.2301    1.7971    1.0665 H   0  0  0  0  0  0  0  0  0  0  0  0
  1  2  1  0  0  0  0
  1 29  1  0  0  0  0
  1 30  1  0  0  0  0
  1 31  1  0  0  0  0
  2  3  1  0  0  0  0
  2  4  1  0  0  0  0
  2  5  1  0  0  0  0
  3 32  1  0  0  0  0
  3 33  1  0  0  0  0
  3 34  1  0  0  0  0
  4 35  1  0  0  0  0
  4 36  1  0  0  0  0
  4 37  1  0  0  0  0
  5  8  1  0  0  0  0
  5  6  2  0  0  0  0
  6 10  1  0  0  0  0
  6 45  1  0  0  0  0
  7  8  1  0  0  0  0
  7 38  1  0  0  0  0
  7 45  2  0  0  0  0
  8  9  1  0  0  0  0
 10 11  2  0  0  0  0
 10 39  1  0  0  0  0
 11 27  1  0  0  0  0
 11 12  1  0  0  0  0
 12 13  2  0  0  0  0
 12 14  1  0  0  0  0
 14 15  1  0  0  0  0
 14 16  1  0  0  0  0
 16 17  2  0  0  0  0
 16 25  1  0  0  0  0
 17 18  1  0  0  0  0
 17 40  1  0  0  0  0
 18 23  2  0  0  0  0
 18 19  1  0  0  0  0
 19 20  2  0  0  0  0
 19 41  1  0  0  0  0
 20 21  1  0  0  0  0
 20 42  1  0  0  0  0
 21 22  2  0  0  0  0
 21 43  1  0  0  0  0
 22 23  1  0  0  0  0
 22 24  1  0  0  0  0
 23 44  1  0  0  0  0
 25 26  2  0  0  0  0
 25 27  1  0  0  0  0
 27 28  1  0  0  0  0
 45 46  1  0  0  0  0
M  CHG  1  45   1
M  END
$$$$
ZINC03819621
  -OEChem-08230709453D

 46 49  0     0  0  0  0  0  0999 V2000
    6.7587   -2.1594   -2.2423 C   0  0  0  0  0  0  0  0  0  0  0  0
    6.9230   -0.9798   -1.4526 O   0  0  0  0  0  0  0  0  0  0  0  0
    7.4800   -1.1334   -0.2232 C   0  0  0  0  0  0  0  0  0  0  0  0
    7.8652   -2.3906    0.2136 C   0  0  0  0  0  0  0  0  0  0  0  0
    8.4270   -2.5465    1.4667 C   0  0  0  0  0  0  0  0  0  0  0  0
    8.6134   -1.4500    2.2905 C   0  0  0  0  0  0  0  0  0  0  0  0
    8.2393   -0.1911    1.8677 C   0  0  0  0  0  0  0  0  0  0  0  0
    7.6714   -0.0217    0.6052 C   0  0  0  0  0  0  0  0  0  0  0  0
    7.2678    1.3253    0.1465 C   0  0  0  0  0  0  0  0  0  0  0  0
    6.0033    1.7412   -0.1174 C   0  0  0  0  0  0  0  0  0  0  0  0
    6.0647    3.0821   -0.5273 C   0  0  0  0  0  0  0  0  0  0  0  0
    7.3071    3.4643   -0.5108 N   0  0  0  0  0  0  0  0  0  0  0  0
    8.0983    2.3836   -0.0910 N   0  0  0  0  0  0  0  0  0  0  0  0
    7.6423    4.3740   -0.7558 H   0  0  0  0  0  0  0  0  0  0  0  0
    4.8346    3.8700   -0.9125 C   0  0  0  0  0  0  0  0  0  0  0  0
    3.6962    2.8685   -1.1534 C   0  0  0  0  0  0  0  0  0  0  0  0
    3.6002    1.9392   -0.0202 N   0  0  0  0  0  0  0  0  0  0  0  0
    4.7104    0.9707   -0.0157 C   0  0  0  0  0  0  0  0  0  0  0  0
    2.3752    1.2905   -0.0123 C   0  0  0  0  0  0  0  0  0  0  0  0
    1.1903    2.0212    0.0034 C   0  0  0  0  0  0  0  0  0  0  0  0
   -0.0160    1.3274    0.0113 C   0  0  0  0  0  0  0  0  0  0  0  0
    0.0020   -0.0036    0.0037 N   0  0  0  0  0  0  0  0  0  0  0  0
    1.1490   -0.6665   -0.0112 C   0  0  0  0  0  0  0  0  0  0  0  0
    2.3162   -0.0391   -0.0192 N   0  0  0  0  0  0  0  0  0  0  0  0
    1.1218   -2.4283   -0.0214 S   0  0  0  0  0  0  0  0  0  0  0  0
   -0.6652   -2.7152   -0.0059 C   0  0  0  0  0  0  0  0  0  0  0  0
   -1.2206    2.0134    0.0213 N   0  0  0  0  0  0  0  0  0  0  0  0
    6.3042   -1.8966   -3.1976 H   0  0  0  0  0  0  0  0  0  0  0  0
    7.7317   -2.6182   -2.4170 H   0  0  0  0  0  0  0  0  0  0  0  0
    6.1146   -2.8629   -1.7149 H   0  0  0  0  0  0  0  0  0  0  0  0
    7.7228   -3.2502   -0.4244 H   0  0  0  0  0  0  0  0  0  0  0  0
    8.7223   -3.5288    1.8046 H   0  0  0  0  0  0  0  0  0  0  0  0
    9.0531   -1.5805    3.2684 H   0  0  0  0  0  0  0  0  0  0  0  0
    8.3864    0.6620    2.5134 H   0  0  0  0  0  0  0  0  0  0  0  0
    5.0282    4.4356   -1.8238 H   0  0  0  0  0  0  0  0  0  0  0  0
    4.5635    4.5502   -0.1050 H   0  0  0  0  0  0  0  0  0  0  0  0
    3.8951    2.3071   -2.0662 H   0  0  0  0  0  0  0  0  0  0  0  0
    2.7553    3.4085   -1.2596 H   0  0  0  0  0  0  0  0  0  0  0  0
    4.6953    0.3975    0.9113 H   0  0  0  0  0  0  0  0  0  0  0  0
    4.6152    0.2972   -0.8674 H   0  0  0  0  0  0  0  0  0  0  0  0
    1.2070    3.1010    0.0089 H   0  0  0  0  0  0  0  0  0  0  0  0
   -0.8612   -3.7874   -0.0103 H   0  0  0  0  0  0  0  0  0  0  0  0
   -1.0968   -2.2706    0.8910 H   0  0  0  0  0  0  0  0  0  0  0  0
   -1.1139   -2.2601   -0.8889 H   0  0  0  0  0  0  0  0  0  0  0  0
   -2.0577    1.5234    0.0228 H   0  0  0  0  0  0  0  0  0  0  0  0
   -1.2262    2.9834    0.0268 H   0  0  0  0  0  0  0  0  0  0  0  0
  1  2  1  0  0  0  0
  1 28  1  0  0  0  0
  1 29  1  0  0  0  0
  1 30  1  0  0  0  0
  2  3  1  0  0  0  0
  3  8  2  0  0  0  0
  3  4  1  0  0  0  0
  4  5  2  0  0  0  0
  4 31  1  0  0  0  0
  5  6  1  0  0  0  0
  5 32  1  0  0  0  0
  6  7  2  0  0  0  0
  6 33  1  0  0  0  0
  7  8  1  0  0  0  0
  7 34  1  0  0  0  0
  8  9  1  0  0  0  0
  9 10  1  0  0  0  0
  9 13  2  0  0  0  0
 10 18  1  0  0  0  0
 10 11  2  0  0  0  0
 11 15  1  0  0  0  0
 11 12  1  0  0  0  0
 12 14  1  0  0  0  0
 12 13  1  0  0  0  0
 15 16  1  0  0  0  0
 15 35  1  0  0  0  0
 15 36  1  0  0  0  0
 16 17  1  0  0  0  0
 16 37  1  0  0  0  0
 16 38  1  0  0  0  0
 17 18  1  0  0  0  0
 17 19  1  0  0  0  0
 18 39  1  0  0  0  0
 18 40  1  0  0  0  0
 19 24  2  0  0  0  0
 19 20  1  0  0  0  0
 20 21  2  0  0  0  0
 20 41  1  0  0  0  0
 21 22  1  0  0  0  0
 21 27  1  0  0  0  0
 22 23  2  0  0  0  0
 23 24  1  0  0  0  0
 23 25  1  0  0  0  0
 25 26  1  0  0  0  0
 26 42  1  0  0  0  0
 26 43  1  0  0  0  0
 26 44  1  0  0  0  0
 27 45  1  0  0  0  0
 27 46  1  0  0  0  0
M  END
$$$$
ZINC03824971
  -OEChem-08230709453D

 43 45  0     0  0  0  0  0  0999 V2000
    4.0005    8.7257   -7.2915 C   0  0  0  0  0  0  0  0  0  0  0  0
    3.6156    8.7896   -5.8794 N   0  0  0  0  0  0  0  0  0  0  0  0
    2.9418    7.7271   -5.2989 C   0  0  0  0  0  0  0  0  0  0  0  0
    2.5768    7.8277   -3.8745 C   0  0  0  0  0  0  0  0  0  0  0  0
    2.9234    8.9948   -3.1923 C   0  0  0  0  0  0  0  0  0  0  0  0
    3.5894    9.9891   -3.8558 N   0  0  0  0  0  0  0  0  0  0  0  0
    3.9179    9.8783   -5.1517 C   0  0  0  0  0  0  0  0  0  0  0  0
    4.7511   11.1700   -5.9055 S   0  0  0  0  0  0  0  0  0  0  0  0
    3.9542   11.2086   -3.1305 C   0  0  0  0  0  0  0  0  0  0  0  0
    2.6056    9.1410   -1.8716 N   0  0  0  0  0  0  0  0  0  0  0  0
    1.2267    9.6220   -1.7121 C   0  0  0  0  0  0  0  0  0  0  0  0
    1.2233   10.8821   -0.8445 C   0  0  0  0  0  0  0  0  0  0  0  0
   -0.1912   11.3756   -0.6809 C   0  0  0  0  0  0  0  0  0  0  0  0
   -0.8000   12.3149   -1.4219 C   0  0  0  0  0  0  0  0  0  0  0  0
   -2.0819   12.4992   -0.9804 N   0  0  0  0  0  0  0  0  0  0  0  0
   -2.7171   13.1265   -1.3596 H   0  0  0  0  0  0  0  0  0  0  0  0
   -2.3359   11.6617    0.0827 C   0  0  0  0  0  0  0  0  0  0  0  0
   -1.1627   10.9210    0.3169 C   0  0  0  0  0  0  0  0  0  0  0  0
   -1.1268    9.9809    1.3481 C   0  0  0  0  0  0  0  0  0  0  0  0
   -2.2332    9.7845    2.1259 C   0  0  0  0  0  0  0  0  0  0  0  0
   -3.3930   10.5122    1.8986 C   0  0  0  0  0  0  0  0  0  0  0  0
   -3.4520   11.4412    0.8827 C   0  0  0  0  0  0  0  0  0  0  0  0
    1.8845    6.7633   -3.2124 C   0  0  0  0  0  0  0  0  0  0  0  0
    1.3352    5.9188   -2.6873 N   0  0  0  0  0  0  0  0  0  0  0  0
    4.9933    8.2844   -7.3779 H   0  0  0  0  0  0  0  0  0  0  0  0
    3.2820    8.1135   -7.8365 H   0  0  0  0  0  0  0  0  0  0  0  0
    4.0123    9.7319   -7.7107 H   0  0  0  0  0  0  0  0  0  0  0  0
    2.1708    5.8728   -5.6658 H   0  0  0  0  0  0  0  0  0  0  0  0
    4.9805   11.1252   -2.7728 H   0  0  0  0  0  0  0  0  0  0  0  0
    3.8705   12.0667   -3.7973 H   0  0  0  0  0  0  0  0  0  0  0  0
    3.2833   11.3410   -2.2818 H   0  0  0  0  0  0  0  0  0  0  0  0
    2.7483    8.2786   -1.3677 H   0  0  0  0  0  0  0  0  0  0  0  0
    0.6255    8.8493   -1.2330 H   0  0  0  0  0  0  0  0  0  0  0  0
    0.8073    9.8538   -2.6911 H   0  0  0  0  0  0  0  0  0  0  0  0
    1.8245   11.6548   -1.3237 H   0  0  0  0  0  0  0  0  0  0  0  0
    1.6427   10.6503    0.1345 H   0  0  0  0  0  0  0  0  0  0  0  0
   -0.3454   12.8460   -2.2451 H   0  0  0  0  0  0  0  0  0  0  0  0
   -0.2278    9.4110    1.5308 H   0  0  0  0  0  0  0  0  0  0  0  0
   -2.2050    9.0570    2.9236 H   0  0  0  0  0  0  0  0  0  0  0  0
   -4.2593   10.3455    2.5216 H   0  0  0  0  0  0  0  0  0  0  0  0
   -4.3605   11.9992    0.7110 H   0  0  0  0  0  0  0  0  0  0  0  0
    2.6658    6.6724   -6.0612 N   0  3  0  0  0  0  0  0  0  0  0  0
    2.9510    6.6631   -7.0475 H   0  0  0  0  0  0  0  0  0  0  0  0
  1  2  1  0  0  0  0
  1 25  1  0  0  0  0
  1 26  1  0  0  0  0
  1 27  1  0  0  0  0
  2  7  1  0  0  0  0
  2  3  1  0  0  0  0
  3  4  1  0  0  0  0
  3 42  2  0  0  0  0
  4  5  2  0  0  0  0
  4 23  1  0  0  0  0
  5  6  1  0  0  0  0
  5 10  1  0  0  0  0
  6  7  1  0  0  0  0
  6  9  1  0  0  0  0
  7  8  2  0  0  0  0
  9 29  1  0  0  0  0
  9 30  1  0  0  0  0
  9 31  1  0  0  0  0
 10 11  1  0  0  0  0
 10 32  1  0  0  0  0
 11 12  1  0  0  0  0
 11 33  1  0  0  0  0
 11 34  1  0  0  0  0
 12 13  1  0  0  0  0
 12 35  1  0  0  0  0
 12 36  1  0  0  0  0
 13 18  1  0  0  0  0
 13 14  2  0  0  0  0
 14 15  1  0  0  0  0
 14 37  1  0  0  0  0
 15 16  1  0  0  0  0
 15 17  1  0  0  0  0
 17 22  2  0  0  0  0
 17 18  1  0  0  0  0
 18 19  2  0  0  0  0
 19 20  1  0  0  0  0
 19 38  1  0  0  0  0
 20 21  2  0  0  0  0
 20 39  1  0  0  0  0
 21 22  1  0  0  0  0
 21 40  1  0  0  0  0
 22 41  1  0  0  0  0
 23 24  3  0  0  0  0
 28 42  1  0  0  0  0
 42 43  1  0  0  0  0
M  CHG  1  42   1
M  END
$$$$
ZINC03848307
  -OEChem-08230709453D

 41 42  0     0  0  0  0  0  0999 V2000
   -8.8425    0.0305   -0.4061 C   0  0  0  0  0  0  0  0  0  0  0  0
   -7.3910   -0.3354   -0.2324 C   0  0  0  0  0  0  0  0  0  0  0  0
   -7.0265   -1.6431    0.0293 C   0  0  0  0  0  0  0  0  0  0  0  0
   -5.6745   -1.9344    0.2052 C   0  0  0  0  0  0  0  0  0  0  0  0
   -4.7832   -0.9583    0.0844 N   0  0  0  0  0  0  0  0  0  0  0  0
   -5.1705    0.2806   -0.1833 C   0  0  0  0  0  0  0  0  0  0  0  0
   -6.4507    0.5921   -0.3287 N   0  0  0  0  0  0  0  0  0  0  0  0
   -3.9542    1.5444   -0.3500 S   0  0  0  0  0  0  0  0  0  0  0  0
   -2.4516    0.5723   -0.0787 C   0  0  0  0  0  0  0  0  0  0  0  0
   -1.2466    1.4718   -0.1774 C   0  0  0  0  0  0  0  0  0  0  0  0
   -1.3895    2.6538   -0.4087 O   0  0  0  0  0  0  0  0  0  0  0  0
   -0.0101    0.9628   -0.0089 N   0  0  0  0  0  0  0  0  0  0  0  0
    1.1007    1.8136    0.0055 C   0  0  0  0  0  0  0  0  0  0  0  0
    2.3188    1.3762   -0.4981 C   0  0  0  0  0  0  0  0  0  0  0  0
    3.4116    2.2207   -0.4880 C   0  0  0  0  0  0  0  0  0  0  0  0
    3.2970    3.4962    0.0336 C   0  0  0  0  0  0  0  0  0  0  0  0
    2.0872    3.9326    0.5415 C   0  0  0  0  0  0  0  0  0  0  0  0
    0.9888    3.0952    0.5287 C   0  0  0  0  0  0  0  0  0  0  0  0
   -5.2734   -3.2030    0.4629 O   0  0  0  0  0  0  0  0  0  0  0  0
   -8.0687   -2.7260    0.1398 C   0  0  0  0  0  0  0  0  0  0  0  0
   -8.5259   -2.8389    1.5714 C   0  0  0  0  0  0  0  0  0  0  0  0
   -8.0538   -2.1145    2.4152 O   0  0  0  0  0  0  0  0  0  0  0  0
   -9.4575   -3.7443    1.9089 O   0  0  0  0  0  0  0  0  0  0  0  0
   -9.8499   -3.7971    3.3058 C   0  0  0  0  0  0  0  0  0  0  0  0
   -9.2664    0.3042    0.5602 H   0  0  0  0  0  0  0  0  0  0  0  0
   -8.9251    0.8743   -1.0911 H   0  0  0  0  0  0  0  0  0  0  0  0
   -9.3860   -0.8222   -0.8128 H   0  0  0  0  0  0  0  0  0  0  0  0
   -2.3837   -0.2104   -0.8343 H   0  0  0  0  0  0  0  0  0  0  0  0
   -2.4863    0.1188    0.9120 H   0  0  0  0  0  0  0  0  0  0  0  0
    0.1102    0.0063    0.0982 H   0  0  0  0  0  0  0  0  0  0  0  0
    2.4101    0.3786   -0.9012 H   0  0  0  0  0  0  0  0  0  0  0  0
    4.3581    1.8828   -0.8839 H   0  0  0  0  0  0  0  0  0  0  0  0
    4.1544    4.1528    0.0448 H   0  0  0  0  0  0  0  0  0  0  0  0
    2.0007    4.9292    0.9481 H   0  0  0  0  0  0  0  0  0  0  0  0
    0.0441    3.4366    0.9254 H   0  0  0  0  0  0  0  0  0  0  0  0
   -6.0734   -3.8003    0.5205 H   0  0  0  0  0  0  0  0  0  0  0  0
   -8.9193   -2.4775   -0.4948 H   0  0  0  0  0  0  0  0  0  0  0  0
   -7.6411   -3.6758   -0.1811 H   0  0  0  0  0  0  0  0  0  0  0  0
   -8.9794   -4.0300    3.9191 H   0  0  0  0  0  0  0  0  0  0  0  0
  -10.2577   -2.8317    3.6054 H   0  0  0  0  0  0  0  0  0  0  0  0
  -10.6071   -4.5693    3.4416 H   0  0  0  0  0  0  0  0  0  0  0  0
  1  2  1  0  0  0  0
  1 25  1  0  0  0  0
  1 26  1  0  0  0  0
  1 27  1  0  0  0  0
  2  3  2  0  0  0  0
  2  7  1  0  0  0  0
  3 20  1  0  0  0  0
  3  4  1  0  0  0  0
  4  5  2  0  0  0  0
  4 19  1  0  0  0  0
  5  6  1  0  0  0  0
  6  8  1  0  0  0  0
  6  7  2  0  0  0  0
  8  9  1  0  0  0  0
  9 10  1  0  0  0  0
  9 28  1  0  0  0  0
  9 29  1  0  0  0  0
 10 11  2  0  0  0  0
 10 12  1  0  0  0  0
 12 13  1  0  0  0  0
 12 30  1  0  0  0  0
 13 18  2  0  0  0  0
 13 14  1  0  0  0  0
 14 15  2  0  0  0  0
 14 31  1  0  0  0  0
 15 16  1  0  0  0  0
 15 32  1  0  0  0  0
 16 17  2  0  0  0  0
 16 33  1  0  0  0  0
 17 18  1  0  0  0  0
 17 34  1  0  0  0  0
 18 35  1  0  0  0  0
 19 36  1  0  0  0  0
 20 21  1  0  0  0  0
 20 37  1  0  0  0  0
 20 38  1  0  0  0  0
 21 22  2  0  0  0  0
 21 23  1  0  0  0  0
 23 24  1  0  0  0  0
 24 39  1  0  0  0  0
 24 40  1  0  0  0  0
 24 41  1  0  0  0  0
M  END
$$$$
ZINC03848773
  -OEChem-08230709453D

 43 45  0     0  0  0  0  0  0999 V2000
   -2.2554    3.2128    2.3732 C   0  0  0  0  0  0  0  0  0  0  0  0
   -1.3093    2.8780    1.2184 C   0  0  0  0  0  0  0  0  0  0  0  0
   -1.2971    1.7970    0.0447 C   0  0  0  0  0  0  0  0  0  0  0  0
    0.0312    1.0832    0.1590 C   0  0  0  0  0  0  0  0  0  0  0  0
    0.0817   -0.1117    0.3261 O   0  0  0  0  0  0  0  0  0  0  0  0
    1.2970    1.9100    0.0579 C   0  0  0  0  0  0  0  0  0  0  0  0
    0.9016    3.3649    0.2107 C   0  0  0  0  0  0  0  0  0  0  0  0
    1.3289    4.2069   -0.5422 O   0  0  0  0  0  0  0  0  0  0  0  0
   -0.0437    3.7323    1.3324 C   0  0  0  0  0  0  0  0  0  0  0  0
    2.7222    0.8242   -0.1986 S   0  0  0  0  0  0  0  0  0  0  0  0
    4.0255    2.0078   -0.1264 C   0  0  0  0  0  0  0  0  0  0  0  0
    3.8942    3.3009    0.0658 N   0  0  0  0  0  0  0  0  0  0  0  0
    5.0478    3.8671    0.0621 N   0  0  0  0  0  0  0  0  0  0  0  0
    5.9867    2.9705   -0.1326 C   0  0  0  0  0  0  0  0  0  0  0  0
    5.3614    1.7511   -0.2540 N   0  0  0  0  0  0  0  0  0  0  0  0
    5.9954    0.4493   -0.4767 C   0  0  0  0  0  0  0  0  0  0  0  0
    7.4416    3.2226   -0.2017 C   0  0  0  0  0  0  0  0  0  0  0  0
    7.9703    4.4131    0.3005 C   0  0  0  0  0  0  0  0  0  0  0  0
    9.3282    4.6423    0.2385 C   0  0  0  0  0  0  0  0  0  0  0  0
   10.1686    3.6955   -0.3321 C   0  0  0  0  0  0  0  0  0  0  0  0
    9.6461    2.5124   -0.8376 C   0  0  0  0  0  0  0  0  0  0  0  0
    8.2899    2.2734   -0.7746 C   0  0  0  0  0  0  0  0  0  0  0  0
   11.5059    3.9277   -0.3965 O   0  0  0  0  0  0  0  0  0  0  0  0
   -2.0050    3.1731   -0.1119 C   0  0  0  0  0  0  0  0  0  0  0  0
   -2.5240    4.2683    2.3287 H   0  0  0  0  0  0  0  0  0  0  0  0
   -3.1566    2.6050    2.2926 H   0  0  0  0  0  0  0  0  0  0  0  0
   -1.7598    3.0037    3.3213 H   0  0  0  0  0  0  0  0  0  0  0  0
   -2.1048    1.0651    0.0362 H   0  0  0  0  0  0  0  0  0  0  0  0
   -1.4229    2.4710    0.8920 H   0  0  0  0  0  0  0  0  0  0  0  0
    1.0375   -0.4011    0.3771 H   0  0  0  0  0  0  0  0  0  0  0  0
    0.4382    3.5439    2.2917 H   0  0  0  0  0  0  0  0  0  0  0  0
   -0.3076    4.7870    1.2561 H   0  0  0  0  0  0  0  0  0  0  0  0
    6.1759    0.3107   -1.5427 H   0  0  0  0  0  0  0  0  0  0  0  0
    6.9431    0.4101    0.0604 H   0  0  0  0  0  0  0  0  0  0  0  0
    5.3390   -0.3415   -0.1136 H   0  0  0  0  0  0  0  0  0  0  0  0
    7.3167    5.1518    0.7405 H   0  0  0  0  0  0  0  0  0  0  0  0
    9.7385    5.5610    0.6308 H   0  0  0  0  0  0  0  0  0  0  0  0
   10.3031    1.7784   -1.2803 H   0  0  0  0  0  0  0  0  0  0  0  0
    7.8843    1.3531   -1.1683 H   0  0  0  0  0  0  0  0  0  0  0  0
   11.7884    4.3781   -1.2041 H   0  0  0  0  0  0  0  0  0  0  0  0
   -1.3309    2.9358   -0.9349 H   0  0  0  0  0  0  0  0  0  0  0  0
   -2.9061    2.5653   -0.1934 H   0  0  0  0  0  0  0  0  0  0  0  0
   -2.2736    4.2286   -0.1551 H   0  0  0  0  0  0  0  0  0  0  0  0
  1  2  1  0  0  0  0
  1 25  1  0  0  0  0
  1 26  1  0  0  0  0
  1 27  1  0  0  0  0
  2  9  1  0  0  0  0
  2  3  1  0  0  0  0
  2 24  1  0  0  0  0
  3  4  1  0  0  0  0
  3 28  1  0  0  0  0
  3 29  1  0  0  0  0
  4  6  2  0  0  0  0
  4  5  1  0  0  0  0
  5 30  1  0  0  0  0
  6 10  1  0  0  0  0
  6  7  1  0  0  0  0
  7  9  1  0  0  0  0
  7  8  2  0  0  0  0
  9 31  1  0  0  0  0
  9 32  1  0  0  0  0
 10 11  1  0  0  0  0
 11 15  1  0  0  0  0
 11 12  2  0  0  0  0
 12 13  1  0  0  0  0
 13 14  2  0  0  0  0
 14 15  1  0  0  0  0
 14 17  1  0  0  0  0
 15 16  1  0  0  0  0
 16 33  1  0  0  0  0
 16 34  1  0  0  0  0
 16 35  1  0  0  0  0
 17 22  2  0  0  0  0
 17 18  1  0  0  0  0
 18 19  2  0  0  0  0
 18 36  1  0  0  0  0
 19 20  1  0  0  0  0
 19 37  1  0  0  0  0
 20 21  2  0  0  0  0
 20 23  1  0  0  0  0
 21 22  1  0  0  0  0
 21 38  1  0  0  0  0
 22 39  1  0  0  0  0
 23 40  1  0  0  0  0
 24 41  1  0  0  0  0
 24 42  1  0  0  0  0
 24 43  1  0  0  0  0
M  END
$$$$
ZINC03848773
  -OEChem-08230709453D

 43 45  0     0  0  0  0  0  0999 V2000
   -2.2554    3.2128    2.3732 C   0  0  0  0  0  0  0  0  0  0  0  0
   -1.3093    2.8780    1.2184 C   0  0  0  0  0  0  0  0  0  0  0  0
   -1.2971    1.7970    0.0447 C   0  0  0  0  0  0  0  0  0  0  0  0
    0.0312    1.0832    0.1590 C   0  0  0  0  0  0  0  0  0  0  0  0
    0.0817   -0.1117    0.3261 O   0  0  0  0  0  0  0  0  0  0  0  0
    1.2970    1.9100    0.0579 C   0  0  0  0  0  0  0  0  0  0  0  0
    0.9016    3.3649    0.2107 C   0  0  0  0  0  0  0  0  0  0  0  0
    1.3289    4.2069   -0.5422 O   0  0  0  0  0  0  0  0  0  0  0  0
   -0.0437    3.7323    1.3324 C   0  0  0  0  0  0  0  0  0  0  0  0
    2.7222    0.8242   -0.1986 S   0  0  0  0  0  0  0  0  0  0  0  0
    4.0255    2.0078   -0.1264 C   0  0  0  0  0  0  0  0  0  0  0  0
    3.8942    3.3009    0.0658 N   0  0  0  0  0  0  0  0  0  0  0  0
    5.0478    3.8671    0.0621 N   0  0  0  0  0  0  0  0  0  0  0  0
    5.9867    2.9705   -0.1326 C   0  0  0  0  0  0  0  0  0  0  0  0
    5.3614    1.7511   -0.2540 N   0  0  0  0  0  0  0  0  0  0  0  0
    5.9954    0.4493   -0.4767 C   0  0  0  0  0  0  0  0  0  0  0  0
    7.4416    3.2226   -0.2017 C   0  0  0  0  0  0  0  0  0  0  0  0
    7.9703    4.4131    0.3005 C   0  0  0  0  0  0  0  0  0  0  0  0
    9.3282    4.6423    0.2385 C   0  0  0  0  0  0  0  0  0  0  0  0
   10.1686    3.6955   -0.3321 C   0  0  0  0  0  0  0  0  0  0  0  0
    9.6461    2.5124   -0.8376 C   0  0  0  0  0  0  0  0  0  0  0  0
    8.2899    2.2734   -0.7746 C   0  0  0  0  0  0  0  0  0  0  0  0
   11.5059    3.9277   -0.3965 O   0  0  0  0  0  0  0  0  0  0  0  0
   -2.0050    3.1731   -0.1119 C   0  0  0  0  0  0  0  0  0  0  0  0
   -2.5240    4.2683    2.3287 H   0  0  0  0  0  0  0  0  0  0  0  0
   -3.1566    2.6050    2.2926 H   0  0  0  0  0  0  0  0  0  0  0  0
   -1.7598    3.0037    3.3213 H   0  0  0  0  0  0  0  0  0  0  0  0
   -2.1048    1.0651    0.0362 H   0  0  0  0  0  0  0  0  0  0  0  0
   -1.4229    2.4710    0.8920 H   0  0  0  0  0  0  0  0  0  0  0  0
    0.9169    2.1760   -0.8280 H   0  0  0  0  0  0  0  0  0  0  0  0
    0.4382    3.5439    2.2917 H   0  0  0  0  0  0  0  0  0  0  0  0
   -0.3076    4.7870    1.2561 H   0  0  0  0  0  0  0  0  0  0  0  0
    6.1759    0.3107   -1.5427 H   0  0  0  0  0  0  0  0  0  0  0  0
    6.9431    0.4101    0.0604 H   0  0  0  0  0  0  0  0  0  0  0  0
    5.3390   -0.3415   -0.1136 H   0  0  0  0  0  0  0  0  0  0  0  0
    7.3167    5.1518    0.7405 H   0  0  0  0  0  0  0  0  0  0  0  0
    9.7385    5.5610    0.6308 H   0  0  0  0  0  0  0  0  0  0  0  0
   10.3031    1.7784   -1.2803 H   0  0  0  0  0  0  0  0  0  0  0  0
    7.8843    1.3531   -1.1683 H   0  0  0  0  0  0  0  0  0  0  0  0
   11.7884    4.3781   -1.2041 H   0  0  0  0  0  0  0  0  0  0  0  0
   -1.3309    2.9358   -0.9349 H   0  0  0  0  0  0  0  0  0  0  0  0
   -2.9061    2.5653   -0.1934 H   0  0  0  0  0  0  0  0  0  0  0  0
   -2.2736    4.2286   -0.1551 H   0  0  0  0  0  0  0  0  0  0  0  0
  1  2  1  0  0  0  0
  1 25  1  0  0  0  0
  1 26  1  0  0  0  0
  1 27  1  0  0  0  0
  2  9  1  0  0  0  0
  2  3  1  0  0  0  0
  2 24  1  0  0  0  0
  3  4  1  0  0  0  0
  3 28  1  0  0  0  0
  3 29  1  0  0  0  0
  4  6  1  0  0  0  0
  4  5  2  0  0  0  0
  6 30  1  0  0  0  0
  6 10  1  0  0  0  0
  6  7  1  0  0  0  0
  7  9  1  0  0  0  0
  7  8  2  0  0  0  0
  9 31  1  0  0  0  0
  9 32  1  0  0  0  0
 10 11  1  0  0  0  0
 11 15  1  0  0  0  0
 11 12  2  0  0  0  0
 12 13  1  0  0  0  0
 13 14  2  0  0  0  0
 14 15  1  0  0  0  0
 14 17  1  0  0  0  0
 15 16  1  0  0  0  0
 16 33  1  0  0  0  0
 16 34  1  0  0  0  0
 16 35  1  0  0  0  0
 17 22  2  0  0  0  0
 17 18  1  0  0  0  0
 18 19  2  0  0  0  0
 18 36  1  0  0  0  0
 19 20  1  0  0  0  0
 19 37  1  0  0  0  0
 20 21  2  0  0  0  0
 20 23  1  0  0  0  0
 21 22  1  0  0  0  0
 21 38  1  0  0  0  0
 22 39  1  0  0  0  0
 23 40  1  0  0  0  0
 24 41  1  0  0  0  0
 24 42  1  0  0  0  0
 24 43  1  0  0  0  0
M  END
$$$$
ZINC03848933
  -OEChem-08230709453D

 43 44  0     0  0  0  0  0  0999 V2000
   -1.6521    0.5492   -2.1677 C   0  0  0  0  0  0  0  0  0  0  0  0
   -0.2552    1.1610   -2.0448 C   0  0  0  0  0  0  0  0  0  0  0  0
   -0.1929    2.0275   -0.8133 C   0  0  0  0  0  0  0  0  0  0  0  0
   -0.4289    3.3849   -0.9103 C   0  0  0  0  0  0  0  0  0  0  0  0
   -0.3658    4.1815    0.2181 C   0  0  0  0  0  0  0  0  0  0  0  0
   -0.0721    3.6215    1.4479 C   0  0  0  0  0  0  0  0  0  0  0  0
    0.1597    2.2640    1.5526 C   0  0  0  0  0  0  0  0  0  0  0  0
    0.0970    1.4611    0.4211 C   0  0  0  0  0  0  0  0  0  0  0  0
    0.3313    0.0855    0.5237 N   0  0  0  0  0  0  0  0  0  0  0  0
    1.5702   -0.4042    0.3197 C   0  0  0  0  0  0  0  0  0  0  0  0
    2.4898    0.3511    0.0852 O   0  0  0  0  0  0  0  0  0  0  0  0
    1.8130   -1.8902    0.3828 C   0  0  0  0  0  0  0  0  0  0  0  0
    3.5629   -2.2296    0.0684 S   0  0  0  0  0  0  0  0  0  0  0  0
    3.5621   -3.9866    0.1990 C   0  0  0  0  0  0  0  0  0  0  0  0
    4.6935   -4.6491    0.0064 N   0  0  0  0  0  0  0  0  0  0  0  0
    4.7247   -5.9772    0.0763 C   0  0  0  0  0  0  0  0  0  0  0  0
    3.5479   -6.6688    0.3557 C   0  0  0  0  0  0  0  0  0  0  0  0
    2.3892   -5.9374    0.5841 C   0  0  0  0  0  0  0  0  0  0  0  0
    2.4298   -4.6120    0.4874 N   0  0  0  0  0  0  0  0  0  0  0  0
    1.2223   -6.5698    0.8592 O   0  0  0  0  0  0  0  0  0  0  0  0
    5.9115   -6.6636   -0.1261 N   0  0  0  0  0  0  0  0  0  0  0  0
    0.4806    1.6546    2.8929 C   0  0  0  0  0  0  0  0  0  0  0  0
    1.9983    1.5484    3.0546 C   0  0  0  0  0  0  0  0  0  0  0  0
   -1.6733   -0.1416   -3.0106 H   0  0  0  0  0  0  0  0  0  0  0  0
   -1.8953    0.0116   -1.2511 H   0  0  0  0  0  0  0  0  0  0  0  0
   -2.3830    1.3416   -2.3288 H   0  0  0  0  0  0  0  0  0  0  0  0
   -0.0450    1.7668   -2.9263 H   0  0  0  0  0  0  0  0  0  0  0  0
    0.4847    0.3645   -1.9664 H   0  0  0  0  0  0  0  0  0  0  0  0
   -0.6585    3.8253   -1.8694 H   0  0  0  0  0  0  0  0  0  0  0  0
   -0.5459    5.2435    0.1388 H   0  0  0  0  0  0  0  0  0  0  0  0
   -0.0236    4.2464    2.3275 H   0  0  0  0  0  0  0  0  0  0  0  0
   -0.3980   -0.5157    0.7417 H   0  0  0  0  0  0  0  0  0  0  0  0
    1.5430   -2.2607    1.3717 H   0  0  0  0  0  0  0  0  0  0  0  0
    1.2049   -2.3901   -0.3711 H   0  0  0  0  0  0  0  0  0  0  0  0
    3.5405   -7.7473    0.4101 H   0  0  0  0  0  0  0  0  0  0  0  0
    1.3784   -7.5569    0.8941 H   0  0  0  0  0  0  0  0  0  0  0  0
    6.7271   -6.1755   -0.3198 H   0  0  0  0  0  0  0  0  0  0  0  0
    5.9267   -7.6321   -0.0738 H   0  0  0  0  0  0  0  0  0  0  0  0
    0.0740    2.2838    3.6848 H   0  0  0  0  0  0  0  0  0  0  0  0
    0.0381    0.6605    2.9555 H   0  0  0  0  0  0  0  0  0  0  0  0
    2.3898    0.8234    2.3411 H   0  0  0  0  0  0  0  0  0  0  0  0
    2.4525    2.5219    2.8697 H   0  0  0  0  0  0  0  0  0  0  0  0
    2.2339    1.2243    4.0683 H   0  0  0  0  0  0  0  0  0  0  0  0
  1  2  1  0  0  0  0
  1 24  1  0  0  0  0
  1 25  1  0  0  0  0
  1 26  1  0  0  0  0
  2  3  1  0  0  0  0
  2 27  1  0  0  0  0
  2 28  1  0  0  0  0
  3  8  2  0  0  0  0
  3  4  1  0  0  0  0
  4  5  2  0  0  0  0
  4 29  1  0  0  0  0
  5  6  1  0  0  0  0
  5 30  1  0  0  0  0
  6  7  2  0  0  0  0
  6 31  1  0  0  0  0
  7  8  1  0  0  0  0
  7 22  1  0  0  0  0
  8  9  1  0  0  0  0
  9 10  1  0  0  0  0
  9 32  1  0  0  0  0
 10 11  2  0  0  0  0
 10 12  1  0  0  0  0
 12 13  1  0  0  0  0
 12 33  1  0  0  0  0
 12 34  1  0  0  0  0
 13 14  1  0  0  0  0
 14 15  2  0  0  0  0
 14 19  1  0  0  0  0
 15 16  1  0  0  0  0
 16 21  1  0  0  0  0
 16 17  2  0  0  0  0
 17 35  1  0  0  0  0
 17 18  1  0  0  0  0
 18 19  2  0  0  0  0
 18 20  1  0  0  0  0
 20 36  1  0  0  0  0
 21 37  1  0  0  0  0
 21 38  1  0  0  0  0
 22 23  1  0  0  0  0
 22 39  1  0  0  0  0
 22 40  1  0  0  0  0
 23 41  1  0  0  0  0
 23 42  1  0  0  0  0
 23 43  1  0  0  0  0
M  END
$$$$
ZINC03849380
  -OEChem-08230709453D

 45 47  0     1  0  0  0  0  0999 V2000
    6.3659   -1.0588   -0.8363 C   0  0  0  0  0  0  0  0  0  0  0  0
    5.5958   -1.6353    0.1571 C   0  0  0  0  0  0  0  0  0  0  0  0
    4.3158   -1.1744    0.3956 C   0  0  0  0  0  0  0  0  0  0  0  0
    3.8027   -0.1308   -0.3630 C   0  0  0  0  0  0  0  0  0  0  0  0
    4.5766    0.4428   -1.3630 C   0  0  0  0  0  0  0  0  0  0  0  0
    5.8576   -0.0194   -1.5935 C   0  0  0  0  0  0  0  0  0  0  0  0
    2.5045    0.3387   -0.1238 N   0  0  0  0  0  0  0  0  0  0  0  0
    1.4773   -0.1749   -0.8314 C   0  0  0  0  0  0  0  0  0  0  0  0
    1.6650   -1.0368   -1.6695 O   0  0  0  0  0  0  0  0  0  0  0  0
    0.1214    0.3359   -0.5616 C   0  0  2  0  0  0  0  0  0  0  0  0
   -0.9793   -0.1423   -1.2475 C   0  0  0  0  0  0  0  0  0  0  0  0
   -2.1856    0.4342   -1.0722 N   0  0  0  0  0  0  0  0  0  0  0  0
   -3.3742   -0.1492   -1.6991 C   0  0  1  0  0  0  0  0  0  0  0  0
   -3.1045   -0.5706   -2.6675 H   0  0  0  0  0  0  0  0  0  0  0  0
   -3.9347   -1.2534   -0.8006 C   0  0  0  0  0  0  0  0  0  0  0  0
   -4.3134   -0.6619    0.5587 C   0  0  0  0  0  0  0  0  0  0  0  0
   -5.3729    0.4247    0.3647 C   0  0  0  0  0  0  0  0  0  0  0  0
   -4.8124    1.5290   -0.5338 C   0  0  0  0  0  0  0  0  0  0  0  0
   -4.4337    0.9374   -1.8931 C   0  0  1  0  0  0  0  0  0  0  0  0
   -5.3181    0.5034   -2.3595 H   0  0  0  0  0  0  0  0  0  0  0  0
   -0.0094    1.3794    0.4713 C   0  0  0  0  0  0  0  0  0  0  0  0
   -1.0956    1.8537    0.7462 O   0  0  0  0  0  0  0  0  0  0  0  0
    1.1085    1.7983    1.0995 N   0  0  0  0  0  0  0  0  0  0  0  0
    2.3119    1.2881    0.8025 C   0  0  0  0  0  0  0  0  0  0  0  0
    3.6753    1.8803    1.6519 S   0  0  0  0  0  0  0  0  0  0  0  0
    7.3665   -1.4210   -1.0209 H   0  0  0  0  0  0  0  0  0  0  0  0
    5.9955   -2.4470    0.7468 H   0  0  0  0  0  0  0  0  0  0  0  0
    3.7149   -1.6250    1.1716 H   0  0  0  0  0  0  0  0  0  0  0  0
    4.1786    1.2517   -1.9577 H   0  0  0  0  0  0  0  0  0  0  0  0
    6.4616    0.4291   -2.3684 H   0  0  0  0  0  0  0  0  0  0  0  0
   -0.8732   -0.9776   -1.9238 H   0  0  0  0  0  0  0  0  0  0  0  0
   -0.3053   -0.2141    0.1563 H   0  0  0  0  0  0  0  0  0  0  0  0
   -4.8191   -1.6875   -1.2670 H   0  0  0  0  0  0  0  0  0  0  0  0
   -3.1799   -2.0276   -0.6624 H   0  0  0  0  0  0  0  0  0  0  0  0
   -3.4290   -0.2279    1.0251 H   0  0  0  0  0  0  0  0  0  0  0  0
   -4.7127   -1.4486    1.1988 H   0  0  0  0  0  0  0  0  0  0  0  0
   -5.6426    0.8462    1.3330 H   0  0  0  0  0  0  0  0  0  0  0  0
   -6.2573   -0.0093   -0.1018 H   0  0  0  0  0  0  0  0  0  0  0  0
   -3.9280    1.9630   -0.0674 H   0  0  0  0  0  0  0  0  0  0  0  0
   -5.5672    2.3031   -0.6720 H   0  0  0  0  0  0  0  0  0  0  0  0
   -4.5770    2.7278   -2.8992 H   0  0  0  0  0  0  0  0  0  0  0  0
   -3.0387    2.3721   -2.3768 H   0  0  0  0  0  0  0  0  0  0  0  0
    1.0399    2.4846    1.7815 H   0  0  0  0  0  0  0  0  0  0  0  0
   -3.8915    1.9844   -2.7770 N   0  3  0  0  0  0  0  0  0  0  0  0
   -3.6753    1.5741   -3.6930 H   0  0  0  0  0  0  0  0  0  0  0  0
  1  6  2  0  0  0  0
  1  2  1  0  0  0  0
  1 26  1  0  0  0  0
  2  3  2  0  0  0  0
  2 27  1  0  0  0  0
  3  4  1  0  0  0  0
  3 28  1  0  0  0  0
  4  5  2  0  0  0  0
  4  7  1  0  0  0  0
  5  6  1  0  0  0  0
  5 29  1  0  0  0  0
  6 30  1  0  0  0  0
  7 24  1  0  0  0  0
  7  8  1  0  0  0  0
  8  9  2  0  0  0  0
  8 10  1  0  0  0  0
 10 21  1  0  0  0  0
 10 32  1  0  0  0  0
 10 11  1  0  0  0  0
 11 31  1  0  0  0  0
 11 12  2  0  0  0  0
 12 13  1  0  0  0  0
 13 14  1  0  0  0  0
 13 19  1  0  0  0  0
 13 15  1  0  0  0  0
 15 16  1  0  0  0  0
 15 33  1  0  0  0  0
 15 34  1  0  0  0  0
 16 17  1  0  0  0  0
 16 35  1  0  0  0  0
 16 36  1  0  0  0  0
 17 18  1  0  0  0  0
 17 37  1  0  0  0  0
 17 38  1  0  0  0  0
 18 19  1  0  0  0  0
 18 39  1  0  0  0  0
 18 40  1  0  0  0  0
 19 20  1  0  0  0  0
 19 44  1  0  0  0  0
 21 22  2  0  0  0  0
 21 23  1  0  0  0  0
 23 24  1  0  0  0  0
 23 43  1  0  0  0  0
 24 25  2  0  0  0  0
 41 44  1  0  0  0  0
 42 44  1  0  0  0  0
 44 45  1  0  0  0  0
M  CHG  1  44   1
M  END
$$$$
ZINC03849380
  -OEChem-08230709453D

 46 48  0     1  0  0  0  0  0999 V2000
   -2.8464    3.0292   -0.2489 C   0  0  0  0  0  0  0  0  0  0  0  0
   -2.3975    3.7818    0.8208 C   0  0  0  0  0  0  0  0  0  0  0  0
   -1.0640    4.1305    0.9104 C   0  0  0  0  0  0  0  0  0  0  0  0
   -0.1751    3.7291   -0.0777 C   0  0  0  0  0  0  0  0  0  0  0  0
   -0.6298    2.9779   -1.1533 C   0  0  0  0  0  0  0  0  0  0  0  0
   -1.9645    2.6323   -1.2372 C   0  0  0  0  0  0  0  0  0  0  0  0
    1.1781    4.0817    0.0101 N   0  0  0  0  0  0  0  0  0  0  0  0
    1.5308    5.3777   -0.1150 C   0  0  0  0  0  0  0  0  0  0  0  0
    0.6915    6.2383   -0.3025 O   0  0  0  0  0  0  0  0  0  0  0  0
    2.9598    5.7235   -0.0136 C   0  0  2  0  0  0  0  0  0  0  0  0
    3.3956    7.0304   -0.1264 C   0  0  0  0  0  0  0  0  0  0  0  0
    2.8309    9.4507   -0.4167 C   0  0  1  0  0  0  0  0  0  0  0  0
    3.7862    9.6815    0.0547 H   0  0  0  0  0  0  0  0  0  0  0  0
    2.9292    9.7083   -1.9217 C   0  0  0  0  0  0  0  0  0  0  0  0
    1.5882    9.3842   -2.5832 C   0  0  0  0  0  0  0  0  0  0  0  0
    0.4959   10.2724   -1.9840 C   0  0  0  0  0  0  0  0  0  0  0  0
    0.3976   10.0147   -0.4790 C   0  0  0  0  0  0  0  0  0  0  0  0
    1.7387   10.3388    0.1826 C   0  0  1  0  0  0  0  0  0  0  0  0
    1.9859   11.3861    0.0086 H   0  0  0  0  0  0  0  0  0  0  0  0
    3.9047    4.6140    0.2080 C   0  0  0  0  0  0  0  0  0  0  0  0
    5.1005    4.8200    0.2977 O   0  0  0  0  0  0  0  0  0  0  0  0
    3.4078    3.3639    0.3083 N   0  0  0  0  0  0  0  0  0  0  0  0
    2.0928    3.1227    0.2110 C   0  0  0  0  0  0  0  0  0  0  0  0
    1.5530    1.5042    0.3513 S   0  0  0  0  0  0  0  0  0  0  0  0
   -3.8886    2.7540   -0.3144 H   0  0  0  0  0  0  0  0  0  0  0  0
   -3.0893    4.0936    1.5893 H   0  0  0  0  0  0  0  0  0  0  0  0
   -0.7132    4.7146    1.7484 H   0  0  0  0  0  0  0  0  0  0  0  0
    0.0594    2.6639   -1.9232 H   0  0  0  0  0  0  0  0  0  0  0  0
   -2.3188    2.0481   -2.0735 H   0  0  0  0  0  0  0  0  0  0  0  0
    4.4531    7.2452   -0.1700 H   0  0  0  0  0  0  0  0  0  0  0  0
    3.1904    5.9112    0.9412 H   0  0  0  0  0  0  0  0  0  0  0  0
    3.1764   10.7556   -2.0956 H   0  0  0  0  0  0  0  0  0  0  0  0
    3.7073    9.0755   -2.3485 H   0  0  0  0  0  0  0  0  0  0  0  0
    1.3409    8.3370   -2.4093 H   0  0  0  0  0  0  0  0  0  0  0  0
    1.6581    9.5678   -3.6553 H   0  0  0  0  0  0  0  0  0  0  0  0
   -0.4594   10.0415   -2.4552 H   0  0  0  0  0  0  0  0  0  0  0  0
    0.7432   11.3196   -2.1579 H   0  0  0  0  0  0  0  0  0  0  0  0
    0.1504    8.9675   -0.3050 H   0  0  0  0  0  0  0  0  0  0  0  0
   -0.3804   10.6475   -0.0521 H   0  0  0  0  0  0  0  0  0  0  0  0
    0.9292   10.6667    2.0468 H   0  0  0  0  0  0  0  0  0  0  0  0
    1.4796    9.1142    1.8171 H   0  0  0  0  0  0  0  0  0  0  0  0
    4.0160    2.6224    0.4538 H   0  0  0  0  0  0  0  0  0  0  0  0
    1.6675   10.0987    1.6346 N   0  3  0  0  0  0  0  0  0  0  0  0
    2.5650   10.3534    2.0632 H   0  0  0  0  0  0  0  0  0  0  0  0
    2.4301    8.0219   -0.1731 N   0  3  0  0  0  0  0  0  0  0  0  0
    1.4406    7.7816   -0.0413 H   0  0  0  0  0  0  0  0  0  0  0  0
  1  6  2  0  0  0  0
  1  2  1  0  0  0  0
  1 25  1  0  0  0  0
  2  3  2  0  0  0  0
  2 26  1  0  0  0  0
  3  4  1  0  0  0  0
  3 27  1  0  0  0  0
  4  5  2  0  0  0  0
  4  7  1  0  0  0  0
  5  6  1  0  0  0  0
  5 28  1  0  0  0  0
  6 29  1  0  0  0  0
  7 23  1  0  0  0  0
  7  8  1  0  0  0  0
  8  9  2  0  0  0  0
  8 10  1  0  0  0  0
 10 20  1  0  0  0  0
 10 31  1  0  0  0  0
 10 11  1  0  0  0  0
 11 30  1  0  0  0  0
 11 45  2  0  0  0  0
 12 13  1  0  0  0  0
 12 18  1  0  0  0  0
 12 14  1  0  0  0  0
 12 45  1  0  0  0  0
 14 15  1  0  0  0  0
 14 32  1  0  0  0  0
 14 33  1  0  0  0  0
 15 16  1  0  0  0  0
 15 34  1  0  0  0  0
 15 35  1  0  0  0  0
 16 17  1  0  0  0  0
 16 36  1  0  0  0  0
 16 37  1  0  0  0  0
 17 18  1  0  0  0  0
 17 38  1  0  0  0  0
 17 39  1  0  0  0  0
 18 19  1  0  0  0  0
 18 43  1  0  0  0  0
 20 21  2  0  0  0  0
 20 22  1  0  0  0  0
 22 23  1  0  0  0  0
 22 42  1  0  0  0  0
 23 24  2  0  0  0  0
 40 43  1  0  0  0  0
 41 43  1  0  0  0  0
 43 44  1  0  0  0  0
 45 46  1  0  0  0  0
M  CHG  2  43   1  45   1
M  END
$$$$
ZINC03849630
  -OEChem-08230709453D

 42 43  0     1  0  0  0  0  0999 V2000
    8.2855    7.1651    2.6463 C   0  0  0  0  0  0  0  0  0  0  0  0
    8.5205    6.4643    1.3066 C   0  0  0  0  0  0  0  0  0  0  0  0
    8.4886    7.4971    0.1783 C   0  0  1  0  0  0  0  0  0  0  0  0
    9.2058    8.2899    0.3910 H   0  0  0  0  0  0  0  0  0  0  0  0
    8.8545    6.8195   -1.1438 C   0  0  0  0  0  0  0  0  0  0  0  0
    7.1437    8.0693    0.0779 N   0  0  0  0  0  0  0  0  0  0  0  0
    6.0995    7.2564   -0.1839 C   0  0  0  0  0  0  0  0  0  0  0  0
    6.2618    6.0602   -0.3364 O   0  0  0  0  0  0  0  0  0  0  0  0
    4.7573    7.8571   -0.2850 C   0  0  0  0  0  0  0  0  0  0  0  0
    3.6412    7.0880   -0.5555 C   0  0  0  0  0  0  0  0  0  0  0  0
    3.7472    5.7454   -0.6199 N   0  0  0  0  0  0  0  0  0  0  0  0
    2.5998    4.9594   -0.7888 N   0  0  0  0  0  0  0  0  0  0  0  0
    2.7058    3.6173   -0.8531 C   0  0  0  0  0  0  0  0  0  0  0  0
    3.7968    3.0889   -0.7646 O   0  0  0  0  0  0  0  0  0  0  0  0
    1.4949    2.7879   -1.0314 C   0  0  0  0  0  0  0  0  0  0  0  0
    1.6012    1.3978   -1.0984 C   0  0  0  0  0  0  0  0  0  0  0  0
    0.4674    0.6297   -1.2652 C   0  0  0  0  0  0  0  0  0  0  0  0
   -0.7724    1.2347   -1.3714 C   0  0  0  0  0  0  0  0  0  0  0  0
   -0.8852    2.6119   -1.3004 C   0  0  0  0  0  0  0  0  0  0  0  0
    0.2406    3.3916   -1.1338 C   0  0  0  0  0  0  0  0  0  0  0  0
    4.6566    9.3132   -0.0788 C   0  0  0  0  0  0  0  0  0  0  0  0
    3.5820    9.8804   -0.1421 O   0  0  0  0  0  0  0  0  0  0  0  0
    5.7881   10.0000    0.1813 N   0  0  0  0  0  0  0  0  0  0  0  0
    6.9783    9.3878    0.2538 C   0  0  0  0  0  0  0  0  0  0  0  0
    8.3606   10.3404    0.5894 S   0  0  0  0  0  0  0  0  0  0  0  0
    7.3136    7.6585    2.6327 H   0  0  0  0  0  0  0  0  0  0  0  0
    8.3082    6.4293    3.4501 H   0  0  0  0  0  0  0  0  0  0  0  0
    9.0672    7.9068    2.8104 H   0  0  0  0  0  0  0  0  0  0  0  0
    7.7387    5.7226    1.1425 H   0  0  0  0  0  0  0  0  0  0  0  0
    9.4923    5.9709    1.3203 H   0  0  0  0  0  0  0  0  0  0  0  0
    8.1973    5.9657   -1.3086 H   0  0  0  0  0  0  0  0  0  0  0  0
    8.7377    7.5310   -1.9612 H   0  0  0  0  0  0  0  0  0  0  0  0
    9.8892    6.4791   -1.1034 H   0  0  0  0  0  0  0  0  0  0  0  0
    2.6843    7.5624   -0.7153 H   0  0  0  0  0  0  0  0  0  0  0  0
    4.6179    5.3236   -0.5493 H   0  0  0  0  0  0  0  0  0  0  0  0
    1.7292    5.3811   -0.8594 H   0  0  0  0  0  0  0  0  0  0  0  0
    2.5687    0.9246   -1.0194 H   0  0  0  0  0  0  0  0  0  0  0  0
    0.5483   -0.4460   -1.3176 H   0  0  0  0  0  0  0  0  0  0  0  0
   -1.6563    0.6291   -1.5064 H   0  0  0  0  0  0  0  0  0  0  0  0
   -1.8563    3.0778   -1.3798 H   0  0  0  0  0  0  0  0  0  0  0  0
    0.1517    4.4668   -1.0830 H   0  0  0  0  0  0  0  0  0  0  0  0
    5.7392   10.9588    0.3195 H   0  0  0  0  0  0  0  0  0  0  0  0
  1  2  1  0  0  0  0
  1 26  1  0  0  0  0
  1 27  1  0  0  0  0
  1 28  1  0  0  0  0
  2  3  1  0  0  0  0
  2 29  1  0  0  0  0
  2 30  1  0  0  0  0
  3  4  1  0  0  0  0
  3  5  1  0  0  0  0
  3  6  1  0  0  0  0
  5 31  1  0  0  0  0
  5 32  1  0  0  0  0
  5 33  1  0  0  0  0
  6 24  1  0  0  0  0
  6  7  1  0  0  0  0
  7  8  2  0  0  0  0
  7  9  1  0  0  0  0
  9 10  2  0  0  0  0
  9 21  1  0  0  0  0
 10 11  1  0  0  0  0
 10 34  1  0  0  0  0
 11 12  1  0  0  0  0
 11 35  1  0  0  0  0
 12 13  1  0  0  0  0
 12 36  1  0  0  0  0
 13 14  2  0  0  0  0
 13 15  1  0  0  0  0
 15 20  2  0  0  0  0
 15 16  1  0  0  0  0
 16 17  2  0  0  0  0
 16 37  1  0  0  0  0
 17 18  1  0  0  0  0
 17 38  1  0  0  0  0
 18 19  2  0  0  0  0
 18 39  1  0  0  0  0
 19 20  1  0  0  0  0
 19 40  1  0  0  0  0
 20 41  1  0  0  0  0
 21 22  2  0  0  0  0
 21 23  1  0  0  0  0
 23 24  1  0  0  0  0
 23 42  1  0  0  0  0
 24 25  2  0  0  0  0
M  END
$$$$
ZINC03849632
  -OEChem-08230709453D

 42 43  0     1  0  0  0  0  0999 V2000
    0.3073   -0.2888    0.0833 C   0  0  0  0  0  0  0  0  0  0  0  0
    0.3101    0.5245    1.3792 C   0  0  0  0  0  0  0  0  0  0  0  0
   -0.7567    1.6182    1.2973 C   0  0  2  0  0  0  0  0  0  0  0  0
   -0.5757    2.2372    0.4185 H   0  0  0  0  0  0  0  0  0  0  0  0
   -0.6938    2.4872    2.5549 C   0  0  0  0  0  0  0  0  0  0  0  0
   -2.0816    1.0013    1.1956 N   0  0  0  0  0  0  0  0  0  0  0  0
   -2.5066    0.1864    2.1830 C   0  0  0  0  0  0  0  0  0  0  0  0
   -1.8057   -0.0400    3.1514 O   0  0  0  0  0  0  0  0  0  0  0  0
   -3.8433   -0.4219    2.0573 C   0  0  0  0  0  0  0  0  0  0  0  0
   -4.3455   -1.2671    3.0287 C   0  0  0  0  0  0  0  0  0  0  0  0
   -3.5639   -1.6504    4.0585 N   0  0  0  0  0  0  0  0  0  0  0  0
   -4.0376   -2.5868    4.9867 N   0  0  0  0  0  0  0  0  0  0  0  0
   -3.2564   -2.9699    6.0160 C   0  0  0  0  0  0  0  0  0  0  0  0
   -2.1409   -2.5029    6.1390 O   0  0  0  0  0  0  0  0  0  0  0  0
   -3.7562   -3.9581    6.9955 C   0  0  0  0  0  0  0  0  0  0  0  0
   -5.0387   -4.4919    6.8604 C   0  0  0  0  0  0  0  0  0  0  0  0
   -5.4969   -5.4180    7.7746 C   0  0  0  0  0  0  0  0  0  0  0  0
   -4.6923   -5.8091    8.8302 C   0  0  0  0  0  0  0  0  0  0  0  0
   -3.4222   -5.2794    8.9731 C   0  0  0  0  0  0  0  0  0  0  0  0
   -2.9497   -4.3569    8.0626 C   0  0  0  0  0  0  0  0  0  0  0  0
   -4.6209   -0.0896    0.8499 C   0  0  0  0  0  0  0  0  0  0  0  0
   -5.7321   -0.5533    0.6751 O   0  0  0  0  0  0  0  0  0  0  0  0
   -4.0669    0.7421   -0.0562 N   0  0  0  0  0  0  0  0  0  0  0  0
   -2.8458    1.2640    0.1262 C   0  0  0  0  0  0  0  0  0  0  0  0
   -2.2263    2.3158   -1.0741 S   0  0  0  0  0  0  0  0  0  0  0  0
   -0.6721   -0.7464   -0.0563 H   0  0  0  0  0  0  0  0  0  0  0  0
    0.5247    0.3684   -0.7586 H   0  0  0  0  0  0  0  0  0  0  0  0
    1.0673   -1.0680    0.1417 H   0  0  0  0  0  0  0  0  0  0  0  0
    1.2895    0.9821    1.5189 H   0  0  0  0  0  0  0  0  0  0  0  0
    0.0928   -0.1327    2.2212 H   0  0  0  0  0  0  0  0  0  0  0  0
   -1.4110    3.3035    2.4687 H   0  0  0  0  0  0  0  0  0  0  0  0
    0.3106    2.8961    2.6642 H   0  0  0  0  0  0  0  0  0  0  0  0
   -0.9364    1.8811    3.4278 H   0  0  0  0  0  0  0  0  0  0  0  0
   -5.3639   -1.6207    2.9630 H   0  0  0  0  0  0  0  0  0  0  0  0
   -2.6738   -1.2777    4.1566 H   0  0  0  0  0  0  0  0  0  0  0  0
   -4.9277   -2.9595    4.8885 H   0  0  0  0  0  0  0  0  0  0  0  0
   -5.6695   -4.1839    6.0396 H   0  0  0  0  0  0  0  0  0  0  0  0
   -6.4874   -5.8352    7.6687 H   0  0  0  0  0  0  0  0  0  0  0  0
   -5.0576   -6.5307    9.5459 H   0  0  0  0  0  0  0  0  0  0  0  0
   -2.7993   -5.5886    9.7994 H   0  0  0  0  0  0  0  0  0  0  0  0
   -1.9582   -3.9439    8.1755 H   0  0  0  0  0  0  0  0  0  0  0  0
   -4.5652    0.9706   -0.8565 H   0  0  0  0  0  0  0  0  0  0  0  0
  1  2  1  0  0  0  0
  1 26  1  0  0  0  0
  1 27  1  0  0  0  0
  1 28  1  0  0  0  0
  2  3  1  0  0  0  0
  2 29  1  0  0  0  0
  2 30  1  0  0  0  0
  3  4  1  0  0  0  0
  3  5  1  0  0  0  0
  3  6  1  0  0  0  0
  5 31  1  0  0  0  0
  5 32  1  0  0  0  0
  5 33  1  0  0  0  0
  6 24  1  0  0  0  0
  6  7  1  0  0  0  0
  7  8  2  0  0  0  0
  7  9  1  0  0  0  0
  9 10  2  0  0  0  0
  9 21  1  0  0  0  0
 10 11  1  0  0  0  0
 10 34  1  0  0  0  0
 11 12  1  0  0  0  0
 11 35  1  0  0  0  0
 12 13  1  0  0  0  0
 12 36  1  0  0  0  0
 13 14  2  0  0  0  0
 13 15  1  0  0  0  0
 15 20  2  0  0  0  0
 15 16  1  0  0  0  0
 16 17  2  0  0  0  0
 16 37  1  0  0  0  0
 17 18  1  0  0  0  0
 17 38  1  0  0  0  0
 18 19  2  0  0  0  0
 18 39  1  0  0  0  0
 19 20  1  0  0  0  0
 19 40  1  0  0  0  0
 20 41  1  0  0  0  0
 21 22  2  0  0  0  0
 21 23  1  0  0  0  0
 23 24  1  0  0  0  0
 23 42  1  0  0  0  0
 24 25  2  0  0  0  0
M  END
$$$$
ZINC03849642
  -OEChem-08230709453D

 44 45  0     0  0  0  0  0  0999 V2000
   -5.1283   -0.5579    1.0418 C   0  0  0  0  0  0  0  0  0  0  0  0
   -4.3719   -0.2027   -0.2398 C   0  0  0  0  0  0  0  0  0  0  0  0
   -3.1301    0.6190    0.1120 C   0  0  0  0  0  0  0  0  0  0  0  0
   -2.3737    0.9743   -1.1696 C   0  0  0  0  0  0  0  0  0  0  0  0
   -1.1847    1.7611   -0.8327 N   0  0  0  0  0  0  0  0  0  0  0  0
   -0.0216    1.1243   -0.5849 C   0  0  0  0  0  0  0  0  0  0  0  0
    0.0500   -0.0891   -0.6379 O   0  0  0  0  0  0  0  0  0  0  0  0
    1.1615    1.9385   -0.2543 C   0  0  0  0  0  0  0  0  0  0  0  0
    2.3882    1.3563    0.0060 C   0  0  0  0  0  0  0  0  0  0  0  0
    2.4935    0.0150    0.0896 N   0  0  0  0  0  0  0  0  0  0  0  0
    3.7120   -0.5704    0.4575 N   0  0  0  0  0  0  0  0  0  0  0  0
    3.8173   -1.9114    0.5410 C   0  0  0  0  0  0  0  0  0  0  0  0
    5.3063   -2.6268    0.9906 S   0  0  0  0  0  0  0  0  0  0  0  0
    2.7504   -2.6893    0.2707 N   0  0  0  0  0  0  0  0  0  0  0  0
    2.8234   -4.0716    0.4730 C   0  0  0  0  0  0  0  0  0  0  0  0
    2.2533   -4.9407   -0.4481 C   0  0  0  0  0  0  0  0  0  0  0  0
    2.3312   -6.3050   -0.2479 C   0  0  0  0  0  0  0  0  0  0  0  0
    2.9669   -6.8056    0.8736 C   0  0  0  0  0  0  0  0  0  0  0  0
    3.5310   -5.9427    1.7952 C   0  0  0  0  0  0  0  0  0  0  0  0
    3.4611   -4.5775    1.5982 C   0  0  0  0  0  0  0  0  0  0  0  0
    0.9800    3.4005   -0.2138 C   0  0  0  0  0  0  0  0  0  0  0  0
    1.9100    4.1385    0.0522 O   0  0  0  0  0  0  0  0  0  0  0  0
   -0.2454    3.8984   -0.4791 N   0  0  0  0  0  0  0  0  0  0  0  0
   -1.2788    3.0968   -0.7726 C   0  0  0  0  0  0  0  0  0  0  0  0
   -2.3570    3.6086   -1.0019 O   0  0  0  0  0  0  0  0  0  0  0  0
   -6.0130   -1.1433    0.7912 H   0  0  0  0  0  0  0  0  0  0  0  0
   -4.4804   -1.1408    1.6964 H   0  0  0  0  0  0  0  0  0  0  0  0
   -5.4305    0.3573    1.5509 H   0  0  0  0  0  0  0  0  0  0  0  0
   -5.0198    0.3802   -0.8944 H   0  0  0  0  0  0  0  0  0  0  0  0
   -4.0697   -1.1179   -0.7489 H   0  0  0  0  0  0  0  0  0  0  0  0
   -2.4822    0.0361    0.7667 H   0  0  0  0  0  0  0  0  0  0  0  0
   -3.4323    1.5343    0.6211 H   0  0  0  0  0  0  0  0  0  0  0  0
   -3.0216    1.5572   -1.8242 H   0  0  0  0  0  0  0  0  0  0  0  0
   -2.0715    0.0591   -1.6786 H   0  0  0  0  0  0  0  0  0  0  0  0
    3.2620    1.9762    0.1425 H   0  0  0  0  0  0  0  0  0  0  0  0
    1.7256   -0.5448   -0.1050 H   0  0  0  0  0  0  0  0  0  0  0  0
    4.4799   -0.0105    0.6521 H   0  0  0  0  0  0  0  0  0  0  0  0
    1.9320   -2.2907   -0.0642 H   0  0  0  0  0  0  0  0  0  0  0  0
    1.7528   -4.5503   -1.3219 H   0  0  0  0  0  0  0  0  0  0  0  0
    1.8917   -6.9816   -0.9658 H   0  0  0  0  0  0  0  0  0  0  0  0
    3.0226   -7.8727    1.0301 H   0  0  0  0  0  0  0  0  0  0  0  0
    4.0264   -6.3367    2.6703 H   0  0  0  0  0  0  0  0  0  0  0  0
    3.9015   -3.9041    2.3186 H   0  0  0  0  0  0  0  0  0  0  0  0
   -0.3818    4.8585   -0.4566 H   0  0  0  0  0  0  0  0  0  0  0  0
  1  2  1  0  0  0  0
  1 26  1  0  0  0  0
  1 27  1  0  0  0  0
  1 28  1  0  0  0  0
  2  3  1  0  0  0  0
  2 29  1  0  0  0  0
  2 30  1  0  0  0  0
  3  4  1  0  0  0  0
  3 31  1  0  0  0  0
  3 32  1  0  0  0  0
  4  5  1  0  0  0  0
  4 33  1  0  0  0  0
  4 34  1  0  0  0  0
  5 24  1  0  0  0  0
  5  6  1  0  0  0  0
  6  7  2  0  0  0  0
  6  8  1  0  0  0  0
  8  9  2  0  0  0  0
  8 21  1  0  0  0  0
  9 10  1  0  0  0  0
  9 35  1  0  0  0  0
 10 11  1  0  0  0  0
 10 36  1  0  0  0  0
 11 12  1  0  0  0  0
 11 37  1  0  0  0  0
 12 13  2  0  0  0  0
 12 14  1  0  0  0  0
 14 15  1  0  0  0  0
 14 38  1  0  0  0  0
 15 20  2  0  0  0  0
 15 16  1  0  0  0  0
 16 17  2  0  0  0  0
 16 39  1  0  0  0  0
 17 18  1  0  0  0  0
 17 40  1  0  0  0  0
 18 19  2  0  0  0  0
 18 41  1  0  0  0  0
 19 20  1  0  0  0  0
 19 42  1  0  0  0  0
 20 43  1  0  0  0  0
 21 22  2  0  0  0  0
 21 23  1  0  0  0  0
 23 24  1  0  0  0  0
 23 44  1  0  0  0  0
 24 25  2  0  0  0  0
M  END
$$$$
ZINC03850015
  -OEChem-08230709453D

 43 44  0     1  0  0  0  0  0999 V2000
   -3.6201    4.5131    0.3565 C   0  0  0  0  0  0  0  0  0  0  0  0
   -3.0793    4.2555   -1.0263 C   0  0  0  0  0  0  0  0  0  0  0  0
   -1.9407    3.6057   -1.1792 C   0  0  0  0  0  0  0  0  0  0  0  0
   -1.1815    3.1214    0.0292 C   0  0  1  0  0  0  0  0  0  0  0  0
   -1.7142    3.4628    0.9167 H   0  0  0  0  0  0  0  0  0  0  0  0
   -1.2003    1.6045    0.0166 C   0  0  0  0  0  0  0  0  0  0  0  0
   -2.2446    0.9887    0.0183 O   0  0  0  0  0  0  0  0  0  0  0  0
   -0.0111    0.9658    0.0074 N   0  0  0  0  0  0  0  0  0  0  0  0
    1.1499    1.6306   -0.0002 C   0  0  0  0  0  0  0  0  0  0  0  0
    2.1734    0.9762   -0.0126 O   0  0  0  0  0  0  0  0  0  0  0  0
    1.2662    2.9635    0.0055 N   0  0  0  0  0  0  0  0  0  0  0  0
    0.1875    3.7749    0.0196 C   0  0  0  0  0  0  0  0  0  0  0  0
    0.3083    4.9812    0.0242 O   0  0  0  0  0  0  0  0  0  0  0  0
    2.6042    3.5601   -0.0046 C   0  0  0  0  0  0  0  0  0  0  0  0
    3.0491    3.7719   -1.4287 C   0  0  0  0  0  0  0  0  0  0  0  0
    3.4265    4.9615   -1.8270 C   0  0  0  0  0  0  0  0  0  0  0  0
   -1.4422    3.3682   -2.4538 N   0  0  0  0  0  0  0  0  0  0  0  0
   -2.1481    3.8185   -3.5772 N   0  0  0  0  0  0  0  0  0  0  0  0
   -1.6645    3.5881   -4.8139 C   0  0  0  0  0  0  0  0  0  0  0  0
   -0.6158    2.9896   -4.9546 O   0  0  0  0  0  0  0  0  0  0  0  0
   -2.4089    4.0630   -5.9987 C   0  0  0  0  0  0  0  0  0  0  0  0
   -3.6167    4.7456   -5.8409 C   0  0  0  0  0  0  0  0  0  0  0  0
   -4.3043    5.1900   -6.9506 C   0  0  0  0  0  0  0  0  0  0  0  0
   -3.8055    4.9521   -8.2197 C   0  0  0  0  0  0  0  0  0  0  0  0
   -2.6127    4.2726   -8.3848 C   0  0  0  0  0  0  0  0  0  0  0  0
   -1.9106    3.8259   -7.2820 C   0  0  0  0  0  0  0  0  0  0  0  0
   -0.4137    2.9719   -7.4905 Cl  0  0  0  0  0  0  0  0  0  0  0  0
   -2.9012    5.1046    0.9234 H   0  0  0  0  0  0  0  0  0  0  0  0
   -4.5613    5.0580    0.2829 H   0  0  0  0  0  0  0  0  0  0  0  0
   -3.7891    3.5630    0.8634 H   0  0  0  0  0  0  0  0  0  0  0  0
   -3.6235    4.6026   -1.8923 H   0  0  0  0  0  0  0  0  0  0  0  0
    0.0021   -0.0041    0.0020 H   0  0  0  0  0  0  0  0  0  0  0  0
    2.5786    4.5183    0.5144 H   0  0  0  0  0  0  0  0  0  0  0  0
    3.3034    2.8927    0.4991 H   0  0  0  0  0  0  0  0  0  0  0  0
    3.0568    2.9430   -2.1210 H   0  0  0  0  0  0  0  0  0  0  0  0
    3.4187    5.7904   -1.1348 H   0  0  0  0  0  0  0  0  0  0  0  0
    3.7453    5.1132   -2.8476 H   0  0  0  0  0  0  0  0  0  0  0  0
   -0.6055    2.8906   -2.5662 H   0  0  0  0  0  0  0  0  0  0  0  0
   -2.9849    4.2960   -3.4648 H   0  0  0  0  0  0  0  0  0  0  0  0
   -4.0098    4.9283   -4.8517 H   0  0  0  0  0  0  0  0  0  0  0  0
   -5.2365    5.7217   -6.8292 H   0  0  0  0  0  0  0  0  0  0  0  0
   -4.3509    5.2986   -9.0851 H   0  0  0  0  0  0  0  0  0  0  0  0
   -2.2292    4.0904   -9.3779 H   0  0  0  0  0  0  0  0  0  0  0  0
  1  2  1  0  0  0  0
  1 28  1  0  0  0  0
  1 29  1  0  0  0  0
  1 30  1  0  0  0  0
  2  3  2  0  0  0  0
  2 31  1  0  0  0  0
  3  4  1  0  0  0  0
  3 17  1  0  0  0  0
  4  5  1  0  0  0  0
  4 12  1  0  0  0  0
  4  6  1  0  0  0  0
  6  7  2  0  0  0  0
  6  8  1  0  0  0  0
  8  9  1  0  0  0  0
  8 32  1  0  0  0  0
  9 10  2  0  0  0  0
  9 11  1  0  0  0  0
 11 12  1  0  0  0  0
 11 14  1  0  0  0  0
 12 13  2  0  0  0  0
 14 15  1  0  0  0  0
 14 33  1  0  0  0  0
 14 34  1  0  0  0  0
 15 16  2  0  0  0  0
 15 35  1  0  0  0  0
 16 36  1  0  0  0  0
 16 37  1  0  0  0  0
 17 18  1  0  0  0  0
 17 38  1  0  0  0  0
 18 19  1  0  0  0  0
 18 39  1  0  0  0  0
 19 20  2  0  0  0  0
 19 21  1  0  0  0  0
 21 26  2  0  0  0  0
 21 22  1  0  0  0  0
 22 23  2  0  0  0  0
 22 40  1  0  0  0  0
 23 24  1  0  0  0  0
 23 41  1  0  0  0  0
 24 25  2  0  0  0  0
 24 42  1  0  0  0  0
 25 26  1  0  0  0  0
 25 43  1  0  0  0  0
 26 27  1  0  0  0  0
M  END
$$$$
ZINC03850674
  -OEChem-08230709453D

 40 42  0     0  0  0  0  0  0999 V2000
    2.2275    5.2997    0.0093 C   0  0  0  0  0  0  0  0  0  0  0  0
    2.3224    3.8739    0.0007 O   0  0  0  0  0  0  0  0  0  0  0  0
    1.1544    3.1773    0.0081 C   0  0  0  0  0  0  0  0  0  0  0  0
   -0.0553    3.8545    0.0238 C   0  0  0  0  0  0  0  0  0  0  0  0
   -1.2429    3.1512    0.0319 C   0  0  0  0  0  0  0  0  0  0  0  0
   -1.2282    1.7575    0.0174 C   0  0  0  0  0  0  0  0  0  0  0  0
   -0.0126    1.0758    0.0080 C   0  0  0  0  0  0  0  0  0  0  0  0
    1.1753    1.7851    0.0004 C   0  0  0  0  0  0  0  0  0  0  0  0
    2.3630    1.1228   -0.0141 O   0  0  0  0  0  0  0  0  0  0  0  0
    2.3094   -0.3052   -0.0208 C   0  0  0  0  0  0  0  0  0  0  0  0
   -2.5041    1.0010    0.0193 C   0  0  0  0  0  0  0  0  0  0  0  0
   -3.6994    1.6644    0.0338 C   0  0  0  0  0  0  0  0  0  0  0  0
   -4.8420    0.2890    0.0271 S   0  0  0  0  0  0  0  0  0  0  0  0
   -3.6204   -1.0157    0.0144 C   0  0  0  0  0  0  0  0  0  0  0  0
   -2.4959   -0.3233    0.0125 N   0  0  0  0  0  0  0  0  0  0  0  0
   -3.8046   -2.3908    0.0087 N   0  0  0  0  0  0  0  0  0  0  0  0
   -5.0671   -2.9104    0.0121 C   0  0  0  0  0  0  0  0  0  0  0  0
   -5.2480   -4.2605    0.0064 C   0  0  0  0  0  0  0  0  0  0  0  0
   -6.5373   -4.9969    0.0150 C   0  0  0  0  0  0  0  0  0  0  0  0
   -7.7641   -4.4688    0.0298 C   0  0  0  0  0  0  0  0  0  0  0  0
   -6.2070   -6.3530    0.0006 N   0  0  0  0  0  0  0  0  0  0  0  0
   -6.8449   -7.0837    0.0001 H   0  0  0  0  0  0  0  0  0  0  0  0
   -4.8193   -6.4971   -0.0060 N   0  0  0  0  0  0  0  0  0  0  0  0
   -4.3563   -7.3495   -0.0118 H   0  0  0  0  0  0  0  0  0  0  0  0
   -4.2081   -5.3000   -0.0029 C   0  0  0  0  0  0  0  0  0  0  0  0
   -3.0059   -5.1100   -0.0066 O   0  0  0  0  0  0  0  0  0  0  0  0
    3.2287    5.7305    0.0021 H   0  0  0  0  0  0  0  0  0  0  0  0
    1.6822    5.6329   -0.8737 H   0  0  0  0  0  0  0  0  0  0  0  0
    1.6992    5.6233    0.9062 H   0  0  0  0  0  0  0  0  0  0  0  0
   -0.0684    4.9344    0.0302 H   0  0  0  0  0  0  0  0  0  0  0  0
   -2.1840    3.6810    0.0441 H   0  0  0  0  0  0  0  0  0  0  0  0
    0.0021   -0.0041    0.0020 H   0  0  0  0  0  0  0  0  0  0  0  0
    1.7906   -0.6535    0.8723 H   0  0  0  0  0  0  0  0  0  0  0  0
    1.7740   -0.6445   -0.9075 H   0  0  0  0  0  0  0  0  0  0  0  0
    3.3226   -0.7068   -0.0323 H   0  0  0  0  0  0  0  0  0  0  0  0
   -3.8984    2.7259    0.0451 H   0  0  0  0  0  0  0  0  0  0  0  0
   -3.0364   -2.9830    0.0022 H   0  0  0  0  0  0  0  0  0  0  0  0
   -5.9224   -2.2510    0.0193 H   0  0  0  0  0  0  0  0  0  0  0  0
   -7.8903   -3.3963    0.0369 H   0  0  0  0  0  0  0  0  0  0  0  0
   -8.6299   -5.1145    0.0347 H   0  0  0  0  0  0  0  0  0  0  0  0
  1  2  1  0  0  0  0
  1 27  1  0  0  0  0
  1 28  1  0  0  0  0
  1 29  1  0  0  0  0
  2  3  1  0  0  0  0
  3  8  2  0  0  0  0
  3  4  1  0  0  0  0
  4  5  2  0  0  0  0
  4 30  1  0  0  0  0
  5  6  1  0  0  0  0
  5 31  1  0  0  0  0
  6  7  2  0  0  0  0
  6 11  1  0  0  0  0
  7  8  1  0  0  0  0
  7 32  1  0  0  0  0
  8  9  1  0  0  0  0
  9 10  1  0  0  0  0
 10 33  1  0  0  0  0
 10 34  1  0  0  0  0
 10 35  1  0  0  0  0
 11 15  1  0  0  0  0
 11 12  2  0  0  0  0
 12 13  1  0  0  0  0
 12 36  1  0  0  0  0
 13 14  1  0  0  0  0
 14 15  2  0  0  0  0
 14 16  1  0  0  0  0
 16 17  1  0  0  0  0
 16 37  1  0  0  0  0
 17 18  2  0  0  0  0
 17 38  1  0  0  0  0
 18 25  1  0  0  0  0
 18 19  1  0  0  0  0
 19 20  2  0  0  0  0
 19 21  1  0  0  0  0
 20 39  1  0  0  0  0
 20 40  1  0  0  0  0
 21 22  1  0  0  0  0
 21 23  1  0  0  0  0
 23 24  1  0  0  0  0
 23 25  1  0  0  0  0
 25 26  2  0  0  0  0
M  END
$$$$
ZINC03850808
  -OEChem-08230709453D

 43 45  0     0  0  0  0  0  0999 V2000
    1.0884   -0.7470    0.7363 C   0  0  0  0  0  0  0  0  0  0  0  0
    0.0021   -0.0041    0.0020 C   0  0  0  0  0  0  0  0  0  0  0  0
   -0.9244   -0.6682   -0.6435 C   0  0  0  0  0  0  0  0  0  0  0  0
   -0.0184    1.5028    0.0103 C   0  0  0  0  0  0  0  0  0  0  0  0
   -0.7041    1.9752    1.2156 N   0  0  0  0  0  0  0  0  0  0  0  0
   -0.1217    2.2526    2.4452 C   0  0  0  0  0  0  0  0  0  0  0  0
    1.1898    2.1941    2.9487 C   0  0  0  0  0  0  0  0  0  0  0  0
    2.1082    1.8320    2.2341 O   0  0  0  0  0  0  0  0  0  0  0  0
    1.4210    2.5437    4.2311 N   0  0  0  0  0  0  0  0  0  0  0  0
    2.3526    2.5033    4.5922 H   0  0  0  0  0  0  0  0  0  0  0  0
    0.4180    2.9455    5.0307 C   0  0  0  0  0  0  0  0  0  0  0  0
    0.6636    3.2533    6.1812 O   0  0  0  0  0  0  0  0  0  0  0  0
   -0.8519    3.0158    4.5889 N   0  0  0  0  0  0  0  0  0  0  0  0
   -1.1519    2.6697    3.2811 C   0  0  0  0  0  0  0  0  0  0  0  0
   -2.2823    2.6375    2.5735 N   0  0  0  0  0  0  0  0  0  0  0  0
   -2.0325    2.2325    1.3448 C   0  0  0  0  0  0  0  0  0  0  0  0
   -2.9708    2.0891    0.3486 N   0  0  0  0  0  0  0  0  0  0  0  0
   -4.3770    2.4007    0.6165 C   0  0  0  0  0  0  0  0  0  0  0  0
   -5.1905    2.1621   -0.6295 C   0  0  0  0  0  0  0  0  0  0  0  0
   -5.5569    3.2275   -1.4305 C   0  0  0  0  0  0  0  0  0  0  0  0
   -6.2993    3.0083   -2.5756 C   0  0  0  0  0  0  0  0  0  0  0  0
   -6.6842    1.7246   -2.9154 C   0  0  0  0  0  0  0  0  0  0  0  0
   -6.3230    0.6593   -2.1127 C   0  0  0  0  0  0  0  0  0  0  0  0
   -5.5756    0.8775   -0.9688 C   0  0  0  0  0  0  0  0  0  0  0  0
   -5.1220   -0.4602    0.0404 Cl  0  0  0  0  0  0  0  0  0  0  0  0
   -1.9175    3.4582    5.4917 C   0  0  0  0  0  0  0  0  0  0  0  0
    0.7689   -0.9386    1.7606 H   0  0  0  0  0  0  0  0  0  0  0  0
    1.2845   -1.6940    0.2336 H   0  0  0  0  0  0  0  0  0  0  0  0
    1.9974   -0.1455    0.7456 H   0  0  0  0  0  0  0  0  0  0  0  0
   -1.7029   -0.1358   -1.1697 H   0  0  0  0  0  0  0  0  0  0  0  0
   -0.9098   -1.7480   -0.6494 H   0  0  0  0  0  0  0  0  0  0  0  0
    1.0042    1.8801    0.0026 H   0  0  0  0  0  0  0  0  0  0  0  0
   -0.5455    1.8639   -0.8728 H   0  0  0  0  0  0  0  0  0  0  0  0
   -2.7011    1.7818   -0.5310 H   0  0  0  0  0  0  0  0  0  0  0  0
   -4.7446    1.7606    1.4185 H   0  0  0  0  0  0  0  0  0  0  0  0
   -4.4673    3.4451    0.9149 H   0  0  0  0  0  0  0  0  0  0  0  0
   -5.2600    4.2309   -1.1633 H   0  0  0  0  0  0  0  0  0  0  0  0
   -6.5824    3.8406   -3.2028 H   0  0  0  0  0  0  0  0  0  0  0  0
   -7.2675    1.5544   -3.8083 H   0  0  0  0  0  0  0  0  0  0  0  0
   -6.6243   -0.3434   -2.3779 H   0  0  0  0  0  0  0  0  0  0  0  0
   -1.4939    3.6849    6.4701 H   0  0  0  0  0  0  0  0  0  0  0  0
   -2.3908    4.3518    5.0848 H   0  0  0  0  0  0  0  0  0  0  0  0
   -2.6605    2.6671    5.5920 H   0  0  0  0  0  0  0  0  0  0  0  0
  1  2  1  0  0  0  0
  1 27  1  0  0  0  0
  1 28  1  0  0  0  0
  1 29  1  0  0  0  0
  2  3  2  0  0  0  0
  2  4  1  0  0  0  0
  3 30  1  0  0  0  0
  3 31  1  0  0  0  0
  4  5  1  0  0  0  0
  4 32  1  0  0  0  0
  4 33  1  0  0  0  0
  5 16  1  0  0  0  0
  5  6  1  0  0  0  0
  6 14  2  0  0  0  0
  6  7  1  0  0  0  0
  7  8  2  0  0  0  0
  7  9  1  0  0  0  0
  9 10  1  0  0  0  0
  9 11  1  0  0  0  0
 11 12  2  0  0  0  0
 11 13  1  0  0  0  0
 13 14  1  0  0  0  0
 13 26  1  0  0  0  0
 14 15  1  0  0  0  0
 15 16  2  0  0  0  0
 16 17  1  0  0  0  0
 17 18  1  0  0  0  0
 17 34  1  0  0  0  0
 18 19  1  0  0  0  0
 18 35  1  0  0  0  0
 18 36  1  0  0  0  0
 19 24  2  0  0  0  0
 19 20  1  0  0  0  0
 20 21  2  0  0  0  0
 20 37  1  0  0  0  0
 21 22  1  0  0  0  0
 21 38  1  0  0  0  0
 22 23  2  0  0  0  0
 22 39  1  0  0  0  0
 23 24  1  0  0  0  0
 23 40  1  0  0  0  0
 24 25  1  0  0  0  0
 26 41  1  0  0  0  0
 26 42  1  0  0  0  0
 26 43  1  0  0  0  0
M  END
$$$$
ZINC03850808
  -OEChem-08230709453D

 44 46  0     0  0  0  0  0  0999 V2000
    1.0884   -0.7470    0.7363 C   0  0  0  0  0  0  0  0  0  0  0  0
    0.0021   -0.0041    0.0020 C   0  0  0  0  0  0  0  0  0  0  0  0
   -0.9244   -0.6682   -0.6435 C   0  0  0  0  0  0  0  0  0  0  0  0
   -0.0184    1.5028    0.0103 C   0  0  0  0  0  0  0  0  0  0  0  0
   -0.7041    1.9752    1.2156 N   0  0  0  0  0  0  0  0  0  0  0  0
   -0.1217    2.2526    2.4452 C   0  0  0  0  0  0  0  0  0  0  0  0
    1.1898    2.1941    2.9487 C   0  0  0  0  0  0  0  0  0  0  0  0
    2.1082    1.8320    2.2341 O   0  0  0  0  0  0  0  0  0  0  0  0
    1.4210    2.5437    4.2311 N   0  0  0  0  0  0  0  0  0  0  0  0
    2.3526    2.5033    4.5922 H   0  0  0  0  0  0  0  0  0  0  0  0
    0.4180    2.9455    5.0307 C   0  0  0  0  0  0  0  0  0  0  0  0
    0.6636    3.2533    6.1812 O   0  0  0  0  0  0  0  0  0  0  0  0
   -0.8519    3.0158    4.5889 N   0  0  0  0  0  0  0  0  0  0  0  0
   -1.1519    2.6697    3.2811 C   0  0  0  0  0  0  0  0  0  0  0  0
   -2.0325    2.2325    1.3448 C   0  0  0  0  0  0  0  0  0  0  0  0
   -2.9708    2.0891    0.3486 N   0  0  0  0  0  0  0  0  0  0  0  0
   -4.3770    2.4007    0.6165 C   0  0  0  0  0  0  0  0  0  0  0  0
   -5.1905    2.1621   -0.6295 C   0  0  0  0  0  0  0  0  0  0  0  0
   -5.5569    3.2275   -1.4305 C   0  0  0  0  0  0  0  0  0  0  0  0
   -6.2993    3.0083   -2.5756 C   0  0  0  0  0  0  0  0  0  0  0  0
   -6.6842    1.7246   -2.9154 C   0  0  0  0  0  0  0  0  0  0  0  0
   -6.3230    0.6593   -2.1127 C   0  0  0  0  0  0  0  0  0  0  0  0
   -5.5756    0.8775   -0.9688 C   0  0  0  0  0  0  0  0  0  0  0  0
   -5.1220   -0.4602    0.0404 Cl  0  0  0  0  0  0  0  0  0  0  0  0
   -1.9175    3.4582    5.4917 C   0  0  0  0  0  0  0  0  0  0  0  0
    0.7689   -0.9386    1.7606 H   0  0  0  0  0  0  0  0  0  0  0  0
    1.2845   -1.6940    0.2336 H   0  0  0  0  0  0  0  0  0  0  0  0
    1.9974   -0.1455    0.7456 H   0  0  0  0  0  0  0  0  0  0  0  0
   -1.7029   -0.1358   -1.1697 H   0  0  0  0  0  0  0  0  0  0  0  0
   -0.9098   -1.7480   -0.6494 H   0  0  0  0  0  0  0  0  0  0  0  0
    1.0042    1.8801    0.0026 H   0  0  0  0  0  0  0  0  0  0  0  0
   -0.5455    1.8639   -0.8728 H   0  0  0  0  0  0  0  0  0  0  0  0
   -2.7011    1.7818   -0.5310 H   0  0  0  0  0  0  0  0  0  0  0  0
   -4.7446    1.7606    1.4185 H   0  0  0  0  0  0  0  0  0  0  0  0
   -4.4673    3.4451    0.9149 H   0  0  0  0  0  0  0  0  0  0  0  0
   -5.2600    4.2309   -1.1633 H   0  0  0  0  0  0  0  0  0  0  0  0
   -6.5824    3.8406   -3.2028 H   0  0  0  0  0  0  0  0  0  0  0  0
   -7.2675    1.5544   -3.8083 H   0  0  0  0  0  0  0  0  0  0  0  0
   -6.6243   -0.3434   -2.3779 H   0  0  0  0  0  0  0  0  0  0  0  0
   -1.4939    3.6849    6.4701 H   0  0  0  0  0  0  0  0  0  0  0  0
   -2.3908    4.3518    5.0848 H   0  0  0  0  0  0  0  0  0  0  0  0
   -2.6605    2.6671    5.5920 H   0  0  0  0  0  0  0  0  0  0  0  0
   -2.2851    2.6383    2.5746 N   0  3  0  0  0  0  0  0  0  0  0  0
   -3.2128    2.8917    2.9343 H   0  0  0  0  0  0  0  0  0  0  0  0
  1  2  1  0  0  0  0
  1 26  1  0  0  0  0
  1 27  1  0  0  0  0
  1 28  1  0  0  0  0
  2  3  2  0  0  0  0
  2  4  1  0  0  0  0
  3 29  1  0  0  0  0
  3 30  1  0  0  0  0
  4  5  1  0  0  0  0
  4 31  1  0  0  0  0
  4 32  1  0  0  0  0
  5 15  1  0  0  0  0
  5  6  1  0  0  0  0
  6 14  2  0  0  0  0
  6  7  1  0  0  0  0
  7  8  2  0  0  0  0
  7  9  1  0  0  0  0
  9 10  1  0  0  0  0
  9 11  1  0  0  0  0
 11 12  2  0  0  0  0
 11 13  1  0  0  0  0
 13 14  1  0  0  0  0
 13 25  1  0  0  0  0
 14 43  1  0  0  0  0
 15 16  1  0  0  0  0
 15 43  2  0  0  0  0
 16 17  1  0  0  0  0
 16 33  1  0  0  0  0
 17 18  1  0  0  0  0
 17 34  1  0  0  0  0
 17 35  1  0  0  0  0
 18 23  2  0  0  0  0
 18 19  1  0  0  0  0
 19 20  2  0  0  0  0
 19 36  1  0  0  0  0
 20 21  1  0  0  0  0
 20 37  1  0  0  0  0
 21 22  2  0  0  0  0
 21 38  1  0  0  0  0
 22 23  1  0  0  0  0
 22 39  1  0  0  0  0
 23 24  1  0  0  0  0
 25 40  1  0  0  0  0
 25 41  1  0  0  0  0
 25 42  1  0  0  0  0
 43 44  1  0  0  0  0
M  CHG  1  43   1
M  END
$$$$
ZINC03850864
  -OEChem-08230709453D

 42 43  0     0  0  0  0  0  0999 V2000
   -1.5610   -0.4045    0.3081 C   0  0  0  0  0  0  0  0  0  0  0  0
   -0.3686   -1.0117   -0.1935 O   0  0  0  0  0  0  0  0  0  0  0  0
    0.6863   -0.1894   -0.4404 C   0  0  0  0  0  0  0  0  0  0  0  0
    0.5737    1.1679   -0.2047 C   0  0  0  0  0  0  0  0  0  0  0  0
    1.6576    2.0121   -0.4589 C   0  0  0  0  0  0  0  0  0  0  0  0
    2.8530    1.4815   -0.9505 C   0  0  0  0  0  0  0  0  0  0  0  0
    2.9601    0.1234   -1.1849 C   0  0  0  0  0  0  0  0  0  0  0  0
    1.8785   -0.7156   -0.9307 C   0  0  0  0  0  0  0  0  0  0  0  0
    1.9867   -2.0505   -1.1612 O   0  0  0  0  0  0  0  0  0  0  0  0
    1.6242   -2.5156   -2.4628 C   0  0  0  0  0  0  0  0  0  0  0  0
    4.1233   -0.3937   -1.6638 O   0  0  0  0  0  0  0  0  0  0  0  0
    5.1920    0.5246   -1.9020 C   0  0  0  0  0  0  0  0  0  0  0  0
    1.5401    3.4617   -0.2086 C   0  0  0  0  0  0  0  0  0  0  0  0
    0.4993    3.9223    0.2192 O   0  0  0  0  0  0  0  0  0  0  0  0
    2.5864    4.2749   -0.4542 N   0  0  0  0  0  0  0  0  0  0  0  0
    2.4420    5.6538   -0.3242 C   0  0  0  0  0  0  0  0  0  0  0  0
    1.3644    6.3012   -0.9135 C   0  0  0  0  0  0  0  0  0  0  0  0
    1.2208    7.6676   -0.7798 C   0  0  0  0  0  0  0  0  0  0  0  0
    2.1527    8.4044   -0.0668 C   0  0  0  0  0  0  0  0  0  0  0  0
    3.2317    7.7802    0.5207 C   0  0  0  0  0  0  0  0  0  0  0  0
    3.3881    6.3970    0.3983 C   0  0  0  0  0  0  0  0  0  0  0  0
    4.5395    5.7232    1.0234 C   0  0  0  0  0  0  0  0  0  0  0  0
    4.6281    4.0135    1.0346 S   0  0  0  0  0  0  0  0  0  0  0  0
    5.5230    6.4527    1.5865 N   0  0  0  0  0  0  0  0  0  0  0  0
   -2.3218   -1.1699    0.4611 H   0  0  0  0  0  0  0  0  0  0  0  0
   -1.3463    0.0891    1.2559 H   0  0  0  0  0  0  0  0  0  0  0  0
   -1.9243    0.3305   -0.4102 H   0  0  0  0  0  0  0  0  0  0  0  0
   -0.3528    1.5761    0.1715 H   0  0  0  0  0  0  0  0  0  0  0  0
    3.6923    2.1319   -1.1478 H   0  0  0  0  0  0  0  0  0  0  0  0
    1.7567   -3.5964   -2.5124 H   0  0  0  0  0  0  0  0  0  0  0  0
    0.5811   -2.2680   -2.6597 H   0  0  0  0  0  0  0  0  0  0  0  0
    2.2584   -2.0372   -3.2092 H   0  0  0  0  0  0  0  0  0  0  0  0
    4.8770    1.2662   -2.6361 H   0  0  0  0  0  0  0  0  0  0  0  0
    5.4556    1.0249   -0.9702 H   0  0  0  0  0  0  0  0  0  0  0  0
    6.0585   -0.0170   -2.2814 H   0  0  0  0  0  0  0  0  0  0  0  0
    3.4400    3.8998   -0.7216 H   0  0  0  0  0  0  0  0  0  0  0  0
    0.6356    5.7345   -1.4741 H   0  0  0  0  0  0  0  0  0  0  0  0
    0.3789    8.1660   -1.2372 H   0  0  0  0  0  0  0  0  0  0  0  0
    2.0331    9.4735    0.0287 H   0  0  0  0  0  0  0  0  0  0  0  0
    3.9556    8.3593    1.0748 H   0  0  0  0  0  0  0  0  0  0  0  0
    5.4728    7.4213    1.5801 H   0  0  0  0  0  0  0  0  0  0  0  0
    6.2810    6.0090    1.9980 H   0  0  0  0  0  0  0  0  0  0  0  0
  1  2  1  0  0  0  0
  1 25  1  0  0  0  0
  1 26  1  0  0  0  0
  1 27  1  0  0  0  0
  2  3  1  0  0  0  0
  3  8  2  0  0  0  0
  3  4  1  0  0  0  0
  4  5  2  0  0  0  0
  4 28  1  0  0  0  0
  5  6  1  0  0  0  0
  5 13  1  0  0  0  0
  6  7  2  0  0  0  0
  6 29  1  0  0  0  0
  7  8  1  0  0  0  0
  7 11  1  0  0  0  0
  8  9  1  0  0  0  0
  9 10  1  0  0  0  0
 10 30  1  0  0  0  0
 10 31  1  0  0  0  0
 10 32  1  0  0  0  0
 11 12  1  0  0  0  0
 12 33  1  0  0  0  0
 12 34  1  0  0  0  0
 12 35  1  0  0  0  0
 13 14  2  0  0  0  0
 13 15  1  0  0  0  0
 15 16  1  0  0  0  0
 15 36  1  0  0  0  0
 16 21  2  0  0  0  0
 16 17  1  0  0  0  0
 17 18  2  0  0  0  0
 17 37  1  0  0  0  0
 18 19  1  0  0  0  0
 18 38  1  0  0  0  0
 19 20  2  0  0  0  0
 19 39  1  0  0  0  0
 20 21  1  0  0  0  0
 20 40  1  0  0  0  0
 21 22  1  0  0  0  0
 22 23  2  0  0  0  0
 22 24  1  0  0  0  0
 24 41  1  0  0  0  0
 24 42  1  0  0  0  0
M  END
$$$$
ZINC03851430
  -OEChem-08230709453D

 40 42  0     0  0  0  0  0  0999 V2000
   -3.7250   -2.3352   -2.1505 C   0  0  0  0  0  0  0  0  0  0  0  0
   -3.0081   -1.8549   -0.9151 C   0  0  0  0  0  0  0  0  0  0  0  0
   -3.5344   -2.1230    0.3367 C   0  0  0  0  0  0  0  0  0  0  0  0
   -2.8834   -1.6856    1.4766 C   0  0  0  0  0  0  0  0  0  0  0  0
   -1.7010   -0.9829    1.3731 C   0  0  0  0  0  0  0  0  0  0  0  0
   -1.1664   -0.7038    0.1126 C   0  0  0  0  0  0  0  0  0  0  0  0
   -1.8296   -1.1489   -1.0345 C   0  0  0  0  0  0  0  0  0  0  0  0
    0.0021   -0.0041    0.0020 N   0  0  0  0  0  0  0  0  0  0  0  0
   -0.0162    1.3196    0.0060 C   0  0  0  0  0  0  0  0  0  0  0  0
   -1.2152    2.0020    0.0044 N   0  0  0  0  0  0  0  0  0  0  0  0
   -2.0557    1.5178    0.0003 H   0  0  0  0  0  0  0  0  0  0  0  0
   -1.2039    3.3543    0.0132 C   0  0  0  0  0  0  0  0  0  0  0  0
   -0.0654    3.9994    0.0131 N   0  0  0  0  0  0  0  0  0  0  0  0
    1.1011    3.3376    0.0095 C   0  0  0  0  0  0  0  0  0  0  0  0
    1.1308    2.0150    0.0060 N   0  0  0  0  0  0  0  0  0  0  0  0
    2.2805    4.0423    0.0100 N   0  0  0  0  0  0  0  0  0  0  0  0
   -2.5028    4.1185    0.0168 C   0  0  0  0  0  0  0  0  0  0  0  0
   -2.2722    5.6963    0.8733 S   0  0  0  0  0  0  0  0  0  0  0  0
   -3.8976    6.3615    0.7321 C   0  0  0  0  0  0  0  0  0  0  0  0
   -4.9171    5.7798    0.1443 N   0  0  0  0  0  0  0  0  0  0  0  0
   -5.9942    6.5784    0.2301 C   0  0  0  0  0  0  0  0  0  0  0  0
   -5.6419    7.6943    0.8908 C   0  0  0  0  0  0  0  0  0  0  0  0
   -4.3112    7.5634    1.2191 N   0  0  0  0  0  0  0  0  0  0  0  0
   -3.4944    8.5349    1.9507 C   0  0  0  0  0  0  0  0  0  0  0  0
   -3.3675   -3.3306   -2.4142 H   0  0  0  0  0  0  0  0  0  0  0  0
   -4.7969   -2.3737   -1.9567 H   0  0  0  0  0  0  0  0  0  0  0  0
   -3.5291   -1.6488   -2.9742 H   0  0  0  0  0  0  0  0  0  0  0  0
   -4.4575   -2.6767    0.4241 H   0  0  0  0  0  0  0  0  0  0  0  0
   -3.3000   -1.8986    2.4500 H   0  0  0  0  0  0  0  0  0  0  0  0
   -1.1917   -0.6460    2.2638 H   0  0  0  0  0  0  0  0  0  0  0  0
   -1.4200   -0.9407   -2.0118 H   0  0  0  0  0  0  0  0  0  0  0  0
    3.1277    3.5700    0.0077 H   0  0  0  0  0  0  0  0  0  0  0  0
    2.2659    5.0122    0.0126 H   0  0  0  0  0  0  0  0  0  0  0  0
   -2.8174    4.3052   -1.0100 H   0  0  0  0  0  0  0  0  0  0  0  0
   -3.2665    3.5346    0.5303 H   0  0  0  0  0  0  0  0  0  0  0  0
   -6.9756    6.3608   -0.1648 H   0  0  0  0  0  0  0  0  0  0  0  0
   -6.2820    8.5323    1.1242 H   0  0  0  0  0  0  0  0  0  0  0  0
   -3.0314    9.2248    1.2452 H   0  0  0  0  0  0  0  0  0  0  0  0
   -4.1256    9.0922    2.6429 H   0  0  0  0  0  0  0  0  0  0  0  0
   -2.7185    8.0105    2.5084 H   0  0  0  0  0  0  0  0  0  0  0  0
  1  2  1  0  0  0  0
  1 25  1  0  0  0  0
  1 26  1  0  0  0  0
  1 27  1  0  0  0  0
  2  7  2  0  0  0  0
  2  3  1  0  0  0  0
  3  4  2  0  0  0  0
  3 28  1  0  0  0  0
  4  5  1  0  0  0  0
  4 29  1  0  0  0  0
  5  6  2  0  0  0  0
  5 30  1  0  0  0  0
  6  7  1  0  0  0  0
  6  8  1  0  0  0  0
  7 31  1  0  0  0  0
  8  9  2  0  0  0  0
  9 15  1  0  0  0  0
  9 10  1  0  0  0  0
 10 11  1  0  0  0  0
 10 12  1  0  0  0  0
 12 13  2  0  0  0  0
 12 17  1  0  0  0  0
 13 14  1  0  0  0  0
 14 15  2  0  0  0  0
 14 16  1  0  0  0  0
 16 32  1  0  0  0  0
 16 33  1  0  0  0  0
 17 18  1  0  0  0  0
 17 34  1  0  0  0  0
 17 35  1  0  0  0  0
 18 19  1  0  0  0  0
 19 23  1  0  0  0  0
 19 20  2  0  0  0  0
 20 21  1  0  0  0  0
 21 22  2  0  0  0  0
 21 36  1  0  0  0  0
 22 23  1  0  0  0  0
 22 37  1  0  0  0  0
 23 24  1  0  0  0  0
 24 38  1  0  0  0  0
 24 39  1  0  0  0  0
 24 40  1  0  0  0  0
M  END
$$$$
ZINC03851430
  -OEChem-08230709453D

 41 43  0     0  0  0  0  0  0999 V2000
   -3.7250   -2.3352   -2.1505 C   0  0  0  0  0  0  0  0  0  0  0  0
   -3.0081   -1.8549   -0.9151 C   0  0  0  0  0  0  0  0  0  0  0  0
   -3.5344   -2.1230    0.3367 C   0  0  0  0  0  0  0  0  0  0  0  0
   -2.8834   -1.6856    1.4766 C   0  0  0  0  0  0  0  0  0  0  0  0
   -1.7010   -0.9829    1.3731 C   0  0  0  0  0  0  0  0  0  0  0  0
   -1.1664   -0.7038    0.1126 C   0  0  0  0  0  0  0  0  0  0  0  0
   -1.8296   -1.1489   -1.0345 C   0  0  0  0  0  0  0  0  0  0  0  0
    0.0021   -0.0041    0.0020 N   0  0  0  0  0  0  0  0  0  0  0  0
   -0.0162    1.3196    0.0060 C   0  0  0  0  0  0  0  0  0  0  0  0
   -1.2152    2.0020    0.0044 N   0  0  0  0  0  0  0  0  0  0  0  0
   -2.0557    1.5178    0.0003 H   0  0  0  0  0  0  0  0  0  0  0  0
   -1.2039    3.3543    0.0132 C   0  0  0  0  0  0  0  0  0  0  0  0
   -0.0654    3.9994    0.0131 N   0  0  0  0  0  0  0  0  0  0  0  0
    1.1011    3.3376    0.0095 C   0  0  0  0  0  0  0  0  0  0  0  0
    1.1308    2.0150    0.0060 N   0  0  0  0  0  0  0  0  0  0  0  0
    2.2805    4.0423    0.0100 N   0  0  0  0  0  0  0  0  0  0  0  0
   -2.5028    4.1185    0.0168 C   0  0  0  0  0  0  0  0  0  0  0  0
   -2.2722    5.6963    0.8733 S   0  0  0  0  0  0  0  0  0  0  0  0
   -3.8976    6.3615    0.7321 C   0  0  0  0  0  0  0  0  0  0  0  0
   -5.9942    6.5784    0.2301 C   0  0  0  0  0  0  0  0  0  0  0  0
   -5.6419    7.6943    0.8908 C   0  0  0  0  0  0  0  0  0  0  0  0
   -4.3112    7.5634    1.2191 N   0  0  0  0  0  0  0  0  0  0  0  0
   -3.4944    8.5349    1.9507 C   0  0  0  0  0  0  0  0  0  0  0  0
   -3.3675   -3.3306   -2.4142 H   0  0  0  0  0  0  0  0  0  0  0  0
   -4.7969   -2.3737   -1.9567 H   0  0  0  0  0  0  0  0  0  0  0  0
   -3.5291   -1.6488   -2.9742 H   0  0  0  0  0  0  0  0  0  0  0  0
   -4.4575   -2.6767    0.4241 H   0  0  0  0  0  0  0  0  0  0  0  0
   -3.3000   -1.8986    2.4500 H   0  0  0  0  0  0  0  0  0  0  0  0
   -1.1917   -0.6460    2.2638 H   0  0  0  0  0  0  0  0  0  0  0  0
   -1.4200   -0.9407   -2.0118 H   0  0  0  0  0  0  0  0  0  0  0  0
    3.1277    3.5700    0.0077 H   0  0  0  0  0  0  0  0  0  0  0  0
    2.2659    5.0122    0.0126 H   0  0  0  0  0  0  0  0  0  0  0  0
   -2.8174    4.3052   -1.0100 H   0  0  0  0  0  0  0  0  0  0  0  0
   -3.2665    3.5346    0.5303 H   0  0  0  0  0  0  0  0  0  0  0  0
   -6.9756    6.3608   -0.1648 H   0  0  0  0  0  0  0  0  0  0  0  0
   -6.2820    8.5323    1.1242 H   0  0  0  0  0  0  0  0  0  0  0  0
   -3.0314    9.2248    1.2452 H   0  0  0  0  0  0  0  0  0  0  0  0
   -4.1256    9.0922    2.6429 H   0  0  0  0  0  0  0  0  0  0  0  0
   -2.7185    8.0105    2.5084 H   0  0  0  0  0  0  0  0  0  0  0  0
   -4.9171    5.7807    0.1448 N   0  3  0  0  0  0  0  0  0  0  0  0
   -4.8949    4.8601   -0.3093 H   0  0  0  0  0  0  0  0  0  0  0  0
  1  2  1  0  0  0  0
  1 24  1  0  0  0  0
  1 25  1  0  0  0  0
  1 26  1  0  0  0  0
  2  7  2  0  0  0  0
  2  3  1  0  0  0  0
  3  4  2  0  0  0  0
  3 27  1  0  0  0  0
  4  5  1  0  0  0  0
  4 28  1  0  0  0  0
  5  6  2  0  0  0  0
  5 29  1  0  0  0  0
  6  7  1  0  0  0  0
  6  8  1  0  0  0  0
  7 30  1  0  0  0  0
  8  9  2  0  0  0  0
  9 15  1  0  0  0  0
  9 10  1  0  0  0  0
 10 11  1  0  0  0  0
 10 12  1  0  0  0  0
 12 13  2  0  0  0  0
 12 17  1  0  0  0  0
 13 14  1  0  0  0  0
 14 15  2  0  0  0  0
 14 16  1  0  0  0  0
 16 31  1  0  0  0  0
 16 32  1  0  0  0  0
 17 18  1  0  0  0  0
 17 33  1  0  0  0  0
 17 34  1  0  0  0  0
 18 19  1  0  0  0  0
 19 22  1  0  0  0  0
 19 40  2  0  0  0  0
 20 21  2  0  0  0  0
 20 35  1  0  0  0  0
 20 40  1  0  0  0  0
 21 22  1  0  0  0  0
 21 36  1  0  0  0  0
 22 23  1  0  0  0  0
 23 37  1  0  0  0  0
 23 38  1  0  0  0  0
 23 39  1  0  0  0  0
 40 41  1  0  0  0  0
M  CHG  1  40   1
M  END
$$$$
ZINC03852764
  -OEChem-08230709453D

 43 44  0     0  0  0  0  0  0999 V2000
   -0.9201   -2.0243   -1.8523 C   0  0  0  0  0  0  0  0  0  0  0  0
   -1.7125   -1.9925   -0.5709 C   0  0  0  0  0  0  0  0  0  0  0  0
   -1.3968   -1.1054    0.4455 C   0  0  0  0  0  0  0  0  0  0  0  0
   -2.1765   -1.1409    1.6067 C   0  0  0  0  0  0  0  0  0  0  0  0
   -3.3297   -2.3880    1.2611 S   0  0  0  0  0  0  0  0  0  0  0  0
   -2.7702   -2.8392   -0.3703 C   0  0  0  0  0  0  0  0  0  0  0  0
   -3.3065   -3.8594   -1.2699 C   0  0  0  0  0  0  0  0  0  0  0  0
   -2.7969   -4.0377   -2.3601 O   0  0  0  0  0  0  0  0  0  0  0  0
   -4.3667   -4.6031   -0.8909 O   0  0  0  0  0  0  0  0  0  0  0  0
   -4.8382   -5.5813   -1.8198 C   0  0  0  0  0  0  0  0  0  0  0  0
   -4.1152   -6.9073   -1.5749 C   0  0  0  0  0  0  0  0  0  0  0  0
   -6.3437   -5.7791   -1.6320 C   0  0  0  0  0  0  0  0  0  0  0  0
   -2.0582   -0.3713    2.7452 N   0  0  0  0  0  0  0  0  0  0  0  0
   -2.9118   -0.5520    3.7724 C   0  0  0  0  0  0  0  0  0  0  0  0
   -3.7875   -1.3947    3.6955 O   0  0  0  0  0  0  0  0  0  0  0  0
   -2.7905    0.2372    4.9398 C   0  0  0  0  0  0  0  0  0  0  0  0
   -3.7259    0.1487    5.9188 C   0  0  0  0  0  0  0  0  0  0  0  0
   -4.9274   -0.5634    5.6876 C   0  0  0  0  0  0  0  0  0  0  0  0
   -5.5631   -1.3982    6.5835 C   0  0  0  0  0  0  0  0  0  0  0  0
   -6.7098   -1.8808    5.9349 C   0  0  0  0  0  0  0  0  0  0  0  0
   -6.7244   -1.3424    4.6952 C   0  0  0  0  0  0  0  0  0  0  0  0
   -5.6524   -0.5514    4.5495 O   0  0  0  0  0  0  0  0  0  0  0  0
   -0.2777   -0.1637    0.3109 C   0  0  0  0  0  0  0  0  0  0  0  0
   -0.4653    0.9400   -0.1655 O   0  0  0  0  0  0  0  0  0  0  0  0
    0.9570   -0.5222    0.7152 N   0  0  0  0  0  0  0  0  0  0  0  0
   -0.0937   -2.7278   -1.7512 H   0  0  0  0  0  0  0  0  0  0  0  0
   -1.5667   -2.3386   -2.6716 H   0  0  0  0  0  0  0  0  0  0  0  0
   -0.5267   -1.0294   -2.0611 H   0  0  0  0  0  0  0  0  0  0  0  0
   -4.6403   -5.2420   -2.8365 H   0  0  0  0  0  0  0  0  0  0  0  0
   -4.4748   -7.6535   -2.2834 H   0  0  0  0  0  0  0  0  0  0  0  0
   -3.0426   -6.7664   -1.7087 H   0  0  0  0  0  0  0  0  0  0  0  0
   -4.3130   -7.2466   -0.5581 H   0  0  0  0  0  0  0  0  0  0  0  0
   -6.8588   -4.8344   -1.8065 H   0  0  0  0  0  0  0  0  0  0  0  0
   -6.7033   -6.5252   -2.3405 H   0  0  0  0  0  0  0  0  0  0  0  0
   -6.5415   -6.1184   -0.6152 H   0  0  0  0  0  0  0  0  0  0  0  0
   -1.3607    0.3000    2.8065 H   0  0  0  0  0  0  0  0  0  0  0  0
   -1.9533    0.9102    5.0520 H   0  0  0  0  0  0  0  0  0  0  0  0
   -3.5538    0.6214    6.8745 H   0  0  0  0  0  0  0  0  0  0  0  0
   -5.2421   -1.6326    7.5877 H   0  0  0  0  0  0  0  0  0  0  0  0
   -7.4417   -2.5593    6.3475 H   0  0  0  0  0  0  0  0  0  0  0  0
   -7.4783   -1.5213    3.9429 H   0  0  0  0  0  0  0  0  0  0  0  0
    1.1065   -1.4022    1.0950 H   0  0  0  0  0  0  0  0  0  0  0  0
    1.6968    0.0982    0.6227 H   0  0  0  0  0  0  0  0  0  0  0  0
  1  2  1  0  0  0  0
  1 26  1  0  0  0  0
  1 27  1  0  0  0  0
  1 28  1  0  0  0  0
  2  6  2  0  0  0  0
  2  3  1  0  0  0  0
  3  4  2  0  0  0  0
  3 23  1  0  0  0  0
  4  5  1  0  0  0  0
  4 13  1  0  0  0  0
  5  6  1  0  0  0  0
  6  7  1  0  0  0  0
  7  8  2  0  0  0  0
  7  9  1  0  0  0  0
  9 10  1  0  0  0  0
 10 11  1  0  0  0  0
 10 12  1  0  0  0  0
 10 29  1  0  0  0  0
 11 30  1  0  0  0  0
 11 31  1  0  0  0  0
 11 32  1  0  0  0  0
 12 33  1  0  0  0  0
 12 34  1  0  0  0  0
 12 35  1  0  0  0  0
 13 14  1  0  0  0  0
 13 36  1  0  0  0  0
 14 15  2  0  0  0  0
 14 16  1  0  0  0  0
 16 17  2  0  0  0  0
 16 37  1  0  0  0  0
 17 18  1  0  0  0  0
 17 38  1  0  0  0  0
 18 22  1  0  0  0  0
 18 19  2  0  0  0  0
 19 20  1  0  0  0  0
 19 39  1  0  0  0  0
 20 21  2  0  0  0  0
 20 40  1  0  0  0  0
 21 22  1  0  0  0  0
 21 41  1  0  0  0  0
 23 24  2  0  0  0  0
 23 25  1  0  0  0  0
 25 42  1  0  0  0  0
 25 43  1  0  0  0  0
M  END
$$$$
ZINC03853412
  -OEChem-08230709453D

 41 43  0     0  0  0  0  0  0999 V2000
    1.3650    2.4705   -3.2394 C   0  0  0  0  0  0  0  0  0  0  0  0
    1.0496    1.6082   -2.1444 O   0  0  0  0  0  0  0  0  0  0  0  0
    1.9033    1.6172   -1.0858 C   0  0  0  0  0  0  0  0  0  0  0  0
    3.0130    2.4405   -1.1012 C   0  0  0  0  0  0  0  0  0  0  0  0
    3.8945    2.4444   -0.0135 C   0  0  0  0  0  0  0  0  0  0  0  0
    3.6444    1.6178    1.0884 C   0  0  0  0  0  0  0  0  0  0  0  0
    2.5294    0.8016    1.0987 C   0  0  0  0  0  0  0  0  0  0  0  0
    1.6550    0.8006    0.0147 C   0  0  0  0  0  0  0  0  0  0  0  0
    0.5592   -0.0037    0.0285 O   0  0  0  0  0  0  0  0  0  0  0  0
    2.2859   -0.0020    2.1684 O   0  0  0  0  0  0  0  0  0  0  0  0
    3.2238    0.0493    3.2453 C   0  0  0  0  0  0  0  0  0  0  0  0
    5.0786    3.3129   -0.0286 C   0  0  0  0  0  0  0  0  0  0  0  0
    5.6628    3.6840    1.1385 C   0  0  0  0  0  0  0  0  0  0  0  0
    6.9354    4.4003    1.3124 C   0  0  0  0  0  0  0  0  0  0  0  0
    7.6844    4.7838    0.4330 O   0  0  0  0  0  0  0  0  0  0  0  0
    7.1055    4.5468    2.6420 N   0  0  0  0  0  0  0  0  0  0  0  0
    6.0719    3.9959    3.2968 C   0  0  0  0  0  0  0  0  0  0  0  0
    5.9548    3.9775    4.5071 O   0  0  0  0  0  0  0  0  0  0  0  0
    5.1799    3.4722    2.4375 N   0  0  0  0  0  0  0  0  0  0  0  0
    8.1989    5.1795    3.2493 C   0  0  0  0  0  0  0  0  0  0  0  0
    9.2173    5.7100    2.4685 C   0  0  0  0  0  0  0  0  0  0  0  0
   10.2908    6.3380    3.0689 C   0  0  0  0  0  0  0  0  0  0  0  0
   10.3584    6.4292    4.4470 C   0  0  0  0  0  0  0  0  0  0  0  0
    9.3481    5.8967    5.2285 C   0  0  0  0  0  0  0  0  0  0  0  0
    8.2683    5.2720    4.6324 C   0  0  0  0  0  0  0  0  0  0  0  0
    9.4368    6.0128    6.9583 Cl  0  0  0  0  0  0  0  0  0  0  0  0
    1.3907    3.5035   -2.8927 H   0  0  0  0  0  0  0  0  0  0  0  0
    2.3391    2.1994   -3.6464 H   0  0  0  0  0  0  0  0  0  0  0  0
    0.6056    2.3661   -4.0144 H   0  0  0  0  0  0  0  0  0  0  0  0
    3.2025    3.0767   -1.9530 H   0  0  0  0  0  0  0  0  0  0  0  0
    4.3219    1.6183    1.9295 H   0  0  0  0  0  0  0  0  0  0  0  0
   -0.2272    0.4095    0.4106 H   0  0  0  0  0  0  0  0  0  0  0  0
    4.2105   -0.2379    2.8817 H   0  0  0  0  0  0  0  0  0  0  0  0
    3.2644    1.0631    3.6437 H   0  0  0  0  0  0  0  0  0  0  0  0
    2.9121   -0.6380    4.0317 H   0  0  0  0  0  0  0  0  0  0  0  0
    5.4844    3.6564   -0.9687 H   0  0  0  0  0  0  0  0  0  0  0  0
    4.3517    3.0262    2.6742 H   0  0  0  0  0  0  0  0  0  0  0  0
    9.1679    5.6351    1.3923 H   0  0  0  0  0  0  0  0  0  0  0  0
   11.0808    6.7545    2.4615 H   0  0  0  0  0  0  0  0  0  0  0  0
   11.2013    6.9166    4.9143 H   0  0  0  0  0  0  0  0  0  0  0  0
    7.4800    4.8561    5.2423 H   0  0  0  0  0  0  0  0  0  0  0  0
  1  2  1  0  0  0  0
  1 27  1  0  0  0  0
  1 28  1  0  0  0  0
  1 29  1  0  0  0  0
  2  3  1  0  0  0  0
  3  8  2  0  0  0  0
  3  4  1  0  0  0  0
  4  5  2  0  0  0  0
  4 30  1  0  0  0  0
  5  6  1  0  0  0  0
  5 12  1  0  0  0  0
  6  7  2  0  0  0  0
  6 31  1  0  0  0  0
  7  8  1  0  0  0  0
  7 10  1  0  0  0  0
  8  9  1  0  0  0  0
  9 32  1  0  0  0  0
 10 11  1  0  0  0  0
 11 33  1  0  0  0  0
 11 34  1  0  0  0  0
 11 35  1  0  0  0  0
 12 13  2  0  0  0  0
 12 36  1  0  0  0  0
 13 19  1  0  0  0  0
 13 14  1  0  0  0  0
 14 15  2  0  0  0  0
 14 16  1  0  0  0  0
 16 17  1  0  0  0  0
 16 20  1  0  0  0  0
 17 18  2  0  0  0  0
 17 19  1  0  0  0  0
 19 37  1  0  0  0  0
 20 25  2  0  0  0  0
 20 21  1  0  0  0  0
 21 22  2  0  0  0  0
 21 38  1  0  0  0  0
 22 23  1  0  0  0  0
 22 39  1  0  0  0  0
 23 24  2  0  0  0  0
 23 40  1  0  0  0  0
 24 25  1  0  0  0  0
 24 26  1  0  0  0  0
 25 41  1  0  0  0  0
M  END
$$$$
ZINC03854060
  -OEChem-08230709453D

 42 44  0     0  0  0  0  0  0999 V2000
    0.5790    7.2724   -0.0182 C   0  0  0  0  0  0  0  0  0  0  0  0
    0.8031    5.7821   -0.0240 C   0  0  0  0  0  0  0  0  0  0  0  0
    2.0996    5.2797   -0.0279 C   0  0  0  0  0  0  0  0  0  0  0  0
    2.2795    3.8854   -0.0279 C   0  0  0  0  0  0  0  0  0  0  0  0
    3.6307    3.3230   -0.0379 C   0  0  0  0  0  0  0  0  0  0  0  0
    4.6919    4.1905   -0.0364 C   0  0  0  0  0  0  0  0  0  0  0  0
    4.4267    5.6397   -0.0307 C   0  0  0  0  0  0  0  0  0  0  0  0
    5.4269    6.4783   -0.0293 N   0  0  0  0  0  0  0  0  0  0  0  0
    3.1634    6.1099   -0.0265 O   0  0  0  0  0  0  0  0  0  0  0  0
    6.0745    3.6822   -0.0408 C   0  0  0  0  0  0  0  0  0  0  0  0
    7.0087    4.4611   -0.0398 O   0  0  0  0  0  0  0  0  0  0  0  0
    6.3042    2.3542   -0.0460 N   0  0  0  0  0  0  0  0  0  0  0  0
    7.6128    1.8705   -0.1672 C   0  0  0  0  0  0  0  0  0  0  0  0
    8.5871    2.6462   -0.7787 C   0  0  0  0  0  0  0  0  0  0  0  0
    9.8796    2.1680   -0.8932 C   0  0  0  0  0  0  0  0  0  0  0  0
   10.2016    0.9127   -0.4078 C   0  0  0  0  0  0  0  0  0  0  0  0
    9.2341    0.1327    0.1977 C   0  0  0  0  0  0  0  0  0  0  0  0
    7.9382    0.6068    0.3206 C   0  0  0  0  0  0  0  0  0  0  0  0
    6.9856   -0.1599    0.9158 O   0  0  0  0  0  0  0  0  0  0  0  0
    7.3912   -1.4447    1.3922 C   0  0  0  0  0  0  0  0  0  0  0  0
   11.0994    3.1419   -1.6531 Cl  0  0  0  0  0  0  0  0  0  0  0  0
    1.1466    3.0612   -0.0355 C   0  0  0  0  0  0  0  0  0  0  0  0
   -0.0992    3.6526   -0.0313 C   0  0  0  0  0  0  0  0  0  0  0  0
   -0.2303    4.9664   -0.0259 N   0  0  0  0  0  0  0  0  0  0  0  0
    1.2863    1.5607   -0.0417 C   0  0  0  0  0  0  0  0  0  0  0  0
   -0.0110    0.9615   -0.0424 O   0  0  0  0  0  0  0  0  0  0  0  0
    0.5262    7.6279    1.0108 H   0  0  0  0  0  0  0  0  0  0  0  0
    1.4045    7.7659   -0.5312 H   0  0  0  0  0  0  0  0  0  0  0  0
   -0.3557    7.5013   -0.5301 H   0  0  0  0  0  0  0  0  0  0  0  0
    3.7872    2.2544   -0.0423 H   0  0  0  0  0  0  0  0  0  0  0  0
    5.2588    7.4336   -0.0252 H   0  0  0  0  0  0  0  0  0  0  0  0
    5.5632    1.7335    0.0343 H   0  0  0  0  0  0  0  0  0  0  0  0
    8.3371    3.6245   -1.1618 H   0  0  0  0  0  0  0  0  0  0  0  0
   11.2113    0.5413   -0.5026 H   0  0  0  0  0  0  0  0  0  0  0  0
    9.4885   -0.8468    0.5749 H   0  0  0  0  0  0  0  0  0  0  0  0
    7.7674   -2.0389    0.5595 H   0  0  0  0  0  0  0  0  0  0  0  0
    8.1778   -1.3242    2.1371 H   0  0  0  0  0  0  0  0  0  0  0  0
    6.5379   -1.9508    1.8435 H   0  0  0  0  0  0  0  0  0  0  0  0
   -0.9822    3.0308   -0.0322 H   0  0  0  0  0  0  0  0  0  0  0  0
    1.8329    1.2430    0.8462 H   0  0  0  0  0  0  0  0  0  0  0  0
    1.8304    1.2502   -0.9337 H   0  0  0  0  0  0  0  0  0  0  0  0
    0.0024   -0.0054   -0.0463 H   0  0  0  0  0  0  0  0  0  0  0  0
  1  2  1  0  0  0  0
  1 27  1  0  0  0  0
  1 28  1  0  0  0  0
  1 29  1  0  0  0  0
  2 24  2  0  0  0  0
  2  3  1  0  0  0  0
  3  9  1  0  0  0  0
  3  4  2  0  0  0  0
  4  5  1  0  0  0  0
  4 22  1  0  0  0  0
  5  6  2  0  0  0  0
  5 30  1  0  0  0  0
  6  7  1  0  0  0  0
  6 10  1  0  0  0  0
  7  8  2  0  0  0  0
  7  9  1  0  0  0  0
  8 31  1  0  0  0  0
 10 11  2  0  0  0  0
 10 12  1  0  0  0  0
 12 13  1  0  0  0  0
 12 32  1  0  0  0  0
 13 18  2  0  0  0  0
 13 14  1  0  0  0  0
 14 15  2  0  0  0  0
 14 33  1  0  0  0  0
 15 16  1  0  0  0  0
 15 21  1  0  0  0  0
 16 17  2  0  0  0  0
 16 34  1  0  0  0  0
 17 18  1  0  0  0  0
 17 35  1  0  0  0  0
 18 19  1  0  0  0  0
 19 20  1  0  0  0  0
 20 36  1  0  0  0  0
 20 37  1  0  0  0  0
 20 38  1  0  0  0  0
 22 23  2  0  0  0  0
 22 25  1  0  0  0  0
 23 24  1  0  0  0  0
 23 39  1  0  0  0  0
 25 26  1  0  0  0  0
 25 40  1  0  0  0  0
 25 41  1  0  0  0  0
 26 42  1  0  0  0  0
M  END
$$$$
ZINC03854061
  -OEChem-08230709453D

 42 44  0     0  0  0  0  0  0999 V2000
    0.5801    7.2727    0.0628 C   0  0  0  0  0  0  0  0  0  0  0  0
    0.8040    5.7825    0.0552 C   0  0  0  0  0  0  0  0  0  0  0  0
    2.1002    5.2799    0.0325 C   0  0  0  0  0  0  0  0  0  0  0  0
    2.2801    3.8856    0.0308 C   0  0  0  0  0  0  0  0  0  0  0  0
    3.6312    3.3233    0.0134 C   0  0  0  0  0  0  0  0  0  0  0  0
    4.6923    4.1908    0.0043 C   0  0  0  0  0  0  0  0  0  0  0  0
    4.4272    5.6400    0.0123 C   0  0  0  0  0  0  0  0  0  0  0  0
    5.4273    6.4786    0.0034 N   0  0  0  0  0  0  0  0  0  0  0  0
    3.1639    6.1102    0.0180 O   0  0  0  0  0  0  0  0  0  0  0  0
    6.0748    3.6826   -0.0128 C   0  0  0  0  0  0  0  0  0  0  0  0
    7.0091    4.4615   -0.0208 O   0  0  0  0  0  0  0  0  0  0  0  0
    6.3046    2.3546   -0.0195 N   0  0  0  0  0  0  0  0  0  0  0  0
    7.6137    1.8711   -0.1336 C   0  0  0  0  0  0  0  0  0  0  0  0
    7.8624    0.6975   -0.8334 C   0  0  0  0  0  0  0  0  0  0  0  0
    9.1542    0.2240   -0.9507 C   0  0  0  0  0  0  0  0  0  0  0  0
   10.2027    0.9139   -0.3601 C   0  0  0  0  0  0  0  0  0  0  0  0
    9.9548    2.0839    0.3444 C   0  0  0  0  0  0  0  0  0  0  0  0
    8.6631    2.5618    0.4576 C   0  0  0  0  0  0  0  0  0  0  0  0
   11.2676    2.9471    1.0829 Cl  0  0  0  0  0  0  0  0  0  0  0  0
   11.4740    0.4440   -0.4718 O   0  0  0  0  0  0  0  0  0  0  0  0
   11.6560   -0.7654   -1.2109 C   0  0  0  0  0  0  0  0  0  0  0  0
    1.1472    3.0615    0.0414 C   0  0  0  0  0  0  0  0  0  0  0  0
   -0.0984    3.6530    0.0635 C   0  0  0  0  0  0  0  0  0  0  0  0
   -0.2293    4.9668    0.0696 N   0  0  0  0  0  0  0  0  0  0  0  0
    1.2867    1.5610    0.0351 C   0  0  0  0  0  0  0  0  0  0  0  0
   -0.0104    0.9618    0.0549 O   0  0  0  0  0  0  0  0  0  0  0  0
    0.5426    7.6293    1.0921 H   0  0  0  0  0  0  0  0  0  0  0  0
    1.3978    7.7657   -0.4629 H   0  0  0  0  0  0  0  0  0  0  0  0
   -0.3621    7.5011   -0.4353 H   0  0  0  0  0  0  0  0  0  0  0  0
    3.7877    2.2547    0.0083 H   0  0  0  0  0  0  0  0  0  0  0  0
    5.2593    7.4340    0.0086 H   0  0  0  0  0  0  0  0  0  0  0  0
    5.5630    1.7337    0.0546 H   0  0  0  0  0  0  0  0  0  0  0  0
    7.0458    0.1576   -1.2897 H   0  0  0  0  0  0  0  0  0  0  0  0
    9.3478   -0.6864   -1.4984 H   0  0  0  0  0  0  0  0  0  0  0  0
    8.4699    3.4719    1.0061 H   0  0  0  0  0  0  0  0  0  0  0  0
   11.3057   -0.6228   -2.2331 H   0  0  0  0  0  0  0  0  0  0  0  0
   12.7138   -1.0283   -1.2227 H   0  0  0  0  0  0  0  0  0  0  0  0
   11.0875   -1.5677   -0.7406 H   0  0  0  0  0  0  0  0  0  0  0  0
   -0.9813    3.0312    0.0764 H   0  0  0  0  0  0  0  0  0  0  0  0
    1.8466    1.2444    0.9151 H   0  0  0  0  0  0  0  0  0  0  0  0
    1.8173    1.2492   -0.8646 H   0  0  0  0  0  0  0  0  0  0  0  0
    0.0028   -0.0051    0.0521 H   0  0  0  0  0  0  0  0  0  0  0  0
  1  2  1  0  0  0  0
  1 27  1  0  0  0  0
  1 28  1  0  0  0  0
  1 29  1  0  0  0  0
  2 24  2  0  0  0  0
  2  3  1  0  0  0  0
  3  9  1  0  0  0  0
  3  4  2  0  0  0  0
  4  5  1  0  0  0  0
  4 22  1  0  0  0  0
  5  6  2  0  0  0  0
  5 30  1  0  0  0  0
  6  7  1  0  0  0  0
  6 10  1  0  0  0  0
  7  8  2  0  0  0  0
  7  9  1  0  0  0  0
  8 31  1  0  0  0  0
 10 11  2  0  0  0  0
 10 12  1  0  0  0  0
 12 13  1  0  0  0  0
 12 32  1  0  0  0  0
 13 18  2  0  0  0  0
 13 14  1  0  0  0  0
 14 15  2  0  0  0  0
 14 33  1  0  0  0  0
 15 16  1  0  0  0  0
 15 34  1  0  0  0  0
 16 17  2  0  0  0  0
 16 20  1  0  0  0  0
 17 18  1  0  0  0  0
 17 19  1  0  0  0  0
 18 35  1  0  0  0  0
 20 21  1  0  0  0  0
 21 36  1  0  0  0  0
 21 37  1  0  0  0  0
 21 38  1  0  0  0  0
 22 23  2  0  0  0  0
 22 25  1  0  0  0  0
 23 24  1  0  0  0  0
 23 39  1  0  0  0  0
 25 26  1  0  0  0  0
 25 40  1  0  0  0  0
 25 41  1  0  0  0  0
 26 42  1  0  0  0  0
M  END
$$$$
ZINC03854062
  -OEChem-08230709453D

 41 43  0     0  0  0  0  0  0999 V2000
   11.6078    0.3936   -0.4834 C   0  0  0  0  0  0  0  0  0  0  0  0
   10.1991    0.9147   -0.3600 C   0  0  0  0  0  0  0  0  0  0  0  0
    9.1546    0.2264   -0.9495 C   0  0  0  0  0  0  0  0  0  0  0  0
    7.8619    0.6980   -0.8335 C   0  0  0  0  0  0  0  0  0  0  0  0
    7.6120    1.8718   -0.1338 C   0  0  0  0  0  0  0  0  0  0  0  0
    8.6623    2.5617    0.4569 C   0  0  0  0  0  0  0  0  0  0  0  0
    9.9535    2.0813    0.3426 C   0  0  0  0  0  0  0  0  0  0  0  0
   11.2679    2.9425    1.0806 Cl  0  0  0  0  0  0  0  0  0  0  0  0
    6.3046    2.3546   -0.0198 N   0  0  0  0  0  0  0  0  0  0  0  0
    6.0748    3.6826   -0.0130 C   0  0  0  0  0  0  0  0  0  0  0  0
    7.0090    4.4615   -0.0211 O   0  0  0  0  0  0  0  0  0  0  0  0
    4.6924    4.1908    0.0041 C   0  0  0  0  0  0  0  0  0  0  0  0
    3.6312    3.3233    0.0133 C   0  0  0  0  0  0  0  0  0  0  0  0
    2.2801    3.8856    0.0308 C   0  0  0  0  0  0  0  0  0  0  0  0
    1.1472    3.0615    0.0413 C   0  0  0  0  0  0  0  0  0  0  0  0
   -0.0984    3.6530    0.0634 C   0  0  0  0  0  0  0  0  0  0  0  0
   -0.2293    4.9668    0.0700 N   0  0  0  0  0  0  0  0  0  0  0  0
    0.8040    5.7825    0.0556 C   0  0  0  0  0  0  0  0  0  0  0  0
    2.1002    5.2799    0.0325 C   0  0  0  0  0  0  0  0  0  0  0  0
    3.1639    6.1102    0.0181 O   0  0  0  0  0  0  0  0  0  0  0  0
    4.4272    5.6401    0.0122 C   0  0  0  0  0  0  0  0  0  0  0  0
    5.4273    6.4787    0.0036 N   0  0  0  0  0  0  0  0  0  0  0  0
    0.5801    7.2727    0.0637 C   0  0  0  0  0  0  0  0  0  0  0  0
    1.2867    1.5610    0.0350 C   0  0  0  0  0  0  0  0  0  0  0  0
   -0.0104    0.9618    0.0548 O   0  0  0  0  0  0  0  0  0  0  0  0
   11.8211   -0.2776    0.3485 H   0  0  0  0  0  0  0  0  0  0  0  0
   11.7138   -0.1478   -1.4235 H   0  0  0  0  0  0  0  0  0  0  0  0
   12.3073    1.2293   -0.4645 H   0  0  0  0  0  0  0  0  0  0  0  0
    9.3495   -0.6838   -1.4972 H   0  0  0  0  0  0  0  0  0  0  0  0
    7.0463    0.1570   -1.2902 H   0  0  0  0  0  0  0  0  0  0  0  0
    8.4707    3.4722    1.0053 H   0  0  0  0  0  0  0  0  0  0  0  0
    5.5631    1.7337    0.0544 H   0  0  0  0  0  0  0  0  0  0  0  0
    3.7877    2.2547    0.0081 H   0  0  0  0  0  0  0  0  0  0  0  0
   -0.9813    3.0312    0.0760 H   0  0  0  0  0  0  0  0  0  0  0  0
    5.2593    7.4340    0.0089 H   0  0  0  0  0  0  0  0  0  0  0  0
    0.5428    7.6289    1.0932 H   0  0  0  0  0  0  0  0  0  0  0  0
    1.3977    7.7659   -0.4620 H   0  0  0  0  0  0  0  0  0  0  0  0
   -0.3623    7.5013   -0.4341 H   0  0  0  0  0  0  0  0  0  0  0  0
    1.8466    1.2444    0.9151 H   0  0  0  0  0  0  0  0  0  0  0  0
    1.8173    1.2492   -0.8646 H   0  0  0  0  0  0  0  0  0  0  0  0
    0.0028   -0.0051    0.0520 H   0  0  0  0  0  0  0  0  0  0  0  0
  1  2  1  0  0  0  0
  1 26  1  0  0  0  0
  1 27  1  0  0  0  0
  1 28  1  0  0  0  0
  2  7  2  0  0  0  0
  2  3  1  0  0  0  0
  3  4  2  0  0  0  0
  3 29  1  0  0  0  0
  4  5  1  0  0  0  0
  4 30  1  0  0  0  0
  5  6  2  0  0  0  0
  5  9  1  0  0  0  0
  6  7  1  0  0  0  0
  6 31  1  0  0  0  0
  7  8  1  0  0  0  0
  9 10  1  0  0  0  0
  9 32  1  0  0  0  0
 10 11  2  0  0  0  0
 10 12  1  0  0  0  0
 12 21  1  0  0  0  0
 12 13  2  0  0  0  0
 13 14  1  0  0  0  0
 13 33  1  0  0  0  0
 14 19  2  0  0  0  0
 14 15  1  0  0  0  0
 15 16  2  0  0  0  0
 15 24  1  0  0  0  0
 16 17  1  0  0  0  0
 16 34  1  0  0  0  0
 17 18  2  0  0  0  0
 18 19  1  0  0  0  0
 18 23  1  0  0  0  0
 19 20  1  0  0  0  0
 20 21  1  0  0  0  0
 21 22  2  0  0  0  0
 22 35  1  0  0  0  0
 23 36  1  0  0  0  0
 23 37  1  0  0  0  0
 23 38  1  0  0  0  0
 24 25  1  0  0  0  0
 24 39  1  0  0  0  0
 24 40  1  0  0  0  0
 25 41  1  0  0  0  0
M  END
$$$$
ZINC03854077
  -OEChem-08230709453D

 41 43  0     0  0  0  0  0  0999 V2000
    3.3534   11.5841    2.7459 C   0  0  0  0  0  0  0  0  0  0  0  0
    3.7951   10.1855    2.3995 C   0  0  0  0  0  0  0  0  0  0  0  0
    3.5085    9.1402    3.2598 C   0  0  0  0  0  0  0  0  0  0  0  0
    3.9093    7.8569    2.9502 C   0  0  0  0  0  0  0  0  0  0  0  0
    4.6062    7.6130    1.7648 C   0  0  0  0  0  0  0  0  0  0  0  0
    4.8975    8.6746    0.9018 C   0  0  0  0  0  0  0  0  0  0  0  0
    4.4854    9.9532    1.2231 C   0  0  0  0  0  0  0  0  0  0  0  0
    5.5756    8.4492   -0.2447 F   0  0  0  0  0  0  0  0  0  0  0  0
    5.0069    6.3429    1.4519 N   0  0  0  0  0  0  0  0  0  0  0  0
    4.2170    5.5577    0.7537 C   0  0  0  0  0  0  0  0  0  0  0  0
    4.5724    4.1446    0.5128 C   0  0  0  0  0  0  0  0  0  0  0  0
    3.5375    3.2621    0.2955 C   0  0  0  0  0  0  0  0  0  0  0  0
    2.1770    3.8033    0.3202 C   0  0  0  0  0  0  0  0  0  0  0  0
    1.0532    2.9700    0.3738 C   0  0  0  0  0  0  0  0  0  0  0  0
   -0.1968    3.5529    0.4061 C   0  0  0  0  0  0  0  0  0  0  0  0
   -0.3405    4.8652    0.3812 N   0  0  0  0  0  0  0  0  0  0  0  0
    0.6851    5.6906    0.3237 C   0  0  0  0  0  0  0  0  0  0  0  0
    1.9815    5.1970    0.2864 C   0  0  0  0  0  0  0  0  0  0  0  0
    3.0515    6.0239    0.2218 O   0  0  0  0  0  0  0  0  0  0  0  0
    0.4488    7.1787    0.2979 C   0  0  0  0  0  0  0  0  0  0  0  0
    1.2057    1.4710    0.4018 C   0  0  0  0  0  0  0  0  0  0  0  0
   -0.0855    0.8619    0.4623 O   0  0  0  0  0  0  0  0  0  0  0  0
    5.9772    3.6970    0.5057 C   0  0  0  0  0  0  0  0  0  0  0  0
    6.2415    2.5271    0.3051 O   0  0  0  0  0  0  0  0  0  0  0  0
    6.9683    4.5844    0.7216 N   0  0  0  0  0  0  0  0  0  0  0  0
    4.1360   12.0807    3.3193 H   0  0  0  0  0  0  0  0  0  0  0  0
    3.1643   12.1429    1.8293 H   0  0  0  0  0  0  0  0  0  0  0  0
    2.4403   11.5402    3.3395 H   0  0  0  0  0  0  0  0  0  0  0  0
    2.9699    9.3296    4.1765 H   0  0  0  0  0  0  0  0  0  0  0  0
    3.6848    7.0428    3.6234 H   0  0  0  0  0  0  0  0  0  0  0  0
    4.7056   10.7739    0.5564 H   0  0  0  0  0  0  0  0  0  0  0  0
    3.7219    2.2134    0.1146 H   0  0  0  0  0  0  0  0  0  0  0  0
   -1.0738    2.9243    0.4522 H   0  0  0  0  0  0  0  0  0  0  0  0
    0.3833    7.5540    1.3191 H   0  0  0  0  0  0  0  0  0  0  0  0
    1.2751    7.6689   -0.2171 H   0  0  0  0  0  0  0  0  0  0  0  0
   -0.4828    7.3896   -0.2272 H   0  0  0  0  0  0  0  0  0  0  0  0
    1.7856    1.1811    1.2780 H   0  0  0  0  0  0  0  0  0  0  0  0
    1.7211    1.1413   -0.5003 H   0  0  0  0  0  0  0  0  0  0  0  0
   -0.0639   -0.1046    0.4831 H   0  0  0  0  0  0  0  0  0  0  0  0
    6.7575    5.5176    0.8817 H   0  0  0  0  0  0  0  0  0  0  0  0
    7.8925    4.2899    0.7170 H   0  0  0  0  0  0  0  0  0  0  0  0
  1  2  1  0  0  0  0
  1 26  1  0  0  0  0
  1 27  1  0  0  0  0
  1 28  1  0  0  0  0
  2  7  2  0  0  0  0
  2  3  1  0  0  0  0
  3  4  2  0  0  0  0
  3 29  1  0  0  0  0
  4  5  1  0  0  0  0
  4 30  1  0  0  0  0
  5  6  2  0  0  0  0
  5  9  1  0  0  0  0
  6  7  1  0  0  0  0
  6  8  1  0  0  0  0
  7 31  1  0  0  0  0
  9 10  2  0  0  0  0
 10 19  1  0  0  0  0
 10 11  1  0  0  0  0
 11 12  2  0  0  0  0
 11 23  1  0  0  0  0
 12 13  1  0  0  0  0
 12 32  1  0  0  0  0
 13 18  2  0  0  0  0
 13 14  1  0  0  0  0
 14 15  2  0  0  0  0
 14 21  1  0  0  0  0
 15 16  1  0  0  0  0
 15 33  1  0  0  0  0
 16 17  2  0  0  0  0
 17 18  1  0  0  0  0
 17 20  1  0  0  0  0
 18 19  1  0  0  0  0
 20 34  1  0  0  0  0
 20 35  1  0  0  0  0
 20 36  1  0  0  0  0
 21 22  1  0  0  0  0
 21 37  1  0  0  0  0
 21 38  1  0  0  0  0
 22 39  1  0  0  0  0
 23 24  2  0  0  0  0
 23 25  1  0  0  0  0
 25 40  1  0  0  0  0
 25 41  1  0  0  0  0
M  END
$$$$
ZINC03854082
  -OEChem-08230709453D

 44 46  0     0  0  0  0  0  0999 V2000
    6.3656    3.3162   -3.2337 C   0  0  0  0  0  0  0  0  0  0  0  0
    5.7550    2.1756   -2.4170 C   0  0  0  0  0  0  0  0  0  0  0  0
    4.9306    2.7481   -1.2928 C   0  0  0  0  0  0  0  0  0  0  0  0
    5.5184    3.0026   -0.0659 C   0  0  0  0  0  0  0  0  0  0  0  0
    4.7692    3.5277    0.9720 C   0  0  0  0  0  0  0  0  0  0  0  0
    3.4307    3.8063    0.7887 C   0  0  0  0  0  0  0  0  0  0  0  0
    2.8294    3.5470   -0.4452 C   0  0  0  0  0  0  0  0  0  0  0  0
    3.5923    3.0166   -1.4889 C   0  0  0  0  0  0  0  0  0  0  0  0
    1.5019    3.8162   -0.6326 N   0  0  0  0  0  0  0  0  0  0  0  0
    0.5949    3.1690    0.0656 C   0  0  0  0  0  0  0  0  0  0  0  0
    0.9702    2.0254    0.9211 C   0  0  0  0  0  0  0  0  0  0  0  0
    0.1637    1.7572    2.0052 C   0  0  0  0  0  0  0  0  0  0  0  0
   -0.9989    2.6242    2.2078 C   0  0  0  0  0  0  0  0  0  0  0  0
   -1.7239    2.6150    3.4068 C   0  0  0  0  0  0  0  0  0  0  0  0
   -2.8026    3.4663    3.5290 C   0  0  0  0  0  0  0  0  0  0  0  0
   -3.1477    4.2786    2.5469 N   0  0  0  0  0  0  0  0  0  0  0  0
   -2.4950    4.3269    1.4032 C   0  0  0  0  0  0  0  0  0  0  0  0
   -1.3968    3.5063    1.1870 C   0  0  0  0  0  0  0  0  0  0  0  0
   -0.7121    3.5346    0.0196 O   0  0  0  0  0  0  0  0  0  0  0  0
   -2.9432    5.2788    0.3243 C   0  0  0  0  0  0  0  0  0  0  0  0
   -1.3385    1.6924    4.5343 C   0  0  0  0  0  0  0  0  0  0  0  0
   -2.2376    1.8772    5.6296 O   0  0  0  0  0  0  0  0  0  0  0  0
    2.1587    1.2040    0.6267 C   0  0  0  0  0  0  0  0  0  0  0  0
    2.4580    0.9589   -0.5261 O   0  0  0  0  0  0  0  0  0  0  0  0
    2.9134    0.7250    1.6354 N   0  0  0  0  0  0  0  0  0  0  0  0
    5.5687    3.9350   -3.6461 H   0  0  0  0  0  0  0  0  0  0  0  0
    7.0014    3.9242   -2.5900 H   0  0  0  0  0  0  0  0  0  0  0  0
    6.9619    2.9022   -4.0468 H   0  0  0  0  0  0  0  0  0  0  0  0
    6.5519    1.5569   -2.0045 H   0  0  0  0  0  0  0  0  0  0  0  0
    5.1192    1.5677   -3.0607 H   0  0  0  0  0  0  0  0  0  0  0  0
    6.5670    2.7906    0.0818 H   0  0  0  0  0  0  0  0  0  0  0  0
    5.2345    3.7238    1.9267 H   0  0  0  0  0  0  0  0  0  0  0  0
    2.8481    4.2203    1.5984 H   0  0  0  0  0  0  0  0  0  0  0  0
    3.1348    2.8172   -2.4467 H   0  0  0  0  0  0  0  0  0  0  0  0
    0.3777    0.9382    2.6759 H   0  0  0  0  0  0  0  0  0  0  0  0
   -3.3755    3.4680    4.4445 H   0  0  0  0  0  0  0  0  0  0  0  0
   -3.6692    4.7824   -0.3196 H   0  0  0  0  0  0  0  0  0  0  0  0
   -3.4022    6.1556    0.7811 H   0  0  0  0  0  0  0  0  0  0  0  0
   -2.0822    5.5870   -0.2689 H   0  0  0  0  0  0  0  0  0  0  0  0
   -1.3906    0.6588    4.1920 H   0  0  0  0  0  0  0  0  0  0  0  0
   -0.3220    1.9176    4.8568 H   0  0  0  0  0  0  0  0  0  0  0  0
   -2.0490    1.3140    6.3927 H   0  0  0  0  0  0  0  0  0  0  0  0
    2.6363    0.8603    2.5551 H   0  0  0  0  0  0  0  0  0  0  0  0
    3.7337    0.2449    1.4416 H   0  0  0  0  0  0  0  0  0  0  0  0
  1  2  1  0  0  0  0
  1 26  1  0  0  0  0
  1 27  1  0  0  0  0
  1 28  1  0  0  0  0
  2  3  1  0  0  0  0
  2 29  1  0  0  0  0
  2 30  1  0  0  0  0
  3  8  2  0  0  0  0
  3  4  1  0  0  0  0
  4  5  2  0  0  0  0
  4 31  1  0  0  0  0
  5  6  1  0  0  0  0
  5 32  1  0  0  0  0
  6  7  2  0  0  0  0
  6 33  1  0  0  0  0
  7  8  1  0  0  0  0
  7  9  1  0  0  0  0
  8 34  1  0  0  0  0
  9 10  2  0  0  0  0
 10 19  1  0  0  0  0
 10 11  1  0  0  0  0
 11 12  2  0  0  0  0
 11 23  1  0  0  0  0
 12 13  1  0  0  0  0
 12 35  1  0  0  0  0
 13 18  2  0  0  0  0
 13 14  1  0  0  0  0
 14 15  2  0  0  0  0
 14 21  1  0  0  0  0
 15 16  1  0  0  0  0
 15 36  1  0  0  0  0
 16 17  2  0  0  0  0
 17 18  1  0  0  0  0
 17 20  1  0  0  0  0
 18 19  1  0  0  0  0
 20 37  1  0  0  0  0
 20 38  1  0  0  0  0
 20 39  1  0  0  0  0
 21 22  1  0  0  0  0
 21 40  1  0  0  0  0
 21 41  1  0  0  0  0
 22 42  1  0  0  0  0
 23 24  2  0  0  0  0
 23 25  1  0  0  0  0
 25 43  1  0  0  0  0
 25 44  1  0  0  0  0
M  END
$$$$
ZINC03854084
  -OEChem-08230709453D

 44 46  0     0  0  0  0  0  0999 V2000
   10.6906    5.2754    3.7253 C   0  0  0  0  0  0  0  0  0  0  0  0
    9.9229    4.1455    3.0361 C   0  0  0  0  0  0  0  0  0  0  0  0
    8.6433    4.6893    2.4548 C   0  0  0  0  0  0  0  0  0  0  0  0
    8.6283    5.1782    1.1603 C   0  0  0  0  0  0  0  0  0  0  0  0
    7.4608    5.6773    0.6216 C   0  0  0  0  0  0  0  0  0  0  0  0
    6.2916    5.6886    1.3863 C   0  0  0  0  0  0  0  0  0  0  0  0
    6.3156    5.1986    2.6945 C   0  0  0  0  0  0  0  0  0  0  0  0
    7.4891    4.6976    3.2181 C   0  0  0  0  0  0  0  0  0  0  0  0
    5.1304    6.1819    0.8588 N   0  0  0  0  0  0  0  0  0  0  0  0
    4.1986    5.3571    0.4341 C   0  0  0  0  0  0  0  0  0  0  0  0
    4.4418    3.9015    0.3801 C   0  0  0  0  0  0  0  0  0  0  0  0
    3.3447    3.0745    0.4798 C   0  0  0  0  0  0  0  0  0  0  0  0
    2.0358    3.7131    0.6325 C   0  0  0  0  0  0  0  0  0  0  0  0
    0.8976    2.9832    0.9957 C   0  0  0  0  0  0  0  0  0  0  0  0
   -0.3021    3.6532    1.1177 C   0  0  0  0  0  0  0  0  0  0  0  0
   -0.3862    4.9519    0.8947 N   0  0  0  0  0  0  0  0  0  0  0  0
    0.6544    5.6809    0.5453 C   0  0  0  0  0  0  0  0  0  0  0  0
    1.9034    5.0945    0.3959 C   0  0  0  0  0  0  0  0  0  0  0  0
    2.9868    5.8208    0.0337 O   0  0  0  0  0  0  0  0  0  0  0  0
    0.4872    7.1594    0.3061 C   0  0  0  0  0  0  0  0  0  0  0  0
    0.9823    1.5008    1.2534 C   0  0  0  0  0  0  0  0  0  0  0  0
   -0.3094    1.0049    1.6108 O   0  0  0  0  0  0  0  0  0  0  0  0
    5.8028    3.3558    0.2255 C   0  0  0  0  0  0  0  0  0  0  0  0
    6.5443    3.8042   -0.6276 O   0  0  0  0  0  0  0  0  0  0  0  0
    6.2250    2.3602    1.0298 N   0  0  0  0  0  0  0  0  0  0  0  0
   11.6161    4.8821    4.1458 H   0  0  0  0  0  0  0  0  0  0  0  0
   10.9236    6.0529    2.9977 H   0  0  0  0  0  0  0  0  0  0  0  0
   10.0789    5.6962    4.5233 H   0  0  0  0  0  0  0  0  0  0  0  0
    9.6899    3.3681    3.7637 H   0  0  0  0  0  0  0  0  0  0  0  0
   10.5346    3.7247    2.2381 H   0  0  0  0  0  0  0  0  0  0  0  0
    9.5328    5.1685    0.5703 H   0  0  0  0  0  0  0  0  0  0  0  0
    7.4506    6.0589   -0.3887 H   0  0  0  0  0  0  0  0  0  0  0  0
    5.4166    5.2086    3.2929 H   0  0  0  0  0  0  0  0  0  0  0  0
    7.5083    4.3148    4.2278 H   0  0  0  0  0  0  0  0  0  0  0  0
    3.4465    1.9997    0.4502 H   0  0  0  0  0  0  0  0  0  0  0  0
   -1.1887    3.1055    1.4012 H   0  0  0  0  0  0  0  0  0  0  0  0
    0.6511    7.6991    1.2388 H   0  0  0  0  0  0  0  0  0  0  0  0
    1.2115    7.4912   -0.4378 H   0  0  0  0  0  0  0  0  0  0  0  0
   -0.5218    7.3571   -0.0556 H   0  0  0  0  0  0  0  0  0  0  0  0
    1.6817    1.3131    2.0681 H   0  0  0  0  0  0  0  0  0  0  0  0
    1.3294    0.9946    0.3527 H   0  0  0  0  0  0  0  0  0  0  0  0
   -0.3299    0.0551    1.7913 H   0  0  0  0  0  0  0  0  0  0  0  0
    5.6617    2.0521    1.7569 H   0  0  0  0  0  0  0  0  0  0  0  0
    7.0922    1.9516    0.8815 H   0  0  0  0  0  0  0  0  0  0  0  0
  1  2  1  0  0  0  0
  1 26  1  0  0  0  0
  1 27  1  0  0  0  0
  1 28  1  0  0  0  0
  2  3  1  0  0  0  0
  2 29  1  0  0  0  0
  2 30  1  0  0  0  0
  3  8  2  0  0  0  0
  3  4  1  0  0  0  0
  4  5  2  0  0  0  0
  4 31  1  0  0  0  0
  5  6  1  0  0  0  0
  5 32  1  0  0  0  0
  6  7  2  0  0  0  0
  6  9  1  0  0  0  0
  7  8  1  0  0  0  0
  7 33  1  0  0  0  0
  8 34  1  0  0  0  0
  9 10  2  0  0  0  0
 10 19  1  0  0  0  0
 10 11  1  0  0  0  0
 11 12  2  0  0  0  0
 11 23  1  0  0  0  0
 12 13  1  0  0  0  0
 12 35  1  0  0  0  0
 13 18  2  0  0  0  0
 13 14  1  0  0  0  0
 14 15  2  0  0  0  0
 14 21  1  0  0  0  0
 15 16  1  0  0  0  0
 15 36  1  0  0  0  0
 16 17  2  0  0  0  0
 17 18  1  0  0  0  0
 17 20  1  0  0  0  0
 18 19  1  0  0  0  0
 20 37  1  0  0  0  0
 20 38  1  0  0  0  0
 20 39  1  0  0  0  0
 21 22  1  0  0  0  0
 21 40  1  0  0  0  0
 21 41  1  0  0  0  0
 22 42  1  0  0  0  0
 23 24  2  0  0  0  0
 23 25  1  0  0  0  0
 25 43  1  0  0  0  0
 25 44  1  0  0  0  0
M  END
$$$$
ZINC03854666
  -OEChem-08230709453D

 47 50  0     0  0  0  0  0  0999 V2000
    9.4302    4.8471    1.8916 C   0  0  0  0  0  0  0  0  0  0  0  0
    9.0258    3.4965    1.6582 O   0  0  0  0  0  0  0  0  0  0  0  0
    7.6888    3.2511    1.6146 C   0  0  0  0  0  0  0  0  0  0  0  0
    6.7883    4.2885    1.7932 C   0  0  0  0  0  0  0  0  0  0  0  0
    5.4238    4.0488    1.7515 C   0  0  0  0  0  0  0  0  0  0  0  0
    4.9465    2.7777    1.5254 C   0  0  0  0  0  0  0  0  0  0  0  0
    5.8434    1.7142    1.3482 C   0  0  0  0  0  0  0  0  0  0  0  0
    7.2265    1.9590    1.3912 C   0  0  0  0  0  0  0  0  0  0  0  0
    8.1058    0.9400    1.2162 O   0  0  0  0  0  0  0  0  0  0  0  0
    5.3419    0.3586    1.1138 C   0  0  0  0  0  0  0  0  0  0  0  0
    4.2137    0.1647    0.3490 C   0  0  0  0  0  0  0  0  0  0  0  0
    3.5720    1.2834   -0.3943 C   0  0  0  0  0  0  0  0  0  0  0  0
    4.2394    2.3082   -0.8529 N   0  0  0  0  0  0  0  0  0  0  0  0
    2.1801    1.1378   -0.5593 N   0  0  0  0  0  0  0  0  0  0  0  0
    1.3188    2.1689   -0.8809 N   0  0  0  0  0  0  0  0  0  0  0  0
    1.6462    3.0780   -0.9662 H   0  0  0  0  0  0  0  0  0  0  0  0
   -0.0316    1.8778   -1.0813 C   0  0  0  0  0  0  0  0  0  0  0  0
   -1.0222    2.6962   -1.4257 C   0  0  0  0  0  0  0  0  0  0  0  0
   -0.7687    4.1711   -1.6461 C   0  0  0  0  0  0  0  0  0  0  0  0
   -1.3526    4.5623   -3.0126 C   0  0  0  0  0  0  0  0  0  0  0  0
   -2.8279    4.1620   -3.0660 C   0  0  0  0  0  0  0  0  0  0  0  0
   -2.9567    2.6413   -2.9634 C   0  0  0  0  0  0  0  0  0  0  0  0
   -2.4321    2.1768   -1.6007 C   0  0  0  0  0  0  0  0  0  0  0  0
   -0.0842    0.1207   -0.7633 S   0  0  0  0  0  0  0  0  0  0  0  0
    1.6348   -0.1205   -0.3996 C   0  0  0  0  0  0  0  0  0  0  0  0
    2.2613   -1.2196   -0.0681 N   0  0  0  0  0  0  0  0  0  0  0  0
    3.5779   -1.1692    0.2243 C   0  0  0  0  0  0  0  0  0  0  0  0
    4.2257   -2.1905    0.3810 O   0  0  0  0  0  0  0  0  0  0  0  0
   10.5186    4.9037    1.9024 H   0  0  0  0  0  0  0  0  0  0  0  0
    9.0410    5.4852    1.0982 H   0  0  0  0  0  0  0  0  0  0  0  0
    9.0393    5.1825    2.8523 H   0  0  0  0  0  0  0  0  0  0  0  0
    7.1519    5.2905    1.9665 H   0  0  0  0  0  0  0  0  0  0  0  0
    4.7309    4.8651    1.8928 H   0  0  0  0  0  0  0  0  0  0  0  0
    3.8820    2.5986    1.4893 H   0  0  0  0  0  0  0  0  0  0  0  0
    8.3612    0.7948    0.2949 H   0  0  0  0  0  0  0  0  0  0  0  0
    5.8570   -0.4891    1.5410 H   0  0  0  0  0  0  0  0  0  0  0  0
    5.2076    2.3218   -0.7947 H   0  0  0  0  0  0  0  0  0  0  0  0
   -1.2542    4.7477   -0.8587 H   0  0  0  0  0  0  0  0  0  0  0  0
    0.3041    4.3637   -1.6363 H   0  0  0  0  0  0  0  0  0  0  0  0
   -0.8076    4.0483   -3.8044 H   0  0  0  0  0  0  0  0  0  0  0  0
   -1.2631    5.6399   -3.1498 H   0  0  0  0  0  0  0  0  0  0  0  0
   -3.2610    4.4996   -4.0076 H   0  0  0  0  0  0  0  0  0  0  0  0
   -3.3599    4.6275   -2.2363 H   0  0  0  0  0  0  0  0  0  0  0  0
   -2.3737    2.1728   -3.7563 H   0  0  0  0  0  0  0  0  0  0  0  0
   -4.0041    2.3574   -3.0658 H   0  0  0  0  0  0  0  0  0  0  0  0
   -2.4284    1.0875   -1.5618 H   0  0  0  0  0  0  0  0  0  0  0  0
   -3.0688    2.5721   -0.8092 H   0  0  0  0  0  0  0  0  0  0  0  0
  1  2  1  0  0  0  0
  1 29  1  0  0  0  0
  1 30  1  0  0  0  0
  1 31  1  0  0  0  0
  2  3  1  0  0  0  0
  3  8  2  0  0  0  0
  3  4  1  0  0  0  0
  4  5  2  0  0  0  0
  4 32  1  0  0  0  0
  5  6  1  0  0  0  0
  5 33  1  0  0  0  0
  6  7  2  0  0  0  0
  6 34  1  0  0  0  0
  7  8  1  0  0  0  0
  7 10  1  0  0  0  0
  8  9  1  0  0  0  0
  9 35  1  0  0  0  0
 10 11  2  0  0  0  0
 10 36  1  0  0  0  0
 11 27  1  0  0  0  0
 11 12  1  0  0  0  0
 12 13  2  0  0  0  0
 12 14  1  0  0  0  0
 13 37  1  0  0  0  0
 14 25  1  0  0  0  0
 14 15  1  0  0  0  0
 15 16  1  0  0  0  0
 15 17  1  0  0  0  0
 17 18  2  0  0  0  0
 17 24  1  0  0  0  0
 18 23  1  0  0  0  0
 18 19  1  0  0  0  0
 19 20  1  0  0  0  0
 19 38  1  0  0  0  0
 19 39  1  0  0  0  0
 20 21  1  0  0  0  0
 20 40  1  0  0  0  0
 20 41  1  0  0  0  0
 21 22  1  0  0  0  0
 21 42  1  0  0  0  0
 21 43  1  0  0  0  0
 22 23  1  0  0  0  0
 22 44  1  0  0  0  0
 22 45  1  0  0  0  0
 23 46  1  0  0  0  0
 23 47  1  0  0  0  0
 24 25  1  0  0  0  0
 25 26  2  0  0  0  0
 26 27  1  0  0  0  0
 27 28  2  0  0  0  0
M  END
$$$$
ZINC03854697
  -OEChem-08230709453D

 42 44  0     0  0  0  0  0  0999 V2000
   -4.0090    3.7594    6.7715 C   0  0  0  0  0  0  0  0  0  0  0  0
   -3.1006    3.2818    5.6680 C   0  0  0  0  0  0  0  0  0  0  0  0
   -3.6293    2.9498    4.4342 C   0  0  0  0  0  0  0  0  0  0  0  0
   -2.7995    2.5117    3.4209 C   0  0  0  0  0  0  0  0  0  0  0  0
   -1.4327    2.4045    3.6422 C   0  0  0  0  0  0  0  0  0  0  0  0
   -0.9055    2.7334    4.8842 C   0  0  0  0  0  0  0  0  0  0  0  0
   -1.7400    3.1762    5.8916 C   0  0  0  0  0  0  0  0  0  0  0  0
   -0.5893    1.9606    2.6177 N   0  0  0  0  0  0  0  0  0  0  0  0
   -0.9392    2.1449    1.3293 C   0  0  0  0  0  0  0  0  0  0  0  0
   -1.9398    2.7738    1.0567 O   0  0  0  0  0  0  0  0  0  0  0  0
   -0.0873    1.5694    0.2274 C   0  0  0  0  0  0  0  0  0  0  0  0
   -0.6762    1.9055   -1.0712 N   0  0  0  0  0  0  0  0  0  0  0  0
   -1.5755    1.1527   -1.7343 C   0  0  0  0  0  0  0  0  0  0  0  0
   -2.0387    0.0874   -1.3681 O   0  0  0  0  0  0  0  0  0  0  0  0
   -1.8838    1.8381   -2.9408 C   0  0  0  0  0  0  0  0  0  0  0  0
   -2.7505    1.4381   -3.9137 C   0  0  0  0  0  0  0  0  0  0  0  0
   -3.2926    0.1321   -3.8844 C   0  0  0  0  0  0  0  0  0  0  0  0
   -4.5083   -0.3239   -4.3823 C   0  0  0  0  0  0  0  0  0  0  0  0
   -4.7861   -1.6584   -4.2208 C   0  0  0  0  0  0  0  0  0  0  0  0
   -3.8847   -2.4523   -3.5853 C   0  0  0  0  0  0  0  0  0  0  0  0
   -2.5985   -1.3585   -3.1921 S   0  0  0  0  0  0  0  0  0  0  0  0
   -5.4750    0.6042   -5.0718 C   0  0  0  0  0  0  0  0  0  0  0  0
   -1.1098    3.0070   -2.9282 N   0  0  0  0  0  0  0  0  0  0  0  0
   -0.3978    3.0086   -1.7857 C   0  0  0  0  0  0  0  0  0  0  0  0
    0.3817    3.8797   -1.4499 O   0  0  0  0  0  0  0  0  0  0  0  0
   -4.3548    2.9048    7.3529 H   0  0  0  0  0  0  0  0  0  0  0  0
   -3.4631    4.4437    7.4210 H   0  0  0  0  0  0  0  0  0  0  0  0
   -4.8662    4.2753    6.3388 H   0  0  0  0  0  0  0  0  0  0  0  0
   -4.6924    3.0333    4.2627 H   0  0  0  0  0  0  0  0  0  0  0  0
   -3.2131    2.2525    2.4575 H   0  0  0  0  0  0  0  0  0  0  0  0
    0.1565    2.6472    5.0606 H   0  0  0  0  0  0  0  0  0  0  0  0
   -1.3301    3.4363    6.8563 H   0  0  0  0  0  0  0  0  0  0  0  0
    0.2473    1.5203    2.8349 H   0  0  0  0  0  0  0  0  0  0  0  0
   -0.0380    0.4858    0.3345 H   0  0  0  0  0  0  0  0  0  0  0  0
    0.9177    1.9868    0.2896 H   0  0  0  0  0  0  0  0  0  0  0  0
   -3.0233    2.1183   -4.7069 H   0  0  0  0  0  0  0  0  0  0  0  0
   -5.7130   -2.0718   -4.5902 H   0  0  0  0  0  0  0  0  0  0  0  0
   -3.9531   -3.5096   -3.3756 H   0  0  0  0  0  0  0  0  0  0  0  0
   -5.2615    0.6226   -6.1405 H   0  0  0  0  0  0  0  0  0  0  0  0
   -6.4940    0.2522   -4.9109 H   0  0  0  0  0  0  0  0  0  0  0  0
   -5.3688    1.6088   -4.6626 H   0  0  0  0  0  0  0  0  0  0  0  0
   -1.0908    3.6898   -3.6169 H   0  0  0  0  0  0  0  0  0  0  0  0
  1  2  1  0  0  0  0
  1 26  1  0  0  0  0
  1 27  1  0  0  0  0
  1 28  1  0  0  0  0
  2  7  2  0  0  0  0
  2  3  1  0  0  0  0
  3  4  2  0  0  0  0
  3 29  1  0  0  0  0
  4  5  1  0  0  0  0
  4 30  1  0  0  0  0
  5  6  2  0  0  0  0
  5  8  1  0  0  0  0
  6  7  1  0  0  0  0
  6 31  1  0  0  0  0
  7 32  1  0  0  0  0
  8  9  1  0  0  0  0
  8 33  1  0  0  0  0
  9 10  2  0  0  0  0
  9 11  1  0  0  0  0
 11 12  1  0  0  0  0
 11 34  1  0  0  0  0
 11 35  1  0  0  0  0
 12 24  1  0  0  0  0
 12 13  1  0  0  0  0
 13 14  2  0  0  0  0
 13 15  1  0  0  0  0
 15 16  2  0  0  0  0
 15 23  1  0  0  0  0
 16 17  1  0  0  0  0
 16 36  1  0  0  0  0
 17 21  1  0  0  0  0
 17 18  2  0  0  0  0
 18 19  1  0  0  0  0
 18 22  1  0  0  0  0
 19 20  2  0  0  0  0
 19 37  1  0  0  0  0
 20 21  1  0  0  0  0
 20 38  1  0  0  0  0
 22 39  1  0  0  0  0
 22 40  1  0  0  0  0
 22 41  1  0  0  0  0
 23 24  1  0  0  0  0
 23 42  1  0  0  0  0
 24 25  2  0  0  0  0
M  END
$$$$
ZINC03855134
  -OEChem-08230709453D

 42 44  0     0  0  0  0  0  0999 V2000
   -3.9237    5.0236    0.2650 C   0  0  0  0  0  0  0  0  0  0  0  0
   -2.9354    3.8865    0.2280 C   0  0  0  0  0  0  0  0  0  0  0  0
   -3.3926    2.5770    0.2249 C   0  0  0  0  0  0  0  0  0  0  0  0
   -2.5002    1.5253    0.1917 C   0  0  0  0  0  0  0  0  0  0  0  0
   -1.1371    1.7774    0.1611 C   0  0  0  0  0  0  0  0  0  0  0  0
   -0.6684    3.1015    0.1672 C   0  0  0  0  0  0  0  0  0  0  0  0
   -1.5851    4.1553    0.2060 C   0  0  0  0  0  0  0  0  0  0  0  0
    0.6886    3.0461    0.1262 N   0  0  0  0  0  0  0  0  0  0  0  0
    1.0774    1.7948    0.1010 C   0  0  0  0  0  0  0  0  0  0  0  0
   -0.0118    0.9702    0.1244 N   0  0  0  0  0  0  0  0  0  0  0  0
    0.0009   -0.0297    0.1165 H   0  0  0  0  0  0  0  0  0  0  0  0
    2.7542    1.2565    0.0453 S   0  0  0  0  0  0  0  0  0  0  0  0
    3.5983    2.8576    0.0376 C   0  0  0  0  0  0  0  0  0  0  0  0
    5.0887    2.6395   -0.0091 C   0  0  0  0  0  0  0  0  0  0  0  0
    5.5368    1.5108   -0.0347 O   0  0  0  0  0  0  0  0  0  0  0  0
    5.9638    3.7466   -0.0231 C   0  0  0  0  0  0  0  0  0  0  0  0
    7.3562    3.5717    0.0569 C   0  0  0  0  0  0  0  0  0  0  0  0
    8.1627    4.6737    0.0344 N   0  0  0  0  0  0  0  0  0  0  0  0
    7.6506    5.9113   -0.0512 C   0  0  0  0  0  0  0  0  0  0  0  0
    8.4106    6.8598   -0.0627 O   0  0  0  0  0  0  0  0  0  0  0  0
    6.3294    6.1403   -0.1250 N   0  0  0  0  0  0  0  0  0  0  0  0
    5.4485    5.1187   -0.1155 C   0  0  0  0  0  0  0  0  0  0  0  0
    4.2516    5.3298   -0.1817 O   0  0  0  0  0  0  0  0  0  0  0  0
    5.8384    7.5176   -0.2165 C   0  0  0  0  0  0  0  0  0  0  0  0
    9.6155    4.5017    0.1121 C   0  0  0  0  0  0  0  0  0  0  0  0
    7.8921    2.3246    0.1499 N   0  0  0  0  0  0  0  0  0  0  0  0
   -4.1365    5.2865    1.3012 H   0  0  0  0  0  0  0  0  0  0  0  0
   -3.5032    5.8874   -0.2500 H   0  0  0  0  0  0  0  0  0  0  0  0
   -4.8462    4.7194   -0.2295 H   0  0  0  0  0  0  0  0  0  0  0  0
   -4.4541    2.3794    0.2484 H   0  0  0  0  0  0  0  0  0  0  0  0
   -2.8626    0.5079    0.1892 H   0  0  0  0  0  0  0  0  0  0  0  0
   -1.2360    5.1773    0.2071 H   0  0  0  0  0  0  0  0  0  0  0  0
    3.3127    3.3811   -0.7651 H   0  0  0  0  0  0  0  0  0  0  0  0
    3.3399    3.4088    0.9417 H   0  0  0  0  0  0  0  0  0  0  0  0
    5.6685    7.9101    0.7860 H   0  0  0  0  0  0  0  0  0  0  0  0
    6.5781    8.1338   -0.7275 H   0  0  0  0  0  0  0  0  0  0  0  0
    4.9032    7.5334   -0.7762 H   0  0  0  0  0  0  0  0  0  0  0  0
   10.0988    5.4784    0.0868 H   0  0  0  0  0  0  0  0  0  0  0  0
    9.8720    3.9933    1.0416 H   0  0  0  0  0  0  0  0  0  0  0  0
    9.9566    3.9055   -0.7342 H   0  0  0  0  0  0  0  0  0  0  0  0
    7.3199    1.5444    0.0809 H   0  0  0  0  0  0  0  0  0  0  0  0
    8.8464    2.2156    0.2853 H   0  0  0  0  0  0  0  0  0  0  0  0
  1  2  1  0  0  0  0
  1 27  1  0  0  0  0
  1 28  1  0  0  0  0
  1 29  1  0  0  0  0
  2  7  2  0  0  0  0
  2  3  1  0  0  0  0
  3  4  2  0  0  0  0
  3 30  1  0  0  0  0
  4  5  1  0  0  0  0
  4 31  1  0  0  0  0
  5 10  1  0  0  0  0
  5  6  2  0  0  0  0
  6  7  1  0  0  0  0
  6  8  1  0  0  0  0
  7 32  1  0  0  0  0
  8  9  2  0  0  0  0
  9 10  1  0  0  0  0
  9 12  1  0  0  0  0
 10 11  1  0  0  0  0
 12 13  1  0  0  0  0
 13 14  1  0  0  0  0
 13 33  1  0  0  0  0
 13 34  1  0  0  0  0
 14 15  2  0  0  0  0
 14 16  1  0  0  0  0
 16 22  1  0  0  0  0
 16 17  2  0  0  0  0
 17 18  1  0  0  0  0
 17 26  1  0  0  0  0
 18 19  1  0  0  0  0
 18 25  1  0  0  0  0
 19 20  2  0  0  0  0
 19 21  1  0  0  0  0
 21 22  1  0  0  0  0
 21 24  1  0  0  0  0
 22 23  2  0  0  0  0
 24 35  1  0  0  0  0
 24 36  1  0  0  0  0
 24 37  1  0  0  0  0
 25 38  1  0  0  0  0
 25 39  1  0  0  0  0
 25 40  1  0  0  0  0
 26 41  1  0  0  0  0
 26 42  1  0  0  0  0
M  END
$$$$
ZINC03855134
  -OEChem-08230709453D

 43 45  0     0  0  0  0  0  0999 V2000
   -3.9237    5.0236    0.2650 C   0  0  0  0  0  0  0  0  0  0  0  0
   -2.9354    3.8865    0.2280 C   0  0  0  0  0  0  0  0  0  0  0  0
   -3.3926    2.5770    0.2249 C   0  0  0  0  0  0  0  0  0  0  0  0
   -2.5002    1.5253    0.1917 C   0  0  0  0  0  0  0  0  0  0  0  0
   -1.1371    1.7774    0.1611 C   0  0  0  0  0  0  0  0  0  0  0  0
   -0.6684    3.1015    0.1672 C   0  0  0  0  0  0  0  0  0  0  0  0
   -1.5851    4.1553    0.2060 C   0  0  0  0  0  0  0  0  0  0  0  0
    1.0774    1.7948    0.1010 C   0  0  0  0  0  0  0  0  0  0  0  0
   -0.0118    0.9702    0.1244 N   0  0  0  0  0  0  0  0  0  0  0  0
    0.0009   -0.0297    0.1165 H   0  0  0  0  0  0  0  0  0  0  0  0
    2.7542    1.2565    0.0453 S   0  0  0  0  0  0  0  0  0  0  0  0
    3.5983    2.8576    0.0376 C   0  0  0  0  0  0  0  0  0  0  0  0
    5.0887    2.6395   -0.0091 C   0  0  0  0  0  0  0  0  0  0  0  0
    5.5368    1.5108   -0.0347 O   0  0  0  0  0  0  0  0  0  0  0  0
    5.9638    3.7466   -0.0231 C   0  0  0  0  0  0  0  0  0  0  0  0
    7.3562    3.5717    0.0569 C   0  0  0  0  0  0  0  0  0  0  0  0
    8.1627    4.6737    0.0344 N   0  0  0  0  0  0  0  0  0  0  0  0
    7.6506    5.9113   -0.0512 C   0  0  0  0  0  0  0  0  0  0  0  0
    8.4106    6.8598   -0.0627 O   0  0  0  0  0  0  0  0  0  0  0  0
    6.3294    6.1403   -0.1250 N   0  0  0  0  0  0  0  0  0  0  0  0
    5.4485    5.1187   -0.1155 C   0  0  0  0  0  0  0  0  0  0  0  0
    4.2516    5.3298   -0.1817 O   0  0  0  0  0  0  0  0  0  0  0  0
    5.8384    7.5176   -0.2165 C   0  0  0  0  0  0  0  0  0  0  0  0
    9.6155    4.5017    0.1121 C   0  0  0  0  0  0  0  0  0  0  0  0
    7.8921    2.3246    0.1499 N   0  0  0  0  0  0  0  0  0  0  0  0
   -4.1365    5.2865    1.3012 H   0  0  0  0  0  0  0  0  0  0  0  0
   -3.5032    5.8874   -0.2500 H   0  0  0  0  0  0  0  0  0  0  0  0
   -4.8462    4.7194   -0.2295 H   0  0  0  0  0  0  0  0  0  0  0  0
   -4.4541    2.3794    0.2484 H   0  0  0  0  0  0  0  0  0  0  0  0
   -2.8626    0.5079    0.1892 H   0  0  0  0  0  0  0  0  0  0  0  0
   -1.2360    5.1773    0.2071 H   0  0  0  0  0  0  0  0  0  0  0  0
    3.3127    3.3811   -0.7651 H   0  0  0  0  0  0  0  0  0  0  0  0
    3.3399    3.4088    0.9417 H   0  0  0  0  0  0  0  0  0  0  0  0
    5.6685    7.9101    0.7860 H   0  0  0  0  0  0  0  0  0  0  0  0
    6.5781    8.1338   -0.7275 H   0  0  0  0  0  0  0  0  0  0  0  0
    4.9032    7.5334   -0.7762 H   0  0  0  0  0  0  0  0  0  0  0  0
   10.0988    5.4784    0.0868 H   0  0  0  0  0  0  0  0  0  0  0  0
    9.8720    3.9933    1.0416 H   0  0  0  0  0  0  0  0  0  0  0  0
    9.9566    3.9055   -0.7342 H   0  0  0  0  0  0  0  0  0  0  0  0
    7.3199    1.5444    0.0809 H   0  0  0  0  0  0  0  0  0  0  0  0
    8.8464    2.2156    0.2853 H   0  0  0  0  0  0  0  0  0  0  0  0
    0.6892    3.0468    0.1262 N   0  3  0  0  0  0  0  0  0  0  0  0
    1.3146    3.8611    0.1164 H   0  0  0  0  0  0  0  0  0  0  0  0
  1  2  1  0  0  0  0
  1 26  1  0  0  0  0
  1 27  1  0  0  0  0
  1 28  1  0  0  0  0
  2  7  2  0  0  0  0
  2  3  1  0  0  0  0
  3  4  2  0  0  0  0
  3 29  1  0  0  0  0
  4  5  1  0  0  0  0
  4 30  1  0  0  0  0
  5  9  1  0  0  0  0
  5  6  2  0  0  0  0
  6  7  1  0  0  0  0
  6 42  1  0  0  0  0
  7 31  1  0  0  0  0
  8  9  1  0  0  0  0
  8 11  1  0  0  0  0
  8 42  2  0  0  0  0
  9 10  1  0  0  0  0
 11 12  1  0  0  0  0
 12 13  1  0  0  0  0
 12 32  1  0  0  0  0
 12 33  1  0  0  0  0
 13 14  2  0  0  0  0
 13 15  1  0  0  0  0
 15 21  1  0  0  0  0
 15 16  2  0  0  0  0
 16 17  1  0  0  0  0
 16 25  1  0  0  0  0
 17 18  1  0  0  0  0
 17 24  1  0  0  0  0
 18 19  2  0  0  0  0
 18 20  1  0  0  0  0
 20 21  1  0  0  0  0
 20 23  1  0  0  0  0
 21 22  2  0  0  0  0
 23 34  1  0  0  0  0
 23 35  1  0  0  0  0
 23 36  1  0  0  0  0
 24 37  1  0  0  0  0
 24 38  1  0  0  0  0
 24 39  1  0  0  0  0
 25 40  1  0  0  0  0
 25 41  1  0  0  0  0
 42 43  1  0  0  0  0
M  CHG  1  42   1
M  END
$$$$
ZINC03855459
  -OEChem-08230709453D

 41 43  0     0  0  0  0  0  0999 V2000
    1.7791   -5.1038    0.1219 C   0  0  0  0  0  0  0  0  0  0  0  0
    3.0121   -4.2376    0.1442 C   0  0  0  0  0  0  0  0  0  0  0  0
    4.2615   -4.8170    0.2027 C   0  0  0  0  0  0  0  0  0  0  0  0
    5.4057   -4.0319    0.2243 C   0  0  0  0  0  0  0  0  0  0  0  0
    5.3123   -2.6697    0.1874 C   0  0  0  0  0  0  0  0  0  0  0  0
    4.0534   -2.0593    0.1273 C   0  0  0  0  0  0  0  0  0  0  0  0
    2.8906   -2.8514    0.1052 C   0  0  0  0  0  0  0  0  0  0  0  0
    1.6421   -2.2668    0.0452 N   0  0  0  0  0  0  0  0  0  0  0  0
    0.8315   -2.8522    0.0306 H   0  0  0  0  0  0  0  0  0  0  0  0
    1.4853   -0.9329    0.0058 C   0  0  0  0  0  0  0  0  0  0  0  0
    0.3643   -0.4604   -0.0472 O   0  0  0  0  0  0  0  0  0  0  0  0
    2.6485   -0.0387    0.0262 C   0  0  0  0  0  0  0  0  0  0  0  0
    3.9355   -0.5999    0.0816 C   0  0  0  0  0  0  0  0  0  0  0  0
    5.0325    0.1841    0.0962 O   0  0  0  0  0  0  0  0  0  0  0  0
    2.4780    1.3590   -0.0148 C   0  0  0  0  0  0  0  0  0  0  0  0
    1.8778    2.0167    1.0505 C   0  0  0  0  0  0  0  0  0  0  0  0
    1.5470    3.4509    0.9808 C   0  0  0  0  0  0  0  0  0  0  0  0
    1.7931    4.1011   -0.0179 O   0  0  0  0  0  0  0  0  0  0  0  0
    0.9643    4.0238    2.0541 N   0  0  0  0  0  0  0  0  0  0  0  0
    0.6877    3.3193    3.1604 C   0  0  0  0  0  0  0  0  0  0  0  0
   -0.0529    4.1302    4.4738 S   0  0  0  0  0  0  0  0  0  0  0  0
    0.9558    2.0125    3.2910 N   0  0  0  0  0  0  0  0  0  0  0  0
    1.5434    1.3108    2.3000 C   0  0  0  0  0  0  0  0  0  0  0  0
    1.7862    0.1259    2.4325 O   0  0  0  0  0  0  0  0  0  0  0  0
    0.6076    1.3318    4.5407 C   0  0  0  0  0  0  0  0  0  0  0  0
    1.7664    1.4192    5.5001 C   0  0  0  0  0  0  0  0  0  0  0  0
    1.5889    1.9189    6.6979 C   0  0  0  0  0  0  0  0  0  0  0  0
    1.5185   -5.3384   -0.9102 H   0  0  0  0  0  0  0  0  0  0  0  0
    1.9743   -6.0278    0.6662 H   0  0  0  0  0  0  0  0  0  0  0  0
    0.9528   -4.5720    0.5934 H   0  0  0  0  0  0  0  0  0  0  0  0
    4.3509   -5.8928    0.2321 H   0  0  0  0  0  0  0  0  0  0  0  0
    6.3771   -4.5015    0.2710 H   0  0  0  0  0  0  0  0  0  0  0  0
    6.2070   -2.0650    0.2049 H   0  0  0  0  0  0  0  0  0  0  0  0
    4.8894    1.1400    0.0670 H   0  0  0  0  0  0  0  0  0  0  0  0
    2.8142    1.9190   -0.8749 H   0  0  0  0  0  0  0  0  0  0  0  0
    0.7400    4.9670    2.0245 H   0  0  0  0  0  0  0  0  0  0  0  0
   -0.2669    1.8091    4.9829 H   0  0  0  0  0  0  0  0  0  0  0  0
    0.3848    0.2850    4.3344 H   0  0  0  0  0  0  0  0  0  0  0  0
    2.7433    1.0698    5.2001 H   0  0  0  0  0  0  0  0  0  0  0  0
    0.6120    2.2683    6.9979 H   0  0  0  0  0  0  0  0  0  0  0  0
    2.4194    1.9815    7.3855 H   0  0  0  0  0  0  0  0  0  0  0  0
  1  2  1  0  0  0  0
  1 28  1  0  0  0  0
  1 29  1  0  0  0  0
  1 30  1  0  0  0  0
  2  7  2  0  0  0  0
  2  3  1  0  0  0  0
  3  4  2  0  0  0  0
  3 31  1  0  0  0  0
  4  5  1  0  0  0  0
  4 32  1  0  0  0  0
  5  6  2  0  0  0  0
  5 33  1  0  0  0  0
  6 13  1  0  0  0  0
  6  7  1  0  0  0  0
  7  8  1  0  0  0  0
  8  9  1  0  0  0  0
  8 10  1  0  0  0  0
 10 11  2  0  0  0  0
 10 12  1  0  0  0  0
 12 13  2  0  0  0  0
 12 15  1  0  0  0  0
 13 14  1  0  0  0  0
 14 34  1  0  0  0  0
 15 16  2  0  0  0  0
 15 35  1  0  0  0  0
 16 23  1  0  0  0  0
 16 17  1  0  0  0  0
 17 18  2  0  0  0  0
 17 19  1  0  0  0  0
 19 20  1  0  0  0  0
 19 36  1  0  0  0  0
 20 21  2  0  0  0  0
 20 22  1  0  0  0  0
 22 23  1  0  0  0  0
 22 25  1  0  0  0  0
 23 24  2  0  0  0  0
 25 26  1  0  0  0  0
 25 37  1  0  0  0  0
 25 38  1  0  0  0  0
 26 27  2  0  0  0  0
 26 39  1  0  0  0  0
 27 40  1  0  0  0  0
 27 41  1  0  0  0  0
M  END
$$$$
ZINC03855545
  -OEChem-08230709453D

 40 42  0     0  0  0  0  0  0999 V2000
   -5.0475    1.3299   -2.1201 C   0  0  0  0  0  0  0  0  0  0  0  0
   -4.2589    0.9624   -0.8896 C   0  0  0  0  0  0  0  0  0  0  0  0
   -4.7453    1.2877    0.3647 C   0  0  0  0  0  0  0  0  0  0  0  0
   -4.0280    0.9548    1.5001 C   0  0  0  0  0  0  0  0  0  0  0  0
   -2.8245    0.2900    1.3895 C   0  0  0  0  0  0  0  0  0  0  0  0
   -2.3243   -0.0366    0.1263 C   0  0  0  0  0  0  0  0  0  0  0  0
   -3.0543    0.3034   -1.0161 C   0  0  0  0  0  0  0  0  0  0  0  0
   -1.1300   -0.6901    0.0087 N   0  0  0  0  0  0  0  0  0  0  0  0
    0.0018   -0.0037   -0.0032 C   0  0  0  0  0  0  0  0  0  0  0  0
    1.2161   -0.6583   -0.0119 N   0  0  0  0  0  0  0  0  0  0  0  0
    1.2514   -1.6276   -0.0087 H   0  0  0  0  0  0  0  0  0  0  0  0
    2.3566    0.0684   -0.0244 C   0  0  0  0  0  0  0  0  0  0  0  0
    2.2997    1.3757   -0.0286 N   0  0  0  0  0  0  0  0  0  0  0  0
    1.1200    2.0137   -0.0197 C   0  0  0  0  0  0  0  0  0  0  0  0
   -0.0170    1.3375   -0.0074 N   0  0  0  0  0  0  0  0  0  0  0  0
    1.0920    3.3873   -0.0244 N   0  0  0  0  0  0  0  0  0  0  0  0
    3.6933   -0.6274   -0.0341 C   0  0  0  0  0  0  0  0  0  0  0  0
    4.9032    0.4020   -0.9015 S   0  0  0  0  0  0  0  0  0  0  0  0
    6.3301   -0.6228   -0.7659 C   0  0  0  0  0  0  0  0  0  0  0  0
    6.3827   -1.7909   -0.1694 N   0  0  0  0  0  0  0  0  0  0  0  0
    7.6292   -2.2833   -0.2660 C   0  0  0  0  0  0  0  0  0  0  0  0
    8.3842   -1.3950   -0.9345 C   0  0  0  0  0  0  0  0  0  0  0  0
    7.5666   -0.3351   -1.2568 N   0  0  0  0  0  0  0  0  0  0  0  0
    7.9540    0.8729   -1.9895 C   0  0  0  0  0  0  0  0  0  0  0  0
   -5.7269    0.5158   -2.3727 H   0  0  0  0  0  0  0  0  0  0  0  0
   -5.6220    2.2357   -1.9264 H   0  0  0  0  0  0  0  0  0  0  0  0
   -4.3641    1.5039   -2.9512 H   0  0  0  0  0  0  0  0  0  0  0  0
   -5.6892    1.8043    0.4577 H   0  0  0  0  0  0  0  0  0  0  0  0
   -4.4135    1.2122    2.4756 H   0  0  0  0  0  0  0  0  0  0  0  0
   -2.2678    0.0269    2.2768 H   0  0  0  0  0  0  0  0  0  0  0  0
   -2.6760    0.0502   -1.9955 H   0  0  0  0  0  0  0  0  0  0  0  0
    0.2423    3.8551   -0.0186 H   0  0  0  0  0  0  0  0  0  0  0  0
    1.9220    3.8893   -0.0334 H   0  0  0  0  0  0  0  0  0  0  0  0
    4.0247   -0.7919    0.9912 H   0  0  0  0  0  0  0  0  0  0  0  0
    3.6001   -1.5863   -0.5440 H   0  0  0  0  0  0  0  0  0  0  0  0
    7.9675   -3.2295    0.1297 H   0  0  0  0  0  0  0  0  0  0  0  0
    9.4327   -1.4939   -1.1737 H   0  0  0  0  0  0  0  0  0  0  0  0
    8.2951    1.6315   -1.2850 H   0  0  0  0  0  0  0  0  0  0  0  0
    8.7591    0.6340   -2.6843 H   0  0  0  0  0  0  0  0  0  0  0  0
    7.0958    1.2521   -2.5444 H   0  0  0  0  0  0  0  0  0  0  0  0
  1  2  1  0  0  0  0
  1 25  1  0  0  0  0
  1 26  1  0  0  0  0
  1 27  1  0  0  0  0
  2  7  2  0  0  0  0
  2  3  1  0  0  0  0
  3  4  2  0  0  0  0
  3 28  1  0  0  0  0
  4  5  1  0  0  0  0
  4 29  1  0  0  0  0
  5  6  2  0  0  0  0
  5 30  1  0  0  0  0
  6  7  1  0  0  0  0
  6  8  1  0  0  0  0
  7 31  1  0  0  0  0
  8  9  2  0  0  0  0
  9 15  1  0  0  0  0
  9 10  1  0  0  0  0
 10 11  1  0  0  0  0
 10 12  1  0  0  0  0
 12 13  2  0  0  0  0
 12 17  1  0  0  0  0
 13 14  1  0  0  0  0
 14 15  2  0  0  0  0
 14 16  1  0  0  0  0
 16 32  1  0  0  0  0
 16 33  1  0  0  0  0
 17 18  1  0  0  0  0
 17 34  1  0  0  0  0
 17 35  1  0  0  0  0
 18 19  1  0  0  0  0
 19 23  1  0  0  0  0
 19 20  2  0  0  0  0
 20 21  1  0  0  0  0
 21 22  2  0  0  0  0
 21 36  1  0  0  0  0
 22 23  1  0  0  0  0
 22 37  1  0  0  0  0
 23 24  1  0  0  0  0
 24 38  1  0  0  0  0
 24 39  1  0  0  0  0
 24 40  1  0  0  0  0
M  END
$$$$
ZINC03855577
  -OEChem-08230709453D

 43 45  0     0  0  0  0  0  0999 V2000
    8.3124    2.1942   -0.4910 C   0  0  0  0  0  0  0  0  0  0  0  0
    7.0167    1.4344   -0.3690 C   0  0  0  0  0  0  0  0  0  0  0  0
    6.5404    1.0816    0.8818 C   0  0  0  0  0  0  0  0  0  0  0  0
    5.3524    0.3919    1.0016 C   0  0  0  0  0  0  0  0  0  0  0  0
    4.6349    0.0385   -0.1447 C   0  0  0  0  0  0  0  0  0  0  0  0
    5.1222    0.3977   -1.4041 C   0  0  0  0  0  0  0  0  0  0  0  0
    6.3092    1.0926   -1.5080 C   0  0  0  0  0  0  0  0  0  0  0  0
    4.3527    0.0272   -2.6457 C   0  0  0  0  0  0  0  0  0  0  0  0
    3.4598   -0.6501   -0.0340 N   0  0  0  0  0  0  0  0  0  0  0  0
    2.3100    0.0049    0.0043 C   0  0  0  0  0  0  0  0  0  0  0  0
    2.2922    1.3835    0.0516 N   0  0  0  0  0  0  0  0  0  0  0  0
    3.1223    1.8854    0.0572 H   0  0  0  0  0  0  0  0  0  0  0  0
    1.1030    2.0264    0.0905 C   0  0  0  0  0  0  0  0  0  0  0  0
   -0.0118    1.3414    0.0830 N   0  0  0  0  0  0  0  0  0  0  0  0
    0.0036    0.0012    0.0371 C   0  0  0  0  0  0  0  0  0  0  0  0
    1.1470   -0.6632   -0.0019 N   0  0  0  0  0  0  0  0  0  0  0  0
   -1.1833   -0.6908    0.0309 N   0  0  0  0  0  0  0  0  0  0  0  0
    1.0619    3.5320    0.1424 C   0  0  0  0  0  0  0  0  0  0  0  0
    1.0698    4.0766    1.8685 S   0  0  0  0  0  0  0  0  0  0  0  0
    1.0182    5.8227    1.6387 C   0  0  0  0  0  0  0  0  0  0  0  0
    0.9850    6.4445    0.4831 N   0  0  0  0  0  0  0  0  0  0  0  0
    0.9506    7.7712    0.6933 C   0  0  0  0  0  0  0  0  0  0  0  0
    0.9625    7.9898    2.0192 C   0  0  0  0  0  0  0  0  0  0  0  0
    1.0000    6.7560    2.6293 N   0  0  0  0  0  0  0  0  0  0  0  0
    1.0200    6.4971    4.0711 C   0  0  0  0  0  0  0  0  0  0  0  0
    8.1095    3.2648   -0.4667 H   0  0  0  0  0  0  0  0  0  0  0  0
    8.9682    1.9297    0.3385 H   0  0  0  0  0  0  0  0  0  0  0  0
    8.7968    1.9375   -1.4332 H   0  0  0  0  0  0  0  0  0  0  0  0
    7.0982    1.3515    1.7663 H   0  0  0  0  0  0  0  0  0  0  0  0
    4.9796    0.1215    1.9784 H   0  0  0  0  0  0  0  0  0  0  0  0
    6.6871    1.3710   -2.4806 H   0  0  0  0  0  0  0  0  0  0  0  0
    3.6524    0.8258   -2.8909 H   0  0  0  0  0  0  0  0  0  0  0  0
    5.0464   -0.1149   -3.4743 H   0  0  0  0  0  0  0  0  0  0  0  0
    3.8025   -0.8972   -2.4699 H   0  0  0  0  0  0  0  0  0  0  0  0
   -2.0252   -0.2099    0.0596 H   0  0  0  0  0  0  0  0  0  0  0  0
   -1.1794   -1.6602   -0.0022 H   0  0  0  0  0  0  0  0  0  0  0  0
    1.9342    3.9372   -0.3704 H   0  0  0  0  0  0  0  0  0  0  0  0
    0.1551    3.8877   -0.3467 H   0  0  0  0  0  0  0  0  0  0  0  0
    0.9192    8.5320   -0.0726 H   0  0  0  0  0  0  0  0  0  0  0  0
    0.9417    8.9503    2.5124 H   0  0  0  0  0  0  0  0  0  0  0  0
    2.0521    6.4624    4.4197 H   0  0  0  0  0  0  0  0  0  0  0  0
    0.4875    7.2937    4.5907 H   0  0  0  0  0  0  0  0  0  0  0  0
    0.5351    5.5425    4.2755 H   0  0  0  0  0  0  0  0  0  0  0  0
  1  2  1  0  0  0  0
  1 26  1  0  0  0  0
  1 27  1  0  0  0  0
  1 28  1  0  0  0  0
  2  7  2  0  0  0  0
  2  3  1  0  0  0  0
  3  4  2  0  0  0  0
  3 29  1  0  0  0  0
  4  5  1  0  0  0  0
  4 30  1  0  0  0  0
  5  6  2  0  0  0  0
  5  9  1  0  0  0  0
  6  7  1  0  0  0  0
  6  8  1  0  0  0  0
  7 31  1  0  0  0  0
  8 32  1  0  0  0  0
  8 33  1  0  0  0  0
  8 34  1  0  0  0  0
  9 10  2  0  0  0  0
 10 16  1  0  0  0  0
 10 11  1  0  0  0  0
 11 12  1  0  0  0  0
 11 13  1  0  0  0  0
 13 14  2  0  0  0  0
 13 18  1  0  0  0  0
 14 15  1  0  0  0  0
 15 16  2  0  0  0  0
 15 17  1  0  0  0  0
 17 35  1  0  0  0  0
 17 36  1  0  0  0  0
 18 19  1  0  0  0  0
 18 37  1  0  0  0  0
 18 38  1  0  0  0  0
 19 20  1  0  0  0  0
 20 24  1  0  0  0  0
 20 21  2  0  0  0  0
 21 22  1  0  0  0  0
 22 23  2  0  0  0  0
 22 39  1  0  0  0  0
 23 24  1  0  0  0  0
 23 40  1  0  0  0  0
 24 25  1  0  0  0  0
 25 41  1  0  0  0  0
 25 42  1  0  0  0  0
 25 43  1  0  0  0  0
M  END
$$$$
ZINC03855577
  -OEChem-08230709453D

 44 46  0     0  0  0  0  0  0999 V2000
    8.3124    2.1942   -0.4910 C   0  0  0  0  0  0  0  0  0  0  0  0
    7.0167    1.4344   -0.3690 C   0  0  0  0  0  0  0  0  0  0  0  0
    6.5404    1.0816    0.8818 C   0  0  0  0  0  0  0  0  0  0  0  0
    5.3524    0.3919    1.0016 C   0  0  0  0  0  0  0  0  0  0  0  0
    4.6349    0.0385   -0.1447 C   0  0  0  0  0  0  0  0  0  0  0  0
    5.1222    0.3977   -1.4041 C   0  0  0  0  0  0  0  0  0  0  0  0
    6.3092    1.0926   -1.5080 C   0  0  0  0  0  0  0  0  0  0  0  0
    4.3527    0.0272   -2.6457 C   0  0  0  0  0  0  0  0  0  0  0  0
    3.4598   -0.6501   -0.0340 N   0  0  0  0  0  0  0  0  0  0  0  0
    2.3100    0.0049    0.0043 C   0  0  0  0  0  0  0  0  0  0  0  0
    2.2922    1.3835    0.0516 N   0  0  0  0  0  0  0  0  0  0  0  0
    3.1223    1.8854    0.0572 H   0  0  0  0  0  0  0  0  0  0  0  0
    1.1030    2.0264    0.0905 C   0  0  0  0  0  0  0  0  0  0  0  0
   -0.0118    1.3414    0.0830 N   0  0  0  0  0  0  0  0  0  0  0  0
    0.0036    0.0012    0.0371 C   0  0  0  0  0  0  0  0  0  0  0  0
    1.1470   -0.6632   -0.0019 N   0  0  0  0  0  0  0  0  0  0  0  0
   -1.1833   -0.6908    0.0309 N   0  0  0  0  0  0  0  0  0  0  0  0
    1.0619    3.5320    0.1424 C   0  0  0  0  0  0  0  0  0  0  0  0
    1.0698    4.0766    1.8685 S   0  0  0  0  0  0  0  0  0  0  0  0
    1.0182    5.8227    1.6387 C   0  0  0  0  0  0  0  0  0  0  0  0
    0.9506    7.7712    0.6933 C   0  0  0  0  0  0  0  0  0  0  0  0
    0.9625    7.9898    2.0192 C   0  0  0  0  0  0  0  0  0  0  0  0
    1.0000    6.7560    2.6293 N   0  0  0  0  0  0  0  0  0  0  0  0
    1.0200    6.4971    4.0711 C   0  0  0  0  0  0  0  0  0  0  0  0
    8.1095    3.2648   -0.4667 H   0  0  0  0  0  0  0  0  0  0  0  0
    8.9682    1.9297    0.3385 H   0  0  0  0  0  0  0  0  0  0  0  0
    8.7968    1.9375   -1.4332 H   0  0  0  0  0  0  0  0  0  0  0  0
    7.0982    1.3515    1.7663 H   0  0  0  0  0  0  0  0  0  0  0  0
    4.9796    0.1215    1.9784 H   0  0  0  0  0  0  0  0  0  0  0  0
    6.6871    1.3710   -2.4806 H   0  0  0  0  0  0  0  0  0  0  0  0
    3.6524    0.8258   -2.8909 H   0  0  0  0  0  0  0  0  0  0  0  0
    5.0464   -0.1149   -3.4743 H   0  0  0  0  0  0  0  0  0  0  0  0
    3.8025   -0.8972   -2.4699 H   0  0  0  0  0  0  0  0  0  0  0  0
   -2.0252   -0.2099    0.0596 H   0  0  0  0  0  0  0  0  0  0  0  0
   -1.1794   -1.6602   -0.0022 H   0  0  0  0  0  0  0  0  0  0  0  0
    1.9342    3.9372   -0.3704 H   0  0  0  0  0  0  0  0  0  0  0  0
    0.1551    3.8877   -0.3467 H   0  0  0  0  0  0  0  0  0  0  0  0
    0.9192    8.5320   -0.0726 H   0  0  0  0  0  0  0  0  0  0  0  0
    0.9417    8.9503    2.5124 H   0  0  0  0  0  0  0  0  0  0  0  0
    2.0521    6.4624    4.4197 H   0  0  0  0  0  0  0  0  0  0  0  0
    0.4875    7.2937    4.5907 H   0  0  0  0  0  0  0  0  0  0  0  0
    0.5351    5.5425    4.2755 H   0  0  0  0  0  0  0  0  0  0  0  0
    0.9850    6.4450    0.4840 N   0  3  0  0  0  0  0  0  0  0  0  0
    0.9853    5.9891   -0.4360 H   0  0  0  0  0  0  0  0  0  0  0  0
  1  2  1  0  0  0  0
  1 25  1  0  0  0  0
  1 26  1  0  0  0  0
  1 27  1  0  0  0  0
  2  7  2  0  0  0  0
  2  3  1  0  0  0  0
  3  4  2  0  0  0  0
  3 28  1  0  0  0  0
  4  5  1  0  0  0  0
  4 29  1  0  0  0  0
  5  6  2  0  0  0  0
  5  9  1  0  0  0  0
  6  7  1  0  0  0  0
  6  8  1  0  0  0  0
  7 30  1  0  0  0  0
  8 31  1  0  0  0  0
  8 32  1  0  0  0  0
  8 33  1  0  0  0  0
  9 10  2  0  0  0  0
 10 16  1  0  0  0  0
 10 11  1  0  0  0  0
 11 12  1  0  0  0  0
 11 13  1  0  0  0  0
 13 14  2  0  0  0  0
 13 18  1  0  0  0  0
 14 15  1  0  0  0  0
 15 16  2  0  0  0  0
 15 17  1  0  0  0  0
 17 34  1  0  0  0  0
 17 35  1  0  0  0  0
 18 19  1  0  0  0  0
 18 36  1  0  0  0  0
 18 37  1  0  0  0  0
 19 20  1  0  0  0  0
 20 23  1  0  0  0  0
 20 43  2  0  0  0  0
 21 22  2  0  0  0  0
 21 38  1  0  0  0  0
 21 43  1  0  0  0  0
 22 23  1  0  0  0  0
 22 39  1  0  0  0  0
 23 24  1  0  0  0  0
 24 40  1  0  0  0  0
 24 41  1  0  0  0  0
 24 42  1  0  0  0  0
 43 44  1  0  0  0  0
M  CHG  1  43   1
M  END
$$$$
ZINC03855578
  -OEChem-08230709453D

 43 45  0     0  0  0  0  0  0999 V2000
   -2.9873    3.9849   -9.2203 C   0  0  0  0  0  0  0  0  0  0  0  0
   -2.2169    3.5954   -7.9851 C   0  0  0  0  0  0  0  0  0  0  0  0
   -1.6794    4.5771   -7.1707 C   0  0  0  0  0  0  0  0  0  0  0  0
   -0.9733    4.2283   -6.0388 C   0  0  0  0  0  0  0  0  0  0  0  0
   -0.8010    2.8797   -5.7147 C   0  0  0  0  0  0  0  0  0  0  0  0
   -1.3420    1.8941   -6.5445 C   0  0  0  0  0  0  0  0  0  0  0  0
   -2.0508    2.2583   -7.6704 C   0  0  0  0  0  0  0  0  0  0  0  0
   -1.1564    0.4372   -6.2071 C   0  0  0  0  0  0  0  0  0  0  0  0
   -0.1021    2.5265   -4.5949 N   0  0  0  0  0  0  0  0  0  0  0  0
   -0.7403    2.3224   -3.4532 C   0  0  0  0  0  0  0  0  0  0  0  0
   -0.0621    1.8518   -2.3479 N   0  0  0  0  0  0  0  0  0  0  0  0
    0.8887    1.6662   -2.3974 H   0  0  0  0  0  0  0  0  0  0  0  0
   -0.7394    1.6528   -1.1943 C   0  0  0  0  0  0  0  0  0  0  0  0
   -2.0229    1.9015   -1.1378 N   0  0  0  0  0  0  0  0  0  0  0  0
   -2.6827    2.3638   -2.2099 C   0  0  0  0  0  0  0  0  0  0  0  0
   -2.0548    2.5709   -3.3558 N   0  0  0  0  0  0  0  0  0  0  0  0
   -4.0294    2.6203   -2.1187 N   0  0  0  0  0  0  0  0  0  0  0  0
   -0.0172    1.1388    0.0243 C   0  0  0  0  0  0  0  0  0  0  0  0
   -0.8220    1.7747    1.5156 S   0  0  0  0  0  0  0  0  0  0  0  0
    0.1968    1.0388    2.7506 C   0  0  0  0  0  0  0  0  0  0  0  0
    1.2266    0.2554    2.5298 N   0  0  0  0  0  0  0  0  0  0  0  0
    1.7638   -0.1139    3.7047 C   0  0  0  0  0  0  0  0  0  0  0  0
    1.0455    0.4461    4.6929 C   0  0  0  0  0  0  0  0  0  0  0  0
    0.0462    1.1814    4.0958 N   0  0  0  0  0  0  0  0  0  0  0  0
   -0.9835    1.9684    4.7789 C   0  0  0  0  0  0  0  0  0  0  0  0
   -2.3042    4.0580  -10.0666 H   0  0  0  0  0  0  0  0  0  0  0  0
   -3.7449    3.2296   -9.4292 H   0  0  0  0  0  0  0  0  0  0  0  0
   -3.4700    4.9487   -9.0587 H   0  0  0  0  0  0  0  0  0  0  0  0
   -1.8131    5.6187   -7.4226 H   0  0  0  0  0  0  0  0  0  0  0  0
   -0.5542    4.9954   -5.4045 H   0  0  0  0  0  0  0  0  0  0  0  0
   -2.4730    1.4978   -8.3105 H   0  0  0  0  0  0  0  0  0  0  0  0
   -1.9811    0.1020   -5.5781 H   0  0  0  0  0  0  0  0  0  0  0  0
   -1.1387   -0.1491   -7.1259 H   0  0  0  0  0  0  0  0  0  0  0  0
   -0.2153    0.3048   -5.6734 H   0  0  0  0  0  0  0  0  0  0  0  0
   -4.5135    2.9511   -2.8914 H   0  0  0  0  0  0  0  0  0  0  0  0
   -4.4960    2.4707   -1.2815 H   0  0  0  0  0  0  0  0  0  0  0  0
   -0.0471    0.0492    0.0318 H   0  0  0  0  0  0  0  0  0  0  0  0
    1.0198    1.4736    0.0003 H   0  0  0  0  0  0  0  0  0  0  0  0
    2.6236   -0.7547    3.8332 H   0  0  0  0  0  0  0  0  0  0  0  0
    1.2192    0.3398    5.7535 H   0  0  0  0  0  0  0  0  0  0  0  0
   -1.8552    1.3414    4.9665 H   0  0  0  0  0  0  0  0  0  0  0  0
   -0.5903    2.3368    5.7264 H   0  0  0  0  0  0  0  0  0  0  0  0
   -1.2712    2.8124    4.1521 H   0  0  0  0  0  0  0  0  0  0  0  0
  1  2  1  0  0  0  0
  1 26  1  0  0  0  0
  1 27  1  0  0  0  0
  1 28  1  0  0  0  0
  2  7  2  0  0  0  0
  2  3  1  0  0  0  0
  3  4  2  0  0  0  0
  3 29  1  0  0  0  0
  4  5  1  0  0  0  0
  4 30  1  0  0  0  0
  5  6  2  0  0  0  0
  5  9  1  0  0  0  0
  6  7  1  0  0  0  0
  6  8  1  0  0  0  0
  7 31  1  0  0  0  0
  8 32  1  0  0  0  0
  8 33  1  0  0  0  0
  8 34  1  0  0  0  0
  9 10  2  0  0  0  0
 10 16  1  0  0  0  0
 10 11  1  0  0  0  0
 11 12  1  0  0  0  0
 11 13  1  0  0  0  0
 13 14  2  0  0  0  0
 13 18  1  0  0  0  0
 14 15  1  0  0  0  0
 15 16  2  0  0  0  0
 15 17  1  0  0  0  0
 17 35  1  0  0  0  0
 17 36  1  0  0  0  0
 18 19  1  0  0  0  0
 18 37  1  0  0  0  0
 18 38  1  0  0  0  0
 19 20  1  0  0  0  0
 20 24  1  0  0  0  0
 20 21  2  0  0  0  0
 21 22  1  0  0  0  0
 22 23  2  0  0  0  0
 22 39  1  0  0  0  0
 23 24  1  0  0  0  0
 23 40  1  0  0  0  0
 24 25  1  0  0  0  0
 25 41  1  0  0  0  0
 25 42  1  0  0  0  0
 25 43  1  0  0  0  0
M  END
$$$$
ZINC03855585
  -OEChem-08230709453D

 40 42  0     0  0  0  0  0  0999 V2000
   -1.3336    2.1127   -0.0073 C   0  0  0  0  0  0  0  0  0  0  0  0
   -0.0185    1.3768   -0.0145 C   0  0  0  0  0  0  0  0  0  0  0  0
    0.5925    1.0471    1.1827 C   0  0  0  0  0  0  0  0  0  0  0  0
    1.7988    0.3787    1.1839 C   0  0  0  0  0  0  0  0  0  0  0  0
    2.4040    0.0339   -0.0277 C   0  0  0  0  0  0  0  0  0  0  0  0
    1.7809    0.3703   -1.2326 C   0  0  0  0  0  0  0  0  0  0  0  0
    0.5749    1.0391   -1.2182 C   0  0  0  0  0  0  0  0  0  0  0  0
    3.5987   -0.6291   -0.0343 N   0  0  0  0  0  0  0  0  0  0  0  0
    4.7311    0.0482   -0.1413 C   0  0  0  0  0  0  0  0  0  0  0  0
    4.7234    1.4277   -0.1359 N   0  0  0  0  0  0  0  0  0  0  0  0
    3.8880    1.9138   -0.0542 H   0  0  0  0  0  0  0  0  0  0  0  0
    5.8952    2.0939   -0.2463 C   0  0  0  0  0  0  0  0  0  0  0  0
    7.0175    1.4301   -0.3566 N   0  0  0  0  0  0  0  0  0  0  0  0
    7.0268    0.0890   -0.3621 C   0  0  0  0  0  0  0  0  0  0  0  0
    5.9014   -0.5977   -0.2510 N   0  0  0  0  0  0  0  0  0  0  0  0
    8.2209   -0.5803   -0.4788 N   0  0  0  0  0  0  0  0  0  0  0  0
    5.9084    3.6008   -0.2429 C   0  0  0  0  0  0  0  0  0  0  0  0
    7.4663    4.1890    0.4665 S   0  0  0  0  0  0  0  0  0  0  0  0
    7.2177    5.9294    0.3501 C   0  0  0  0  0  0  0  0  0  0  0  0
    6.1548    6.5221   -0.1420 N   0  0  0  0  0  0  0  0  0  0  0  0
    6.3136    7.8542   -0.0656 C   0  0  0  0  0  0  0  0  0  0  0  0
    7.5148    8.1062    0.4818 C   0  0  0  0  0  0  0  0  0  0  0  0
    8.0976    6.8879    0.7497 N   0  0  0  0  0  0  0  0  0  0  0  0
    9.4148    6.6655    1.3512 C   0  0  0  0  0  0  0  0  0  0  0  0
   -2.1525    1.3933   -0.0014 H   0  0  0  0  0  0  0  0  0  0  0  0
   -1.3943    2.7396    0.8823 H   0  0  0  0  0  0  0  0  0  0  0  0
   -1.4052    2.7374   -0.8976 H   0  0  0  0  0  0  0  0  0  0  0  0
    0.1237    1.3142    2.1182 H   0  0  0  0  0  0  0  0  0  0  0  0
    2.2744    0.1217    2.1189 H   0  0  0  0  0  0  0  0  0  0  0  0
    2.2426    0.1067   -2.1728 H   0  0  0  0  0  0  0  0  0  0  0  0
    0.0923    1.2996   -2.1485 H   0  0  0  0  0  0  0  0  0  0  0  0
    9.0501   -0.0830   -0.5565 H   0  0  0  0  0  0  0  0  0  0  0  0
    8.2348   -1.5502   -0.4834 H   0  0  0  0  0  0  0  0  0  0  0  0
    5.8133    3.9673   -1.2651 H   0  0  0  0  0  0  0  0  0  0  0  0
    5.0748    3.9701    0.3544 H   0  0  0  0  0  0  0  0  0  0  0  0
    5.5998    8.5957   -0.3927 H   0  0  0  0  0  0  0  0  0  0  0  0
    7.9416    9.0793    0.6750 H   0  0  0  0  0  0  0  0  0  0  0  0
   10.1681    6.6084    0.5654 H   0  0  0  0  0  0  0  0  0  0  0  0
    9.6517    7.4909    2.0224 H   0  0  0  0  0  0  0  0  0  0  0  0
    9.4045    5.7316    1.9132 H   0  0  0  0  0  0  0  0  0  0  0  0
  1  2  1  0  0  0  0
  1 25  1  0  0  0  0
  1 26  1  0  0  0  0
  1 27  1  0  0  0  0
  2  7  2  0  0  0  0
  2  3  1  0  0  0  0
  3  4  2  0  0  0  0
  3 28  1  0  0  0  0
  4  5  1  0  0  0  0
  4 29  1  0  0  0  0
  5  6  2  0  0  0  0
  5  8  1  0  0  0  0
  6  7  1  0  0  0  0
  6 30  1  0  0  0  0
  7 31  1  0  0  0  0
  8  9  2  0  0  0  0
  9 15  1  0  0  0  0
  9 10  1  0  0  0  0
 10 11  1  0  0  0  0
 10 12  1  0  0  0  0
 12 13  2  0  0  0  0
 12 17  1  0  0  0  0
 13 14  1  0  0  0  0
 14 15  2  0  0  0  0
 14 16  1  0  0  0  0
 16 32  1  0  0  0  0
 16 33  1  0  0  0  0
 17 18  1  0  0  0  0
 17 34  1  0  0  0  0
 17 35  1  0  0  0  0
 18 19  1  0  0  0  0
 19 23  1  0  0  0  0
 19 20  2  0  0  0  0
 20 21  1  0  0  0  0
 21 22  2  0  0  0  0
 21 36  1  0  0  0  0
 22 23  1  0  0  0  0
 22 37  1  0  0  0  0
 23 24  1  0  0  0  0
 24 38  1  0  0  0  0
 24 39  1  0  0  0  0
 24 40  1  0  0  0  0
M  END
$$$$
ZINC03855585
  -OEChem-08230709453D

 41 43  0     0  0  0  0  0  0999 V2000
   -1.3336    2.1127   -0.0073 C   0  0  0  0  0  0  0  0  0  0  0  0
   -0.0185    1.3768   -0.0145 C   0  0  0  0  0  0  0  0  0  0  0  0
    0.5925    1.0471    1.1827 C   0  0  0  0  0  0  0  0  0  0  0  0
    1.7988    0.3787    1.1839 C   0  0  0  0  0  0  0  0  0  0  0  0
    2.4040    0.0339   -0.0277 C   0  0  0  0  0  0  0  0  0  0  0  0
    1.7809    0.3703   -1.2326 C   0  0  0  0  0  0  0  0  0  0  0  0
    0.5749    1.0391   -1.2182 C   0  0  0  0  0  0  0  0  0  0  0  0
    3.5987   -0.6291   -0.0343 N   0  0  0  0  0  0  0  0  0  0  0  0
    4.7311    0.0482   -0.1413 C   0  0  0  0  0  0  0  0  0  0  0  0
    4.7234    1.4277   -0.1359 N   0  0  0  0  0  0  0  0  0  0  0  0
    3.8880    1.9138   -0.0542 H   0  0  0  0  0  0  0  0  0  0  0  0
    5.8952    2.0939   -0.2463 C   0  0  0  0  0  0  0  0  0  0  0  0
    7.0175    1.4301   -0.3566 N   0  0  0  0  0  0  0  0  0  0  0  0
    7.0268    0.0890   -0.3621 C   0  0  0  0  0  0  0  0  0  0  0  0
    5.9014   -0.5977   -0.2510 N   0  0  0  0  0  0  0  0  0  0  0  0
    8.2209   -0.5803   -0.4788 N   0  0  0  0  0  0  0  0  0  0  0  0
    5.9084    3.6008   -0.2429 C   0  0  0  0  0  0  0  0  0  0  0  0
    7.4663    4.1890    0.4665 S   0  0  0  0  0  0  0  0  0  0  0  0
    7.2177    5.9294    0.3501 C   0  0  0  0  0  0  0  0  0  0  0  0
    6.3136    7.8542   -0.0656 C   0  0  0  0  0  0  0  0  0  0  0  0
    7.5148    8.1062    0.4818 C   0  0  0  0  0  0  0  0  0  0  0  0
    8.0976    6.8879    0.7497 N   0  0  0  0  0  0  0  0  0  0  0  0
    9.4148    6.6655    1.3512 C   0  0  0  0  0  0  0  0  0  0  0  0
   -2.1525    1.3933   -0.0014 H   0  0  0  0  0  0  0  0  0  0  0  0
   -1.3943    2.7396    0.8823 H   0  0  0  0  0  0  0  0  0  0  0  0
   -1.4052    2.7374   -0.8976 H   0  0  0  0  0  0  0  0  0  0  0  0
    0.1237    1.3142    2.1182 H   0  0  0  0  0  0  0  0  0  0  0  0
    2.2744    0.1217    2.1189 H   0  0  0  0  0  0  0  0  0  0  0  0
    2.2426    0.1067   -2.1728 H   0  0  0  0  0  0  0  0  0  0  0  0
    0.0923    1.2996   -2.1485 H   0  0  0  0  0  0  0  0  0  0  0  0
    9.0501   -0.0830   -0.5565 H   0  0  0  0  0  0  0  0  0  0  0  0
    8.2348   -1.5502   -0.4834 H   0  0  0  0  0  0  0  0  0  0  0  0
    5.8133    3.9673   -1.2651 H   0  0  0  0  0  0  0  0  0  0  0  0
    5.0748    3.9701    0.3544 H   0  0  0  0  0  0  0  0  0  0  0  0
    5.5998    8.5957   -0.3927 H   0  0  0  0  0  0  0  0  0  0  0  0
    7.9416    9.0793    0.6750 H   0  0  0  0  0  0  0  0  0  0  0  0
   10.1681    6.6084    0.5654 H   0  0  0  0  0  0  0  0  0  0  0  0
    9.6517    7.4909    2.0224 H   0  0  0  0  0  0  0  0  0  0  0  0
    9.4045    5.7316    1.9132 H   0  0  0  0  0  0  0  0  0  0  0  0
    6.1556    6.5226   -0.1416 N   0  3  0  0  0  0  0  0  0  0  0  0
    5.3322    6.0435   -0.5247 H   0  0  0  0  0  0  0  0  0  0  0  0
  1  2  1  0  0  0  0
  1 24  1  0  0  0  0
  1 25  1  0  0  0  0
  1 26  1  0  0  0  0
  2  7  2  0  0  0  0
  2  3  1  0  0  0  0
  3  4  2  0  0  0  0
  3 27  1  0  0  0  0
  4  5  1  0  0  0  0
  4 28  1  0  0  0  0
  5  6  2  0  0  0  0
  5  8  1  0  0  0  0
  6  7  1  0  0  0  0
  6 29  1  0  0  0  0
  7 30  1  0  0  0  0
  8  9  2  0  0  0  0
  9 15  1  0  0  0  0
  9 10  1  0  0  0  0
 10 11  1  0  0  0  0
 10 12  1  0  0  0  0
 12 13  2  0  0  0  0
 12 17  1  0  0  0  0
 13 14  1  0  0  0  0
 14 15  2  0  0  0  0
 14 16  1  0  0  0  0
 16 31  1  0  0  0  0
 16 32  1  0  0  0  0
 17 18  1  0  0  0  0
 17 33  1  0  0  0  0
 17 34  1  0  0  0  0
 18 19  1  0  0  0  0
 19 22  1  0  0  0  0
 19 40  2  0  0  0  0
 20 21  2  0  0  0  0
 20 35  1  0  0  0  0
 20 40  1  0  0  0  0
 21 22  1  0  0  0  0
 21 36  1  0  0  0  0
 22 23  1  0  0  0  0
 23 37  1  0  0  0  0
 23 38  1  0  0  0  0
 23 39  1  0  0  0  0
 40 41  1  0  0  0  0
M  CHG  1  40   1
M  END
$$$$
ZINC03855586
  -OEChem-08230709453D

 40 42  0     0  0  0  0  0  0999 V2000
    2.4238    7.8370    0.4592 C   0  0  0  0  0  0  0  0  0  0  0  0
    1.1347    7.0646    0.3473 C   0  0  0  0  0  0  0  0  0  0  0  0
    0.5909    6.8094   -0.8994 C   0  0  0  0  0  0  0  0  0  0  0  0
   -0.5888    6.1036   -1.0096 C   0  0  0  0  0  0  0  0  0  0  0  0
   -1.2350    5.6454    0.1417 C   0  0  0  0  0  0  0  0  0  0  0  0
   -0.6826    5.9115    1.3976 C   0  0  0  0  0  0  0  0  0  0  0  0
    0.5003    6.6144    1.4918 C   0  0  0  0  0  0  0  0  0  0  0  0
   -2.4041    4.9454    0.0403 N   0  0  0  0  0  0  0  0  0  0  0  0
   -2.3841    3.6218    0.0275 C   0  0  0  0  0  0  0  0  0  0  0  0
   -3.5627    2.9050    0.0357 N   0  0  0  0  0  0  0  0  0  0  0  0
   -4.4169    3.3645    0.0505 H   0  0  0  0  0  0  0  0  0  0  0  0
   -3.5124    1.5535    0.0222 C   0  0  0  0  0  0  0  0  0  0  0  0
   -2.3559    0.9418    0.0018 N   0  0  0  0  0  0  0  0  0  0  0  0
   -1.2091    1.6372   -0.0061 C   0  0  0  0  0  0  0  0  0  0  0  0
   -1.2175    2.9600    0.0120 N   0  0  0  0  0  0  0  0  0  0  0  0
   -0.0099    0.9670   -0.0276 N   0  0  0  0  0  0  0  0  0  0  0  0
   -4.7886    0.7519    0.0303 C   0  0  0  0  0  0  0  0  0  0  0  0
   -4.5242   -0.8120   -0.8417 S   0  0  0  0  0  0  0  0  0  0  0  0
   -6.1277   -1.5252   -0.6838 C   0  0  0  0  0  0  0  0  0  0  0  0
   -7.1553   -0.9777   -0.0777 N   0  0  0  0  0  0  0  0  0  0  0  0
   -8.2100   -1.8066   -0.1551 C   0  0  0  0  0  0  0  0  0  0  0  0
   -7.8346   -2.9068   -0.8293 C   0  0  0  0  0  0  0  0  0  0  0  0
   -6.5129   -2.7349   -1.1746 N   0  0  0  0  0  0  0  0  0  0  0  0
   -5.6786   -3.6768   -1.9248 C   0  0  0  0  0  0  0  0  0  0  0  0
    2.2038    8.9017    0.5378 H   0  0  0  0  0  0  0  0  0  0  0  0
    2.9665    7.5116    1.3467 H   0  0  0  0  0  0  0  0  0  0  0  0
    3.0336    7.6565   -0.4261 H   0  0  0  0  0  0  0  0  0  0  0  0
    1.0914    7.1642   -1.7883 H   0  0  0  0  0  0  0  0  0  0  0  0
   -1.0124    5.9058   -1.9832 H   0  0  0  0  0  0  0  0  0  0  0  0
   -1.1787    5.5644    2.2918 H   0  0  0  0  0  0  0  0  0  0  0  0
    0.9305    6.8173    2.4614 H   0  0  0  0  0  0  0  0  0  0  0  0
    0.0036   -0.0029   -0.0370 H   0  0  0  0  0  0  0  0  0  0  0  0
    0.8232    1.4637   -0.0375 H   0  0  0  0  0  0  0  0  0  0  0  0
   -5.0834    0.5486    1.0597 H   0  0  0  0  0  0  0  0  0  0  0  0
   -5.5759    1.3173   -0.4683 H   0  0  0  0  0  0  0  0  0  0  0  0
   -9.1917   -1.6205    0.2548 H   0  0  0  0  0  0  0  0  0  0  0  0
   -8.4534   -3.7613   -1.0606 H   0  0  0  0  0  0  0  0  0  0  0  0
   -5.1861   -4.3582   -1.2311 H   0  0  0  0  0  0  0  0  0  0  0  0
   -6.3028   -4.2470   -2.6127 H   0  0  0  0  0  0  0  0  0  0  0  0
   -4.9259   -3.1259   -2.4888 H   0  0  0  0  0  0  0  0  0  0  0  0
  1  2  1  0  0  0  0
  1 25  1  0  0  0  0
  1 26  1  0  0  0  0
  1 27  1  0  0  0  0
  2  7  2  0  0  0  0
  2  3  1  0  0  0  0
  3  4  2  0  0  0  0
  3 28  1  0  0  0  0
  4  5  1  0  0  0  0
  4 29  1  0  0  0  0
  5  6  2  0  0  0  0
  5  8  1  0  0  0  0
  6  7  1  0  0  0  0
  6 30  1  0  0  0  0
  7 31  1  0  0  0  0
  8  9  2  0  0  0  0
  9 15  1  0  0  0  0
  9 10  1  0  0  0  0
 10 11  1  0  0  0  0
 10 12  1  0  0  0  0
 12 13  2  0  0  0  0
 12 17  1  0  0  0  0
 13 14  1  0  0  0  0
 14 15  2  0  0  0  0
 14 16  1  0  0  0  0
 16 32  1  0  0  0  0
 16 33  1  0  0  0  0
 17 18  1  0  0  0  0
 17 34  1  0  0  0  0
 17 35  1  0  0  0  0
 18 19  1  0  0  0  0
 19 23  1  0  0  0  0
 19 20  2  0  0  0  0
 20 21  1  0  0  0  0
 21 22  2  0  0  0  0
 21 36  1  0  0  0  0
 22 23  1  0  0  0  0
 22 37  1  0  0  0  0
 23 24  1  0  0  0  0
 24 38  1  0  0  0  0
 24 39  1  0  0  0  0
 24 40  1  0  0  0  0
M  END
$$$$
ZINC03855594
  -OEChem-08230709453D

 41 43  0     0  0  0  0  0  0999 V2000
   -1.0289    1.8674    4.7680 C   0  0  0  0  0  0  0  0  0  0  0  0
    0.0215    1.1085    4.0846 N   0  0  0  0  0  0  0  0  0  0  0  0
    1.0325    0.3894    4.6816 C   0  0  0  0  0  0  0  0  0  0  0  0
    1.7687   -0.1465    3.6932 C   0  0  0  0  0  0  0  0  0  0  0  0
    1.2310    0.2216    2.5181 N   0  0  0  0  0  0  0  0  0  0  0  0
    0.1833    0.9810    2.7392 C   0  0  0  0  0  0  0  0  0  0  0  0
   -0.8433    1.7059    1.5042 S   0  0  0  0  0  0  0  0  0  0  0  0
   -0.0160    1.1003    0.0126 C   0  0  0  0  0  0  0  0  0  0  0  0
   -0.7415    1.6096   -1.2061 C   0  0  0  0  0  0  0  0  0  0  0  0
   -0.0614    1.8331   -2.3538 N   0  0  0  0  0  0  0  0  0  0  0  0
    0.8934    1.6682   -2.3990 H   0  0  0  0  0  0  0  0  0  0  0  0
   -0.7434    2.2992   -3.4598 C   0  0  0  0  0  0  0  0  0  0  0  0
   -0.1036    2.5268   -4.5951 N   0  0  0  0  0  0  0  0  0  0  0  0
   -0.8038    2.8804   -5.7160 C   0  0  0  0  0  0  0  0  0  0  0  0
   -0.9764    4.2271   -6.0397 C   0  0  0  0  0  0  0  0  0  0  0  0
   -1.6836    4.5771   -7.1724 C   0  0  0  0  0  0  0  0  0  0  0  0
   -2.2224    3.5981   -7.9878 C   0  0  0  0  0  0  0  0  0  0  0  0
   -2.0571    2.2596   -7.6766 C   0  0  0  0  0  0  0  0  0  0  0  0
   -1.3466    1.8924   -6.5481 C   0  0  0  0  0  0  0  0  0  0  0  0
   -1.1799    0.5772   -6.2446 O   0  0  0  0  0  0  0  0  0  0  0  0
   -1.7612   -0.3738   -7.1389 C   0  0  0  0  0  0  0  0  0  0  0  0
   -2.0641    2.5187   -3.3678 N   0  0  0  0  0  0  0  0  0  0  0  0
   -2.6937    2.2881   -2.2277 C   0  0  0  0  0  0  0  0  0  0  0  0
   -2.0302    1.8304   -1.1555 N   0  0  0  0  0  0  0  0  0  0  0  0
   -4.0461    2.5154   -2.1419 N   0  0  0  0  0  0  0  0  0  0  0  0
   -1.8882    1.2205    4.9446 H   0  0  0  0  0  0  0  0  0  0  0  0
   -0.6495    2.2358    5.7211 H   0  0  0  0  0  0  0  0  0  0  0  0
   -1.3306    2.7107    4.1467 H   0  0  0  0  0  0  0  0  0  0  0  0
    1.2020    0.2775    5.7423 H   0  0  0  0  0  0  0  0  0  0  0  0
    2.6411   -0.7700    3.8215 H   0  0  0  0  0  0  0  0  0  0  0  0
   -0.0228    0.0104    0.0104 H   0  0  0  0  0  0  0  0  0  0  0  0
    1.0138    1.4573   -0.0020 H   0  0  0  0  0  0  0  0  0  0  0  0
   -0.5570    4.9939   -5.4054 H   0  0  0  0  0  0  0  0  0  0  0  0
   -1.8170    5.6192   -7.4228 H   0  0  0  0  0  0  0  0  0  0  0  0
   -2.7748    3.8796   -8.8721 H   0  0  0  0  0  0  0  0  0  0  0  0
   -2.4803    1.5007   -8.3179 H   0  0  0  0  0  0  0  0  0  0  0  0
   -2.8390   -0.2181   -7.1844 H   0  0  0  0  0  0  0  0  0  0  0  0
   -1.3333   -0.2462   -8.1332 H   0  0  0  0  0  0  0  0  0  0  0  0
   -1.5546   -1.3825   -6.7811 H   0  0  0  0  0  0  0  0  0  0  0  0
   -4.5328    2.8429   -2.9144 H   0  0  0  0  0  0  0  0  0  0  0  0
   -4.5142    2.3484   -1.3089 H   0  0  0  0  0  0  0  0  0  0  0  0
  1  2  1  0  0  0  0
  1 26  1  0  0  0  0
  1 27  1  0  0  0  0
  1 28  1  0  0  0  0
  2  6  1  0  0  0  0
  2  3  1  0  0  0  0
  3  4  2  0  0  0  0
  3 29  1  0  0  0  0
  4  5  1  0  0  0  0
  4 30  1  0  0  0  0
  5  6  2  0  0  0  0
  6  7  1  0  0  0  0
  7  8  1  0  0  0  0
  8  9  1  0  0  0  0
  8 31  1  0  0  0  0
  8 32  1  0  0  0  0
  9 24  2  0  0  0  0
  9 10  1  0  0  0  0
 10 11  1  0  0  0  0
 10 12  1  0  0  0  0
 12 13  2  0  0  0  0
 12 22  1  0  0  0  0
 13 14  1  0  0  0  0
 14 19  2  0  0  0  0
 14 15  1  0  0  0  0
 15 16  2  0  0  0  0
 15 33  1  0  0  0  0
 16 17  1  0  0  0  0
 16 34  1  0  0  0  0
 17 18  2  0  0  0  0
 17 35  1  0  0  0  0
 18 19  1  0  0  0  0
 18 36  1  0  0  0  0
 19 20  1  0  0  0  0
 20 21  1  0  0  0  0
 21 37  1  0  0  0  0
 21 38  1  0  0  0  0
 21 39  1  0  0  0  0
 22 23  2  0  0  0  0
 23 24  1  0  0  0  0
 23 25  1  0  0  0  0
 25 40  1  0  0  0  0
 25 41  1  0  0  0  0
M  END
$$$$
ZINC03855613
  -OEChem-08230709453D

 41 43  0     0  0  0  0  0  0999 V2000
   -5.6768   -3.6792   -1.9227 C   0  0  0  0  0  0  0  0  0  0  0  0
   -6.5115   -2.7374   -1.1726 N   0  0  0  0  0  0  0  0  0  0  0  0
   -7.8331   -2.9099   -0.8271 C   0  0  0  0  0  0  0  0  0  0  0  0
   -8.2088   -1.8096   -0.1532 C   0  0  0  0  0  0  0  0  0  0  0  0
   -7.1546   -0.9802   -0.0762 N   0  0  0  0  0  0  0  0  0  0  0  0
   -6.1268   -1.5274   -0.6823 C   0  0  0  0  0  0  0  0  0  0  0  0
   -4.5237   -0.8135   -0.8408 S   0  0  0  0  0  0  0  0  0  0  0  0
   -4.7886    0.7506    0.0307 C   0  0  0  0  0  0  0  0  0  0  0  0
   -3.5129    1.5528    0.0222 C   0  0  0  0  0  0  0  0  0  0  0  0
   -3.5639    2.9044    0.0352 N   0  0  0  0  0  0  0  0  0  0  0  0
   -4.4182    3.3635    0.0497 H   0  0  0  0  0  0  0  0  0  0  0  0
   -2.3847    3.6219    0.0271 C   0  0  0  0  0  0  0  0  0  0  0  0
   -2.4048    4.9446    0.0395 N   0  0  0  0  0  0  0  0  0  0  0  0
   -1.2341    5.6458    0.1410 C   0  0  0  0  0  0  0  0  0  0  0  0
   -0.6832    5.9116    1.3968 C   0  0  0  0  0  0  0  0  0  0  0  0
    0.4998    6.6142    1.4937 C   0  0  0  0  0  0  0  0  0  0  0  0
    1.1370    7.0663    0.3467 C   0  0  0  0  0  0  0  0  0  0  0  0
    0.5909    6.8093   -0.9029 C   0  0  0  0  0  0  0  0  0  0  0  0
   -0.5890    6.1030   -1.0105 C   0  0  0  0  0  0  0  0  0  0  0  0
    2.3002    7.7640    0.4477 O   0  0  0  0  0  0  0  0  0  0  0  0
    2.8070    7.9933    1.7640 C   0  0  0  0  0  0  0  0  0  0  0  0
   -1.2175    2.9597    0.0119 N   0  0  0  0  0  0  0  0  0  0  0  0
   -1.2092    1.6372   -0.0061 C   0  0  0  0  0  0  0  0  0  0  0  0
   -2.3561    0.9417    0.0018 N   0  0  0  0  0  0  0  0  0  0  0  0
   -0.0099    0.9670   -0.0277 N   0  0  0  0  0  0  0  0  0  0  0  0
   -5.1840   -4.3602   -1.2289 H   0  0  0  0  0  0  0  0  0  0  0  0
   -6.3010   -4.2499   -2.6103 H   0  0  0  0  0  0  0  0  0  0  0  0
   -4.9245   -3.1281   -2.4870 H   0  0  0  0  0  0  0  0  0  0  0  0
   -8.4515   -3.7647   -1.0579 H   0  0  0  0  0  0  0  0  0  0  0  0
   -9.1906   -1.6239    0.2568 H   0  0  0  0  0  0  0  0  0  0  0  0
   -5.0832    0.5475    1.0603 H   0  0  0  0  0  0  0  0  0  0  0  0
   -5.5763    1.3154   -0.4678 H   0  0  0  0  0  0  0  0  0  0  0  0
   -1.1808    5.5643    2.2903 H   0  0  0  0  0  0  0  0  0  0  0  0
    0.9289    6.8164    2.4640 H   0  0  0  0  0  0  0  0  0  0  0  0
    1.0904    7.1632   -1.7927 H   0  0  0  0  0  0  0  0  0  0  0  0
   -1.0135    5.9041   -1.9834 H   0  0  0  0  0  0  0  0  0  0  0  0
    2.9955    7.0373    2.2525 H   0  0  0  0  0  0  0  0  0  0  0  0
    3.7365    8.5592    1.7020 H   0  0  0  0  0  0  0  0  0  0  0  0
    2.0754    8.5584    2.3417 H   0  0  0  0  0  0  0  0  0  0  0  0
    0.0036   -0.0029   -0.0370 H   0  0  0  0  0  0  0  0  0  0  0  0
    0.8232    1.4637   -0.0375 H   0  0  0  0  0  0  0  0  0  0  0  0
  1  2  1  0  0  0  0
  1 26  1  0  0  0  0
  1 27  1  0  0  0  0
  1 28  1  0  0  0  0
  2  6  1  0  0  0  0
  2  3  1  0  0  0  0
  3  4  2  0  0  0  0
  3 29  1  0  0  0  0
  4  5  1  0  0  0  0
  4 30  1  0  0  0  0
  5  6  2  0  0  0  0
  6  7  1  0  0  0  0
  7  8  1  0  0  0  0
  8  9  1  0  0  0  0
  8 31  1  0  0  0  0
  8 32  1  0  0  0  0
  9 24  2  0  0  0  0
  9 10  1  0  0  0  0
 10 11  1  0  0  0  0
 10 12  1  0  0  0  0
 12 13  2  0  0  0  0
 12 22  1  0  0  0  0
 13 14  1  0  0  0  0
 14 19  2  0  0  0  0
 14 15  1  0  0  0  0
 15 16  2  0  0  0  0
 15 33  1  0  0  0  0
 16 17  1  0  0  0  0
 16 34  1  0  0  0  0
 17 18  2  0  0  0  0
 17 20  1  0  0  0  0
 18 19  1  0  0  0  0
 18 35  1  0  0  0  0
 19 36  1  0  0  0  0
 20 21  1  0  0  0  0
 21 37  1  0  0  0  0
 21 38  1  0  0  0  0
 21 39  1  0  0  0  0
 22 23  2  0  0  0  0
 23 24  1  0  0  0  0
 23 25  1  0  0  0  0
 25 40  1  0  0  0  0
 25 41  1  0  0  0  0
M  END
$$$$
ZINC03856445
  -OEChem-08230709453D

 44 47  0     0  0  0  0  0  0999 V2000
   -1.1453    3.4804    0.0264 C   0  0  0  0  0  0  0  0  0  0  0  0
   -1.2026    2.0526    0.0189 O   0  0  0  0  0  0  0  0  0  0  0  0
   -0.0168    1.3872    0.0097 C   0  0  0  0  0  0  0  0  0  0  0  0
    1.1746    2.0925    0.0021 C   0  0  0  0  0  0  0  0  0  0  0  0
    2.3904    1.4251   -0.0124 C   0  0  0  0  0  0  0  0  0  0  0  0
    2.4310    0.0492   -0.0209 C   0  0  0  0  0  0  0  0  0  0  0  0
    1.2356   -0.6806   -0.0168 C   0  0  0  0  0  0  0  0  0  0  0  0
    0.0021   -0.0041    0.0020 C   0  0  0  0  0  0  0  0  0  0  0  0
   -1.1547   -0.7109    0.0152 O   0  0  0  0  0  0  0  0  0  0  0  0
   -1.1296   -1.9445   -0.5492 C   0  0  0  0  0  0  0  0  0  0  0  0
   -2.1325   -2.3725   -1.2930 N   0  0  0  0  0  0  0  0  0  0  0  0
   -3.2028   -1.5801   -1.5019 C   0  0  0  0  0  0  0  0  0  0  0  0
   -4.3546   -1.8392   -2.2543 C   0  0  0  0  0  0  0  0  0  0  0  0
   -5.3687   -0.8015   -2.3105 C   0  0  0  0  0  0  0  0  0  0  0  0
   -5.0995    0.3375   -1.6325 C   0  0  0  0  0  0  0  0  0  0  0  0
   -3.5099    0.0697   -0.8968 S   0  0  0  0  0  0  0  0  0  0  0  0
   -5.9636    1.5569   -1.5305 C   0  0  0  0  0  0  0  0  0  0  0  0
   -7.0466    1.4764   -2.6159 C   0  0  0  0  0  0  0  0  0  0  0  0
   -7.6761    0.0808   -2.5787 C   0  0  0  0  0  0  0  0  0  0  0  0
   -6.6731   -0.9552   -3.0874 C   0  0  0  0  0  0  0  0  0  0  0  0
   -4.5282   -3.0841   -2.9404 C   0  0  0  0  0  0  0  0  0  0  0  0
   -4.6659   -4.0717   -3.4847 N   0  0  0  0  0  0  0  0  0  0  0  0
    0.0517   -2.7925   -0.3061 C   0  0  0  0  0  0  0  0  0  0  0  0
    1.2512   -2.1449   -0.0355 C   0  0  0  0  0  0  0  0  0  0  0  0
   -0.0356   -4.2628   -0.3488 C   0  0  0  0  0  0  0  0  0  0  0  0
   -1.0990   -4.8021   -0.5882 O   0  0  0  0  0  0  0  0  0  0  0  0
    1.0631   -5.0099   -0.1225 N   0  0  0  0  0  0  0  0  0  0  0  0
   -0.6215    3.8277   -0.8642 H   0  0  0  0  0  0  0  0  0  0  0  0
   -2.1576    3.8846    0.0334 H   0  0  0  0  0  0  0  0  0  0  0  0
   -0.6131    3.8180    0.9157 H   0  0  0  0  0  0  0  0  0  0  0  0
    1.1570    3.1724    0.0074 H   0  0  0  0  0  0  0  0  0  0  0  0
    3.3115    1.9889   -0.0172 H   0  0  0  0  0  0  0  0  0  0  0  0
    3.3806   -0.4653   -0.0311 H   0  0  0  0  0  0  0  0  0  0  0  0
   -6.4319    1.5937   -0.5469 H   0  0  0  0  0  0  0  0  0  0  0  0
   -5.3574    2.4500   -1.6825 H   0  0  0  0  0  0  0  0  0  0  0  0
   -7.8124    2.2281   -2.4248 H   0  0  0  0  0  0  0  0  0  0  0  0
   -6.5975    1.6490   -3.5939 H   0  0  0  0  0  0  0  0  0  0  0  0
   -7.9592   -0.1617   -1.5544 H   0  0  0  0  0  0  0  0  0  0  0  0
   -8.5628    0.0664   -3.2126 H   0  0  0  0  0  0  0  0  0  0  0  0
   -7.0737   -1.9573   -2.9340 H   0  0  0  0  0  0  0  0  0  0  0  0
   -6.4889   -0.7942   -4.1496 H   0  0  0  0  0  0  0  0  0  0  0  0
    2.1586   -2.6993    0.1532 H   0  0  0  0  0  0  0  0  0  0  0  0
    1.9112   -4.5797    0.0685 H   0  0  0  0  0  0  0  0  0  0  0  0
    1.0056   -5.9778   -0.1506 H   0  0  0  0  0  0  0  0  0  0  0  0
  1  2  1  0  0  0  0
  1 28  1  0  0  0  0
  1 29  1  0  0  0  0
  1 30  1  0  0  0  0
  2  3  1  0  0  0  0
  3  8  2  0  0  0  0
  3  4  1  0  0  0  0
  4  5  2  0  0  0  0
  4 31  1  0  0  0  0
  5  6  1  0  0  0  0
  5 32  1  0  0  0  0
  6  7  2  0  0  0  0
  6 33  1  0  0  0  0
  7 24  1  0  0  0  0
  7  8  1  0  0  0  0
  8  9  1  0  0  0  0
  9 10  1  0  0  0  0
 10 11  2  0  0  0  0
 10 23  1  0  0  0  0
 11 12  1  0  0  0  0
 12 16  1  0  0  0  0
 12 13  2  0  0  0  0
 13 14  1  0  0  0  0
 13 21  1  0  0  0  0
 14 20  1  0  0  0  0
 14 15  2  0  0  0  0
 15 16  1  0  0  0  0
 15 17  1  0  0  0  0
 17 18  1  0  0  0  0
 17 34  1  0  0  0  0
 17 35  1  0  0  0  0
 18 19  1  0  0  0  0
 18 36  1  0  0  0  0
 18 37  1  0  0  0  0
 19 20  1  0  0  0  0
 19 38  1  0  0  0  0
 19 39  1  0  0  0  0
 20 40  1  0  0  0  0
 20 41  1  0  0  0  0
 21 22  3  0  0  0  0
 23 24  2  0  0  0  0
 23 25  1  0  0  0  0
 24 42  1  0  0  0  0
 25 26  2  0  0  0  0
 25 27  1  0  0  0  0
 27 43  1  0  0  0  0
 27 44  1  0  0  0  0
M  END
$$$$
ZINC03856525
  -OEChem-08230709453D

 44 47  0     0  0  0  0  0  0999 V2000
    2.5226   -2.6532   -0.0413 C   0  0  0  0  0  0  0  0  0  0  0  0
    1.2376   -2.0284   -0.0229 O   0  0  0  0  0  0  0  0  0  0  0  0
    1.2122   -0.6691   -0.0157 C   0  0  0  0  0  0  0  0  0  0  0  0
    2.4064    0.0465   -0.0266 C   0  0  0  0  0  0  0  0  0  0  0  0
    2.3988    1.4262   -0.0180 C   0  0  0  0  0  0  0  0  0  0  0  0
    1.1943    2.1136    0.0020 C   0  0  0  0  0  0  0  0  0  0  0  0
   -0.0169    1.3959    0.0097 C   0  0  0  0  0  0  0  0  0  0  0  0
    0.0021   -0.0041    0.0020 C   0  0  0  0  0  0  0  0  0  0  0  0
   -1.2853    2.1275    0.0197 C   0  0  0  0  0  0  0  0  0  0  0  0
   -1.2388    3.4904   -0.2454 C   0  0  0  0  0  0  0  0  0  0  0  0
    0.0860    4.0760   -0.5195 C   0  0  0  0  0  0  0  0  0  0  0  0
    0.2099    5.1584   -1.2648 N   0  0  0  0  0  0  0  0  0  0  0  0
    1.4311    5.6771   -1.5021 C   0  0  0  0  0  0  0  0  0  0  0  0
    1.7759    6.8019   -2.2612 C   0  0  0  0  0  0  0  0  0  0  0  0
    3.1835    7.1468   -2.3512 C   0  0  0  0  0  0  0  0  0  0  0  0
    4.0431    6.3347   -1.6947 C   0  0  0  0  0  0  0  0  0  0  0  0
    3.0218    5.1014   -0.9358 S   0  0  0  0  0  0  0  0  0  0  0  0
    5.5346    6.4578   -1.6287 C   0  0  0  0  0  0  0  0  0  0  0  0
    5.9899    7.4322   -2.7244 C   0  0  0  0  0  0  0  0  0  0  0  0
    5.1102    8.6843   -2.6646 C   0  0  0  0  0  0  0  0  0  0  0  0
    3.6960    8.3487   -3.1395 C   0  0  0  0  0  0  0  0  0  0  0  0
    0.7762    7.5861   -2.9216 C   0  0  0  0  0  0  0  0  0  0  0  0
   -0.0169    8.2083   -3.4455 N   0  0  0  0  0  0  0  0  0  0  0  0
    1.1741    3.4692    0.0175 O   0  0  0  0  0  0  0  0  0  0  0  0
   -2.4604    4.3142   -0.2552 C   0  0  0  0  0  0  0  0  0  0  0  0
   -2.3891    5.5047   -0.4932 O   0  0  0  0  0  0  0  0  0  0  0  0
   -3.6568    3.7483   -0.0005 N   0  0  0  0  0  0  0  0  0  0  0  0
    2.4000   -3.7363   -0.0454 H   0  0  0  0  0  0  0  0  0  0  0  0
    3.0635   -2.3454   -0.9362 H   0  0  0  0  0  0  0  0  0  0  0  0
    3.0846   -2.3545    0.8436 H   0  0  0  0  0  0  0  0  0  0  0  0
    3.3474   -0.4832   -0.0423 H   0  0  0  0  0  0  0  0  0  0  0  0
    3.3312    1.9711   -0.0273 H   0  0  0  0  0  0  0  0  0  0  0  0
   -0.9237   -0.5602    0.0095 H   0  0  0  0  0  0  0  0  0  0  0  0
   -2.2201    1.6280    0.2270 H   0  0  0  0  0  0  0  0  0  0  0  0
    5.8283    6.8412   -0.6515 H   0  0  0  0  0  0  0  0  0  0  0  0
    5.9910    5.4817   -1.7928 H   0  0  0  0  0  0  0  0  0  0  0  0
    7.0311    7.7086   -2.5582 H   0  0  0  0  0  0  0  0  0  0  0  0
    5.8863    6.9588   -3.7008 H   0  0  0  0  0  0  0  0  0  0  0  0
    5.0704    9.0503   -1.6387 H   0  0  0  0  0  0  0  0  0  0  0  0
    5.5336    9.4555   -3.3081 H   0  0  0  0  0  0  0  0  0  0  0  0
    3.0412    9.2032   -2.9693 H   0  0  0  0  0  0  0  0  0  0  0  0
    3.7150    8.1092   -4.2027 H   0  0  0  0  0  0  0  0  0  0  0  0
   -3.7137    2.7987    0.1892 H   0  0  0  0  0  0  0  0  0  0  0  0
   -4.4610    4.2906   -0.0070 H   0  0  0  0  0  0  0  0  0  0  0  0
  1  2  1  0  0  0  0
  1 28  1  0  0  0  0
  1 29  1  0  0  0  0
  1 30  1  0  0  0  0
  2  3  1  0  0  0  0
  3  8  2  0  0  0  0
  3  4  1  0  0  0  0
  4  5  2  0  0  0  0
  4 31  1  0  0  0  0
  5  6  1  0  0  0  0
  5 32  1  0  0  0  0
  6 24  1  0  0  0  0
  6  7  2  0  0  0  0
  7  8  1  0  0  0  0
  7  9  1  0  0  0  0
  8 33  1  0  0  0  0
  9 10  2  0  0  0  0
  9 34  1  0  0  0  0
 10 11  1  0  0  0  0
 10 25  1  0  0  0  0
 11 12  2  0  0  0  0
 11 24  1  0  0  0  0
 12 13  1  0  0  0  0
 13 17  1  0  0  0  0
 13 14  2  0  0  0  0
 14 15  1  0  0  0  0
 14 22  1  0  0  0  0
 15 21  1  0  0  0  0
 15 16  2  0  0  0  0
 16 17  1  0  0  0  0
 16 18  1  0  0  0  0
 18 19  1  0  0  0  0
 18 35  1  0  0  0  0
 18 36  1  0  0  0  0
 19 20  1  0  0  0  0
 19 37  1  0  0  0  0
 19 38  1  0  0  0  0
 20 21  1  0  0  0  0
 20 39  1  0  0  0  0
 20 40  1  0  0  0  0
 21 41  1  0  0  0  0
 21 42  1  0  0  0  0
 22 23  3  0  0  0  0
 25 26  2  0  0  0  0
 25 27  1  0  0  0  0
 27 43  1  0  0  0  0
 27 44  1  0  0  0  0
M  END
$$$$
ZINC03857518
  -OEChem-08230709453D

 42 43  0     0  0  0  0  0  0999 V2000
    4.0255    5.6422   10.8098 C   0  0  0  0  0  0  0  0  0  0  0  0
    4.8602    6.0370    9.5898 C   0  0  0  0  0  0  0  0  0  0  0  0
    4.1869    5.5128    8.3199 C   0  0  0  0  0  0  0  0  0  0  0  0
    5.0216    5.9076    7.0999 C   0  0  0  0  0  0  0  0  0  0  0  0
    4.3584    5.3913    5.8491 C   0  0  0  0  0  0  0  0  0  0  0  0
    3.3204    4.7688    5.9258 O   0  0  0  0  0  0  0  0  0  0  0  0
    4.9189    5.6212    4.6451 N   0  0  0  0  0  0  0  0  0  0  0  0
    4.3024    5.1412    3.4822 N   0  0  0  0  0  0  0  0  0  0  0  0
    4.8621    5.3709    2.2798 C   0  0  0  0  0  0  0  0  0  0  0  0
    4.2002    4.9891    1.1226 C   0  0  0  0  0  0  0  0  0  0  0  0
    4.7147    5.3416   -0.2076 C   0  0  0  0  0  0  0  0  0  0  0  0
    4.0356    4.9463   -1.2720 N   0  0  0  0  0  0  0  0  0  0  0  0
    2.9128    4.2405   -1.1708 C   0  0  0  0  0  0  0  0  0  0  0  0
    2.3465    3.9085   -2.1973 O   0  0  0  0  0  0  0  0  0  0  0  0
    2.3675    3.8788   -0.0002 N   0  0  0  0  0  0  0  0  0  0  0  0
    2.9494    4.2111    1.1720 C   0  0  0  0  0  0  0  0  0  0  0  0
    2.4570    3.8794    2.2346 O   0  0  0  0  0  0  0  0  0  0  0  0
    1.1767    3.1385    0.0063 C   0  0  0  0  0  0  0  0  0  0  0  0
   -0.0479    3.7911    0.0356 C   0  0  0  0  0  0  0  0  0  0  0  0
   -1.2195    3.0594    0.0425 C   0  0  0  0  0  0  0  0  0  0  0  0
   -1.1746    1.6776    0.0150 C   0  0  0  0  0  0  0  0  0  0  0  0
    0.0428    1.0227   -0.0089 C   0  0  0  0  0  0  0  0  0  0  0  0
    1.2199    1.7491   -0.0160 C   0  0  0  0  0  0  0  0  0  0  0  0
    2.4095    1.1095   -0.0450 F   0  0  0  0  0  0  0  0  0  0  0  0
    5.8544    6.0522   -0.3407 O   0  0  0  0  0  0  0  0  0  0  0  0
    3.0283    6.0735   10.7227 H   0  0  0  0  0  0  0  0  0  0  0  0
    3.9484    4.5561   10.8612 H   0  0  0  0  0  0  0  0  0  0  0  0
    4.5052    6.0156   11.7145 H   0  0  0  0  0  0  0  0  0  0  0  0
    5.8574    5.6056    9.6769 H   0  0  0  0  0  0  0  0  0  0  0  0
    4.9373    7.1230    9.5384 H   0  0  0  0  0  0  0  0  0  0  0  0
    3.1897    5.9441    8.2328 H   0  0  0  0  0  0  0  0  0  0  0  0
    4.1098    4.4267    8.3713 H   0  0  0  0  0  0  0  0  0  0  0  0
    6.0189    5.4762    7.1870 H   0  0  0  0  0  0  0  0  0  0  0  0
    5.0988    6.9936    7.0485 H   0  0  0  0  0  0  0  0  0  0  0  0
    5.7492    6.1191    4.5838 H   0  0  0  0  0  0  0  0  0  0  0  0
    3.4721    4.6434    3.5436 H   0  0  0  0  0  0  0  0  0  0  0  0
    5.8267    5.8525    2.2164 H   0  0  0  0  0  0  0  0  0  0  0  0
   -0.0847    4.8704    0.0527 H   0  0  0  0  0  0  0  0  0  0  0  0
   -2.1723    3.5675    0.0653 H   0  0  0  0  0  0  0  0  0  0  0  0
   -2.0925    1.1085    0.0163 H   0  0  0  0  0  0  0  0  0  0  0  0
    0.0746   -0.0567   -0.0266 H   0  0  0  0  0  0  0  0  0  0  0  0
    6.1026    6.2292   -1.2584 H   0  0  0  0  0  0  0  0  0  0  0  0
  1  2  1  0  0  0  0
  1 26  1  0  0  0  0
  1 27  1  0  0  0  0
  1 28  1  0  0  0  0
  2  3  1  0  0  0  0
  2 29  1  0  0  0  0
  2 30  1  0  0  0  0
  3  4  1  0  0  0  0
  3 31  1  0  0  0  0
  3 32  1  0  0  0  0
  4  5  1  0  0  0  0
  4 33  1  0  0  0  0
  4 34  1  0  0  0  0
  5  6  2  0  0  0  0
  5  7  1  0  0  0  0
  7  8  1  0  0  0  0
  7 35  1  0  0  0  0
  8  9  1  0  0  0  0
  8 36  1  0  0  0  0
  9 10  2  0  0  0  0
  9 37  1  0  0  0  0
 10 16  1  0  0  0  0
 10 11  1  0  0  0  0
 11 12  2  0  0  0  0
 11 25  1  0  0  0  0
 12 13  1  0  0  0  0
 13 14  2  0  0  0  0
 13 15  1  0  0  0  0
 15 16  1  0  0  0  0
 15 18  1  0  0  0  0
 16 17  2  0  0  0  0
 18 23  2  0  0  0  0
 18 19  1  0  0  0  0
 19 20  2  0  0  0  0
 19 38  1  0  0  0  0
 20 21  1  0  0  0  0
 20 39  1  0  0  0  0
 21 22  2  0  0  0  0
 21 40  1  0  0  0  0
 22 23  1  0  0  0  0
 22 41  1  0  0  0  0
 23 24  1  0  0  0  0
 25 42  1  0  0  0  0
M  END
$$$$
ZINC03857987
  -OEChem-08230709453D

 40 42  0     0  0  0  0  0  0999 V2000
    2.4009    5.4976    1.1497 C   0  0  0  0  0  0  0  0  0  0  0  0
    2.3989    3.9957    1.0260 C   0  0  0  0  0  0  0  0  0  0  0  0
    3.5667    3.2840    1.2327 C   0  0  0  0  0  0  0  0  0  0  0  0
    3.5693    1.9060    1.1197 C   0  0  0  0  0  0  0  0  0  0  0  0
    2.4035    1.2350    0.8058 C   0  0  0  0  0  0  0  0  0  0  0  0
    1.2304    1.9471    0.5919 C   0  0  0  0  0  0  0  0  0  0  0  0
    1.2314    3.3317    0.7058 C   0  0  0  0  0  0  0  0  0  0  0  0
   -0.0403    4.1080    0.4798 C   0  0  0  0  0  0  0  0  0  0  0  0
    0.0500    1.2716    0.2684 N   0  0  0  0  0  0  0  0  0  0  0  0
    0.0160   -0.0988    0.2915 C   0  0  0  0  0  0  0  0  0  0  0  0
    1.0107   -0.9415    0.5205 N   0  0  0  0  0  0  0  0  0  0  0  0
    0.8457   -2.2458    0.5144 C   0  0  0  0  0  0  0  0  0  0  0  0
    1.7710   -3.0129    0.7275 O   0  0  0  0  0  0  0  0  0  0  0  0
   -0.5253   -2.7333    0.2351 C   0  0  0  0  0  0  0  0  0  0  0  0
   -0.9986   -4.0034    0.1629 C   0  0  0  0  0  0  0  0  0  0  0  0
   -0.0667   -5.1373    0.1995 C   0  0  0  0  0  0  0  0  0  0  0  0
   -0.3826   -6.2825    0.9410 C   0  0  0  0  0  0  0  0  0  0  0  0
    0.4937   -7.3446    0.9734 C   0  0  0  0  0  0  0  0  0  0  0  0
    1.6909   -7.2835    0.2723 C   0  0  0  0  0  0  0  0  0  0  0  0
    2.0131   -6.1468   -0.4684 C   0  0  0  0  0  0  0  0  0  0  0  0
    1.1384   -5.0793   -0.5116 C   0  0  0  0  0  0  0  0  0  0  0  0
    3.1868   -6.0919   -1.1532 O   0  0  0  0  0  0  0  0  0  0  0  0
    2.5507   -8.3345    0.3080 O   0  0  0  0  0  0  0  0  0  0  0  0
   -1.3827   -1.1776    0.0274 S   0  0  0  0  0  0  0  0  0  0  0  0
    2.1742    5.7777    2.1784 H   0  0  0  0  0  0  0  0  0  0  0  0
    3.3830    5.8834    0.8761 H   0  0  0  0  0  0  0  0  0  0  0  0
    1.6471    5.9180    0.4841 H   0  0  0  0  0  0  0  0  0  0  0  0
    4.4786    3.8059    1.4826 H   0  0  0  0  0  0  0  0  0  0  0  0
    4.4831    1.3533    1.2811 H   0  0  0  0  0  0  0  0  0  0  0  0
    2.4052    0.1582    0.7225 H   0  0  0  0  0  0  0  0  0  0  0  0
   -0.5745    4.2132    1.4240 H   0  0  0  0  0  0  0  0  0  0  0  0
    0.2018    5.0957    0.0873 H   0  0  0  0  0  0  0  0  0  0  0  0
   -0.6681    3.5767   -0.2356 H   0  0  0  0  0  0  0  0  0  0  0  0
   -0.7439    1.7723    0.0238 H   0  0  0  0  0  0  0  0  0  0  0  0
   -2.0607   -4.1798    0.0787 H   0  0  0  0  0  0  0  0  0  0  0  0
   -1.3128   -6.3327    1.4875 H   0  0  0  0  0  0  0  0  0  0  0  0
    0.2489   -8.2275    1.5452 H   0  0  0  0  0  0  0  0  0  0  0  0
    1.3849   -4.2003   -1.0886 H   0  0  0  0  0  0  0  0  0  0  0  0
    3.1295   -6.4249   -2.0592 H   0  0  0  0  0  0  0  0  0  0  0  0
    2.4028   -8.9875   -0.3898 H   0  0  0  0  0  0  0  0  0  0  0  0
  1  2  1  0  0  0  0
  1 25  1  0  0  0  0
  1 26  1  0  0  0  0
  1 27  1  0  0  0  0
  2  7  2  0  0  0  0
  2  3  1  0  0  0  0
  3  4  2  0  0  0  0
  3 28  1  0  0  0  0
  4  5  1  0  0  0  0
  4 29  1  0  0  0  0
  5  6  2  0  0  0  0
  5 30  1  0  0  0  0
  6  7  1  0  0  0  0
  6  9  1  0  0  0  0
  7  8  1  0  0  0  0
  8 31  1  0  0  0  0
  8 32  1  0  0  0  0
  8 33  1  0  0  0  0
  9 10  1  0  0  0  0
  9 34  1  0  0  0  0
 10 24  1  0  0  0  0
 10 11  2  0  0  0  0
 11 12  1  0  0  0  0
 12 13  2  0  0  0  0
 12 14  1  0  0  0  0
 14 15  2  0  0  0  0
 14 24  1  0  0  0  0
 15 16  1  0  0  0  0
 15 35  1  0  0  0  0
 16 21  2  0  0  0  0
 16 17  1  0  0  0  0
 17 18  2  0  0  0  0
 17 36  1  0  0  0  0
 18 19  1  0  0  0  0
 18 37  1  0  0  0  0
 19 20  2  0  0  0  0
 19 23  1  0  0  0  0
 20 21  1  0  0  0  0
 20 22  1  0  0  0  0
 21 38  1  0  0  0  0
 22 39  1  0  0  0  0
 23 40  1  0  0  0  0
M  END
$$$$
ZINC03858008
  -OEChem-08230709453D

 41 43  0     0  0  0  0  0  0999 V2000
    1.2020    3.2454   -2.4654 C   0  0  0  0  0  0  0  0  0  0  0  0
    0.5550    2.8374   -1.1669 C   0  0  0  0  0  0  0  0  0  0  0  0
    1.1521    3.1707    0.0365 C   0  0  0  0  0  0  0  0  0  0  0  0
    0.5655    2.8004    1.2337 C   0  0  0  0  0  0  0  0  0  0  0  0
   -0.6201    2.0955    1.2357 C   0  0  0  0  0  0  0  0  0  0  0  0
   -1.2311    1.7593    0.0248 C   0  0  0  0  0  0  0  0  0  0  0  0
   -0.6301    2.1326   -1.1806 C   0  0  0  0  0  0  0  0  0  0  0  0
   -2.4084    1.0657    0.0192 N   0  0  0  0  0  0  0  0  0  0  0  0
   -3.5582    1.7126    0.1280 C   0  0  0  0  0  0  0  0  0  0  0  0
   -3.5855    3.0918    0.1425 N   0  0  0  0  0  0  0  0  0  0  0  0
   -2.7622    3.6000    0.0731 H   0  0  0  0  0  0  0  0  0  0  0  0
   -4.7751    3.7264    0.2491 C   0  0  0  0  0  0  0  0  0  0  0  0
   -5.8803    3.0329    0.3478 N   0  0  0  0  0  0  0  0  0  0  0  0
   -5.8551    1.6920    0.3395 C   0  0  0  0  0  0  0  0  0  0  0  0
   -4.7115    1.0356    0.2312 N   0  0  0  0  0  0  0  0  0  0  0  0
   -7.0320    0.9910    0.4443 N   0  0  0  0  0  0  0  0  0  0  0  0
   -4.8271    5.2325    0.2612 C   0  0  0  0  0  0  0  0  0  0  0  0
   -6.3970    5.7876   -0.4481 S   0  0  0  0  0  0  0  0  0  0  0  0
   -6.1938    7.5326   -0.3129 C   0  0  0  0  0  0  0  0  0  0  0  0
   -5.0766    8.0153    0.2128 N   0  0  0  0  0  0  0  0  0  0  0  0
   -4.8925    9.3198    0.3282 C   0  0  0  0  0  0  0  0  0  0  0  0
   -5.8847   10.1842   -0.1083 C   0  0  0  0  0  0  0  0  0  0  0  0
   -7.0401    9.6461   -0.6529 C   0  0  0  0  0  0  0  0  0  0  0  0
   -7.1592    8.3319   -0.7442 N   0  0  0  0  0  0  0  0  0  0  0  0
   -8.1447   10.5476   -1.1408 C   0  0  0  0  0  0  0  0  0  0  0  0
    0.8326    4.2268   -2.7628 H   0  0  0  0  0  0  0  0  0  0  0  0
    2.2833    3.2884   -2.3349 H   0  0  0  0  0  0  0  0  0  0  0  0
    0.9580    2.5160   -3.2378 H   0  0  0  0  0  0  0  0  0  0  0  0
    2.0803    3.7228    0.0410 H   0  0  0  0  0  0  0  0  0  0  0  0
    1.0370    3.0642    2.1688 H   0  0  0  0  0  0  0  0  0  0  0  0
   -1.0769    1.8072    2.1710 H   0  0  0  0  0  0  0  0  0  0  0  0
   -1.0950    1.8736   -2.1203 H   0  0  0  0  0  0  0  0  0  0  0  0
   -7.0210    0.0211    0.4386 H   0  0  0  0  0  0  0  0  0  0  0  0
   -7.8740    1.4660    0.5240 H   0  0  0  0  0  0  0  0  0  0  0  0
   -4.7451    5.5906    1.2874 H   0  0  0  0  0  0  0  0  0  0  0  0
   -4.0012    5.6292   -0.3292 H   0  0  0  0  0  0  0  0  0  0  0  0
   -3.9803    9.7071    0.7576 H   0  0  0  0  0  0  0  0  0  0  0  0
   -5.7598   11.2538   -0.0261 H   0  0  0  0  0  0  0  0  0  0  0  0
   -7.9812   10.7865   -2.1917 H   0  0  0  0  0  0  0  0  0  0  0  0
   -9.1034   10.0413   -1.0282 H   0  0  0  0  0  0  0  0  0  0  0  0
   -8.1485   11.4671   -0.5555 H   0  0  0  0  0  0  0  0  0  0  0  0
  1  2  1  0  0  0  0
  1 26  1  0  0  0  0
  1 27  1  0  0  0  0
  1 28  1  0  0  0  0
  2  7  2  0  0  0  0
  2  3  1  0  0  0  0
  3  4  2  0  0  0  0
  3 29  1  0  0  0  0
  4  5  1  0  0  0  0
  4 30  1  0  0  0  0
  5  6  2  0  0  0  0
  5 31  1  0  0  0  0
  6  7  1  0  0  0  0
  6  8  1  0  0  0  0
  7 32  1  0  0  0  0
  8  9  2  0  0  0  0
  9 15  1  0  0  0  0
  9 10  1  0  0  0  0
 10 11  1  0  0  0  0
 10 12  1  0  0  0  0
 12 13  2  0  0  0  0
 12 17  1  0  0  0  0
 13 14  1  0  0  0  0
 14 15  2  0  0  0  0
 14 16  1  0  0  0  0
 16 33  1  0  0  0  0
 16 34  1  0  0  0  0
 17 18  1  0  0  0  0
 17 35  1  0  0  0  0
 17 36  1  0  0  0  0
 18 19  1  0  0  0  0
 19 24  2  0  0  0  0
 19 20  1  0  0  0  0
 20 21  2  0  0  0  0
 21 22  1  0  0  0  0
 21 37  1  0  0  0  0
 22 23  2  0  0  0  0
 22 38  1  0  0  0  0
 23 24  1  0  0  0  0
 23 25  1  0  0  0  0
 25 39  1  0  0  0  0
 25 40  1  0  0  0  0
 25 41  1  0  0  0  0
M  END
$$$$
ZINC03858134
  -OEChem-08230709453D

 40 41  0     0  0  0  0  0  0999 V2000
    5.3279   -0.6652   -1.4791 C   0  0  0  0  0  0  0  0  0  0  0  0
    5.2353   -0.1667   -0.0356 C   0  0  0  0  0  0  0  0  0  0  0  0
    4.9326    1.3096   -0.0323 C   0  0  0  0  0  0  0  0  0  0  0  0
    3.6250    1.7731   -0.0230 C   0  0  0  0  0  0  0  0  0  0  0  0
    3.9023    3.5386   -0.0156 S   0  0  0  0  0  0  0  0  0  0  0  0
    5.6381    3.4961   -0.0328 C   0  0  0  0  0  0  0  0  0  0  0  0
    5.8937    2.1963   -0.0428 N   0  0  0  0  0  0  0  0  0  0  0  0
    6.5266    4.5500   -0.0348 N   0  0  0  0  0  0  0  0  0  0  0  0
    2.3687    1.0248   -0.0151 C   0  0  0  0  0  0  0  0  0  0  0  0
    2.3852   -0.1925   -0.0218 O   0  0  0  0  0  0  0  0  0  0  0  0
    1.1926    1.6828   -0.0003 N   0  0  0  0  0  0  0  0  0  0  0  0
   -0.0111    0.9658    0.0074 N   0  0  0  0  0  0  0  0  0  0  0  0
   -1.2287    1.6469    0.0168 C   0  0  0  0  0  0  0  0  0  0  0  0
   -1.2468    2.9806    0.0242 C   0  0  0  0  0  0  0  0  0  0  0  0
   -2.5009    0.8892    0.0187 C   0  0  0  0  0  0  0  0  0  0  0  0
   -2.4838   -0.5055    0.0053 C   0  0  0  0  0  0  0  0  0  0  0  0
   -3.6702   -1.2079    0.0130 C   0  0  0  0  0  0  0  0  0  0  0  0
   -4.8811   -0.5284    0.0220 C   0  0  0  0  0  0  0  0  0  0  0  0
   -4.9018    0.8599    0.0300 C   0  0  0  0  0  0  0  0  0  0  0  0
   -3.7191    1.5686    0.0282 C   0  0  0  0  0  0  0  0  0  0  0  0
   -6.0483   -1.2236    0.0233 O   0  0  0  0  0  0  0  0  0  0  0  0
   -5.9542   -2.6495    0.0147 C   0  0  0  0  0  0  0  0  0  0  0  0
    4.3796   -0.4876   -1.9863 H   0  0  0  0  0  0  0  0  0  0  0  0
    6.1232   -0.1301   -1.9980 H   0  0  0  0  0  0  0  0  0  0  0  0
    5.5468   -1.7330   -1.4815 H   0  0  0  0  0  0  0  0  0  0  0  0
    6.1836   -0.3443    0.4717 H   0  0  0  0  0  0  0  0  0  0  0  0
    4.4399   -0.7018    0.4833 H   0  0  0  0  0  0  0  0  0  0  0  0
    6.1971    5.4622   -0.0261 H   0  0  0  0  0  0  0  0  0  0  0  0
    7.4814    4.3793   -0.0448 H   0  0  0  0  0  0  0  0  0  0  0  0
    1.1794    2.6527    0.0050 H   0  0  0  0  0  0  0  0  0  0  0  0
    0.0021   -0.0041    0.0020 H   0  0  0  0  0  0  0  0  0  0  0  0
   -2.1893    3.5079    0.0315 H   0  0  0  0  0  0  0  0  0  0  0  0
   -0.3189    3.5333    0.0228 H   0  0  0  0  0  0  0  0  0  0  0  0
   -1.5424   -1.0346   -0.0066 H   0  0  0  0  0  0  0  0  0  0  0  0
   -3.6577   -2.2878    0.0074 H   0  0  0  0  0  0  0  0  0  0  0  0
   -5.8454    1.3853    0.0373 H   0  0  0  0  0  0  0  0  0  0  0  0
   -3.7360    2.6484    0.0345 H   0  0  0  0  0  0  0  0  0  0  0  0
   -6.9557   -3.0798    0.0168 H   0  0  0  0  0  0  0  0  0  0  0  0
   -5.4216   -2.9731   -0.8796 H   0  0  0  0  0  0  0  0  0  0  0  0
   -5.4135   -2.9833    0.9003 H   0  0  0  0  0  0  0  0  0  0  0  0
  1  2  1  0  0  0  0
  1 23  1  0  0  0  0
  1 24  1  0  0  0  0
  1 25  1  0  0  0  0
  2  3  1  0  0  0  0
  2 26  1  0  0  0  0
  2 27  1  0  0  0  0
  3  7  1  0  0  0  0
  3  4  2  0  0  0  0
  4  5  1  0  0  0  0
  4  9  1  0  0  0  0
  5  6  1  0  0  0  0
  6  7  2  0  0  0  0
  6  8  1  0  0  0  0
  8 28  1  0  0  0  0
  8 29  1  0  0  0  0
  9 10  2  0  0  0  0
  9 11  1  0  0  0  0
 11 12  1  0  0  0  0
 11 30  1  0  0  0  0
 12 13  1  0  0  0  0
 12 31  1  0  0  0  0
 13 14  2  0  0  0  0
 13 15  1  0  0  0  0
 14 32  1  0  0  0  0
 14 33  1  0  0  0  0
 15 20  2  0  0  0  0
 15 16  1  0  0  0  0
 16 17  2  0  0  0  0
 16 34  1  0  0  0  0
 17 18  1  0  0  0  0
 17 35  1  0  0  0  0
 18 19  2  0  0  0  0
 18 21  1  0  0  0  0
 19 20  1  0  0  0  0
 19 36  1  0  0  0  0
 20 37  1  0  0  0  0
 21 22  1  0  0  0  0
 22 38  1  0  0  0  0
 22 39  1  0  0  0  0
 22 40  1  0  0  0  0
M  END
$$$$
ZINC03858168
  -OEChem-08230709453D

 44 45  0     0  0  0  0  0  0999 V2000
    3.5626    3.1484   -0.8067 C   0  0  0  0  0  0  0  0  0  0  0  0
    2.4019    3.7371   -0.1341 N   0  0  0  0  0  0  0  0  0  0  0  0
    2.5179    5.0442    0.5173 C   0  0  0  0  0  0  0  0  0  0  0  0
    1.1883    3.0542   -0.1139 C   0  0  0  0  0  0  0  0  0  0  0  0
    1.0804    1.8125   -0.7335 C   0  0  0  0  0  0  0  0  0  0  0  0
   -0.1170    1.1344   -0.7164 C   0  0  0  0  0  0  0  0  0  0  0  0
   -1.2291    1.6978   -0.0791 C   0  0  0  0  0  0  0  0  0  0  0  0
   -1.1145    2.9445    0.5478 C   0  0  0  0  0  0  0  0  0  0  0  0
    0.0867    3.6157    0.5254 C   0  0  0  0  0  0  0  0  0  0  0  0
   -2.5112    0.9804   -0.0635 C   0  0  0  0  0  0  0  0  0  0  0  0
   -3.6666    1.6623    0.1222 C   0  0  0  0  0  0  0  0  0  0  0  0
   -4.9285    0.9336    0.3004 C   0  0  0  0  0  0  0  0  0  0  0  0
   -5.9522    1.5418    0.5513 O   0  0  0  0  0  0  0  0  0  0  0  0
   -4.9533   -0.4091    0.1861 N   0  0  0  0  0  0  0  0  0  0  0  0
   -6.1275   -1.0872    0.3519 N   0  0  0  0  0  0  0  0  0  0  0  0
   -3.6574    3.0616    0.1442 N   0  0  0  0  0  0  0  0  0  0  0  0
   -4.1505    3.7220    1.2106 C   0  0  0  0  0  0  0  0  0  0  0  0
   -4.5232    3.1042    2.1892 O   0  0  0  0  0  0  0  0  0  0  0  0
   -4.2381    5.1974    1.1904 C   0  0  0  0  0  0  0  0  0  0  0  0
   -3.8055    5.9100    0.0705 C   0  0  0  0  0  0  0  0  0  0  0  0
   -3.8930    7.2865    0.0552 C   0  0  0  0  0  0  0  0  0  0  0  0
   -4.3998    7.9633    1.1503 C   0  0  0  0  0  0  0  0  0  0  0  0
   -4.8267    7.2637    2.2674 C   0  0  0  0  0  0  0  0  0  0  0  0
   -4.7481    5.8841    2.2930 C   0  0  0  0  0  0  0  0  0  0  0  0
   -5.3200    7.9311    3.3335 F   0  0  0  0  0  0  0  0  0  0  0  0
    3.5764    3.4635   -1.8501 H   0  0  0  0  0  0  0  0  0  0  0  0
    4.4759    3.4821   -0.3143 H   0  0  0  0  0  0  0  0  0  0  0  0
    3.4990    2.0614   -0.7563 H   0  0  0  0  0  0  0  0  0  0  0  0
    2.8207    4.9072    1.5554 H   0  0  0  0  0  0  0  0  0  0  0  0
    3.2645    5.6444   -0.0028 H   0  0  0  0  0  0  0  0  0  0  0  0
    1.5548    5.5535    0.4840 H   0  0  0  0  0  0  0  0  0  0  0  0
    1.9376    1.3807   -1.2287 H   0  0  0  0  0  0  0  0  0  0  0  0
   -0.1999    0.1711   -1.1977 H   0  0  0  0  0  0  0  0  0  0  0  0
   -1.9686    3.3807    1.0443 H   0  0  0  0  0  0  0  0  0  0  0  0
    0.1749    4.5794    1.0049 H   0  0  0  0  0  0  0  0  0  0  0  0
   -2.5323   -0.0908   -0.2000 H   0  0  0  0  0  0  0  0  0  0  0  0
   -4.1373   -0.8940   -0.0139 H   0  0  0  0  0  0  0  0  0  0  0  0
   -6.8353   -0.7444   -0.2802 H   0  0  0  0  0  0  0  0  0  0  0  0
   -5.9908   -2.0803    0.2375 H   0  0  0  0  0  0  0  0  0  0  0  0
   -3.2963    3.5561   -0.6081 H   0  0  0  0  0  0  0  0  0  0  0  0
   -3.4061    5.3840   -0.7841 H   0  0  0  0  0  0  0  0  0  0  0  0
   -3.5616    7.8377   -0.8124 H   0  0  0  0  0  0  0  0  0  0  0  0
   -4.4625    9.0413    1.1344 H   0  0  0  0  0  0  0  0  0  0  0  0
   -5.0809    5.3388    3.1639 H   0  0  0  0  0  0  0  0  0  0  0  0
  1  2  1  0  0  0  0
  1 26  1  0  0  0  0
  1 27  1  0  0  0  0
  1 28  1  0  0  0  0
  2  3  1  0  0  0  0
  2  4  1  0  0  0  0
  3 29  1  0  0  0  0
  3 30  1  0  0  0  0
  3 31  1  0  0  0  0
  4  9  2  0  0  0  0
  4  5  1  0  0  0  0
  5  6  2  0  0  0  0
  5 32  1  0  0  0  0
  6  7  1  0  0  0  0
  6 33  1  0  0  0  0
  7  8  2  0  0  0  0
  7 10  1  0  0  0  0
  8  9  1  0  0  0  0
  8 34  1  0  0  0  0
  9 35  1  0  0  0  0
 10 11  2  0  0  0  0
 10 36  1  0  0  0  0
 11 12  1  0  0  0  0
 11 16  1  0  0  0  0
 12 13  2  0  0  0  0
 12 14  1  0  0  0  0
 14 15  1  0  0  0  0
 14 37  1  0  0  0  0
 15 38  1  0  0  0  0
 15 39  1  0  0  0  0
 16 17  1  0  0  0  0
 16 40  1  0  0  0  0
 17 18  2  0  0  0  0
 17 19  1  0  0  0  0
 19 24  2  0  0  0  0
 19 20  1  0  0  0  0
 20 21  2  0  0  0  0
 20 41  1  0  0  0  0
 21 22  1  0  0  0  0
 21 42  1  0  0  0  0
 22 23  2  0  0  0  0
 22 43  1  0  0  0  0
 23 24  1  0  0  0  0
 23 25  1  0  0  0  0
 24 44  1  0  0  0  0
M  END
$$$$
ZINC03858211
  -OEChem-08230709453D

 42 43  0     0  0  0  0  0  0999 V2000
    4.9225   -0.3085   -1.7749 C   0  0  0  0  0  0  0  0  0  0  0  0
    6.1441   -0.8620   -1.2815 O   0  0  0  0  0  0  0  0  0  0  0  0
    6.0939   -2.1291   -0.7902 C   0  0  0  0  0  0  0  0  0  0  0  0
    4.8993   -2.8223   -0.7896 C   0  0  0  0  0  0  0  0  0  0  0  0
    4.8500   -4.1245   -0.2789 C   0  0  0  0  0  0  0  0  0  0  0  0
    6.0142   -4.7214    0.2184 C   0  0  0  0  0  0  0  0  0  0  0  0
    7.2031   -4.0245    0.2091 C   0  0  0  0  0  0  0  0  0  0  0  0
    7.2494   -2.7298   -0.2929 C   0  0  0  0  0  0  0  0  0  0  0  0
    8.4240   -2.0476   -0.2996 O   0  0  0  0  0  0  0  0  0  0  0  0
    9.2449   -2.1804   -1.4617 C   0  0  0  0  0  0  0  0  0  0  0  0
    8.7751   -4.8321    0.8819 Br  0  0  0  0  0  0  0  0  0  0  0  0
    3.5804   -4.8652   -0.2703 C   0  0  0  0  0  0  0  0  0  0  0  0
    2.4379   -4.2423    0.0896 C   0  0  0  0  0  0  0  0  0  0  0  0
    2.4927   -2.9414    0.7544 C   0  0  0  0  0  0  0  0  0  0  0  0
    3.5644   -2.4794    1.1004 O   0  0  0  0  0  0  0  0  0  0  0  0
    1.3566   -2.2536    0.9841 N   0  0  0  0  0  0  0  0  0  0  0  0
    1.4159   -0.9721    1.5272 C   0  0  0  0  0  0  0  0  0  0  0  0
    0.5011   -0.0040    1.1238 C   0  0  0  0  0  0  0  0  0  0  0  0
    0.5571    1.2631    1.6586 C   0  0  0  0  0  0  0  0  0  0  0  0
    1.5338    1.5770    2.6077 C   0  0  0  0  0  0  0  0  0  0  0  0
    2.4510    0.6024    3.0107 C   0  0  0  0  0  0  0  0  0  0  0  0
    2.3900   -0.6627    2.4717 C   0  0  0  0  0  0  0  0  0  0  0  0
    1.5970    2.9347    3.1827 C   0  0  0  0  0  0  0  0  0  0  0  0
    0.7987    3.7816    2.8309 O   0  0  0  0  0  0  0  0  0  0  0  0
    2.5395    3.2358    4.0978 N   0  0  0  0  0  0  0  0  0  0  0  0
    5.1021    0.7040   -2.1362 H   0  0  0  0  0  0  0  0  0  0  0  0
    4.5484   -0.9249   -2.5923 H   0  0  0  0  0  0  0  0  0  0  0  0
    4.1852   -0.2826   -0.9725 H   0  0  0  0  0  0  0  0  0  0  0  0
    4.0045   -2.3591   -1.1785 H   0  0  0  0  0  0  0  0  0  0  0  0
    5.9807   -5.7276    0.6095 H   0  0  0  0  0  0  0  0  0  0  0  0
    9.5137   -3.2278   -1.5988 H   0  0  0  0  0  0  0  0  0  0  0  0
    8.6969   -1.8286   -2.3358 H   0  0  0  0  0  0  0  0  0  0  0  0
   10.1501   -1.5863   -1.3370 H   0  0  0  0  0  0  0  0  0  0  0  0
    3.5615   -5.9076   -0.5520 H   0  0  0  0  0  0  0  0  0  0  0  0
    1.4834   -4.7051   -0.1135 H   0  0  0  0  0  0  0  0  0  0  0  0
    0.4977   -2.6509    0.7713 H   0  0  0  0  0  0  0  0  0  0  0  0
   -0.2536   -0.2473    0.3907 H   0  0  0  0  0  0  0  0  0  0  0  0
   -0.1503    2.0153    1.3418 H   0  0  0  0  0  0  0  0  0  0  0  0
    3.2068    0.8417    3.7441 H   0  0  0  0  0  0  0  0  0  0  0  0
    3.0987   -1.4161    2.7825 H   0  0  0  0  0  0  0  0  0  0  0  0
    3.1764    2.5601    4.3785 H   0  0  0  0  0  0  0  0  0  0  0  0
    2.5810    4.1282    4.4758 H   0  0  0  0  0  0  0  0  0  0  0  0
  1  2  1  0  0  0  0
  1 26  1  0  0  0  0
  1 27  1  0  0  0  0
  1 28  1  0  0  0  0
  2  3  1  0  0  0  0
  3  8  2  0  0  0  0
  3  4  1  0  0  0  0
  4  5  2  0  0  0  0
  4 29  1  0  0  0  0
  5  6  1  0  0  0  0
  5 12  1  0  0  0  0
  6  7  2  0  0  0  0
  6 30  1  0  0  0  0
  7  8  1  0  0  0  0
  7 11  1  0  0  0  0
  8  9  1  0  0  0  0
  9 10  1  0  0  0  0
 10 31  1  0  0  0  0
 10 32  1  0  0  0  0
 10 33  1  0  0  0  0
 12 13  2  0  0  0  0
 12 34  1  0  0  0  0
 13 14  1  0  0  0  0
 13 35  1  0  0  0  0
 14 15  2  0  0  0  0
 14 16  1  0  0  0  0
 16 17  1  0  0  0  0
 16 36  1  0  0  0  0
 17 22  2  0  0  0  0
 17 18  1  0  0  0  0
 18 19  2  0  0  0  0
 18 37  1  0  0  0  0
 19 20  1  0  0  0  0
 19 38  1  0  0  0  0
 20 21  2  0  0  0  0
 20 23  1  0  0  0  0
 21 22  1  0  0  0  0
 21 39  1  0  0  0  0
 22 40  1  0  0  0  0
 23 24  2  0  0  0  0
 23 25  1  0  0  0  0
 25 41  1  0  0  0  0
 25 42  1  0  0  0  0
M  END
$$$$
ZINC03858262
  -OEChem-08230709453D

 44 46  0     0  0  0  0  0  0999 V2000
    9.2630   -0.3806   -4.3531 C   0  0  0  0  0  0  0  0  0  0  0  0
    8.7095   -0.3636   -2.9269 C   0  0  0  0  0  0  0  0  0  0  0  0
    7.3668    0.3697   -2.9096 C   0  0  0  0  0  0  0  0  0  0  0  0
    6.8132    0.3866   -1.4833 C   0  0  0  0  0  0  0  0  0  0  0  0
    5.4705    1.1199   -1.4660 C   0  0  0  0  0  0  0  0  0  0  0  0
    4.9170    1.1368   -0.0398 C   0  0  0  0  0  0  0  0  0  0  0  0
    3.5945    1.8591   -0.0227 C   0  0  0  0  0  0  0  0  0  0  0  0
    2.4322    1.1451   -0.0150 C   0  0  0  0  0  0  0  0  0  0  0  0
    1.1994    1.8138    0.0003 C   0  0  0  0  0  0  0  0  0  0  0  0
   -0.0126    1.0758    0.0080 C   0  0  0  0  0  0  0  0  0  0  0  0
   -1.2005    1.7555    0.0172 C   0  0  0  0  0  0  0  0  0  0  0  0
   -1.1816    3.2208    0.0310 C   0  0  0  0  0  0  0  0  0  0  0  0
   -2.2289    3.8410    0.0451 O   0  0  0  0  0  0  0  0  0  0  0  0
   -0.0118    3.8818    0.0230 O   0  0  0  0  0  0  0  0  0  0  0  0
    1.1662    3.2202    0.0078 C   0  0  0  0  0  0  0  0  0  0  0  0
    2.3587    3.9299   -0.0002 C   0  0  0  0  0  0  0  0  0  0  0  0
    3.5664    3.2518   -0.0154 C   0  0  0  0  0  0  0  0  0  0  0  0
    4.7311    3.9496   -0.0236 O   0  0  0  0  0  0  0  0  0  0  0  0
   -2.4867    1.0206    0.0197 C   0  0  0  0  0  0  0  0  0  0  0  0
   -3.6720    1.7018    0.0290 C   0  0  0  0  0  0  0  0  0  0  0  0
   -4.8366    0.3454    0.0270 S   0  0  0  0  0  0  0  0  0  0  0  0
   -3.6389   -0.9810    0.0142 C   0  0  0  0  0  0  0  0  0  0  0  0
   -2.5013   -0.3107    0.0074 N   0  0  0  0  0  0  0  0  0  0  0  0
   -3.8486   -2.3502    0.0084 N   0  0  0  0  0  0  0  0  0  0  0  0
    8.5602   -0.8937   -5.0096 H   0  0  0  0  0  0  0  0  0  0  0  0
    9.4035    0.6430   -4.7005 H   0  0  0  0  0  0  0  0  0  0  0  0
   10.2196   -0.9030   -4.3655 H   0  0  0  0  0  0  0  0  0  0  0  0
    9.4122    0.1495   -2.2705 H   0  0  0  0  0  0  0  0  0  0  0  0
    8.5689   -1.3872   -2.5795 H   0  0  0  0  0  0  0  0  0  0  0  0
    6.6640   -0.1435   -3.5660 H   0  0  0  0  0  0  0  0  0  0  0  0
    7.5073    1.3932   -3.2569 H   0  0  0  0  0  0  0  0  0  0  0  0
    7.5160    0.8998   -0.8269 H   0  0  0  0  0  0  0  0  0  0  0  0
    6.6727   -0.6370   -1.1360 H   0  0  0  0  0  0  0  0  0  0  0  0
    4.7678    0.6067   -2.1224 H   0  0  0  0  0  0  0  0  0  0  0  0
    5.6111    2.1434   -1.8134 H   0  0  0  0  0  0  0  0  0  0  0  0
    5.6197    1.6500    0.6167 H   0  0  0  0  0  0  0  0  0  0  0  0
    4.7765    0.1132    0.3076 H   0  0  0  0  0  0  0  0  0  0  0  0
    2.4612    0.0655   -0.0205 H   0  0  0  0  0  0  0  0  0  0  0  0
    0.0021   -0.0041    0.0020 H   0  0  0  0  0  0  0  0  0  0  0  0
    2.3451    5.0098    0.0051 H   0  0  0  0  0  0  0  0  0  0  0  0
    5.0595    4.1562   -0.9093 H   0  0  0  0  0  0  0  0  0  0  0  0
   -3.8545    2.7663    0.0356 H   0  0  0  0  0  0  0  0  0  0  0  0
   -4.7524   -2.7025    0.0110 H   0  0  0  0  0  0  0  0  0  0  0  0
   -3.0917   -2.9568    0.0019 H   0  0  0  0  0  0  0  0  0  0  0  0
  1  2  1  0  0  0  0
  1 25  1  0  0  0  0
  1 26  1  0  0  0  0
  1 27  1  0  0  0  0
  2  3  1  0  0  0  0
  2 28  1  0  0  0  0
  2 29  1  0  0  0  0
  3  4  1  0  0  0  0
  3 30  1  0  0  0  0
  3 31  1  0  0  0  0
  4  5  1  0  0  0  0
  4 32  1  0  0  0  0
  4 33  1  0  0  0  0
  5  6  1  0  0  0  0
  5 34  1  0  0  0  0
  5 35  1  0  0  0  0
  6  7  1  0  0  0  0
  6 36  1  0  0  0  0
  6 37  1  0  0  0  0
  7 17  2  0  0  0  0
  7  8  1  0  0  0  0
  8  9  2  0  0  0  0
  8 38  1  0  0  0  0
  9 15  1  0  0  0  0
  9 10  1  0  0  0  0
 10 11  2  0  0  0  0
 10 39  1  0  0  0  0
 11 12  1  0  0  0  0
 11 19  1  0  0  0  0
 12 13  2  0  0  0  0
 12 14  1  0  0  0  0
 14 15  1  0  0  0  0
 15 16  2  0  0  0  0
 16 17  1  0  0  0  0
 16 40  1  0  0  0  0
 17 18  1  0  0  0  0
 18 41  1  0  0  0  0
 19 23  1  0  0  0  0
 19 20  2  0  0  0  0
 20 21  1  0  0  0  0
 20 42  1  0  0  0  0
 21 22  1  0  0  0  0
 22 23  2  0  0  0  0
 22 24  1  0  0  0  0
 24 43  1  0  0  0  0
 24 44  1  0  0  0  0
M  END
$$$$
ZINC03858547
  -OEChem-08230709453D

 42 45  0     0  0  0  0  0  0999 V2000
   -0.5392    3.4066    0.7955 C   0  0  0  0  0  0  0  0  0  0  0  0
   -1.6446    2.6782    0.0753 C   0  0  0  0  0  0  0  0  0  0  0  0
   -2.7120    3.2803   -0.5632 C   0  0  0  0  0  0  0  0  0  0  0  0
   -3.5302    2.1834   -1.1179 C   0  0  0  0  0  0  0  0  0  0  0  0
   -4.7168    2.1351   -1.8435 C   0  0  0  0  0  0  0  0  0  0  0  0
   -5.2360    0.9158   -2.2221 C   0  0  0  0  0  0  0  0  0  0  0  0
   -4.5804   -0.2587   -1.8832 C   0  0  0  0  0  0  0  0  0  0  0  0
   -3.4052   -0.2247   -1.1647 C   0  0  0  0  0  0  0  0  0  0  0  0
   -2.8683    0.9963   -0.7684 C   0  0  0  0  0  0  0  0  0  0  0  0
   -1.7379    1.3403   -0.0545 N   0  0  0  0  0  0  0  0  0  0  0  0
   -1.0985    0.7056    0.3049 H   0  0  0  0  0  0  0  0  0  0  0  0
   -2.9755    4.6659   -0.6538 C   0  0  0  0  0  0  0  0  0  0  0  0
   -4.2643    5.1372   -0.4832 C   0  0  0  0  0  0  0  0  0  0  0  0
   -5.3665    4.2472   -0.0327 C   0  0  0  0  0  0  0  0  0  0  0  0
   -5.1755    3.2140    0.7455 N   0  0  0  0  0  0  0  0  0  0  0  0
   -6.6357    4.6171   -0.5207 N   0  0  0  0  0  0  0  0  0  0  0  0
   -7.7313    3.7774   -0.5706 N   0  0  0  0  0  0  0  0  0  0  0  0
   -7.6545    2.8481   -0.3033 H   0  0  0  0  0  0  0  0  0  0  0  0
   -8.9512    4.2915   -1.0135 C   0  0  0  0  0  0  0  0  0  0  0  0
  -10.1291    3.6817   -1.1154 C   0  0  0  0  0  0  0  0  0  0  0  0
  -11.3279    4.4388   -1.6260 C   0  0  0  0  0  0  0  0  0  0  0  0
  -10.2647    2.2338   -0.7201 C   0  0  0  0  0  0  0  0  0  0  0  0
   -8.5216    5.9799   -1.4089 S   0  0  0  0  0  0  0  0  0  0  0  0
   -6.8041    5.9109   -0.9723 C   0  0  0  0  0  0  0  0  0  0  0  0
   -5.8934    6.8450   -1.0566 N   0  0  0  0  0  0  0  0  0  0  0  0
   -4.6122    6.5535   -0.7343 C   0  0  0  0  0  0  0  0  0  0  0  0
   -3.7672    7.4301   -0.6570 O   0  0  0  0  0  0  0  0  0  0  0  0
    0.2361    3.6867    0.0825 H   0  0  0  0  0  0  0  0  0  0  0  0
   -0.9416    4.3038    1.2658 H   0  0  0  0  0  0  0  0  0  0  0  0
   -0.1128    2.7562    1.5591 H   0  0  0  0  0  0  0  0  0  0  0  0
   -5.2282    3.0486   -2.1088 H   0  0  0  0  0  0  0  0  0  0  0  0
   -6.1566    0.8747   -2.7853 H   0  0  0  0  0  0  0  0  0  0  0  0
   -4.9954   -1.2090   -2.1851 H   0  0  0  0  0  0  0  0  0  0  0  0
   -2.9034   -1.1452   -0.9056 H   0  0  0  0  0  0  0  0  0  0  0  0
   -2.1703    5.3567   -0.8564 H   0  0  0  0  0  0  0  0  0  0  0  0
   -4.2980    3.0476    1.1241 H   0  0  0  0  0  0  0  0  0  0  0  0
  -11.3870    4.3375   -2.7097 H   0  0  0  0  0  0  0  0  0  0  0  0
  -12.2331    4.0340   -1.1734 H   0  0  0  0  0  0  0  0  0  0  0  0
  -11.2307    5.4925   -1.3643 H   0  0  0  0  0  0  0  0  0  0  0  0
   -9.3000    1.8587   -0.3783 H   0  0  0  0  0  0  0  0  0  0  0  0
  -10.9952    2.1436    0.0839 H   0  0  0  0  0  0  0  0  0  0  0  0
  -10.5969    1.6520   -1.5799 H   0  0  0  0  0  0  0  0  0  0  0  0
  1  2  1  0  0  0  0
  1 28  1  0  0  0  0
  1 29  1  0  0  0  0
  1 30  1  0  0  0  0
  2 10  1  0  0  0  0
  2  3  2  0  0  0  0
  3  4  1  0  0  0  0
  3 12  1  0  0  0  0
  4  9  2  0  0  0  0
  4  5  1  0  0  0  0
  5  6  2  0  0  0  0
  5 31  1  0  0  0  0
  6  7  1  0  0  0  0
  6 32  1  0  0  0  0
  7  8  2  0  0  0  0
  7 33  1  0  0  0  0
  8  9  1  0  0  0  0
  8 34  1  0  0  0  0
  9 10  1  0  0  0  0
 10 11  1  0  0  0  0
 12 13  2  0  0  0  0
 12 35  1  0  0  0  0
 13 26  1  0  0  0  0
 13 14  1  0  0  0  0
 14 15  2  0  0  0  0
 14 16  1  0  0  0  0
 15 36  1  0  0  0  0
 16 24  1  0  0  0  0
 16 17  1  0  0  0  0
 17 18  1  0  0  0  0
 17 19  1  0  0  0  0
 19 20  2  0  0  0  0
 19 23  1  0  0  0  0
 20 21  1  0  0  0  0
 20 22  1  0  0  0  0
 21 37  1  0  0  0  0
 21 38  1  0  0  0  0
 21 39  1  0  0  0  0
 22 40  1  0  0  0  0
 22 41  1  0  0  0  0
 22 42  1  0  0  0  0
 23 24  1  0  0  0  0
 24 25  2  0  0  0  0
 25 26  1  0  0  0  0
 26 27  2  0  0  0  0
M  END
$$$$
ZINC03859062
  -OEChem-08230709453D

 40 41  0     0  0  0  0  0  0999 V2000
    1.5160   -1.6027   -1.7811 C   0  0  0  0  0  0  0  0  0  0  0  0
    1.4734   -0.4803   -0.7422 C   0  0  0  0  0  0  0  0  0  0  0  0
    0.1854    0.1872   -0.8033 O   0  0  0  0  0  0  0  0  0  0  0  0
   -0.0162    1.2075    0.0536 C   0  0  0  0  0  0  0  0  0  0  0  0
    0.8604    1.5305    0.8305 O   0  0  0  0  0  0  0  0  0  0  0  0
   -1.3026    1.9279    0.0525 C   0  0  0  0  0  0  0  0  0  0  0  0
   -2.3103    1.5612   -0.8448 C   0  0  0  0  0  0  0  0  0  0  0  0
   -3.5118    2.2325   -0.8395 C   0  0  0  0  0  0  0  0  0  0  0  0
   -3.7201    3.2826    0.0498 C   0  0  0  0  0  0  0  0  0  0  0  0
   -2.7174    3.6536    0.9407 C   0  0  0  0  0  0  0  0  0  0  0  0
   -1.5155    2.9831    0.9448 C   0  0  0  0  0  0  0  0  0  0  0  0
   -4.9356    3.9637    0.0484 N   0  0  0  0  0  0  0  0  0  0  0  0
   -4.9556    5.3068    0.1580 C   0  0  0  0  0  0  0  0  0  0  0  0
   -3.4876    6.1877    0.1561 S   0  0  0  0  0  0  0  0  0  0  0  0
   -6.1312    5.9565    0.2692 N   0  0  0  0  0  0  0  0  0  0  0  0
   -6.1528    7.4165    0.3883 C   0  0  0  0  0  0  0  0  0  0  0  0
   -7.6010    7.8977    0.4993 C   0  0  0  0  0  0  0  0  0  0  0  0
   -7.6233    9.3995    0.6219 C   0  0  0  0  0  0  0  0  0  0  0  0
   -8.3034   10.2483   -0.1722 C   0  0  0  0  0  0  0  0  0  0  0  0
   -8.0474   11.5119    0.2876 N   0  0  0  0  0  0  0  0  0  0  0  0
   -8.4066   12.3651   -0.0906 H   0  0  0  0  0  0  0  0  0  0  0  0
   -7.2192   11.3912    1.3474 C   0  0  0  0  0  0  0  0  0  0  0  0
   -6.9738   10.1248    1.5445 N   0  0  0  0  0  0  0  0  0  0  0  0
    2.4829   -2.1038   -1.7352 H   0  0  0  0  0  0  0  0  0  0  0  0
    0.7239   -2.3217   -1.5719 H   0  0  0  0  0  0  0  0  0  0  0  0
    1.3715   -1.1823   -2.7763 H   0  0  0  0  0  0  0  0  0  0  0  0
    2.2655    0.2386   -0.9514 H   0  0  0  0  0  0  0  0  0  0  0  0
    1.6179   -0.9008    0.2530 H   0  0  0  0  0  0  0  0  0  0  0  0
   -2.1476    0.7493   -1.5382 H   0  0  0  0  0  0  0  0  0  0  0  0
   -4.2923    1.9467   -1.5290 H   0  0  0  0  0  0  0  0  0  0  0  0
   -2.8827    4.4685    1.6299 H   0  0  0  0  0  0  0  0  0  0  0  0
   -0.7380    3.2713    1.6367 H   0  0  0  0  0  0  0  0  0  0  0  0
   -5.7675    3.4712   -0.0314 H   0  0  0  0  0  0  0  0  0  0  0  0
   -6.9629    5.4574    0.2702 H   0  0  0  0  0  0  0  0  0  0  0  0
   -5.6009    7.7166    1.2790 H   0  0  0  0  0  0  0  0  0  0  0  0
   -5.6892    7.8599   -0.4930 H   0  0  0  0  0  0  0  0  0  0  0  0
   -8.1529    7.5976   -0.3914 H   0  0  0  0  0  0  0  0  0  0  0  0
   -8.0646    7.4543    1.3806 H   0  0  0  0  0  0  0  0  0  0  0  0
   -8.9301    9.9830   -1.0108 H   0  0  0  0  0  0  0  0  0  0  0  0
   -6.8280   12.2074    1.9367 H   0  0  0  0  0  0  0  0  0  0  0  0
  1  2  1  0  0  0  0
  1 24  1  0  0  0  0
  1 25  1  0  0  0  0
  1 26  1  0  0  0  0
  2  3  1  0  0  0  0
  2 27  1  0  0  0  0
  2 28  1  0  0  0  0
  3  4  1  0  0  0  0
  4  5  2  0  0  0  0
  4  6  1  0  0  0  0
  6 11  2  0  0  0  0
  6  7  1  0  0  0  0
  7  8  2  0  0  0  0
  7 29  1  0  0  0  0
  8  9  1  0  0  0  0
  8 30  1  0  0  0  0
  9 10  2  0  0  0  0
  9 12  1  0  0  0  0
 10 11  1  0  0  0  0
 10 31  1  0  0  0  0
 11 32  1  0  0  0  0
 12 13  1  0  0  0  0
 12 33  1  0  0  0  0
 13 14  2  0  0  0  0
 13 15  1  0  0  0  0
 15 16  1  0  0  0  0
 15 34  1  0  0  0  0
 16 17  1  0  0  0  0
 16 35  1  0  0  0  0
 16 36  1  0  0  0  0
 17 18  1  0  0  0  0
 17 37  1  0  0  0  0
 17 38  1  0  0  0  0
 18 23  1  0  0  0  0
 18 19  2  0  0  0  0
 19 20  1  0  0  0  0
 19 39  1  0  0  0  0
 20 21  1  0  0  0  0
 20 22  1  0  0  0  0
 22 23  2  0  0  0  0
 22 40  1  0  0  0  0
M  END
$$$$
ZINC03859062
  -OEChem-08230709453D

 41 42  0     0  0  0  0  0  0999 V2000
    1.5160   -1.6027   -1.7811 C   0  0  0  0  0  0  0  0  0  0  0  0
    1.4734   -0.4803   -0.7422 C   0  0  0  0  0  0  0  0  0  0  0  0
    0.1854    0.1872   -0.8033 O   0  0  0  0  0  0  0  0  0  0  0  0
   -0.0162    1.2075    0.0536 C   0  0  0  0  0  0  0  0  0  0  0  0
    0.8604    1.5305    0.8305 O   0  0  0  0  0  0  0  0  0  0  0  0
   -1.3026    1.9279    0.0525 C   0  0  0  0  0  0  0  0  0  0  0  0
   -2.3103    1.5612   -0.8448 C   0  0  0  0  0  0  0  0  0  0  0  0
   -3.5118    2.2325   -0.8395 C   0  0  0  0  0  0  0  0  0  0  0  0
   -3.7201    3.2826    0.0498 C   0  0  0  0  0  0  0  0  0  0  0  0
   -2.7174    3.6536    0.9407 C   0  0  0  0  0  0  0  0  0  0  0  0
   -1.5155    2.9831    0.9448 C   0  0  0  0  0  0  0  0  0  0  0  0
   -4.9356    3.9637    0.0484 N   0  0  0  0  0  0  0  0  0  0  0  0
   -4.9556    5.3068    0.1580 C   0  0  0  0  0  0  0  0  0  0  0  0
   -3.4876    6.1877    0.1561 S   0  0  0  0  0  0  0  0  0  0  0  0
   -6.1312    5.9565    0.2692 N   0  0  0  0  0  0  0  0  0  0  0  0
   -6.1528    7.4165    0.3883 C   0  0  0  0  0  0  0  0  0  0  0  0
   -7.6010    7.8977    0.4993 C   0  0  0  0  0  0  0  0  0  0  0  0
   -7.6233    9.3995    0.6219 C   0  0  0  0  0  0  0  0  0  0  0  0
   -8.3034   10.2483   -0.1722 C   0  0  0  0  0  0  0  0  0  0  0  0
   -8.0474   11.5119    0.2876 N   0  0  0  0  0  0  0  0  0  0  0  0
   -8.4066   12.3651   -0.0906 H   0  0  0  0  0  0  0  0  0  0  0  0
   -7.2192   11.3912    1.3474 C   0  0  0  0  0  0  0  0  0  0  0  0
    2.4829   -2.1038   -1.7352 H   0  0  0  0  0  0  0  0  0  0  0  0
    0.7239   -2.3217   -1.5719 H   0  0  0  0  0  0  0  0  0  0  0  0
    1.3715   -1.1823   -2.7763 H   0  0  0  0  0  0  0  0  0  0  0  0
    2.2655    0.2386   -0.9514 H   0  0  0  0  0  0  0  0  0  0  0  0
    1.6179   -0.9008    0.2530 H   0  0  0  0  0  0  0  0  0  0  0  0
   -2.1476    0.7493   -1.5382 H   0  0  0  0  0  0  0  0  0  0  0  0
   -4.2923    1.9467   -1.5290 H   0  0  0  0  0  0  0  0  0  0  0  0
   -2.8827    4.4685    1.6299 H   0  0  0  0  0  0  0  0  0  0  0  0
   -0.7380    3.2713    1.6367 H   0  0  0  0  0  0  0  0  0  0  0  0
   -5.7675    3.4712   -0.0314 H   0  0  0  0  0  0  0  0  0  0  0  0
   -6.9629    5.4574    0.2702 H   0  0  0  0  0  0  0  0  0  0  0  0
   -5.6009    7.7166    1.2790 H   0  0  0  0  0  0  0  0  0  0  0  0
   -5.6892    7.8599   -0.4930 H   0  0  0  0  0  0  0  0  0  0  0  0
   -8.1529    7.5976   -0.3914 H   0  0  0  0  0  0  0  0  0  0  0  0
   -8.0646    7.4543    1.3806 H   0  0  0  0  0  0  0  0  0  0  0  0
   -8.9301    9.9830   -1.0108 H   0  0  0  0  0  0  0  0  0  0  0  0
   -6.8280   12.2074    1.9367 H   0  0  0  0  0  0  0  0  0  0  0  0
   -6.9746   10.1253    1.5435 N   0  3  0  0  0  0  0  0  0  0  0  0
   -6.3784    9.7442    2.2875 H   0  0  0  0  0  0  0  0  0  0  0  0
  1  2  1  0  0  0  0
  1 23  1  0  0  0  0
  1 24  1  0  0  0  0
  1 25  1  0  0  0  0
  2  3  1  0  0  0  0
  2 26  1  0  0  0  0
  2 27  1  0  0  0  0
  3  4  1  0  0  0  0
  4  5  2  0  0  0  0
  4  6  1  0  0  0  0
  6 11  2  0  0  0  0
  6  7  1  0  0  0  0
  7  8  2  0  0  0  0
  7 28  1  0  0  0  0
  8  9  1  0  0  0  0
  8 29  1  0  0  0  0
  9 10  2  0  0  0  0
  9 12  1  0  0  0  0
 10 11  1  0  0  0  0
 10 30  1  0  0  0  0
 11 31  1  0  0  0  0
 12 13  1  0  0  0  0
 12 32  1  0  0  0  0
 13 14  2  0  0  0  0
 13 15  1  0  0  0  0
 15 16  1  0  0  0  0
 15 33  1  0  0  0  0
 16 17  1  0  0  0  0
 16 34  1  0  0  0  0
 16 35  1  0  0  0  0
 17 18  1  0  0  0  0
 17 36  1  0  0  0  0
 17 37  1  0  0  0  0
 18 19  2  0  0  0  0
 18 40  1  0  0  0  0
 19 20  1  0  0  0  0
 19 38  1  0  0  0  0
 20 21  1  0  0  0  0
 20 22  1  0  0  0  0
 22 39  1  0  0  0  0
 22 40  2  0  0  0  0
 40 41  1  0  0  0  0
M  CHG  1  40   1
M  END
$$$$
ZINC03859511
  -OEChem-08230709453D

 40 41  0     0  0  0  0  0  0999 V2000
   -6.0455    5.5785   -0.5370 C   0  0  0  0  0  0  0  0  0  0  0  0
   -4.6586    4.9889   -0.5454 C   0  0  0  0  0  0  0  0  0  0  0  0
   -3.7533    5.5762   -1.0992 O   0  0  0  0  0  0  0  0  0  0  0  0
   -4.4243    3.8091    0.0625 N   0  0  0  0  0  0  0  0  0  0  0  0
   -3.1582    3.2166   -0.0230 C   0  0  0  0  0  0  0  0  0  0  0  0
   -3.0418    1.8344   -0.0926 C   0  0  0  0  0  0  0  0  0  0  0  0
   -1.7941    1.2502   -0.1769 C   0  0  0  0  0  0  0  0  0  0  0  0
   -0.6547    2.0450   -0.1921 C   0  0  0  0  0  0  0  0  0  0  0  0
   -0.7712    3.4273   -0.1167 C   0  0  0  0  0  0  0  0  0  0  0  0
   -2.0193    4.0113   -0.0378 C   0  0  0  0  0  0  0  0  0  0  0  0
    0.6099    1.4532   -0.2776 N   0  0  0  0  0  0  0  0  0  0  0  0
    1.7159    2.2253   -0.2980 C   0  0  0  0  0  0  0  0  0  0  0  0
    2.9684    1.6397   -0.2745 C   0  0  0  0  0  0  0  0  0  0  0  0
    4.1952    2.4511   -0.1801 C   0  0  0  0  0  0  0  0  0  0  0  0
    4.1383    3.6650   -0.1200 O   0  0  0  0  0  0  0  0  0  0  0  0
    5.3825    1.8112   -0.1564 N   0  0  0  0  0  0  0  0  0  0  0  0
    5.4598    0.4749   -0.2282 C   0  0  0  0  0  0  0  0  0  0  0  0
    7.0104   -0.2500   -0.1991 S   0  0  0  0  0  0  0  0  0  0  0  0
    4.3874   -0.3238   -0.3212 N   0  0  0  0  0  0  0  0  0  0  0  0
    3.1353    0.1772   -0.3490 C   0  0  0  0  0  0  0  0  0  0  0  0
    2.1697   -0.5583   -0.4336 O   0  0  0  0  0  0  0  0  0  0  0  0
    4.5796   -1.7743   -0.3939 C   0  0  0  0  0  0  0  0  0  0  0  0
    4.7087   -2.1923   -1.8360 C   0  0  0  0  0  0  0  0  0  0  0  0
    5.7560   -2.8740   -2.2291 C   0  0  0  0  0  0  0  0  0  0  0  0
   -6.1647    6.2144    0.3403 H   0  0  0  0  0  0  0  0  0  0  0  0
   -6.1932    6.1724   -1.4390 H   0  0  0  0  0  0  0  0  0  0  0  0
   -6.7816    4.7752   -0.5062 H   0  0  0  0  0  0  0  0  0  0  0  0
   -5.1325    3.3703    0.5593 H   0  0  0  0  0  0  0  0  0  0  0  0
   -3.9275    1.2165   -0.0804 H   0  0  0  0  0  0  0  0  0  0  0  0
   -1.7036    0.1754   -0.2314 H   0  0  0  0  0  0  0  0  0  0  0  0
    0.1146    4.0451   -0.1241 H   0  0  0  0  0  0  0  0  0  0  0  0
   -2.1100    5.0861    0.0167 H   0  0  0  0  0  0  0  0  0  0  0  0
    0.6913    0.4878   -0.3263 H   0  0  0  0  0  0  0  0  0  0  0  0
    1.6232    3.3007   -0.3327 H   0  0  0  0  0  0  0  0  0  0  0  0
    6.1993    2.3302   -0.0906 H   0  0  0  0  0  0  0  0  0  0  0  0
    5.4858   -2.0483    0.1463 H   0  0  0  0  0  0  0  0  0  0  0  0
    3.7230   -2.2773    0.0549 H   0  0  0  0  0  0  0  0  0  0  0  0
    3.9378   -1.9299   -2.5453 H   0  0  0  0  0  0  0  0  0  0  0  0
    5.8485   -3.1736   -3.2626 H   0  0  0  0  0  0  0  0  0  0  0  0
    6.5269   -3.1365   -1.5197 H   0  0  0  0  0  0  0  0  0  0  0  0
  1  2  1  0  0  0  0
  1 25  1  0  0  0  0
  1 26  1  0  0  0  0
  1 27  1  0  0  0  0
  2  3  2  0  0  0  0
  2  4  1  0  0  0  0
  4  5  1  0  0  0  0
  4 28  1  0  0  0  0
  5 10  2  0  0  0  0
  5  6  1  0  0  0  0
  6  7  2  0  0  0  0
  6 29  1  0  0  0  0
  7  8  1  0  0  0  0
  7 30  1  0  0  0  0
  8  9  2  0  0  0  0
  8 11  1  0  0  0  0
  9 10  1  0  0  0  0
  9 31  1  0  0  0  0
 10 32  1  0  0  0  0
 11 12  1  0  0  0  0
 11 33  1  0  0  0  0
 12 13  2  0  0  0  0
 12 34  1  0  0  0  0
 13 20  1  0  0  0  0
 13 14  1  0  0  0  0
 14 15  2  0  0  0  0
 14 16  1  0  0  0  0
 16 17  1  0  0  0  0
 16 35  1  0  0  0  0
 17 18  2  0  0  0  0
 17 19  1  0  0  0  0
 19 20  1  0  0  0  0
 19 22  1  0  0  0  0
 20 21  2  0  0  0  0
 22 23  1  0  0  0  0
 22 36  1  0  0  0  0
 22 37  1  0  0  0  0
 23 24  2  0  0  0  0
 23 38  1  0  0  0  0
 24 39  1  0  0  0  0
 24 40  1  0  0  0  0
M  END
$$$$
ZINC03859953
  -OEChem-08230709453D

 43 45  0     0  0  0  0  0  0999 V2000
   -1.9651    5.6183    3.5304 C   0  0  0  0  0  0  0  0  0  0  0  0
   -1.4232    4.7020    2.5239 N   0  0  0  0  0  0  0  0  0  0  0  0
   -1.4551    3.3145    2.5640 C   0  0  0  0  0  0  0  0  0  0  0  0
   -0.8219    2.8746    1.4066 C   0  0  0  0  0  0  0  0  0  0  0  0
   -0.4363    3.9539    0.7240 N   0  0  0  0  0  0  0  0  0  0  0  0
   -0.7798    5.0457    1.3768 C   0  0  0  0  0  0  0  0  0  0  0  0
   -0.5360    6.3331    0.9570 N   0  0  0  0  0  0  0  0  0  0  0  0
    0.1587    6.5710   -0.3107 C   0  0  0  0  0  0  0  0  0  0  0  0
    0.3008    8.0771   -0.5396 C   0  0  0  0  0  0  0  0  0  0  0  0
    1.1489    8.6340    0.4667 O   0  0  0  0  0  0  0  0  0  0  0  0
   -0.7149    1.5117    1.1810 N   0  0  0  0  0  0  0  0  0  0  0  0
   -1.2096    0.6387    2.0787 C   0  0  0  0  0  0  0  0  0  0  0  0
   -1.1030   -0.5540    1.8671 O   0  0  0  0  0  0  0  0  0  0  0  0
   -1.8189    1.0532    3.2028 N   0  0  0  0  0  0  0  0  0  0  0  0
   -1.9575    2.3675    3.4739 C   0  0  0  0  0  0  0  0  0  0  0  0
   -2.5120    2.7302    4.4968 O   0  0  0  0  0  0  0  0  0  0  0  0
   -2.3408    0.0628    4.1478 C   0  0  0  0  0  0  0  0  0  0  0  0
   -1.2431   -0.3596    5.0900 C   0  0  0  0  0  0  0  0  0  0  0  0
   -0.0142    0.2720    5.0473 C   0  0  0  0  0  0  0  0  0  0  0  0
    0.9928   -0.1156    5.9111 C   0  0  0  0  0  0  0  0  0  0  0  0
    0.7714   -1.1346    6.8190 C   0  0  0  0  0  0  0  0  0  0  0  0
   -0.4568   -1.7665    6.8629 C   0  0  0  0  0  0  0  0  0  0  0  0
   -1.4669   -1.3757    6.0017 C   0  0  0  0  0  0  0  0  0  0  0  0
   -3.0124   -2.1641    6.0612 Cl  0  0  0  0  0  0  0  0  0  0  0  0
   -0.0575    1.0201   -0.0325 C   0  0  0  0  0  0  0  0  0  0  0  0
   -1.1972    5.8390    4.2718 H   0  0  0  0  0  0  0  0  0  0  0  0
   -2.2803    6.5432    3.0474 H   0  0  0  0  0  0  0  0  0  0  0  0
   -2.8210    5.1545    4.0207 H   0  0  0  0  0  0  0  0  0  0  0  0
   -0.8242    7.0832    1.5003 H   0  0  0  0  0  0  0  0  0  0  0  0
    1.1477    6.1142   -0.2743 H   0  0  0  0  0  0  0  0  0  0  0  0
   -0.4145    6.1319   -1.1272 H   0  0  0  0  0  0  0  0  0  0  0  0
    0.7372    8.2557   -1.5223 H   0  0  0  0  0  0  0  0  0  0  0  0
   -0.6815    8.5468   -0.4875 H   0  0  0  0  0  0  0  0  0  0  0  0
    1.2840    9.5879    0.3835 H   0  0  0  0  0  0  0  0  0  0  0  0
   -3.1602    0.5008    4.7177 H   0  0  0  0  0  0  0  0  0  0  0  0
   -2.7035   -0.8066    3.5995 H   0  0  0  0  0  0  0  0  0  0  0  0
    0.1591    1.0683    4.3386 H   0  0  0  0  0  0  0  0  0  0  0  0
    1.9528    0.3779    5.8771 H   0  0  0  0  0  0  0  0  0  0  0  0
    1.5584   -1.4366    7.4941 H   0  0  0  0  0  0  0  0  0  0  0  0
   -0.6297   -2.5623    7.5724 H   0  0  0  0  0  0  0  0  0  0  0  0
   -0.0645   -0.0699   -0.0333 H   0  0  0  0  0  0  0  0  0  0  0  0
    0.9721    1.3769   -0.0579 H   0  0  0  0  0  0  0  0  0  0  0  0
   -0.5911    1.3875   -0.9091 H   0  0  0  0  0  0  0  0  0  0  0  0
  1  2  1  0  0  0  0
  1 26  1  0  0  0  0
  1 27  1  0  0  0  0
  1 28  1  0  0  0  0
  2  6  1  0  0  0  0
  2  3  1  0  0  0  0
  3 15  1  0  0  0  0
  3  4  2  0  0  0  0
  4  5  1  0  0  0  0
  4 11  1  0  0  0  0
  5  6  2  0  0  0  0
  6  7  1  0  0  0  0
  7  8  1  0  0  0  0
  7 29  1  0  0  0  0
  8  9  1  0  0  0  0
  8 30  1  0  0  0  0
  8 31  1  0  0  0  0
  9 10  1  0  0  0  0
  9 32  1  0  0  0  0
  9 33  1  0  0  0  0
 10 34  1  0  0  0  0
 11 12  1  0  0  0  0
 11 25  1  0  0  0  0
 12 13  2  0  0  0  0
 12 14  1  0  0  0  0
 14 15  1  0  0  0  0
 14 17  1  0  0  0  0
 15 16  2  0  0  0  0
 17 18  1  0  0  0  0
 17 35  1  0  0  0  0
 17 36  1  0  0  0  0
 18 23  2  0  0  0  0
 18 19  1  0  0  0  0
 19 20  2  0  0  0  0
 19 37  1  0  0  0  0
 20 21  1  0  0  0  0
 20 38  1  0  0  0  0
 21 22  2  0  0  0  0
 21 39  1  0  0  0  0
 22 23  1  0  0  0  0
 22 40  1  0  0  0  0
 23 24  1  0  0  0  0
 25 41  1  0  0  0  0
 25 42  1  0  0  0  0
 25 43  1  0  0  0  0
M  END
$$$$
ZINC03859953
  -OEChem-08230709453D

 44 46  0     0  0  0  0  0  0999 V2000
   -1.9651    5.6183    3.5304 C   0  0  0  0  0  0  0  0  0  0  0  0
   -1.4232    4.7020    2.5239 N   0  0  0  0  0  0  0  0  0  0  0  0
   -1.4551    3.3145    2.5640 C   0  0  0  0  0  0  0  0  0  0  0  0
   -0.8219    2.8746    1.4066 C   0  0  0  0  0  0  0  0  0  0  0  0
   -0.7798    5.0457    1.3768 C   0  0  0  0  0  0  0  0  0  0  0  0
   -0.5360    6.3331    0.9570 N   0  0  0  0  0  0  0  0  0  0  0  0
    0.1587    6.5710   -0.3107 C   0  0  0  0  0  0  0  0  0  0  0  0
    0.3008    8.0771   -0.5396 C   0  0  0  0  0  0  0  0  0  0  0  0
    1.1489    8.6340    0.4667 O   0  0  0  0  0  0  0  0  0  0  0  0
   -0.7149    1.5117    1.1810 N   0  0  0  0  0  0  0  0  0  0  0  0
   -1.2096    0.6387    2.0787 C   0  0  0  0  0  0  0  0  0  0  0  0
   -1.1030   -0.5540    1.8671 O   0  0  0  0  0  0  0  0  0  0  0  0
   -1.8189    1.0532    3.2028 N   0  0  0  0  0  0  0  0  0  0  0  0
   -1.9575    2.3675    3.4739 C   0  0  0  0  0  0  0  0  0  0  0  0
   -2.5120    2.7302    4.4968 O   0  0  0  0  0  0  0  0  0  0  0  0
   -2.3408    0.0628    4.1478 C   0  0  0  0  0  0  0  0  0  0  0  0
   -1.2431   -0.3596    5.0900 C   0  0  0  0  0  0  0  0  0  0  0  0
   -0.0142    0.2720    5.0473 C   0  0  0  0  0  0  0  0  0  0  0  0
    0.9928   -0.1156    5.9111 C   0  0  0  0  0  0  0  0  0  0  0  0
    0.7714   -1.1346    6.8190 C   0  0  0  0  0  0  0  0  0  0  0  0
   -0.4568   -1.7665    6.8629 C   0  0  0  0  0  0  0  0  0  0  0  0
   -1.4669   -1.3757    6.0017 C   0  0  0  0  0  0  0  0  0  0  0  0
   -3.0124   -2.1641    6.0612 Cl  0  0  0  0  0  0  0  0  0  0  0  0
   -0.0575    1.0201   -0.0325 C   0  0  0  0  0  0  0  0  0  0  0  0
   -1.1972    5.8390    4.2718 H   0  0  0  0  0  0  0  0  0  0  0  0
   -2.2803    6.5432    3.0474 H   0  0  0  0  0  0  0  0  0  0  0  0
   -2.8210    5.1545    4.0207 H   0  0  0  0  0  0  0  0  0  0  0  0
   -0.8242    7.0832    1.5003 H   0  0  0  0  0  0  0  0  0  0  0  0
    1.1477    6.1142   -0.2743 H   0  0  0  0  0  0  0  0  0  0  0  0
   -0.4145    6.1319   -1.1272 H   0  0  0  0  0  0  0  0  0  0  0  0
    0.7372    8.2557   -1.5223 H   0  0  0  0  0  0  0  0  0  0  0  0
   -0.6815    8.5468   -0.4875 H   0  0  0  0  0  0  0  0  0  0  0  0
    1.2840    9.5879    0.3835 H   0  0  0  0  0  0  0  0  0  0  0  0
   -3.1602    0.5008    4.7177 H   0  0  0  0  0  0  0  0  0  0  0  0
   -2.7035   -0.8066    3.5995 H   0  0  0  0  0  0  0  0  0  0  0  0
    0.1591    1.0683    4.3386 H   0  0  0  0  0  0  0  0  0  0  0  0
    1.9528    0.3779    5.8771 H   0  0  0  0  0  0  0  0  0  0  0  0
    1.5584   -1.4366    7.4941 H   0  0  0  0  0  0  0  0  0  0  0  0
   -0.6297   -2.5623    7.5724 H   0  0  0  0  0  0  0  0  0  0  0  0
   -0.0645   -0.0699   -0.0333 H   0  0  0  0  0  0  0  0  0  0  0  0
    0.9721    1.3769   -0.0579 H   0  0  0  0  0  0  0  0  0  0  0  0
   -0.5911    1.3875   -0.9091 H   0  0  0  0  0  0  0  0  0  0  0  0
   -0.4348    3.9539    0.7212 N   0  3  0  0  0  0  0  0  0  0  0  0
    0.0571    3.9364   -0.1799 H   0  0  0  0  0  0  0  0  0  0  0  0
  1  2  1  0  0  0  0
  1 25  1  0  0  0  0
  1 26  1  0  0  0  0
  1 27  1  0  0  0  0
  2  5  1  0  0  0  0
  2  3  1  0  0  0  0
  3 14  1  0  0  0  0
  3  4  2  0  0  0  0
  4 10  1  0  0  0  0
  4 43  1  0  0  0  0
  5  6  1  0  0  0  0
  5 43  2  0  0  0  0
  6  7  1  0  0  0  0
  6 28  1  0  0  0  0
  7  8  1  0  0  0  0
  7 29  1  0  0  0  0
  7 30  1  0  0  0  0
  8  9  1  0  0  0  0
  8 31  1  0  0  0  0
  8 32  1  0  0  0  0
  9 33  1  0  0  0  0
 10 11  1  0  0  0  0
 10 24  1  0  0  0  0
 11 12  2  0  0  0  0
 11 13  1  0  0  0  0
 13 14  1  0  0  0  0
 13 16  1  0  0  0  0
 14 15  2  0  0  0  0
 16 17  1  0  0  0  0
 16 34  1  0  0  0  0
 16 35  1  0  0  0  0
 17 22  2  0  0  0  0
 17 18  1  0  0  0  0
 18 19  2  0  0  0  0
 18 36  1  0  0  0  0
 19 20  1  0  0  0  0
 19 37  1  0  0  0  0
 20 21  2  0  0  0  0
 20 38  1  0  0  0  0
 21 22  1  0  0  0  0
 21 39  1  0  0  0  0
 22 23  1  0  0  0  0
 24 40  1  0  0  0  0
 24 41  1  0  0  0  0
 24 42  1  0  0  0  0
 43 44  1  0  0  0  0
M  CHG  1  43   1
M  END
$$$$
ZINC03860012
  -OEChem-08230709453D

 40 42  0     0  0  0  0  0  0999 V2000
   -2.5561    6.2459    1.6984 C   0  0  0  0  0  0  0  0  0  0  0  0
   -1.9634    5.7860    0.3649 C   0  0  0  0  0  0  0  0  0  0  0  0
   -0.6207    6.2617    0.2512 O   0  0  0  0  0  0  0  0  0  0  0  0
    0.0494    5.9409   -0.8749 C   0  0  0  0  0  0  0  0  0  0  0  0
   -0.4928    5.2751   -1.7364 O   0  0  0  0  0  0  0  0  0  0  0  0
    1.4293    6.3942   -1.0599 C   0  0  0  0  0  0  0  0  0  0  0  0
    1.6788    7.6291   -1.5701 C   0  0  0  0  0  0  0  0  0  0  0  0
    3.4652    7.6616   -1.6107 S   0  0  0  0  0  0  0  0  0  0  0  0
    3.7512    6.0328   -0.9702 C   0  0  0  0  0  0  0  0  0  0  0  0
    4.8796    5.3958   -0.7811 N   0  0  0  0  0  0  0  0  0  0  0  0
    4.8536    4.1121   -0.3698 C   0  0  0  0  0  0  0  0  0  0  0  0
    5.8816    3.5280   -0.0685 O   0  0  0  0  0  0  0  0  0  0  0  0
    3.5373    3.4311   -0.2941 C   0  0  0  0  0  0  0  0  0  0  0  0
    3.4204    2.0631   -0.3979 C   0  0  0  0  0  0  0  0  0  0  0  0
    2.0951    1.4463   -0.4891 C   0  0  0  0  0  0  0  0  0  0  0  0
    1.8694    0.1777    0.0644 C   0  0  0  0  0  0  0  0  0  0  0  0
    0.6313   -0.3926   -0.0243 C   0  0  0  0  0  0  0  0  0  0  0  0
   -0.4045    0.2823   -0.6620 C   0  0  0  0  0  0  0  0  0  0  0  0
   -0.1869    1.5410   -1.2131 C   0  0  0  0  0  0  0  0  0  0  0  0
    1.0469    2.1217   -1.1308 C   0  0  0  0  0  0  0  0  0  0  0  0
   -1.6320   -0.2895   -0.7473 O   0  0  0  0  0  0  0  0  0  0  0  0
    2.3484    4.3096   -0.1058 C   0  0  0  0  0  0  0  0  0  0  0  0
    1.2883    3.9471    0.5655 N   0  0  0  0  0  0  0  0  0  0  0  0
    2.4769    5.5722   -0.7187 N   0  0  0  0  0  0  0  0  0  0  0  0
    0.7014    8.6952   -1.9933 C   0  0  0  0  0  0  0  0  0  0  0  0
   -1.9588    5.8472    2.5183 H   0  0  0  0  0  0  0  0  0  0  0  0
   -2.5517    7.3350    1.7417 H   0  0  0  0  0  0  0  0  0  0  0  0
   -3.5803    5.8830    1.7851 H   0  0  0  0  0  0  0  0  0  0  0  0
   -2.5608    6.1847   -0.4550 H   0  0  0  0  0  0  0  0  0  0  0  0
   -1.9679    4.6969    0.3216 H   0  0  0  0  0  0  0  0  0  0  0  0
    4.3058    1.4450   -0.4120 H   0  0  0  0  0  0  0  0  0  0  0  0
    2.6727   -0.3472    0.5600 H   0  0  0  0  0  0  0  0  0  0  0  0
    0.4551   -1.3676    0.4056 H   0  0  0  0  0  0  0  0  0  0  0  0
   -0.9950    2.0603   -1.7067 H   0  0  0  0  0  0  0  0  0  0  0  0
    1.2146    3.0990   -1.5586 H   0  0  0  0  0  0  0  0  0  0  0  0
   -2.2157   -0.0804   -0.0053 H   0  0  0  0  0  0  0  0  0  0  0  0
    1.2803    3.1010    1.0398 H   0  0  0  0  0  0  0  0  0  0  0  0
    0.4795    9.3423   -1.1446 H   0  0  0  0  0  0  0  0  0  0  0  0
    1.1362    9.2879   -2.7981 H   0  0  0  0  0  0  0  0  0  0  0  0
   -0.2184    8.2266   -2.3432 H   0  0  0  0  0  0  0  0  0  0  0  0
  1  2  1  0  0  0  0
  1 26  1  0  0  0  0
  1 27  1  0  0  0  0
  1 28  1  0  0  0  0
  2  3  1  0  0  0  0
  2 29  1  0  0  0  0
  2 30  1  0  0  0  0
  3  4  1  0  0  0  0
  4  5  2  0  0  0  0
  4  6  1  0  0  0  0
  6 24  1  0  0  0  0
  6  7  2  0  0  0  0
  7  8  1  0  0  0  0
  7 25  1  0  0  0  0
  8  9  1  0  0  0  0
  9 24  1  0  0  0  0
  9 10  2  0  0  0  0
 10 11  1  0  0  0  0
 11 12  2  0  0  0  0
 11 13  1  0  0  0  0
 13 14  2  0  0  0  0
 13 22  1  0  0  0  0
 14 15  1  0  0  0  0
 14 31  1  0  0  0  0
 15 20  2  0  0  0  0
 15 16  1  0  0  0  0
 16 17  2  0  0  0  0
 16 32  1  0  0  0  0
 17 18  1  0  0  0  0
 17 33  1  0  0  0  0
 18 19  2  0  0  0  0
 18 21  1  0  0  0  0
 19 20  1  0  0  0  0
 19 34  1  0  0  0  0
 20 35  1  0  0  0  0
 21 36  1  0  0  0  0
 22 23  2  0  0  0  0
 22 24  1  0  0  0  0
 23 37  1  0  0  0  0
 25 38  1  0  0  0  0
 25 39  1  0  0  0  0
 25 40  1  0  0  0  0
M  END
$$$$
ZINC03860088
  -OEChem-08230709453D

 44 47  0     0  0  0  0  0  0999 V2000
    2.3269   -2.8397    0.6841 C   0  0  0  0  0  0  0  0  0  0  0  0
    3.5196   -2.0888    1.2177 C   0  0  0  0  0  0  0  0  0  0  0  0
    3.5588   -0.7170    1.0586 C   0  0  0  0  0  0  0  0  0  0  0  0
    4.6800   -0.0294    1.5624 C   0  0  0  0  0  0  0  0  0  0  0  0
    5.6812   -0.7917    2.2012 C   0  0  0  0  0  0  0  0  0  0  0  0
    5.6421   -2.1563    2.3561 C   0  0  0  0  0  0  0  0  0  0  0  0
    4.5219   -2.8044    1.8432 C   0  0  0  0  0  0  0  0  0  0  0  0
    4.4021   -4.3012    1.9708 C   0  0  0  0  0  0  0  0  0  0  0  0
    6.8739    0.4176    2.6903 S   0  0  0  0  0  0  0  0  0  0  0  0
    6.0193    1.8529    2.0866 C   0  0  0  0  0  0  0  0  0  0  0  0
    6.3638    3.1143    2.1671 N   0  0  0  0  0  0  0  0  0  0  0  0
    5.5308    4.0614    1.6912 C   0  0  0  0  0  0  0  0  0  0  0  0
    5.8756    5.2303    1.6343 O   0  0  0  0  0  0  0  0  0  0  0  0
    4.1821    3.6395    1.2383 C   0  0  0  0  0  0  0  0  0  0  0  0
    3.1123    4.5060    1.2366 C   0  0  0  0  0  0  0  0  0  0  0  0
    1.7665    4.0074    0.9443 C   0  0  0  0  0  0  0  0  0  0  0  0
    1.3927    2.7161    1.3428 C   0  0  0  0  0  0  0  0  0  0  0  0
    0.1270    2.2510    1.0669 C   0  0  0  0  0  0  0  0  0  0  0  0
   -0.7809    3.0557    0.3893 C   0  0  0  0  0  0  0  0  0  0  0  0
   -0.4191    4.3439   -0.0063 C   0  0  0  0  0  0  0  0  0  0  0  0
    0.8472    4.8199    0.2654 C   0  0  0  0  0  0  0  0  0  0  0  0
   -1.3135    5.1290   -0.6645 O   0  0  0  0  0  0  0  0  0  0  0  0
   -0.8741    6.4346   -1.0447 C   0  0  0  0  0  0  0  0  0  0  0  0
   -2.0260    2.5887    0.1158 O   0  0  0  0  0  0  0  0  0  0  0  0
    4.0483    2.2245    0.7914 C   0  0  0  0  0  0  0  0  0  0  0  0
    3.2289    1.8459   -0.1524 N   0  0  0  0  0  0  0  0  0  0  0  0
    4.8930    1.3302    1.4825 N   0  0  0  0  0  0  0  0  0  0  0  0
    2.5581   -3.2325   -0.3061 H   0  0  0  0  0  0  0  0  0  0  0  0
    2.0869   -3.6645    1.3551 H   0  0  0  0  0  0  0  0  0  0  0  0
    1.4731   -2.1654    0.6173 H   0  0  0  0  0  0  0  0  0  0  0  0
    2.7563   -0.1894    0.5647 H   0  0  0  0  0  0  0  0  0  0  0  0
    6.4370   -2.6966    2.8487 H   0  0  0  0  0  0  0  0  0  0  0  0
    4.7545   -4.7734    1.0538 H   0  0  0  0  0  0  0  0  0  0  0  0
    5.0059   -4.6437    2.8112 H   0  0  0  0  0  0  0  0  0  0  0  0
    3.3591   -4.5691    2.1398 H   0  0  0  0  0  0  0  0  0  0  0  0
    3.2654    5.5534    1.4508 H   0  0  0  0  0  0  0  0  0  0  0  0
    2.0976    2.0866    1.8657 H   0  0  0  0  0  0  0  0  0  0  0  0
   -0.1599    1.2561    1.3739 H   0  0  0  0  0  0  0  0  0  0  0  0
    1.1296    5.8153   -0.0443 H   0  0  0  0  0  0  0  0  0  0  0  0
   -1.6819    6.9539   -1.5603 H   0  0  0  0  0  0  0  0  0  0  0  0
   -0.5910    6.9962   -0.1544 H   0  0  0  0  0  0  0  0  0  0  0  0
   -0.0144    6.3494   -1.7092 H   0  0  0  0  0  0  0  0  0  0  0  0
   -2.6765    2.7749    0.8067 H   0  0  0  0  0  0  0  0  0  0  0  0
    2.7055    2.5057   -0.6337 H   0  0  0  0  0  0  0  0  0  0  0  0
  1  2  1  0  0  0  0
  1 28  1  0  0  0  0
  1 29  1  0  0  0  0
  1 30  1  0  0  0  0
  2  7  2  0  0  0  0
  2  3  1  0  0  0  0
  3  4  2  0  0  0  0
  3 31  1  0  0  0  0
  4 27  1  0  0  0  0
  4  5  1  0  0  0  0
  5  6  2  0  0  0  0
  5  9  1  0  0  0  0
  6  7  1  0  0  0  0
  6 32  1  0  0  0  0
  7  8  1  0  0  0  0
  8 33  1  0  0  0  0
  8 34  1  0  0  0  0
  8 35  1  0  0  0  0
  9 10  1  0  0  0  0
 10 27  1  0  0  0  0
 10 11  2  0  0  0  0
 11 12  1  0  0  0  0
 12 13  2  0  0  0  0
 12 14  1  0  0  0  0
 14 15  2  0  0  0  0
 14 25  1  0  0  0  0
 15 16  1  0  0  0  0
 15 36  1  0  0  0  0
 16 21  2  0  0  0  0
 16 17  1  0  0  0  0
 17 18  2  0  0  0  0
 17 37  1  0  0  0  0
 18 19  1  0  0  0  0
 18 38  1  0  0  0  0
 19 20  2  0  0  0  0
 19 24  1  0  0  0  0
 20 21  1  0  0  0  0
 20 22  1  0  0  0  0
 21 39  1  0  0  0  0
 22 23  1  0  0  0  0
 23 40  1  0  0  0  0
 23 41  1  0  0  0  0
 23 42  1  0  0  0  0
 24 43  1  0  0  0  0
 25 26  2  0  0  0  0
 25 27  1  0  0  0  0
 26 44  1  0  0  0  0
M  END
$$$$
ZINC03863798
  -OEChem-08230709453D

 45 47  0     0  0  0  0  0  0999 V2000
   -0.6739    0.5249    0.3225 C   0  0  0  0  0  0  0  0  0  0  0  0
   -0.4857    2.0420    0.2603 C   0  0  0  0  0  0  0  0  0  0  0  0
   -1.1787    2.5929   -0.9890 C   0  0  0  0  0  0  0  0  0  0  0  0
   -0.9355    4.1012   -1.0782 C   0  0  0  0  0  0  0  0  0  0  0  0
    1.1882    3.8847    0.0687 C   0  0  0  0  0  0  0  0  0  0  0  0
    1.0084    2.3699    0.1921 C   0  0  0  0  0  0  0  0  0  0  0  0
    0.7752    5.7894   -1.3672 C   0  0  0  0  0  0  0  0  0  0  0  0
    0.2732    6.1850   -2.7320 C   0  0  0  0  0  0  0  0  0  0  0  0
   -0.9662    6.6203   -2.8776 N   0  0  0  0  0  0  0  0  0  0  0  0
   -1.4131    6.9710   -4.0813 C   0  0  0  0  0  0  0  0  0  0  0  0
   -0.6115    6.8831   -5.1372 N   0  0  0  0  0  0  0  0  0  0  0  0
    0.6337    6.4452   -4.9868 C   0  0  0  0  0  0  0  0  0  0  0  0
    1.0750    6.1010   -3.7788 N   0  0  0  0  0  0  0  0  0  0  0  0
    1.4710    6.3520   -6.0814 N   0  0  0  0  0  0  0  0  0  0  0  0
    0.9759    6.6081   -7.3645 C   0  0  0  0  0  0  0  0  0  0  0  0
   -0.3356    6.2801   -7.6823 C   0  0  0  0  0  0  0  0  0  0  0  0
   -0.8234    6.5387   -8.9483 C   0  0  0  0  0  0  0  0  0  0  0  0
   -0.0031    7.1137   -9.9030 C   0  0  0  0  0  0  0  0  0  0  0  0
    1.3057    7.4367   -9.5905 C   0  0  0  0  0  0  0  0  0  0  0  0
    1.7968    7.1855   -8.3244 C   0  0  0  0  0  0  0  0  0  0  0  0
   -0.6173    7.4309  -11.4955 Cl  0  0  0  0  0  0  0  0  0  0  0  0
   -2.7075    7.4249   -4.2324 N   0  0  0  0  0  0  0  0  0  0  0  0
   -0.1756    0.1330    1.2091 H   0  0  0  0  0  0  0  0  0  0  0  0
   -1.7378    0.2925    0.3710 H   0  0  0  0  0  0  0  0  0  0  0  0
   -0.2426    0.0685   -0.5684 H   0  0  0  0  0  0  0  0  0  0  0  0
   -0.9188    2.4995    1.1498 H   0  0  0  0  0  0  0  0  0  0  0  0
   -0.7721    2.1057   -1.8753 H   0  0  0  0  0  0  0  0  0  0  0  0
   -2.2496    2.4000   -0.9261 H   0  0  0  0  0  0  0  0  0  0  0  0
   -1.3545    4.5892   -0.1982 H   0  0  0  0  0  0  0  0  0  0  0  0
   -1.4157    4.4941   -1.9744 H   0  0  0  0  0  0  0  0  0  0  0  0
    0.7592    4.3737    0.9433 H   0  0  0  0  0  0  0  0  0  0  0  0
    2.2505    4.1204    0.0055 H   0  0  0  0  0  0  0  0  0  0  0  0
    1.5000    2.0178    1.0989 H   0  0  0  0  0  0  0  0  0  0  0  0
    1.4494    1.8793   -0.6756 H   0  0  0  0  0  0  0  0  0  0  0  0
    0.2636    6.3794   -0.6068 H   0  0  0  0  0  0  0  0  0  0  0  0
    1.8482    5.9720   -1.3078 H   0  0  0  0  0  0  0  0  0  0  0  0
    2.4022    6.1091   -5.9604 H   0  0  0  0  0  0  0  0  0  0  0  0
   -0.9748    5.8269   -6.9390 H   0  0  0  0  0  0  0  0  0  0  0  0
   -1.8446    6.2880   -9.1947 H   0  0  0  0  0  0  0  0  0  0  0  0
    1.9436    7.8860  -10.3373 H   0  0  0  0  0  0  0  0  0  0  0  0
    2.8183    7.4381   -8.0810 H   0  0  0  0  0  0  0  0  0  0  0  0
   -3.2924    7.4885   -3.4612 H   0  0  0  0  0  0  0  0  0  0  0  0
   -3.0326    7.6804   -5.1099 H   0  0  0  0  0  0  0  0  0  0  0  0
    0.5196    4.3483   -1.1655 N   0  3  0  0  0  0  0  0  0  0  0  0
    0.8984    3.8274   -1.9652 H   0  0  0  0  0  0  0  0  0  0  0  0
  1  2  1  0  0  0  0
  1 23  1  0  0  0  0
  1 24  1  0  0  0  0
  1 25  1  0  0  0  0
  2  6  1  0  0  0  0
  2  3  1  0  0  0  0
  2 26  1  0  0  0  0
  3  4  1  0  0  0  0
  3 27  1  0  0  0  0
  3 28  1  0  0  0  0
  4 29  1  0  0  0  0
  4 30  1  0  0  0  0
  4 44  1  0  0  0  0
  5  6  1  0  0  0  0
  5 31  1  0  0  0  0
  5 32  1  0  0  0  0
  5 44  1  0  0  0  0
  6 33  1  0  0  0  0
  6 34  1  0  0  0  0
  7  8  1  0  0  0  0
  7 35  1  0  0  0  0
  7 36  1  0  0  0  0
  7 44  1  0  0  0  0
  8 13  2  0  0  0  0
  8  9  1  0  0  0  0
  9 10  2  0  0  0  0
 10 11  1  0  0  0  0
 10 22  1  0  0  0  0
 11 12  2  0  0  0  0
 12 13  1  0  0  0  0
 12 14  1  0  0  0  0
 14 15  1  0  0  0  0
 14 37  1  0  0  0  0
 15 20  2  0  0  0  0
 15 16  1  0  0  0  0
 16 17  2  0  0  0  0
 16 38  1  0  0  0  0
 17 18  1  0  0  0  0
 17 39  1  0  0  0  0
 18 19  2  0  0  0  0
 18 21  1  0  0  0  0
 19 20  1  0  0  0  0
 19 40  1  0  0  0  0
 20 41  1  0  0  0  0
 22 42  1  0  0  0  0
 22 43  1  0  0  0  0
 44 45  1  0  0  0  0
M  CHG  1  44   1
M  END
$$$$
ZINC03864226
  -OEChem-08230709453D

 47 50  0     0  0  0  0  0  0999 V2000
    1.0935    1.6230    0.3495 C   0  0  0  0  0  0  0  0  0  0  0  0
    2.1655    0.9626    0.9084 C   0  0  0  0  0  0  0  0  0  0  0  0
    1.9711    0.0805    1.9630 C   0  0  0  0  0  0  0  0  0  0  0  0
    0.6862   -0.1414    2.4625 C   0  0  0  0  0  0  0  0  0  0  0  0
   -0.3932    0.5164    1.9078 C   0  0  0  0  0  0  0  0  0  0  0  0
   -0.1970    1.4057    0.8446 C   0  0  0  0  0  0  0  0  0  0  0  0
   -1.3421    2.1133    0.2544 C   0  0  0  0  0  0  0  0  0  0  0  0
   -2.4580    1.4307   -0.0804 C   0  0  0  0  0  0  0  0  0  0  0  0
   -2.4458   -0.0310   -0.0886 C   0  0  0  0  0  0  0  0  0  0  0  0
   -1.4017   -0.6320    0.0860 O   0  0  0  0  0  0  0  0  0  0  0  0
   -3.5906   -0.7134   -0.2896 N   0  0  0  0  0  0  0  0  0  0  0  0
   -3.5790   -2.0982   -0.2974 C   0  0  0  0  0  0  0  0  0  0  0  0
   -4.6431   -2.9681   -0.4801 C   0  0  0  0  0  0  0  0  0  0  0  0
   -4.3625   -4.3972   -0.4520 C   0  0  0  0  0  0  0  0  0  0  0  0
   -3.0703   -4.7192   -0.2279 C   0  0  0  0  0  0  0  0  0  0  0  0
   -2.2331   -3.1649   -0.0737 S   0  0  0  0  0  0  0  0  0  0  0  0
   -2.4743   -6.0877   -0.1174 C   0  0  0  0  0  0  0  0  0  0  0  0
   -2.9487   -6.9441   -1.2992 C   0  0  0  0  0  0  0  0  0  0  0  0
   -4.2478   -7.6375   -0.9011 C   0  0  0  0  0  0  0  0  0  0  0  0
   -5.0530   -6.7449    0.0411 C   0  0  0  0  0  0  0  0  0  0  0  0
   -5.4453   -5.4487   -0.6595 C   0  0  0  0  0  0  0  0  0  0  0  0
   -6.0031   -2.4667   -0.6987 C   0  0  0  0  0  0  0  0  0  0  0  0
   -6.3972   -2.2494   -1.8296 O   0  0  0  0  0  0  0  0  0  0  0  0
   -6.8172   -2.2465    0.3526 N   0  0  0  0  0  0  0  0  0  0  0  0
    0.7668   -1.0414    3.4861 O   0  0  0  0  0  0  0  0  0  0  0  0
    2.1526   -1.0559    3.8762 C   0  0  0  0  0  0  0  0  0  0  0  0
    2.8512   -0.6807    2.6746 O   0  0  0  0  0  0  0  0  0  0  0  0
    1.2491    2.3080   -0.4709 H   0  0  0  0  0  0  0  0  0  0  0  0
    3.1609    1.1319    0.5252 H   0  0  0  0  0  0  0  0  0  0  0  0
   -1.3873    0.3455    2.2937 H   0  0  0  0  0  0  0  0  0  0  0  0
   -1.2910    3.1793    0.0884 H   0  0  0  0  0  0  0  0  0  0  0  0
   -3.3596    1.9646   -0.3421 H   0  0  0  0  0  0  0  0  0  0  0  0
   -4.4226   -0.2345   -0.4288 H   0  0  0  0  0  0  0  0  0  0  0  0
   -1.3870   -6.0136   -0.1350 H   0  0  0  0  0  0  0  0  0  0  0  0
   -2.7930   -6.5490    0.8174 H   0  0  0  0  0  0  0  0  0  0  0  0
   -3.1233   -6.3077   -2.1667 H   0  0  0  0  0  0  0  0  0  0  0  0
   -2.1920   -7.6914   -1.5379 H   0  0  0  0  0  0  0  0  0  0  0  0
   -4.8364   -7.8430   -1.7952 H   0  0  0  0  0  0  0  0  0  0  0  0
   -4.0168   -8.5771   -0.3993 H   0  0  0  0  0  0  0  0  0  0  0  0
   -5.9540   -7.2720    0.3548 H   0  0  0  0  0  0  0  0  0  0  0  0
   -4.4509   -6.5120    0.9193 H   0  0  0  0  0  0  0  0  0  0  0  0
   -5.5677   -5.6366   -1.7262 H   0  0  0  0  0  0  0  0  0  0  0  0
   -6.3857   -5.0842   -0.2460 H   0  0  0  0  0  0  0  0  0  0  0  0
   -6.5032   -2.4197    1.2538 H   0  0  0  0  0  0  0  0  0  0  0  0
   -7.7172   -1.9147    0.2079 H   0  0  0  0  0  0  0  0  0  0  0  0
    2.3351   -0.3293    4.6678 H   0  0  0  0  0  0  0  0  0  0  0  0
    2.4499   -2.0547    4.1958 H   0  0  0  0  0  0  0  0  0  0  0  0
  1  6  2  0  0  0  0
  1  2  1  0  0  0  0
  1 28  1  0  0  0  0
  2  3  2  0  0  0  0
  2 29  1  0  0  0  0
  3 27  1  0  0  0  0
  3  4  1  0  0  0  0
  4  5  2  0  0  0  0
  4 25  1  0  0  0  0
  5  6  1  0  0  0  0
  5 30  1  0  0  0  0
  6  7  1  0  0  0  0
  7  8  2  0  0  0  0
  7 31  1  0  0  0  0
  8  9  1  0  0  0  0
  8 32  1  0  0  0  0
  9 10  2  0  0  0  0
  9 11  1  0  0  0  0
 11 12  1  0  0  0  0
 11 33  1  0  0  0  0
 12 16  1  0  0  0  0
 12 13  2  0  0  0  0
 13 14  1  0  0  0  0
 13 22  1  0  0  0  0
 14 21  1  0  0  0  0
 14 15  2  0  0  0  0
 15 16  1  0  0  0  0
 15 17  1  0  0  0  0
 17 18  1  0  0  0  0
 17 34  1  0  0  0  0
 17 35  1  0  0  0  0
 18 19  1  0  0  0  0
 18 36  1  0  0  0  0
 18 37  1  0  0  0  0
 19 20  1  0  0  0  0
 19 38  1  0  0  0  0
 19 39  1  0  0  0  0
 20 21  1  0  0  0  0
 20 40  1  0  0  0  0
 20 41  1  0  0  0  0
 21 42  1  0  0  0  0
 21 43  1  0  0  0  0
 22 23  2  0  0  0  0
 22 24  1  0  0  0  0
 24 44  1  0  0  0  0
 24 45  1  0  0  0  0
 25 26  1  0  0  0  0
 26 27  1  0  0  0  0
 26 46  1  0  0  0  0
 26 47  1  0  0  0  0
M  END
$$$$
ZINC03866740
  -OEChem-08230709453D

 42 43  0     0  0  0  0  0  0999 V2000
   -9.9455   -0.2287    1.6743 C   0  0  0  0  0  0  0  0  0  0  0  0
  -10.7464    0.1979    2.8775 C   0  0  0  0  0  0  0  0  0  0  0  0
  -12.1108   -0.0138    2.9102 C   0  0  0  0  0  0  0  0  0  0  0  0
  -12.8472    0.3820    4.0117 C   0  0  0  0  0  0  0  0  0  0  0  0
  -12.2199    0.9865    5.0857 C   0  0  0  0  0  0  0  0  0  0  0  0
  -10.8551    1.1963    5.0615 C   0  0  0  0  0  0  0  0  0  0  0  0
  -10.1125    0.7995    3.9569 C   0  0  0  0  0  0  0  0  0  0  0  0
   -8.7301    1.0105    3.9292 N   0  0  0  0  0  0  0  0  0  0  0  0
   -7.8870   -0.0399    3.9772 C   0  0  0  0  0  0  0  0  0  0  0  0
   -8.5054   -1.6264    4.1546 S   0  0  0  0  0  0  0  0  0  0  0  0
   -6.5571    0.1587    3.8854 N   0  0  0  0  0  0  0  0  0  0  0  0
   -6.0511    1.4570    3.7402 N   0  0  0  0  0  0  0  0  0  0  0  0
   -4.7708    1.6475    3.6436 C   0  0  0  0  0  0  0  0  0  0  0  0
   -3.8619    0.4945    3.5143 C   0  0  0  0  0  0  0  0  0  0  0  0
   -4.2825   -0.6595    2.8495 C   0  0  0  0  0  0  0  0  0  0  0  0
   -3.4240   -1.7380    2.7323 C   0  0  0  0  0  0  0  0  0  0  0  0
   -2.1488   -1.6774    3.2788 C   0  0  0  0  0  0  0  0  0  0  0  0
   -1.7235   -0.5368    3.9330 C   0  0  0  0  0  0  0  0  0  0  0  0
   -2.5718    0.5507    4.0581 C   0  0  0  0  0  0  0  0  0  0  0  0
   -2.1542    1.6693    4.7070 O   0  0  0  0  0  0  0  0  0  0  0  0
   -3.8320   -2.8624    2.0854 O   0  0  0  0  0  0  0  0  0  0  0  0
   -2.8952   -3.9383    2.0009 C   0  0  0  0  0  0  0  0  0  0  0  0
  -10.1722    1.8547    6.2325 C   0  0  0  0  0  0  0  0  0  0  0  0
   -9.7363   -1.2966    1.7371 H   0  0  0  0  0  0  0  0  0  0  0  0
  -10.5143   -0.0226    0.7676 H   0  0  0  0  0  0  0  0  0  0  0  0
   -9.0068    0.3246    1.6479 H   0  0  0  0  0  0  0  0  0  0  0  0
  -12.6038   -0.4853    2.0729 H   0  0  0  0  0  0  0  0  0  0  0  0
  -13.9146    0.2191    4.0331 H   0  0  0  0  0  0  0  0  0  0  0  0
  -12.7979    1.2945    5.9445 H   0  0  0  0  0  0  0  0  0  0  0  0
   -8.3782    1.9128    3.8755 H   0  0  0  0  0  0  0  0  0  0  0  0
   -5.9503   -0.5973    3.9200 H   0  0  0  0  0  0  0  0  0  0  0  0
   -4.3716    2.6509    3.6579 H   0  0  0  0  0  0  0  0  0  0  0  0
   -5.2754   -0.7096    2.4275 H   0  0  0  0  0  0  0  0  0  0  0  0
   -1.4846   -2.5242    3.1884 H   0  0  0  0  0  0  0  0  0  0  0  0
   -0.7288   -0.4951    4.3517 H   0  0  0  0  0  0  0  0  0  0  0  0
   -2.2706    1.6340    5.6663 H   0  0  0  0  0  0  0  0  0  0  0  0
   -2.0035   -3.6029    1.4714 H   0  0  0  0  0  0  0  0  0  0  0  0
   -3.3463   -4.7712    1.4617 H   0  0  0  0  0  0  0  0  0  0  0  0
   -2.6214   -4.2613    3.0053 H   0  0  0  0  0  0  0  0  0  0  0  0
  -10.1565    2.9344    6.0839 H   0  0  0  0  0  0  0  0  0  0  0  0
  -10.7160    1.6218    7.1481 H   0  0  0  0  0  0  0  0  0  0  0  0
   -9.1503    1.4840    6.3126 H   0  0  0  0  0  0  0  0  0  0  0  0
  1  2  1  0  0  0  0
  1 24  1  0  0  0  0
  1 25  1  0  0  0  0
  1 26  1  0  0  0  0
  2  7  2  0  0  0  0
  2  3  1  0  0  0  0
  3  4  2  0  0  0  0
  3 27  1  0  0  0  0
  4  5  1  0  0  0  0
  4 28  1  0  0  0  0
  5  6  2  0  0  0  0
  5 29  1  0  0  0  0
  6  7  1  0  0  0  0
  6 23  1  0  0  0  0
  7  8  1  0  0  0  0
  8  9  1  0  0  0  0
  8 30  1  0  0  0  0
  9 10  2  0  0  0  0
  9 11  1  0  0  0  0
 11 12  1  0  0  0  0
 11 31  1  0  0  0  0
 12 13  2  0  0  0  0
 13 14  1  0  0  0  0
 13 32  1  0  0  0  0
 14 19  2  0  0  0  0
 14 15  1  0  0  0  0
 15 16  2  0  0  0  0
 15 33  1  0  0  0  0
 16 17  1  0  0  0  0
 16 21  1  0  0  0  0
 17 18  2  0  0  0  0
 17 34  1  0  0  0  0
 18 19  1  0  0  0  0
 18 35  1  0  0  0  0
 19 20  1  0  0  0  0
 20 36  1  0  0  0  0
 21 22  1  0  0  0  0
 22 37  1  0  0  0  0
 22 38  1  0  0  0  0
 22 39  1  0  0  0  0
 23 40  1  0  0  0  0
 23 41  1  0  0  0  0
 23 42  1  0  0  0  0
M  END
$$$$
ZINC03866741
  -OEChem-08230709453D

 42 43  0     0  0  0  0  0  0999 V2000
    0.0159   -4.1693    1.1127 C   0  0  0  0  0  0  0  0  0  0  0  0
    1.3158   -4.9316    1.0953 C   0  0  0  0  0  0  0  0  0  0  0  0
    1.3240   -6.2900    1.3448 C   0  0  0  0  0  0  0  0  0  0  0  0
    2.5170   -6.9892    1.3341 C   0  0  0  0  0  0  0  0  0  0  0  0
    3.7046   -6.3324    1.0687 C   0  0  0  0  0  0  0  0  0  0  0  0
    3.7027   -4.9751    0.8133 C   0  0  0  0  0  0  0  0  0  0  0  0
    2.5062   -4.2699    0.8232 C   0  0  0  0  0  0  0  0  0  0  0  0
    2.5008   -2.8952    0.5654 N   0  0  0  0  0  0  0  0  0  0  0  0
    1.8808   -2.4178   -0.5319 C   0  0  0  0  0  0  0  0  0  0  0  0
    1.1426   -3.4979   -1.6361 S   0  0  0  0  0  0  0  0  0  0  0  0
    1.8418   -1.0900   -0.7599 N   0  0  0  0  0  0  0  0  0  0  0  0
    2.4459   -0.2061    0.1437 N   0  0  0  0  0  0  0  0  0  0  0  0
    2.3004    1.0749   -0.0059 C   0  0  0  0  0  0  0  0  0  0  0  0
    1.1888    1.6005   -0.8194 C   0  0  0  0  0  0  0  0  0  0  0  0
    0.1481    0.7553   -1.2126 C   0  0  0  0  0  0  0  0  0  0  0  0
   -0.8880    1.2477   -1.9779 C   0  0  0  0  0  0  0  0  0  0  0  0
   -0.9061    2.5842   -2.3494 C   0  0  0  0  0  0  0  0  0  0  0  0
    0.1282    3.4328   -1.9609 C   0  0  0  0  0  0  0  0  0  0  0  0
    1.1732    2.9452   -1.1986 C   0  0  0  0  0  0  0  0  0  0  0  0
    0.1096    4.7412   -2.3314 O   0  0  0  0  0  0  0  0  0  0  0  0
    1.2021    5.5539   -1.8976 C   0  0  0  0  0  0  0  0  0  0  0  0
   -1.9328    3.0657   -3.0991 O   0  0  0  0  0  0  0  0  0  0  0  0
    4.9973   -4.2602    0.5236 C   0  0  0  0  0  0  0  0  0  0  0  0
   -0.4856   -4.2843    0.1518 H   0  0  0  0  0  0  0  0  0  0  0  0
   -0.6232   -4.5590    1.9050 H   0  0  0  0  0  0  0  0  0  0  0  0
    0.2164   -3.1134    1.2940 H   0  0  0  0  0  0  0  0  0  0  0  0
    0.3982   -6.8060    1.5521 H   0  0  0  0  0  0  0  0  0  0  0  0
    2.5213   -8.0506    1.5339 H   0  0  0  0  0  0  0  0  0  0  0  0
    4.6346   -6.8814    1.0607 H   0  0  0  0  0  0  0  0  0  0  0  0
    2.9433   -2.2854    1.1764 H   0  0  0  0  0  0  0  0  0  0  0  0
    1.3956   -0.7464   -1.5496 H   0  0  0  0  0  0  0  0  0  0  0  0
    2.9937    1.7558    0.4654 H   0  0  0  0  0  0  0  0  0  0  0  0
    0.1573   -0.2846   -0.9210 H   0  0  0  0  0  0  0  0  0  0  0  0
   -1.6896    0.5923   -2.2850 H   0  0  0  0  0  0  0  0  0  0  0  0
    1.9754    3.6021   -0.8965 H   0  0  0  0  0  0  0  0  0  0  0  0
    1.0638    6.5723   -2.2604 H   0  0  0  0  0  0  0  0  0  0  0  0
    1.2414    5.5584   -0.8083 H   0  0  0  0  0  0  0  0  0  0  0  0
    2.1343    5.1507   -2.2931 H   0  0  0  0  0  0  0  0  0  0  0  0
   -1.7868    3.0024   -4.0529 H   0  0  0  0  0  0  0  0  0  0  0  0
    5.4293   -3.8986    1.4567 H   0  0  0  0  0  0  0  0  0  0  0  0
    5.6930   -4.9486    0.0439 H   0  0  0  0  0  0  0  0  0  0  0  0
    4.8059   -3.4164   -0.1393 H   0  0  0  0  0  0  0  0  0  0  0  0
  1  2  1  0  0  0  0
  1 24  1  0  0  0  0
  1 25  1  0  0  0  0
  1 26  1  0  0  0  0
  2  7  2  0  0  0  0
  2  3  1  0  0  0  0
  3  4  2  0  0  0  0
  3 27  1  0  0  0  0
  4  5  1  0  0  0  0
  4 28  1  0  0  0  0
  5  6  2  0  0  0  0
  5 29  1  0  0  0  0
  6  7  1  0  0  0  0
  6 23  1  0  0  0  0
  7  8  1  0  0  0  0
  8  9  1  0  0  0  0
  8 30  1  0  0  0  0
  9 10  2  0  0  0  0
  9 11  1  0  0  0  0
 11 12  1  0  0  0  0
 11 31  1  0  0  0  0
 12 13  2  3  0  0  0
 13 14  1  0  0  0  0
 13 32  1  0  0  0  0
 14 19  2  0  0  0  0
 14 15  1  0  0  0  0
 15 16  2  0  0  0  0
 15 33  1  0  0  0  0
 16 17  1  0  0  0  0
 16 34  1  0  0  0  0
 17 18  2  0  0  0  0
 17 22  1  0  0  0  0
 18 19  1  0  0  0  0
 18 20  1  0  0  0  0
 19 35  1  0  0  0  0
 20 21  1  0  0  0  0
 21 36  1  0  0  0  0
 21 37  1  0  0  0  0
 21 38  1  0  0  0  0
 22 39  1  0  0  0  0
 23 40  1  0  0  0  0
 23 41  1  0  0  0  0
 23 42  1  0  0  0  0
M  END
$$$$
ZINC03866775
  -OEChem-08230709453D

 46 47  0     1  0  0  0  0  0999 V2000
   -5.5916    2.4099    6.7086 C   0  0  0  0  0  0  0  0  0  0  0  0
   -4.4991    3.4808    6.7327 C   0  0  0  0  0  0  0  0  0  0  0  0
   -3.1929    2.8419    6.9115 N   0  0  3  0  0  0  0  0  0  0  0  0
   -2.4507    2.4429    5.7949 C   0  0  0  0  0  0  0  0  0  0  0  0
   -1.2629    1.7434    5.9642 C   0  0  0  0  0  0  0  0  0  0  0  0
   -0.5307    1.3493    4.8621 C   0  0  0  0  0  0  0  0  0  0  0  0
   -0.9818    1.6523    3.5843 C   0  0  0  0  0  0  0  0  0  0  0  0
   -2.1665    2.3566    3.4149 C   0  0  0  0  0  0  0  0  0  0  0  0
   -2.9018    2.7459    4.5167 C   0  0  0  0  0  0  0  0  0  0  0  0
   -0.2385    1.2522    2.4656 N   0  0  0  0  0  0  0  0  0  0  0  0
    0.4310    0.0827    2.4845 C   0  0  0  0  0  0  0  0  0  0  0  0
    0.4590   -0.5838    3.4976 O   0  0  0  0  0  0  0  0  0  0  0  0
    1.1449   -0.3970    1.2470 C   0  0  0  0  0  0  0  0  0  0  0  0
    1.9429   -1.9854    1.5883 S   0  0  0  0  0  0  0  0  0  0  0  0
    2.6791   -2.3014    0.0190 C   0  0  0  0  0  0  0  0  0  0  0  0
    3.4024   -3.4407   -0.1639 N   0  0  0  0  0  0  0  0  0  0  0  0
    1.9769   -0.6065   -0.7977 H   0  0  0  0  0  0  0  0  0  0  0  0
    3.9693   -3.6892   -1.3638 C   0  0  0  0  0  0  0  0  0  0  0  0
    4.6209   -4.7047   -1.5452 O   0  0  0  0  0  0  0  0  0  0  0  0
    3.8042   -2.7499   -2.3968 C   0  0  0  0  0  0  0  0  0  0  0  0
    3.0685   -1.6256   -2.1555 C   0  0  0  0  0  0  0  0  0  0  0  0
    2.5203   -1.4303   -0.9590 N   0  0  0  0  0  0  0  0  0  0  0  0
   -2.6640    2.6207    8.2597 C   0  0  0  0  0  0  0  0  0  0  0  0
   -2.4005    3.9697    8.9317 C   0  0  0  0  0  0  0  0  0  0  0  0
   -3.6826    1.8307    9.0839 C   0  0  0  0  0  0  0  0  0  0  0  0
   -6.5634    2.8853    6.5756 H   0  0  0  0  0  0  0  0  0  0  0  0
   -5.4077    1.7218    5.8835 H   0  0  0  0  0  0  0  0  0  0  0  0
   -5.5820    1.8598    7.6495 H   0  0  0  0  0  0  0  0  0  0  0  0
   -4.6829    4.1689    7.5578 H   0  0  0  0  0  0  0  0  0  0  0  0
   -4.5087    4.0309    5.7918 H   0  0  0  0  0  0  0  0  0  0  0  0
   -0.9121    1.5074    6.9581 H   0  0  0  0  0  0  0  0  0  0  0  0
    0.3928    0.8050    4.9937 H   0  0  0  0  0  0  0  0  0  0  0  0
   -2.5147    2.5963    2.4211 H   0  0  0  0  0  0  0  0  0  0  0  0
   -3.8254    3.2898    4.3848 H   0  0  0  0  0  0  0  0  0  0  0  0
   -0.2059    1.8170    1.6777 H   0  0  0  0  0  0  0  0  0  0  0  0
    1.8997    0.3338    0.9567 H   0  0  0  0  0  0  0  0  0  0  0  0
    0.4259   -0.5183    0.4368 H   0  0  0  0  0  0  0  0  0  0  0  0
    4.2486   -2.9172   -3.3668 H   0  0  0  0  0  0  0  0  0  0  0  0
    2.9313   -0.8932   -2.9372 H   0  0  0  0  0  0  0  0  0  0  0  0
   -1.7327    2.0580    8.1969 H   0  0  0  0  0  0  0  0  0  0  0  0
   -2.0070    3.8052    9.9348 H   0  0  0  0  0  0  0  0  0  0  0  0
   -1.6748    4.5326    8.3446 H   0  0  0  0  0  0  0  0  0  0  0  0
   -3.3319    4.5325    8.9946 H   0  0  0  0  0  0  0  0  0  0  0  0
   -3.8704    0.8697    8.6051 H   0  0  0  0  0  0  0  0  0  0  0  0
   -3.2891    1.6662   10.0870 H   0  0  0  0  0  0  0  0  0  0  0  0
   -4.6140    2.3935    9.1467 H   0  0  0  0  0  0  0  0  0  0  0  0
  1  2  1  0  0  0  0
  1 26  1  0  0  0  0
  1 27  1  0  0  0  0
  1 28  1  0  0  0  0
  2  3  1  0  0  0  0
  2 29  1  0  0  0  0
  2 30  1  0  0  0  0
  3  4  1  0  0  0  0
  3 23  1  0  0  0  0
  4  9  2  0  0  0  0
  4  5  1  0  0  0  0
  5  6  2  0  0  0  0
  5 31  1  0  0  0  0
  6  7  1  0  0  0  0
  6 32  1  0  0  0  0
  7  8  2  0  0  0  0
  7 10  1  0  0  0  0
  8  9  1  0  0  0  0
  8 33  1  0  0  0  0
  9 34  1  0  0  0  0
 10 11  1  0  0  0  0
 10 35  1  0  0  0  0
 11 12  2  0  0  0  0
 11 13  1  0  0  0  0
 13 14  1  0  0  0  0
 13 36  1  0  0  0  0
 13 37  1  0  0  0  0
 14 15  1  0  0  0  0
 15 22  1  0  0  0  0
 15 16  2  0  0  0  0
 16 18  1  0  0  0  0
 17 22  1  0  0  0  0
 18 19  2  0  0  0  0
 18 20  1  0  0  0  0
 20 38  1  0  0  0  0
 20 21  2  0  0  0  0
 21 39  1  0  0  0  0
 21 22  1  0  0  0  0
 23 24  1  0  0  0  0
 23 25  1  0  0  0  0
 23 40  1  0  0  0  0
 24 41  1  0  0  0  0
 24 42  1  0  0  0  0
 24 43  1  0  0  0  0
 25 44  1  0  0  0  0
 25 45  1  0  0  0  0
 25 46  1  0  0  0  0
M  END
$$$$
ZINC03867034
  -OEChem-08230709453D

 41 44  0     0  0  0  0  0  0999 V2000
    2.1680    7.8118    0.0195 C   0  0  0  0  0  0  0  0  0  0  0  0
    1.4212    8.9683    0.0398 C   0  0  0  0  0  0  0  0  0  0  0  0
    2.0535   10.2063    0.0403 C   0  0  0  0  0  0  0  0  0  0  0  0
    3.4415   10.2824    0.0271 C   0  0  0  0  0  0  0  0  0  0  0  0
    4.1958    9.1307    0.0130 C   0  0  0  0  0  0  0  0  0  0  0  0
    3.5640    7.8837    0.0121 C   0  0  0  0  0  0  0  0  0  0  0  0
    4.3680    6.6475   -0.0029 C   0  0  0  0  0  0  0  0  0  0  0  0
    5.5812    6.7120   -0.0144 O   0  0  0  0  0  0  0  0  0  0  0  0
    3.7571    5.4465   -0.0037 O   0  0  0  0  0  0  0  0  0  0  0  0
    4.6113    4.2724   -0.0188 C   0  0  0  0  0  0  0  0  0  0  0  0
    3.7579    3.0303   -0.0176 C   0  0  0  0  0  0  0  0  0  0  0  0
    4.3732    1.8234   -0.0305 N   0  0  0  0  0  0  0  0  0  0  0  0
    2.0226    4.0714    0.0060 H   0  0  0  0  0  0  0  0  0  0  0  0
    3.6980    0.6496   -0.0299 C   0  0  0  0  0  0  0  0  0  0  0  0
    4.2691   -0.4272   -0.0407 O   0  0  0  0  0  0  0  0  0  0  0  0
    2.2663    0.7548   -0.0166 C   0  0  0  0  0  0  0  0  0  0  0  0
    1.3134   -0.3405   -0.0136 C   0  0  0  0  0  0  0  0  0  0  0  0
    0.0021   -0.0041   -0.0004 C   0  0  0  0  0  0  0  0  0  0  0  0
   -0.0220    1.7710    0.0098 S   0  0  0  0  0  0  0  0  0  0  0  0
    1.7193    2.0570   -0.0044 C   0  0  0  0  0  0  0  0  0  0  0  0
    2.4503    3.1675   -0.0041 N   0  0  0  0  0  0  0  0  0  0  0  0
   -1.1726   -0.9327    0.0043 C   0  0  0  0  0  0  0  0  0  0  0  0
   -0.6848   -2.3363   -0.3819 C   0  0  0  0  0  0  0  0  0  0  0  0
    0.5624   -2.6657    0.4438 C   0  0  0  0  0  0  0  0  0  0  0  0
    1.7371   -1.8069   -0.0250 C   0  0  0  0  0  0  0  0  0  0  0  0
    1.3137   11.3438    0.0540 O   0  0  0  0  0  0  0  0  0  0  0  0
    1.6759    6.8504    0.0140 H   0  0  0  0  0  0  0  0  0  0  0  0
    0.3426    8.9136    0.0504 H   0  0  0  0  0  0  0  0  0  0  0  0
    3.9287   11.2462    0.0274 H   0  0  0  0  0  0  0  0  0  0  0  0
    5.2741    9.1906    0.0032 H   0  0  0  0  0  0  0  0  0  0  0  0
    5.2493    4.2759    0.8650 H   0  0  0  0  0  0  0  0  0  0  0  0
    5.2318    4.2861   -0.9148 H   0  0  0  0  0  0  0  0  0  0  0  0
   -1.6144   -0.9597    1.0004 H   0  0  0  0  0  0  0  0  0  0  0  0
   -1.9146   -0.5884   -0.7161 H   0  0  0  0  0  0  0  0  0  0  0  0
   -1.4664   -3.0661   -0.1710 H   0  0  0  0  0  0  0  0  0  0  0  0
   -0.4371   -2.3583   -1.4432 H   0  0  0  0  0  0  0  0  0  0  0  0
    0.3636   -2.4640    1.4964 H   0  0  0  0  0  0  0  0  0  0  0  0
    0.8123   -3.7192    0.3178 H   0  0  0  0  0  0  0  0  0  0  0  0
    2.5833   -1.9475    0.6476 H   0  0  0  0  0  0  0  0  0  0  0  0
    2.0219   -2.0985   -1.0358 H   0  0  0  0  0  0  0  0  0  0  0  0
    1.0906   11.6786   -0.8253 H   0  0  0  0  0  0  0  0  0  0  0  0
  1  6  2  0  0  0  0
  1  2  1  0  0  0  0
  1 27  1  0  0  0  0
  2  3  2  0  0  0  0
  2 28  1  0  0  0  0
  3  4  1  0  0  0  0
  3 26  1  0  0  0  0
  4  5  2  0  0  0  0
  4 29  1  0  0  0  0
  5  6  1  0  0  0  0
  5 30  1  0  0  0  0
  6  7  1  0  0  0  0
  7  8  2  0  0  0  0
  7  9  1  0  0  0  0
  9 10  1  0  0  0  0
 10 11  1  0  0  0  0
 10 31  1  0  0  0  0
 10 32  1  0  0  0  0
 11 21  1  0  0  0  0
 11 12  2  0  0  0  0
 12 14  1  0  0  0  0
 13 21  1  0  0  0  0
 14 15  2  0  0  0  0
 14 16  1  0  0  0  0
 16 17  1  0  0  0  0
 16 20  2  0  0  0  0
 17 25  1  0  0  0  0
 17 18  2  0  0  0  0
 18 19  1  0  0  0  0
 18 22  1  0  0  0  0
 19 20  1  0  0  0  0
 20 21  1  0  0  0  0
 22 23  1  0  0  0  0
 22 33  1  0  0  0  0
 22 34  1  0  0  0  0
 23 24  1  0  0  0  0
 23 35  1  0  0  0  0
 23 36  1  0  0  0  0
 24 25  1  0  0  0  0
 24 37  1  0  0  0  0
 24 38  1  0  0  0  0
 25 39  1  0  0  0  0
 25 40  1  0  0  0  0
 26 41  1  0  0  0  0
M  END
$$$$
ZINC03867036
  -OEChem-08230709453D

 42 44  0     1  0  0  0  0  0999 V2000
   -0.0274    1.5230    0.0146 C   0  0  0  0  0  0  0  0  0  0  0  0
   -0.0006   -0.0067    0.0024 C   0  0  1  0  0  0  0  0  0  0  0  0
   -1.0224   -0.3860    0.0073 H   0  0  0  0  0  0  0  0  0  0  0  0
    0.7144   -0.4915   -1.2606 C   0  0  0  0  0  0  0  0  0  0  0  0
    0.9551   -2.0004   -1.1346 C   0  0  0  0  0  0  0  0  0  0  0  0
    1.9802   -2.2337   -0.0228 C   0  0  0  0  0  0  0  0  0  0  0  0
    1.5836   -1.4791    1.2124 C   0  0  0  0  0  0  0  0  0  0  0  0
    0.7195   -0.5014    1.2227 C   0  0  0  0  0  0  0  0  0  0  0  0
    2.1720   -1.8431    2.4169 N   0  0  0  0  0  0  0  0  0  0  0  0
    1.9178   -1.0962    3.5747 N   0  0  0  0  0  0  0  0  0  0  0  0
    2.5666   -1.3864    4.7198 C   0  0  0  0  0  0  0  0  0  0  0  0
    3.3705   -2.2941    4.7481 O   0  0  0  0  0  0  0  0  0  0  0  0
    2.2932   -0.5830    5.9651 C   0  0  0  0  0  0  0  0  0  0  0  0
    3.3110   -1.2108    7.3238 S   0  0  0  0  0  0  0  0  0  0  0  0
    2.8042   -0.1229    8.6138 C   0  0  0  0  0  0  0  0  0  0  0  0
    3.2735   -0.1537    9.8967 N   0  0  0  0  0  0  0  0  0  0  0  0
    3.9544   -0.7872   10.2642 H   0  0  0  0  0  0  0  0  0  0  0  0
    2.6302    0.8562   10.5934 C   0  0  0  0  0  0  0  0  0  0  0  0
    2.6876    1.3076   11.9032 C   0  0  0  0  0  0  0  0  0  0  0  0
    1.8976    2.3670   12.2997 C   0  0  0  0  0  0  0  0  0  0  0  0
    1.0452    2.9845   11.3965 C   0  0  0  0  0  0  0  0  0  0  0  0
    0.9757    2.5497   10.0919 C   0  0  0  0  0  0  0  0  0  0  0  0
    1.7692    1.4782    9.6743 C   0  0  0  0  0  0  0  0  0  0  0  0
    1.9249    0.8402    8.4848 N   0  0  0  0  0  0  0  0  0  0  0  0
    0.9937    1.9044    0.0097 H   0  0  0  0  0  0  0  0  0  0  0  0
   -0.5543    1.8842   -0.8686 H   0  0  0  0  0  0  0  0  0  0  0  0
   -0.5407    1.8703    0.9112 H   0  0  0  0  0  0  0  0  0  0  0  0
    0.0915   -0.2937   -2.1329 H   0  0  0  0  0  0  0  0  0  0  0  0
    1.6682    0.0260   -1.3630 H   0  0  0  0  0  0  0  0  0  0  0  0
    1.3413   -2.3900   -2.0765 H   0  0  0  0  0  0  0  0  0  0  0  0
    0.0209   -2.5023   -0.8827 H   0  0  0  0  0  0  0  0  0  0  0  0
    2.9596   -1.8910   -0.3567 H   0  0  0  0  0  0  0  0  0  0  0  0
    2.0304   -3.2984    0.2048 H   0  0  0  0  0  0  0  0  0  0  0  0
    0.5097   -0.0194    2.1662 H   0  0  0  0  0  0  0  0  0  0  0  0
    2.7589   -2.6144    2.4565 H   0  0  0  0  0  0  0  0  0  0  0  0
    1.2749   -0.3702    3.5521 H   0  0  0  0  0  0  0  0  0  0  0  0
    2.5362    0.4639    5.7828 H   0  0  0  0  0  0  0  0  0  0  0  0
    1.2395   -0.6706    6.2300 H   0  0  0  0  0  0  0  0  0  0  0  0
    3.3486    0.8305   12.6115 H   0  0  0  0  0  0  0  0  0  0  0  0
    1.9432    2.7177   13.3202 H   0  0  0  0  0  0  0  0  0  0  0  0
    0.4317    3.8129   11.7188 H   0  0  0  0  0  0  0  0  0  0  0  0
    0.3098    3.0351    9.3938 H   0  0  0  0  0  0  0  0  0  0  0  0
  1  2  1  0  0  0  0
  1 25  1  0  0  0  0
  1 26  1  0  0  0  0
  1 27  1  0  0  0  0
  2  3  1  0  0  0  0
  2  8  1  0  0  0  0
  2  4  1  0  0  0  0
  4  5  1  0  0  0  0
  4 28  1  0  0  0  0
  4 29  1  0  0  0  0
  5  6  1  0  0  0  0
  5 30  1  0  0  0  0
  5 31  1  0  0  0  0
  6  7  1  0  0  0  0
  6 32  1  0  0  0  0
  6 33  1  0  0  0  0
  7  8  2  0  0  0  0
  7  9  1  0  0  0  0
  8 34  1  0  0  0  0
  9 10  1  0  0  0  0
  9 35  1  0  0  0  0
 10 11  1  0  0  0  0
 10 36  1  0  0  0  0
 11 12  2  0  0  0  0
 11 13  1  0  0  0  0
 13 14  1  0  0  0  0
 13 37  1  0  0  0  0
 13 38  1  0  0  0  0
 14 15  1  0  0  0  0
 15 24  2  0  0  0  0
 15 16  1  0  0  0  0
 16 17  1  0  0  0  0
 16 18  1  0  0  0  0
 18 23  2  0  0  0  0
 18 19  1  0  0  0  0
 19 20  2  0  0  0  0
 19 39  1  0  0  0  0
 20 21  1  0  0  0  0
 20 40  1  0  0  0  0
 21 22  2  0  0  0  0
 21 41  1  0  0  0  0
 22 23  1  0  0  0  0
 22 42  1  0  0  0  0
 23 24  1  0  0  0  0
M  END
$$$$
ZINC03867036
  -OEChem-08230709453D

 43 45  0     1  0  0  0  0  0999 V2000
   -0.0274    1.5230    0.0146 C   0  0  0  0  0  0  0  0  0  0  0  0
   -0.0006   -0.0067    0.0024 C   0  0  1  0  0  0  0  0  0  0  0  0
   -1.0224   -0.3860    0.0073 H   0  0  0  0  0  0  0  0  0  0  0  0
    0.7144   -0.4915   -1.2606 C   0  0  0  0  0  0  0  0  0  0  0  0
    0.9551   -2.0004   -1.1346 C   0  0  0  0  0  0  0  0  0  0  0  0
    1.9802   -2.2337   -0.0228 C   0  0  0  0  0  0  0  0  0  0  0  0
    1.5836   -1.4791    1.2124 C   0  0  0  0  0  0  0  0  0  0  0  0
    0.7195   -0.5014    1.2227 C   0  0  0  0  0  0  0  0  0  0  0  0
    2.1720   -1.8431    2.4169 N   0  0  0  0  0  0  0  0  0  0  0  0
    1.9178   -1.0962    3.5747 N   0  0  0  0  0  0  0  0  0  0  0  0
    2.5666   -1.3864    4.7198 C   0  0  0  0  0  0  0  0  0  0  0  0
    3.3705   -2.2941    4.7481 O   0  0  0  0  0  0  0  0  0  0  0  0
    2.2932   -0.5830    5.9651 C   0  0  0  0  0  0  0  0  0  0  0  0
    3.3110   -1.2108    7.3238 S   0  0  0  0  0  0  0  0  0  0  0  0
    2.8042   -0.1229    8.6138 C   0  0  0  0  0  0  0  0  0  0  0  0
    3.2735   -0.1537    9.8967 N   0  0  0  0  0  0  0  0  0  0  0  0
    3.9544   -0.7872   10.2642 H   0  0  0  0  0  0  0  0  0  0  0  0
    2.6302    0.8562   10.5934 C   0  0  0  0  0  0  0  0  0  0  0  0
    2.6876    1.3076   11.9032 C   0  0  0  0  0  0  0  0  0  0  0  0
    1.8976    2.3670   12.2997 C   0  0  0  0  0  0  0  0  0  0  0  0
    1.0452    2.9845   11.3965 C   0  0  0  0  0  0  0  0  0  0  0  0
    0.9757    2.5497   10.0919 C   0  0  0  0  0  0  0  0  0  0  0  0
    1.7692    1.4782    9.6743 C   0  0  0  0  0  0  0  0  0  0  0  0
    0.9937    1.9044    0.0097 H   0  0  0  0  0  0  0  0  0  0  0  0
   -0.5543    1.8842   -0.8686 H   0  0  0  0  0  0  0  0  0  0  0  0
   -0.5407    1.8703    0.9112 H   0  0  0  0  0  0  0  0  0  0  0  0
    0.0915   -0.2937   -2.1329 H   0  0  0  0  0  0  0  0  0  0  0  0
    1.6682    0.0260   -1.3630 H   0  0  0  0  0  0  0  0  0  0  0  0
    1.3413   -2.3900   -2.0765 H   0  0  0  0  0  0  0  0  0  0  0  0
    0.0209   -2.5023   -0.8827 H   0  0  0  0  0  0  0  0  0  0  0  0
    2.9596   -1.8910   -0.3567 H   0  0  0  0  0  0  0  0  0  0  0  0
    2.0304   -3.2984    0.2048 H   0  0  0  0  0  0  0  0  0  0  0  0
    0.5097   -0.0194    2.1662 H   0  0  0  0  0  0  0  0  0  0  0  0
    2.7589   -2.6144    2.4565 H   0  0  0  0  0  0  0  0  0  0  0  0
    1.2749   -0.3702    3.5521 H   0  0  0  0  0  0  0  0  0  0  0  0
    2.5362    0.4639    5.7828 H   0  0  0  0  0  0  0  0  0  0  0  0
    1.2395   -0.6706    6.2300 H   0  0  0  0  0  0  0  0  0  0  0  0
    3.3486    0.8305   12.6115 H   0  0  0  0  0  0  0  0  0  0  0  0
    1.9432    2.7177   13.3202 H   0  0  0  0  0  0  0  0  0  0  0  0
    0.4317    3.8129   11.7188 H   0  0  0  0  0  0  0  0  0  0  0  0
    0.3098    3.0351    9.3938 H   0  0  0  0  0  0  0  0  0  0  0  0
    1.9244    0.8404    8.4840 N   0  3  0  0  0  0  0  0  0  0  0  0
    1.4288    1.0768    7.6164 H   0  0  0  0  0  0  0  0  0  0  0  0
  1  2  1  0  0  0  0
  1 24  1  0  0  0  0
  1 25  1  0  0  0  0
  1 26  1  0  0  0  0
  2  3  1  0  0  0  0
  2  8  1  0  0  0  0
  2  4  1  0  0  0  0
  4  5  1  0  0  0  0
  4 27  1  0  0  0  0
  4 28  1  0  0  0  0
  5  6  1  0  0  0  0
  5 29  1  0  0  0  0
  5 30  1  0  0  0  0
  6  7  1  0  0  0  0
  6 31  1  0  0  0  0
  6 32  1  0  0  0  0
  7  8  2  0  0  0  0
  7  9  1  0  0  0  0
  8 33  1  0  0  0  0
  9 10  1  0  0  0  0
  9 34  1  0  0  0  0
 10 11  1  0  0  0  0
 10 35  1  0  0  0  0
 11 12  2  0  0  0  0
 11 13  1  0  0  0  0
 13 14  1  0  0  0  0
 13 36  1  0  0  0  0
 13 37  1  0  0  0  0
 14 15  1  0  0  0  0
 15 16  1  0  0  0  0
 15 42  2  0  0  0  0
 16 17  1  0  0  0  0
 16 18  1  0  0  0  0
 18 23  2  0  0  0  0
 18 19  1  0  0  0  0
 19 20  2  0  0  0  0
 19 38  1  0  0  0  0
 20 21  1  0  0  0  0
 20 39  1  0  0  0  0
 21 22  2  0  0  0  0
 21 40  1  0  0  0  0
 22 23  1  0  0  0  0
 22 41  1  0  0  0  0
 23 42  1  0  0  0  0
 42 43  1  0  0  0  0
M  CHG  1  42   1
M  END
$$$$
ZINC03867037
  -OEChem-08230709453D

 42 44  0     1  0  0  0  0  0999 V2000
   -0.7367    2.0086    1.2762 C   0  0  0  0  0  0  0  0  0  0  0  0
   -0.0181    1.5244    0.0152 C   0  0  2  0  0  0  0  0  0  0  0  0
   -0.5504    1.8879   -0.8637 H   0  0  0  0  0  0  0  0  0  0  0  0
    0.0026   -0.0055   -0.0009 C   0  0  0  0  0  0  0  0  0  0  0  0
    0.9394   -0.4671   -1.1243 C   0  0  0  0  0  0  0  0  0  0  0  0
    2.3723   -0.0836   -0.7489 C   0  0  0  0  0  0  0  0  0  0  0  0
    2.4298    1.3576   -0.3339 C   0  0  0  0  0  0  0  0  0  0  0  0
    1.3838    2.0603    0.0047 C   0  0  0  0  0  0  0  0  0  0  0  0
    3.6710    1.9807   -0.3086 N   0  0  0  0  0  0  0  0  0  0  0  0
    3.7610    3.3521   -0.0363 N   0  0  0  0  0  0  0  0  0  0  0  0
    4.9526    3.9773   -0.1115 C   0  0  0  0  0  0  0  0  0  0  0  0
    5.9470    3.3528   -0.4148 O   0  0  0  0  0  0  0  0  0  0  0  0
    5.0493    5.4524    0.1814 C   0  0  0  0  0  0  0  0  0  0  0  0
    6.7670    5.9927   -0.0027 S   0  0  0  0  0  0  0  0  0  0  0  0
    6.5933    7.7024    0.3863 C   0  0  0  0  0  0  0  0  0  0  0  0
    7.6128    8.6120    0.4006 N   0  0  0  0  0  0  0  0  0  0  0  0
    8.5743    8.4286    0.1959 H   0  0  0  0  0  0  0  0  0  0  0  0
    7.0663    9.8357    0.7516 C   0  0  0  0  0  0  0  0  0  0  0  0
    7.5902   11.1072    0.9279 C   0  0  0  0  0  0  0  0  0  0  0  0
    6.7600   12.1480    1.2901 C   0  0  0  0  0  0  0  0  0  0  0  0
    5.4032   11.9312    1.4793 C   0  0  0  0  0  0  0  0  0  0  0  0
    4.8658   10.6750    1.3085 C   0  0  0  0  0  0  0  0  0  0  0  0
    5.6930    9.6104    0.9419 C   0  0  0  0  0  0  0  0  0  0  0  0
    5.4660    8.2928    0.6995 N   0  0  0  0  0  0  0  0  0  0  0  0
   -0.2107    1.6420    2.1576 H   0  0  0  0  0  0  0  0  0  0  0  0
   -0.7525    3.0984    1.2895 H   0  0  0  0  0  0  0  0  0  0  0  0
   -1.7590    1.6303    1.2797 H   0  0  0  0  0  0  0  0  0  0  0  0
    0.3680   -0.3771    0.9564 H   0  0  0  0  0  0  0  0  0  0  0  0
   -1.0038   -0.3836   -0.1806 H   0  0  0  0  0  0  0  0  0  0  0  0
    0.8679   -1.5486   -1.2397 H   0  0  0  0  0  0  0  0  0  0  0  0
    0.6615    0.0230   -2.0575 H   0  0  0  0  0  0  0  0  0  0  0  0
    2.7100   -0.7109    0.0760 H   0  0  0  0  0  0  0  0  0  0  0  0
    3.0247   -0.2383   -1.6083 H   0  0  0  0  0  0  0  0  0  0  0  0
    1.5359    3.0894    0.2948 H   0  0  0  0  0  0  0  0  0  0  0  0
    4.4755    1.4664   -0.4795 H   0  0  0  0  0  0  0  0  0  0  0  0
    2.9656    3.8516    0.2063 H   0  0  0  0  0  0  0  0  0  0  0  0
    4.4184    6.0034   -0.5160 H   0  0  0  0  0  0  0  0  0  0  0  0
    4.7159    5.6429    1.2015 H   0  0  0  0  0  0  0  0  0  0  0  0
    8.6459   11.2826    0.7825 H   0  0  0  0  0  0  0  0  0  0  0  0
    7.1693   13.1380    1.4275 H   0  0  0  0  0  0  0  0  0  0  0  0
    4.7633   12.7539    1.7623 H   0  0  0  0  0  0  0  0  0  0  0  0
    3.8085   10.5132    1.4578 H   0  0  0  0  0  0  0  0  0  0  0  0
  1  2  1  0  0  0  0
  1 25  1  0  0  0  0
  1 26  1  0  0  0  0
  1 27  1  0  0  0  0
  2  3  1  0  0  0  0
  2  8  1  0  0  0  0
  2  4  1  0  0  0  0
  4  5  1  0  0  0  0
  4 28  1  0  0  0  0
  4 29  1  0  0  0  0
  5  6  1  0  0  0  0
  5 30  1  0  0  0  0
  5 31  1  0  0  0  0
  6  7  1  0  0  0  0
  6 32  1  0  0  0  0
  6 33  1  0  0  0  0
  7  8  2  0  0  0  0
  7  9  1  0  0  0  0
  8 34  1  0  0  0  0
  9 10  1  0  0  0  0
  9 35  1  0  0  0  0
 10 11  1  0  0  0  0
 10 36  1  0  0  0  0
 11 12  2  0  0  0  0
 11 13  1  0  0  0  0
 13 14  1  0  0  0  0
 13 37  1  0  0  0  0
 13 38  1  0  0  0  0
 14 15  1  0  0  0  0
 15 24  2  0  0  0  0
 15 16  1  0  0  0  0
 16 17  1  0  0  0  0
 16 18  1  0  0  0  0
 18 23  2  0  0  0  0
 18 19  1  0  0  0  0
 19 20  2  0  0  0  0
 19 39  1  0  0  0  0
 20 21  1  0  0  0  0
 20 40  1  0  0  0  0
 21 22  2  0  0  0  0
 21 41  1  0  0  0  0
 22 23  1  0  0  0  0
 22 42  1  0  0  0  0
 23 24  1  0  0  0  0
M  END
$$$$
ZINC03867037
  -OEChem-08230709453D

 43 45  0     1  0  0  0  0  0999 V2000
   -0.7367    2.0086    1.2762 C   0  0  0  0  0  0  0  0  0  0  0  0
   -0.0181    1.5244    0.0152 C   0  0  2  0  0  0  0  0  0  0  0  0
   -0.5504    1.8879   -0.8637 H   0  0  0  0  0  0  0  0  0  0  0  0
    0.0026   -0.0055   -0.0009 C   0  0  0  0  0  0  0  0  0  0  0  0
    0.9394   -0.4671   -1.1243 C   0  0  0  0  0  0  0  0  0  0  0  0
    2.3723   -0.0836   -0.7489 C   0  0  0  0  0  0  0  0  0  0  0  0
    2.4298    1.3576   -0.3339 C   0  0  0  0  0  0  0  0  0  0  0  0
    1.3838    2.0603    0.0047 C   0  0  0  0  0  0  0  0  0  0  0  0
    3.6710    1.9807   -0.3086 N   0  0  0  0  0  0  0  0  0  0  0  0
    3.7610    3.3521   -0.0363 N   0  0  0  0  0  0  0  0  0  0  0  0
    4.9526    3.9773   -0.1115 C   0  0  0  0  0  0  0  0  0  0  0  0
    5.9470    3.3528   -0.4148 O   0  0  0  0  0  0  0  0  0  0  0  0
    5.0493    5.4524    0.1814 C   0  0  0  0  0  0  0  0  0  0  0  0
    6.7670    5.9927   -0.0027 S   0  0  0  0  0  0  0  0  0  0  0  0
    6.5933    7.7024    0.3863 C   0  0  0  0  0  0  0  0  0  0  0  0
    7.6128    8.6120    0.4006 N   0  0  0  0  0  0  0  0  0  0  0  0
    8.5743    8.4286    0.1959 H   0  0  0  0  0  0  0  0  0  0  0  0
    7.0663    9.8357    0.7516 C   0  0  0  0  0  0  0  0  0  0  0  0
    7.5902   11.1072    0.9279 C   0  0  0  0  0  0  0  0  0  0  0  0
    6.7600   12.1480    1.2901 C   0  0  0  0  0  0  0  0  0  0  0  0
    5.4032   11.9312    1.4793 C   0  0  0  0  0  0  0  0  0  0  0  0
    4.8658   10.6750    1.3085 C   0  0  0  0  0  0  0  0  0  0  0  0
    5.6930    9.6104    0.9419 C   0  0  0  0  0  0  0  0  0  0  0  0
   -0.2107    1.6420    2.1576 H   0  0  0  0  0  0  0  0  0  0  0  0
   -0.7525    3.0984    1.2895 H   0  0  0  0  0  0  0  0  0  0  0  0
   -1.7590    1.6303    1.2797 H   0  0  0  0  0  0  0  0  0  0  0  0
    0.3680   -0.3771    0.9564 H   0  0  0  0  0  0  0  0  0  0  0  0
   -1.0038   -0.3836   -0.1806 H   0  0  0  0  0  0  0  0  0  0  0  0
    0.8679   -1.5486   -1.2397 H   0  0  0  0  0  0  0  0  0  0  0  0
    0.6615    0.0230   -2.0575 H   0  0  0  0  0  0  0  0  0  0  0  0
    2.7100   -0.7109    0.0760 H   0  0  0  0  0  0  0  0  0  0  0  0
    3.0247   -0.2383   -1.6083 H   0  0  0  0  0  0  0  0  0  0  0  0
    1.5359    3.0894    0.2948 H   0  0  0  0  0  0  0  0  0  0  0  0
    4.4755    1.4664   -0.4795 H   0  0  0  0  0  0  0  0  0  0  0  0
    2.9656    3.8516    0.2063 H   0  0  0  0  0  0  0  0  0  0  0  0
    4.4184    6.0034   -0.5160 H   0  0  0  0  0  0  0  0  0  0  0  0
    4.7159    5.6429    1.2015 H   0  0  0  0  0  0  0  0  0  0  0  0
    8.6459   11.2826    0.7825 H   0  0  0  0  0  0  0  0  0  0  0  0
    7.1693   13.1380    1.4275 H   0  0  0  0  0  0  0  0  0  0  0  0
    4.7633   12.7539    1.7623 H   0  0  0  0  0  0  0  0  0  0  0  0
    3.8085   10.5132    1.4578 H   0  0  0  0  0  0  0  0  0  0  0  0
    5.4652    8.2924    0.6995 N   0  3  0  0  0  0  0  0  0  0  0  0
    4.5501    7.8299    0.7535 H   0  0  0  0  0  0  0  0  0  0  0  0
  1  2  1  0  0  0  0
  1 24  1  0  0  0  0
  1 25  1  0  0  0  0
  1 26  1  0  0  0  0
  2  3  1  0  0  0  0
  2  8  1  0  0  0  0
  2  4  1  0  0  0  0
  4  5  1  0  0  0  0
  4 27  1  0  0  0  0
  4 28  1  0  0  0  0
  5  6  1  0  0  0  0
  5 29  1  0  0  0  0
  5 30  1  0  0  0  0
  6  7  1  0  0  0  0
  6 31  1  0  0  0  0
  6 32  1  0  0  0  0
  7  8  2  0  0  0  0
  7  9  1  0  0  0  0
  8 33  1  0  0  0  0
  9 10  1  0  0  0  0
  9 34  1  0  0  0  0
 10 11  1  0  0  0  0
 10 35  1  0  0  0  0
 11 12  2  0  0  0  0
 11 13  1  0  0  0  0
 13 14  1  0  0  0  0
 13 36  1  0  0  0  0
 13 37  1  0  0  0  0
 14 15  1  0  0  0  0
 15 16  1  0  0  0  0
 15 42  2  0  0  0  0
 16 17  1  0  0  0  0
 16 18  1  0  0  0  0
 18 23  2  0  0  0  0
 18 19  1  0  0  0  0
 19 20  2  0  0  0  0
 19 38  1  0  0  0  0
 20 21  1  0  0  0  0
 20 39  1  0  0  0  0
 21 22  2  0  0  0  0
 21 40  1  0  0  0  0
 22 23  1  0  0  0  0
 22 41  1  0  0  0  0
 23 42  1  0  0  0  0
 42 43  1  0  0  0  0
M  CHG  1  42   1
M  END
$$$$
ZINC03867059
  -OEChem-08230709453D

 45 47  0     0  0  0  0  0  0999 V2000
   -2.4498   -0.3812    2.5645 C   0  0  0  0  0  0  0  0  0  0  0  0
   -1.6980   -0.0359    3.8241 C   0  0  0  0  0  0  0  0  0  0  0  0
   -2.2004   -0.3755    5.0125 C   0  0  0  0  0  0  0  0  0  0  0  0
   -0.9632    0.2510    6.1373 S   0  0  0  0  0  0  0  0  0  0  0  0
    0.1560    0.9247    4.9188 C   0  0  0  0  0  0  0  0  0  0  0  0
    1.2971    1.5444    5.0920 N   0  0  0  0  0  0  0  0  0  0  0  0
    1.8135    1.7635    6.4453 C   0  0  0  0  0  0  0  0  0  0  0  0
    1.9702    3.2649    6.6945 C   0  0  0  0  0  0  0  0  0  0  0  0
    2.5096    3.4938    8.1078 C   0  0  0  0  0  0  0  0  0  0  0  0
    3.8699    2.8083    8.2518 C   0  0  0  0  0  0  0  0  0  0  0  0
    3.7132    1.3069    8.0027 C   0  0  0  0  0  0  0  0  0  0  0  0
    3.1738    1.0780    6.5893 C   0  0  0  0  0  0  0  0  0  0  0  0
   -0.5043    0.6178    3.7453 N   0  0  0  0  0  0  0  0  0  0  0  0
    0.0370    0.9748    2.5035 N   0  0  0  0  0  0  0  0  0  0  0  0
    0.8666    1.9708    2.4187 C   0  0  0  0  0  0  0  0  0  0  0  0
    1.5355    2.2653    1.1400 C   0  0  0  0  0  0  0  0  0  0  0  0
    2.4328    3.3333    1.0474 C   0  0  0  0  0  0  0  0  0  0  0  0
    3.0529    3.6108   -0.1517 C   0  0  0  0  0  0  0  0  0  0  0  0
    2.7949    2.8293   -1.2704 C   0  0  0  0  0  0  0  0  0  0  0  0
    1.9087    1.7608   -1.1889 C   0  0  0  0  0  0  0  0  0  0  0  0
    1.2789    1.4726    0.0132 C   0  0  0  0  0  0  0  0  0  0  0  0
    0.4123    0.4290    0.0963 O   0  0  0  0  0  0  0  0  0  0  0  0
    1.6595    0.9977   -2.2880 O   0  0  0  0  0  0  0  0  0  0  0  0
    3.4112    3.1097   -2.4492 O   0  0  0  0  0  0  0  0  0  0  0  0
   -2.1403   -1.3661    2.2150 H   0  0  0  0  0  0  0  0  0  0  0  0
   -3.5201   -0.3886    2.7706 H   0  0  0  0  0  0  0  0  0  0  0  0
   -2.2328    0.3615    1.7967 H   0  0  0  0  0  0  0  0  0  0  0  0
   -3.1217   -0.8924    5.2369 H   0  0  0  0  0  0  0  0  0  0  0  0
    1.1172    1.3453    7.1722 H   0  0  0  0  0  0  0  0  0  0  0  0
    2.6666    3.6831    5.9677 H   0  0  0  0  0  0  0  0  0  0  0  0
    1.0012    3.7533    6.5919 H   0  0  0  0  0  0  0  0  0  0  0  0
    1.8133    3.0757    8.8346 H   0  0  0  0  0  0  0  0  0  0  0  0
    2.6213    4.5635    8.2853 H   0  0  0  0  0  0  0  0  0  0  0  0
    4.2541    2.9714    9.2587 H   0  0  0  0  0  0  0  0  0  0  0  0
    4.5662    3.2265    7.5250 H   0  0  0  0  0  0  0  0  0  0  0  0
    3.0168    0.8887    8.7295 H   0  0  0  0  0  0  0  0  0  0  0  0
    4.6822    0.8185    8.1053 H   0  0  0  0  0  0  0  0  0  0  0  0
    3.0621    0.0083    6.4118 H   0  0  0  0  0  0  0  0  0  0  0  0
    3.8701    1.4961    5.8625 H   0  0  0  0  0  0  0  0  0  0  0  0
    1.0657    2.5830    3.2859 H   0  0  0  0  0  0  0  0  0  0  0  0
    2.6363    3.9441    1.9145 H   0  0  0  0  0  0  0  0  0  0  0  0
    3.7420    4.4395   -0.2217 H   0  0  0  0  0  0  0  0  0  0  0  0
    0.8281   -0.4090    0.3411 H   0  0  0  0  0  0  0  0  0  0  0  0
    0.9208    1.3129   -2.8265 H   0  0  0  0  0  0  0  0  0  0  0  0
    2.9230    3.7267   -3.0113 H   0  0  0  0  0  0  0  0  0  0  0  0
  1  2  1  0  0  0  0
  1 25  1  0  0  0  0
  1 26  1  0  0  0  0
  1 27  1  0  0  0  0
  2 13  1  0  0  0  0
  2  3  2  0  0  0  0
  3  4  1  0  0  0  0
  3 28  1  0  0  0  0
  4  5  1  0  0  0  0
  5  6  2  0  0  0  0
  5 13  1  0  0  0  0
  6  7  1  0  0  0  0
  7 12  1  0  0  0  0
  7  8  1  0  0  0  0
  7 29  1  0  0  0  0
  8  9  1  0  0  0  0
  8 30  1  0  0  0  0
  8 31  1  0  0  0  0
  9 10  1  0  0  0  0
  9 32  1  0  0  0  0
  9 33  1  0  0  0  0
 10 11  1  0  0  0  0
 10 34  1  0  0  0  0
 10 35  1  0  0  0  0
 11 12  1  0  0  0  0
 11 36  1  0  0  0  0
 11 37  1  0  0  0  0
 12 38  1  0  0  0  0
 12 39  1  0  0  0  0
 13 14  1  0  0  0  0
 14 15  2  0  0  0  0
 15 16  1  0  0  0  0
 15 40  1  0  0  0  0
 16 21  2  0  0  0  0
 16 17  1  0  0  0  0
 17 18  2  0  0  0  0
 17 41  1  0  0  0  0
 18 19  1  0  0  0  0
 18 42  1  0  0  0  0
 19 20  2  0  0  0  0
 19 24  1  0  0  0  0
 20 21  1  0  0  0  0
 20 23  1  0  0  0  0
 21 22  1  0  0  0  0
 22 43  1  0  0  0  0
 23 44  1  0  0  0  0
 24 45  1  0  0  0  0
M  END
$$$$
ZINC03867239
  -OEChem-08230709453D

 45 49  0     0  0  0  0  0  0999 V2000
   -1.7001    0.1538   -7.5410 C   0  0  0  0  0  0  0  0  0  0  0  0
   -1.8011    1.5331   -7.6435 C   0  0  0  0  0  0  0  0  0  0  0  0
   -1.5934    2.3329   -6.5383 C   0  0  0  0  0  0  0  0  0  0  0  0
   -1.2819    1.7555   -5.3175 C   0  0  0  0  0  0  0  0  0  0  0  0
   -1.1783    0.3593   -5.2077 C   0  0  0  0  0  0  0  0  0  0  0  0
   -1.3910   -0.4366   -6.3358 C   0  0  0  0  0  0  0  0  0  0  0  0
   -0.8661    0.0801   -3.9141 N   0  0  0  0  0  0  0  0  0  0  0  0
   -0.7670    1.1940   -3.2335 C   0  0  0  0  0  0  0  0  0  0  0  0
   -1.0203    2.2625   -4.0522 N   0  0  0  0  0  0  0  0  0  0  0  0
   -1.0113    3.6043   -3.6856 C   0  0  0  0  0  0  0  0  0  0  0  0
    0.1887    4.3684   -3.6440 C   0  0  0  0  0  0  0  0  0  0  0  0
    1.5327    3.9109   -3.9556 C   0  0  0  0  0  0  0  0  0  0  0  0
    2.5253    4.8227   -3.8437 C   0  0  0  0  0  0  0  0  0  0  0  0
    1.7281    6.3215   -3.3239 S   0  0  0  0  0  0  0  0  0  0  0  0
    0.0688    5.7280   -3.2555 C   0  0  0  0  0  0  0  0  0  0  0  0
   -1.0790    6.2924   -2.9407 N   0  0  0  0  0  0  0  0  0  0  0  0
   -2.1594    5.5229   -3.0001 C   0  0  0  0  0  0  0  0  0  0  0  0
   -2.1239    4.2534   -3.3525 N   0  0  0  0  0  0  0  0  0  0  0  0
    3.9852    4.6109   -4.1031 C   0  0  0  0  0  0  0  0  0  0  0  0
    4.2543    3.1002   -4.1590 C   0  0  0  0  0  0  0  0  0  0  0  0
    3.2084    2.4507   -5.0700 C   0  0  0  0  0  0  0  0  0  0  0  0
    1.8400    2.4799   -4.3893 C   0  0  0  0  0  0  0  0  0  0  0  0
   -0.4573    1.2787   -1.8928 N   0  0  0  0  0  0  0  0  0  0  0  0
   -0.0974    0.0706   -1.1464 C   0  0  0  0  0  0  0  0  0  0  0  0
    0.0751    0.4180    0.3336 C   0  0  0  0  0  0  0  0  0  0  0  0
   -1.1815    0.8290    0.8760 O   0  0  0  0  0  0  0  0  0  0  0  0
   -1.8648   -0.4620   -8.4128 H   0  0  0  0  0  0  0  0  0  0  0  0
   -2.0435    1.9841   -8.5944 H   0  0  0  0  0  0  0  0  0  0  0  0
   -1.6732    3.4065   -6.6246 H   0  0  0  0  0  0  0  0  0  0  0  0
   -1.3132   -1.5113   -6.2631 H   0  0  0  0  0  0  0  0  0  0  0  0
   -3.1145    5.9587   -2.7469 H   0  0  0  0  0  0  0  0  0  0  0  0
    4.2584    5.0684   -5.0540 H   0  0  0  0  0  0  0  0  0  0  0  0
    4.5688    5.0600   -3.2995 H   0  0  0  0  0  0  0  0  0  0  0  0
    4.1805    2.6768   -3.1573 H   0  0  0  0  0  0  0  0  0  0  0  0
    5.2514    2.9218   -4.5617 H   0  0  0  0  0  0  0  0  0  0  0  0
    3.4924    1.4172   -5.2682 H   0  0  0  0  0  0  0  0  0  0  0  0
    3.1569    2.9989   -6.0106 H   0  0  0  0  0  0  0  0  0  0  0  0
    1.0770    2.1388   -5.0891 H   0  0  0  0  0  0  0  0  0  0  0  0
    1.8526    1.8271   -3.5165 H   0  0  0  0  0  0  0  0  0  0  0  0
   -0.4777    2.1382   -1.4437 H   0  0  0  0  0  0  0  0  0  0  0  0
   -0.8872   -0.6727   -1.2555 H   0  0  0  0  0  0  0  0  0  0  0  0
    0.8372   -0.3325   -1.5363 H   0  0  0  0  0  0  0  0  0  0  0  0
    0.4344   -0.4584    0.8730 H   0  0  0  0  0  0  0  0  0  0  0  0
    0.7971    1.2283    0.4349 H   0  0  0  0  0  0  0  0  0  0  0  0
   -1.1328    1.1373    1.7913 H   0  0  0  0  0  0  0  0  0  0  0  0
  1  6  2  0  0  0  0
  1  2  1  0  0  0  0
  1 27  1  0  0  0  0
  2  3  2  0  0  0  0
  2 28  1  0  0  0  0
  3  4  1  0  0  0  0
  3 29  1  0  0  0  0
  4  9  1  0  0  0  0
  4  5  2  0  0  0  0
  5  6  1  0  0  0  0
  5  7  1  0  0  0  0
  6 30  1  0  0  0  0
  7  8  2  0  0  0  0
  8  9  1  0  0  0  0
  8 23  1  0  0  0  0
  9 10  1  0  0  0  0
 10 18  2  0  0  0  0
 10 11  1  0  0  0  0
 11 15  2  0  0  0  0
 11 12  1  0  0  0  0
 12 22  1  0  0  0  0
 12 13  2  0  0  0  0
 13 14  1  0  0  0  0
 13 19  1  0  0  0  0
 14 15  1  0  0  0  0
 15 16  1  0  0  0  0
 16 17  2  0  0  0  0
 17 18  1  0  0  0  0
 17 31  1  0  0  0  0
 19 20  1  0  0  0  0
 19 32  1  0  0  0  0
 19 33  1  0  0  0  0
 20 21  1  0  0  0  0
 20 34  1  0  0  0  0
 20 35  1  0  0  0  0
 21 22  1  0  0  0  0
 21 36  1  0  0  0  0
 21 37  1  0  0  0  0
 22 38  1  0  0  0  0
 22 39  1  0  0  0  0
 23 24  1  0  0  0  0
 23 40  1  0  0  0  0
 24 25  1  0  0  0  0
 24 41  1  0  0  0  0
 24 42  1  0  0  0  0
 25 26  1  0  0  0  0
 25 43  1  0  0  0  0
 25 44  1  0  0  0  0
 26 45  1  0  0  0  0
M  END
$$$$
ZINC03867239
  -OEChem-08230709453D

 46 50  0     0  0  0  0  0  0999 V2000
   -1.7001    0.1538   -7.5410 C   0  0  0  0  0  0  0  0  0  0  0  0
   -1.8011    1.5331   -7.6435 C   0  0  0  0  0  0  0  0  0  0  0  0
   -1.5934    2.3329   -6.5383 C   0  0  0  0  0  0  0  0  0  0  0  0
   -1.2819    1.7555   -5.3175 C   0  0  0  0  0  0  0  0  0  0  0  0
   -1.1783    0.3593   -5.2077 C   0  0  0  0  0  0  0  0  0  0  0  0
   -1.3910   -0.4366   -6.3358 C   0  0  0  0  0  0  0  0  0  0  0  0
   -0.7670    1.1940   -3.2335 C   0  0  0  0  0  0  0  0  0  0  0  0
   -1.0203    2.2625   -4.0522 N   0  0  0  0  0  0  0  0  0  0  0  0
   -1.0113    3.6043   -3.6856 C   0  0  0  0  0  0  0  0  0  0  0  0
    0.1887    4.3684   -3.6440 C   0  0  0  0  0  0  0  0  0  0  0  0
    1.5327    3.9109   -3.9556 C   0  0  0  0  0  0  0  0  0  0  0  0
    2.5253    4.8227   -3.8437 C   0  0  0  0  0  0  0  0  0  0  0  0
    1.7281    6.3215   -3.3239 S   0  0  0  0  0  0  0  0  0  0  0  0
    0.0688    5.7280   -3.2555 C   0  0  0  0  0  0  0  0  0  0  0  0
   -1.0790    6.2924   -2.9407 N   0  0  0  0  0  0  0  0  0  0  0  0
   -2.1594    5.5229   -3.0001 C   0  0  0  0  0  0  0  0  0  0  0  0
   -2.1239    4.2534   -3.3525 N   0  0  0  0  0  0  0  0  0  0  0  0
    3.9852    4.6109   -4.1031 C   0  0  0  0  0  0  0  0  0  0  0  0
    4.2543    3.1002   -4.1590 C   0  0  0  0  0  0  0  0  0  0  0  0
    3.2084    2.4507   -5.0700 C   0  0  0  0  0  0  0  0  0  0  0  0
    1.8400    2.4799   -4.3893 C   0  0  0  0  0  0  0  0  0  0  0  0
   -0.4573    1.2787   -1.8928 N   0  0  0  0  0  0  0  0  0  0  0  0
   -0.0974    0.0706   -1.1464 C   0  0  0  0  0  0  0  0  0  0  0  0
    0.0751    0.4180    0.3336 C   0  0  0  0  0  0  0  0  0  0  0  0
   -1.1815    0.8290    0.8760 O   0  0  0  0  0  0  0  0  0  0  0  0
   -1.8648   -0.4620   -8.4128 H   0  0  0  0  0  0  0  0  0  0  0  0
   -2.0435    1.9841   -8.5944 H   0  0  0  0  0  0  0  0  0  0  0  0
   -1.6732    3.4065   -6.6246 H   0  0  0  0  0  0  0  0  0  0  0  0
   -1.3132   -1.5113   -6.2631 H   0  0  0  0  0  0  0  0  0  0  0  0
   -3.1145    5.9587   -2.7469 H   0  0  0  0  0  0  0  0  0  0  0  0
    4.2584    5.0684   -5.0540 H   0  0  0  0  0  0  0  0  0  0  0  0
    4.5688    5.0600   -3.2995 H   0  0  0  0  0  0  0  0  0  0  0  0
    4.1805    2.6768   -3.1573 H   0  0  0  0  0  0  0  0  0  0  0  0
    5.2514    2.9218   -4.5617 H   0  0  0  0  0  0  0  0  0  0  0  0
    3.4924    1.4172   -5.2682 H   0  0  0  0  0  0  0  0  0  0  0  0
    3.1569    2.9989   -6.0106 H   0  0  0  0  0  0  0  0  0  0  0  0
    1.0770    2.1388   -5.0891 H   0  0  0  0  0  0  0  0  0  0  0  0
    1.8526    1.8271   -3.5165 H   0  0  0  0  0  0  0  0  0  0  0  0
   -0.4777    2.1382   -1.4437 H   0  0  0  0  0  0  0  0  0  0  0  0
   -0.8872   -0.6727   -1.2555 H   0  0  0  0  0  0  0  0  0  0  0  0
    0.8372   -0.3325   -1.5363 H   0  0  0  0  0  0  0  0  0  0  0  0
    0.4344   -0.4584    0.8730 H   0  0  0  0  0  0  0  0  0  0  0  0
    0.7971    1.2283    0.4349 H   0  0  0  0  0  0  0  0  0  0  0  0
   -1.1328    1.1373    1.7913 H   0  0  0  0  0  0  0  0  0  0  0  0
   -0.8659    0.0787   -3.9135 N   0  3  0  0  0  0  0  0  0  0  0  0
   -0.7286   -0.8633   -3.5287 H   0  0  0  0  0  0  0  0  0  0  0  0
  1  6  2  0  0  0  0
  1  2  1  0  0  0  0
  1 26  1  0  0  0  0
  2  3  2  0  0  0  0
  2 27  1  0  0  0  0
  3  4  1  0  0  0  0
  3 28  1  0  0  0  0
  4  8  1  0  0  0  0
  4  5  2  0  0  0  0
  5  6  1  0  0  0  0
  5 45  1  0  0  0  0
  6 29  1  0  0  0  0
  7  8  1  0  0  0  0
  7 22  1  0  0  0  0
  7 45  2  0  0  0  0
  8  9  1  0  0  0  0
  9 17  2  0  0  0  0
  9 10  1  0  0  0  0
 10 14  2  0  0  0  0
 10 11  1  0  0  0  0
 11 21  1  0  0  0  0
 11 12  2  0  0  0  0
 12 13  1  0  0  0  0
 12 18  1  0  0  0  0
 13 14  1  0  0  0  0
 14 15  1  0  0  0  0
 15 16  2  0  0  0  0
 16 17  1  0  0  0  0
 16 30  1  0  0  0  0
 18 19  1  0  0  0  0
 18 31  1  0  0  0  0
 18 32  1  0  0  0  0
 19 20  1  0  0  0  0
 19 33  1  0  0  0  0
 19 34  1  0  0  0  0
 20 21  1  0  0  0  0
 20 35  1  0  0  0  0
 20 36  1  0  0  0  0
 21 37  1  0  0  0  0
 21 38  1  0  0  0  0
 22 23  1  0  0  0  0
 22 39  1  0  0  0  0
 23 24  1  0  0  0  0
 23 40  1  0  0  0  0
 23 41  1  0  0  0  0
 24 25  1  0  0  0  0
 24 42  1  0  0  0  0
 24 43  1  0  0  0  0
 25 44  1  0  0  0  0
 45 46  1  0  0  0  0
M  CHG  1  45   1
M  END
$$$$
ZINC03867440
  -OEChem-08230709453D

 41 43  0     1  0  0  0  0  0999 V2000
    2.6385    8.7298    3.6986 C   0  0  0  0  0  0  0  0  0  0  0  0
    2.4624    7.2728    3.2660 C   0  0  1  0  0  0  0  0  0  0  0  0
    3.4301    6.7715    3.2854 H   0  0  0  0  0  0  0  0  0  0  0  0
    1.5051    6.5680    4.2311 C   0  0  0  0  0  0  0  0  0  0  0  0
    1.5473    5.0584    3.9538 C   0  0  0  0  0  0  0  0  0  0  0  0
    1.4161    4.8456    2.4771 C   0  0  0  0  0  0  0  0  0  0  0  0
    1.5618    5.7825    1.4940 C   0  0  0  0  0  0  0  0  0  0  0  0
    1.3915    5.3493    0.1891 C   0  0  0  0  0  0  0  0  0  0  0  0
    1.0906    4.0161   -0.0222 C   0  0  0  0  0  0  0  0  0  0  0  0
    1.0434    3.3837    1.6462 S   0  0  0  0  0  0  0  0  0  0  0  0
    0.8635    3.3089   -1.2854 C   0  0  0  0  0  0  0  0  0  0  0  0
    0.9320    3.9113   -2.3411 O   0  0  0  0  0  0  0  0  0  0  0  0
    0.5787    1.9916   -1.2784 N   0  0  0  0  0  0  0  0  0  0  0  0
    0.3616    1.3154   -2.4861 N   0  0  0  0  0  0  0  0  0  0  0  0
   -0.0177    0.0740   -2.4758 C   0  0  0  0  0  0  0  0  0  0  0  0
   -0.4655   -0.5494   -1.2176 C   0  0  0  0  0  0  0  0  0  0  0  0
   -0.9966    0.2394   -0.1931 C   0  0  0  0  0  0  0  0  0  0  0  0
   -1.4098   -0.3469    0.9842 C   0  0  0  0  0  0  0  0  0  0  0  0
   -1.3061   -1.7166    1.1569 C   0  0  0  0  0  0  0  0  0  0  0  0
   -0.7864   -2.5118    0.1477 C   0  0  0  0  0  0  0  0  0  0  0  0
   -0.3662   -1.9350   -1.0449 C   0  0  0  0  0  0  0  0  0  0  0  0
    0.1440   -2.7119   -2.0365 O   0  0  0  0  0  0  0  0  0  0  0  0
   -0.6881   -3.8567    0.3243 O   0  0  0  0  0  0  0  0  0  0  0  0
    1.8966    7.2296    1.8462 C   0  0  0  0  0  0  0  0  0  0  0  0
    1.6728    9.2347    3.6761 H   0  0  0  0  0  0  0  0  0  0  0  0
    3.0419    8.7620    4.7107 H   0  0  0  0  0  0  0  0  0  0  0  0
    3.3264    9.2305    3.0173 H   0  0  0  0  0  0  0  0  0  0  0  0
    1.8151    6.7596    5.2584 H   0  0  0  0  0  0  0  0  0  0  0  0
    0.4924    6.9415    4.0793 H   0  0  0  0  0  0  0  0  0  0  0  0
    2.4953    4.6476    4.3011 H   0  0  0  0  0  0  0  0  0  0  0  0
    0.7230    4.5670    4.4707 H   0  0  0  0  0  0  0  0  0  0  0  0
    1.4908    6.0339   -0.6403 H   0  0  0  0  0  0  0  0  0  0  0  0
    0.5241    1.5116   -0.4372 H   0  0  0  0  0  0  0  0  0  0  0  0
   -0.0052   -0.5021   -3.3893 H   0  0  0  0  0  0  0  0  0  0  0  0
   -1.0794    1.3085   -0.3223 H   0  0  0  0  0  0  0  0  0  0  0  0
   -1.8160    0.2653    1.7758 H   0  0  0  0  0  0  0  0  0  0  0  0
   -1.6322   -2.1677    2.0824 H   0  0  0  0  0  0  0  0  0  0  0  0
   -0.5259   -3.1024   -2.6142 H   0  0  0  0  0  0  0  0  0  0  0  0
    0.1510   -4.1423    0.7110 H   0  0  0  0  0  0  0  0  0  0  0  0
    2.6379    7.6140    1.1456 H   0  0  0  0  0  0  0  0  0  0  0  0
    0.9933    7.8372    1.7920 H   0  0  0  0  0  0  0  0  0  0  0  0
  1  2  1  0  0  0  0
  1 25  1  0  0  0  0
  1 26  1  0  0  0  0
  1 27  1  0  0  0  0
  2  3  1  0  0  0  0
  2 24  1  0  0  0  0
  2  4  1  0  0  0  0
  4  5  1  0  0  0  0
  4 28  1  0  0  0  0
  4 29  1  0  0  0  0
  5  6  1  0  0  0  0
  5 30  1  0  0  0  0
  5 31  1  0  0  0  0
  6 10  1  0  0  0  0
  6  7  2  0  0  0  0
  7  8  1  0  0  0  0
  7 24  1  0  0  0  0
  8  9  2  0  0  0  0
  8 32  1  0  0  0  0
  9 10  1  0  0  0  0
  9 11  1  0  0  0  0
 11 12  2  0  0  0  0
 11 13  1  0  0  0  0
 13 14  1  0  0  0  0
 13 33  1  0  0  0  0
 14 15  2  0  0  0  0
 15 16  1  0  0  0  0
 15 34  1  0  0  0  0
 16 21  2  0  0  0  0
 16 17  1  0  0  0  0
 17 18  2  0  0  0  0
 17 35  1  0  0  0  0
 18 19  1  0  0  0  0
 18 36  1  0  0  0  0
 19 20  2  0  0  0  0
 19 37  1  0  0  0  0
 20 21  1  0  0  0  0
 20 23  1  0  0  0  0
 21 22  1  0  0  0  0
 22 38  1  0  0  0  0
 23 39  1  0  0  0  0
 24 40  1  0  0  0  0
 24 41  1  0  0  0  0
M  END
$$$$
ZINC03867441
  -OEChem-08230709453D

 41 43  0     1  0  0  0  0  0999 V2000
    1.2686   -2.3678   -2.7179 C   0  0  0  0  0  0  0  0  0  0  0  0
    1.3465   -0.8516   -2.5288 C   0  0  2  0  0  0  0  0  0  0  0  0
    0.7944   -0.5698   -1.6323 H   0  0  0  0  0  0  0  0  0  0  0  0
    0.7303   -0.1551   -3.7454 C   0  0  0  0  0  0  0  0  0  0  0  0
    0.5676    1.3386   -3.4292 C   0  0  0  0  0  0  0  0  0  0  0  0
    1.8532    1.8411   -2.8479 C   0  0  0  0  0  0  0  0  0  0  0  0
    2.8866    1.0909   -2.3633 C   0  0  0  0  0  0  0  0  0  0  0  0
    3.9830    1.7818   -1.8734 C   0  0  0  0  0  0  0  0  0  0  0  0
    3.9529    3.1640   -1.9089 C   0  0  0  0  0  0  0  0  0  0  0  0
    2.3562    3.4755   -2.6432 S   0  0  0  0  0  0  0  0  0  0  0  0
    4.9670    4.1223   -1.4611 C   0  0  0  0  0  0  0  0  0  0  0  0
    6.0109    3.7228   -0.9784 O   0  0  0  0  0  0  0  0  0  0  0  0
    4.7442    5.4458   -1.5836 N   0  0  0  0  0  0  0  0  0  0  0  0
    5.7138    6.3620   -1.1555 N   0  0  0  0  0  0  0  0  0  0  0  0
    5.4572    7.6344   -1.1733 C   0  0  0  0  0  0  0  0  0  0  0  0
    4.0784    8.1051   -1.3956 C   0  0  0  0  0  0  0  0  0  0  0  0
    2.9948    7.2882   -1.0602 C   0  0  0  0  0  0  0  0  0  0  0  0
    1.7064    7.7340   -1.2652 C   0  0  0  0  0  0  0  0  0  0  0  0
    1.4786    8.9851   -1.8125 C   0  0  0  0  0  0  0  0  0  0  0  0
    2.5433    9.8037   -2.1547 C   0  0  0  0  0  0  0  0  0  0  0  0
    3.8476    9.3700   -1.9489 C   0  0  0  0  0  0  0  0  0  0  0  0
    4.8939   10.1704   -2.2829 O   0  0  0  0  0  0  0  0  0  0  0  0
    2.3117   11.0317   -2.6915 O   0  0  0  0  0  0  0  0  0  0  0  0
    2.8092   -0.4336   -2.3744 C   0  0  0  0  0  0  0  0  0  0  0  0
    1.8176   -2.6507   -3.6161 H   0  0  0  0  0  0  0  0  0  0  0  0
    1.7070   -2.8649   -1.8525 H   0  0  0  0  0  0  0  0  0  0  0  0
    0.2258   -2.6682   -2.8198 H   0  0  0  0  0  0  0  0  0  0  0  0
   -0.2450   -0.5914   -3.9611 H   0  0  0  0  0  0  0  0  0  0  0  0
    1.3842   -0.2768   -4.6090 H   0  0  0  0  0  0  0  0  0  0  0  0
    0.3404    1.8850   -4.3446 H   0  0  0  0  0  0  0  0  0  0  0  0
   -0.2392    1.4757   -2.7093 H   0  0  0  0  0  0  0  0  0  0  0  0
    4.8379    1.2555   -1.4752 H   0  0  0  0  0  0  0  0  0  0  0  0
    3.9125    5.7641   -1.9682 H   0  0  0  0  0  0  0  0  0  0  0  0
    6.2542    8.3481   -1.0253 H   0  0  0  0  0  0  0  0  0  0  0  0
    3.1668    6.3097   -0.6368 H   0  0  0  0  0  0  0  0  0  0  0  0
    0.8709    7.1024   -1.0018 H   0  0  0  0  0  0  0  0  0  0  0  0
    0.4661    9.3250   -1.9732 H   0  0  0  0  0  0  0  0  0  0  0  0
    5.2565    9.9972   -3.1625 H   0  0  0  0  0  0  0  0  0  0  0  0
    2.2555   11.0347   -3.6568 H   0  0  0  0  0  0  0  0  0  0  0  0
    3.2043   -0.8263   -1.4375 H   0  0  0  0  0  0  0  0  0  0  0  0
    3.3906   -0.8229   -3.2101 H   0  0  0  0  0  0  0  0  0  0  0  0
  1  2  1  0  0  0  0
  1 25  1  0  0  0  0
  1 26  1  0  0  0  0
  1 27  1  0  0  0  0
  2  3  1  0  0  0  0
  2 24  1  0  0  0  0
  2  4  1  0  0  0  0
  4  5  1  0  0  0  0
  4 28  1  0  0  0  0
  4 29  1  0  0  0  0
  5  6  1  0  0  0  0
  5 30  1  0  0  0  0
  5 31  1  0  0  0  0
  6 10  1  0  0  0  0
  6  7  2  0  0  0  0
  7  8  1  0  0  0  0
  7 24  1  0  0  0  0
  8  9  2  0  0  0  0
  8 32  1  0  0  0  0
  9 10  1  0  0  0  0
  9 11  1  0  0  0  0
 11 12  2  0  0  0  0
 11 13  1  0  0  0  0
 13 14  1  0  0  0  0
 13 33  1  0  0  0  0
 14 15  2  0  0  0  0
 15 16  1  0  0  0  0
 15 34  1  0  0  0  0
 16 21  2  0  0  0  0
 16 17  1  0  0  0  0
 17 18  2  0  0  0  0
 17 35  1  0  0  0  0
 18 19  1  0  0  0  0
 18 36  1  0  0  0  0
 19 20  2  0  0  0  0
 19 37  1  0  0  0  0
 20 21  1  0  0  0  0
 20 23  1  0  0  0  0
 21 22  1  0  0  0  0
 22 38  1  0  0  0  0
 23 39  1  0  0  0  0
 24 40  1  0  0  0  0
 24 41  1  0  0  0  0
M  END
$$$$
ZINC03867736
  -OEChem-08230709453D

 42 44  0     0  0  0  0  0  0999 V2000
    4.1127    3.0603    0.5436 C   0  0  0  0  0  0  0  0  0  0  0  0
    3.2645    2.3957   -0.5425 C   0  0  0  0  0  0  0  0  0  0  0  0
    2.2672    1.4422    0.0743 C   0  0  0  0  0  0  0  0  0  0  0  0
    2.4128    0.3050    0.8375 C   0  0  0  0  0  0  0  0  0  0  0  0
    1.2936   -0.3823    1.2734 C   0  0  0  0  0  0  0  0  0  0  0  0
    0.0318    0.0759    0.9406 C   0  0  0  0  0  0  0  0  0  0  0  0
   -0.1175    1.2143    0.1766 C   0  0  0  0  0  0  0  0  0  0  0  0
    1.0054    1.9124   -0.2664 C   0  0  0  0  0  0  0  0  0  0  0  0
    1.1103    3.0690   -1.0373 N   0  0  0  0  0  0  0  0  0  0  0  0
    2.4062    3.4243   -1.2475 C   0  0  0  0  0  0  0  0  0  0  0  0
    2.8454    4.4946   -1.9542 C   0  0  0  0  0  0  0  0  0  0  0  0
    2.0393    5.6357   -2.0717 C   0  0  0  0  0  0  0  0  0  0  0  0
    1.1752    5.8569   -1.2462 O   0  0  0  0  0  0  0  0  0  0  0  0
    2.2442    6.5878   -3.2217 C   0  0  0  0  0  0  0  0  0  0  0  0
    1.0567    7.9532   -3.0952 S   0  0  0  0  0  0  0  0  0  0  0  0
    1.4199    8.9648   -4.4914 C   0  0  0  0  0  0  0  0  0  0  0  0
    0.7792   10.1227   -4.8333 N   0  0  0  0  0  0  0  0  0  0  0  0
    0.0446   10.5319   -4.3498 H   0  0  0  0  0  0  0  0  0  0  0  0
    1.3566   10.6037   -5.9741 C   0  0  0  0  0  0  0  0  0  0  0  0
    2.3080    9.7749   -6.3274 N   0  0  0  0  0  0  0  0  0  0  0  0
    2.3485    8.7362   -5.3881 N   0  0  0  0  0  0  0  0  0  0  0  0
    0.9951   11.7650   -6.6448 N   0  0  0  0  0  0  0  0  0  0  0  0
   -0.0386    3.8131   -1.5593 C   0  0  0  0  0  0  0  0  0  0  0  0
    4.1563    1.6624   -1.5466 C   0  0  0  0  0  0  0  0  0  0  0  0
    4.6724    2.2976    1.0851 H   0  0  0  0  0  0  0  0  0  0  0  0
    4.8076    3.7626    0.0831 H   0  0  0  0  0  0  0  0  0  0  0  0
    3.4624    3.5943    1.2365 H   0  0  0  0  0  0  0  0  0  0  0  0
    3.3996   -0.0503    1.0952 H   0  0  0  0  0  0  0  0  0  0  0  0
    1.4052   -1.2742    1.8722 H   0  0  0  0  0  0  0  0  0  0  0  0
   -0.8415   -0.4606    1.2812 H   0  0  0  0  0  0  0  0  0  0  0  0
   -1.1060    1.5634   -0.0829 H   0  0  0  0  0  0  0  0  0  0  0  0
    3.8162    4.4683   -2.4266 H   0  0  0  0  0  0  0  0  0  0  0  0
    3.1751    6.9518   -3.1913 H   0  0  0  0  0  0  0  0  0  0  0  0
    2.0913    6.0593   -4.1627 H   0  0  0  0  0  0  0  0  0  0  0  0
    1.4642   12.0241   -7.4534 H   0  0  0  0  0  0  0  0  0  0  0  0
    0.2736   12.3169   -6.3047 H   0  0  0  0  0  0  0  0  0  0  0  0
   -0.6826    3.1384   -2.1233 H   0  0  0  0  0  0  0  0  0  0  0  0
   -0.6003    4.2429   -0.7299 H   0  0  0  0  0  0  0  0  0  0  0  0
    0.3123    4.6116   -2.2130 H   0  0  0  0  0  0  0  0  0  0  0  0
    3.5366    1.2137   -2.3229 H   0  0  0  0  0  0  0  0  0  0  0  0
    4.8510    2.3696   -1.9997 H   0  0  0  0  0  0  0  0  0  0  0  0
    4.7165    0.8815   -1.0324 H   0  0  0  0  0  0  0  0  0  0  0  0
  1  2  1  0  0  0  0
  1 25  1  0  0  0  0
  1 26  1  0  0  0  0
  1 27  1  0  0  0  0
  2 10  1  0  0  0  0
  2  3  1  0  0  0  0
  2 24  1  0  0  0  0
  3  8  2  0  0  0  0
  3  4  1  0  0  0  0
  4  5  2  0  0  0  0
  4 28  1  0  0  0  0
  5  6  1  0  0  0  0
  5 29  1  0  0  0  0
  6  7  2  0  0  0  0
  6 30  1  0  0  0  0
  7  8  1  0  0  0  0
  7 31  1  0  0  0  0
  8  9  1  0  0  0  0
  9 10  1  0  0  0  0
  9 23  1  0  0  0  0
 10 11  2  3  0  0  0
 11 12  1  0  0  0  0
 11 32  1  0  0  0  0
 12 13  2  0  0  0  0
 12 14  1  0  0  0  0
 14 15  1  0  0  0  0
 14 33  1  0  0  0  0
 14 34  1  0  0  0  0
 15 16  1  0  0  0  0
 16 21  2  0  0  0  0
 16 17  1  0  0  0  0
 17 18  1  0  0  0  0
 17 19  1  0  0  0  0
 19 20  2  0  0  0  0
 19 22  1  0  0  0  0
 20 21  1  0  0  0  0
 22 35  1  0  0  0  0
 22 36  1  0  0  0  0
 23 37  1  0  0  0  0
 23 38  1  0  0  0  0
 23 39  1  0  0  0  0
 24 40  1  0  0  0  0
 24 41  1  0  0  0  0
 24 42  1  0  0  0  0
M  END
$$$$
ZINC03867797
  -OEChem-08230709453D

 42 44  0     0  0  0  0  0  0999 V2000
    4.3221   -3.1828   11.7623 C   0  0  0  0  0  0  0  0  0  0  0  0
    3.9433   -2.1064   12.7466 C   0  0  0  0  0  0  0  0  0  0  0  0
    3.0335   -1.1216   12.3840 C   0  0  0  0  0  0  0  0  0  0  0  0
    2.6828   -0.1348   13.2957 C   0  0  0  0  0  0  0  0  0  0  0  0
    3.2434   -0.1323   14.5582 C   0  0  0  0  0  0  0  0  0  0  0  0
    4.1530   -1.1107   14.9142 C   0  0  0  0  0  0  0  0  0  0  0  0
    4.5044   -2.0950   14.0084 C   0  0  0  0  0  0  0  0  0  0  0  0
    5.4791   -3.1403   14.3935 N   0  3  0  0  0  0  0  0  0  0  0  0
    5.8673   -3.2162   15.5454 O   0  0  0  0  0  0  0  0  0  0  0  0
    5.8928   -3.9245   13.5584 O   0  5  0  0  0  0  0  0  0  0  0  0
    2.4671   -1.1272   11.1045 N   0  0  0  0  0  0  0  0  0  0  0  0
    1.3192   -0.4601   10.8727 C   0  0  0  0  0  0  0  0  0  0  0  0
    0.7281    0.0670   11.7913 O   0  0  0  0  0  0  0  0  0  0  0  0
    0.7702   -0.3691    9.4722 C   0  0  0  0  0  0  0  0  0  0  0  0
   -0.7690    0.5832    9.4883 S   0  0  0  0  0  0  0  0  0  0  0  0
   -1.1780    0.5326    7.7752 C   0  0  0  0  0  0  0  0  0  0  0  0
   -2.2806    1.1133    7.2132 N   0  0  0  0  0  0  0  0  0  0  0  0
   -2.9866    1.6337    7.6935 H   0  0  0  0  0  0  0  0  0  0  0  0
   -2.2378    0.8466    5.8545 C   0  0  0  0  0  0  0  0  0  0  0  0
   -3.0599    1.1710    4.7860 C   0  0  0  0  0  0  0  0  0  0  0  0
   -2.7348    0.7393    3.5120 C   0  0  0  0  0  0  0  0  0  0  0  0
   -1.5821   -0.0092    3.2970 C   0  0  0  0  0  0  0  0  0  0  0  0
   -0.7550   -0.3339    4.3486 C   0  0  0  0  0  0  0  0  0  0  0  0
   -1.0738    0.0908    5.6407 C   0  0  0  0  0  0  0  0  0  0  0  0
   -0.4710   -0.0672    6.8499 N   0  0  0  0  0  0  0  0  0  0  0  0
   -3.5431    1.0531    2.4644 O   0  0  0  0  0  0  0  0  0  0  0  0
   -3.1465    0.5815    1.1750 C   0  0  0  0  0  0  0  0  0  0  0  0
    5.2566   -2.9128   11.2704 H   0  0  0  0  0  0  0  0  0  0  0  0
    4.4488   -4.1286   12.2891 H   0  0  0  0  0  0  0  0  0  0  0  0
    3.5348   -3.2855   11.0155 H   0  0  0  0  0  0  0  0  0  0  0  0
    1.9728    0.6302   13.0180 H   0  0  0  0  0  0  0  0  0  0  0  0
    2.9710    0.6349   15.2678 H   0  0  0  0  0  0  0  0  0  0  0  0
    4.5899   -1.1066   15.9019 H   0  0  0  0  0  0  0  0  0  0  0  0
    2.9007   -1.6112   10.3843 H   0  0  0  0  0  0  0  0  0  0  0  0
    0.5730   -1.3719    9.0934 H   0  0  0  0  0  0  0  0  0  0  0  0
    1.4971    0.1261    8.8285 H   0  0  0  0  0  0  0  0  0  0  0  0
   -3.9535    1.7555    4.9481 H   0  0  0  0  0  0  0  0  0  0  0  0
   -1.3345   -0.3382    2.2986 H   0  0  0  0  0  0  0  0  0  0  0  0
    0.1380   -0.9159    4.1750 H   0  0  0  0  0  0  0  0  0  0  0  0
   -3.0922   -0.5070    1.1872 H   0  0  0  0  0  0  0  0  0  0  0  0
   -2.1684    0.9913    0.9233 H   0  0  0  0  0  0  0  0  0  0  0  0
   -3.8765    0.9006    0.4311 H   0  0  0  0  0  0  0  0  0  0  0  0
  1  2  1  0  0  0  0
  1 28  1  0  0  0  0
  1 29  1  0  0  0  0
  1 30  1  0  0  0  0
  2  7  2  0  0  0  0
  2  3  1  0  0  0  0
  3  4  2  0  0  0  0
  3 11  1  0  0  0  0
  4  5  1  0  0  0  0
  4 31  1  0  0  0  0
  5  6  2  0  0  0  0
  5 32  1  0  0  0  0
  6  7  1  0  0  0  0
  6 33  1  0  0  0  0
  7  8  1  0  0  0  0
  8  9  2  0  0  0  0
  8 10  1  0  0  0  0
 11 12  1  0  0  0  0
 11 34  1  0  0  0  0
 12 13  2  0  0  0  0
 12 14  1  0  0  0  0
 14 15  1  0  0  0  0
 14 35  1  0  0  0  0
 14 36  1  0  0  0  0
 15 16  1  0  0  0  0
 16 25  2  0  0  0  0
 16 17  1  0  0  0  0
 17 18  1  0  0  0  0
 17 19  1  0  0  0  0
 19 24  2  0  0  0  0
 19 20  1  0  0  0  0
 20 21  2  0  0  0  0
 20 37  1  0  0  0  0
 21 22  1  0  0  0  0
 21 26  1  0  0  0  0
 22 23  2  0  0  0  0
 22 38  1  0  0  0  0
 23 24  1  0  0  0  0
 23 39  1  0  0  0  0
 24 25  1  0  0  0  0
 26 27  1  0  0  0  0
 27 40  1  0  0  0  0
 27 41  1  0  0  0  0
 27 42  1  0  0  0  0
M  CHG  2   8   1  10  -1
M  END
$$$$
ZINC03867797
  -OEChem-08230709453D

 43 45  0     0  0  0  0  0  0999 V2000
    4.3221   -3.1828   11.7623 C   0  0  0  0  0  0  0  0  0  0  0  0
    3.9433   -2.1064   12.7466 C   0  0  0  0  0  0  0  0  0  0  0  0
    3.0335   -1.1216   12.3840 C   0  0  0  0  0  0  0  0  0  0  0  0
    2.6828   -0.1348   13.2957 C   0  0  0  0  0  0  0  0  0  0  0  0
    3.2434   -0.1323   14.5582 C   0  0  0  0  0  0  0  0  0  0  0  0
    4.1530   -1.1107   14.9142 C   0  0  0  0  0  0  0  0  0  0  0  0
    4.5044   -2.0950   14.0084 C   0  0  0  0  0  0  0  0  0  0  0  0
    5.4791   -3.1403   14.3935 N   0  3  0  0  0  0  0  0  0  0  0  0
    5.8673   -3.2162   15.5454 O   0  0  0  0  0  0  0  0  0  0  0  0
    5.8928   -3.9245   13.5584 O   0  5  0  0  0  0  0  0  0  0  0  0
    2.4671   -1.1272   11.1045 N   0  0  0  0  0  0  0  0  0  0  0  0
    1.3192   -0.4601   10.8727 C   0  0  0  0  0  0  0  0  0  0  0  0
    0.7281    0.0670   11.7913 O   0  0  0  0  0  0  0  0  0  0  0  0
    0.7702   -0.3691    9.4722 C   0  0  0  0  0  0  0  0  0  0  0  0
   -0.7690    0.5832    9.4883 S   0  0  0  0  0  0  0  0  0  0  0  0
   -1.1780    0.5326    7.7752 C   0  0  0  0  0  0  0  0  0  0  0  0
   -2.2806    1.1133    7.2132 N   0  0  0  0  0  0  0  0  0  0  0  0
   -2.9866    1.6337    7.6935 H   0  0  0  0  0  0  0  0  0  0  0  0
   -2.2378    0.8466    5.8545 C   0  0  0  0  0  0  0  0  0  0  0  0
   -3.0599    1.1710    4.7860 C   0  0  0  0  0  0  0  0  0  0  0  0
   -2.7348    0.7393    3.5120 C   0  0  0  0  0  0  0  0  0  0  0  0
   -1.5821   -0.0092    3.2970 C   0  0  0  0  0  0  0  0  0  0  0  0
   -0.7550   -0.3339    4.3486 C   0  0  0  0  0  0  0  0  0  0  0  0
   -1.0738    0.0908    5.6407 C   0  0  0  0  0  0  0  0  0  0  0  0
   -3.5431    1.0531    2.4644 O   0  0  0  0  0  0  0  0  0  0  0  0
   -3.1465    0.5815    1.1750 C   0  0  0  0  0  0  0  0  0  0  0  0
    5.2566   -2.9128   11.2704 H   0  0  0  0  0  0  0  0  0  0  0  0
    4.4488   -4.1286   12.2891 H   0  0  0  0  0  0  0  0  0  0  0  0
    3.5348   -3.2855   11.0155 H   0  0  0  0  0  0  0  0  0  0  0  0
    1.9728    0.6302   13.0180 H   0  0  0  0  0  0  0  0  0  0  0  0
    2.9710    0.6349   15.2678 H   0  0  0  0  0  0  0  0  0  0  0  0
    4.5899   -1.1066   15.9019 H   0  0  0  0  0  0  0  0  0  0  0  0
    2.9007   -1.6112   10.3843 H   0  0  0  0  0  0  0  0  0  0  0  0
    0.5730   -1.3719    9.0934 H   0  0  0  0  0  0  0  0  0  0  0  0
    1.4971    0.1261    8.8285 H   0  0  0  0  0  0  0  0  0  0  0  0
   -3.9535    1.7555    4.9481 H   0  0  0  0  0  0  0  0  0  0  0  0
   -1.3345   -0.3382    2.2986 H   0  0  0  0  0  0  0  0  0  0  0  0
    0.1380   -0.9159    4.1750 H   0  0  0  0  0  0  0  0  0  0  0  0
   -3.0922   -0.5070    1.1872 H   0  0  0  0  0  0  0  0  0  0  0  0
   -2.1684    0.9913    0.9233 H   0  0  0  0  0  0  0  0  0  0  0  0
   -3.8765    0.9006    0.4311 H   0  0  0  0  0  0  0  0  0  0  0  0
   -0.4703   -0.0676    6.8500 N   0  3  0  0  0  0  0  0  0  0  0  0
    0.4052   -0.5789    7.0126 H   0  0  0  0  0  0  0  0  0  0  0  0
  1  2  1  0  0  0  0
  1 27  1  0  0  0  0
  1 28  1  0  0  0  0
  1 29  1  0  0  0  0
  2  7  2  0  0  0  0
  2  3  1  0  0  0  0
  3  4  2  0  0  0  0
  3 11  1  0  0  0  0
  4  5  1  0  0  0  0
  4 30  1  0  0  0  0
  5  6  2  0  0  0  0
  5 31  1  0  0  0  0
  6  7  1  0  0  0  0
  6 32  1  0  0  0  0
  7  8  1  0  0  0  0
  8  9  2  0  0  0  0
  8 10  1  0  0  0  0
 11 12  1  0  0  0  0
 11 33  1  0  0  0  0
 12 13  2  0  0  0  0
 12 14  1  0  0  0  0
 14 15  1  0  0  0  0
 14 34  1  0  0  0  0
 14 35  1  0  0  0  0
 15 16  1  0  0  0  0
 16 17  1  0  0  0  0
 16 42  2  0  0  0  0
 17 18  1  0  0  0  0
 17 19  1  0  0  0  0
 19 24  2  0  0  0  0
 19 20  1  0  0  0  0
 20 21  2  0  0  0  0
 20 36  1  0  0  0  0
 21 22  1  0  0  0  0
 21 25  1  0  0  0  0
 22 23  2  0  0  0  0
 22 37  1  0  0  0  0
 23 24  1  0  0  0  0
 23 38  1  0  0  0  0
 24 42  1  0  0  0  0
 25 26  1  0  0  0  0
 26 39  1  0  0  0  0
 26 40  1  0  0  0  0
 26 41  1  0  0  0  0
 42 43  1  0  0  0  0
M  CHG  3   8   1  10  -1  42   1
M  END
$$$$
ZINC03867959
  -OEChem-08230709453D

 46 47  0     1  0  0  0  0  0999 V2000
   -1.9769    0.9944   -1.5738 C   0  0  0  0  0  0  0  0  0  0  0  0
   -0.9635    1.7597   -0.7624 C   0  0  0  0  0  0  0  0  0  0  0  0
   -0.0131    1.0784   -0.0239 C   0  0  0  0  0  0  0  0  0  0  0  0
    0.9220    1.7771    0.7172 C   0  0  0  0  0  0  0  0  0  0  0  0
    0.9067    3.1582    0.7260 C   0  0  0  0  0  0  0  0  0  0  0  0
   -0.0495    3.8451   -0.0103 C   0  0  0  0  0  0  0  0  0  0  0  0
   -0.9877    3.1404   -0.7534 C   0  0  0  0  0  0  0  0  0  0  0  0
   -0.0680    5.2442   -0.0033 N   0  0  0  0  0  0  0  0  0  0  0  0
    1.0862    5.9329    0.0957 C   0  0  0  0  0  0  0  0  0  0  0  0
    2.1467    5.3444    0.0823 O   0  0  0  0  0  0  0  0  0  0  0  0
    1.0592    7.4343    0.2232 C   0  0  0  0  0  0  0  0  0  0  0  0
    2.7537    8.0608    0.3357 S   0  0  0  0  0  0  0  0  0  0  0  0
    2.4328    9.7879    0.4721 C   0  0  0  0  0  0  0  0  0  0  0  0
    1.1446   10.2302    0.4651 N   0  0  0  0  0  0  0  0  0  0  0  0
    2.6666   10.0019    0.5023 H   0  0  0  0  0  0  0  0  0  0  0  0
    0.8819   11.5493    0.5745 C   0  0  0  0  0  0  0  0  0  0  0  0
   -0.2692   11.9558    0.5690 O   0  0  0  0  0  0  0  0  0  0  0  0
    1.9531   12.4454    0.6721 C   0  0  0  0  0  0  0  0  0  0  0  0
    3.2437   11.9434    0.6744 C   0  0  0  0  0  0  0  0  0  0  0  0
    3.4441   10.6262    0.5790 N   0  3  3  0  0  0  0  0  0  0  0  0
    4.8128   10.1042    0.5878 C   0  0  0  0  0  0  0  0  0  0  0  0
    5.3436   10.0406   -0.8459 C   0  0  0  0  0  0  0  0  0  0  0  0
    6.8130    9.6146   -0.8274 C   0  0  0  0  0  0  0  0  0  0  0  0
    4.5279    9.0238   -1.6470 C   0  0  0  0  0  0  0  0  0  0  0  0
    4.2991   12.7850    0.7730 O   0  0  0  0  0  0  0  0  0  0  0  0
   -2.8575    0.7970   -0.9625 H   0  0  0  0  0  0  0  0  0  0  0  0
   -2.2640    1.5829   -2.4452 H   0  0  0  0  0  0  0  0  0  0  0  0
   -1.5422    0.0497   -1.9005 H   0  0  0  0  0  0  0  0  0  0  0  0
    0.0015   -0.0014   -0.0296 H   0  0  0  0  0  0  0  0  0  0  0  0
    1.6654    1.2422    1.2897 H   0  0  0  0  0  0  0  0  0  0  0  0
    1.6378    3.7033    1.3045 H   0  0  0  0  0  0  0  0  0  0  0  0
   -1.7329    3.6717   -1.3268 H   0  0  0  0  0  0  0  0  0  0  0  0
   -0.9116    5.7184   -0.0696 H   0  0  0  0  0  0  0  0  0  0  0  0
    0.5701    7.8643   -0.6509 H   0  0  0  0  0  0  0  0  0  0  0  0
    0.5085    7.7129    1.1215 H   0  0  0  0  0  0  0  0  0  0  0  0
    1.7760   13.5081    0.7485 H   0  0  0  0  0  0  0  0  0  0  0  0
    5.4484   10.7612    1.1816 H   0  0  0  0  0  0  0  0  0  0  0  0
    4.8178    9.1044    1.0217 H   0  0  0  0  0  0  0  0  0  0  0  0
    5.2559   11.0231   -1.3098 H   0  0  0  0  0  0  0  0  0  0  0  0
    6.9005    8.6322   -0.3634 H   0  0  0  0  0  0  0  0  0  0  0  0
    7.1910    9.5692   -1.8486 H   0  0  0  0  0  0  0  0  0  0  0  0
    7.3941   10.3390   -0.2567 H   0  0  0  0  0  0  0  0  0  0  0  0
    4.9059    8.9784   -2.6682 H   0  0  0  0  0  0  0  0  0  0  0  0
    4.6156    8.0413   -1.1830 H   0  0  0  0  0  0  0  0  0  0  0  0
    3.4811    9.3273   -1.6601 H   0  0  0  0  0  0  0  0  0  0  0  0
    4.0535   13.7180    0.8372 H   0  0  0  0  0  0  0  0  0  0  0  0
  1  2  1  0  0  0  0
  1 26  1  0  0  0  0
  1 27  1  0  0  0  0
  1 28  1  0  0  0  0
  2  7  2  0  0  0  0
  2  3  1  0  0  0  0
  3  4  2  0  0  0  0
  3 29  1  0  0  0  0
  4  5  1  0  0  0  0
  4 30  1  0  0  0  0
  5  6  2  0  0  0  0
  5 31  1  0  0  0  0
  6  7  1  0  0  0  0
  6  8  1  0  0  0  0
  7 32  1  0  0  0  0
  8  9  1  0  0  0  0
  8 33  1  0  0  0  0
  9 10  2  0  0  0  0
  9 11  1  0  0  0  0
 11 12  1  0  0  0  0
 11 34  1  0  0  0  0
 11 35  1  0  0  0  0
 12 13  1  0  0  0  0
 13 20  1  0  0  0  0
 13 14  2  0  0  0  0
 14 16  1  0  0  0  0
 15 20  1  0  0  0  0
 16 17  2  0  0  0  0
 16 18  1  0  0  0  0
 18 36  1  0  0  0  0
 18 19  2  0  0  0  0
 19 25  1  0  0  0  0
 19 20  1  0  0  0  0
 20 21  1  0  0  0  0
 21 22  1  0  0  0  0
 21 37  1  0  0  0  0
 21 38  1  0  0  0  0
 22 23  1  0  0  0  0
 22 24  1  0  0  0  0
 22 39  1  0  0  0  0
 23 40  1  0  0  0  0
 23 41  1  0  0  0  0
 23 42  1  0  0  0  0
 24 43  1  0  0  0  0
 24 44  1  0  0  0  0
 24 45  1  0  0  0  0
 25 46  1  0  0  0  0
M  CHG  1  20   1
M  END
$$$$
ZINC03868352
  -OEChem-08230709453D

 41 43  0     1  0  0  0  0  0999 V2000
   -7.7493    0.0566    4.2812 C   0  0  0  0  0  0  0  0  0  0  0  0
   -6.2662   -0.2174    4.0234 C   0  0  1  0  0  0  0  0  0  0  0  0
   -5.7182   -0.1487    4.9632 H   0  0  0  0  0  0  0  0  0  0  0  0
   -6.1028   -1.6242    3.4412 C   0  0  0  0  0  0  0  0  0  0  0  0
   -4.6111   -1.9882    3.4410 C   0  0  0  0  0  0  0  0  0  0  0  0
   -3.8450   -0.8408    2.8583 C   0  0  0  0  0  0  0  0  0  0  0  0
   -4.2954    0.4329    2.6577 C   0  0  0  0  0  0  0  0  0  0  0  0
   -3.4001    1.3305    2.0989 C   0  0  0  0  0  0  0  0  0  0  0  0
   -2.1305    0.8787    1.7885 C   0  0  0  0  0  0  0  0  0  0  0  0
   -2.2192   -0.8320    2.2897 S   0  0  0  0  0  0  0  0  0  0  0  0
   -1.0077    1.6114    1.1967 C   0  0  0  0  0  0  0  0  0  0  0  0
   -1.1322    2.7880    0.9099 O   0  0  0  0  0  0  0  0  0  0  0  0
    0.1626    0.9826    0.9701 N   0  0  0  0  0  0  0  0  0  0  0  0
    1.2342    1.6816    0.3990 N   0  0  0  0  0  0  0  0  0  0  0  0
    2.3247    1.0521    0.0821 C   0  0  0  0  0  0  0  0  0  0  0  0
    2.3494   -0.4208    0.0749 C   0  0  0  0  0  0  0  0  0  0  0  0
    1.1693   -1.1412   -0.1274 C   0  0  0  0  0  0  0  0  0  0  0  0
    1.1975   -2.5185   -0.1377 C   0  0  0  0  0  0  0  0  0  0  0  0
    2.3949   -3.1953    0.0622 C   0  0  0  0  0  0  0  0  0  0  0  0
    3.5711   -2.4893    0.2691 C   0  0  0  0  0  0  0  0  0  0  0  0
    3.5563   -1.1056    0.2768 C   0  0  0  0  0  0  0  0  0  0  0  0
    4.7069   -0.4131    0.4796 O   0  0  0  0  0  0  0  0  0  0  0  0
    2.4136   -4.5536    0.0553 O   0  0  0  0  0  0  0  0  0  0  0  0
   -5.7215    0.8199    3.0410 C   0  0  0  0  0  0  0  0  0  0  0  0
   -8.2991   -0.0073    3.3422 H   0  0  0  0  0  0  0  0  0  0  0  0
   -8.1389   -0.6822    4.9814 H   0  0  0  0  0  0  0  0  0  0  0  0
   -7.8663    1.0547    4.7035 H   0  0  0  0  0  0  0  0  0  0  0  0
   -6.6534   -2.3390    4.0527 H   0  0  0  0  0  0  0  0  0  0  0  0
   -6.4862   -1.6443    2.4210 H   0  0  0  0  0  0  0  0  0  0  0  0
   -4.2778   -2.1712    4.4625 H   0  0  0  0  0  0  0  0  0  0  0  0
   -4.4513   -2.8815    2.8372 H   0  0  0  0  0  0  0  0  0  0  0  0
   -3.6860    2.3548    1.9106 H   0  0  0  0  0  0  0  0  0  0  0  0
    0.2618    0.0452    1.1986 H   0  0  0  0  0  0  0  0  0  0  0  0
    3.2137    1.6083   -0.1763 H   0  0  0  0  0  0  0  0  0  0  0  0
    0.2364   -0.6186   -0.2793 H   0  0  0  0  0  0  0  0  0  0  0  0
    0.2854   -3.0743   -0.2979 H   0  0  0  0  0  0  0  0  0  0  0  0
    4.4987   -3.0200    0.4246 H   0  0  0  0  0  0  0  0  0  0  0  0
    4.8526   -0.1535    1.3997 H   0  0  0  0  0  0  0  0  0  0  0  0
    2.2697   -4.9533    0.9240 H   0  0  0  0  0  0  0  0  0  0  0  0
   -5.7192    1.8030    3.5117 H   0  0  0  0  0  0  0  0  0  0  0  0
   -6.3461    0.8437    2.1480 H   0  0  0  0  0  0  0  0  0  0  0  0
  1  2  1  0  0  0  0
  1 25  1  0  0  0  0
  1 26  1  0  0  0  0
  1 27  1  0  0  0  0
  2  3  1  0  0  0  0
  2 24  1  0  0  0  0
  2  4  1  0  0  0  0
  4  5  1  0  0  0  0
  4 28  1  0  0  0  0
  4 29  1  0  0  0  0
  5  6  1  0  0  0  0
  5 30  1  0  0  0  0
  5 31  1  0  0  0  0
  6 10  1  0  0  0  0
  6  7  2  0  0  0  0
  7  8  1  0  0  0  0
  7 24  1  0  0  0  0
  8  9  2  0  0  0  0
  8 32  1  0  0  0  0
  9 10  1  0  0  0  0
  9 11  1  0  0  0  0
 11 12  2  0  0  0  0
 11 13  1  0  0  0  0
 13 14  1  0  0  0  0
 13 33  1  0  0  0  0
 14 15  2  0  0  0  0
 15 16  1  0  0  0  0
 15 34  1  0  0  0  0
 16 21  2  0  0  0  0
 16 17  1  0  0  0  0
 17 18  2  0  0  0  0
 17 35  1  0  0  0  0
 18 19  1  0  0  0  0
 18 36  1  0  0  0  0
 19 20  2  0  0  0  0
 19 23  1  0  0  0  0
 20 21  1  0  0  0  0
 20 37  1  0  0  0  0
 21 22  1  0  0  0  0
 22 38  1  0  0  0  0
 23 39  1  0  0  0  0
 24 40  1  0  0  0  0
 24 41  1  0  0  0  0
M  END
$$$$
ZINC03868353
  -OEChem-08230709453D

 41 43  0     1  0  0  0  0  0999 V2000
    1.2706   -2.3654   -2.7253 C   0  0  0  0  0  0  0  0  0  0  0  0
    1.3484   -0.8493   -2.5352 C   0  0  2  0  0  0  0  0  0  0  0  0
    0.7959   -0.5680   -1.6387 H   0  0  0  0  0  0  0  0  0  0  0  0
    0.7327   -0.1521   -3.7516 C   0  0  0  0  0  0  0  0  0  0  0  0
    0.5699    1.3415   -3.4346 C   0  0  0  0  0  0  0  0  0  0  0  0
    1.8553    1.8435   -2.8524 C   0  0  0  0  0  0  0  0  0  0  0  0
    2.8884    1.0931   -2.3679 C   0  0  0  0  0  0  0  0  0  0  0  0
    3.9844    1.7837   -1.8763 C   0  0  0  0  0  0  0  0  0  0  0  0
    3.9539    3.1658   -1.9102 C   0  0  0  0  0  0  0  0  0  0  0  0
    2.3578    3.4779   -2.6454 S   0  0  0  0  0  0  0  0  0  0  0  0
    4.9677    4.1239   -1.4607 C   0  0  0  0  0  0  0  0  0  0  0  0
    6.0114    3.7241   -0.9779 O   0  0  0  0  0  0  0  0  0  0  0  0
    4.7446    5.4475   -1.5817 N   0  0  0  0  0  0  0  0  0  0  0  0
    5.7137    6.3634   -1.1520 N   0  0  0  0  0  0  0  0  0  0  0  0
    5.4568    7.6362   -1.1686 C   0  0  0  0  0  0  0  0  0  0  0  0
    4.0786    8.1065   -1.3908 C   0  0  0  0  0  0  0  0  0  0  0  0
    2.9959    7.2891   -1.0560 C   0  0  0  0  0  0  0  0  0  0  0  0
    1.7085    7.7348   -1.2609 C   0  0  0  0  0  0  0  0  0  0  0  0
    1.4822    8.9917   -1.8093 C   0  0  0  0  0  0  0  0  0  0  0  0
    2.5504    9.8086   -2.1500 C   0  0  0  0  0  0  0  0  0  0  0  0
    3.8481    9.3741   -1.9444 C   0  0  0  0  0  0  0  0  0  0  0  0
    4.8948   10.1724   -2.2782 O   0  0  0  0  0  0  0  0  0  0  0  0
    0.2098    9.4218   -2.0131 O   0  0  0  0  0  0  0  0  0  0  0  0
    2.8110   -0.4314   -2.3799 C   0  0  0  0  0  0  0  0  0  0  0  0
    1.8199   -2.6477   -3.6234 H   0  0  0  0  0  0  0  0  0  0  0  0
    1.7086   -2.8630   -1.8600 H   0  0  0  0  0  0  0  0  0  0  0  0
    0.2278   -2.6657   -2.8278 H   0  0  0  0  0  0  0  0  0  0  0  0
   -0.2426   -0.5882   -3.9679 H   0  0  0  0  0  0  0  0  0  0  0  0
    1.3869   -0.2733   -4.6150 H   0  0  0  0  0  0  0  0  0  0  0  0
    0.3430    1.8884   -4.3497 H   0  0  0  0  0  0  0  0  0  0  0  0
   -0.2372    1.4782   -2.7149 H   0  0  0  0  0  0  0  0  0  0  0  0
    4.8390    1.2571   -1.4780 H   0  0  0  0  0  0  0  0  0  0  0  0
    3.9130    5.7660   -1.9664 H   0  0  0  0  0  0  0  0  0  0  0  0
    6.2535    8.3499   -1.0194 H   0  0  0  0  0  0  0  0  0  0  0  0
    3.1681    6.3101   -0.6337 H   0  0  0  0  0  0  0  0  0  0  0  0
    0.8723    7.1038   -0.9980 H   0  0  0  0  0  0  0  0  0  0  0  0
    2.3692   10.7843   -2.5762 H   0  0  0  0  0  0  0  0  0  0  0  0
    5.2568    9.9990   -3.1580 H   0  0  0  0  0  0  0  0  0  0  0  0
   -0.1477    9.1944   -2.8823 H   0  0  0  0  0  0  0  0  0  0  0  0
    3.2058   -0.8247   -1.4431 H   0  0  0  0  0  0  0  0  0  0  0  0
    3.3928   -0.8202   -3.2157 H   0  0  0  0  0  0  0  0  0  0  0  0
  1  2  1  0  0  0  0
  1 25  1  0  0  0  0
  1 26  1  0  0  0  0
  1 27  1  0  0  0  0
  2  3  1  0  0  0  0
  2 24  1  0  0  0  0
  2  4  1  0  0  0  0
  4  5  1  0  0  0  0
  4 28  1  0  0  0  0
  4 29  1  0  0  0  0
  5  6  1  0  0  0  0
  5 30  1  0  0  0  0
  5 31  1  0  0  0  0
  6 10  1  0  0  0  0
  6  7  2  0  0  0  0
  7  8  1  0  0  0  0
  7 24  1  0  0  0  0
  8  9  2  0  0  0  0
  8 32  1  0  0  0  0
  9 10  1  0  0  0  0
  9 11  1  0  0  0  0
 11 12  2  0  0  0  0
 11 13  1  0  0  0  0
 13 14  1  0  0  0  0
 13 33  1  0  0  0  0
 14 15  2  0  0  0  0
 15 16  1  0  0  0  0
 15 34  1  0  0  0  0
 16 21  2  0  0  0  0
 16 17  1  0  0  0  0
 17 18  2  0  0  0  0
 17 35  1  0  0  0  0
 18 19  1  0  0  0  0
 18 36  1  0  0  0  0
 19 20  2  0  0  0  0
 19 23  1  0  0  0  0
 20 21  1  0  0  0  0
 20 37  1  0  0  0  0
 21 22  1  0  0  0  0
 22 38  1  0  0  0  0
 23 39  1  0  0  0  0
 24 40  1  0  0  0  0
 24 41  1  0  0  0  0
M  END
$$$$
ZINC03868354
  -OEChem-08230709453D

 41 43  0     1  0  0  0  0  0999 V2000
   -4.1601   -0.7349   -1.5336 C   0  0  0  0  0  0  0  0  0  0  0  0
   -3.4343   -0.8060   -0.1886 C   0  0  1  0  0  0  0  0  0  0  0  0
   -3.8685   -1.6040    0.4137 H   0  0  0  0  0  0  0  0  0  0  0  0
   -1.9502   -1.0985   -0.4265 C   0  0  0  0  0  0  0  0  0  0  0  0
   -1.2913   -1.4342    0.9192 C   0  0  0  0  0  0  0  0  0  0  0  0
   -1.7003   -0.3962    1.9183 C   0  0  0  0  0  0  0  0  0  0  0  0
   -2.7212    0.5043    1.7981 C   0  0  0  0  0  0  0  0  0  0  0  0
   -2.9128    1.3746    2.8589 C   0  0  0  0  0  0  0  0  0  0  0  0
   -2.0690    1.2704    3.9496 C   0  0  0  0  0  0  0  0  0  0  0  0
   -1.0010   -0.0725    3.4578 S   0  0  0  0  0  0  0  0  0  0  0  0
   -2.0556    2.0565    5.1862 C   0  0  0  0  0  0  0  0  0  0  0  0
   -2.8713    2.9450    5.3515 O   0  0  0  0  0  0  0  0  0  0  0  0
   -1.1404    1.7958    6.1406 N   0  0  0  0  0  0  0  0  0  0  0  0
   -1.1276    2.5473    7.3229 N   0  0  0  0  0  0  0  0  0  0  0  0
   -0.1762    2.3778    8.1895 C   0  0  0  0  0  0  0  0  0  0  0  0
    1.1078    1.7884    7.7686 C   0  0  0  0  0  0  0  0  0  0  0  0
    1.4133    1.6724    6.4101 C   0  0  0  0  0  0  0  0  0  0  0  0
    2.6152    1.1212    6.0185 C   0  0  0  0  0  0  0  0  0  0  0  0
    3.5233    0.6813    6.9706 C   0  0  0  0  0  0  0  0  0  0  0  0
    3.2255    0.7939    8.3268 C   0  0  0  0  0  0  0  0  0  0  0  0
    2.0249    1.3497    8.7272 C   0  0  0  0  0  0  0  0  0  0  0  0
    4.1186    0.3620    9.2572 O   0  0  0  0  0  0  0  0  0  0  0  0
    4.7071    0.1396    6.5791 O   0  0  0  0  0  0  0  0  0  0  0  0
   -3.5920    0.5265    0.5445 C   0  0  0  0  0  0  0  0  0  0  0  0
   -4.0555   -1.6871   -2.0536 H   0  0  0  0  0  0  0  0  0  0  0  0
   -5.2168   -0.5267   -1.3657 H   0  0  0  0  0  0  0  0  0  0  0  0
   -3.7250    0.0598   -2.1396 H   0  0  0  0  0  0  0  0  0  0  0  0
   -1.4697   -0.2213   -0.8599 H   0  0  0  0  0  0  0  0  0  0  0  0
   -1.8465   -1.9449   -1.1054 H   0  0  0  0  0  0  0  0  0  0  0  0
   -1.6220   -2.4172    1.2547 H   0  0  0  0  0  0  0  0  0  0  0  0
   -0.2070   -1.4299    0.8082 H   0  0  0  0  0  0  0  0  0  0  0  0
   -3.6998    2.1139    2.8349 H   0  0  0  0  0  0  0  0  0  0  0  0
   -0.4905    1.0878    6.0089 H   0  0  0  0  0  0  0  0  0  0  0  0
   -0.3252    2.6685    9.2189 H   0  0  0  0  0  0  0  0  0  0  0  0
    0.7085    2.0146    5.6668 H   0  0  0  0  0  0  0  0  0  0  0  0
    2.8502    1.0320    4.9682 H   0  0  0  0  0  0  0  0  0  0  0  0
    1.7946    1.4413    9.7784 H   0  0  0  0  0  0  0  0  0  0  0  0
    4.7486    1.0383    9.5413 H   0  0  0  0  0  0  0  0  0  0  0  0
    5.4214    0.7840    6.4812 H   0  0  0  0  0  0  0  0  0  0  0  0
   -3.2747    1.3413   -0.1063 H   0  0  0  0  0  0  0  0  0  0  0  0
   -4.6358    0.6681    0.8248 H   0  0  0  0  0  0  0  0  0  0  0  0
  1  2  1  0  0  0  0
  1 25  1  0  0  0  0
  1 26  1  0  0  0  0
  1 27  1  0  0  0  0
  2  3  1  0  0  0  0
  2 24  1  0  0  0  0
  2  4  1  0  0  0  0
  4  5  1  0  0  0  0
  4 28  1  0  0  0  0
  4 29  1  0  0  0  0
  5  6  1  0  0  0  0
  5 30  1  0  0  0  0
  5 31  1  0  0  0  0
  6 10  1  0  0  0  0
  6  7  2  0  0  0  0
  7  8  1  0  0  0  0
  7 24  1  0  0  0  0
  8  9  2  0  0  0  0
  8 32  1  0  0  0  0
  9 10  1  0  0  0  0
  9 11  1  0  0  0  0
 11 12  2  0  0  0  0
 11 13  1  0  0  0  0
 13 14  1  0  0  0  0
 13 33  1  0  0  0  0
 14 15  2  3  0  0  0
 15 16  1  0  0  0  0
 15 34  1  0  0  0  0
 16 21  2  0  0  0  0
 16 17  1  0  0  0  0
 17 18  2  0  0  0  0
 17 35  1  0  0  0  0
 18 19  1  0  0  0  0
 18 36  1  0  0  0  0
 19 20  2  0  0  0  0
 19 23  1  0  0  0  0
 20 21  1  0  0  0  0
 20 22  1  0  0  0  0
 21 37  1  0  0  0  0
 22 38  1  0  0  0  0
 23 39  1  0  0  0  0
 24 40  1  0  0  0  0
 24 41  1  0  0  0  0
M  END
$$$$
ZINC03868355
  -OEChem-08230709453D

 41 43  0     1  0  0  0  0  0999 V2000
    1.2032   -2.4547   -1.4276 C   0  0  0  0  0  0  0  0  0  0  0  0
    1.3002   -0.9293   -1.4954 C   0  0  2  0  0  0  0  0  0  0  0  0
    0.6633   -0.4917   -0.7267 H   0  0  0  0  0  0  0  0  0  0  0  0
    0.8353   -0.4511   -2.8738 C   0  0  0  0  0  0  0  0  0  0  0  0
    0.6790    1.0761   -2.8395 C   0  0  0  0  0  0  0  0  0  0  0  0
    1.9084    1.6626   -2.2170 C   0  0  0  0  0  0  0  0  0  0  0  0
    2.8644    1.0009   -1.5002 C   0  0  0  0  0  0  0  0  0  0  0  0
    3.9199    1.7587   -1.0195 C   0  0  0  0  0  0  0  0  0  0  0  0
    3.9298    3.1138   -1.2956 C   0  0  0  0  0  0  0  0  0  0  0  0
    2.4293    3.3041   -2.2432 S   0  0  0  0  0  0  0  0  0  0  0  0
    4.9147    4.1282   -0.9106 C   0  0  0  0  0  0  0  0  0  0  0  0
    5.8899    3.8116   -0.2542 O   0  0  0  0  0  0  0  0  0  0  0  0
    4.7409    5.4117   -1.2832 N   0  0  0  0  0  0  0  0  0  0  0  0
    5.6825    6.3816   -0.9151 N   0  0  0  0  0  0  0  0  0  0  0  0
    5.4576    7.6344   -1.1703 C   0  0  0  0  0  0  0  0  0  0  0  0
    4.0786    8.1050   -1.3940 C   0  0  0  0  0  0  0  0  0  0  0  0
    2.9964    7.2869   -1.0597 C   0  0  0  0  0  0  0  0  0  0  0  0
    1.7073    7.7293   -1.2693 C   0  0  0  0  0  0  0  0  0  0  0  0
    1.4812    8.9861   -1.8114 C   0  0  0  0  0  0  0  0  0  0  0  0
    2.5554    9.8072   -2.1476 C   0  0  0  0  0  0  0  0  0  0  0  0
    3.8504    9.3728   -1.9355 C   0  0  0  0  0  0  0  0  0  0  0  0
    2.3297   11.0386   -2.6787 O   0  0  0  0  0  0  0  0  0  0  0  0
    0.2083    9.4175   -2.0156 O   0  0  0  0  0  0  0  0  0  0  0  0
    2.7485   -0.5015   -1.2562 C   0  0  0  0  0  0  0  0  0  0  0  0
    1.8371   -2.8937   -2.1981 H   0  0  0  0  0  0  0  0  0  0  0  0
    1.5338   -2.7966   -0.4469 H   0  0  0  0  0  0  0  0  0  0  0  0
    0.1696   -2.7607   -1.5896 H   0  0  0  0  0  0  0  0  0  0  0  0
   -0.1226   -0.9111   -3.1164 H   0  0  0  0  0  0  0  0  0  0  0  0
    1.5740   -0.7260   -3.6268 H   0  0  0  0  0  0  0  0  0  0  0  0
    0.5644    1.4563   -3.8546 H   0  0  0  0  0  0  0  0  0  0  0  0
   -0.1957    1.3423   -2.2462 H   0  0  0  0  0  0  0  0  0  0  0  0
    4.7132    1.3037   -0.4450 H   0  0  0  0  0  0  0  0  0  0  0  0
    3.9639    5.6640   -1.8062 H   0  0  0  0  0  0  0  0  0  0  0  0
    6.2808    8.3318   -1.2188 H   0  0  0  0  0  0  0  0  0  0  0  0
    3.1695    6.3083   -0.6369 H   0  0  0  0  0  0  0  0  0  0  0  0
    0.8716    7.0960   -1.0106 H   0  0  0  0  0  0  0  0  0  0  0  0
    4.6839   10.0101   -2.1915 H   0  0  0  0  0  0  0  0  0  0  0  0
    2.2525   11.7427   -2.0205 H   0  0  0  0  0  0  0  0  0  0  0  0
   -0.1722    9.8902   -1.2627 H   0  0  0  0  0  0  0  0  0  0  0  0
    3.0311   -0.7275   -0.2280 H   0  0  0  0  0  0  0  0  0  0  0  0
    3.4052   -1.0350   -1.9433 H   0  0  0  0  0  0  0  0  0  0  0  0
  1  2  1  0  0  0  0
  1 25  1  0  0  0  0
  1 26  1  0  0  0  0
  1 27  1  0  0  0  0
  2  3  1  0  0  0  0
  2 24  1  0  0  0  0
  2  4  1  0  0  0  0
  4  5  1  0  0  0  0
  4 28  1  0  0  0  0
  4 29  1  0  0  0  0
  5  6  1  0  0  0  0
  5 30  1  0  0  0  0
  5 31  1  0  0  0  0
  6 10  1  0  0  0  0
  6  7  2  0  0  0  0
  7  8  1  0  0  0  0
  7 24  1  0  0  0  0
  8  9  2  0  0  0  0
  8 32  1  0  0  0  0
  9 10  1  0  0  0  0
  9 11  1  0  0  0  0
 11 12  2  0  0  0  0
 11 13  1  0  0  0  0
 13 14  1  0  0  0  0
 13 33  1  0  0  0  0
 14 15  2  3  0  0  0
 15 16  1  0  0  0  0
 15 34  1  0  0  0  0
 16 21  2  0  0  0  0
 16 17  1  0  0  0  0
 17 18  2  0  0  0  0
 17 35  1  0  0  0  0
 18 19  1  0  0  0  0
 18 36  1  0  0  0  0
 19 20  2  0  0  0  0
 19 23  1  0  0  0  0
 20 21  1  0  0  0  0
 20 22  1  0  0  0  0
 21 37  1  0  0  0  0
 22 38  1  0  0  0  0
 23 39  1  0  0  0  0
 24 40  1  0  0  0  0
 24 41  1  0  0  0  0
M  END
$$$$
ZINC03868681
  -OEChem-08230709453D

 44 46  0     0  0  0  0  0  0999 V2000
    4.5794    0.2720    1.7622 C   0  0  0  0  0  0  0  0  0  0  0  0
    4.7702    1.3363    0.8279 O   0  0  0  0  0  0  0  0  0  0  0  0
    3.6677    1.7862    0.1710 C   0  0  0  0  0  0  0  0  0  0  0  0
    2.4344    1.2156    0.4215 C   0  0  0  0  0  0  0  0  0  0  0  0
    1.3000    1.6795   -0.2553 C   0  0  0  0  0  0  0  0  0  0  0  0
    1.4213    2.7165   -1.1880 C   0  0  0  0  0  0  0  0  0  0  0  0
    2.6570    3.2864   -1.4280 C   0  0  0  0  0  0  0  0  0  0  0  0
    3.7831    2.8218   -0.7530 C   0  0  0  0  0  0  0  0  0  0  0  0
    4.9980    3.3809   -0.9964 O   0  0  0  0  0  0  0  0  0  0  0  0
    2.7748    4.2983   -2.3291 O   0  0  0  0  0  0  0  0  0  0  0  0
    1.5791    4.7252   -2.9850 C   0  0  0  0  0  0  0  0  0  0  0  0
   -0.0126    1.0758    0.0080 C   0  0  0  0  0  0  0  0  0  0  0  0
   -1.1455    1.7781   -0.2458 C   0  0  0  0  0  0  0  0  0  0  0  0
   -2.5303    1.2835   -0.2096 C   0  0  0  0  0  0  0  0  0  0  0  0
   -2.8963    0.1536    0.0564 O   0  0  0  0  0  0  0  0  0  0  0  0
   -3.3129    2.3346   -0.5273 N   0  0  0  0  0  0  0  0  0  0  0  0
   -2.5520    3.4147   -0.7613 C   0  0  0  0  0  0  0  0  0  0  0  0
   -2.9850    4.5074   -1.0733 O   0  0  0  0  0  0  0  0  0  0  0  0
   -1.2473    3.1292   -0.6048 N   0  0  0  0  0  0  0  0  0  0  0  0
   -4.7752    2.3008   -0.6104 C   0  0  0  0  0  0  0  0  0  0  0  0
   -5.1903    1.9317   -2.0112 C   0  0  0  0  0  0  0  0  0  0  0  0
   -5.5954    2.9151   -2.8940 C   0  0  0  0  0  0  0  0  0  0  0  0
   -5.9707    2.5775   -4.1808 C   0  0  0  0  0  0  0  0  0  0  0  0
   -5.9524    1.2547   -4.5829 C   0  0  0  0  0  0  0  0  0  0  0  0
   -5.5532    0.2693   -3.7003 C   0  0  0  0  0  0  0  0  0  0  0  0
   -5.1715    0.6070   -2.4127 C   0  0  0  0  0  0  0  0  0  0  0  0
   -4.7807   -0.3556   -1.5491 F   0  0  0  0  0  0  0  0  0  0  0  0
    5.5358    0.0098    2.2145 H   0  0  0  0  0  0  0  0  0  0  0  0
    3.8851    0.5910    2.5396 H   0  0  0  0  0  0  0  0  0  0  0  0
    4.1717   -0.5967    1.2451 H   0  0  0  0  0  0  0  0  0  0  0  0
    2.3457    0.4125    1.1382 H   0  0  0  0  0  0  0  0  0  0  0  0
    0.5493    3.0741   -1.7154 H   0  0  0  0  0  0  0  0  0  0  0  0
    5.4920    2.9535   -1.7094 H   0  0  0  0  0  0  0  0  0  0  0  0
    0.8628    5.0764   -2.2422 H   0  0  0  0  0  0  0  0  0  0  0  0
    1.8131    5.5354   -3.6756 H   0  0  0  0  0  0  0  0  0  0  0  0
    1.1495    3.8896   -3.5375 H   0  0  0  0  0  0  0  0  0  0  0  0
   -0.0762    0.0713    0.3994 H   0  0  0  0  0  0  0  0  0  0  0  0
   -0.5088    3.7476   -0.7195 H   0  0  0  0  0  0  0  0  0  0  0  0
   -5.1619    1.5606    0.0901 H   0  0  0  0  0  0  0  0  0  0  0  0
   -5.1761    3.2828   -0.3594 H   0  0  0  0  0  0  0  0  0  0  0  0
   -5.6143    3.9482   -2.5797 H   0  0  0  0  0  0  0  0  0  0  0  0
   -6.2825    3.3471   -4.8714 H   0  0  0  0  0  0  0  0  0  0  0  0
   -6.2498    0.9917   -5.5872 H   0  0  0  0  0  0  0  0  0  0  0  0
   -5.5393   -0.7639   -4.0145 H   0  0  0  0  0  0  0  0  0  0  0  0
  1  2  1  0  0  0  0
  1 28  1  0  0  0  0
  1 29  1  0  0  0  0
  1 30  1  0  0  0  0
  2  3  1  0  0  0  0
  3  8  2  0  0  0  0
  3  4  1  0  0  0  0
  4  5  2  0  0  0  0
  4 31  1  0  0  0  0
  5  6  1  0  0  0  0
  5 12  1  0  0  0  0
  6  7  2  0  0  0  0
  6 32  1  0  0  0  0
  7  8  1  0  0  0  0
  7 10  1  0  0  0  0
  8  9  1  0  0  0  0
  9 33  1  0  0  0  0
 10 11  1  0  0  0  0
 11 34  1  0  0  0  0
 11 35  1  0  0  0  0
 11 36  1  0  0  0  0
 12 13  2  0  0  0  0
 12 37  1  0  0  0  0
 13 19  1  0  0  0  0
 13 14  1  0  0  0  0
 14 15  2  0  0  0  0
 14 16  1  0  0  0  0
 16 17  1  0  0  0  0
 16 20  1  0  0  0  0
 17 18  2  0  0  0  0
 17 19  1  0  0  0  0
 19 38  1  0  0  0  0
 20 21  1  0  0  0  0
 20 39  1  0  0  0  0
 20 40  1  0  0  0  0
 21 26  2  0  0  0  0
 21 22  1  0  0  0  0
 22 23  2  0  0  0  0
 22 41  1  0  0  0  0
 23 24  1  0  0  0  0
 23 42  1  0  0  0  0
 24 25  2  0  0  0  0
 24 43  1  0  0  0  0
 25 26  1  0  0  0  0
 25 44  1  0  0  0  0
 26 27  1  0  0  0  0
M  END
$$$$
ZINC03868707
  -OEChem-08230709453D

 43 45  0     0  0  0  0  0  0999 V2000
    4.4107   -5.8459    2.2967 C   0  0  0  0  0  0  0  0  0  0  0  0
    3.4158   -5.6633    1.1796 C   0  0  0  0  0  0  0  0  0  0  0  0
    2.2328   -6.3700    1.1875 C   0  0  0  0  0  0  0  0  0  0  0  0
    1.3129   -6.2055    0.1591 C   0  0  0  0  0  0  0  0  0  0  0  0
    1.5780   -5.3281   -0.8828 C   0  0  0  0  0  0  0  0  0  0  0  0
    2.7599   -4.6090   -0.8991 C   0  0  0  0  0  0  0  0  0  0  0  0
    3.6923   -4.7779    0.1350 C   0  0  0  0  0  0  0  0  0  0  0  0
    4.9554   -4.0201    0.1228 C   0  0  0  0  0  0  0  0  0  0  0  0
    4.9342   -2.7239    0.0473 N   0  0  0  0  0  0  0  0  0  0  0  0
    3.7140   -2.0385    0.1102 N   0  0  0  0  0  0  0  0  0  0  0  0
    3.6797   -0.7048   -0.0810 C   0  0  0  0  0  0  0  0  0  0  0  0
    4.6920   -0.1095   -0.3977 O   0  0  0  0  0  0  0  0  0  0  0  0
    2.4139    0.0333    0.0939 C   0  0  0  0  0  0  0  0  0  0  0  0
    1.2276   -0.6601    0.3471 C   0  0  0  0  0  0  0  0  0  0  0  0
    0.0477    0.0315    0.5090 C   0  0  0  0  0  0  0  0  0  0  0  0
    0.0309    1.4187    0.4213 C   0  0  0  0  0  0  0  0  0  0  0  0
    1.2102    2.1161    0.1718 C   0  0  0  0  0  0  0  0  0  0  0  0
    2.3981    1.4275    0.0072 C   0  0  0  0  0  0  0  0  0  0  0  0
    1.2118    3.4752    0.0916 O   0  0  0  0  0  0  0  0  0  0  0  0
   -0.0559    4.1094   -0.1091 C   0  0  0  0  0  0  0  0  0  0  0  0
   -1.0662    3.4811    0.8603 C   0  0  0  0  0  0  0  0  0  0  0  0
   -1.1472    2.0798    0.5760 O   0  0  0  0  0  0  0  0  0  0  0  0
    3.0186   -3.7465   -1.9157 O   0  0  0  0  0  0  0  0  0  0  0  0
    0.5753   -5.1540   -1.9943 C   0  0  0  0  0  0  0  0  0  0  0  0
    0.1492   -6.9061    0.1739 O   0  0  0  0  0  0  0  0  0  0  0  0
    4.2004   -5.1298    3.0911 H   0  0  0  0  0  0  0  0  0  0  0  0
    4.3326   -6.8591    2.6908 H   0  0  0  0  0  0  0  0  0  0  0  0
    5.4187   -5.6808    1.9161 H   0  0  0  0  0  0  0  0  0  0  0  0
    2.0200   -7.0542    1.9955 H   0  0  0  0  0  0  0  0  0  0  0  0
    5.8991   -4.5425    0.1765 H   0  0  0  0  0  0  0  0  0  0  0  0
    2.8939   -2.5237    0.2913 H   0  0  0  0  0  0  0  0  0  0  0  0
    1.2358   -1.7379    0.4155 H   0  0  0  0  0  0  0  0  0  0  0  0
   -0.8683   -0.5061    0.7045 H   0  0  0  0  0  0  0  0  0  0  0  0
    3.3129    1.9671   -0.1885 H   0  0  0  0  0  0  0  0  0  0  0  0
    0.0313    5.1771    0.0920 H   0  0  0  0  0  0  0  0  0  0  0  0
   -0.3859    3.9546   -1.1363 H   0  0  0  0  0  0  0  0  0  0  0  0
   -0.7323    3.6305    1.8871 H   0  0  0  0  0  0  0  0  0  0  0  0
   -2.0445    3.9410    0.7207 H   0  0  0  0  0  0  0  0  0  0  0  0
    3.4117   -4.1633   -2.6947 H   0  0  0  0  0  0  0  0  0  0  0  0
   -0.1168   -4.3522   -1.7370 H   0  0  0  0  0  0  0  0  0  0  0  0
    1.0966   -4.9016   -2.9177 H   0  0  0  0  0  0  0  0  0  0  0  0
    0.0209   -6.0823   -2.1321 H   0  0  0  0  0  0  0  0  0  0  0  0
   -0.5753   -6.4557    0.6293 H   0  0  0  0  0  0  0  0  0  0  0  0
  1  2  1  0  0  0  0
  1 26  1  0  0  0  0
  1 27  1  0  0  0  0
  1 28  1  0  0  0  0
  2  7  2  0  0  0  0
  2  3  1  0  0  0  0
  3  4  2  0  0  0  0
  3 29  1  0  0  0  0
  4  5  1  0  0  0  0
  4 25  1  0  0  0  0
  5  6  2  0  0  0  0
  5 24  1  0  0  0  0
  6  7  1  0  0  0  0
  6 23  1  0  0  0  0
  7  8  1  0  0  0  0
  8  9  2  0  0  0  0
  8 30  1  0  0  0  0
  9 10  1  0  0  0  0
 10 11  1  0  0  0  0
 10 31  1  0  0  0  0
 11 12  2  0  0  0  0
 11 13  1  0  0  0  0
 13 18  2  0  0  0  0
 13 14  1  0  0  0  0
 14 15  2  0  0  0  0
 14 32  1  0  0  0  0
 15 16  1  0  0  0  0
 15 33  1  0  0  0  0
 16 22  1  0  0  0  0
 16 17  2  0  0  0  0
 17 18  1  0  0  0  0
 17 19  1  0  0  0  0
 18 34  1  0  0  0  0
 19 20  1  0  0  0  0
 20 21  1  0  0  0  0
 20 35  1  0  0  0  0
 20 36  1  0  0  0  0
 21 22  1  0  0  0  0
 21 37  1  0  0  0  0
 21 38  1  0  0  0  0
 23 39  1  0  0  0  0
 24 40  1  0  0  0  0
 24 41  1  0  0  0  0
 24 42  1  0  0  0  0
 25 43  1  0  0  0  0
M  END
$$$$
ZINC03869013
  -OEChem-08230709453D

 43 45  0     0  0  0  0  0  0999 V2000
   10.6575   -2.1310   -0.1141 C   0  0  0  0  0  0  0  0  0  0  0  0
    9.1510   -2.0972   -0.0989 C   0  0  0  0  0  0  0  0  0  0  0  0
    8.4344   -3.2801   -0.0981 C   0  0  0  0  0  0  0  0  0  0  0  0
    7.0539   -3.2530   -0.0846 C   0  0  0  0  0  0  0  0  0  0  0  0
    6.3846   -2.0352   -0.0713 C   0  0  0  0  0  0  0  0  0  0  0  0
    7.1079   -0.8485   -0.0775 C   0  0  0  0  0  0  0  0  0  0  0  0
    8.4883   -0.8833   -0.0852 C   0  0  0  0  0  0  0  0  0  0  0  0
    4.6231   -1.9957   -0.0540 S   0  0  0  0  0  0  0  0  0  0  0  0
    4.2240   -0.2262   -0.0403 C   0  0  0  0  0  0  0  0  0  0  0  0
    2.7047   -0.0462   -0.0246 C   0  0  0  0  0  0  0  0  0  0  0  0
    2.3823    1.3829   -0.0135 N   0  0  0  0  0  0  0  0  0  0  0  0
    1.0686    1.7917    0.0015 C   0  0  0  0  0  0  0  0  0  0  0  0
   -0.0111    0.9658    0.0074 N   0  0  0  0  0  0  0  0  0  0  0  0
    0.0025   -0.0341    0.0056 H   0  0  0  0  0  0  0  0  0  0  0  0
   -1.1364    1.7791    0.0164 C   0  0  0  0  0  0  0  0  0  0  0  0
   -0.6721    3.0900    0.0243 C   0  0  0  0  0  0  0  0  0  0  0  0
    0.6611    3.0446    0.0116 N   0  0  0  0  0  0  0  0  0  0  0  0
   -1.5937    4.1246    0.0377 N   0  0  0  0  0  0  0  0  0  0  0  0
   -2.9124    3.8529    0.0482 C   0  0  0  0  0  0  0  0  0  0  0  0
   -3.7074    4.7729    0.0599 O   0  0  0  0  0  0  0  0  0  0  0  0
   -3.3716    2.5896    0.0465 N   0  0  0  0  0  0  0  0  0  0  0  0
   -2.5222    1.5416    0.0333 C   0  0  0  0  0  0  0  0  0  0  0  0
   -2.9515    0.4010    0.0315 O   0  0  0  0  0  0  0  0  0  0  0  0
   -4.8164    2.3471    0.0588 C   0  0  0  0  0  0  0  0  0  0  0  0
   -1.1330    5.5152    0.0400 C   0  0  0  0  0  0  0  0  0  0  0  0
   11.0105   -2.1336   -1.1454 H   0  0  0  0  0  0  0  0  0  0  0  0
   11.0459   -1.2521    0.4006 H   0  0  0  0  0  0  0  0  0  0  0  0
   11.0059   -3.0316    0.3914 H   0  0  0  0  0  0  0  0  0  0  0  0
    8.9552   -4.2262   -0.1084 H   0  0  0  0  0  0  0  0  0  0  0  0
    6.4950   -4.1772   -0.0840 H   0  0  0  0  0  0  0  0  0  0  0  0
    6.5910    0.0998   -0.0717 H   0  0  0  0  0  0  0  0  0  0  0  0
    9.0511    0.0384   -0.0855 H   0  0  0  0  0  0  0  0  0  0  0  0
    4.6366    0.2463   -0.9317 H   0  0  0  0  0  0  0  0  0  0  0  0
    4.6539    0.2364    0.8481 H   0  0  0  0  0  0  0  0  0  0  0  0
    2.2920   -0.5187    0.8668 H   0  0  0  0  0  0  0  0  0  0  0  0
    2.2748   -0.5088   -0.9130 H   0  0  0  0  0  0  0  0  0  0  0  0
    3.0950    2.0408   -0.0168 H   0  0  0  0  0  0  0  0  0  0  0  0
   -5.1842    2.2918   -0.9658 H   0  0  0  0  0  0  0  0  0  0  0  0
   -5.0227    1.4069    0.5701 H   0  0  0  0  0  0  0  0  0  0  0  0
   -5.3172    3.1623    0.5811 H   0  0  0  0  0  0  0  0  0  0  0  0
   -1.0282    5.8650   -0.9871 H   0  0  0  0  0  0  0  0  0  0  0  0
   -1.8587    6.1376    0.5635 H   0  0  0  0  0  0  0  0  0  0  0  0
   -0.1692    5.5778    0.5452 H   0  0  0  0  0  0  0  0  0  0  0  0
  1  2  1  0  0  0  0
  1 26  1  0  0  0  0
  1 27  1  0  0  0  0
  1 28  1  0  0  0  0
  2  7  2  0  0  0  0
  2  3  1  0  0  0  0
  3  4  2  0  0  0  0
  3 29  1  0  0  0  0
  4  5  1  0  0  0  0
  4 30  1  0  0  0  0
  5  6  2  0  0  0  0
  5  8  1  0  0  0  0
  6  7  1  0  0  0  0
  6 31  1  0  0  0  0
  7 32  1  0  0  0  0
  8  9  1  0  0  0  0
  9 10  1  0  0  0  0
  9 33  1  0  0  0  0
  9 34  1  0  0  0  0
 10 11  1  0  0  0  0
 10 35  1  0  0  0  0
 10 36  1  0  0  0  0
 11 12  1  0  0  0  0
 11 37  1  0  0  0  0
 12 17  2  0  0  0  0
 12 13  1  0  0  0  0
 13 14  1  0  0  0  0
 13 15  1  0  0  0  0
 15 22  1  0  0  0  0
 15 16  2  0  0  0  0
 16 17  1  0  0  0  0
 16 18  1  0  0  0  0
 18 19  1  0  0  0  0
 18 25  1  0  0  0  0
 19 20  2  0  0  0  0
 19 21  1  0  0  0  0
 21 22  1  0  0  0  0
 21 24  1  0  0  0  0
 22 23  2  0  0  0  0
 24 38  1  0  0  0  0
 24 39  1  0  0  0  0
 24 40  1  0  0  0  0
 25 41  1  0  0  0  0
 25 42  1  0  0  0  0
 25 43  1  0  0  0  0
M  END
$$$$
ZINC03869013
  -OEChem-08230709453D

 44 46  0     0  0  0  0  0  0999 V2000
   10.6575   -2.1310   -0.1141 C   0  0  0  0  0  0  0  0  0  0  0  0
    9.1510   -2.0972   -0.0989 C   0  0  0  0  0  0  0  0  0  0  0  0
    8.4344   -3.2801   -0.0981 C   0  0  0  0  0  0  0  0  0  0  0  0
    7.0539   -3.2530   -0.0846 C   0  0  0  0  0  0  0  0  0  0  0  0
    6.3846   -2.0352   -0.0713 C   0  0  0  0  0  0  0  0  0  0  0  0
    7.1079   -0.8485   -0.0775 C   0  0  0  0  0  0  0  0  0  0  0  0
    8.4883   -0.8833   -0.0852 C   0  0  0  0  0  0  0  0  0  0  0  0
    4.6231   -1.9957   -0.0540 S   0  0  0  0  0  0  0  0  0  0  0  0
    4.2240   -0.2262   -0.0403 C   0  0  0  0  0  0  0  0  0  0  0  0
    2.7047   -0.0462   -0.0246 C   0  0  0  0  0  0  0  0  0  0  0  0
    2.3823    1.3829   -0.0135 N   0  0  0  0  0  0  0  0  0  0  0  0
    1.0686    1.7917    0.0015 C   0  0  0  0  0  0  0  0  0  0  0  0
   -0.0111    0.9658    0.0074 N   0  0  0  0  0  0  0  0  0  0  0  0
    0.0025   -0.0341    0.0056 H   0  0  0  0  0  0  0  0  0  0  0  0
   -1.1364    1.7791    0.0164 C   0  0  0  0  0  0  0  0  0  0  0  0
   -0.6721    3.0900    0.0243 C   0  0  0  0  0  0  0  0  0  0  0  0
   -1.5937    4.1246    0.0377 N   0  0  0  0  0  0  0  0  0  0  0  0
   -2.9124    3.8529    0.0482 C   0  0  0  0  0  0  0  0  0  0  0  0
   -3.7074    4.7729    0.0599 O   0  0  0  0  0  0  0  0  0  0  0  0
   -3.3716    2.5896    0.0465 N   0  0  0  0  0  0  0  0  0  0  0  0
   -2.5222    1.5416    0.0333 C   0  0  0  0  0  0  0  0  0  0  0  0
   -2.9515    0.4010    0.0315 O   0  0  0  0  0  0  0  0  0  0  0  0
   -4.8164    2.3471    0.0588 C   0  0  0  0  0  0  0  0  0  0  0  0
   -1.1330    5.5152    0.0400 C   0  0  0  0  0  0  0  0  0  0  0  0
   11.0105   -2.1336   -1.1454 H   0  0  0  0  0  0  0  0  0  0  0  0
   11.0459   -1.2521    0.4006 H   0  0  0  0  0  0  0  0  0  0  0  0
   11.0059   -3.0316    0.3914 H   0  0  0  0  0  0  0  0  0  0  0  0
    8.9552   -4.2262   -0.1084 H   0  0  0  0  0  0  0  0  0  0  0  0
    6.4950   -4.1772   -0.0840 H   0  0  0  0  0  0  0  0  0  0  0  0
    6.5910    0.0998   -0.0717 H   0  0  0  0  0  0  0  0  0  0  0  0
    9.0511    0.0384   -0.0855 H   0  0  0  0  0  0  0  0  0  0  0  0
    4.6366    0.2463   -0.9317 H   0  0  0  0  0  0  0  0  0  0  0  0
    4.6539    0.2364    0.8481 H   0  0  0  0  0  0  0  0  0  0  0  0
    2.2920   -0.5187    0.8668 H   0  0  0  0  0  0  0  0  0  0  0  0
    2.2748   -0.5088   -0.9130 H   0  0  0  0  0  0  0  0  0  0  0  0
    3.0950    2.0408   -0.0168 H   0  0  0  0  0  0  0  0  0  0  0  0
   -5.1842    2.2918   -0.9658 H   0  0  0  0  0  0  0  0  0  0  0  0
   -5.0227    1.4069    0.5701 H   0  0  0  0  0  0  0  0  0  0  0  0
   -5.3172    3.1623    0.5811 H   0  0  0  0  0  0  0  0  0  0  0  0
   -1.0282    5.8650   -0.9871 H   0  0  0  0  0  0  0  0  0  0  0  0
   -1.8587    6.1376    0.5635 H   0  0  0  0  0  0  0  0  0  0  0  0
   -0.1692    5.5778    0.5452 H   0  0  0  0  0  0  0  0  0  0  0  0
    0.6630    3.0471    0.0116 N   0  3  0  0  0  0  0  0  0  0  0  0
    1.2804    3.8675    0.0099 H   0  0  0  0  0  0  0  0  0  0  0  0
  1  2  1  0  0  0  0
  1 25  1  0  0  0  0
  1 26  1  0  0  0  0
  1 27  1  0  0  0  0
  2  7  2  0  0  0  0
  2  3  1  0  0  0  0
  3  4  2  0  0  0  0
  3 28  1  0  0  0  0
  4  5  1  0  0  0  0
  4 29  1  0  0  0  0
  5  6  2  0  0  0  0
  5  8  1  0  0  0  0
  6  7  1  0  0  0  0
  6 30  1  0  0  0  0
  7 31  1  0  0  0  0
  8  9  1  0  0  0  0
  9 10  1  0  0  0  0
  9 32  1  0  0  0  0
  9 33  1  0  0  0  0
 10 11  1  0  0  0  0
 10 34  1  0  0  0  0
 10 35  1  0  0  0  0
 11 12  1  0  0  0  0
 11 36  1  0  0  0  0
 12 13  1  0  0  0  0
 12 43  2  0  0  0  0
 13 14  1  0  0  0  0
 13 15  1  0  0  0  0
 15 21  1  0  0  0  0
 15 16  2  0  0  0  0
 16 17  1  0  0  0  0
 16 43  1  0  0  0  0
 17 18  1  0  0  0  0
 17 24  1  0  0  0  0
 18 19  2  0  0  0  0
 18 20  1  0  0  0  0
 20 21  1  0  0  0  0
 20 23  1  0  0  0  0
 21 22  2  0  0  0  0
 23 37  1  0  0  0  0
 23 38  1  0  0  0  0
 23 39  1  0  0  0  0
 24 40  1  0  0  0  0
 24 41  1  0  0  0  0
 24 42  1  0  0  0  0
 43 44  1  0  0  0  0
M  CHG  1  43   1
M  END
$$$$
ZINC03885471
  -OEChem-08230709453D

 44 46  0     0  0  0  0  0  0999 V2000
    1.4506    4.3305   -2.8512 C   0  0  0  0  0  0  0  0  0  0  0  0
    0.8622    4.9750   -3.9216 C   0  0  0  0  0  0  0  0  0  0  0  0
    1.6417    5.6893   -4.8144 C   0  0  0  0  0  0  0  0  0  0  0  0
    3.0115    5.7654   -4.6339 C   0  0  0  0  0  0  0  0  0  0  0  0
    3.6046    5.1280   -3.5618 C   0  0  0  0  0  0  0  0  0  0  0  0
    2.8247    4.4100   -2.6643 C   0  0  0  0  0  0  0  0  0  0  0  0
    3.4220    3.7641   -1.5786 N   0  0  0  0  0  0  0  0  0  0  0  0
    2.7656    3.9095   -0.0653 S   0  0  0  0  0  0  0  0  0  0  0  0
    2.4927    5.2906    0.1280 O   0  0  0  0  0  0  0  0  0  0  0  0
    3.6013    3.1680    0.8128 O   0  0  0  0  0  0  0  0  0  0  0  0
    1.2075    3.0872   -0.0919 C   0  0  0  0  0  0  0  0  0  0  0  0
    0.0440    3.8057    0.1015 C   0  0  0  0  0  0  0  0  0  0  0  0
   -1.1837    3.1577    0.0810 C   0  0  0  0  0  0  0  0  0  0  0  0
   -1.2421    1.7877   -0.1394 C   0  0  0  0  0  0  0  0  0  0  0  0
   -0.0786    1.0685   -0.3276 C   0  0  0  0  0  0  0  0  0  0  0  0
    1.1495    1.7168   -0.3070 C   0  0  0  0  0  0  0  0  0  0  0  0
    2.3289    0.9883   -0.5026 N   0  0  0  0  0  0  0  0  0  0  0  0
    2.3235    0.3191   -1.8097 C   0  0  0  0  0  0  0  0  0  0  0  0
    3.6813   -0.3447   -2.0501 C   0  0  0  0  0  0  0  0  0  0  0  0
    3.9514   -1.3607   -0.9369 C   0  0  0  0  0  0  0  0  0  0  0  0
    3.9037   -0.6471    0.4171 C   0  0  0  0  0  0  0  0  0  0  0  0
    2.5395    0.0255    0.5860 C   0  0  0  0  0  0  0  0  0  0  0  0
   -2.3631    3.8860    0.2770 N   0  0  0  0  0  0  0  0  0  0  0  0
    0.8996    6.4917   -6.1632 Cl  0  0  0  0  0  0  0  0  0  0  0  0
    0.8424    3.7689   -2.1576 H   0  0  0  0  0  0  0  0  0  0  0  0
   -0.2068    4.9178   -4.0645 H   0  0  0  0  0  0  0  0  0  0  0  0
    3.6174    6.3241   -5.3319 H   0  0  0  0  0  0  0  0  0  0  0  0
    4.6737    5.1881   -3.4212 H   0  0  0  0  0  0  0  0  0  0  0  0
    4.2211    3.2306   -1.7115 H   0  0  0  0  0  0  0  0  0  0  0  0
    0.0892    4.8718    0.2684 H   0  0  0  0  0  0  0  0  0  0  0  0
   -2.1973    1.2843   -0.1598 H   0  0  0  0  0  0  0  0  0  0  0  0
   -0.1238    0.0026   -0.4952 H   0  0  0  0  0  0  0  0  0  0  0  0
    1.5405   -0.4390   -1.8263 H   0  0  0  0  0  0  0  0  0  0  0  0
    2.1345    1.0534   -2.5929 H   0  0  0  0  0  0  0  0  0  0  0  0
    4.4632    0.4147   -2.0474 H   0  0  0  0  0  0  0  0  0  0  0  0
    3.6716   -0.8545   -3.0135 H   0  0  0  0  0  0  0  0  0  0  0  0
    4.9366   -1.8046   -1.0801 H   0  0  0  0  0  0  0  0  0  0  0  0
    3.1915   -2.1416   -0.9641 H   0  0  0  0  0  0  0  0  0  0  0  0
    4.6891    0.1075    0.4586 H   0  0  0  0  0  0  0  0  0  0  0  0
    4.0530   -1.3730    1.2164 H   0  0  0  0  0  0  0  0  0  0  0  0
    2.5074    0.5464    1.5429 H   0  0  0  0  0  0  0  0  0  0  0  0
    1.7556   -0.7314    0.5580 H   0  0  0  0  0  0  0  0  0  0  0  0
   -2.3225    4.8435    0.4273 H   0  0  0  0  0  0  0  0  0  0  0  0
   -3.2208    3.4333    0.2627 H   0  0  0  0  0  0  0  0  0  0  0  0
  1  6  2  0  0  0  0
  1  2  1  0  0  0  0
  1 25  1  0  0  0  0
  2  3  2  0  0  0  0
  2 26  1  0  0  0  0
  3  4  1  0  0  0  0
  3 24  1  0  0  0  0
  4  5  2  0  0  0  0
  4 27  1  0  0  0  0
  5  6  1  0  0  0  0
  5 28  1  0  0  0  0
  6  7  1  0  0  0  0
  7  8  1  0  0  0  0
  7 29  1  0  0  0  0
  8  9  2  0  0  0  0
  8 10  2  0  0  0  0
  8 11  1  0  0  0  0
 11 16  2  0  0  0  0
 11 12  1  0  0  0  0
 12 13  2  0  0  0  0
 12 30  1  0  0  0  0
 13 14  1  0  0  0  0
 13 23  1  0  0  0  0
 14 15  2  0  0  0  0
 14 31  1  0  0  0  0
 15 16  1  0  0  0  0
 15 32  1  0  0  0  0
 16 17  1  0  0  0  0
 17 22  1  0  0  0  0
 17 18  1  0  0  0  0
 18 19  1  0  0  0  0
 18 33  1  0  0  0  0
 18 34  1  0  0  0  0
 19 20  1  0  0  0  0
 19 35  1  0  0  0  0
 19 36  1  0  0  0  0
 20 21  1  0  0  0  0
 20 37  1  0  0  0  0
 20 38  1  0  0  0  0
 21 22  1  0  0  0  0
 21 39  1  0  0  0  0
 21 40  1  0  0  0  0
 22 41  1  0  0  0  0
 22 42  1  0  0  0  0
 23 43  1  0  0  0  0
 23 44  1  0  0  0  0
M  END
$$$$
ZINC03885471
  -OEChem-08230709453D

 46 48  0     0  0  0  0  0  0999 V2000
    1.4506    4.3305   -2.8512 C   0  0  0  0  0  0  0  0  0  0  0  0
    0.8622    4.9750   -3.9216 C   0  0  0  0  0  0  0  0  0  0  0  0
    1.6417    5.6893   -4.8144 C   0  0  0  0  0  0  0  0  0  0  0  0
    3.0115    5.7654   -4.6339 C   0  0  0  0  0  0  0  0  0  0  0  0
    3.6046    5.1280   -3.5618 C   0  0  0  0  0  0  0  0  0  0  0  0
    2.8247    4.4100   -2.6643 C   0  0  0  0  0  0  0  0  0  0  0  0
    3.4220    3.7641   -1.5786 N   0  0  0  0  0  0  0  0  0  0  0  0
    2.7656    3.9095   -0.0653 S   0  0  0  0  0  0  0  0  0  0  0  0
    2.4927    5.2906    0.1280 O   0  0  0  0  0  0  0  0  0  0  0  0
    3.6013    3.1680    0.8128 O   0  0  0  0  0  0  0  0  0  0  0  0
    1.2075    3.0872   -0.0919 C   0  0  0  0  0  0  0  0  0  0  0  0
    0.0440    3.8057    0.1015 C   0  0  0  0  0  0  0  0  0  0  0  0
   -1.1837    3.1577    0.0810 C   0  0  0  0  0  0  0  0  0  0  0  0
   -1.2421    1.7877   -0.1394 C   0  0  0  0  0  0  0  0  0  0  0  0
   -0.0786    1.0685   -0.3276 C   0  0  0  0  0  0  0  0  0  0  0  0
    1.1495    1.7168   -0.3070 C   0  0  0  0  0  0  0  0  0  0  0  0
    2.3235    0.3191   -1.8097 C   0  0  0  0  0  0  0  0  0  0  0  0
    3.6813   -0.3447   -2.0501 C   0  0  0  0  0  0  0  0  0  0  0  0
    3.9514   -1.3607   -0.9369 C   0  0  0  0  0  0  0  0  0  0  0  0
    3.9037   -0.6471    0.4171 C   0  0  0  0  0  0  0  0  0  0  0  0
    2.5395    0.0255    0.5860 C   0  0  0  0  0  0  0  0  0  0  0  0
    0.8996    6.4917   -6.1632 Cl  0  0  0  0  0  0  0  0  0  0  0  0
    0.8424    3.7689   -2.1576 H   0  0  0  0  0  0  0  0  0  0  0  0
   -0.2068    4.9178   -4.0645 H   0  0  0  0  0  0  0  0  0  0  0  0
    3.6174    6.3241   -5.3319 H   0  0  0  0  0  0  0  0  0  0  0  0
    4.6737    5.1881   -3.4212 H   0  0  0  0  0  0  0  0  0  0  0  0
    4.2211    3.2306   -1.7115 H   0  0  0  0  0  0  0  0  0  0  0  0
    0.0892    4.8718    0.2684 H   0  0  0  0  0  0  0  0  0  0  0  0
   -2.1973    1.2843   -0.1598 H   0  0  0  0  0  0  0  0  0  0  0  0
   -0.1238    0.0026   -0.4952 H   0  0  0  0  0  0  0  0  0  0  0  0
    1.5405   -0.4390   -1.8263 H   0  0  0  0  0  0  0  0  0  0  0  0
    2.1345    1.0534   -2.5929 H   0  0  0  0  0  0  0  0  0  0  0  0
    4.4632    0.4147   -2.0474 H   0  0  0  0  0  0  0  0  0  0  0  0
    3.6716   -0.8545   -3.0135 H   0  0  0  0  0  0  0  0  0  0  0  0
    4.9366   -1.8046   -1.0801 H   0  0  0  0  0  0  0  0  0  0  0  0
    3.1915   -2.1416   -0.9641 H   0  0  0  0  0  0  0  0  0  0  0  0
    4.6891    0.1075    0.4586 H   0  0  0  0  0  0  0  0  0  0  0  0
    4.0530   -1.3730    1.2164 H   0  0  0  0  0  0  0  0  0  0  0  0
    2.5074    0.5464    1.5429 H   0  0  0  0  0  0  0  0  0  0  0  0
    1.7556   -0.7314    0.5580 H   0  0  0  0  0  0  0  0  0  0  0  0
   -2.3225    4.8435    0.4273 H   0  0  0  0  0  0  0  0  0  0  0  0
   -3.2208    3.4333    0.2627 H   0  0  0  0  0  0  0  0  0  0  0  0
    2.3508    1.0082   -0.5021 N   0  3  0  0  0  0  0  0  0  0  0  0
    3.1342    1.6717   -0.4915 H   0  0  0  0  0  0  0  0  0  0  0  0
   -2.3859    3.9326    0.0027 N   0  3  0  0  0  0  0  0  0  0  0  0
   -2.5287    4.1397   -0.9927 H   0  0  0  0  0  0  0  0  0  0  0  0
  1  6  2  0  0  0  0
  1  2  1  0  0  0  0
  1 23  1  0  0  0  0
  2  3  2  0  0  0  0
  2 24  1  0  0  0  0
  3  4  1  0  0  0  0
  3 22  1  0  0  0  0
  4  5  2  0  0  0  0
  4 25  1  0  0  0  0
  5  6  1  0  0  0  0
  5 26  1  0  0  0  0
  6  7  1  0  0  0  0
  7  8  1  0  0  0  0
  7 27  1  0  0  0  0
  8  9  2  0  0  0  0
  8 10  2  0  0  0  0
  8 11  1  0  0  0  0
 11 16  2  0  0  0  0
 11 12  1  0  0  0  0
 12 13  2  0  0  0  0
 12 28  1  0  0  0  0
 13 14  1  0  0  0  0
 13 45  1  0  0  0  0
 14 15  2  0  0  0  0
 14 29  1  0  0  0  0
 15 16  1  0  0  0  0
 15 30  1  0  0  0  0
 16 43  1  0  0  0  0
 17 18  1  0  0  0  0
 17 31  1  0  0  0  0
 17 32  1  0  0  0  0
 17 43  1  0  0  0  0
 18 19  1  0  0  0  0
 18 33  1  0  0  0  0
 18 34  1  0  0  0  0
 19 20  1  0  0  0  0
 19 35  1  0  0  0  0
 19 36  1  0  0  0  0
 20 21  1  0  0  0  0
 20 37  1  0  0  0  0
 20 38  1  0  0  0  0
 21 39  1  0  0  0  0
 21 40  1  0  0  0  0
 21 43  1  0  0  0  0
 41 45  1  0  0  0  0
 42 45  1  0  0  0  0
 43 44  1  0  0  0  0
 45 46  1  0  0  0  0
M  CHG  2  43   1  45   1
M  END
$$$$
ZINC03885471
  -OEChem-08230709453D

 45 47  0     0  0  0  0  0  0999 V2000
    1.4506    4.3305   -2.8512 C   0  0  0  0  0  0  0  0  0  0  0  0
    0.8622    4.9750   -3.9216 C   0  0  0  0  0  0  0  0  0  0  0  0
    1.6417    5.6893   -4.8144 C   0  0  0  0  0  0  0  0  0  0  0  0
    3.0115    5.7654   -4.6339 C   0  0  0  0  0  0  0  0  0  0  0  0
    3.6046    5.1280   -3.5618 C   0  0  0  0  0  0  0  0  0  0  0  0
    2.8247    4.4100   -2.6643 C   0  0  0  0  0  0  0  0  0  0  0  0
    3.4220    3.7641   -1.5786 N   0  0  0  0  0  0  0  0  0  0  0  0
    2.7656    3.9095   -0.0653 S   0  0  0  0  0  0  0  0  0  0  0  0
    2.4927    5.2906    0.1280 O   0  0  0  0  0  0  0  0  0  0  0  0
    3.6013    3.1680    0.8128 O   0  0  0  0  0  0  0  0  0  0  0  0
    1.2075    3.0872   -0.0919 C   0  0  0  0  0  0  0  0  0  0  0  0
    0.0440    3.8057    0.1015 C   0  0  0  0  0  0  0  0  0  0  0  0
   -1.1837    3.1577    0.0810 C   0  0  0  0  0  0  0  0  0  0  0  0
   -1.2421    1.7877   -0.1394 C   0  0  0  0  0  0  0  0  0  0  0  0
   -0.0786    1.0685   -0.3276 C   0  0  0  0  0  0  0  0  0  0  0  0
    1.1495    1.7168   -0.3070 C   0  0  0  0  0  0  0  0  0  0  0  0
    2.3289    0.9883   -0.5026 N   0  0  0  0  0  0  0  0  0  0  0  0
    2.3235    0.3191   -1.8097 C   0  0  0  0  0  0  0  0  0  0  0  0
    3.6813   -0.3447   -2.0501 C   0  0  0  0  0  0  0  0  0  0  0  0
    3.9514   -1.3607   -0.9369 C   0  0  0  0  0  0  0  0  0  0  0  0
    3.9037   -0.6471    0.4171 C   0  0  0  0  0  0  0  0  0  0  0  0
    2.5395    0.0255    0.5860 C   0  0  0  0  0  0  0  0  0  0  0  0
    0.8996    6.4917   -6.1632 Cl  0  0  0  0  0  0  0  0  0  0  0  0
    0.8424    3.7689   -2.1576 H   0  0  0  0  0  0  0  0  0  0  0  0
   -0.2068    4.9178   -4.0645 H   0  0  0  0  0  0  0  0  0  0  0  0
    3.6174    6.3241   -5.3319 H   0  0  0  0  0  0  0  0  0  0  0  0
    4.6737    5.1881   -3.4212 H   0  0  0  0  0  0  0  0  0  0  0  0
    4.2211    3.2306   -1.7115 H   0  0  0  0  0  0  0  0  0  0  0  0
    0.0892    4.8718    0.2684 H   0  0  0  0  0  0  0  0  0  0  0  0
   -2.1973    1.2843   -0.1598 H   0  0  0  0  0  0  0  0  0  0  0  0
   -0.1238    0.0026   -0.4952 H   0  0  0  0  0  0  0  0  0  0  0  0
    1.5405   -0.4390   -1.8263 H   0  0  0  0  0  0  0  0  0  0  0  0
    2.1345    1.0534   -2.5929 H   0  0  0  0  0  0  0  0  0  0  0  0
    4.4632    0.4147   -2.0474 H   0  0  0  0  0  0  0  0  0  0  0  0
    3.6716   -0.8545   -3.0135 H   0  0  0  0  0  0  0  0  0  0  0  0
    4.9366   -1.8046   -1.0801 H   0  0  0  0  0  0  0  0  0  0  0  0
    3.1915   -2.1416   -0.9641 H   0  0  0  0  0  0  0  0  0  0  0  0
    4.6891    0.1075    0.4586 H   0  0  0  0  0  0  0  0  0  0  0  0
    4.0530   -1.3730    1.2164 H   0  0  0  0  0  0  0  0  0  0  0  0
    2.5074    0.5464    1.5429 H   0  0  0  0  0  0  0  0  0  0  0  0
    1.7556   -0.7314    0.5580 H   0  0  0  0  0  0  0  0  0  0  0  0
   -2.3225    4.8435    0.4273 H   0  0  0  0  0  0  0  0  0  0  0  0
   -3.2208    3.4333    0.2627 H   0  0  0  0  0  0  0  0  0  0  0  0
   -2.3859    3.9326    0.0027 N   0  3  0  0  0  0  0  0  0  0  0  0
   -2.5287    4.1397   -0.9927 H   0  0  0  0  0  0  0  0  0  0  0  0
  1  6  2  0  0  0  0
  1  2  1  0  0  0  0
  1 24  1  0  0  0  0
  2  3  2  0  0  0  0
  2 25  1  0  0  0  0
  3  4  1  0  0  0  0
  3 23  1  0  0  0  0
  4  5  2  0  0  0  0
  4 26  1  0  0  0  0
  5  6  1  0  0  0  0
  5 27  1  0  0  0  0
  6  7  1  0  0  0  0
  7  8  1  0  0  0  0
  7 28  1  0  0  0  0
  8  9  2  0  0  0  0
  8 10  2  0  0  0  0
  8 11  1  0  0  0  0
 11 16  2  0  0  0  0
 11 12  1  0  0  0  0
 12 13  2  0  0  0  0
 12 29  1  0  0  0  0
 13 14  1  0  0  0  0
 13 44  1  0  0  0  0
 14 15  2  0  0  0  0
 14 30  1  0  0  0  0
 15 16  1  0  0  0  0
 15 31  1  0  0  0  0
 16 17  1  0  0  0  0
 17 22  1  0  0  0  0
 17 18  1  0  0  0  0
 18 19  1  0  0  0  0
 18 32  1  0  0  0  0
 18 33  1  0  0  0  0
 19 20  1  0  0  0  0
 19 34  1  0  0  0  0
 19 35  1  0  0  0  0
 20 21  1  0  0  0  0
 20 36  1  0  0  0  0
 20 37  1  0  0  0  0
 21 22  1  0  0  0  0
 21 38  1  0  0  0  0
 21 39  1  0  0  0  0
 22 40  1  0  0  0  0
 22 41  1  0  0  0  0
 42 44  1  0  0  0  0
 43 44  1  0  0  0  0
 44 45  1  0  0  0  0
M  CHG  1  44   1
M  END
$$$$
ZINC03885471
  -OEChem-08230709453D

 45 47  0     0  0  0  0  0  0999 V2000
    1.4506    4.3305   -2.8512 C   0  0  0  0  0  0  0  0  0  0  0  0
    0.8622    4.9750   -3.9216 C   0  0  0  0  0  0  0  0  0  0  0  0
    1.6417    5.6893   -4.8144 C   0  0  0  0  0  0  0  0  0  0  0  0
    3.0115    5.7654   -4.6339 C   0  0  0  0  0  0  0  0  0  0  0  0
    3.6046    5.1280   -3.5618 C   0  0  0  0  0  0  0  0  0  0  0  0
    2.8247    4.4100   -2.6643 C   0  0  0  0  0  0  0  0  0  0  0  0
    3.4220    3.7641   -1.5786 N   0  0  0  0  0  0  0  0  0  0  0  0
    2.7656    3.9095   -0.0653 S   0  0  0  0  0  0  0  0  0  0  0  0
    2.4927    5.2906    0.1280 O   0  0  0  0  0  0  0  0  0  0  0  0
    3.6013    3.1680    0.8128 O   0  0  0  0  0  0  0  0  0  0  0  0
    1.2075    3.0872   -0.0919 C   0  0  0  0  0  0  0  0  0  0  0  0
    0.0440    3.8057    0.1015 C   0  0  0  0  0  0  0  0  0  0  0  0
   -1.1837    3.1577    0.0810 C   0  0  0  0  0  0  0  0  0  0  0  0
   -1.2421    1.7877   -0.1394 C   0  0  0  0  0  0  0  0  0  0  0  0
   -0.0786    1.0685   -0.3276 C   0  0  0  0  0  0  0  0  0  0  0  0
    1.1495    1.7168   -0.3070 C   0  0  0  0  0  0  0  0  0  0  0  0
    2.3235    0.3191   -1.8097 C   0  0  0  0  0  0  0  0  0  0  0  0
    3.6813   -0.3447   -2.0501 C   0  0  0  0  0  0  0  0  0  0  0  0
    3.9514   -1.3607   -0.9369 C   0  0  0  0  0  0  0  0  0  0  0  0
    3.9037   -0.6471    0.4171 C   0  0  0  0  0  0  0  0  0  0  0  0
    2.5395    0.0255    0.5860 C   0  0  0  0  0  0  0  0  0  0  0  0
   -2.3631    3.8860    0.2770 N   0  0  0  0  0  0  0  0  0  0  0  0
    0.8996    6.4917   -6.1632 Cl  0  0  0  0  0  0  0  0  0  0  0  0
    0.8424    3.7689   -2.1576 H   0  0  0  0  0  0  0  0  0  0  0  0
   -0.2068    4.9178   -4.0645 H   0  0  0  0  0  0  0  0  0  0  0  0
    3.6174    6.3241   -5.3319 H   0  0  0  0  0  0  0  0  0  0  0  0
    4.6737    5.1881   -3.4212 H   0  0  0  0  0  0  0  0  0  0  0  0
    4.2211    3.2306   -1.7115 H   0  0  0  0  0  0  0  0  0  0  0  0
    0.0892    4.8718    0.2684 H   0  0  0  0  0  0  0  0  0  0  0  0
   -2.1973    1.2843   -0.1598 H   0  0  0  0  0  0  0  0  0  0  0  0
   -0.1238    0.0026   -0.4952 H   0  0  0  0  0  0  0  0  0  0  0  0
    1.5405   -0.4390   -1.8263 H   0  0  0  0  0  0  0  0  0  0  0  0
    2.1345    1.0534   -2.5929 H   0  0  0  0  0  0  0  0  0  0  0  0
    4.4632    0.4147   -2.0474 H   0  0  0  0  0  0  0  0  0  0  0  0
    3.6716   -0.8545   -3.0135 H   0  0  0  0  0  0  0  0  0  0  0  0
    4.9366   -1.8046   -1.0801 H   0  0  0  0  0  0  0  0  0  0  0  0
    3.1915   -2.1416   -0.9641 H   0  0  0  0  0  0  0  0  0  0  0  0
    4.6891    0.1075    0.4586 H   0  0  0  0  0  0  0  0  0  0  0  0
    4.0530   -1.3730    1.2164 H   0  0  0  0  0  0  0  0  0  0  0  0
    2.5074    0.5464    1.5429 H   0  0  0  0  0  0  0  0  0  0  0  0
    1.7556   -0.7314    0.5580 H   0  0  0  0  0  0  0  0  0  0  0  0
   -2.3225    4.8435    0.4273 H   0  0  0  0  0  0  0  0  0  0  0  0
   -3.2208    3.4333    0.2627 H   0  0  0  0  0  0  0  0  0  0  0  0
    2.3508    1.0082   -0.5021 N   0  3  0  0  0  0  0  0  0  0  0  0
    3.1342    1.6717   -0.4915 H   0  0  0  0  0  0  0  0  0  0  0  0
  1  6  2  0  0  0  0
  1  2  1  0  0  0  0
  1 24  1  0  0  0  0
  2  3  2  0  0  0  0
  2 25  1  0  0  0  0
  3  4  1  0  0  0  0
  3 23  1  0  0  0  0
  4  5  2  0  0  0  0
  4 26  1  0  0  0  0
  5  6  1  0  0  0  0
  5 27  1  0  0  0  0
  6  7  1  0  0  0  0
  7  8  1  0  0  0  0
  7 28  1  0  0  0  0
  8  9  2  0  0  0  0
  8 10  2  0  0  0  0
  8 11  1  0  0  0  0
 11 16  2  0  0  0  0
 11 12  1  0  0  0  0
 12 13  2  0  0  0  0
 12 29  1  0  0  0  0
 13 14  1  0  0  0  0
 13 22  1  0  0  0  0
 14 15  2  0  0  0  0
 14 30  1  0  0  0  0
 15 16  1  0  0  0  0
 15 31  1  0  0  0  0
 16 44  1  0  0  0  0
 17 18  1  0  0  0  0
 17 32  1  0  0  0  0
 17 33  1  0  0  0  0
 17 44  1  0  0  0  0
 18 19  1  0  0  0  0
 18 34  1  0  0  0  0
 18 35  1  0  0  0  0
 19 20  1  0  0  0  0
 19 36  1  0  0  0  0
 19 37  1  0  0  0  0
 20 21  1  0  0  0  0
 20 38  1  0  0  0  0
 20 39  1  0  0  0  0
 21 40  1  0  0  0  0
 21 41  1  0  0  0  0
 21 44  1  0  0  0  0
 22 42  1  0  0  0  0
 22 43  1  0  0  0  0
 44 45  1  0  0  0  0
M  CHG  1  44   1
M  END
$$$$
ZINC03885475
  -OEChem-08230709453D

 47 49  0     0  0  0  0  0  0999 V2000
   -4.6051    1.0073   -2.6356 C   0  0  0  0  0  0  0  0  0  0  0  0
   -4.0812    0.8811   -3.9092 C   0  0  0  0  0  0  0  0  0  0  0  0
   -3.2247    1.8459   -4.4068 C   0  0  0  0  0  0  0  0  0  0  0  0
   -2.8891    2.9399   -3.6317 C   0  0  0  0  0  0  0  0  0  0  0  0
   -3.4142    3.0693   -2.3513 C   0  0  0  0  0  0  0  0  0  0  0  0
   -4.2699    2.0953   -1.8535 C   0  0  0  0  0  0  0  0  0  0  0  0
   -3.0773    4.1741   -1.5645 N   0  0  0  0  0  0  0  0  0  0  0  0
   -2.8923    3.9997    0.0718 S   0  0  0  0  0  0  0  0  0  0  0  0
   -4.0809    3.3864    0.5518 O   0  0  0  0  0  0  0  0  0  0  0  0
   -2.4278    5.2494    0.5635 O   0  0  0  0  0  0  0  0  0  0  0  0
   -1.5892    2.8418    0.3283 C   0  0  0  0  0  0  0  0  0  0  0  0
   -1.8742    1.4919    0.4174 C   0  0  0  0  0  0  0  0  0  0  0  0
   -0.8568    0.5785    0.6234 C   0  0  0  0  0  0  0  0  0  0  0  0
    0.4551    1.0145    0.7308 C   0  0  0  0  0  0  0  0  0  0  0  0
    0.7432    2.3758    0.6357 C   0  0  0  0  0  0  0  0  0  0  0  0
   -0.2839    3.2854    0.4343 C   0  0  0  0  0  0  0  0  0  0  0  0
    2.0657    2.8228    0.7437 N   0  0  0  0  0  0  0  0  0  0  0  0
    1.4876    0.0908    0.9337 N   0  0  0  0  0  0  0  0  0  0  0  0
    1.5877   -0.8510   -0.2036 C   0  0  0  0  0  0  0  0  0  0  0  0
    2.4907   -2.0195    0.0840 C   0  0  0  0  0  0  0  0  0  0  0  0
    1.6292   -3.1856    0.6124 C   0  0  0  0  0  0  0  0  0  0  0  0
    1.2713   -3.0139    2.0162 C   0  0  0  0  0  0  0  0  0  0  0  0
    0.4383   -1.7367    2.2531 C   0  0  0  0  0  0  0  0  0  0  0  0
    1.3688   -0.5545    2.2603 C   0  0  0  0  0  0  0  0  0  0  0  0
   -1.8129    4.1505   -4.2563 Cl  0  0  0  0  0  0  0  0  0  0  0  0
   -5.2734    0.2516   -2.2501 H   0  0  0  0  0  0  0  0  0  0  0  0
   -4.3413    0.0268   -4.5165 H   0  0  0  0  0  0  0  0  0  0  0  0
   -2.8173    1.7443   -5.4018 H   0  0  0  0  0  0  0  0  0  0  0  0
   -4.6758    2.1904   -0.8573 H   0  0  0  0  0  0  0  0  0  0  0  0
   -2.9519    5.0431   -1.9769 H   0  0  0  0  0  0  0  0  0  0  0  0
   -2.8950    1.1502    0.3298 H   0  0  0  0  0  0  0  0  0  0  0  0
   -1.0834   -0.4749    0.6962 H   0  0  0  0  0  0  0  0  0  0  0  0
   -0.0643    4.3402    0.3605 H   0  0  0  0  0  0  0  0  0  0  0  0
    2.7831    2.1853    0.8849 H   0  0  0  0  0  0  0  0  0  0  0  0
    2.2646    3.7699    0.6773 H   0  0  0  0  0  0  0  0  0  0  0  0
    0.5915   -1.2260   -0.4382 H   0  0  0  0  0  0  0  0  0  0  0  0
    1.9723   -0.3148   -1.0712 H   0  0  0  0  0  0  0  0  0  0  0  0
    3.2264   -1.7371    0.8370 H   0  0  0  0  0  0  0  0  0  0  0  0
    2.9978   -2.3244   -0.8314 H   0  0  0  0  0  0  0  0  0  0  0  0
    2.1861   -4.1159    0.5006 H   0  0  0  0  0  0  0  0  0  0  0  0
    0.7166   -3.2481    0.0198 H   0  0  0  0  0  0  0  0  0  0  0  0
    2.1839   -2.9562    2.6095 H   0  0  0  0  0  0  0  0  0  0  0  0
    0.6928   -3.8788    2.3408 H   0  0  0  0  0  0  0  0  0  0  0  0
   -0.0732   -1.8059    3.2132 H   0  0  0  0  0  0  0  0  0  0  0  0
   -0.2949   -1.6208    1.4550 H   0  0  0  0  0  0  0  0  0  0  0  0
    2.3568   -0.8868    2.5792 H   0  0  0  0  0  0  0  0  0  0  0  0
    0.9991    0.1794    2.9763 H   0  0  0  0  0  0  0  0  0  0  0  0
  1  6  2  0  0  0  0
  1  2  1  0  0  0  0
  1 26  1  0  0  0  0
  2  3  2  0  0  0  0
  2 27  1  0  0  0  0
  3  4  1  0  0  0  0
  3 28  1  0  0  0  0
  4  5  2  0  0  0  0
  4 25  1  0  0  0  0
  5  6  1  0  0  0  0
  5  7  1  0  0  0  0
  6 29  1  0  0  0  0
  7  8  1  0  0  0  0
  7 30  1  0  0  0  0
  8  9  2  0  0  0  0
  8 10  2  0  0  0  0
  8 11  1  0  0  0  0
 11 16  2  0  0  0  0
 11 12  1  0  0  0  0
 12 13  2  0  0  0  0
 12 31  1  0  0  0  0
 13 14  1  0  0  0  0
 13 32  1  0  0  0  0
 14 15  2  0  0  0  0
 14 18  1  0  0  0  0
 15 16  1  0  0  0  0
 15 17  1  0  0  0  0
 16 33  1  0  0  0  0
 17 34  1  0  0  0  0
 17 35  1  0  0  0  0
 18 24  1  0  0  0  0
 18 19  1  0  0  0  0
 19 20  1  0  0  0  0
 19 36  1  0  0  0  0
 19 37  1  0  0  0  0
 20 21  1  0  0  0  0
 20 38  1  0  0  0  0
 20 39  1  0  0  0  0
 21 22  1  0  0  0  0
 21 40  1  0  0  0  0
 21 41  1  0  0  0  0
 22 23  1  0  0  0  0
 22 42  1  0  0  0  0
 22 43  1  0  0  0  0
 23 24  1  0  0  0  0
 23 44  1  0  0  0  0
 23 45  1  0  0  0  0
 24 46  1  0  0  0  0
 24 47  1  0  0  0  0
M  END
$$$$
ZINC03885631
  -OEChem-08230709453D

 39 40  0     0  0  0  0  0  0999 V2000
   -7.4676   -2.2343    2.4207 C   0  0  0  0  0  0  0  0  0  0  0  0
   -6.3355   -1.4035    1.8132 C   0  0  0  0  0  0  0  0  0  0  0  0
   -5.3774   -1.0910    2.8263 O   0  0  0  0  0  0  0  0  0  0  0  0
   -4.2995   -0.3517    2.4500 C   0  0  0  0  0  0  0  0  0  0  0  0
   -4.1693    0.0633    1.1331 C   0  0  0  0  0  0  0  0  0  0  0  0
   -3.0784    0.8193    0.7512 C   0  0  0  0  0  0  0  0  0  0  0  0
   -2.1055    1.1548    1.6838 C   0  0  0  0  0  0  0  0  0  0  0  0
   -2.2359    0.7392    3.0021 C   0  0  0  0  0  0  0  0  0  0  0  0
   -3.3308   -0.0127    3.3839 C   0  0  0  0  0  0  0  0  0  0  0  0
   -3.5092   -0.5791    5.1792 Br  0  0  0  0  0  0  0  0  0  0  0  0
   -0.9972    1.9161    1.2962 N   0  0  0  0  0  0  0  0  0  0  0  0
   -0.1706    1.5310   -0.0860 S   0  0  0  0  0  0  0  0  0  0  0  0
    0.0464    0.1270   -0.0516 O   0  0  0  0  0  0  0  0  0  0  0  0
    0.8955    2.4641   -0.1951 O   0  0  0  0  0  0  0  0  0  0  0  0
   -1.2514    1.8403   -1.4428 C   0  0  0  0  0  0  0  0  0  0  0  0
   -1.6703    0.7955   -2.2432 C   0  0  0  0  0  0  0  0  0  0  0  0
   -2.5223    1.0403   -3.3125 C   0  0  0  0  0  0  0  0  0  0  0  0
   -2.9503    2.3361   -3.5731 C   0  0  0  0  0  0  0  0  0  0  0  0
   -2.5276    3.3760   -2.7689 C   0  0  0  0  0  0  0  0  0  0  0  0
   -1.6838    3.1279   -1.7015 C   0  0  0  0  0  0  0  0  0  0  0  0
   -1.2299    4.2644   -0.8220 C   0  0  0  0  0  0  0  0  0  0  0  0
   -2.9482   -0.0140   -4.1236 N   0  0  0  0  0  0  0  0  0  0  0  0
   -7.9508   -1.6645    3.2144 H   0  0  0  0  0  0  0  0  0  0  0  0
   -8.1984   -2.4726    1.6479 H   0  0  0  0  0  0  0  0  0  0  0  0
   -7.0601   -3.1575    2.8325 H   0  0  0  0  0  0  0  0  0  0  0  0
   -6.7430   -0.4802    1.4013 H   0  0  0  0  0  0  0  0  0  0  0  0
   -5.8523   -1.9732    1.0195 H   0  0  0  0  0  0  0  0  0  0  0  0
   -4.9237   -0.2010    0.4068 H   0  0  0  0  0  0  0  0  0  0  0  0
   -2.9799    1.1463   -0.2733 H   0  0  0  0  0  0  0  0  0  0  0  0
   -1.4822    1.0038    3.7290 H   0  0  0  0  0  0  0  0  0  0  0  0
   -0.7132    2.6695    1.8372 H   0  0  0  0  0  0  0  0  0  0  0  0
   -1.3360   -0.2107   -2.0377 H   0  0  0  0  0  0  0  0  0  0  0  0
   -3.6125    2.5299   -4.4039 H   0  0  0  0  0  0  0  0  0  0  0  0
   -2.8600    4.3835   -2.9709 H   0  0  0  0  0  0  0  0  0  0  0  0
   -0.3562    4.7411   -1.2663 H   0  0  0  0  0  0  0  0  0  0  0  0
   -2.0338    4.9945   -0.7281 H   0  0  0  0  0  0  0  0  0  0  0  0
   -0.9716    3.8795    0.1645 H   0  0  0  0  0  0  0  0  0  0  0  0
   -2.6489   -0.9183   -3.9405 H   0  0  0  0  0  0  0  0  0  0  0  0
   -3.5432    0.1582   -4.8701 H   0  0  0  0  0  0  0  0  0  0  0  0
  1  2  1  0  0  0  0
  1 23  1  0  0  0  0
  1 24  1  0  0  0  0
  1 25  1  0  0  0  0
  2  3  1  0  0  0  0
  2 26  1  0  0  0  0
  2 27  1  0  0  0  0
  3  4  1  0  0  0  0
  4  9  2  0  0  0  0
  4  5  1  0  0  0  0
  5  6  2  0  0  0  0
  5 28  1  0  0  0  0
  6  7  1  0  0  0  0
  6 29  1  0  0  0  0
  7  8  2  0  0  0  0
  7 11  1  0  0  0  0
  8  9  1  0  0  0  0
  8 30  1  0  0  0  0
  9 10  1  0  0  0  0
 11 12  1  0  0  0  0
 11 31  1  0  0  0  0
 12 13  2  0  0  0  0
 12 14  2  0  0  0  0
 12 15  1  0  0  0  0
 15 20  2  0  0  0  0
 15 16  1  0  0  0  0
 16 17  2  0  0  0  0
 16 32  1  0  0  0  0
 17 18  1  0  0  0  0
 17 22  1  0  0  0  0
 18 19  2  0  0  0  0
 18 33  1  0  0  0  0
 19 20  1  0  0  0  0
 19 34  1  0  0  0  0
 20 21  1  0  0  0  0
 21 35  1  0  0  0  0
 21 36  1  0  0  0  0
 21 37  1  0  0  0  0
 22 38  1  0  0  0  0
 22 39  1  0  0  0  0
M  END
$$$$
ZINC03889130
  -OEChem-08230709453D

 41 43  0     1  0  0  0  0  0999 V2000
    5.1710    3.3274    5.8534 C   0  0  0  0  0  0  0  0  0  0  0  0
    5.0946    4.7065    5.2505 C   0  0  0  0  0  0  0  0  0  0  0  0
    3.9633    5.2745    4.6238 C   0  0  0  0  0  0  0  0  0  0  0  0
    4.3187    6.5520    4.2189 C   0  0  0  0  0  0  0  0  0  0  0  0
    5.6080    6.7419    4.5808 N   0  0  0  0  0  0  0  0  0  0  0  0
    6.0635    5.5805    5.2147 N   0  0  0  0  0  0  0  0  0  0  0  0
    6.3599    7.9035    4.3581 C   0  0  0  0  0  0  0  0  0  0  0  0
    6.1685    8.6445    3.1996 C   0  0  0  0  0  0  0  0  0  0  0  0
    6.9070    9.7919    2.9857 C   0  0  0  0  0  0  0  0  0  0  0  0
    7.8445   10.1964    3.9183 C   0  0  0  0  0  0  0  0  0  0  0  0
    8.0414    9.4573    5.0703 C   0  0  0  0  0  0  0  0  0  0  0  0
    7.3016    8.3124    5.2928 C   0  0  0  0  0  0  0  0  0  0  0  0
    3.5228    7.4438    3.5793 O   0  0  0  0  0  0  0  0  0  0  0  0
    2.6502    4.6324    4.4406 C   0  0  0  0  0  0  0  0  0  0  0  0
    2.4098    3.9406    3.3684 N   0  0  0  0  0  0  0  0  0  0  0  0
    1.1609    3.3299    3.1941 N   0  0  0  0  0  0  0  0  0  0  0  0
    0.9086    2.6038    2.0687 C   0  0  0  0  0  0  0  0  0  0  0  0
    1.7194    2.3714    1.0435 N   0  0  0  0  0  0  0  0  0  0  0  0
    1.3981    1.6613   -0.0024 C   0  0  0  0  0  0  0  0  0  0  0  0
    2.1709    1.4714   -0.9216 O   0  0  0  0  0  0  0  0  0  0  0  0
   -0.0127    1.0858    0.0080 C   0  0  1  0  0  0  0  0  0  0  0  0
    0.0021   -0.0041    0.0020 H   0  0  0  0  0  0  0  0  0  0  0  0
   -0.5925    1.7402    1.6251 S   0  0  0  0  0  0  0  0  0  0  0  0
   -0.8484    1.6348   -1.1501 C   0  0  0  0  0  0  0  0  0  0  0  0
    1.5860    4.7785    5.4976 C   0  0  0  0  0  0  0  0  0  0  0  0
    5.5002    2.6171    5.0951 H   0  0  0  0  0  0  0  0  0  0  0  0
    5.8811    3.3312    6.6804 H   0  0  0  0  0  0  0  0  0  0  0  0
    4.1869    3.0365    6.2209 H   0  0  0  0  0  0  0  0  0  0  0  0
    5.4397    8.3267    2.4688 H   0  0  0  0  0  0  0  0  0  0  0  0
    6.7555   10.3712    2.0869 H   0  0  0  0  0  0  0  0  0  0  0  0
    8.4239   11.0915    3.7467 H   0  0  0  0  0  0  0  0  0  0  0  0
    8.7741    9.7759    5.7970 H   0  0  0  0  0  0  0  0  0  0  0  0
    7.4553    7.7360    6.1931 H   0  0  0  0  0  0  0  0  0  0  0  0
    3.0257    8.0235    4.1726 H   0  0  0  0  0  0  0  0  0  0  0  0
    0.4760    3.4239    3.8744 H   0  0  0  0  0  0  0  0  0  0  0  0
   -0.4167    1.3085   -2.0963 H   0  0  0  0  0  0  0  0  0  0  0  0
   -1.8698    1.2629   -1.0693 H   0  0  0  0  0  0  0  0  0  0  0  0
   -0.8541    2.7240   -1.1096 H   0  0  0  0  0  0  0  0  0  0  0  0
    1.6779    3.9676    6.2202 H   0  0  0  0  0  0  0  0  0  0  0  0
    1.7084    5.7344    6.0067 H   0  0  0  0  0  0  0  0  0  0  0  0
    0.6020    4.7390    5.0304 H   0  0  0  0  0  0  0  0  0  0  0  0
  1  2  1  0  0  0  0
  1 26  1  0  0  0  0
  1 27  1  0  0  0  0
  1 28  1  0  0  0  0
  2  6  2  0  0  0  0
  2  3  1  0  0  0  0
  3  4  2  0  0  0  0
  3 14  1  0  0  0  0
  4  5  1  0  0  0  0
  4 13  1  0  0  0  0
  5  6  1  0  0  0  0
  5  7  1  0  0  0  0
  7 12  2  0  0  0  0
  7  8  1  0  0  0  0
  8  9  2  0  0  0  0
  8 29  1  0  0  0  0
  9 10  1  0  0  0  0
  9 30  1  0  0  0  0
 10 11  2  0  0  0  0
 10 31  1  0  0  0  0
 11 12  1  0  0  0  0
 11 32  1  0  0  0  0
 12 33  1  0  0  0  0
 13 34  1  0  0  0  0
 14 15  2  0  0  0  0
 14 25  1  0  0  0  0
 15 16  1  0  0  0  0
 16 17  1  0  0  0  0
 16 35  1  0  0  0  0
 17 23  1  0  0  0  0
 17 18  2  0  0  0  0
 18 19  1  0  0  0  0
 19 20  2  0  0  0  0
 19 21  1  0  0  0  0
 21 22  1  0  0  0  0
 21 23  1  0  0  0  0
 21 24  1  0  0  0  0
 24 36  1  0  0  0  0
 24 37  1  0  0  0  0
 24 38  1  0  0  0  0
 25 39  1  0  0  0  0
 25 40  1  0  0  0  0
 25 41  1  0  0  0  0
M  END
$$$$
ZINC03889755
  -OEChem-08230709453D

 42 43  0     0  0  0  0  0  0999 V2000
   -2.0916   -2.3272    1.7481 C   0  0  0  0  0  0  0  0  0  0  0  0
   -2.6296   -1.7637    0.4313 C   0  0  0  0  0  0  0  0  0  0  0  0
   -3.9869   -1.1015    0.6767 C   0  0  0  0  0  0  0  0  0  0  0  0
   -2.7918   -2.8994   -0.5810 C   0  0  0  0  0  0  0  0  0  0  0  0
   -1.6899   -0.7707   -0.0951 N   0  0  0  0  0  0  0  0  0  0  0  0
   -0.4140   -1.1204   -0.3525 C   0  0  0  0  0  0  0  0  0  0  0  0
    0.0741   -2.7538   -0.1958 S   0  0  0  0  0  0  0  0  0  0  0  0
    0.4776   -0.1842   -0.7331 N   0  0  0  0  0  0  0  0  0  0  0  0
    0.1098    1.0466   -0.8511 N   0  0  0  0  0  0  0  0  0  0  0  0
    1.0028    1.9799   -1.1648 C   0  0  0  0  0  0  0  0  0  0  0  0
    2.2867    1.6131   -1.5405 C   0  0  0  0  0  0  0  0  0  0  0  0
    3.4148    2.5215   -1.7890 C   0  0  0  0  0  0  0  0  0  0  0  0
    4.4695    1.7356   -2.1293 C   0  0  0  0  0  0  0  0  0  0  0  0
    4.0286    0.3924   -2.0975 C   0  0  0  0  0  0  0  0  0  0  0  0
    2.7339    0.3537   -1.7403 O   0  0  0  0  0  0  0  0  0  0  0  0
    4.8554   -0.7742   -2.3998 C   0  0  0  0  0  0  0  0  0  0  0  0
    6.2049   -0.6112   -2.7633 C   0  0  0  0  0  0  0  0  0  0  0  0
    6.9732   -1.7129   -3.0393 C   0  0  0  0  0  0  0  0  0  0  0  0
    6.4215   -2.9837   -2.9724 C   0  0  0  0  0  0  0  0  0  0  0  0
    5.0909   -3.1555   -2.6208 C   0  0  0  0  0  0  0  0  0  0  0  0
    4.3061   -2.0680   -2.3352 C   0  0  0  0  0  0  0  0  0  0  0  0
    7.2588   -4.1652   -3.2791 N   0  3  0  0  0  0  0  0  0  0  0  0
    6.7397   -5.3740   -3.2175 O   0  0  0  0  0  0  0  0  0  0  0  0
    8.5228   -4.0076   -3.6135 O   0  5  0  0  0  0  0  0  0  0  0  0
   -2.0525   -1.5333    2.4940 H   0  0  0  0  0  0  0  0  0  0  0  0
   -2.7490   -3.1229    2.0984 H   0  0  0  0  0  0  0  0  0  0  0  0
   -1.0899   -2.7267    1.5900 H   0  0  0  0  0  0  0  0  0  0  0  0
   -4.3703   -0.7001   -0.2614 H   0  0  0  0  0  0  0  0  0  0  0  0
   -4.6861   -1.8403    1.0684 H   0  0  0  0  0  0  0  0  0  0  0  0
   -3.8714   -0.2924    1.3979 H   0  0  0  0  0  0  0  0  0  0  0  0
   -1.8545   -3.4497   -0.6629 H   0  0  0  0  0  0  0  0  0  0  0  0
   -3.5809   -3.5733   -0.2476 H   0  0  0  0  0  0  0  0  0  0  0  0
   -3.0556   -2.4841   -1.5537 H   0  0  0  0  0  0  0  0  0  0  0  0
   -1.9860    0.1385   -0.2585 H   0  0  0  0  0  0  0  0  0  0  0  0
    1.3959   -0.4358   -0.9183 H   0  0  0  0  0  0  0  0  0  0  0  0
    0.7287    3.0239   -1.1271 H   0  0  0  0  0  0  0  0  0  0  0  0
    3.4070    3.5990   -1.7160 H   0  0  0  0  0  0  0  0  0  0  0  0
    5.4638    2.0751   -2.3793 H   0  0  0  0  0  0  0  0  0  0  0  0
    6.6353    0.3778   -2.8203 H   0  0  0  0  0  0  0  0  0  0  0  0
    8.0105   -1.5905   -3.3138 H   0  0  0  0  0  0  0  0  0  0  0  0
    4.6714   -4.1495   -2.5714 H   0  0  0  0  0  0  0  0  0  0  0  0
    3.2701   -2.2039   -2.0619 H   0  0  0  0  0  0  0  0  0  0  0  0
  1  2  1  0  0  0  0
  1 25  1  0  0  0  0
  1 26  1  0  0  0  0
  1 27  1  0  0  0  0
  2  3  1  0  0  0  0
  2  4  1  0  0  0  0
  2  5  1  0  0  0  0
  3 28  1  0  0  0  0
  3 29  1  0  0  0  0
  3 30  1  0  0  0  0
  4 31  1  0  0  0  0
  4 32  1  0  0  0  0
  4 33  1  0  0  0  0
  5  6  1  0  0  0  0
  5 34  1  0  0  0  0
  6  7  2  0  0  0  0
  6  8  1  0  0  0  0
  8  9  1  0  0  0  0
  8 35  1  0  0  0  0
  9 10  2  0  0  0  0
 10 11  1  0  0  0  0
 10 36  1  0  0  0  0
 11 15  1  0  0  0  0
 11 12  2  0  0  0  0
 12 13  1  0  0  0  0
 12 37  1  0  0  0  0
 13 14  2  0  0  0  0
 13 38  1  0  0  0  0
 14 15  1  0  0  0  0
 14 16  1  0  0  0  0
 16 21  2  0  0  0  0
 16 17  1  0  0  0  0
 17 18  2  0  0  0  0
 17 39  1  0  0  0  0
 18 19  1  0  0  0  0
 18 40  1  0  0  0  0
 19 20  2  0  0  0  0
 19 22  1  0  0  0  0
 20 21  1  0  0  0  0
 20 41  1  0  0  0  0
 21 42  1  0  0  0  0
 22 23  2  0  0  0  0
 22 24  1  0  0  0  0
M  CHG  2  22   1  24  -1
M  END
$$$$
ZINC03890316
  -OEChem-08230709453D

 41 43  0     0  0  0  0  0  0999 V2000
   -4.7496    0.2959   -1.3193 C   0  0  0  0  0  0  0  0  0  0  0  0
   -4.7857    1.6008   -0.7378 O   0  0  0  0  0  0  0  0  0  0  0  0
   -3.6108    2.1011   -0.2702 C   0  0  0  0  0  0  0  0  0  0  0  0
   -2.4537    1.3523   -0.3698 C   0  0  0  0  0  0  0  0  0  0  0  0
   -1.2445    1.8684    0.1115 C   0  0  0  0  0  0  0  0  0  0  0  0
   -1.2140    3.1398    0.6970 C   0  0  0  0  0  0  0  0  0  0  0  0
   -2.3744    3.8846    0.7877 C   0  0  0  0  0  0  0  0  0  0  0  0
   -3.5753    3.3675    0.3082 C   0  0  0  0  0  0  0  0  0  0  0  0
   -4.7157    4.1010    0.4044 O   0  0  0  0  0  0  0  0  0  0  0  0
   -2.3447    5.1220    1.3513 O   0  0  0  0  0  0  0  0  0  0  0  0
   -1.0794    5.5903    1.8221 C   0  0  0  0  0  0  0  0  0  0  0  0
   -0.0126    1.0758    0.0080 C   0  0  0  0  0  0  0  0  0  0  0  0
    1.1623    1.6842   -0.2934 C   0  0  0  0  0  0  0  0  0  0  0  0
    1.3641    3.0794   -0.7125 C   0  0  0  0  0  0  0  0  0  0  0  0
    0.5057    3.9294   -0.8612 O   0  0  0  0  0  0  0  0  0  0  0  0
    2.6915    3.2281   -0.8965 N   0  0  0  0  0  0  0  0  0  0  0  0
    3.3192    2.0696   -0.6427 C   0  0  0  0  0  0  0  0  0  0  0  0
    4.5207    1.9040   -0.7304 O   0  0  0  0  0  0  0  0  0  0  0  0
    2.4439    1.1162   -0.2779 N   0  0  0  0  0  0  0  0  0  0  0  0
    3.3211    4.4139   -1.2995 C   0  0  0  0  0  0  0  0  0  0  0  0
    2.5668    5.5546   -1.5407 C   0  0  0  0  0  0  0  0  0  0  0  0
    3.1897    6.7233   -1.9326 C   0  0  0  0  0  0  0  0  0  0  0  0
    4.5625    6.7560   -2.0952 C   0  0  0  0  0  0  0  0  0  0  0  0
    5.3168    5.6197   -1.8612 C   0  0  0  0  0  0  0  0  0  0  0  0
    4.6988    4.4485   -1.4637 C   0  0  0  0  0  0  0  0  0  0  0  0
    7.0399    5.6645   -2.0676 Cl  0  0  0  0  0  0  0  0  0  0  0  0
   -4.0715    0.2971   -2.1726 H   0  0  0  0  0  0  0  0  0  0  0  0
   -4.3997   -0.4226   -0.5780 H   0  0  0  0  0  0  0  0  0  0  0  0
   -5.7502    0.0180   -1.6506 H   0  0  0  0  0  0  0  0  0  0  0  0
   -2.4821    0.3702   -0.8181 H   0  0  0  0  0  0  0  0  0  0  0  0
   -0.2840    3.5397    1.0731 H   0  0  0  0  0  0  0  0  0  0  0  0
   -5.2084    3.9563    1.2238 H   0  0  0  0  0  0  0  0  0  0  0  0
   -1.1962    6.5872    2.2472 H   0  0  0  0  0  0  0  0  0  0  0  0
   -0.7022    4.9111    2.5867 H   0  0  0  0  0  0  0  0  0  0  0  0
   -0.3746    5.6298    0.9915 H   0  0  0  0  0  0  0  0  0  0  0  0
   -0.0425    0.0081    0.1673 H   0  0  0  0  0  0  0  0  0  0  0  0
    2.6605    0.1997   -0.0454 H   0  0  0  0  0  0  0  0  0  0  0  0
    1.4941    5.5289   -1.4184 H   0  0  0  0  0  0  0  0  0  0  0  0
    2.6035    7.6115   -2.1162 H   0  0  0  0  0  0  0  0  0  0  0  0
    5.0469    7.6700   -2.4057 H   0  0  0  0  0  0  0  0  0  0  0  0
    5.2875    3.5617   -1.2808 H   0  0  0  0  0  0  0  0  0  0  0  0
  1  2  1  0  0  0  0
  1 27  1  0  0  0  0
  1 28  1  0  0  0  0
  1 29  1  0  0  0  0
  2  3  1  0  0  0  0
  3  8  2  0  0  0  0
  3  4  1  0  0  0  0
  4  5  2  0  0  0  0
  4 30  1  0  0  0  0
  5  6  1  0  0  0  0
  5 12  1  0  0  0  0
  6  7  2  0  0  0  0
  6 31  1  0  0  0  0
  7  8  1  0  0  0  0
  7 10  1  0  0  0  0
  8  9  1  0  0  0  0
  9 32  1  0  0  0  0
 10 11  1  0  0  0  0
 11 33  1  0  0  0  0
 11 34  1  0  0  0  0
 11 35  1  0  0  0  0
 12 13  2  0  0  0  0
 12 36  1  0  0  0  0
 13 19  1  0  0  0  0
 13 14  1  0  0  0  0
 14 15  2  0  0  0  0
 14 16  1  0  0  0  0
 16 17  1  0  0  0  0
 16 20  1  0  0  0  0
 17 18  2  0  0  0  0
 17 19  1  0  0  0  0
 19 37  1  0  0  0  0
 20 25  2  0  0  0  0
 20 21  1  0  0  0  0
 21 22  2  0  0  0  0
 21 38  1  0  0  0  0
 22 23  1  0  0  0  0
 22 39  1  0  0  0  0
 23 24  2  0  0  0  0
 23 40  1  0  0  0  0
 24 25  1  0  0  0  0
 24 26  1  0  0  0  0
 25 41  1  0  0  0  0
M  END
$$$$
ZINC03899903
  -OEChem-08230709453D

 49 52  0     1  0  0  0  0  0999 V2000
   -0.0650    1.2052    0.0905 C   0  0  0  0  0  0  0  0  0  0  0  0
    1.0990    1.9528    0.0689 C   0  0  0  0  0  0  0  0  0  0  0  0
    2.3262    1.3233    0.0375 C   0  0  0  0  0  0  0  0  0  0  0  0
    2.3918   -0.0709    0.0276 C   0  0  0  0  0  0  0  0  0  0  0  0
    1.2137   -0.8191    0.0495 C   0  0  0  0  0  0  0  0  0  0  0  0
   -0.0070   -0.1771    0.0808 C   0  0  0  0  0  0  0  0  0  0  0  0
    3.7035   -0.7522   -0.0064 C   0  0  0  0  0  0  0  0  0  0  0  0
    3.7576   -1.9664   -0.0154 O   0  0  0  0  0  0  0  0  0  0  0  0
    4.8393   -0.0268   -0.0275 N   0  0  0  0  0  0  0  0  0  0  0  0
    6.1390   -0.7019   -0.0612 C   0  0  2  0  0  0  0  0  0  0  0  0
    6.0601   -1.6127   -0.6549 H   0  0  0  0  0  0  0  0  0  0  0  0
    6.5597   -1.0523    1.3428 C   0  0  0  0  0  0  0  0  0  0  0  0
    6.1541   -0.3964    2.2789 O   0  0  0  0  0  0  0  0  0  0  0  0
    7.3866   -2.0946    1.5582 N   0  0  0  0  0  0  0  0  0  0  0  0
    7.6915   -2.4719    2.8352 N   0  0  0  0  0  0  0  0  0  0  0  0
    7.1801    0.2272   -0.6887 C   0  0  0  0  0  0  0  0  0  0  0  0
    7.3771    1.4515    0.2075 C   0  0  0  0  0  0  0  0  0  0  0  0
    8.4183    2.3806   -0.4200 C   0  0  0  0  0  0  0  0  0  0  0  0
    9.7465    1.6349   -0.5639 C   0  0  0  0  0  0  0  0  0  0  0  0
    9.5495    0.4106   -1.4600 C   0  0  0  0  0  0  0  0  0  0  0  0
    8.5083   -0.5185   -0.8326 C   0  0  0  0  0  0  0  0  0  0  0  0
    9.0654    0.8611   -2.8398 C   0  0  0  0  0  0  0  0  0  0  0  0
    7.7372    1.6068   -2.6959 C   0  0  0  0  0  0  0  0  0  0  0  0
    7.9342    2.8311   -1.7997 C   0  0  0  0  0  0  0  0  0  0  0  0
    6.6961    0.6777   -2.0684 C   0  0  0  0  0  0  0  0  0  0  0  0
   -1.0233    1.7029    0.1105 H   0  0  0  0  0  0  0  0  0  0  0  0
    1.0468    3.0315    0.0762 H   0  0  0  0  0  0  0  0  0  0  0  0
    3.2341    1.9080    0.0203 H   0  0  0  0  0  0  0  0  0  0  0  0
    1.2577   -1.8981    0.0417 H   0  0  0  0  0  0  0  0  0  0  0  0
   -0.9193   -0.7549    0.0974 H   0  0  0  0  0  0  0  0  0  0  0  0
    4.7961    0.9422   -0.0204 H   0  0  0  0  0  0  0  0  0  0  0  0
    7.7652   -2.5767    0.8065 H   0  0  0  0  0  0  0  0  0  0  0  0
    8.3182   -3.2627    2.8387 H   0  0  0  0  0  0  0  0  0  0  0  0
    8.0797   -1.7006    3.3572 H   0  0  0  0  0  0  0  0  0  0  0  0
    6.4309    1.9828    0.3100 H   0  0  0  0  0  0  0  0  0  0  0  0
    7.7220    1.1306    1.1904 H   0  0  0  0  0  0  0  0  0  0  0  0
    8.5586    3.2528    0.2185 H   0  0  0  0  0  0  0  0  0  0  0  0
   10.0913    1.3140    0.4191 H   0  0  0  0  0  0  0  0  0  0  0  0
   10.4882    2.2968   -1.0109 H   0  0  0  0  0  0  0  0  0  0  0  0
   10.4957   -0.1206   -1.5626 H   0  0  0  0  0  0  0  0  0  0  0  0
    8.8532   -0.8394    0.1503 H   0  0  0  0  0  0  0  0  0  0  0  0
    8.3680   -1.3907   -1.4711 H   0  0  0  0  0  0  0  0  0  0  0  0
    9.8072    1.5230   -3.2868 H   0  0  0  0  0  0  0  0  0  0  0  0
    8.9251   -0.0111   -3.4782 H   0  0  0  0  0  0  0  0  0  0  0  0
    7.3924    1.9277   -3.6788 H   0  0  0  0  0  0  0  0  0  0  0  0
    6.9880    3.3624   -1.6972 H   0  0  0  0  0  0  0  0  0  0  0  0
    8.6759    3.4930   -2.2467 H   0  0  0  0  0  0  0  0  0  0  0  0
    6.5558   -0.1945   -2.7069 H   0  0  0  0  0  0  0  0  0  0  0  0
    5.7499    1.2089   -1.9659 H   0  0  0  0  0  0  0  0  0  0  0  0
  1  6  2  0  0  0  0
  1  2  1  0  0  0  0
  1 26  1  0  0  0  0
  2  3  2  0  0  0  0
  2 27  1  0  0  0  0
  3  4  1  0  0  0  0
  3 28  1  0  0  0  0
  4  5  2  0  0  0  0
  4  7  1  0  0  0  0
  5  6  1  0  0  0  0
  5 29  1  0  0  0  0
  6 30  1  0  0  0  0
  7  8  2  0  0  0  0
  7  9  1  0  0  0  0
  9 10  1  0  0  0  0
  9 31  1  0  0  0  0
 10 11  1  0  0  0  0
 10 12  1  0  0  0  0
 10 16  1  0  0  0  0
 12 13  2  0  0  0  0
 12 14  1  0  0  0  0
 14 15  1  0  0  0  0
 14 32  1  0  0  0  0
 15 33  1  0  0  0  0
 15 34  1  0  0  0  0
 16 21  1  0  0  0  0
 16 25  1  0  0  0  0
 16 17  1  0  0  0  0
 17 18  1  0  0  0  0
 17 35  1  0  0  0  0
 17 36  1  0  0  0  0
 18 24  1  0  0  0  0
 18 19  1  0  0  0  0
 18 37  1  0  0  0  0
 19 20  1  0  0  0  0
 19 38  1  0  0  0  0
 19 39  1  0  0  0  0
 20 21  1  0  0  0  0
 20 22  1  0  0  0  0
 20 40  1  0  0  0  0
 21 41  1  0  0  0  0
 21 42  1  0  0  0  0
 22 23  1  0  0  0  0
 22 43  1  0  0  0  0
 22 44  1  0  0  0  0
 23 24  1  0  0  0  0
 23 25  1  0  0  0  0
 23 45  1  0  0  0  0
 24 46  1  0  0  0  0
 24 47  1  0  0  0  0
 25 48  1  0  0  0  0
 25 49  1  0  0  0  0
M  END
$$$$
ZINC03903097
  -OEChem-08230709453D

 43 46  0     0  0  0  0  0  0999 V2000
    0.8481   11.5964    0.0581 C   0  0  0  0  0  0  0  0  0  0  0  0
    2.2765   11.5567    0.0433 O   0  0  0  0  0  0  0  0  0  0  0  0
    2.8594   10.3296    0.0309 C   0  0  0  0  0  0  0  0  0  0  0  0
    4.2439   10.2209    0.0163 C   0  0  0  0  0  0  0  0  0  0  0  0
    4.8396    8.9782    0.0032 C   0  0  0  0  0  0  0  0  0  0  0  0
    4.0483    7.8265    0.0048 C   0  0  0  0  0  0  0  0  0  0  0  0
    2.6556    7.9408    0.0137 C   0  0  0  0  0  0  0  0  0  0  0  0
    2.0689    9.1876    0.0325 C   0  0  0  0  0  0  0  0  0  0  0  0
    4.6808    6.4949   -0.0091 C   0  0  0  0  0  0  0  0  0  0  0  0
    3.9439    5.4262   -0.0076 N   0  0  0  0  0  0  0  0  0  0  0  0
    4.5449    4.1608   -0.0208 N   0  0  0  0  0  0  0  0  0  0  0  0
    3.7653    3.0303   -0.0193 C   0  0  0  0  0  0  0  0  0  0  0  0
    4.3784    1.8144   -0.0323 N   0  0  0  0  0  0  0  0  0  0  0  0
    5.3779    1.7840   -0.0435 H   0  0  0  0  0  0  0  0  0  0  0  0
    3.6964    0.6450   -0.0308 C   0  0  0  0  0  0  0  0  0  0  0  0
    4.2626   -0.4345   -0.0416 O   0  0  0  0  0  0  0  0  0  0  0  0
    2.2672    0.7544   -0.0154 C   0  0  0  0  0  0  0  0  0  0  0  0
    1.3121   -0.3410   -0.0118 C   0  0  0  0  0  0  0  0  0  0  0  0
    0.0021   -0.0041    0.0020 C   0  0  0  0  0  0  0  0  0  0  0  0
   -0.0220    1.7709    0.0118 S   0  0  0  0  0  0  0  0  0  0  0  0
    1.7194    2.0577   -0.0033 C   0  0  0  0  0  0  0  0  0  0  0  0
    2.4467    3.1676   -0.0047 N   0  0  0  0  0  0  0  0  0  0  0  0
   -1.1734   -0.9320    0.0074 C   0  0  0  0  0  0  0  0  0  0  0  0
   -0.6868   -2.3360   -0.3788 C   0  0  0  0  0  0  0  0  0  0  0  0
    0.5606   -2.6661    0.4463 C   0  0  0  0  0  0  0  0  0  0  0  0
    1.7353   -1.8076   -0.0230 C   0  0  0  0  0  0  0  0  0  0  0  0
    0.5135   12.6337    0.0669 H   0  0  0  0  0  0  0  0  0  0  0  0
    0.4616   11.0975   -0.8307 H   0  0  0  0  0  0  0  0  0  0  0  0
    0.4797   11.0881    0.9492 H   0  0  0  0  0  0  0  0  0  0  0  0
    4.8547   11.1116    0.0148 H   0  0  0  0  0  0  0  0  0  0  0  0
    5.9163    8.8947   -0.0085 H   0  0  0  0  0  0  0  0  0  0  0  0
    2.0401    7.0533    0.0104 H   0  0  0  0  0  0  0  0  0  0  0  0
    0.9926    9.2769    0.0443 H   0  0  0  0  0  0  0  0  0  0  0  0
    5.7573    6.4084   -0.0205 H   0  0  0  0  0  0  0  0  0  0  0  0
    5.5118    4.0832   -0.0310 H   0  0  0  0  0  0  0  0  0  0  0  0
   -1.6146   -0.9585    1.0037 H   0  0  0  0  0  0  0  0  0  0  0  0
   -1.9154   -0.5873   -0.7128 H   0  0  0  0  0  0  0  0  0  0  0  0
   -1.4688   -3.0652   -0.1672 H   0  0  0  0  0  0  0  0  0  0  0  0
   -0.4397   -2.3584   -1.4402 H   0  0  0  0  0  0  0  0  0  0  0  0
    0.3624   -2.4644    1.4990 H   0  0  0  0  0  0  0  0  0  0  0  0
    0.8101   -3.7196    0.3201 H   0  0  0  0  0  0  0  0  0  0  0  0
    2.5817   -1.9484    0.6492 H   0  0  0  0  0  0  0  0  0  0  0  0
    2.0196   -2.0995   -1.0340 H   0  0  0  0  0  0  0  0  0  0  0  0
  1  2  1  0  0  0  0
  1 27  1  0  0  0  0
  1 28  1  0  0  0  0
  1 29  1  0  0  0  0
  2  3  1  0  0  0  0
  3  8  2  0  0  0  0
  3  4  1  0  0  0  0
  4  5  2  0  0  0  0
  4 30  1  0  0  0  0
  5  6  1  0  0  0  0
  5 31  1  0  0  0  0
  6  7  2  0  0  0  0
  6  9  1  0  0  0  0
  7  8  1  0  0  0  0
  7 32  1  0  0  0  0
  8 33  1  0  0  0  0
  9 10  2  0  0  0  0
  9 34  1  0  0  0  0
 10 11  1  0  0  0  0
 11 12  1  0  0  0  0
 11 35  1  0  0  0  0
 12 22  2  0  0  0  0
 12 13  1  0  0  0  0
 13 14  1  0  0  0  0
 13 15  1  0  0  0  0
 15 16  2  0  0  0  0
 15 17  1  0  0  0  0
 17 21  2  0  0  0  0
 17 18  1  0  0  0  0
 18 26  1  0  0  0  0
 18 19  2  0  0  0  0
 19 20  1  0  0  0  0
 19 23  1  0  0  0  0
 20 21  1  0  0  0  0
 21 22  1  0  0  0  0
 23 24  1  0  0  0  0
 23 36  1  0  0  0  0
 23 37  1  0  0  0  0
 24 25  1  0  0  0  0
 24 38  1  0  0  0  0
 24 39  1  0  0  0  0
 25 26  1  0  0  0  0
 25 40  1  0  0  0  0
 25 41  1  0  0  0  0
 26 42  1  0  0  0  0
 26 43  1  0  0  0  0
M  END
$$$$
ZINC03903097
  -OEChem-08230709453D

 43 46  0     0  0  0  0  0  0999 V2000
    0.8481   11.5964    0.0602 C   0  0  0  0  0  0  0  0  0  0  0  0
    2.2765   11.5567    0.0464 O   0  0  0  0  0  0  0  0  0  0  0  0
    2.8594   10.3296    0.0340 C   0  0  0  0  0  0  0  0  0  0  0  0
    4.2439   10.2209    0.0203 C   0  0  0  0  0  0  0  0  0  0  0  0
    4.8396    8.9782    0.0072 C   0  0  0  0  0  0  0  0  0  0  0  0
    4.0483    7.8265    0.0080 C   0  0  0  0  0  0  0  0  0  0  0  0
    2.6556    7.9408    0.0160 C   0  0  0  0  0  0  0  0  0  0  0  0
    2.0689    9.1876    0.0347 C   0  0  0  0  0  0  0  0  0  0  0  0
    4.6808    6.4949   -0.0059 C   0  0  0  0  0  0  0  0  0  0  0  0
    3.9439    5.4262   -0.0052 N   0  0  0  0  0  0  0  0  0  0  0  0
    4.5449    4.1608   -0.0183 N   0  0  0  0  0  0  0  0  0  0  0  0
    3.7653    3.0303   -0.0177 C   0  0  0  0  0  0  0  0  0  0  0  0
    4.3784    1.8144   -0.0306 N   0  0  0  0  0  0  0  0  0  0  0  0
    2.0177    4.0708    0.0051 H   0  0  0  0  0  0  0  0  0  0  0  0
    3.6964    0.6450   -0.0299 C   0  0  0  0  0  0  0  0  0  0  0  0
    4.2626   -0.4345   -0.0406 O   0  0  0  0  0  0  0  0  0  0  0  0
    2.2672    0.7544   -0.0166 C   0  0  0  0  0  0  0  0  0  0  0  0
    1.3121   -0.3410   -0.0136 C   0  0  0  0  0  0  0  0  0  0  0  0
    0.0021   -0.0041   -0.0003 C   0  0  0  0  0  0  0  0  0  0  0  0
   -0.0220    1.7709    0.0098 S   0  0  0  0  0  0  0  0  0  0  0  0
    1.7194    2.0577   -0.0044 C   0  0  0  0  0  0  0  0  0  0  0  0
    2.4467    3.1676   -0.0045 N   0  0  0  0  0  0  0  0  0  0  0  0
   -1.1734   -0.9320    0.0043 C   0  0  0  0  0  0  0  0  0  0  0  0
   -0.6867   -2.3359   -0.3820 C   0  0  0  0  0  0  0  0  0  0  0  0
    0.5604   -2.6662    0.4436 C   0  0  0  0  0  0  0  0  0  0  0  0
    1.7353   -1.8076   -0.0250 C   0  0  0  0  0  0  0  0  0  0  0  0
    0.5135   12.6337    0.0691 H   0  0  0  0  0  0  0  0  0  0  0  0
    0.4622   11.0977   -0.8290 H   0  0  0  0  0  0  0  0  0  0  0  0
    0.4791   11.0878    0.9509 H   0  0  0  0  0  0  0  0  0  0  0  0
    4.8547   11.1116    0.0195 H   0  0  0  0  0  0  0  0  0  0  0  0
    5.9163    8.8947   -0.0038 H   0  0  0  0  0  0  0  0  0  0  0  0
    2.0401    7.0533    0.0120 H   0  0  0  0  0  0  0  0  0  0  0  0
    0.9926    9.2769    0.0458 H   0  0  0  0  0  0  0  0  0  0  0  0
    5.7573    6.4084   -0.0166 H   0  0  0  0  0  0  0  0  0  0  0  0
    5.5118    4.0832   -0.0279 H   0  0  0  0  0  0  0  0  0  0  0  0
   -1.6151   -0.9587    1.0004 H   0  0  0  0  0  0  0  0  0  0  0  0
   -1.9151   -0.5871   -0.7161 H   0  0  0  0  0  0  0  0  0  0  0  0
   -1.4688   -3.0651   -0.1709 H   0  0  0  0  0  0  0  0  0  0  0  0
   -0.4391   -2.3581   -1.4433 H   0  0  0  0  0  0  0  0  0  0  0  0
    0.3617   -2.4647    1.4963 H   0  0  0  0  0  0  0  0  0  0  0  0
    0.8099   -3.7197    0.3173 H   0  0  0  0  0  0  0  0  0  0  0  0
    2.5814   -1.9485    0.6476 H   0  0  0  0  0  0  0  0  0  0  0  0
    2.0200   -2.0993   -1.0359 H   0  0  0  0  0  0  0  0  0  0  0  0
  1  2  1  0  0  0  0
  1 27  1  0  0  0  0
  1 28  1  0  0  0  0
  1 29  1  0  0  0  0
  2  3  1  0  0  0  0
  3  8  2  0  0  0  0
  3  4  1  0  0  0  0
  4  5  2  0  0  0  0
  4 30  1  0  0  0  0
  5  6  1  0  0  0  0
  5 31  1  0  0  0  0
  6  7  2  0  0  0  0
  6  9  1  0  0  0  0
  7  8  1  0  0  0  0
  7 32  1  0  0  0  0
  8 33  1  0  0  0  0
  9 10  2  0  0  0  0
  9 34  1  0  0  0  0
 10 11  1  0  0  0  0
 11 12  1  0  0  0  0
 11 35  1  0  0  0  0
 12 22  1  0  0  0  0
 12 13  2  0  0  0  0
 13 15  1  0  0  0  0
 14 22  1  0  0  0  0
 15 16  2  0  0  0  0
 15 17  1  0  0  0  0
 17 18  1  0  0  0  0
 17 21  2  0  0  0  0
 18 26  1  0  0  0  0
 18 19  2  0  0  0  0
 19 20  1  0  0  0  0
 19 23  1  0  0  0  0
 20 21  1  0  0  0  0
 21 22  1  0  0  0  0
 23 24  1  0  0  0  0
 23 36  1  0  0  0  0
 23 37  1  0  0  0  0
 24 25  1  0  0  0  0
 24 38  1  0  0  0  0
 24 39  1  0  0  0  0
 25 26  1  0  0  0  0
 25 40  1  0  0  0  0
 25 41  1  0  0  0  0
 26 42  1  0  0  0  0
 26 43  1  0  0  0  0
M  END
$$$$
ZINC03903097
  -OEChem-08230709453D

 43 46  0     0  0  0  0  0  0999 V2000
    0.8481   11.5964    0.0602 C   0  0  0  0  0  0  0  0  0  0  0  0
    2.2765   11.5567    0.0464 O   0  0  0  0  0  0  0  0  0  0  0  0
    2.8594   10.3296    0.0340 C   0  0  0  0  0  0  0  0  0  0  0  0
    4.2439   10.2209    0.0203 C   0  0  0  0  0  0  0  0  0  0  0  0
    4.8396    8.9782    0.0072 C   0  0  0  0  0  0  0  0  0  0  0  0
    4.0483    7.8265    0.0080 C   0  0  0  0  0  0  0  0  0  0  0  0
    2.6556    7.9408    0.0160 C   0  0  0  0  0  0  0  0  0  0  0  0
    2.0689    9.1876    0.0347 C   0  0  0  0  0  0  0  0  0  0  0  0
    4.6808    6.4949   -0.0059 C   0  0  0  0  0  0  0  0  0  0  0  0
    3.9439    5.4262   -0.0052 N   0  0  0  0  0  0  0  0  0  0  0  0
    4.5449    4.1608   -0.0183 N   0  0  0  0  0  0  0  0  0  0  0  0
    3.7653    3.0303   -0.0177 C   0  0  0  0  0  0  0  0  0  0  0  0
    4.3784    1.8144   -0.0306 N   0  0  0  0  0  0  0  0  0  0  0  0
    2.0177    4.0708    0.0051 H   0  0  0  0  0  0  0  0  0  0  0  0
    3.6964    0.6450   -0.0299 C   0  0  0  0  0  0  0  0  0  0  0  0
    4.2626   -0.4345   -0.0406 O   0  0  0  0  0  0  0  0  0  0  0  0
    2.2672    0.7544   -0.0166 C   0  0  0  0  0  0  0  0  0  0  0  0
    1.3121   -0.3410   -0.0136 C   0  0  0  0  0  0  0  0  0  0  0  0
    0.0021   -0.0041   -0.0003 C   0  0  0  0  0  0  0  0  0  0  0  0
   -0.0220    1.7709    0.0098 S   0  0  0  0  0  0  0  0  0  0  0  0
    1.7194    2.0577   -0.0044 C   0  0  0  0  0  0  0  0  0  0  0  0
    2.4467    3.1676   -0.0045 N   0  0  0  0  0  0  0  0  0  0  0  0
   -1.1734   -0.9320    0.0043 C   0  0  0  0  0  0  0  0  0  0  0  0
   -0.6867   -2.3359   -0.3820 C   0  0  0  0  0  0  0  0  0  0  0  0
    0.5604   -2.6662    0.4436 C   0  0  0  0  0  0  0  0  0  0  0  0
    1.7353   -1.8076   -0.0250 C   0  0  0  0  0  0  0  0  0  0  0  0
    0.5135   12.6337    0.0691 H   0  0  0  0  0  0  0  0  0  0  0  0
    0.4622   11.0977   -0.8290 H   0  0  0  0  0  0  0  0  0  0  0  0
    0.4791   11.0878    0.9509 H   0  0  0  0  0  0  0  0  0  0  0  0
    4.8547   11.1116    0.0195 H   0  0  0  0  0  0  0  0  0  0  0  0
    5.9163    8.8947   -0.0038 H   0  0  0  0  0  0  0  0  0  0  0  0
    2.0401    7.0533    0.0120 H   0  0  0  0  0  0  0  0  0  0  0  0
    0.9926    9.2769    0.0458 H   0  0  0  0  0  0  0  0  0  0  0  0
    5.7573    6.4084   -0.0166 H   0  0  0  0  0  0  0  0  0  0  0  0
    5.5118    4.0832   -0.0279 H   0  0  0  0  0  0  0  0  0  0  0  0
   -1.6151   -0.9587    1.0004 H   0  0  0  0  0  0  0  0  0  0  0  0
   -1.9151   -0.5871   -0.7161 H   0  0  0  0  0  0  0  0  0  0  0  0
   -1.4688   -3.0651   -0.1709 H   0  0  0  0  0  0  0  0  0  0  0  0
   -0.4391   -2.3581   -1.4433 H   0  0  0  0  0  0  0  0  0  0  0  0
    0.3617   -2.4647    1.4963 H   0  0  0  0  0  0  0  0  0  0  0  0
    0.8099   -3.7197    0.3173 H   0  0  0  0  0  0  0  0  0  0  0  0
    2.5814   -1.9485    0.6476 H   0  0  0  0  0  0  0  0  0  0  0  0
    2.0200   -2.0993   -1.0359 H   0  0  0  0  0  0  0  0  0  0  0  0
  1  2  1  0  0  0  0
  1 27  1  0  0  0  0
  1 28  1  0  0  0  0
  1 29  1  0  0  0  0
  2  3  1  0  0  0  0
  3  8  2  0  0  0  0
  3  4  1  0  0  0  0
  4  5  2  0  0  0  0
  4 30  1  0  0  0  0
  5  6  1  0  0  0  0
  5 31  1  0  0  0  0
  6  7  2  0  0  0  0
  6  9  1  0  0  0  0
  7  8  1  0  0  0  0
  7 32  1  0  0  0  0
  8 33  1  0  0  0  0
  9 10  2  0  0  0  0
  9 34  1  0  0  0  0
 10 11  1  0  0  0  0
 11 12  1  0  0  0  0
 11 35  1  0  0  0  0
 12 22  1  0  0  0  0
 12 13  2  0  0  0  0
 13 15  1  0  0  0  0
 14 22  1  0  0  0  0
 15 16  2  0  0  0  0
 15 17  1  0  0  0  0
 17 18  1  0  0  0  0
 17 21  2  0  0  0  0
 18 26  1  0  0  0  0
 18 19  2  0  0  0  0
 19 20  1  0  0  0  0
 19 23  1  0  0  0  0
 20 21  1  0  0  0  0
 21 22  1  0  0  0  0
 23 24  1  0  0  0  0
 23 36  1  0  0  0  0
 23 37  1  0  0  0  0
 24 25  1  0  0  0  0
 24 38  1  0  0  0  0
 24 39  1  0  0  0  0
 25 26  1  0  0  0  0
 25 40  1  0  0  0  0
 25 41  1  0  0  0  0
 26 42  1  0  0  0  0
 26 43  1  0  0  0  0
M  END
$$$$
ZINC03903097
  -OEChem-08230709453D

 43 46  0     0  0  0  0  0  0999 V2000
    0.8482   11.5963    0.0668 C   0  0  0  0  0  0  0  0  0  0  0  0
    2.2766   11.5566    0.0521 O   0  0  0  0  0  0  0  0  0  0  0  0
    2.8595   10.3296    0.0387 C   0  0  0  0  0  0  0  0  0  0  0  0
    4.2440   10.2209    0.0241 C   0  0  0  0  0  0  0  0  0  0  0  0
    4.8397    8.9782    0.0100 C   0  0  0  0  0  0  0  0  0  0  0  0
    4.0484    7.8265    0.0107 C   0  0  0  0  0  0  0  0  0  0  0  0
    2.6557    7.9408    0.0196 C   0  0  0  0  0  0  0  0  0  0  0  0
    2.0690    9.1876    0.0393 C   0  0  0  0  0  0  0  0  0  0  0  0
    4.6809    6.4949   -0.0043 C   0  0  0  0  0  0  0  0  0  0  0  0
    3.9439    5.4262   -0.0037 N   0  0  0  0  0  0  0  0  0  0  0  0
    4.5449    4.1608   -0.0179 N   0  0  0  0  0  0  0  0  0  0  0  0
    3.7653    3.0303   -0.0174 C   0  0  0  0  0  0  0  0  0  0  0  0
    4.3784    1.8144   -0.0314 N   0  0  0  0  0  0  0  0  0  0  0  0
    3.5825   -1.1676   -0.0370 H   0  0  0  0  0  0  0  0  0  0  0  0
    3.6964    0.6450   -0.0299 C   0  0  0  0  0  0  0  0  0  0  0  0
    4.2626   -0.4345   -0.0405 O   0  0  0  0  0  0  0  0  0  0  0  0
    2.2672    0.7544   -0.0159 C   0  0  0  0  0  0  0  0  0  0  0  0
    1.3121   -0.3410   -0.0129 C   0  0  0  0  0  0  0  0  0  0  0  0
    0.0021   -0.0041   -0.0008 C   0  0  0  0  0  0  0  0  0  0  0  0
   -0.0220    1.7709    0.0109 S   0  0  0  0  0  0  0  0  0  0  0  0
    1.7194    2.0577   -0.0032 C   0  0  0  0  0  0  0  0  0  0  0  0
    2.4467    3.1676   -0.0032 N   0  0  0  0  0  0  0  0  0  0  0  0
   -1.1734   -0.9320    0.0030 C   0  0  0  0  0  0  0  0  0  0  0  0
   -0.6866   -2.3357   -0.3840 C   0  0  0  0  0  0  0  0  0  0  0  0
    0.5602   -2.6664    0.4418 C   0  0  0  0  0  0  0  0  0  0  0  0
    1.7353   -1.8076   -0.0259 C   0  0  0  0  0  0  0  0  0  0  0  0
    0.5136   12.6336    0.0765 H   0  0  0  0  0  0  0  0  0  0  0  0
    0.4617   11.0982   -0.8224 H   0  0  0  0  0  0  0  0  0  0  0  0
    0.4797   11.0873    0.9575 H   0  0  0  0  0  0  0  0  0  0  0  0
    4.8548   11.1115    0.0234 H   0  0  0  0  0  0  0  0  0  0  0  0
    5.9164    8.8947   -0.0017 H   0  0  0  0  0  0  0  0  0  0  0  0
    2.0402    7.0533    0.0155 H   0  0  0  0  0  0  0  0  0  0  0  0
    0.9927    9.2769    0.0512 H   0  0  0  0  0  0  0  0  0  0  0  0
    5.7573    6.4084   -0.0157 H   0  0  0  0  0  0  0  0  0  0  0  0
    5.5118    4.0832   -0.0281 H   0  0  0  0  0  0  0  0  0  0  0  0
   -1.6154   -0.9593    0.9989 H   0  0  0  0  0  0  0  0  0  0  0  0
   -1.9149   -0.5867   -0.7175 H   0  0  0  0  0  0  0  0  0  0  0  0
   -1.4687   -3.0650   -0.1735 H   0  0  0  0  0  0  0  0  0  0  0  0
   -0.4387   -2.3572   -1.4452 H   0  0  0  0  0  0  0  0  0  0  0  0
    0.3612   -2.4656    1.4945 H   0  0  0  0  0  0  0  0  0  0  0  0
    0.8098   -3.7198    0.3150 H   0  0  0  0  0  0  0  0  0  0  0  0
    2.5812   -1.9489    0.6468 H   0  0  0  0  0  0  0  0  0  0  0  0
    2.0203   -2.0987   -1.0370 H   0  0  0  0  0  0  0  0  0  0  0  0
  1  2  1  0  0  0  0
  1 27  1  0  0  0  0
  1 28  1  0  0  0  0
  1 29  1  0  0  0  0
  2  3  1  0  0  0  0
  3  8  2  0  0  0  0
  3  4  1  0  0  0  0
  4  5  2  0  0  0  0
  4 30  1  0  0  0  0
  5  6  1  0  0  0  0
  5 31  1  0  0  0  0
  6  7  2  0  0  0  0
  6  9  1  0  0  0  0
  7  8  1  0  0  0  0
  7 32  1  0  0  0  0
  8 33  1  0  0  0  0
  9 10  2  0  0  0  0
  9 34  1  0  0  0  0
 10 11  1  0  0  0  0
 11 12  1  0  0  0  0
 11 35  1  0  0  0  0
 12 22  2  0  0  0  0
 12 13  1  0  0  0  0
 13 15  2  0  0  0  0
 14 16  1  0  0  0  0
 15 16  1  0  0  0  0
 15 17  1  0  0  0  0
 17 18  1  0  0  0  0
 17 21  2  0  0  0  0
 18 26  1  0  0  0  0
 18 19  2  0  0  0  0
 19 20  1  0  0  0  0
 19 23  1  0  0  0  0
 20 21  1  0  0  0  0
 21 22  1  0  0  0  0
 23 24  1  0  0  0  0
 23 36  1  0  0  0  0
 23 37  1  0  0  0  0
 24 25  1  0  0  0  0
 24 38  1  0  0  0  0
 24 39  1  0  0  0  0
 25 26  1  0  0  0  0
 25 40  1  0  0  0  0
 25 41  1  0  0  0  0
 26 42  1  0  0  0  0
 26 43  1  0  0  0  0
M  END
$$$$
ZINC03904154
  -OEChem-08230709453D

 48 50  0     0  0  0  0  0  0999 V2000
    4.1779    4.2482    6.2815 C   0  0  0  0  0  0  0  0  0  0  0  0
    3.4536    5.4540    6.8224 C   0  0  0  0  0  0  0  0  0  0  0  0
    2.4936    6.0934    6.0486 C   0  0  0  0  0  0  0  0  0  0  0  0
    1.8242    7.2009    6.5529 C   0  0  0  0  0  0  0  0  0  0  0  0
    2.1181    7.6667    7.8197 C   0  0  0  0  0  0  0  0  0  0  0  0
    3.0777    7.0319    8.5861 C   0  0  0  0  0  0  0  0  0  0  0  0
    3.7471    5.9279    8.0870 C   0  0  0  0  0  0  0  0  0  0  0  0
    4.9513    5.1339    9.0529 Cl  0  0  0  0  0  0  0  0  0  0  0  0
    2.1976    5.6196    4.7668 N   0  0  0  0  0  0  0  0  0  0  0  0
    0.9606    5.8714    4.2059 C   0  0  0  0  0  0  0  0  0  0  0  0
    0.7177    5.5239    2.9440 N   0  0  0  0  0  0  0  0  0  0  0  0
   -0.4650    5.7647    2.4065 C   0  0  0  0  0  0  0  0  0  0  0  0
   -1.4097    6.3561    3.1170 N   0  0  0  0  0  0  0  0  0  0  0  0
   -1.1762    6.7017    4.3810 C   0  0  0  0  0  0  0  0  0  0  0  0
    0.0119    6.4611    4.9249 N   0  0  0  0  0  0  0  0  0  0  0  0
   -2.1649    7.3140    5.1238 N   0  0  0  0  0  0  0  0  0  0  0  0
   -0.7357    5.3696    0.9776 C   0  0  0  0  0  0  0  0  0  0  0  0
   -0.2960    3.0364    1.4968 C   0  0  0  0  0  0  0  0  0  0  0  0
   -0.6800    1.6051    1.2340 C   0  0  0  0  0  0  0  0  0  0  0  0
    0.0221    1.1404   -0.0592 C   0  0  0  0  0  0  0  0  0  0  0  0
   -0.6561    1.6244   -1.2566 C   0  0  0  0  0  0  0  0  0  0  0  0
   -0.6859    3.1656   -1.3267 C   0  0  0  0  0  0  0  0  0  0  0  0
   -1.7703    3.6641   -0.4108 C   0  0  0  0  0  0  0  0  0  0  0  0
    5.0779    4.5699    5.7573 H   0  0  0  0  0  0  0  0  0  0  0  0
    4.4531    3.5899    7.1055 H   0  0  0  0  0  0  0  0  0  0  0  0
    3.5267    3.7128    5.5906 H   0  0  0  0  0  0  0  0  0  0  0  0
    1.0746    7.6977    5.9548 H   0  0  0  0  0  0  0  0  0  0  0  0
    1.5978    8.5281    8.2117 H   0  0  0  0  0  0  0  0  0  0  0  0
    3.3053    7.3980    9.5763 H   0  0  0  0  0  0  0  0  0  0  0  0
    2.8609    5.1141    4.2714 H   0  0  0  0  0  0  0  0  0  0  0  0
   -1.9928    7.5691    6.0436 H   0  0  0  0  0  0  0  0  0  0  0  0
   -3.0321    7.4893    4.7260 H   0  0  0  0  0  0  0  0  0  0  0  0
    0.1919    5.4128    0.4068 H   0  0  0  0  0  0  0  0  0  0  0  0
   -1.4624    6.0556    0.5424 H   0  0  0  0  0  0  0  0  0  0  0  0
    0.6806    3.2266    1.0515 H   0  0  0  0  0  0  0  0  0  0  0  0
   -0.2262    3.1886    2.5739 H   0  0  0  0  0  0  0  0  0  0  0  0
   -1.7605    1.5309    1.1110 H   0  0  0  0  0  0  0  0  0  0  0  0
   -0.3599    0.9817    2.0688 H   0  0  0  0  0  0  0  0  0  0  0  0
    0.0411    0.0507   -0.0795 H   0  0  0  0  0  0  0  0  0  0  0  0
    1.0469    1.5118   -0.0584 H   0  0  0  0  0  0  0  0  0  0  0  0
   -0.1388    1.2403   -2.1358 H   0  0  0  0  0  0  0  0  0  0  0  0
   -1.6803    1.2516   -1.2582 H   0  0  0  0  0  0  0  0  0  0  0  0
    0.2763    3.5654   -1.0066 H   0  0  0  0  0  0  0  0  0  0  0  0
   -0.8955    3.4818   -2.3485 H   0  0  0  0  0  0  0  0  0  0  0  0
   -2.2210    4.5535   -0.8511 H   0  0  0  0  0  0  0  0  0  0  0  0
   -2.5346    2.8925   -0.3183 H   0  0  0  0  0  0  0  0  0  0  0  0
   -1.3105    4.0151    0.9761 N   0  3  0  0  0  0  0  0  0  0  0  0
   -2.1253    3.9999    1.6008 H   0  0  0  0  0  0  0  0  0  0  0  0
  1  2  1  0  0  0  0
  1 24  1  0  0  0  0
  1 25  1  0  0  0  0
  1 26  1  0  0  0  0
  2  7  2  0  0  0  0
  2  3  1  0  0  0  0
  3  4  2  0  0  0  0
  3  9  1  0  0  0  0
  4  5  1  0  0  0  0
  4 27  1  0  0  0  0
  5  6  2  0  0  0  0
  5 28  1  0  0  0  0
  6  7  1  0  0  0  0
  6 29  1  0  0  0  0
  7  8  1  0  0  0  0
  9 10  1  0  0  0  0
  9 30  1  0  0  0  0
 10 15  2  0  0  0  0
 10 11  1  0  0  0  0
 11 12  2  0  0  0  0
 12 13  1  0  0  0  0
 12 17  1  0  0  0  0
 13 14  2  0  0  0  0
 14 15  1  0  0  0  0
 14 16  1  0  0  0  0
 16 31  1  0  0  0  0
 16 32  1  0  0  0  0
 17 33  1  0  0  0  0
 17 34  1  0  0  0  0
 17 47  1  0  0  0  0
 18 19  1  0  0  0  0
 18 35  1  0  0  0  0
 18 36  1  0  0  0  0
 18 47  1  0  0  0  0
 19 20  1  0  0  0  0
 19 37  1  0  0  0  0
 19 38  1  0  0  0  0
 20 21  1  0  0  0  0
 20 39  1  0  0  0  0
 20 40  1  0  0  0  0
 21 22  1  0  0  0  0
 21 41  1  0  0  0  0
 21 42  1  0  0  0  0
 22 23  1  0  0  0  0
 22 43  1  0  0  0  0
 22 44  1  0  0  0  0
 23 45  1  0  0  0  0
 23 46  1  0  0  0  0
 23 47  1  0  0  0  0
 47 48  1  0  0  0  0
M  CHG  1  47   1
M  END
$$$$
ZINC03907213
  -OEChem-08230709453D

 41 43  0     0  0  0  0  0  0999 V2000
    0.6134    1.6758    8.5089 C   0  0  0  0  0  0  0  0  0  0  0  0
    0.6932    0.9608    7.1848 C   0  0  0  0  0  0  0  0  0  0  0  0
    1.3736   -0.2394    7.0878 C   0  0  0  0  0  0  0  0  0  0  0  0
    1.4484   -0.8990    5.8749 C   0  0  0  0  0  0  0  0  0  0  0  0
    0.8393   -0.3631    4.7569 C   0  0  0  0  0  0  0  0  0  0  0  0
    0.1604    0.8445    4.8497 C   0  0  0  0  0  0  0  0  0  0  0  0
    0.0867    1.5044    6.0697 C   0  0  0  0  0  0  0  0  0  0  0  0
   -0.4531    1.3927    3.7179 N   0  0  0  0  0  0  0  0  0  0  0  0
    0.0969    1.2147    2.5004 C   0  0  0  0  0  0  0  0  0  0  0  0
    1.1717    0.6626    2.3954 O   0  0  0  0  0  0  0  0  0  0  0  0
   -0.6235    1.7016    1.2696 C   0  0  0  0  0  0  0  0  0  0  0  0
    0.2106    1.3773    0.0286 C   0  0  0  0  0  0  0  0  0  0  0  0
   -0.5208    1.8717   -1.2210 C   0  0  0  0  0  0  0  0  0  0  0  0
    0.2778    1.5611   -2.4092 N   0  0  0  0  0  0  0  0  0  0  0  0
    0.1052    0.3829   -3.0499 C   0  0  0  0  0  0  0  0  0  0  0  0
   -0.7109   -0.4263   -2.6463 O   0  0  0  0  0  0  0  0  0  0  0  0
    0.8778    0.1069   -4.1827 C   0  0  0  0  0  0  0  0  0  0  0  0
    1.8205    1.0193   -4.6643 C   0  0  0  0  0  0  0  0  0  0  0  0
    2.5104    0.6026   -5.7991 C   0  0  0  0  0  0  0  0  0  0  0  0
    2.2429   -0.6053   -6.3472 C   0  0  0  0  0  0  0  0  0  0  0  0
    1.0059   -1.2498   -5.3165 S   0  0  0  0  0  0  0  0  0  0  0  0
    1.9395    2.2190   -3.9433 N   0  0  0  0  0  0  0  0  0  0  0  0
    2.6005    2.9091   -4.2381 H   0  0  0  0  0  0  0  0  0  0  0  0
    1.1773    2.4499   -2.8645 C   0  0  0  0  0  0  0  0  0  0  0  0
    1.3082    3.5036   -2.2718 O   0  0  0  0  0  0  0  0  0  0  0  0
   -0.2707    1.3396    9.0506 H   0  0  0  0  0  0  0  0  0  0  0  0
    1.5049    1.4547    9.0956 H   0  0  0  0  0  0  0  0  0  0  0  0
    0.5481    2.7504    8.3382 H   0  0  0  0  0  0  0  0  0  0  0  0
    1.8471   -0.6625    7.9613 H   0  0  0  0  0  0  0  0  0  0  0  0
    1.9801   -1.8363    5.8025 H   0  0  0  0  0  0  0  0  0  0  0  0
    0.8943   -0.8810    3.8108 H   0  0  0  0  0  0  0  0  0  0  0  0
   -0.4441    2.4419    6.1460 H   0  0  0  0  0  0  0  0  0  0  0  0
   -1.2742    1.9009    3.8095 H   0  0  0  0  0  0  0  0  0  0  0  0
   -0.7703    2.7796    1.3371 H   0  0  0  0  0  0  0  0  0  0  0  0
   -1.5920    1.2070    1.1959 H   0  0  0  0  0  0  0  0  0  0  0  0
    0.3574    0.2994   -0.0389 H   0  0  0  0  0  0  0  0  0  0  0  0
    1.1791    1.8720    0.1023 H   0  0  0  0  0  0  0  0  0  0  0  0
   -1.4893    1.3770   -1.2947 H   0  0  0  0  0  0  0  0  0  0  0  0
   -0.6677    2.9496   -1.1534 H   0  0  0  0  0  0  0  0  0  0  0  0
    3.2591    1.2428   -6.2418 H   0  0  0  0  0  0  0  0  0  0  0  0
    2.6918   -1.0591   -7.2184 H   0  0  0  0  0  0  0  0  0  0  0  0
  1  2  1  0  0  0  0
  1 26  1  0  0  0  0
  1 27  1  0  0  0  0
  1 28  1  0  0  0  0
  2  7  2  0  0  0  0
  2  3  1  0  0  0  0
  3  4  2  0  0  0  0
  3 29  1  0  0  0  0
  4  5  1  0  0  0  0
  4 30  1  0  0  0  0
  5  6  2  0  0  0  0
  5 31  1  0  0  0  0
  6  7  1  0  0  0  0
  6  8  1  0  0  0  0
  7 32  1  0  0  0  0
  8  9  1  0  0  0  0
  8 33  1  0  0  0  0
  9 10  2  0  0  0  0
  9 11  1  0  0  0  0
 11 12  1  0  0  0  0
 11 34  1  0  0  0  0
 11 35  1  0  0  0  0
 12 13  1  0  0  0  0
 12 36  1  0  0  0  0
 12 37  1  0  0  0  0
 13 14  1  0  0  0  0
 13 38  1  0  0  0  0
 13 39  1  0  0  0  0
 14 24  1  0  0  0  0
 14 15  1  0  0  0  0
 15 16  2  0  0  0  0
 15 17  1  0  0  0  0
 17 21  1  0  0  0  0
 17 18  2  0  0  0  0
 18 19  1  0  0  0  0
 18 22  1  0  0  0  0
 19 20  2  0  0  0  0
 19 40  1  0  0  0  0
 20 21  1  0  0  0  0
 20 41  1  0  0  0  0
 22 23  1  0  0  0  0
 22 24  1  0  0  0  0
 24 25  2  0  0  0  0
M  END
$$$$
ZINC03911680
  -OEChem-08230709453D

 43 45  0     0  0  0  0  0  0999 V2000
   10.3444    1.9044   -4.7635 C   0  0  0  0  0  0  0  0  0  0  0  0
    9.5338    2.0690   -3.5982 O   0  0  0  0  0  0  0  0  0  0  0  0
   10.1027    1.7641   -2.4033 C   0  0  0  0  0  0  0  0  0  0  0  0
   11.4087    1.3158   -2.3489 C   0  0  0  0  0  0  0  0  0  0  0  0
   11.9935    1.0030   -1.1314 C   0  0  0  0  0  0  0  0  0  0  0  0
   11.2830    1.1329    0.0477 C   0  0  0  0  0  0  0  0  0  0  0  0
    9.9642    1.5826    0.0191 C   0  0  0  0  0  0  0  0  0  0  0  0
    9.3672    1.9011   -1.2150 C   0  0  0  0  0  0  0  0  0  0  0  0
    7.9834    2.3720   -1.2329 C   0  0  0  0  0  0  0  0  0  0  0  0
    7.3212    2.4855   -0.0536 C   0  0  0  0  0  0  0  0  0  0  0  0
    7.9655    2.1588    1.1572 C   0  0  0  0  0  0  0  0  0  0  0  0
    7.3537    2.2725    2.2055 O   0  0  0  0  0  0  0  0  0  0  0  0
    9.2362    1.7202    1.1841 N   0  0  0  0  0  0  0  0  0  0  0  0
    9.6600    1.4904    2.0602 H   0  0  0  0  0  0  0  0  0  0  0  0
    5.8938    2.9684   -0.0378 C   0  0  0  0  0  0  0  0  0  0  0  0
    4.9483    1.7655   -0.0350 C   0  0  0  0  0  0  0  0  0  0  0  0
    3.5607    2.2350   -0.0196 N   0  0  0  0  0  0  0  0  0  0  0  0
    2.5483    1.3453   -0.0147 C   0  0  0  0  0  0  0  0  0  0  0  0
    2.7869    0.1519   -0.0230 O   0  0  0  0  0  0  0  0  0  0  0  0
    1.1599    1.8151    0.0007 C   0  0  0  0  0  0  0  0  0  0  0  0
   -0.0126    1.0758    0.0080 C   0  0  0  0  0  0  0  0  0  0  0  0
   -1.1931    1.7761    0.0172 C   0  0  0  0  0  0  0  0  0  0  0  0
   -1.1586    3.1345    0.0300 C   0  0  0  0  0  0  0  0  0  0  0  0
    0.5386    3.4874    0.0157 S   0  0  0  0  0  0  0  0  0  0  0  0
   11.8707    0.8214    1.2348 O   0  0  0  0  0  0  0  0  0  0  0  0
   13.2247    0.3668    1.1888 C   0  0  0  0  0  0  0  0  0  0  0  0
   11.2247    2.5427   -4.6868 H   0  0  0  0  0  0  0  0  0  0  0  0
   10.6566    0.8632   -4.8448 H   0  0  0  0  0  0  0  0  0  0  0  0
    9.7704    2.1817   -5.6476 H   0  0  0  0  0  0  0  0  0  0  0  0
   11.9776    1.2088   -3.2607 H   0  0  0  0  0  0  0  0  0  0  0  0
   13.0151    0.6537   -1.1036 H   0  0  0  0  0  0  0  0  0  0  0  0
    7.4983    2.6237   -2.1644 H   0  0  0  0  0  0  0  0  0  0  0  0
    5.7060    3.5761   -0.9229 H   0  0  0  0  0  0  0  0  0  0  0  0
    5.7226    3.5670    0.8569 H   0  0  0  0  0  0  0  0  0  0  0  0
    5.1361    1.1578    0.8501 H   0  0  0  0  0  0  0  0  0  0  0  0
    5.1195    1.1668   -0.9297 H   0  0  0  0  0  0  0  0  0  0  0  0
    3.3706    3.1861   -0.0130 H   0  0  0  0  0  0  0  0  0  0  0  0
    0.0021   -0.0041    0.0020 H   0  0  0  0  0  0  0  0  0  0  0  0
   -2.1383    1.2535    0.0184 H   0  0  0  0  0  0  0  0  0  0  0  0
   -1.9877    3.8265    0.0412 H   0  0  0  0  0  0  0  0  0  0  0  0
   13.8525    1.1394    0.7450 H   0  0  0  0  0  0  0  0  0  0  0  0
   13.5709    0.1538    2.2002 H   0  0  0  0  0  0  0  0  0  0  0  0
   13.2833   -0.5396    0.5863 H   0  0  0  0  0  0  0  0  0  0  0  0
  1  2  1  0  0  0  0
  1 27  1  0  0  0  0
  1 28  1  0  0  0  0
  1 29  1  0  0  0  0
  2  3  1  0  0  0  0
  3  8  2  0  0  0  0
  3  4  1  0  0  0  0
  4  5  2  0  0  0  0
  4 30  1  0  0  0  0
  5  6  1  0  0  0  0
  5 31  1  0  0  0  0
  6  7  2  0  0  0  0
  6 25  1  0  0  0  0
  7 13  1  0  0  0  0
  7  8  1  0  0  0  0
  8  9  1  0  0  0  0
  9 10  2  0  0  0  0
  9 32  1  0  0  0  0
 10 11  1  0  0  0  0
 10 15  1  0  0  0  0
 11 12  2  0  0  0  0
 11 13  1  0  0  0  0
 13 14  1  0  0  0  0
 15 16  1  0  0  0  0
 15 33  1  0  0  0  0
 15 34  1  0  0  0  0
 16 17  1  0  0  0  0
 16 35  1  0  0  0  0
 16 36  1  0  0  0  0
 17 18  1  0  0  0  0
 17 37  1  0  0  0  0
 18 19  2  0  0  0  0
 18 20  1  0  0  0  0
 20 24  1  0  0  0  0
 20 21  2  0  0  0  0
 21 22  1  0  0  0  0
 21 38  1  0  0  0  0
 22 23  2  0  0  0  0
 22 39  1  0  0  0  0
 23 24  1  0  0  0  0
 23 40  1  0  0  0  0
 25 26  1  0  0  0  0
 26 41  1  0  0  0  0
 26 42  1  0  0  0  0
 26 43  1  0  0  0  0
M  END
$$$$
ZINC03912804
  -OEChem-08230709453D

 39 40  0     0  0  0  0  0  0999 V2000
    4.4401    4.9506   -1.4721 C   0  0  0  0  0  0  0  0  0  0  0  0
    4.7452    6.1131   -2.1468 C   0  0  0  0  0  0  0  0  0  0  0  0
    6.0487    6.5919   -2.1553 C   0  0  0  0  0  0  0  0  0  0  0  0
    7.0496    5.9055   -1.4796 C   0  0  0  0  0  0  0  0  0  0  0  0
    6.7528    4.7459   -0.7972 C   0  0  0  0  0  0  0  0  0  0  0  0
    5.4424    4.2602   -0.7859 C   0  0  0  0  0  0  0  0  0  0  0  0
    5.1197    3.0199   -0.0571 C   0  0  0  0  0  0  0  0  0  0  0  0
    3.9022    2.5707   -0.0478 N   0  0  0  0  0  0  0  0  0  0  0  0
    3.5956    1.3921    0.6447 N   0  0  0  0  0  0  0  0  0  0  0  0
    2.3312    0.9256    0.6543 C   0  0  0  0  0  0  0  0  0  0  0  0
    1.9565   -0.5147    1.5006 S   0  0  0  0  0  0  0  0  0  0  0  0
    1.3617    1.5929   -0.0024 N   0  0  0  0  0  0  0  0  0  0  0  0
   -0.0127    1.0858    0.0080 C   0  0  0  0  0  0  0  0  0  0  0  0
   -0.7288    1.5792    1.2668 C   0  0  0  0  0  0  0  0  0  0  0  0
   -2.1642    1.0497    1.2777 C   0  0  0  0  0  0  0  0  0  0  0  0
   -2.9042    1.5565    0.0381 C   0  0  0  0  0  0  0  0  0  0  0  0
   -2.1881    1.0631   -1.2207 C   0  0  0  0  0  0  0  0  0  0  0  0
   -0.7527    1.5927   -1.2315 C   0  0  0  0  0  0  0  0  0  0  0  0
    8.4372    6.4208   -1.4923 N   0  3  0  0  0  0  0  0  0  0  0  0
    9.3154    5.8199   -0.8998 O   0  0  0  0  0  0  0  0  0  0  0  0
    8.7006    7.4458   -2.0953 O   0  5  0  0  0  0  0  0  0  0  0  0
    3.4270    4.5764   -1.4700 H   0  0  0  0  0  0  0  0  0  0  0  0
    3.9701    6.6500   -2.6735 H   0  0  0  0  0  0  0  0  0  0  0  0
    7.5315    4.2132   -0.2715 H   0  0  0  0  0  0  0  0  0  0  0  0
    5.8966    2.4852    0.4692 H   0  0  0  0  0  0  0  0  0  0  0  0
    4.2933    0.9118    1.1173 H   0  0  0  0  0  0  0  0  0  0  0  0
    1.5740    2.4089   -0.4819 H   0  0  0  0  0  0  0  0  0  0  0  0
    0.0021   -0.0041    0.0020 H   0  0  0  0  0  0  0  0  0  0  0  0
   -0.2017    1.2182    2.1499 H   0  0  0  0  0  0  0  0  0  0  0  0
   -0.7436    2.6691    1.2728 H   0  0  0  0  0  0  0  0  0  0  0  0
   -2.6744    1.4012    2.1745 H   0  0  0  0  0  0  0  0  0  0  0  0
   -2.1494   -0.0402    1.2717 H   0  0  0  0  0  0  0  0  0  0  0  0
   -2.9190    2.6464    0.0441 H   0  0  0  0  0  0  0  0  0  0  0  0
   -3.9268    1.1792    0.0459 H   0  0  0  0  0  0  0  0  0  0  0  0
   -2.7153    1.4241   -2.1037 H   0  0  0  0  0  0  0  0  0  0  0  0
   -2.1733   -0.0268   -1.2266 H   0  0  0  0  0  0  0  0  0  0  0  0
   -0.7675    2.6825   -1.2255 H   0  0  0  0  0  0  0  0  0  0  0  0
   -0.2425    1.2411   -2.1283 H   0  0  0  0  0  0  0  0  0  0  0  0
    6.3460    7.7348   -2.8268 O   0  5  0  0  0  0  0  0  0  0  0  0
  1  6  2  0  0  0  0
  1  2  1  0  0  0  0
  1 22  1  0  0  0  0
  2  3  2  0  0  0  0
  2 23  1  0  0  0  0
  3  4  1  0  0  0  0
  3 39  1  0  0  0  0
  4  5  2  0  0  0  0
  4 19  1  0  0  0  0
  5  6  1  0  0  0  0
  5 24  1  0  0  0  0
  6  7  1  0  0  0  0
  7  8  2  0  0  0  0
  7 25  1  0  0  0  0
  8  9  1  0  0  0  0
  9 10  1  0  0  0  0
  9 26  1  0  0  0  0
 10 11  2  0  0  0  0
 10 12  1  0  0  0  0
 12 13  1  0  0  0  0
 12 27  1  0  0  0  0
 13 18  1  0  0  0  0
 13 14  1  0  0  0  0
 13 28  1  0  0  0  0
 14 15  1  0  0  0  0
 14 29  1  0  0  0  0
 14 30  1  0  0  0  0
 15 16  1  0  0  0  0
 15 31  1  0  0  0  0
 15 32  1  0  0  0  0
 16 17  1  0  0  0  0
 16 33  1  0  0  0  0
 16 34  1  0  0  0  0
 17 18  1  0  0  0  0
 17 35  1  0  0  0  0
 17 36  1  0  0  0  0
 18 37  1  0  0  0  0
 18 38  1  0  0  0  0
 19 20  2  0  0  0  0
 19 21  1  0  0  0  0
M  CHG  3  19   1  21  -1  39  -1
M  END
$$$$
ZINC03913124
  -OEChem-08230709453D

 41 43  0     1  0  0  0  0  0999 V2000
    1.1682    2.0860   -0.0167 C   0  0  0  0  0  0  0  0  0  0  0  0
    2.1113    1.4123   -0.7709 C   0  0  0  0  0  0  0  0  0  0  0  0
    2.1370    0.0314   -0.7742 C   0  0  0  0  0  0  0  0  0  0  0  0
    1.2143   -0.6805   -0.0189 C   0  0  0  0  0  0  0  0  0  0  0  0
    0.2684   -0.0009    0.7374 C   0  0  0  0  0  0  0  0  0  0  0  0
    0.2481    1.3801    0.7364 C   0  0  0  0  0  0  0  0  0  0  0  0
    1.2373   -2.0795   -0.0204 N   0  0  0  0  0  0  0  0  0  0  0  0
    2.4096   -2.7341   -0.1369 C   0  0  0  0  0  0  0  0  0  0  0  0
    3.4521   -2.1143   -0.1440 O   0  0  0  0  0  0  0  0  0  0  0  0
    2.4252   -4.2361   -0.2581 C   0  0  0  0  0  0  0  0  0  0  0  0
    3.8707   -4.7234   -0.3760 C   0  0  2  0  0  0  0  0  0  0  0  0
    4.3901   -4.2230   -1.1933 H   0  0  0  0  0  0  0  0  0  0  0  0
    3.9364   -6.2382   -0.5207 C   0  0  0  0  0  0  0  0  0  0  0  0
    4.5421   -6.8646    0.4148 N   0  0  0  0  0  0  0  0  0  0  0  0
    5.1065   -6.2665    1.4878 C   0  0  0  0  0  0  0  0  0  0  0  0
    5.7479   -6.8284    2.4954 N   0  0  0  0  0  0  0  0  0  0  0  0
    5.9091   -8.2195    2.5347 N   0  0  0  0  0  0  0  0  0  0  0  0
    6.5382   -8.7707    3.5232 C   0  0  0  0  0  0  0  0  0  0  0  0
    7.1601   -8.0533    4.7031 C   0  0  0  0  0  0  0  0  0  0  0  0
    7.7937   -9.1358    5.6014 C   0  0  0  0  0  0  0  0  0  0  0  0
    8.0390  -10.3191    4.6310 C   0  0  0  0  0  0  0  0  0  0  0  0
    6.7949  -10.2555    3.7106 C   0  0  0  0  0  0  0  0  0  0  0  0
    4.7757   -4.5290    1.2126 S   0  0  0  0  0  0  0  0  0  0  0  0
    3.3896   -6.8786   -1.5697 O   0  0  0  0  0  0  0  0  0  0  0  0
    1.1503    3.1659   -0.0158 H   0  0  0  0  0  0  0  0  0  0  0  0
    2.8315    1.9666   -1.3546 H   0  0  0  0  0  0  0  0  0  0  0  0
    2.8736   -0.4942   -1.3637 H   0  0  0  0  0  0  0  0  0  0  0  0
   -0.4507   -0.5517    1.3255 H   0  0  0  0  0  0  0  0  0  0  0  0
   -0.4870    1.9092    1.3247 H   0  0  0  0  0  0  0  0  0  0  0  0
    0.4094   -2.5783    0.0623 H   0  0  0  0  0  0  0  0  0  0  0  0
    1.9642   -4.6768    0.6259 H   0  0  0  0  0  0  0  0  0  0  0  0
    1.8676   -4.5348   -1.1458 H   0  0  0  0  0  0  0  0  0  0  0  0
    7.9257   -7.3595    4.3559 H   0  0  0  0  0  0  0  0  0  0  0  0
    6.3924   -7.5142    5.2580 H   0  0  0  0  0  0  0  0  0  0  0  0
    7.1083   -9.4285    6.3967 H   0  0  0  0  0  0  0  0  0  0  0  0
    8.7362   -8.7806    6.0181 H   0  0  0  0  0  0  0  0  0  0  0  0
    8.0724  -11.2643    5.1729 H   0  0  0  0  0  0  0  0  0  0  0  0
    8.9535  -10.1672    4.0577 H   0  0  0  0  0  0  0  0  0  0  0  0
    5.9406  -10.7318    4.1918 H   0  0  0  0  0  0  0  0  0  0  0  0
    7.0038  -10.7298    2.7517 H   0  0  0  0  0  0  0  0  0  0  0  0
    3.4739   -7.8417   -1.5886 H   0  0  0  0  0  0  0  0  0  0  0  0
  1  6  2  0  0  0  0
  1  2  1  0  0  0  0
  1 25  1  0  0  0  0
  2  3  2  0  0  0  0
  2 26  1  0  0  0  0
  3  4  1  0  0  0  0
  3 27  1  0  0  0  0
  4  5  2  0  0  0  0
  4  7  1  0  0  0  0
  5  6  1  0  0  0  0
  5 28  1  0  0  0  0
  6 29  1  0  0  0  0
  7  8  1  0  0  0  0
  7 30  1  0  0  0  0
  8  9  2  0  0  0  0
  8 10  1  0  0  0  0
 10 11  1  0  0  0  0
 10 31  1  0  0  0  0
 10 32  1  0  0  0  0
 11 12  1  0  0  0  0
 11 23  1  0  0  0  0
 11 13  1  0  0  0  0
 13 14  2  0  0  0  0
 13 24  1  0  0  0  0
 14 15  1  0  0  0  0
 15 16  2  0  0  0  0
 15 23  1  0  0  0  0
 16 17  1  0  0  0  0
 17 18  2  0  0  0  0
 18 22  1  0  0  0  0
 18 19  1  0  0  0  0
 19 20  1  0  0  0  0
 19 33  1  0  0  0  0
 19 34  1  0  0  0  0
 20 21  1  0  0  0  0
 20 35  1  0  0  0  0
 20 36  1  0  0  0  0
 21 22  1  0  0  0  0
 21 37  1  0  0  0  0
 21 38  1  0  0  0  0
 22 39  1  0  0  0  0
 22 40  1  0  0  0  0
 24 41  1  0  0  0  0
M  END
$$$$
ZINC03915332
  -OEChem-08230709453D

 41 43  0     1  0  0  0  0  0999 V2000
    8.0426   -8.6537    2.2151 C   0  0  0  0  0  0  0  0  0  0  0  0
    7.5263   -7.7885    3.3666 C   0  0  0  0  0  0  0  0  0  0  0  0
    6.4413   -6.8430    2.8473 C   0  0  0  0  0  0  0  0  0  0  0  0
    5.9469   -6.0146    3.9499 N   0  0  0  0  0  0  0  0  0  0  0  0
    4.9672   -5.0888    3.7231 C   0  0  0  0  0  0  0  0  0  0  0  0
    4.4492   -4.4133    4.7346 N   0  0  0  0  0  0  0  0  0  0  0  0
    4.9602   -4.5615    5.9807 C   0  0  0  0  0  0  0  0  0  0  0  0
    5.3886   -4.6858    7.0255 N   0  0  0  0  0  0  0  0  0  0  0  0
    4.5233   -4.8617    2.4514 N   0  0  0  0  0  0  0  0  0  0  0  0
    3.5146   -3.9086    2.2179 C   0  0  0  0  0  0  0  0  0  0  0  0
    2.8740   -3.1184    3.1904 C   0  0  0  0  0  0  0  0  0  0  0  0
    1.9799   -2.3455    2.5543 C   0  0  0  0  0  0  0  0  0  0  0  0
    2.0351   -2.6255    1.2022 N   0  0  0  0  0  0  0  0  0  0  0  0
    2.9762   -3.5799    1.0035 C   0  0  0  0  0  0  0  0  0  0  0  0
    3.2067   -4.0390   -0.4378 C   0  0  0  0  0  0  0  0  0  0  0  0
    2.3598   -2.6968   -1.3712 S   0  0  0  0  0  0  0  0  0  0  0  0
    1.3020   -2.1079    0.0144 C   0  0  2  0  0  0  0  0  0  0  0  0
    0.3034   -2.5405   -0.0461 H   0  0  0  0  0  0  0  0  0  0  0  0
    1.2335   -0.6027    0.0376 C   0  0  0  0  0  0  0  0  0  0  0  0
    0.0071    0.0441    0.0619 C   0  0  0  0  0  0  0  0  0  0  0  0
   -0.0076    1.4301    0.0822 C   0  0  0  0  0  0  0  0  0  0  0  0
    1.1921    2.1166    0.0775 C   0  0  0  0  0  0  0  0  0  0  0  0
    2.3400    1.4682    0.0536 N   0  0  0  0  0  0  0  0  0  0  0  0
    2.3920    0.1505    0.0343 C   0  0  0  0  0  0  0  0  0  0  0  0
    7.2198   -9.2369    1.8017 H   0  0  0  0  0  0  0  0  0  0  0  0
    8.4602   -8.0132    1.4383 H   0  0  0  0  0  0  0  0  0  0  0  0
    8.8155   -9.3273    2.5851 H   0  0  0  0  0  0  0  0  0  0  0  0
    8.3491   -7.2052    3.7800 H   0  0  0  0  0  0  0  0  0  0  0  0
    7.1087   -8.4290    4.1434 H   0  0  0  0  0  0  0  0  0  0  0  0
    5.6185   -7.4262    2.4339 H   0  0  0  0  0  0  0  0  0  0  0  0
    6.8589   -6.2025    2.0705 H   0  0  0  0  0  0  0  0  0  0  0  0
    6.3149   -6.1230    4.8408 H   0  0  0  0  0  0  0  0  0  0  0  0
    4.9033   -5.3573    1.7092 H   0  0  0  0  0  0  0  0  0  0  0  0
    3.0665   -3.1315    4.2530 H   0  0  0  0  0  0  0  0  0  0  0  0
    1.3256   -1.6246    3.0217 H   0  0  0  0  0  0  0  0  0  0  0  0
    4.2702   -4.0713   -0.6746 H   0  0  0  0  0  0  0  0  0  0  0  0
    2.7354   -5.0043   -0.6228 H   0  0  0  0  0  0  0  0  0  0  0  0
   -0.9147   -0.5187    0.0647 H   0  0  0  0  0  0  0  0  0  0  0  0
   -0.9447    1.9669    0.0970 H   0  0  0  0  0  0  0  0  0  0  0  0
    1.1893    3.1965    0.0932 H   0  0  0  0  0  0  0  0  0  0  0  0
    3.3511   -0.3456    0.0154 H   0  0  0  0  0  0  0  0  0  0  0  0
  1  2  1  0  0  0  0
  1 25  1  0  0  0  0
  1 26  1  0  0  0  0
  1 27  1  0  0  0  0
  2  3  1  0  0  0  0
  2 28  1  0  0  0  0
  2 29  1  0  0  0  0
  3  4  1  0  0  0  0
  3 30  1  0  0  0  0
  3 31  1  0  0  0  0
  4  5  1  0  0  0  0
  4 32  1  0  0  0  0
  5  6  2  0  0  0  0
  5  9  1  0  0  0  0
  6  7  1  0  0  0  0
  7  8  3  0  0  0  0
  9 10  1  0  0  0  0
  9 33  1  0  0  0  0
 10 14  2  0  0  0  0
 10 11  1  0  0  0  0
 11 12  2  0  0  0  0
 11 34  1  0  0  0  0
 12 13  1  0  0  0  0
 12 35  1  0  0  0  0
 13 17  1  0  0  0  0
 13 14  1  0  0  0  0
 14 15  1  0  0  0  0
 15 16  1  0  0  0  0
 15 36  1  0  0  0  0
 15 37  1  0  0  0  0
 16 17  1  0  0  0  0
 17 18  1  0  0  0  0
 17 19  1  0  0  0  0
 19 24  2  0  0  0  0
 19 20  1  0  0  0  0
 20 21  2  0  0  0  0
 20 38  1  0  0  0  0
 21 22  1  0  0  0  0
 21 39  1  0  0  0  0
 22 23  2  0  0  0  0
 22 40  1  0  0  0  0
 23 24  1  0  0  0  0
 24 41  1  0  0  0  0
M  END
$$$$
ZINC03915881
  -OEChem-08230709453D

 45 46  0     0  0  0  0  0  0999 V2000
    3.0288   -3.6314   -0.2329 C   0  0  0  0  0  0  0  0  0  0  0  0
    2.3769   -4.1191   -1.5283 C   0  0  0  0  0  0  0  0  0  0  0  0
    3.3475   -5.0379   -2.2731 C   0  0  0  0  0  0  0  0  0  0  0  0
    1.1520   -4.8573   -1.2107 N   0  0  0  0  0  0  0  0  0  0  0  0
   -0.0436   -4.1726   -1.0237 C   0  0  0  0  0  0  0  0  0  0  0  0
   -0.0660   -2.7889   -1.1402 C   0  0  0  0  0  0  0  0  0  0  0  0
   -1.2740   -2.1079   -0.9508 C   0  0  0  0  0  0  0  0  0  0  0  0
   -2.4171   -2.8558   -0.6442 C   0  0  0  0  0  0  0  0  0  0  0  0
   -2.3131   -4.2401   -0.5500 C   0  0  0  0  0  0  0  0  0  0  0  0
   -3.5124   -5.0429   -0.2321 C   0  0  0  0  0  0  0  0  0  0  0  0
   -3.6084   -6.4009   -0.2357 C   0  0  0  0  0  0  0  0  0  0  0  0
   -4.8588   -6.7248    0.1103 N   0  0  0  0  0  0  0  0  0  0  0  0
   -5.5501   -5.6366    0.3213 C   0  0  0  0  0  0  0  0  0  0  0  0
   -4.7550   -4.5648    0.1205 N   0  0  0  0  0  0  0  0  0  0  0  0
   -5.1410   -3.1577    0.2523 C   0  0  0  0  0  0  0  0  0  0  0  0
   -1.3398   -0.6389   -1.0652 C   0  0  0  0  0  0  0  0  0  0  0  0
   -0.2690    0.0388   -1.3448 N   0  0  0  0  0  0  0  0  0  0  0  0
   -0.3315    1.4341   -1.4535 N   0  0  0  0  0  0  0  0  0  0  0  0
   -1.6070    2.1277   -1.2575 C   0  0  0  0  0  0  0  0  0  0  0  0
    0.7806    2.1380   -1.7438 C   0  0  0  0  0  0  0  0  0  0  0  0
    2.2697    1.3268   -1.9798 S   0  0  0  0  0  0  0  0  0  0  0  0
    0.7204    3.4803   -1.8484 N   0  0  0  0  0  0  0  0  0  0  0  0
    3.2732   -4.4877    0.3956 H   0  0  0  0  0  0  0  0  0  0  0  0
    3.9402   -3.0821   -0.4692 H   0  0  0  0  0  0  0  0  0  0  0  0
    2.3373   -2.9768    0.2977 H   0  0  0  0  0  0  0  0  0  0  0  0
    2.1324   -3.2628   -2.1568 H   0  0  0  0  0  0  0  0  0  0  0  0
    2.8830   -5.3854   -3.1960 H   0  0  0  0  0  0  0  0  0  0  0  0
    4.2588   -4.4887   -2.5094 H   0  0  0  0  0  0  0  0  0  0  0  0
    3.5919   -5.8942   -1.6446 H   0  0  0  0  0  0  0  0  0  0  0  0
    1.1750   -5.8237   -1.1309 H   0  0  0  0  0  0  0  0  0  0  0  0
    0.8375   -2.2452   -1.3736 H   0  0  0  0  0  0  0  0  0  0  0  0
   -3.3665   -2.3658   -0.4866 H   0  0  0  0  0  0  0  0  0  0  0  0
   -2.8147   -7.0938   -0.4733 H   0  0  0  0  0  0  0  0  0  0  0  0
   -6.5903   -5.6005    0.6093 H   0  0  0  0  0  0  0  0  0  0  0  0
   -5.3803   -2.7530   -0.7310 H   0  0  0  0  0  0  0  0  0  0  0  0
   -6.0144   -3.0797    0.8998 H   0  0  0  0  0  0  0  0  0  0  0  0
   -4.3154   -2.5936    0.6864 H   0  0  0  0  0  0  0  0  0  0  0  0
   -2.2792   -0.1272   -0.9164 H   0  0  0  0  0  0  0  0  0  0  0  0
   -1.7216    2.3870   -0.2050 H   0  0  0  0  0  0  0  0  0  0  0  0
   -1.6227    3.0364   -1.8593 H   0  0  0  0  0  0  0  0  0  0  0  0
   -2.4257    1.4758   -1.5624 H   0  0  0  0  0  0  0  0  0  0  0  0
   -0.1233    3.9399   -1.7147 H   0  0  0  0  0  0  0  0  0  0  0  0
    1.5208    3.9868   -2.0573 H   0  0  0  0  0  0  0  0  0  0  0  0
   -1.1411   -4.9289   -0.7314 N   0  3  0  0  0  0  0  0  0  0  0  0
   -1.0924   -5.9515   -0.6520 H   0  0  0  0  0  0  0  0  0  0  0  0
  1  2  1  0  0  0  0
  1 23  1  0  0  0  0
  1 24  1  0  0  0  0
  1 25  1  0  0  0  0
  2  3  1  0  0  0  0
  2  4  1  0  0  0  0
  2 26  1  0  0  0  0
  3 27  1  0  0  0  0
  3 28  1  0  0  0  0
  3 29  1  0  0  0  0
  4  5  1  0  0  0  0
  4 30  1  0  0  0  0
  5  6  2  0  0  0  0
  5 44  1  0  0  0  0
  6  7  1  0  0  0  0
  6 31  1  0  0  0  0
  7  8  2  0  0  0  0
  7 16  1  0  0  0  0
  8  9  1  0  0  0  0
  8 32  1  0  0  0  0
  9 10  1  0  0  0  0
  9 44  2  0  0  0  0
 10 14  1  0  0  0  0
 10 11  2  0  0  0  0
 11 12  1  0  0  0  0
 11 33  1  0  0  0  0
 12 13  2  0  0  0  0
 13 14  1  0  0  0  0
 13 34  1  0  0  0  0
 14 15  1  0  0  0  0
 15 35  1  0  0  0  0
 15 36  1  0  0  0  0
 15 37  1  0  0  0  0
 16 17  2  0  0  0  0
 16 38  1  0  0  0  0
 17 18  1  0  0  0  0
 18 19  1  0  0  0  0
 18 20  1  0  0  0  0
 19 39  1  0  0  0  0
 19 40  1  0  0  0  0
 19 41  1  0  0  0  0
 20 21  2  0  0  0  0
 20 22  1  0  0  0  0
 22 42  1  0  0  0  0
 22 43  1  0  0  0  0
 44 45  1  0  0  0  0
M  CHG  1  44   1
M  END
$$$$
ZINC03915881
  -OEChem-08230709453D

 46 47  0     0  0  0  0  0  0999 V2000
    3.0288   -3.6314   -0.2329 C   0  0  0  0  0  0  0  0  0  0  0  0
    2.3769   -4.1191   -1.5283 C   0  0  0  0  0  0  0  0  0  0  0  0
    3.3475   -5.0379   -2.2731 C   0  0  0  0  0  0  0  0  0  0  0  0
    1.1520   -4.8573   -1.2107 N   0  0  0  0  0  0  0  0  0  0  0  0
   -0.0436   -4.1726   -1.0237 C   0  0  0  0  0  0  0  0  0  0  0  0
   -0.0660   -2.7889   -1.1402 C   0  0  0  0  0  0  0  0  0  0  0  0
   -1.2740   -2.1079   -0.9508 C   0  0  0  0  0  0  0  0  0  0  0  0
   -2.4171   -2.8558   -0.6442 C   0  0  0  0  0  0  0  0  0  0  0  0
   -2.3131   -4.2401   -0.5500 C   0  0  0  0  0  0  0  0  0  0  0  0
   -3.5124   -5.0429   -0.2321 C   0  0  0  0  0  0  0  0  0  0  0  0
   -3.6084   -6.4009   -0.2357 C   0  0  0  0  0  0  0  0  0  0  0  0
   -5.5501   -5.6366    0.3213 C   0  0  0  0  0  0  0  0  0  0  0  0
   -4.7550   -4.5648    0.1205 N   0  0  0  0  0  0  0  0  0  0  0  0
   -5.1410   -3.1577    0.2523 C   0  0  0  0  0  0  0  0  0  0  0  0
   -1.3398   -0.6389   -1.0652 C   0  0  0  0  0  0  0  0  0  0  0  0
   -0.2690    0.0388   -1.3448 N   0  0  0  0  0  0  0  0  0  0  0  0
   -0.3315    1.4341   -1.4535 N   0  0  0  0  0  0  0  0  0  0  0  0
   -1.6070    2.1277   -1.2575 C   0  0  0  0  0  0  0  0  0  0  0  0
    0.7806    2.1380   -1.7438 C   0  0  0  0  0  0  0  0  0  0  0  0
    2.2697    1.3268   -1.9798 S   0  0  0  0  0  0  0  0  0  0  0  0
    0.7204    3.4803   -1.8484 N   0  0  0  0  0  0  0  0  0  0  0  0
    3.2732   -4.4877    0.3956 H   0  0  0  0  0  0  0  0  0  0  0  0
    3.9402   -3.0821   -0.4692 H   0  0  0  0  0  0  0  0  0  0  0  0
    2.3373   -2.9768    0.2977 H   0  0  0  0  0  0  0  0  0  0  0  0
    2.1324   -3.2628   -2.1568 H   0  0  0  0  0  0  0  0  0  0  0  0
    2.8830   -5.3854   -3.1960 H   0  0  0  0  0  0  0  0  0  0  0  0
    4.2588   -4.4887   -2.5094 H   0  0  0  0  0  0  0  0  0  0  0  0
    3.5919   -5.8942   -1.6446 H   0  0  0  0  0  0  0  0  0  0  0  0
    1.1750   -5.8237   -1.1309 H   0  0  0  0  0  0  0  0  0  0  0  0
    0.8375   -2.2452   -1.3736 H   0  0  0  0  0  0  0  0  0  0  0  0
   -3.3665   -2.3658   -0.4866 H   0  0  0  0  0  0  0  0  0  0  0  0
   -2.8147   -7.0938   -0.4733 H   0  0  0  0  0  0  0  0  0  0  0  0
   -6.5903   -5.6005    0.6093 H   0  0  0  0  0  0  0  0  0  0  0  0
   -5.3803   -2.7530   -0.7310 H   0  0  0  0  0  0  0  0  0  0  0  0
   -6.0144   -3.0797    0.8998 H   0  0  0  0  0  0  0  0  0  0  0  0
   -4.3154   -2.5936    0.6864 H   0  0  0  0  0  0  0  0  0  0  0  0
   -2.2792   -0.1272   -0.9164 H   0  0  0  0  0  0  0  0  0  0  0  0
   -1.7216    2.3870   -0.2050 H   0  0  0  0  0  0  0  0  0  0  0  0
   -1.6227    3.0364   -1.8593 H   0  0  0  0  0  0  0  0  0  0  0  0
   -2.4257    1.4758   -1.5624 H   0  0  0  0  0  0  0  0  0  0  0  0
   -0.1233    3.9399   -1.7147 H   0  0  0  0  0  0  0  0  0  0  0  0
    1.5208    3.9868   -2.0573 H   0  0  0  0  0  0  0  0  0  0  0  0
   -1.1411   -4.9289   -0.7314 N   0  3  0  0  0  0  0  0  0  0  0  0
   -1.0924   -5.9515   -0.6520 H   0  0  0  0  0  0  0  0  0  0  0  0
   -4.8590   -6.7253    0.1104 N   0  3  0  0  0  0  0  0  0  0  0  0
   -5.2204   -7.6825    0.1969 H   0  0  0  0  0  0  0  0  0  0  0  0
  1  2  1  0  0  0  0
  1 22  1  0  0  0  0
  1 23  1  0  0  0  0
  1 24  1  0  0  0  0
  2  3  1  0  0  0  0
  2  4  1  0  0  0  0
  2 25  1  0  0  0  0
  3 26  1  0  0  0  0
  3 27  1  0  0  0  0
  3 28  1  0  0  0  0
  4  5  1  0  0  0  0
  4 29  1  0  0  0  0
  5  6  2  0  0  0  0
  5 43  1  0  0  0  0
  6  7  1  0  0  0  0
  6 30  1  0  0  0  0
  7  8  2  0  0  0  0
  7 15  1  0  0  0  0
  8  9  1  0  0  0  0
  8 31  1  0  0  0  0
  9 10  1  0  0  0  0
  9 43  2  0  0  0  0
 10 13  1  0  0  0  0
 10 11  2  0  0  0  0
 11 32  1  0  0  0  0
 11 45  1  0  0  0  0
 12 13  1  0  0  0  0
 12 33  1  0  0  0  0
 12 45  2  0  0  0  0
 13 14  1  0  0  0  0
 14 34  1  0  0  0  0
 14 35  1  0  0  0  0
 14 36  1  0  0  0  0
 15 16  2  0  0  0  0
 15 37  1  0  0  0  0
 16 17  1  0  0  0  0
 17 18  1  0  0  0  0
 17 19  1  0  0  0  0
 18 38  1  0  0  0  0
 18 39  1  0  0  0  0
 18 40  1  0  0  0  0
 19 20  2  0  0  0  0
 19 21  1  0  0  0  0
 21 41  1  0  0  0  0
 21 42  1  0  0  0  0
 43 44  1  0  0  0  0
 45 46  1  0  0  0  0
M  CHG  2  43   1  45   1
M  END
$$$$
ZINC03915881
  -OEChem-08230709453D

 46 47  0     0  0  0  0  0  0999 V2000
    3.0288   -3.6314   -0.2329 C   0  0  0  0  0  0  0  0  0  0  0  0
    2.3769   -4.1191   -1.5283 C   0  0  0  0  0  0  0  0  0  0  0  0
    3.3475   -5.0379   -2.2731 C   0  0  0  0  0  0  0  0  0  0  0  0
    1.1520   -4.8573   -1.2107 N   0  0  0  0  0  0  0  0  0  0  0  0
   -0.0436   -4.1726   -1.0237 C   0  0  0  0  0  0  0  0  0  0  0  0
   -0.0660   -2.7889   -1.1402 C   0  0  0  0  0  0  0  0  0  0  0  0
   -1.2740   -2.1079   -0.9508 C   0  0  0  0  0  0  0  0  0  0  0  0
   -2.4171   -2.8558   -0.6442 C   0  0  0  0  0  0  0  0  0  0  0  0
   -2.3131   -4.2401   -0.5500 C   0  0  0  0  0  0  0  0  0  0  0  0
   -3.5124   -5.0429   -0.2321 C   0  0  0  0  0  0  0  0  0  0  0  0
   -3.6084   -6.4009   -0.2357 C   0  0  0  0  0  0  0  0  0  0  0  0
   -5.5501   -5.6366    0.3213 C   0  0  0  0  0  0  0  0  0  0  0  0
   -4.7550   -4.5648    0.1205 N   0  0  0  0  0  0  0  0  0  0  0  0
   -5.1410   -3.1577    0.2523 C   0  0  0  0  0  0  0  0  0  0  0  0
   -1.3398   -0.6389   -1.0652 C   0  0  0  0  0  0  0  0  0  0  0  0
   -0.2690    0.0388   -1.3448 N   0  0  0  0  0  0  0  0  0  0  0  0
   -0.3315    1.4341   -1.4535 N   0  0  0  0  0  0  0  0  0  0  0  0
   -1.6070    2.1277   -1.2575 C   0  0  0  0  0  0  0  0  0  0  0  0
    0.7806    2.1380   -1.7438 C   0  0  0  0  0  0  0  0  0  0  0  0
    2.2697    1.3268   -1.9798 S   0  0  0  0  0  0  0  0  0  0  0  0
    0.7204    3.4803   -1.8484 N   0  0  0  0  0  0  0  0  0  0  0  0
    3.2732   -4.4877    0.3956 H   0  0  0  0  0  0  0  0  0  0  0  0
    3.9402   -3.0821   -0.4692 H   0  0  0  0  0  0  0  0  0  0  0  0
    2.3373   -2.9768    0.2977 H   0  0  0  0  0  0  0  0  0  0  0  0
    2.1324   -3.2628   -2.1568 H   0  0  0  0  0  0  0  0  0  0  0  0
    2.8830   -5.3854   -3.1960 H   0  0  0  0  0  0  0  0  0  0  0  0
    4.2588   -4.4887   -2.5094 H   0  0  0  0  0  0  0  0  0  0  0  0
    3.5919   -5.8942   -1.6446 H   0  0  0  0  0  0  0  0  0  0  0  0
    1.1750   -5.8237   -1.1309 H   0  0  0  0  0  0  0  0  0  0  0  0
    0.8375   -2.2452   -1.3736 H   0  0  0  0  0  0  0  0  0  0  0  0
   -3.3665   -2.3658   -0.4866 H   0  0  0  0  0  0  0  0  0  0  0  0
   -2.8147   -7.0938   -0.4733 H   0  0  0  0  0  0  0  0  0  0  0  0
   -6.5903   -5.6005    0.6093 H   0  0  0  0  0  0  0  0  0  0  0  0
   -5.3803   -2.7530   -0.7310 H   0  0  0  0  0  0  0  0  0  0  0  0
   -6.0144   -3.0797    0.8998 H   0  0  0  0  0  0  0  0  0  0  0  0
   -4.3154   -2.5936    0.6864 H   0  0  0  0  0  0  0  0  0  0  0  0
   -2.2792   -0.1272   -0.9164 H   0  0  0  0  0  0  0  0  0  0  0  0
   -1.7216    2.3870   -0.2050 H   0  0  0  0  0  0  0  0  0  0  0  0
   -1.6227    3.0364   -1.8593 H   0  0  0  0  0  0  0  0  0  0  0  0
   -2.4257    1.4758   -1.5624 H   0  0  0  0  0  0  0  0  0  0  0  0
   -0.1233    3.9399   -1.7147 H   0  0  0  0  0  0  0  0  0  0  0  0
    1.5208    3.9868   -2.0573 H   0  0  0  0  0  0  0  0  0  0  0  0
   -1.1411   -4.9289   -0.7314 N   0  3  0  0  0  0  0  0  0  0  0  0
   -1.0924   -5.9515   -0.6520 H   0  0  0  0  0  0  0  0  0  0  0  0
   -4.8590   -6.7253    0.1104 N   0  3  0  0  0  0  0  0  0  0  0  0
   -5.2204   -7.6825    0.1969 H   0  0  0  0  0  0  0  0  0  0  0  0
  1  2  1  0  0  0  0
  1 22  1  0  0  0  0
  1 23  1  0  0  0  0
  1 24  1  0  0  0  0
  2  3  1  0  0  0  0
  2  4  1  0  0  0  0
  2 25  1  0  0  0  0
  3 26  1  0  0  0  0
  3 27  1  0  0  0  0
  3 28  1  0  0  0  0
  4  5  1  0  0  0  0
  4 29  1  0  0  0  0
  5  6  2  0  0  0  0
  5 43  1  0  0  0  0
  6  7  1  0  0  0  0
  6 30  1  0  0  0  0
  7  8  2  0  0  0  0
  7 15  1  0  0  0  0
  8  9  1  0  0  0  0
  8 31  1  0  0  0  0
  9 10  1  0  0  0  0
  9 43  2  0  0  0  0
 10 13  1  0  0  0  0
 10 11  2  0  0  0  0
 11 32  1  0  0  0  0
 11 45  1  0  0  0  0
 12 13  1  0  0  0  0
 12 33  1  0  0  0  0
 12 45  2  0  0  0  0
 13 14  1  0  0  0  0
 14 34  1  0  0  0  0
 14 35  1  0  0  0  0
 14 36  1  0  0  0  0
 15 16  2  0  0  0  0
 15 37  1  0  0  0  0
 16 17  1  0  0  0  0
 17 18  1  0  0  0  0
 17 19  1  0  0  0  0
 18 38  1  0  0  0  0
 18 39  1  0  0  0  0
 18 40  1  0  0  0  0
 19 20  2  0  0  0  0
 19 21  1  0  0  0  0
 21 41  1  0  0  0  0
 21 42  1  0  0  0  0
 43 44  1  0  0  0  0
 45 46  1  0  0  0  0
M  CHG  2  43   1  45   1
M  END
$$$$
ZINC03925993
  -OEChem-08230709453D

 40 42  0     1  0  0  0  0  0999 V2000
    0.6089    7.5966    1.4599 C   0  0  0  0  0  0  0  0  0  0  0  0
   -0.3924    6.4485    1.3182 C   0  0  0  0  0  0  0  0  0  0  0  0
   -1.1573    6.5984    0.0016 C   0  0  2  0  0  0  0  0  0  0  0  0
   -1.6186    7.5851   -0.0403 H   0  0  0  0  0  0  0  0  0  0  0  0
   -2.2019    5.5645   -0.0795 C   0  0  0  0  0  0  0  0  0  0  0  0
   -3.0350    4.7399   -0.1442 C   0  0  0  0  0  0  0  0  0  0  0  0
   -4.0512    3.7341   -0.2231 C   0  0  0  0  0  0  0  0  0  0  0  0
   -5.3954    4.0975   -0.3354 C   0  0  0  0  0  0  0  0  0  0  0  0
   -6.3697    3.1186   -0.4100 C   0  0  0  0  0  0  0  0  0  0  0  0
   -6.0308    1.7794   -0.3763 C   0  0  0  0  0  0  0  0  0  0  0  0
   -4.7000    1.3913   -0.2659 C   0  0  0  0  0  0  0  0  0  0  0  0
   -3.7057    2.3742   -0.1892 C   0  0  0  0  0  0  0  0  0  0  0  0
   -2.4176    1.6592   -0.0808 C   0  0  0  0  0  0  0  0  0  0  0  0
   -1.1552    2.2126    0.0198 C   0  0  0  0  0  0  0  0  0  0  0  0
   -0.0404    1.3854    0.2728 C   0  0  0  0  0  0  0  0  0  0  0  0
    1.2521    1.5646   -0.1902 C   0  0  0  0  0  0  0  0  0  0  0  0
    1.9886    0.5574    0.2759 N   0  0  0  0  0  0  0  0  0  0  0  0
    1.2442   -0.2399    0.9994 C   0  0  0  0  0  0  0  0  0  0  0  0
   -0.0180    0.2273    1.0290 N   0  0  0  0  0  0  0  0  0  0  0  0
   -0.7932   -0.1851    1.5075 H   0  0  0  0  0  0  0  0  0  0  0  0
    1.7371    2.6935   -1.0627 C   0  0  0  0  0  0  0  0  0  0  0  0
   -2.7682    0.2323   -0.1094 C   0  0  0  0  0  0  0  0  0  0  0  0
   -1.9853   -0.6989   -0.0478 O   0  0  0  0  0  0  0  0  0  0  0  0
   -4.1047    0.1353   -0.2116 N   0  0  0  0  0  0  0  0  0  0  0  0
   -5.7430    5.4025   -0.3705 F   0  0  0  0  0  0  0  0  0  0  0  0
   -0.2527    6.4487   -1.0945 O   0  0  0  0  0  0  0  0  0  0  0  0
    0.0750    8.5469    1.4561 H   0  0  0  0  0  0  0  0  0  0  0  0
    1.1538    7.4898    2.3979 H   0  0  0  0  0  0  0  0  0  0  0  0
    1.3112    7.5712    0.6267 H   0  0  0  0  0  0  0  0  0  0  0  0
   -1.0948    6.4740    2.1513 H   0  0  0  0  0  0  0  0  0  0  0  0
    0.1415    5.4982    1.3220 H   0  0  0  0  0  0  0  0  0  0  0  0
   -7.4077    3.4044   -0.4960 H   0  0  0  0  0  0  0  0  0  0  0  0
   -6.8050    1.0287   -0.4357 H   0  0  0  0  0  0  0  0  0  0  0  0
   -1.0219    3.2781   -0.0953 H   0  0  0  0  0  0  0  0  0  0  0  0
    1.5895   -1.1347    1.4960 H   0  0  0  0  0  0  0  0  0  0  0  0
    2.0778    3.5171   -0.4352 H   0  0  0  0  0  0  0  0  0  0  0  0
    2.5622    2.3443   -1.6835 H   0  0  0  0  0  0  0  0  0  0  0  0
    0.9222    3.0358   -1.7006 H   0  0  0  0  0  0  0  0  0  0  0  0
   -4.5914   -0.7030   -0.2476 H   0  0  0  0  0  0  0  0  0  0  0  0
    0.1951    5.5920   -1.1207 H   0  0  0  0  0  0  0  0  0  0  0  0
  1  2  1  0  0  0  0
  1 27  1  0  0  0  0
  1 28  1  0  0  0  0
  1 29  1  0  0  0  0
  2  3  1  0  0  0  0
  2 30  1  0  0  0  0
  2 31  1  0  0  0  0
  3  4  1  0  0  0  0
  3  5  1  0  0  0  0
  3 26  1  0  0  0  0
  5  6  3  0  0  0  0
  6  7  1  0  0  0  0
  7 12  2  0  0  0  0
  7  8  1  0  0  0  0
  8  9  2  0  0  0  0
  8 25  1  0  0  0  0
  9 10  1  0  0  0  0
  9 32  1  0  0  0  0
 10 11  2  0  0  0  0
 10 33  1  0  0  0  0
 11 24  1  0  0  0  0
 11 12  1  0  0  0  0
 12 13  1  0  0  0  0
 13 14  2  0  0  0  0
 13 22  1  0  0  0  0
 14 15  1  0  0  0  0
 14 34  1  0  0  0  0
 15 19  1  0  0  0  0
 15 16  2  0  0  0  0
 16 17  1  0  0  0  0
 16 21  1  0  0  0  0
 17 18  2  0  0  0  0
 18 19  1  0  0  0  0
 18 35  1  0  0  0  0
 19 20  1  0  0  0  0
 21 36  1  0  0  0  0
 21 37  1  0  0  0  0
 21 38  1  0  0  0  0
 22 23  2  0  0  0  0
 22 24  1  0  0  0  0
 24 39  1  0  0  0  0
 26 40  1  0  0  0  0
M  END
$$$$
ZINC03925993
  -OEChem-08230709453D

 41 43  0     1  0  0  0  0  0999 V2000
    0.6089    7.5966    1.4599 C   0  0  0  0  0  0  0  0  0  0  0  0
   -0.3924    6.4485    1.3182 C   0  0  0  0  0  0  0  0  0  0  0  0
   -1.1573    6.5984    0.0016 C   0  0  2  0  0  0  0  0  0  0  0  0
   -1.6186    7.5851   -0.0403 H   0  0  0  0  0  0  0  0  0  0  0  0
   -2.2019    5.5645   -0.0795 C   0  0  0  0  0  0  0  0  0  0  0  0
   -3.0350    4.7399   -0.1442 C   0  0  0  0  0  0  0  0  0  0  0  0
   -4.0512    3.7341   -0.2231 C   0  0  0  0  0  0  0  0  0  0  0  0
   -5.3954    4.0975   -0.3354 C   0  0  0  0  0  0  0  0  0  0  0  0
   -6.3697    3.1186   -0.4100 C   0  0  0  0  0  0  0  0  0  0  0  0
   -6.0308    1.7794   -0.3763 C   0  0  0  0  0  0  0  0  0  0  0  0
   -4.7000    1.3913   -0.2659 C   0  0  0  0  0  0  0  0  0  0  0  0
   -3.7057    2.3742   -0.1892 C   0  0  0  0  0  0  0  0  0  0  0  0
   -2.4176    1.6592   -0.0808 C   0  0  0  0  0  0  0  0  0  0  0  0
   -1.1552    2.2126    0.0198 C   0  0  0  0  0  0  0  0  0  0  0  0
   -0.0404    1.3854    0.2728 C   0  0  0  0  0  0  0  0  0  0  0  0
    1.2521    1.5646   -0.1902 C   0  0  0  0  0  0  0  0  0  0  0  0
    1.2442   -0.2399    0.9994 C   0  0  0  0  0  0  0  0  0  0  0  0
   -0.0180    0.2273    1.0290 N   0  0  0  0  0  0  0  0  0  0  0  0
   -0.7932   -0.1851    1.5075 H   0  0  0  0  0  0  0  0  0  0  0  0
    1.7371    2.6935   -1.0627 C   0  0  0  0  0  0  0  0  0  0  0  0
   -2.7682    0.2323   -0.1094 C   0  0  0  0  0  0  0  0  0  0  0  0
   -1.9853   -0.6989   -0.0478 O   0  0  0  0  0  0  0  0  0  0  0  0
   -4.1047    0.1353   -0.2116 N   0  0  0  0  0  0  0  0  0  0  0  0
   -5.7430    5.4025   -0.3705 F   0  0  0  0  0  0  0  0  0  0  0  0
   -0.2527    6.4487   -1.0945 O   0  0  0  0  0  0  0  0  0  0  0  0
    0.0750    8.5469    1.4561 H   0  0  0  0  0  0  0  0  0  0  0  0
    1.1538    7.4898    2.3979 H   0  0  0  0  0  0  0  0  0  0  0  0
    1.3112    7.5712    0.6267 H   0  0  0  0  0  0  0  0  0  0  0  0
   -1.0948    6.4740    2.1513 H   0  0  0  0  0  0  0  0  0  0  0  0
    0.1415    5.4982    1.3220 H   0  0  0  0  0  0  0  0  0  0  0  0
   -7.4077    3.4044   -0.4960 H   0  0  0  0  0  0  0  0  0  0  0  0
   -6.8050    1.0287   -0.4357 H   0  0  0  0  0  0  0  0  0  0  0  0
   -1.0219    3.2781   -0.0953 H   0  0  0  0  0  0  0  0  0  0  0  0
    1.5895   -1.1347    1.4960 H   0  0  0  0  0  0  0  0  0  0  0  0
    2.0778    3.5171   -0.4352 H   0  0  0  0  0  0  0  0  0  0  0  0
    2.5622    2.3443   -1.6835 H   0  0  0  0  0  0  0  0  0  0  0  0
    0.9222    3.0358   -1.7006 H   0  0  0  0  0  0  0  0  0  0  0  0
   -4.5914   -0.7030   -0.2476 H   0  0  0  0  0  0  0  0  0  0  0  0
    0.1951    5.5920   -1.1207 H   0  0  0  0  0  0  0  0  0  0  0  0
    1.9909    0.5571    0.2755 N   0  3  0  0  0  0  0  0  0  0  0  0
    2.9930    0.4257    0.0943 H   0  0  0  0  0  0  0  0  0  0  0  0
  1  2  1  0  0  0  0
  1 26  1  0  0  0  0
  1 27  1  0  0  0  0
  1 28  1  0  0  0  0
  2  3  1  0  0  0  0
  2 29  1  0  0  0  0
  2 30  1  0  0  0  0
  3  4  1  0  0  0  0
  3  5  1  0  0  0  0
  3 25  1  0  0  0  0
  5  6  3  0  0  0  0
  6  7  1  0  0  0  0
  7 12  2  0  0  0  0
  7  8  1  0  0  0  0
  8  9  2  0  0  0  0
  8 24  1  0  0  0  0
  9 10  1  0  0  0  0
  9 31  1  0  0  0  0
 10 11  2  0  0  0  0
 10 32  1  0  0  0  0
 11 23  1  0  0  0  0
 11 12  1  0  0  0  0
 12 13  1  0  0  0  0
 13 14  2  0  0  0  0
 13 21  1  0  0  0  0
 14 15  1  0  0  0  0
 14 33  1  0  0  0  0
 15 18  1  0  0  0  0
 15 16  2  0  0  0  0
 16 20  1  0  0  0  0
 16 40  1  0  0  0  0
 17 18  1  0  0  0  0
 17 34  1  0  0  0  0
 17 40  2  0  0  0  0
 18 19  1  0  0  0  0
 20 35  1  0  0  0  0
 20 36  1  0  0  0  0
 20 37  1  0  0  0  0
 21 22  2  0  0  0  0
 21 23  1  0  0  0  0
 23 38  1  0  0  0  0
 25 39  1  0  0  0  0
 40 41  1  0  0  0  0
M  CHG  1  40   1
M  END
$$$$
ZINC03925993
  -OEChem-08230709453D

 40 42  0     1  0  0  0  0  0999 V2000
    0.6089    7.5966    1.4599 C   0  0  0  0  0  0  0  0  0  0  0  0
   -0.3924    6.4485    1.3182 C   0  0  0  0  0  0  0  0  0  0  0  0
   -1.1573    6.5984    0.0016 C   0  0  2  0  0  0  0  0  0  0  0  0
   -1.6186    7.5851   -0.0403 H   0  0  0  0  0  0  0  0  0  0  0  0
   -2.2019    5.5645   -0.0795 C   0  0  0  0  0  0  0  0  0  0  0  0
   -3.0350    4.7399   -0.1442 C   0  0  0  0  0  0  0  0  0  0  0  0
   -4.0512    3.7341   -0.2231 C   0  0  0  0  0  0  0  0  0  0  0  0
   -5.3954    4.0975   -0.3354 C   0  0  0  0  0  0  0  0  0  0  0  0
   -6.3697    3.1186   -0.4100 C   0  0  0  0  0  0  0  0  0  0  0  0
   -6.0308    1.7794   -0.3763 C   0  0  0  0  0  0  0  0  0  0  0  0
   -4.7000    1.3913   -0.2659 C   0  0  0  0  0  0  0  0  0  0  0  0
   -3.7057    2.3742   -0.1892 C   0  0  0  0  0  0  0  0  0  0  0  0
   -2.4176    1.6592   -0.0808 C   0  0  0  0  0  0  0  0  0  0  0  0
   -1.1552    2.2126    0.0198 C   0  0  0  0  0  0  0  0  0  0  0  0
   -0.0404    1.3854    0.2728 C   0  0  0  0  0  0  0  0  0  0  0  0
    1.2521    1.5646   -0.1902 C   0  0  0  0  0  0  0  0  0  0  0  0
    1.9886    0.5574    0.2759 N   0  0  0  0  0  0  0  0  0  0  0  0
    1.2442   -0.2399    0.9994 C   0  0  0  0  0  0  0  0  0  0  0  0
   -0.0180    0.2273    1.0290 N   0  0  0  0  0  0  0  0  0  0  0  0
    2.9646    0.4295    0.0994 H   0  0  0  0  0  0  0  0  0  0  0  0
    1.7371    2.6935   -1.0627 C   0  0  0  0  0  0  0  0  0  0  0  0
   -2.7682    0.2323   -0.1094 C   0  0  0  0  0  0  0  0  0  0  0  0
   -1.9853   -0.6989   -0.0478 O   0  0  0  0  0  0  0  0  0  0  0  0
   -4.1047    0.1353   -0.2116 N   0  0  0  0  0  0  0  0  0  0  0  0
   -5.7430    5.4025   -0.3705 F   0  0  0  0  0  0  0  0  0  0  0  0
   -0.2527    6.4487   -1.0945 O   0  0  0  0  0  0  0  0  0  0  0  0
    0.0750    8.5469    1.4561 H   0  0  0  0  0  0  0  0  0  0  0  0
    1.1538    7.4898    2.3979 H   0  0  0  0  0  0  0  0  0  0  0  0
    1.3112    7.5712    0.6267 H   0  0  0  0  0  0  0  0  0  0  0  0
   -1.0948    6.4740    2.1513 H   0  0  0  0  0  0  0  0  0  0  0  0
    0.1415    5.4982    1.3220 H   0  0  0  0  0  0  0  0  0  0  0  0
   -7.4077    3.4044   -0.4960 H   0  0  0  0  0  0  0  0  0  0  0  0
   -6.8050    1.0287   -0.4357 H   0  0  0  0  0  0  0  0  0  0  0  0
   -1.0219    3.2781   -0.0953 H   0  0  0  0  0  0  0  0  0  0  0  0
    1.5895   -1.1347    1.4960 H   0  0  0  0  0  0  0  0  0  0  0  0
    2.0778    3.5171   -0.4352 H   0  0  0  0  0  0  0  0  0  0  0  0
    2.5622    2.3443   -1.6835 H   0  0  0  0  0  0  0  0  0  0  0  0
    0.9222    3.0358   -1.7006 H   0  0  0  0  0  0  0  0  0  0  0  0
   -4.5914   -0.7030   -0.2476 H   0  0  0  0  0  0  0  0  0  0  0  0
    0.1951    5.5920   -1.1207 H   0  0  0  0  0  0  0  0  0  0  0  0
  1  2  1  0  0  0  0
  1 27  1  0  0  0  0
  1 28  1  0  0  0  0
  1 29  1  0  0  0  0
  2  3  1  0  0  0  0
  2 30  1  0  0  0  0
  2 31  1  0  0  0  0
  3  4  1  0  0  0  0
  3  5  1  0  0  0  0
  3 26  1  0  0  0  0
  5  6  3  0  0  0  0
  6  7  1  0  0  0  0
  7 12  2  0  0  0  0
  7  8  1  0  0  0  0
  8  9  2  0  0  0  0
  8 25  1  0  0  0  0
  9 10  1  0  0  0  0
  9 32  1  0  0  0  0
 10 11  2  0  0  0  0
 10 33  1  0  0  0  0
 11 24  1  0  0  0  0
 11 12  1  0  0  0  0
 12 13  1  0  0  0  0
 13 14  2  0  0  0  0
 13 22  1  0  0  0  0
 14 15  1  0  0  0  0
 14 34  1  0  0  0  0
 15 19  1  0  0  0  0
 15 16  2  0  0  0  0
 16 17  1  0  0  0  0
 16 21  1  0  0  0  0
 17 18  1  0  0  0  0
 17 20  1  0  0  0  0
 18 35  1  0  0  0  0
 18 19  2  0  0  0  0
 21 36  1  0  0  0  0
 21 37  1  0  0  0  0
 21 38  1  0  0  0  0
 22 23  2  0  0  0  0
 22 24  1  0  0  0  0
 24 39  1  0  0  0  0
 26 40  1  0  0  0  0
M  END
$$$$
ZINC03938260
  -OEChem-08230709453D

 42 44  0     0  0  0  0  0  0999 V2000
   -3.4921    2.9273   -0.1746 C   0  0  0  0  0  0  0  0  0  0  0  0
   -4.7520    2.3692   -0.2732 C   0  0  0  0  0  0  0  0  0  0  0  0
   -4.8763    1.0497   -0.2739 N   0  0  0  0  0  0  0  0  0  0  0  0
   -3.8190    0.2681   -0.1821 C   0  0  0  0  0  0  0  0  0  0  0  0
   -2.5992    0.7572   -0.0914 N   0  0  0  0  0  0  0  0  0  0  0  0
   -2.3938    2.0711   -0.0790 C   0  0  0  0  0  0  0  0  0  0  0  0
   -1.1080    2.5825    0.0216 N   0  0  0  0  0  0  0  0  0  0  0  0
   -0.0212    1.7283    0.0065 C   0  0  0  0  0  0  0  0  0  0  0  0
    1.3428    2.0400   -0.0059 C   0  0  0  0  0  0  0  0  0  0  0  0
    2.2038    0.9400   -0.0256 C   0  0  0  0  0  0  0  0  0  0  0  0
    1.6903   -0.2618   -0.0309 N   0  0  0  0  0  0  0  0  0  0  0  0
    0.0028   -0.0036   -0.0096 S   0  0  0  0  0  0  0  0  0  0  0  0
    3.5503    1.1163   -0.0385 O   0  0  0  0  0  0  0  0  0  0  0  0
    4.3587   -0.0619   -0.0585 C   0  0  0  0  0  0  0  0  0  0  0  0
    5.8366    0.3339   -0.0708 C   0  0  0  0  0  0  0  0  0  0  0  0
    6.1574    1.0670   -1.3749 C   0  0  0  0  0  0  0  0  0  0  0  0
    7.6353    1.4627   -1.3872 C   0  0  0  0  0  0  0  0  0  0  0  0
    8.5008    0.2054   -1.2828 C   0  0  0  0  0  0  0  0  0  0  0  0
    8.1800   -0.5277    0.0213 C   0  0  0  0  0  0  0  0  0  0  0  0
    6.7021   -0.9235    0.0336 C   0  0  0  0  0  0  0  0  0  0  0  0
    1.8332    3.4215    0.0009 C   0  0  0  0  0  0  0  0  0  0  0  0
    2.0484    3.9857    1.0576 O   0  0  0  0  0  0  0  0  0  0  0  0
    2.0456    4.0669   -1.1631 N   0  0  0  0  0  0  0  0  0  0  0  0
   -3.3602    3.9992   -0.1712 H   0  0  0  0  0  0  0  0  0  0  0  0
   -5.6250    3.0004   -0.3492 H   0  0  0  0  0  0  0  0  0  0  0  0
   -3.9562   -0.8031   -0.1860 H   0  0  0  0  0  0  0  0  0  0  0  0
   -0.9716    3.5395    0.1025 H   0  0  0  0  0  0  0  0  0  0  0  0
    4.1503   -0.6606    0.8282 H   0  0  0  0  0  0  0  0  0  0  0  0
    4.1309   -0.6437   -0.9516 H   0  0  0  0  0  0  0  0  0  0  0  0
    6.0443    0.9893    0.7750 H   0  0  0  0  0  0  0  0  0  0  0  0
    5.9497    0.4116   -2.2207 H   0  0  0  0  0  0  0  0  0  0  0  0
    5.5408    1.9627   -1.4493 H   0  0  0  0  0  0  0  0  0  0  0  0
    7.8430    2.1181   -0.5414 H   0  0  0  0  0  0  0  0  0  0  0  0
    7.8638    1.9850   -2.3162 H   0  0  0  0  0  0  0  0  0  0  0  0
    9.5537    0.4873   -1.2916 H   0  0  0  0  0  0  0  0  0  0  0  0
    8.2931   -0.4500   -2.1286 H   0  0  0  0  0  0  0  0  0  0  0  0
    8.3877    0.1277    0.8671 H   0  0  0  0  0  0  0  0  0  0  0  0
    8.7966   -1.4235    0.0957 H   0  0  0  0  0  0  0  0  0  0  0  0
    6.4736   -1.4457    0.9626 H   0  0  0  0  0  0  0  0  0  0  0  0
    6.4944   -1.5788   -0.8122 H   0  0  0  0  0  0  0  0  0  0  0  0
    1.8741    3.6172   -2.0053 H   0  0  0  0  0  0  0  0  0  0  0  0
    2.3701    4.9810   -1.1587 H   0  0  0  0  0  0  0  0  0  0  0  0
  1  6  2  0  0  0  0
  1  2  1  0  0  0  0
  1 24  1  0  0  0  0
  2  3  2  0  0  0  0
  2 25  1  0  0  0  0
  3  4  1  0  0  0  0
  4  5  2  0  0  0  0
  4 26  1  0  0  0  0
  5  6  1  0  0  0  0
  6  7  1  0  0  0  0
  7  8  1  0  0  0  0
  7 27  1  0  0  0  0
  8 12  1  0  0  0  0
  8  9  2  0  0  0  0
  9 10  1  0  0  0  0
  9 21  1  0  0  0  0
 10 11  2  0  0  0  0
 10 13  1  0  0  0  0
 11 12  1  0  0  0  0
 13 14  1  0  0  0  0
 14 15  1  0  0  0  0
 14 28  1  0  0  0  0
 14 29  1  0  0  0  0
 15 20  1  0  0  0  0
 15 16  1  0  0  0  0
 15 30  1  0  0  0  0
 16 17  1  0  0  0  0
 16 31  1  0  0  0  0
 16 32  1  0  0  0  0
 17 18  1  0  0  0  0
 17 33  1  0  0  0  0
 17 34  1  0  0  0  0
 18 19  1  0  0  0  0
 18 35  1  0  0  0  0
 18 36  1  0  0  0  0
 19 20  1  0  0  0  0
 19 37  1  0  0  0  0
 19 38  1  0  0  0  0
 20 39  1  0  0  0  0
 20 40  1  0  0  0  0
 21 22  2  0  0  0  0
 21 23  1  0  0  0  0
 23 41  1  0  0  0  0
 23 42  1  0  0  0  0
M  END
$$$$
ZINC03938262
  -OEChem-08230709453D

 43 45  0     0  0  0  0  0  0999 V2000
   -0.9845    1.9409   -1.0576 C   0  0  0  0  0  0  0  0  0  0  0  0
   -0.9829    3.3072   -1.2452 C   0  0  0  0  0  0  0  0  0  0  0  0
   -0.0858    4.0709   -0.6502 N   0  0  0  0  0  0  0  0  0  0  0  0
    0.8385    3.5694    0.1474 C   0  0  0  0  0  0  0  0  0  0  0  0
    0.9019    2.2135    0.3915 C   0  0  0  0  0  0  0  0  0  0  0  0
   -0.0278    1.3712   -0.2178 C   0  0  0  0  0  0  0  0  0  0  0  0
    0.0021   -0.0041    0.0020 N   0  0  0  0  0  0  0  0  0  0  0  0
   -1.1793   -0.7116    0.1138 C   0  0  0  0  0  0  0  0  0  0  0  0
   -1.3709   -2.0941    0.2161 C   0  0  0  0  0  0  0  0  0  0  0  0
   -2.7027   -2.5035    0.3193 C   0  0  0  0  0  0  0  0  0  0  0  0
   -3.6435   -1.5967    0.3037 N   0  0  0  0  0  0  0  0  0  0  0  0
   -2.8056   -0.1165    0.1557 S   0  0  0  0  0  0  0  0  0  0  0  0
   -3.0143   -3.8208    0.4286 O   0  0  0  0  0  0  0  0  0  0  0  0
   -4.4007   -4.1538    0.5232 C   0  0  0  0  0  0  0  0  0  0  0  0
   -4.5539   -5.6718    0.6386 C   0  0  0  0  0  0  0  0  0  0  0  0
   -4.0659   -6.3332   -0.6519 C   0  0  0  0  0  0  0  0  0  0  0  0
   -4.2190   -7.8511   -0.5365 C   0  0  0  0  0  0  0  0  0  0  0  0
   -5.6916   -8.1994   -0.3102 C   0  0  0  0  0  0  0  0  0  0  0  0
   -6.1796   -7.5380    0.9803 C   0  0  0  0  0  0  0  0  0  0  0  0
   -6.0264   -6.0200    0.8649 C   0  0  0  0  0  0  0  0  0  0  0  0
   -0.2545   -3.0439    0.2183 C   0  0  0  0  0  0  0  0  0  0  0  0
    0.2664   -3.3685    1.2694 O   0  0  0  0  0  0  0  0  0  0  0  0
    0.1953   -3.5579   -0.9436 N   0  0  0  0  0  0  0  0  0  0  0  0
   -1.7188    1.3213   -1.5509 H   0  0  0  0  0  0  0  0  0  0  0  0
   -1.7224    3.7575   -1.8908 H   0  0  0  0  0  0  0  0  0  0  0  0
    1.5545    4.2292    0.6147 H   0  0  0  0  0  0  0  0  0  0  0  0
    1.6610    1.8097    1.0450 H   0  0  0  0  0  0  0  0  0  0  0  0
    0.8523   -0.4650    0.0766 H   0  0  0  0  0  0  0  0  0  0  0  0
   -4.8295   -3.6773    1.4048 H   0  0  0  0  0  0  0  0  0  0  0  0
   -4.9203   -3.8030   -0.3684 H   0  0  0  0  0  0  0  0  0  0  0  0
   -3.9616   -6.0339    1.4789 H   0  0  0  0  0  0  0  0  0  0  0  0
   -4.6582   -5.9711   -1.4922 H   0  0  0  0  0  0  0  0  0  0  0  0
   -3.0168   -6.0851   -0.8131 H   0  0  0  0  0  0  0  0  0  0  0  0
   -3.6267   -8.2132    0.3039 H   0  0  0  0  0  0  0  0  0  0  0  0
   -3.8714   -8.3223   -1.4558 H   0  0  0  0  0  0  0  0  0  0  0  0
   -5.8007   -9.2808   -0.2280 H   0  0  0  0  0  0  0  0  0  0  0  0
   -6.2839   -7.8373   -1.1505 H   0  0  0  0  0  0  0  0  0  0  0  0
   -5.5873   -7.9001    1.8206 H   0  0  0  0  0  0  0  0  0  0  0  0
   -7.2287   -7.7861    1.1415 H   0  0  0  0  0  0  0  0  0  0  0  0
   -6.3741   -5.5488    1.7843 H   0  0  0  0  0  0  0  0  0  0  0  0
   -6.6187   -5.6579    0.0246 H   0  0  0  0  0  0  0  0  0  0  0  0
   -0.2198   -3.2993   -1.7812 H   0  0  0  0  0  0  0  0  0  0  0  0
    0.9341   -4.1865   -0.9421 H   0  0  0  0  0  0  0  0  0  0  0  0
  1  6  2  0  0  0  0
  1  2  1  0  0  0  0
  1 24  1  0  0  0  0
  2  3  2  0  0  0  0
  2 25  1  0  0  0  0
  3  4  1  0  0  0  0
  4  5  2  0  0  0  0
  4 26  1  0  0  0  0
  5  6  1  0  0  0  0
  5 27  1  0  0  0  0
  6  7  1  0  0  0  0
  7  8  1  0  0  0  0
  7 28  1  0  0  0  0
  8 12  1  0  0  0  0
  8  9  2  0  0  0  0
  9 10  1  0  0  0  0
  9 21  1  0  0  0  0
 10 11  2  0  0  0  0
 10 13  1  0  0  0  0
 11 12  1  0  0  0  0
 13 14  1  0  0  0  0
 14 15  1  0  0  0  0
 14 29  1  0  0  0  0
 14 30  1  0  0  0  0
 15 20  1  0  0  0  0
 15 16  1  0  0  0  0
 15 31  1  0  0  0  0
 16 17  1  0  0  0  0
 16 32  1  0  0  0  0
 16 33  1  0  0  0  0
 17 18  1  0  0  0  0
 17 34  1  0  0  0  0
 17 35  1  0  0  0  0
 18 19  1  0  0  0  0
 18 36  1  0  0  0  0
 18 37  1  0  0  0  0
 19 20  1  0  0  0  0
 19 38  1  0  0  0  0
 19 39  1  0  0  0  0
 20 40  1  0  0  0  0
 20 41  1  0  0  0  0
 21 22  2  0  0  0  0
 21 23  1  0  0  0  0
 23 42  1  0  0  0  0
 23 43  1  0  0  0  0
M  END
$$$$
ZINC03938263
  -OEChem-08230709453D

 43 45  0     0  0  0  0  0  0999 V2000
   -3.0371    2.5821    5.8297 C   0  0  0  0  0  0  0  0  0  0  0  0
   -2.2795    2.0133    4.8188 C   0  0  0  0  0  0  0  0  0  0  0  0
   -2.3071    2.6055    3.5584 C   0  0  0  0  0  0  0  0  0  0  0  0
   -3.0842    3.7407    3.3641 C   0  0  0  0  0  0  0  0  0  0  0  0
   -3.7945    4.2460    4.3524 N   0  0  0  0  0  0  0  0  0  0  0  0
   -3.7894    3.7093    5.5572 C   0  0  0  0  0  0  0  0  0  0  0  0
   -1.5595    2.0691    2.5063 N   0  0  0  0  0  0  0  0  0  0  0  0
   -2.0386    2.1390    1.2129 C   0  0  0  0  0  0  0  0  0  0  0  0
   -1.4015    1.7728    0.0231 C   0  0  0  0  0  0  0  0  0  0  0  0
   -2.1912    1.9817   -1.1667 C   0  0  0  0  0  0  0  0  0  0  0  0
   -3.3960    2.4696   -1.0220 N   0  0  0  0  0  0  0  0  0  0  0  0
   -3.5784    2.7006    0.6579 S   0  0  0  0  0  0  0  0  0  0  0  0
   -1.5554    1.5864   -2.7617 S   0  0  0  0  0  0  0  0  0  0  0  0
   -2.9046    2.0235   -3.8927 C   0  0  0  0  0  0  0  0  0  0  0  0
   -2.4799    1.7262   -5.3322 C   0  0  0  0  0  0  0  0  0  0  0  0
   -1.3153    2.6397   -5.7194 C   0  0  0  0  0  0  0  0  0  0  0  0
   -0.8906    2.3424   -7.1589 C   0  0  0  0  0  0  0  0  0  0  0  0
   -2.0701    2.5929   -8.1006 C   0  0  0  0  0  0  0  0  0  0  0  0
   -3.2348    1.6794   -7.7135 C   0  0  0  0  0  0  0  0  0  0  0  0
   -3.6594    1.9767   -6.2740 C   0  0  0  0  0  0  0  0  0  0  0  0
   -0.0421    1.2279   -0.0132 C   0  0  0  0  0  0  0  0  0  0  0  0
    0.1340    0.0260    0.0638 O   0  0  0  0  0  0  0  0  0  0  0  0
    1.0131    2.0570   -0.1375 N   0  0  0  0  0  0  0  0  0  0  0  0
   -3.0395    2.1499    6.8194 H   0  0  0  0  0  0  0  0  0  0  0  0
   -1.6821    1.1328    5.0036 H   0  0  0  0  0  0  0  0  0  0  0  0
   -3.1102    4.2109    2.3921 H   0  0  0  0  0  0  0  0  0  0  0  0
   -4.3817    4.1565    6.3417 H   0  0  0  0  0  0  0  0  0  0  0  0
   -0.7041    1.6478    2.6845 H   0  0  0  0  0  0  0  0  0  0  0  0
   -3.7896    1.4368   -3.6464 H   0  0  0  0  0  0  0  0  0  0  0  0
   -3.1329    3.0846   -3.7930 H   0  0  0  0  0  0  0  0  0  0  0  0
   -2.1668    0.6851   -5.4110 H   0  0  0  0  0  0  0  0  0  0  0  0
   -1.6284    3.6808   -5.6406 H   0  0  0  0  0  0  0  0  0  0  0  0
   -0.4750    2.4613   -5.0484 H   0  0  0  0  0  0  0  0  0  0  0  0
   -0.5775    1.3014   -7.2376 H   0  0  0  0  0  0  0  0  0  0  0  0
   -0.0609    2.9933   -7.4347 H   0  0  0  0  0  0  0  0  0  0  0  0
   -1.7676    2.3811   -9.1261 H   0  0  0  0  0  0  0  0  0  0  0  0
   -2.3832    3.6340   -8.0218 H   0  0  0  0  0  0  0  0  0  0  0  0
   -2.9217    0.6383   -7.7923 H   0  0  0  0  0  0  0  0  0  0  0  0
   -4.0751    1.8578   -8.3844 H   0  0  0  0  0  0  0  0  0  0  0  0
   -4.4892    1.3258   -5.9981 H   0  0  0  0  0  0  0  0  0  0  0  0
   -3.9726    3.0177   -6.1952 H   0  0  0  0  0  0  0  0  0  0  0  0
    1.9130    1.6960   -0.1656 H   0  0  0  0  0  0  0  0  0  0  0  0
    0.8728    3.0149   -0.1989 H   0  0  0  0  0  0  0  0  0  0  0  0
  1  6  2  0  0  0  0
  1  2  1  0  0  0  0
  1 24  1  0  0  0  0
  2  3  2  0  0  0  0
  2 25  1  0  0  0  0
  3  4  1  0  0  0  0
  3  7  1  0  0  0  0
  4  5  2  0  0  0  0
  4 26  1  0  0  0  0
  5  6  1  0  0  0  0
  6 27  1  0  0  0  0
  7  8  1  0  0  0  0
  7 28  1  0  0  0  0
  8 12  1  0  0  0  0
  8  9  2  0  0  0  0
  9 10  1  0  0  0  0
  9 21  1  0  0  0  0
 10 11  2  0  0  0  0
 10 13  1  0  0  0  0
 11 12  1  0  0  0  0
 13 14  1  0  0  0  0
 14 15  1  0  0  0  0
 14 29  1  0  0  0  0
 14 30  1  0  0  0  0
 15 20  1  0  0  0  0
 15 16  1  0  0  0  0
 15 31  1  0  0  0  0
 16 17  1  0  0  0  0
 16 32  1  0  0  0  0
 16 33  1  0  0  0  0
 17 18  1  0  0  0  0
 17 34  1  0  0  0  0
 17 35  1  0  0  0  0
 18 19  1  0  0  0  0
 18 36  1  0  0  0  0
 18 37  1  0  0  0  0
 19 20  1  0  0  0  0
 19 38  1  0  0  0  0
 19 39  1  0  0  0  0
 20 40  1  0  0  0  0
 20 41  1  0  0  0  0
 21 22  2  0  0  0  0
 21 23  1  0  0  0  0
 23 42  1  0  0  0  0
 23 43  1  0  0  0  0
M  END
$$$$
ZINC03950118
  -OEChem-08230709453D

 41 44  0     0  0  0  0  0  0999 V2000
   -1.5117    1.1073   -2.2764 C   0  0  0  0  0  0  0  0  0  0  0  0
   -0.9927    0.0838   -1.2644 C   0  0  0  0  0  0  0  0  0  0  0  0
   -0.7907    0.7640    0.0911 C   0  0  0  0  0  0  0  0  0  0  0  0
    0.2526   -0.4481   -1.7207 O   0  0  0  0  0  0  0  0  0  0  0  0
    0.6109   -1.6692   -1.2491 C   0  0  0  0  0  0  0  0  0  0  0  0
   -0.2368   -2.3687   -0.4172 C   0  0  0  0  0  0  0  0  0  0  0  0
    0.1233   -3.6249    0.0712 C   0  0  0  0  0  0  0  0  0  0  0  0
    1.3344   -4.1944   -0.2658 C   0  0  0  0  0  0  0  0  0  0  0  0
    2.2136   -3.5063   -1.1077 C   0  0  0  0  0  0  0  0  0  0  0  0
    1.8464   -2.2328   -1.6097 C   0  0  0  0  0  0  0  0  0  0  0  0
    2.7579   -1.5597   -2.4536 C   0  0  0  0  0  0  0  0  0  0  0  0
    3.9074   -2.1583   -2.7414 N   0  0  0  0  0  0  0  0  0  0  0  0
    4.2068   -3.3513   -2.2536 C   0  0  0  0  0  0  0  0  0  0  0  0
    3.4023   -4.0205   -1.4622 N   0  0  0  0  0  0  0  0  0  0  0  0
    2.4587   -0.3154   -2.9699 N   0  0  0  0  0  0  0  0  0  0  0  0
    3.4206    0.3882   -3.6987 C   0  0  0  0  0  0  0  0  0  0  0  0
    3.8581   -0.0749   -4.9412 C   0  0  0  0  0  0  0  0  0  0  0  0
    4.8089    0.6487   -5.6300 C   0  0  0  0  0  0  0  0  0  0  0  0
    5.3075    1.7658   -5.1330 N   0  0  0  0  0  0  0  0  0  0  0  0
    4.9236    2.2436   -3.9590 C   0  0  0  0  0  0  0  0  0  0  0  0
    3.9639    1.5728   -3.2076 C   0  0  0  0  0  0  0  0  0  0  0  0
    3.7407    2.2679   -2.0550 O   0  0  0  0  0  0  0  0  0  0  0  0
    4.2707    3.5853   -2.2952 C   0  0  0  0  0  0  0  0  0  0  0  0
    5.3065    3.3599   -3.2740 O   0  0  0  0  0  0  0  0  0  0  0  0
    3.2136   -1.5415   -5.6102 Cl  0  0  0  0  0  0  0  0  0  0  0  0
   -0.7284   -4.2956    0.8890 O   0  0  0  0  0  0  0  0  0  0  0  0
   -0.7875    1.9154   -2.3797 H   0  0  0  0  0  0  0  0  0  0  0  0
   -1.6556    0.6226   -3.2420 H   0  0  0  0  0  0  0  0  0  0  0  0
   -2.4616    1.5129   -1.9283 H   0  0  0  0  0  0  0  0  0  0  0  0
   -1.7169   -0.7243   -1.1610 H   0  0  0  0  0  0  0  0  0  0  0  0
   -0.0666    1.5721   -0.0123 H   0  0  0  0  0  0  0  0  0  0  0  0
   -1.7407    1.1697    0.4392 H   0  0  0  0  0  0  0  0  0  0  0  0
   -0.4210    0.0349    0.8121 H   0  0  0  0  0  0  0  0  0  0  0  0
   -1.1891   -1.9404   -0.1412 H   0  0  0  0  0  0  0  0  0  0  0  0
    1.6018   -5.1675    0.1187 H   0  0  0  0  0  0  0  0  0  0  0  0
    5.1555   -3.7940   -2.5190 H   0  0  0  0  0  0  0  0  0  0  0  0
    1.5805    0.0708   -2.8267 H   0  0  0  0  0  0  0  0  0  0  0  0
    5.1510    0.2961   -6.5918 H   0  0  0  0  0  0  0  0  0  0  0  0
    3.4968    4.2434   -2.6903 H   0  0  0  0  0  0  0  0  0  0  0  0
    4.6947    4.0003   -1.3808 H   0  0  0  0  0  0  0  0  0  0  0  0
   -1.3503   -4.8708    0.4226 H   0  0  0  0  0  0  0  0  0  0  0  0
  1  2  1  0  0  0  0
  1 27  1  0  0  0  0
  1 28  1  0  0  0  0
  1 29  1  0  0  0  0
  2  3  1  0  0  0  0
  2  4  1  0  0  0  0
  2 30  1  0  0  0  0
  3 31  1  0  0  0  0
  3 32  1  0  0  0  0
  3 33  1  0  0  0  0
  4  5  1  0  0  0  0
  5 10  2  0  0  0  0
  5  6  1  0  0  0  0
  6  7  2  0  0  0  0
  6 34  1  0  0  0  0
  7  8  1  0  0  0  0
  7 26  1  0  0  0  0
  8  9  2  0  0  0  0
  8 35  1  0  0  0  0
  9 14  1  0  0  0  0
  9 10  1  0  0  0  0
 10 11  1  0  0  0  0
 11 12  2  0  0  0  0
 11 15  1  0  0  0  0
 12 13  1  0  0  0  0
 13 14  2  0  0  0  0
 13 36  1  0  0  0  0
 15 16  1  0  0  0  0
 15 37  1  0  0  0  0
 16 21  2  0  0  0  0
 16 17  1  0  0  0  0
 17 18  2  0  0  0  0
 17 25  1  0  0  0  0
 18 19  1  0  0  0  0
 18 38  1  0  0  0  0
 19 20  2  0  0  0  0
 20 24  1  0  0  0  0
 20 21  1  0  0  0  0
 21 22  1  0  0  0  0
 22 23  1  0  0  0  0
 23 24  1  0  0  0  0
 23 39  1  0  0  0  0
 23 40  1  0  0  0  0
 26 41  1  0  0  0  0
M  END
$$$$
ZINC03953462
  -OEChem-08230709453D

 43 44  0     0  0  0  0  0  0999 V2000
    8.3257   -0.4420   -2.3401 C   0  0  0  0  0  0  0  0  0  0  0  0
    7.1510    0.3230   -1.7270 C   0  0  0  0  0  0  0  0  0  0  0  0
    5.8370   -0.3418   -2.1424 C   0  0  0  0  0  0  0  0  0  0  0  0
    4.6623    0.4232   -1.5293 C   0  0  0  0  0  0  0  0  0  0  0  0
    3.4351   -0.1977   -1.9173 O   0  0  0  0  0  0  0  0  0  0  0  0
    2.2873    0.3622   -1.4541 C   0  0  0  0  0  0  0  0  0  0  0  0
    1.0601   -0.1925   -1.7941 C   0  0  0  0  0  0  0  0  0  0  0  0
   -0.1068    0.3720   -1.3265 C   0  0  0  0  0  0  0  0  0  0  0  0
   -0.0542    1.5042   -0.5091 C   0  0  0  0  0  0  0  0  0  0  0  0
    1.1827    2.0587   -0.1696 C   0  0  0  0  0  0  0  0  0  0  0  0
    2.3444    1.4877   -0.6422 C   0  0  0  0  0  0  0  0  0  0  0  0
   -1.3001    2.1153   -0.0114 C   0  0  0  0  0  0  0  0  0  0  0  0
   -2.4169    1.4571   -0.0766 N   0  0  0  0  0  0  0  0  0  0  0  0
   -2.4050    0.0562   -0.0844 N   0  0  0  0  0  0  0  0  0  0  0  0
   -3.5496   -0.6264   -0.2854 C   0  0  0  0  0  0  0  0  0  0  0  0
   -4.5944   -0.0253   -0.4602 O   0  0  0  0  0  0  0  0  0  0  0  0
   -3.5372   -2.0881   -0.2936 C   0  0  0  0  0  0  0  0  0  0  0  0
   -4.5829   -2.9826   -0.4734 C   0  0  0  0  0  0  0  0  0  0  0  0
   -4.3048   -4.2601   -0.4401 N   0  0  0  0  0  0  0  0  0  0  0  0
   -3.0713   -4.6960   -0.2314 C   0  0  0  0  0  0  0  0  0  0  0  0
   -2.1724   -3.2195   -0.0672 S   0  0  0  0  0  0  0  0  0  0  0  0
   -2.6159   -5.9952   -0.1621 N   0  0  0  0  0  0  0  0  0  0  0  0
   -5.9912   -2.4980   -0.7035 C   0  0  0  0  0  0  0  0  0  0  0  0
    9.2617    0.0316   -2.0441 H   0  0  0  0  0  0  0  0  0  0  0  0
    8.3123   -1.4729   -1.9863 H   0  0  0  0  0  0  0  0  0  0  0  0
    8.2398   -0.4296   -3.4266 H   0  0  0  0  0  0  0  0  0  0  0  0
    7.1644    1.3539   -2.0808 H   0  0  0  0  0  0  0  0  0  0  0  0
    7.2368    0.3106   -0.6404 H   0  0  0  0  0  0  0  0  0  0  0  0
    5.8236   -1.3727   -1.7886 H   0  0  0  0  0  0  0  0  0  0  0  0
    5.7512   -0.3294   -3.2290 H   0  0  0  0  0  0  0  0  0  0  0  0
    4.6757    1.4540   -1.8831 H   0  0  0  0  0  0  0  0  0  0  0  0
    4.7482    0.4108   -0.4427 H   0  0  0  0  0  0  0  0  0  0  0  0
    1.0204   -1.0673   -2.4262 H   0  0  0  0  0  0  0  0  0  0  0  0
   -1.0606   -0.0597   -1.5917 H   0  0  0  0  0  0  0  0  0  0  0  0
    1.2281    2.9339    0.4615 H   0  0  0  0  0  0  0  0  0  0  0  0
    3.3008    1.9158   -0.3807 H   0  0  0  0  0  0  0  0  0  0  0  0
   -1.2835    3.1107    0.4074 H   0  0  0  0  0  0  0  0  0  0  0  0
   -1.5729   -0.4225    0.0548 H   0  0  0  0  0  0  0  0  0  0  0  0
   -1.6756   -6.1716   -0.0024 H   0  0  0  0  0  0  0  0  0  0  0  0
   -3.2358   -6.7330   -0.2731 H   0  0  0  0  0  0  0  0  0  0  0  0
   -6.1626   -2.3740   -1.7728 H   0  0  0  0  0  0  0  0  0  0  0  0
   -6.6962   -3.2275   -0.3047 H   0  0  0  0  0  0  0  0  0  0  0  0
   -6.1335   -1.5421   -0.1994 H   0  0  0  0  0  0  0  0  0  0  0  0
  1  2  1  0  0  0  0
  1 24  1  0  0  0  0
  1 25  1  0  0  0  0
  1 26  1  0  0  0  0
  2  3  1  0  0  0  0
  2 27  1  0  0  0  0
  2 28  1  0  0  0  0
  3  4  1  0  0  0  0
  3 29  1  0  0  0  0
  3 30  1  0  0  0  0
  4  5  1  0  0  0  0
  4 31  1  0  0  0  0
  4 32  1  0  0  0  0
  5  6  1  0  0  0  0
  6 11  2  0  0  0  0
  6  7  1  0  0  0  0
  7  8  2  0  0  0  0
  7 33  1  0  0  0  0
  8  9  1  0  0  0  0
  8 34  1  0  0  0  0
  9 10  2  0  0  0  0
  9 12  1  0  0  0  0
 10 11  1  0  0  0  0
 10 35  1  0  0  0  0
 11 36  1  0  0  0  0
 12 13  2  3  0  0  0
 12 37  1  0  0  0  0
 13 14  1  0  0  0  0
 14 15  1  0  0  0  0
 14 38  1  0  0  0  0
 15 16  2  0  0  0  0
 15 17  1  0  0  0  0
 17 21  1  0  0  0  0
 17 18  2  0  0  0  0
 18 19  1  0  0  0  0
 18 23  1  0  0  0  0
 19 20  2  0  0  0  0
 20 21  1  0  0  0  0
 20 22  1  0  0  0  0
 22 39  1  0  0  0  0
 22 40  1  0  0  0  0
 23 41  1  0  0  0  0
 23 42  1  0  0  0  0
 23 43  1  0  0  0  0
M  END
$$$$
ZINC03956580
  -OEChem-08230709453D

 44 45  0     0  0  0  0  0  0999 V2000
    6.3882    9.4426    3.4486 C   0  0  0  0  0  0  0  0  0  0  0  0
    6.5809    8.8819    2.0381 C   0  0  0  0  0  0  0  0  0  0  0  0
    5.9928    7.5567    1.9596 O   0  0  0  0  0  0  0  0  0  0  0  0
    6.0774    6.9191    0.7756 C   0  0  0  0  0  0  0  0  0  0  0  0
    6.6274    7.4558   -0.1655 O   0  0  0  0  0  0  0  0  0  0  0  0
    5.5021    5.5695    0.6219 C   0  0  0  0  0  0  0  0  0  0  0  0
    5.5889    4.9066   -0.6057 C   0  0  0  0  0  0  0  0  0  0  0  0
    5.0503    3.6471   -0.7454 C   0  0  0  0  0  0  0  0  0  0  0  0
    4.4202    3.0347    0.3328 C   0  0  0  0  0  0  0  0  0  0  0  0
    4.3273    3.6934    1.5543 C   0  0  0  0  0  0  0  0  0  0  0  0
    4.8685    4.9507    1.7033 C   0  0  0  0  0  0  0  0  0  0  0  0
    3.8742    1.7569    0.1868 N   0  0  0  0  0  0  0  0  0  0  0  0
    4.5918    0.6215   -0.0635 C   0  0  0  0  0  0  0  0  0  0  0  0
    3.7442   -0.4203   -0.1422 C   0  0  0  0  0  0  0  0  0  0  0  0
    2.3977    0.1169    0.0773 C   0  0  0  0  0  0  0  0  0  0  0  0
    2.5474    1.4601    0.2680 C   0  0  0  0  0  0  0  0  0  0  0  0
    1.4363    2.4448    0.5265 C   0  0  0  0  0  0  0  0  0  0  0  0
    1.1334   -0.6417    0.0842 C   0  0  0  0  0  0  0  0  0  0  0  0
    1.1487   -1.9268    0.2650 N   0  0  0  0  0  0  0  0  0  0  0  0
    2.3342   -2.5659    0.6509 N   0  0  0  0  0  0  0  0  0  0  0  0
    2.3814   -3.9108    0.7250 C   0  0  0  0  0  0  0  0  0  0  0  0
    3.8301   -4.6918    1.1966 S   0  0  0  0  0  0  0  0  0  0  0  0
    1.2882   -4.6409    0.4279 N   0  0  0  0  0  0  0  0  0  0  0  0
    6.0884    0.5481   -0.2244 C   0  0  0  0  0  0  0  0  0  0  0  0
    5.3233    9.5038    3.6729 H   0  0  0  0  0  0  0  0  0  0  0  0
    6.8744    8.7861    4.1701 H   0  0  0  0  0  0  0  0  0  0  0  0
    6.8297   10.4375    3.5075 H   0  0  0  0  0  0  0  0  0  0  0  0
    7.6458    8.8208    1.8138 H   0  0  0  0  0  0  0  0  0  0  0  0
    6.0948    9.5385    1.3166 H   0  0  0  0  0  0  0  0  0  0  0  0
    6.0773    5.3818   -1.4435 H   0  0  0  0  0  0  0  0  0  0  0  0
    5.1170    3.1343   -1.6935 H   0  0  0  0  0  0  0  0  0  0  0  0
    3.8337    3.2165    2.3881 H   0  0  0  0  0  0  0  0  0  0  0  0
    4.7996    5.4599    2.6532 H   0  0  0  0  0  0  0  0  0  0  0  0
    4.0048   -1.4514   -0.3300 H   0  0  0  0  0  0  0  0  0  0  0  0
    1.2071    2.4626    1.5919 H   0  0  0  0  0  0  0  0  0  0  0  0
    1.7493    3.4383    0.2055 H   0  0  0  0  0  0  0  0  0  0  0  0
    0.5487    2.1457   -0.0312 H   0  0  0  0  0  0  0  0  0  0  0  0
    0.1946   -0.1279   -0.0613 H   0  0  0  0  0  0  0  0  0  0  0  0
    3.1198   -2.0403    0.8686 H   0  0  0  0  0  0  0  0  0  0  0  0
    0.4674   -4.1984    0.1607 H   0  0  0  0  0  0  0  0  0  0  0  0
    1.3221   -5.6088    0.4812 H   0  0  0  0  0  0  0  0  0  0  0  0
    6.3484    0.6892   -1.2735 H   0  0  0  0  0  0  0  0  0  0  0  0
    6.5569    1.3292    0.3742 H   0  0  0  0  0  0  0  0  0  0  0  0
    6.4423   -0.4272    0.1097 H   0  0  0  0  0  0  0  0  0  0  0  0
  1  2  1  0  0  0  0
  1 25  1  0  0  0  0
  1 26  1  0  0  0  0
  1 27  1  0  0  0  0
  2  3  1  0  0  0  0
  2 28  1  0  0  0  0
  2 29  1  0  0  0  0
  3  4  1  0  0  0  0
  4  5  2  0  0  0  0
  4  6  1  0  0  0  0
  6 11  2  0  0  0  0
  6  7  1  0  0  0  0
  7  8  2  0  0  0  0
  7 30  1  0  0  0  0
  8  9  1  0  0  0  0
  8 31  1  0  0  0  0
  9 10  2  0  0  0  0
  9 12  1  0  0  0  0
 10 11  1  0  0  0  0
 10 32  1  0  0  0  0
 11 33  1  0  0  0  0
 12 16  1  0  0  0  0
 12 13  1  0  0  0  0
 13 14  2  0  0  0  0
 13 24  1  0  0  0  0
 14 15  1  0  0  0  0
 14 34  1  0  0  0  0
 15 16  2  0  0  0  0
 15 18  1  0  0  0  0
 16 17  1  0  0  0  0
 17 35  1  0  0  0  0
 17 36  1  0  0  0  0
 17 37  1  0  0  0  0
 18 19  2  0  0  0  0
 18 38  1  0  0  0  0
 19 20  1  0  0  0  0
 20 21  1  0  0  0  0
 20 39  1  0  0  0  0
 21 22  2  0  0  0  0
 21 23  1  0  0  0  0
 23 40  1  0  0  0  0
 23 41  1  0  0  0  0
 24 42  1  0  0  0  0
 24 43  1  0  0  0  0
 24 44  1  0  0  0  0
M  END
$$$$
ZINC03962037
  -OEChem-08230709453D

 46 48  0     0  0  0  0  0  0999 V2000
    4.8621   -0.4129   -0.0461 C   0  0  0  0  0  0  0  0  0  0  0  0
    4.8423    0.9689   -0.0385 C   0  0  0  0  0  0  0  0  0  0  0  0
    3.6386    1.6467   -0.0238 C   0  0  0  0  0  0  0  0  0  0  0  0
    2.4365    0.9341   -0.0162 C   0  0  0  0  0  0  0  0  0  0  0  0
    2.4584   -0.4607   -0.0181 C   0  0  0  0  0  0  0  0  0  0  0  0
    3.6717   -1.1302   -0.0386 C   0  0  0  0  0  0  0  0  0  0  0  0
    3.6983   -2.5310   -0.0468 N   0  0  0  0  0  0  0  0  0  0  0  0
    4.8000   -3.3099   -0.0674 C   0  0  0  0  0  0  0  0  0  0  0  0
    5.9554   -2.9246   -0.0822 O   0  0  0  0  0  0  0  0  0  0  0  0
    4.3867   -4.5931   -0.0649 N   0  0  0  0  0  0  0  0  0  0  0  0
    4.9611   -5.3747   -0.0742 H   0  0  0  0  0  0  0  0  0  0  0  0
    3.0134   -4.6048   -0.0522 C   0  0  0  0  0  0  0  0  0  0  0  0
    2.5854   -3.3831   -0.0413 N   0  0  0  0  0  0  0  0  0  0  0  0
    1.1468    1.6555   -0.0000 C   0  0  0  0  0  0  0  0  0  0  0  0
    1.1303    2.8710    0.0067 O   0  0  0  0  0  0  0  0  0  0  0  0
   -0.0111    0.9658    0.0074 N   0  0  0  0  0  0  0  0  0  0  0  0
   -1.2896    1.6810    0.0173 C   0  0  0  0  0  0  0  0  0  0  0  0
   -2.4389    0.6711    0.0173 C   0  0  0  0  0  0  0  0  0  0  0  0
   -2.2482   -0.3027   -1.1636 C   0  0  0  0  0  0  0  0  0  0  0  0
   -3.0342   -1.5553   -0.8811 C   0  0  0  0  0  0  0  0  0  0  0  0
   -4.4399   -1.5213   -1.5108 C   0  0  0  0  0  0  0  0  0  0  0  0
   -5.1287   -0.1513   -1.3609 C   0  0  0  0  0  0  0  0  0  0  0  0
   -4.9209    0.4515    0.0020 C   0  0  0  0  0  0  0  0  0  0  0  0
   -3.7005    1.3927   -0.0594 C   0  0  0  0  0  0  0  0  0  0  0  0
   -2.4031   -0.0700    1.2386 O   0  0  0  0  0  0  0  0  0  0  0  0
    3.6194    3.3826   -0.0144 Cl  0  0  0  0  0  0  0  0  0  0  0  0
    5.8062   -0.9373   -0.0575 H   0  0  0  0  0  0  0  0  0  0  0  0
    5.7707    1.5206   -0.0444 H   0  0  0  0  0  0  0  0  0  0  0  0
    1.5328   -1.0170   -0.0077 H   0  0  0  0  0  0  0  0  0  0  0  0
    2.3923   -5.4883   -0.0511 H   0  0  0  0  0  0  0  0  0  0  0  0
    0.0021   -0.0041    0.0020 H   0  0  0  0  0  0  0  0  0  0  0  0
   -1.3516    2.3020    0.9110 H   0  0  0  0  0  0  0  0  0  0  0  0
   -1.3601    2.3116   -0.8689 H   0  0  0  0  0  0  0  0  0  0  0  0
   -2.6106    0.1597   -2.0817 H   0  0  0  0  0  0  0  0  0  0  0  0
   -1.1917   -0.5500   -1.2672 H   0  0  0  0  0  0  0  0  0  0  0  0
   -3.1338   -1.6743    0.1978 H   0  0  0  0  0  0  0  0  0  0  0  0
   -2.4899   -2.4114   -1.2797 H   0  0  0  0  0  0  0  0  0  0  0  0
   -5.0583   -2.2800   -1.0312 H   0  0  0  0  0  0  0  0  0  0  0  0
   -4.3559   -1.7583   -2.5714 H   0  0  0  0  0  0  0  0  0  0  0  0
   -6.1980   -0.2735   -1.5332 H   0  0  0  0  0  0  0  0  0  0  0  0
   -4.7263    0.5282   -2.1122 H   0  0  0  0  0  0  0  0  0  0  0  0
   -4.7366   -0.3401    0.7283 H   0  0  0  0  0  0  0  0  0  0  0  0
   -5.8055    1.0175    0.2940 H   0  0  0  0  0  0  0  0  0  0  0  0
   -3.7555    2.0967    0.7710 H   0  0  0  0  0  0  0  0  0  0  0  0
   -3.7317    1.9506   -0.9953 H   0  0  0  0  0  0  0  0  0  0  0  0
   -1.5827   -0.5632    1.3755 H   0  0  0  0  0  0  0  0  0  0  0  0
  1  6  2  0  0  0  0
  1  2  1  0  0  0  0
  1 27  1  0  0  0  0
  2  3  2  0  0  0  0
  2 28  1  0  0  0  0
  3  4  1  0  0  0  0
  3 26  1  0  0  0  0
  4  5  2  0  0  0  0
  4 14  1  0  0  0  0
  5  6  1  0  0  0  0
  5 29  1  0  0  0  0
  6  7  1  0  0  0  0
  7 13  1  0  0  0  0
  7  8  1  0  0  0  0
  8  9  2  0  0  0  0
  8 10  1  0  0  0  0
 10 11  1  0  0  0  0
 10 12  1  0  0  0  0
 12 13  2  0  0  0  0
 12 30  1  0  0  0  0
 14 15  2  0  0  0  0
 14 16  1  0  0  0  0
 16 17  1  0  0  0  0
 16 31  1  0  0  0  0
 17 18  1  0  0  0  0
 17 32  1  0  0  0  0
 17 33  1  0  0  0  0
 18 24  1  0  0  0  0
 18 19  1  0  0  0  0
 18 25  1  0  0  0  0
 19 20  1  0  0  0  0
 19 34  1  0  0  0  0
 19 35  1  0  0  0  0
 20 21  1  0  0  0  0
 20 36  1  0  0  0  0
 20 37  1  0  0  0  0
 21 22  1  0  0  0  0
 21 38  1  0  0  0  0
 21 39  1  0  0  0  0
 22 23  1  0  0  0  0
 22 40  1  0  0  0  0
 22 41  1  0  0  0  0
 23 24  1  0  0  0  0
 23 42  1  0  0  0  0
 23 43  1  0  0  0  0
 24 44  1  0  0  0  0
 24 45  1  0  0  0  0
 25 46  1  0  0  0  0
M  END
$$$$
ZINC03962078
  -OEChem-08230709453D

 40 41  0     0  0  0  0  0  0999 V2000
    3.4348    2.3071    1.0827 C   0  0  0  0  0  0  0  0  0  0  0  0
    2.2161    1.3898    1.2017 C   0  0  0  0  0  0  0  0  0  0  0  0
    1.0709    2.0223    0.5720 O   0  0  0  0  0  0  0  0  0  0  0  0
   -0.0905    1.3408    0.5898 C   0  0  0  0  0  0  0  0  0  0  0  0
   -0.1452    0.2473    1.1172 O   0  0  0  0  0  0  0  0  0  0  0  0
   -1.1906    1.8690    0.0179 N   0  0  0  0  0  0  0  0  0  0  0  0
   -2.3682    1.1090   -0.0737 C   0  0  0  0  0  0  0  0  0  0  0  0
   -2.3018   -0.2756   -0.0737 C   0  0  0  0  0  0  0  0  0  0  0  0
   -3.4598   -1.0245   -0.1633 C   0  0  0  0  0  0  0  0  0  0  0  0
   -4.6933   -0.3925   -0.2544 C   0  0  0  0  0  0  0  0  0  0  0  0
   -4.7655    0.9937   -0.2552 C   0  0  0  0  0  0  0  0  0  0  0  0
   -3.6053    1.7468   -0.1587 C   0  0  0  0  0  0  0  0  0  0  0  0
   -3.6752    3.1441   -0.1525 N   0  0  0  0  0  0  0  0  0  0  0  0
   -5.8636   -1.1535   -0.3459 N   0  0  0  0  0  0  0  0  0  0  0  0
   -5.7879   -2.6165   -0.3456 C   0  0  0  0  0  0  0  0  0  0  0  0
   -7.1768   -3.1914   -0.4530 C   0  0  0  0  0  0  0  0  0  0  0  0
   -7.8861   -3.5080   -1.5638 C   0  0  0  0  0  0  0  0  0  0  0  0
   -9.1568   -4.0328   -1.4208 C   0  0  0  0  0  0  0  0  0  0  0  0
   -9.6602   -4.2054   -0.1742 C   0  0  0  0  0  0  0  0  0  0  0  0
   -8.3180   -3.6248    0.8498 S   0  0  0  0  0  0  0  0  0  0  0  0
   -7.2965   -3.2947   -2.9342 C   0  0  0  0  0  0  0  0  0  0  0  0
    4.2946    1.8323    1.5554 H   0  0  0  0  0  0  0  0  0  0  0  0
    3.6525    2.4873    0.0299 H   0  0  0  0  0  0  0  0  0  0  0  0
    3.2256    3.2553    1.5779 H   0  0  0  0  0  0  0  0  0  0  0  0
    1.9984    1.2096    2.2544 H   0  0  0  0  0  0  0  0  0  0  0  0
    2.4254    0.4416    0.7064 H   0  0  0  0  0  0  0  0  0  0  0  0
   -1.1691    2.7740   -0.3306 H   0  0  0  0  0  0  0  0  0  0  0  0
   -1.3440   -0.7697   -0.0034 H   0  0  0  0  0  0  0  0  0  0  0  0
   -3.4056   -2.1032   -0.1629 H   0  0  0  0  0  0  0  0  0  0  0  0
   -5.7246    1.4851   -0.3261 H   0  0  0  0  0  0  0  0  0  0  0  0
   -2.8627    3.6701   -0.0890 H   0  0  0  0  0  0  0  0  0  0  0  0
   -4.5362    3.5868   -0.2118 H   0  0  0  0  0  0  0  0  0  0  0  0
   -6.7252   -0.7124   -0.4096 H   0  0  0  0  0  0  0  0  0  0  0  0
   -5.1902   -2.9496   -1.1941 H   0  0  0  0  0  0  0  0  0  0  0  0
   -5.3247   -2.9562    0.5808 H   0  0  0  0  0  0  0  0  0  0  0  0
   -9.7413   -4.2978   -2.2894 H   0  0  0  0  0  0  0  0  0  0  0  0
  -10.6233   -4.5938    0.1227 H   0  0  0  0  0  0  0  0  0  0  0  0
   -6.7627   -4.1932   -3.2439 H   0  0  0  0  0  0  0  0  0  0  0  0
   -8.0957   -3.0838   -3.6448 H   0  0  0  0  0  0  0  0  0  0  0  0
   -6.6047   -2.4529   -2.9051 H   0  0  0  0  0  0  0  0  0  0  0  0
  1  2  1  0  0  0  0
  1 22  1  0  0  0  0
  1 23  1  0  0  0  0
  1 24  1  0  0  0  0
  2  3  1  0  0  0  0
  2 25  1  0  0  0  0
  2 26  1  0  0  0  0
  3  4  1  0  0  0  0
  4  5  2  0  0  0  0
  4  6  1  0  0  0  0
  6  7  1  0  0  0  0
  6 27  1  0  0  0  0
  7 12  2  0  0  0  0
  7  8  1  0  0  0  0
  8  9  2  0  0  0  0
  8 28  1  0  0  0  0
  9 10  1  0  0  0  0
  9 29  1  0  0  0  0
 10 11  2  0  0  0  0
 10 14  1  0  0  0  0
 11 12  1  0  0  0  0
 11 30  1  0  0  0  0
 12 13  1  0  0  0  0
 13 31  1  0  0  0  0
 13 32  1  0  0  0  0
 14 15  1  0  0  0  0
 14 33  1  0  0  0  0
 15 16  1  0  0  0  0
 15 34  1  0  0  0  0
 15 35  1  0  0  0  0
 16 20  1  0  0  0  0
 16 17  2  0  0  0  0
 17 18  1  0  0  0  0
 17 21  1  0  0  0  0
 18 19  2  0  0  0  0
 18 36  1  0  0  0  0
 19 20  1  0  0  0  0
 19 37  1  0  0  0  0
 21 38  1  0  0  0  0
 21 39  1  0  0  0  0
 21 40  1  0  0  0  0
M  END
$$$$
ZINC03962079
  -OEChem-08230709453D

 43 44  0     0  0  0  0  0  0999 V2000
  -10.9097   -6.2641    0.4173 C   0  0  0  0  0  0  0  0  0  0  0  0
  -11.0041   -4.7473    0.2400 C   0  0  0  0  0  0  0  0  0  0  0  0
   -9.6602   -4.2054   -0.1742 C   0  0  0  0  0  0  0  0  0  0  0  0
   -9.1568   -4.0328   -1.4208 C   0  0  0  0  0  0  0  0  0  0  0  0
   -7.8861   -3.5080   -1.5638 C   0  0  0  0  0  0  0  0  0  0  0  0
   -7.1768   -3.1914   -0.4530 C   0  0  0  0  0  0  0  0  0  0  0  0
   -8.3180   -3.6248    0.8498 S   0  0  0  0  0  0  0  0  0  0  0  0
   -5.7879   -2.6165   -0.3456 C   0  0  0  0  0  0  0  0  0  0  0  0
   -5.8636   -1.1535   -0.3459 N   0  0  0  0  0  0  0  0  0  0  0  0
   -4.6933   -0.3925   -0.2544 C   0  0  0  0  0  0  0  0  0  0  0  0
   -3.4598   -1.0245   -0.1633 C   0  0  0  0  0  0  0  0  0  0  0  0
   -2.3018   -0.2756   -0.0737 C   0  0  0  0  0  0  0  0  0  0  0  0
   -2.3682    1.1090   -0.0737 C   0  0  0  0  0  0  0  0  0  0  0  0
   -3.6053    1.7468   -0.1587 C   0  0  0  0  0  0  0  0  0  0  0  0
   -4.7655    0.9937   -0.2552 C   0  0  0  0  0  0  0  0  0  0  0  0
   -3.6752    3.1441   -0.1525 N   0  0  0  0  0  0  0  0  0  0  0  0
   -1.1906    1.8690    0.0179 N   0  0  0  0  0  0  0  0  0  0  0  0
   -0.0905    1.3408    0.5898 C   0  0  0  0  0  0  0  0  0  0  0  0
   -0.1452    0.2473    1.1172 O   0  0  0  0  0  0  0  0  0  0  0  0
    1.0709    2.0223    0.5720 O   0  0  0  0  0  0  0  0  0  0  0  0
    2.2161    1.3898    1.2017 C   0  0  0  0  0  0  0  0  0  0  0  0
    3.4348    2.3071    1.0827 C   0  0  0  0  0  0  0  0  0  0  0  0
  -10.1723   -6.4949    1.1860 H   0  0  0  0  0  0  0  0  0  0  0  0
  -11.8817   -6.6560    0.7169 H   0  0  0  0  0  0  0  0  0  0  0  0
  -10.6080   -6.7219   -0.5248 H   0  0  0  0  0  0  0  0  0  0  0  0
  -11.3058   -4.2895    1.1821 H   0  0  0  0  0  0  0  0  0  0  0  0
  -11.7415   -4.5165   -0.5287 H   0  0  0  0  0  0  0  0  0  0  0  0
   -9.7413   -4.2978   -2.2894 H   0  0  0  0  0  0  0  0  0  0  0  0
   -7.4636   -3.3552   -2.5459 H   0  0  0  0  0  0  0  0  0  0  0  0
   -5.1902   -2.9496   -1.1941 H   0  0  0  0  0  0  0  0  0  0  0  0
   -5.3247   -2.9562    0.5808 H   0  0  0  0  0  0  0  0  0  0  0  0
   -6.7252   -0.7124   -0.4096 H   0  0  0  0  0  0  0  0  0  0  0  0
   -3.4056   -2.1032   -0.1629 H   0  0  0  0  0  0  0  0  0  0  0  0
   -1.3440   -0.7697   -0.0034 H   0  0  0  0  0  0  0  0  0  0  0  0
   -5.7246    1.4851   -0.3261 H   0  0  0  0  0  0  0  0  0  0  0  0
   -2.8627    3.6701   -0.0890 H   0  0  0  0  0  0  0  0  0  0  0  0
   -4.5362    3.5868   -0.2118 H   0  0  0  0  0  0  0  0  0  0  0  0
   -1.1691    2.7740   -0.3306 H   0  0  0  0  0  0  0  0  0  0  0  0
    1.9984    1.2096    2.2544 H   0  0  0  0  0  0  0  0  0  0  0  0
    2.4254    0.4416    0.7064 H   0  0  0  0  0  0  0  0  0  0  0  0
    3.2256    3.2553    1.5779 H   0  0  0  0  0  0  0  0  0  0  0  0
    4.2946    1.8323    1.5554 H   0  0  0  0  0  0  0  0  0  0  0  0
    3.6525    2.4873    0.0299 H   0  0  0  0  0  0  0  0  0  0  0  0
  1  2  1  0  0  0  0
  1 23  1  0  0  0  0
  1 24  1  0  0  0  0
  1 25  1  0  0  0  0
  2  3  1  0  0  0  0
  2 26  1  0  0  0  0
  2 27  1  0  0  0  0
  3  7  1  0  0  0  0
  3  4  2  0  0  0  0
  4  5  1  0  0  0  0
  4 28  1  0  0  0  0
  5  6  2  0  0  0  0
  5 29  1  0  0  0  0
  6  7  1  0  0  0  0
  6  8  1  0  0  0  0
  8  9  1  0  0  0  0
  8 30  1  0  0  0  0
  8 31  1  0  0  0  0
  9 10  1  0  0  0  0
  9 32  1  0  0  0  0
 10 15  2  0  0  0  0
 10 11  1  0  0  0  0
 11 12  2  0  0  0  0
 11 33  1  0  0  0  0
 12 13  1  0  0  0  0
 12 34  1  0  0  0  0
 13 14  2  0  0  0  0
 13 17  1  0  0  0  0
 14 15  1  0  0  0  0
 14 16  1  0  0  0  0
 15 35  1  0  0  0  0
 16 36  1  0  0  0  0
 16 37  1  0  0  0  0
 17 18  1  0  0  0  0
 17 38  1  0  0  0  0
 18 19  2  0  0  0  0
 18 20  1  0  0  0  0
 20 21  1  0  0  0  0
 21 22  1  0  0  0  0
 21 39  1  0  0  0  0
 21 40  1  0  0  0  0
 22 41  1  0  0  0  0
 22 42  1  0  0  0  0
 22 43  1  0  0  0  0
M  END
$$$$
ZINC03963079
  -OEChem-08230709453D

 41 42  0     1  0  0  0  0  0999 V2000
    4.3453   -5.5037    2.6889 C   0  0  0  0  0  0  0  0  0  0  0  0
    4.6562   -5.9131    1.2478 C   0  0  0  0  0  0  0  0  0  0  0  0
    5.4446   -4.7972    0.5594 C   0  0  1  0  0  0  0  0  0  0  0  0
    6.3331   -4.5647    1.1464 H   0  0  0  0  0  0  0  0  0  0  0  0
    5.8629   -5.2562   -0.8389 C   0  0  0  0  0  0  0  0  0  0  0  0
    4.6049   -3.6017    0.4501 N   0  0  0  0  0  0  0  0  0  0  0  0
    5.1749   -2.3836    0.3616 C   0  0  0  0  0  0  0  0  0  0  0  0
    6.3864   -2.2769    0.3725 O   0  0  0  0  0  0  0  0  0  0  0  0
    4.3314   -1.1829    0.2518 C   0  0  0  0  0  0  0  0  0  0  0  0
    4.7161    0.1460    0.1511 C   0  0  0  0  0  0  0  0  0  0  0  0
    3.7474    1.1043    0.0524 C   0  0  0  0  0  0  0  0  0  0  0  0
    2.4170    0.7114    0.0680 C   0  0  0  0  0  0  0  0  0  0  0  0
    2.5506   -1.0629    0.2130 S   0  0  0  0  0  0  0  0  0  0  0  0
    1.2065    1.5431   -0.0192 C   0  0  0  0  0  0  0  0  0  0  0  0
    1.3046    2.7518   -0.1153 O   0  0  0  0  0  0  0  0  0  0  0  0
   -0.0111    0.9658    0.0074 N   0  0  0  0  0  0  0  0  0  0  0  0
   -1.1634    1.7617    0.0132 C   0  0  0  0  0  0  0  0  0  0  0  0
   -1.1853    2.9590   -0.6866 C   0  0  0  0  0  0  0  0  0  0  0  0
   -2.3254    3.7406   -0.6833 C   0  0  0  0  0  0  0  0  0  0  0  0
   -3.4428    3.3380    0.0249 C   0  0  0  0  0  0  0  0  0  0  0  0
   -3.4283    2.1490    0.7295 C   0  0  0  0  0  0  0  0  0  0  0  0
   -2.2905    1.3556    0.7276 C   0  0  0  0  0  0  0  0  0  0  0  0
   -2.2733    0.1519    1.4404 N   0  0  0  0  0  0  0  0  0  0  0  0
    5.2776   -5.3322    3.2270 H   0  0  0  0  0  0  0  0  0  0  0  0
    3.7533   -4.5884    2.6869 H   0  0  0  0  0  0  0  0  0  0  0  0
    3.7836   -6.2987    3.1793 H   0  0  0  0  0  0  0  0  0  0  0  0
    3.7239   -6.0845    0.7097 H   0  0  0  0  0  0  0  0  0  0  0  0
    5.2481   -6.8283    1.2498 H   0  0  0  0  0  0  0  0  0  0  0  0
    6.4247   -4.4612   -1.3294 H   0  0  0  0  0  0  0  0  0  0  0  0
    6.4877   -6.1456   -0.7576 H   0  0  0  0  0  0  0  0  0  0  0  0
    4.9744   -5.4887   -1.4260 H   0  0  0  0  0  0  0  0  0  0  0  0
    3.6387   -3.6869    0.4414 H   0  0  0  0  0  0  0  0  0  0  0  0
    5.7614    0.4175    0.1464 H   0  0  0  0  0  0  0  0  0  0  0  0
    4.0121    2.1479   -0.0326 H   0  0  0  0  0  0  0  0  0  0  0  0
   -0.0893   -0.0009    0.0184 H   0  0  0  0  0  0  0  0  0  0  0  0
   -0.3131    3.2785   -1.2375 H   0  0  0  0  0  0  0  0  0  0  0  0
   -2.3419    4.6708   -1.2319 H   0  0  0  0  0  0  0  0  0  0  0  0
   -4.3294    3.9547    0.0278 H   0  0  0  0  0  0  0  0  0  0  0  0
   -4.3027    1.8378    1.2818 H   0  0  0  0  0  0  0  0  0  0  0  0
   -1.4767   -0.4016    1.4383 H   0  0  0  0  0  0  0  0  0  0  0  0
   -3.0579   -0.1291    1.9367 H   0  0  0  0  0  0  0  0  0  0  0  0
  1  2  1  0  0  0  0
  1 24  1  0  0  0  0
  1 25  1  0  0  0  0
  1 26  1  0  0  0  0
  2  3  1  0  0  0  0
  2 27  1  0  0  0  0
  2 28  1  0  0  0  0
  3  4  1  0  0  0  0
  3  5  1  0  0  0  0
  3  6  1  0  0  0  0
  5 29  1  0  0  0  0
  5 30  1  0  0  0  0
  5 31  1  0  0  0  0
  6  7  1  0  0  0  0
  6 32  1  0  0  0  0
  7  8  2  0  0  0  0
  7  9  1  0  0  0  0
  9 13  1  0  0  0  0
  9 10  2  0  0  0  0
 10 11  1  0  0  0  0
 10 33  1  0  0  0  0
 11 12  2  0  0  0  0
 11 34  1  0  0  0  0
 12 13  1  0  0  0  0
 12 14  1  0  0  0  0
 14 15  2  0  0  0  0
 14 16  1  0  0  0  0
 16 17  1  0  0  0  0
 16 35  1  0  0  0  0
 17 22  2  0  0  0  0
 17 18  1  0  0  0  0
 18 19  2  0  0  0  0
 18 36  1  0  0  0  0
 19 20  1  0  0  0  0
 19 37  1  0  0  0  0
 20 21  2  0  0  0  0
 20 38  1  0  0  0  0
 21 22  1  0  0  0  0
 21 39  1  0  0  0  0
 22 23  1  0  0  0  0
 23 40  1  0  0  0  0
 23 41  1  0  0  0  0
M  END
$$$$
ZINC03968680
  -OEChem-08230709453D

 44 46  0     0  0  0  0  0  0999 V2000
    1.1116    3.1001    0.6870 C   0  0  0  0  0  0  0  0  0  0  0  0
    2.4113    2.8047    1.0388 C   0  0  0  0  0  0  0  0  0  0  0  0
    2.7667    1.5039    1.3608 C   0  0  0  0  0  0  0  0  0  0  0  0
    1.8184    0.4929    1.3320 C   0  0  0  0  0  0  0  0  0  0  0  0
    0.5155    0.7760    0.9822 C   0  0  0  0  0  0  0  0  0  0  0  0
    0.1513    2.0853    0.6562 C   0  0  0  0  0  0  0  0  0  0  0  0
   -1.2400    2.3937    0.2752 C   0  0  0  0  0  0  0  0  0  0  0  0
   -1.6529    3.1979   -0.7956 C   0  0  0  0  0  0  0  0  0  0  0  0
   -3.0684    3.2077   -0.7792 C   0  0  0  0  0  0  0  0  0  0  0  0
   -3.4707    2.4778    0.2226 N   0  0  0  0  0  0  0  0  0  0  0  0
   -2.3598    1.9591    0.8960 N   0  0  0  0  0  0  0  0  0  0  0  0
   -2.3889    1.3666    1.7010 H   0  0  0  0  0  0  0  0  0  0  0  0
   -0.8151    3.8700   -1.7182 C   0  0  0  0  0  0  0  0  0  0  0  0
   -1.3232    4.8952   -2.4933 C   0  0  0  0  0  0  0  0  0  0  0  0
   -2.6504    5.3794   -2.2594 C   0  0  0  0  0  0  0  0  0  0  0  0
   -3.7033    5.7634   -2.0740 N   0  0  0  0  0  0  0  0  0  0  0  0
   -0.5016    5.4884   -3.5572 C   0  0  0  0  0  0  0  0  0  0  0  0
    0.6261    5.0770   -3.7559 O   0  0  0  0  0  0  0  0  0  0  0  0
   -0.9971    6.4882   -4.3131 N   0  0  0  0  0  0  0  0  0  0  0  0
   -0.1780    7.0796   -5.3739 C   0  0  0  0  0  0  0  0  0  0  0  0
    0.7168    8.1692   -4.7797 C   0  0  0  0  0  0  0  0  0  0  0  0
    1.5723    8.7869   -5.8876 C   0  0  0  0  0  0  0  0  0  0  0  0
    0.6617    9.3998   -6.9535 C   0  0  0  0  0  0  0  0  0  0  0  0
   -0.2331    8.3101   -7.5476 C   0  0  0  0  0  0  0  0  0  0  0  0
   -1.0886    7.6925   -6.4397 C   0  0  0  0  0  0  0  0  0  0  0  0
    4.0422    1.2204    1.7044 F   0  0  0  0  0  0  0  0  0  0  0  0
    0.8359    4.1138    0.4364 H   0  0  0  0  0  0  0  0  0  0  0  0
    3.1542    3.5882    1.0634 H   0  0  0  0  0  0  0  0  0  0  0  0
    2.1012   -0.5185    1.5838 H   0  0  0  0  0  0  0  0  0  0  0  0
   -0.2222   -0.0124    0.9598 H   0  0  0  0  0  0  0  0  0  0  0  0
   -3.7055    3.7337   -1.4748 H   0  0  0  0  0  0  0  0  0  0  0  0
    0.2210    3.5815   -1.8162 H   0  0  0  0  0  0  0  0  0  0  0  0
   -1.8962    6.8161   -4.1547 H   0  0  0  0  0  0  0  0  0  0  0  0
    0.4429    6.3068   -5.8271 H   0  0  0  0  0  0  0  0  0  0  0  0
    0.0960    8.9421   -4.3265 H   0  0  0  0  0  0  0  0  0  0  0  0
    1.3656    7.7326   -4.0204 H   0  0  0  0  0  0  0  0  0  0  0  0
    2.1932    8.0141   -6.3409 H   0  0  0  0  0  0  0  0  0  0  0  0
    2.2098    9.5632   -5.4644 H   0  0  0  0  0  0  0  0  0  0  0  0
    1.2712    9.8398   -7.7428 H   0  0  0  0  0  0  0  0  0  0  0  0
    0.0409   10.1726   -6.5003 H   0  0  0  0  0  0  0  0  0  0  0  0
    0.3877    7.5373   -8.0009 H   0  0  0  0  0  0  0  0  0  0  0  0
   -0.8818    8.7467   -8.3070 H   0  0  0  0  0  0  0  0  0  0  0  0
   -1.7260    6.9162   -6.8630 H   0  0  0  0  0  0  0  0  0  0  0  0
   -1.7094    8.4653   -5.9865 H   0  0  0  0  0  0  0  0  0  0  0  0
  1  6  2  0  0  0  0
  1  2  1  0  0  0  0
  1 27  1  0  0  0  0
  2  3  2  0  0  0  0
  2 28  1  0  0  0  0
  3  4  1  0  0  0  0
  3 26  1  0  0  0  0
  4  5  2  0  0  0  0
  4 29  1  0  0  0  0
  5  6  1  0  0  0  0
  5 30  1  0  0  0  0
  6  7  1  0  0  0  0
  7 11  1  0  0  0  0
  7  8  2  0  0  0  0
  8  9  1  0  0  0  0
  8 13  1  0  0  0  0
  9 10  2  0  0  0  0
  9 31  1  0  0  0  0
 10 11  1  0  0  0  0
 11 12  1  0  0  0  0
 13 14  2  0  0  0  0
 13 32  1  0  0  0  0
 14 15  1  0  0  0  0
 14 17  1  0  0  0  0
 15 16  3  0  0  0  0
 17 18  2  0  0  0  0
 17 19  1  0  0  0  0
 19 20  1  0  0  0  0
 19 33  1  0  0  0  0
 20 25  1  0  0  0  0
 20 21  1  0  0  0  0
 20 34  1  0  0  0  0
 21 22  1  0  0  0  0
 21 35  1  0  0  0  0
 21 36  1  0  0  0  0
 22 23  1  0  0  0  0
 22 37  1  0  0  0  0
 22 38  1  0  0  0  0
 23 24  1  0  0  0  0
 23 39  1  0  0  0  0
 23 40  1  0  0  0  0
 24 25  1  0  0  0  0
 24 41  1  0  0  0  0
 24 42  1  0  0  0  0
 25 43  1  0  0  0  0
 25 44  1  0  0  0  0
M  END
$$$$
ZINC03968680
  -OEChem-08230709453D

 44 46  0     0  0  0  0  0  0999 V2000
    1.1116    3.1025    0.6871 C   0  0  0  0  0  0  0  0  0  0  0  0
    2.4113    2.8077    1.0394 C   0  0  0  0  0  0  0  0  0  0  0  0
    2.7668    1.5074    1.3634 C   0  0  0  0  0  0  0  0  0  0  0  0
    1.8185    0.4963    1.3362 C   0  0  0  0  0  0  0  0  0  0  0  0
    0.5156    0.7788    0.9860 C   0  0  0  0  0  0  0  0  0  0  0  0
    0.1513    2.0876    0.6579 C   0  0  0  0  0  0  0  0  0  0  0  0
   -1.2400    2.3954    0.2765 C   0  0  0  0  0  0  0  0  0  0  0  0
   -1.6530    3.1930   -0.7992 C   0  0  0  0  0  0  0  0  0  0  0  0
   -3.0685    3.1999   -0.7849 C   0  0  0  0  0  0  0  0  0  0  0  0
   -3.4707    2.4778    0.2226 N   0  0  0  0  0  0  0  0  0  0  0  0
   -2.3598    1.9618    0.8980 N   0  0  0  0  0  0  0  0  0  0  0  0
   -4.4253    2.3175    0.4739 H   0  0  0  0  0  0  0  0  0  0  0  0
   -0.8153    3.8634   -1.7231 C   0  0  0  0  0  0  0  0  0  0  0  0
   -1.3244    4.8846   -2.5028 C   0  0  0  0  0  0  0  0  0  0  0  0
   -2.6529    5.3669   -2.2727 C   0  0  0  0  0  0  0  0  0  0  0  0
   -3.7069    5.7494   -2.0902 N   0  0  0  0  0  0  0  0  0  0  0  0
   -0.5025    5.4755   -3.5677 C   0  0  0  0  0  0  0  0  0  0  0  0
    0.6264    5.0657   -3.7633 O   0  0  0  0  0  0  0  0  0  0  0  0
   -0.9989    6.4714   -4.3281 N   0  0  0  0  0  0  0  0  0  0  0  0
   -0.1795    7.0605   -5.3899 C   0  0  0  0  0  0  0  0  0  0  0  0
    0.7121    8.1542   -4.7985 C   0  0  0  0  0  0  0  0  0  0  0  0
    1.5680    8.7695   -5.9075 C   0  0  0  0  0  0  0  0  0  0  0  0
    0.6576    9.3765   -6.9770 C   0  0  0  0  0  0  0  0  0  0  0  0
   -0.2340    8.2827   -7.5683 C   0  0  0  0  0  0  0  0  0  0  0  0
   -1.0898    7.6675   -6.4594 C   0  0  0  0  0  0  0  0  0  0  0  0
    4.0423    1.2244    1.7074 F   0  0  0  0  0  0  0  0  0  0  0  0
    0.8359    4.1158    0.4349 H   0  0  0  0  0  0  0  0  0  0  0  0
    3.1542    3.5912    1.0627 H   0  0  0  0  0  0  0  0  0  0  0  0
    2.1013   -0.5147    1.5896 H   0  0  0  0  0  0  0  0  0  0  0  0
   -0.2221   -0.0096    0.9648 H   0  0  0  0  0  0  0  0  0  0  0  0
   -3.7058    3.7187   -1.4858 H   0  0  0  0  0  0  0  0  0  0  0  0
    0.2216    3.5767   -1.8185 H   0  0  0  0  0  0  0  0  0  0  0  0
   -1.8989    6.7980   -4.1723 H   0  0  0  0  0  0  0  0  0  0  0  0
    0.4437    6.2873   -5.8393 H   0  0  0  0  0  0  0  0  0  0  0  0
    0.0891    8.9275   -4.3492 H   0  0  0  0  0  0  0  0  0  0  0  0
    1.3607    7.7218   -4.0367 H   0  0  0  0  0  0  0  0  0  0  0  0
    2.1911    7.9963   -6.3570 H   0  0  0  0  0  0  0  0  0  0  0  0
    2.2032    9.5488   -5.4863 H   0  0  0  0  0  0  0  0  0  0  0  0
    1.2674    9.8148   -7.7671 H   0  0  0  0  0  0  0  0  0  0  0  0
    0.0346   10.1497   -6.5277 H   0  0  0  0  0  0  0  0  0  0  0  0
    0.3891    7.5095   -8.0178 H   0  0  0  0  0  0  0  0  0  0  0  0
   -0.8825    8.7151   -8.3303 H   0  0  0  0  0  0  0  0  0  0  0  0
   -1.7250    6.8883   -6.8807 H   0  0  0  0  0  0  0  0  0  0  0  0
   -1.7129    8.4407   -6.0100 H   0  0  0  0  0  0  0  0  0  0  0  0
  1  6  2  0  0  0  0
  1  2  1  0  0  0  0
  1 27  1  0  0  0  0
  2  3  2  0  0  0  0
  2 28  1  0  0  0  0
  3  4  1  0  0  0  0
  3 26  1  0  0  0  0
  4  5  2  0  0  0  0
  4 29  1  0  0  0  0
  5  6  1  0  0  0  0
  5 30  1  0  0  0  0
  6  7  1  0  0  0  0
  7  8  1  0  0  0  0
  7 11  2  0  0  0  0
  8 13  1  0  0  0  0
  8  9  2  0  0  0  0
  9 31  1  0  0  0  0
  9 10  1  0  0  0  0
 10 12  1  0  0  0  0
 10 11  1  0  0  0  0
 13 14  2  0  0  0  0
 13 32  1  0  0  0  0
 14 15  1  0  0  0  0
 14 17  1  0  0  0  0
 15 16  3  0  0  0  0
 17 18  2  0  0  0  0
 17 19  1  0  0  0  0
 19 20  1  0  0  0  0
 19 33  1  0  0  0  0
 20 25  1  0  0  0  0
 20 21  1  0  0  0  0
 20 34  1  0  0  0  0
 21 22  1  0  0  0  0
 21 35  1  0  0  0  0
 21 36  1  0  0  0  0
 22 23  1  0  0  0  0
 22 37  1  0  0  0  0
 22 38  1  0  0  0  0
 23 24  1  0  0  0  0
 23 39  1  0  0  0  0
 23 40  1  0  0  0  0
 24 25  1  0  0  0  0
 24 41  1  0  0  0  0
 24 42  1  0  0  0  0
 25 43  1  0  0  0  0
 25 44  1  0  0  0  0
M  END
$$$$
ZINC03968681
  -OEChem-08230709453D

 44 46  0     0  0  0  0  0  0999 V2000
    7.2456   -1.0411    0.9991 C   0  0  0  0  0  0  0  0  0  0  0  0
    8.6071   -1.0422    0.7839 C   0  0  0  0  0  0  0  0  0  0  0  0
    9.4736   -1.3888    1.8092 C   0  0  0  0  0  0  0  0  0  0  0  0
    8.9773   -1.7310    3.0577 C   0  0  0  0  0  0  0  0  0  0  0  0
    7.6180   -1.7285    3.2865 C   0  0  0  0  0  0  0  0  0  0  0  0
    6.7396   -1.3800    2.2569 C   0  0  0  0  0  0  0  0  0  0  0  0
    5.2839   -1.3758    2.4952 C   0  0  0  0  0  0  0  0  0  0  0  0
    4.3771   -0.3824    2.1020 C   0  0  0  0  0  0  0  0  0  0  0  0
    3.0980   -0.7957    2.5458 C   0  0  0  0  0  0  0  0  0  0  0  0
    3.2253   -1.9455    3.1459 N   0  0  0  0  0  0  0  0  0  0  0  0
    4.5701   -2.3300    3.1343 N   0  0  0  0  0  0  0  0  0  0  0  0
    4.9412   -3.1693    3.5317 H   0  0  0  0  0  0  0  0  0  0  0  0
    4.6825    0.8090    1.4006 C   0  0  0  0  0  0  0  0  0  0  0  0
    3.8697    1.2287    0.3647 C   0  0  0  0  0  0  0  0  0  0  0  0
    4.0570    2.5261   -0.2119 C   0  0  0  0  0  0  0  0  0  0  0  0
    4.2056    3.5553   -0.6693 N   0  0  0  0  0  0  0  0  0  0  0  0
    2.8134    0.3438   -0.1451 C   0  0  0  0  0  0  0  0  0  0  0  0
    2.7327   -0.8017    0.2571 O   0  0  0  0  0  0  0  0  0  0  0  0
    1.9337    0.8010   -1.0582 N   0  0  0  0  0  0  0  0  0  0  0  0
    0.8805   -0.0814   -1.5665 C   0  0  0  0  0  0  0  0  0  0  0  0
   -0.3160   -0.0490   -0.6134 C   0  0  0  0  0  0  0  0  0  0  0  0
   -1.4160   -0.9705   -1.1442 C   0  0  0  0  0  0  0  0  0  0  0  0
   -1.8551   -0.4945   -2.5304 C   0  0  0  0  0  0  0  0  0  0  0  0
   -0.6587   -0.5269   -3.4835 C   0  0  0  0  0  0  0  0  0  0  0  0
    0.4413    0.3946   -2.9527 C   0  0  0  0  0  0  0  0  0  0  0  0
   10.8068   -1.3926    1.5910 F   0  0  0  0  0  0  0  0  0  0  0  0
    6.5714   -0.7750    0.1985 H   0  0  0  0  0  0  0  0  0  0  0  0
    8.9995   -0.7765   -0.1866 H   0  0  0  0  0  0  0  0  0  0  0  0
    9.6571   -2.0005    3.8525 H   0  0  0  0  0  0  0  0  0  0  0  0
    7.2326   -1.9956    4.2594 H   0  0  0  0  0  0  0  0  0  0  0  0
    2.1746   -0.2528    2.4082 H   0  0  0  0  0  0  0  0  0  0  0  0
    5.5507    1.3898    1.6751 H   0  0  0  0  0  0  0  0  0  0  0  0
    1.9981    1.7142   -1.3788 H   0  0  0  0  0  0  0  0  0  0  0  0
    1.2621   -1.1000   -1.6361 H   0  0  0  0  0  0  0  0  0  0  0  0
   -0.0031   -0.3881    0.3741 H   0  0  0  0  0  0  0  0  0  0  0  0
   -0.6975    0.9697   -0.5438 H   0  0  0  0  0  0  0  0  0  0  0  0
   -2.2683   -0.9474   -0.4653 H   0  0  0  0  0  0  0  0  0  0  0  0
   -1.0344   -1.9891   -1.2139 H   0  0  0  0  0  0  0  0  0  0  0  0
   -2.2367    0.5242   -2.4608 H   0  0  0  0  0  0  0  0  0  0  0  0
   -2.6388   -1.1510   -2.9086 H   0  0  0  0  0  0  0  0  0  0  0  0
   -0.9715   -0.1878   -4.4710 H   0  0  0  0  0  0  0  0  0  0  0  0
   -0.2771   -1.5455   -3.5531 H   0  0  0  0  0  0  0  0  0  0  0  0
    0.0597    1.4133   -2.8830 H   0  0  0  0  0  0  0  0  0  0  0  0
    1.2937    0.3715   -3.6317 H   0  0  0  0  0  0  0  0  0  0  0  0
  1  6  2  0  0  0  0
  1  2  1  0  0  0  0
  1 27  1  0  0  0  0
  2  3  2  0  0  0  0
  2 28  1  0  0  0  0
  3  4  1  0  0  0  0
  3 26  1  0  0  0  0
  4  5  2  0  0  0  0
  4 29  1  0  0  0  0
  5  6  1  0  0  0  0
  5 30  1  0  0  0  0
  6  7  1  0  0  0  0
  7 11  1  0  0  0  0
  7  8  2  0  0  0  0
  8  9  1  0  0  0  0
  8 13  1  0  0  0  0
  9 10  2  0  0  0  0
  9 31  1  0  0  0  0
 10 11  1  0  0  0  0
 11 12  1  0  0  0  0
 13 14  2  0  0  0  0
 13 32  1  0  0  0  0
 14 15  1  0  0  0  0
 14 17  1  0  0  0  0
 15 16  3  0  0  0  0
 17 18  2  0  0  0  0
 17 19  1  0  0  0  0
 19 20  1  0  0  0  0
 19 33  1  0  0  0  0
 20 25  1  0  0  0  0
 20 21  1  0  0  0  0
 20 34  1  0  0  0  0
 21 22  1  0  0  0  0
 21 35  1  0  0  0  0
 21 36  1  0  0  0  0
 22 23  1  0  0  0  0
 22 37  1  0  0  0  0
 22 38  1  0  0  0  0
 23 24  1  0  0  0  0
 23 39  1  0  0  0  0
 23 40  1  0  0  0  0
 24 25  1  0  0  0  0
 24 41  1  0  0  0  0
 24 42  1  0  0  0  0
 25 43  1  0  0  0  0
 25 44  1  0  0  0  0
M  END
$$$$
ZINC03968681
  -OEChem-08230709453D

 44 46  0     0  0  0  0  0  0999 V2000
    7.2433   -1.0407    0.9928 C   0  0  0  0  0  0  0  0  0  0  0  0
    8.6045   -1.0428    0.7758 C   0  0  0  0  0  0  0  0  0  0  0  0
    9.4718   -1.3947    1.7986 C   0  0  0  0  0  0  0  0  0  0  0  0
    8.9766   -1.7412    3.0463 C   0  0  0  0  0  0  0  0  0  0  0  0
    7.6177   -1.7377    3.2769 C   0  0  0  0  0  0  0  0  0  0  0  0
    6.7384   -1.3839    2.2498 C   0  0  0  0  0  0  0  0  0  0  0  0
    5.2830   -1.3786    2.4900 C   0  0  0  0  0  0  0  0  0  0  0  0
    4.3772   -0.3822    2.1024 C   0  0  0  0  0  0  0  0  0  0  0  0
    3.0981   -0.7954    2.5464 C   0  0  0  0  0  0  0  0  0  0  0  0
    3.2253   -1.9455    3.1459 N   0  0  0  0  0  0  0  0  0  0  0  0
    4.5687   -2.3344    3.1262 N   0  0  0  0  0  0  0  0  0  0  0  0
    2.4784   -2.4688    3.5562 H   0  0  0  0  0  0  0  0  0  0  0  0
    4.6826    0.8093    1.4012 C   0  0  0  0  0  0  0  0  0  0  0  0
    3.8696    1.2293    0.3655 C   0  0  0  0  0  0  0  0  0  0  0  0
    4.0570    2.5268   -0.2109 C   0  0  0  0  0  0  0  0  0  0  0  0
    4.2056    3.5561   -0.6681 N   0  0  0  0  0  0  0  0  0  0  0  0
    2.8130    0.3447   -0.1442 C   0  0  0  0  0  0  0  0  0  0  0  0
    2.7322   -0.8009    0.2578 O   0  0  0  0  0  0  0  0  0  0  0  0
    1.9332    0.8022   -1.0570 N   0  0  0  0  0  0  0  0  0  0  0  0
    0.8797   -0.0799   -1.5652 C   0  0  0  0  0  0  0  0  0  0  0  0
   -0.3165   -0.0475   -0.6118 C   0  0  0  0  0  0  0  0  0  0  0  0
   -1.4168   -0.9687   -1.1425 C   0  0  0  0  0  0  0  0  0  0  0  0
   -1.8562   -0.4924   -2.5285 C   0  0  0  0  0  0  0  0  0  0  0  0
   -0.6600   -0.5248   -3.4819 C   0  0  0  0  0  0  0  0  0  0  0  0
    0.4402    0.3964   -2.9512 C   0  0  0  0  0  0  0  0  0  0  0  0
   10.8047   -1.3995    1.5786 F   0  0  0  0  0  0  0  0  0  0  0  0
    6.5684   -0.7704    0.1941 H   0  0  0  0  0  0  0  0  0  0  0  0
    8.9960   -0.7737   -0.1942 H   0  0  0  0  0  0  0  0  0  0  0  0
    9.6571   -2.0148    3.8392 H   0  0  0  0  0  0  0  0  0  0  0  0
    7.2331   -2.0082    4.2492 H   0  0  0  0  0  0  0  0  0  0  0  0
    2.1751   -0.2511    2.4114 H   0  0  0  0  0  0  0  0  0  0  0  0
    5.5510    1.3899    1.6755 H   0  0  0  0  0  0  0  0  0  0  0  0
    1.9977    1.7155   -1.3774 H   0  0  0  0  0  0  0  0  0  0  0  0
    1.2611   -1.0986   -1.6351 H   0  0  0  0  0  0  0  0  0  0  0  0
   -0.0035   -0.3868    0.3756 H   0  0  0  0  0  0  0  0  0  0  0  0
   -0.6979    0.9712   -0.5419 H   0  0  0  0  0  0  0  0  0  0  0  0
   -2.2690   -0.9456   -0.4634 H   0  0  0  0  0  0  0  0  0  0  0  0
   -1.0354   -1.9874   -1.2125 H   0  0  0  0  0  0  0  0  0  0  0  0
   -2.2376    0.5263   -2.4586 H   0  0  0  0  0  0  0  0  0  0  0  0
   -2.6401   -1.1487   -2.9066 H   0  0  0  0  0  0  0  0  0  0  0  0
   -0.9730   -0.1855   -4.4692 H   0  0  0  0  0  0  0  0  0  0  0  0
   -0.2786   -1.5435   -3.5518 H   0  0  0  0  0  0  0  0  0  0  0  0
    0.0588    1.4152   -2.8812 H   0  0  0  0  0  0  0  0  0  0  0  0
    1.2925    0.3733   -3.6304 H   0  0  0  0  0  0  0  0  0  0  0  0
  1  6  2  0  0  0  0
  1  2  1  0  0  0  0
  1 27  1  0  0  0  0
  2  3  2  0  0  0  0
  2 28  1  0  0  0  0
  3  4  1  0  0  0  0
  3 26  1  0  0  0  0
  4  5  2  0  0  0  0
  4 29  1  0  0  0  0
  5  6  1  0  0  0  0
  5 30  1  0  0  0  0
  6  7  1  0  0  0  0
  7  8  1  0  0  0  0
  7 11  2  0  0  0  0
  8 13  1  0  0  0  0
  8  9  2  0  0  0  0
  9 31  1  0  0  0  0
  9 10  1  0  0  0  0
 10 12  1  0  0  0  0
 10 11  1  0  0  0  0
 13 14  2  0  0  0  0
 13 32  1  0  0  0  0
 14 15  1  0  0  0  0
 14 17  1  0  0  0  0
 15 16  3  0  0  0  0
 17 18  2  0  0  0  0
 17 19  1  0  0  0  0
 19 20  1  0  0  0  0
 19 33  1  0  0  0  0
 20 25  1  0  0  0  0
 20 21  1  0  0  0  0
 20 34  1  0  0  0  0
 21 22  1  0  0  0  0
 21 35  1  0  0  0  0
 21 36  1  0  0  0  0
 22 23  1  0  0  0  0
 22 37  1  0  0  0  0
 22 38  1  0  0  0  0
 23 24  1  0  0  0  0
 23 39  1  0  0  0  0
 23 40  1  0  0  0  0
 24 25  1  0  0  0  0
 24 41  1  0  0  0  0
 24 42  1  0  0  0  0
 25 43  1  0  0  0  0
 25 44  1  0  0  0  0
M  END
$$$$
ZINC03969806
  -OEChem-08230709453D

 42 44  0     0  0  0  0  0  0999 V2000
   -1.5937    4.4021    0.0379 C   0  0  0  0  0  0  0  0  0  0  0  0
   -0.7113    3.1805    0.0246 C   0  0  0  0  0  0  0  0  0  0  0  0
   -1.1457    1.8983    0.0170 C   0  0  0  0  0  0  0  0  0  0  0  0
   -0.0126    1.0758    0.0080 C   0  0  0  0  0  0  0  0  0  0  0  0
    1.0857    1.9195    0.0020 C   0  0  0  0  0  0  0  0  0  0  0  0
    0.6278    3.1898    0.0124 O   0  0  0  0  0  0  0  0  0  0  0  0
    2.4359    1.5241   -0.0116 C   0  0  0  0  0  0  0  0  0  0  0  0
    3.4384    2.4813   -0.0162 C   0  0  0  0  0  0  0  0  0  0  0  0
    3.0999    3.8727   -0.0071 C   0  0  0  0  0  0  0  0  0  0  0  0
    2.8313    4.9765    0.0000 N   0  0  0  0  0  0  0  0  0  0  0  0
    4.8470    2.0688   -0.0304 C   0  0  0  0  0  0  0  0  0  0  0  0
    5.1347    0.8863   -0.0381 O   0  0  0  0  0  0  0  0  0  0  0  0
    5.8217    2.9995   -0.0349 N   0  0  0  0  0  0  0  0  0  0  0  0
    7.1510    2.6102   -0.0483 C   0  0  0  0  0  0  0  0  0  0  0  0
    8.2844    3.4116   -0.0604 C   0  0  0  0  0  0  0  0  0  0  0  0
    9.5765    2.7468   -0.0699 C   0  0  0  0  0  0  0  0  0  0  0  0
    9.5289    1.3970   -0.0759 C   0  0  0  0  0  0  0  0  0  0  0  0
    7.8026    1.0048   -0.0616 S   0  0  0  0  0  0  0  0  0  0  0  0
   10.6909    0.4524   -0.0916 C   0  0  0  0  0  0  0  0  0  0  0  0
   11.9505    1.2413   -0.4779 C   0  0  0  0  0  0  0  0  0  0  0  0
   12.0099    2.5190    0.3642 C   0  0  0  0  0  0  0  0  0  0  0  0
   10.9095    3.4851   -0.0781 C   0  0  0  0  0  0  0  0  0  0  0  0
    8.1817    4.8739   -0.0596 C   0  0  0  0  0  0  0  0  0  0  0  0
    8.1507    5.4813    0.9947 O   0  0  0  0  0  0  0  0  0  0  0  0
    8.1217    5.5458   -1.2264 N   0  0  0  0  0  0  0  0  0  0  0  0
   -0.9734    5.2984    0.0365 H   0  0  0  0  0  0  0  0  0  0  0  0
   -2.2308    4.3997   -0.8465 H   0  0  0  0  0  0  0  0  0  0  0  0
   -2.2151    4.3917    0.9333 H   0  0  0  0  0  0  0  0  0  0  0  0
   -2.1748    1.5707    0.0200 H   0  0  0  0  0  0  0  0  0  0  0  0
    0.0021   -0.0041    0.0020 H   0  0  0  0  0  0  0  0  0  0  0  0
    2.6912    0.4747   -0.0184 H   0  0  0  0  0  0  0  0  0  0  0  0
    5.5924    3.9420   -0.0287 H   0  0  0  0  0  0  0  0  0  0  0  0
   10.8213    0.0140    0.8978 H   0  0  0  0  0  0  0  0  0  0  0  0
   10.5128   -0.3367   -0.8222 H   0  0  0  0  0  0  0  0  0  0  0  0
   12.8352    0.6347   -0.2844 H   0  0  0  0  0  0  0  0  0  0  0  0
   11.9093    1.5002   -1.5359 H   0  0  0  0  0  0  0  0  0  0  0  0
   11.8694    2.2668    1.4153 H   0  0  0  0  0  0  0  0  0  0  0  0
   12.9819    2.9945    0.2327 H   0  0  0  0  0  0  0  0  0  0  0  0
   10.8645    4.3281    0.6114 H   0  0  0  0  0  0  0  0  0  0  0  0
   11.1232    3.8466   -1.0839 H   0  0  0  0  0  0  0  0  0  0  0  0
    8.1465    5.0618   -2.0667 H   0  0  0  0  0  0  0  0  0  0  0  0
    8.0538    6.5134   -1.2259 H   0  0  0  0  0  0  0  0  0  0  0  0
  1  2  1  0  0  0  0
  1 26  1  0  0  0  0
  1 27  1  0  0  0  0
  1 28  1  0  0  0  0
  2  6  1  0  0  0  0
  2  3  2  0  0  0  0
  3  4  1  0  0  0  0
  3 29  1  0  0  0  0
  4  5  2  0  0  0  0
  4 30  1  0  0  0  0
  5  6  1  0  0  0  0
  5  7  1  0  0  0  0
  7  8  2  0  0  0  0
  7 31  1  0  0  0  0
  8  9  1  0  0  0  0
  8 11  1  0  0  0  0
  9 10  3  0  0  0  0
 11 12  2  0  0  0  0
 11 13  1  0  0  0  0
 13 14  1  0  0  0  0
 13 32  1  0  0  0  0
 14 18  1  0  0  0  0
 14 15  2  0  0  0  0
 15 16  1  0  0  0  0
 15 23  1  0  0  0  0
 16 22  1  0  0  0  0
 16 17  2  0  0  0  0
 17 18  1  0  0  0  0
 17 19  1  0  0  0  0
 19 20  1  0  0  0  0
 19 33  1  0  0  0  0
 19 34  1  0  0  0  0
 20 21  1  0  0  0  0
 20 35  1  0  0  0  0
 20 36  1  0  0  0  0
 21 22  1  0  0  0  0
 21 37  1  0  0  0  0
 21 38  1  0  0  0  0
 22 39  1  0  0  0  0
 22 40  1  0  0  0  0
 23 24  2  0  0  0  0
 23 25  1  0  0  0  0
 25 41  1  0  0  0  0
 25 42  1  0  0  0  0
M  END
$$$$
ZINC03969807
  -OEChem-08230709453D

 42 44  0     0  0  0  0  0  0999 V2000
   -0.9438    1.5149   -2.8041 C   0  0  0  0  0  0  0  0  0  0  0  0
    0.0876    0.9059   -1.8896 C   0  0  0  0  0  0  0  0  0  0  0  0
    1.0338    1.5918   -1.2063 C   0  0  0  0  0  0  0  0  0  0  0  0
    1.7861    0.6561   -0.4858 C   0  0  0  0  0  0  0  0  0  0  0  0
    1.2473   -0.5868   -0.7730 C   0  0  0  0  0  0  0  0  0  0  0  0
    0.2183   -0.4010   -1.6276 O   0  0  0  0  0  0  0  0  0  0  0  0
    1.6922   -1.8215   -0.2659 C   0  0  0  0  0  0  0  0  0  0  0  0
    0.7735   -2.7988    0.0839 C   0  0  0  0  0  0  0  0  0  0  0  0
    1.2234   -4.1136    0.4297 C   0  0  0  0  0  0  0  0  0  0  0  0
    1.5802   -5.1566    0.7039 N   0  0  0  0  0  0  0  0  0  0  0  0
   -0.6605   -2.4859    0.1000 C   0  0  0  0  0  0  0  0  0  0  0  0
   -1.0355   -1.3411   -0.0728 O   0  0  0  0  0  0  0  0  0  0  0  0
   -1.5619   -3.4664    0.3061 N   0  0  0  0  0  0  0  0  0  0  0  0
   -2.9152   -3.1711    0.3212 C   0  0  0  0  0  0  0  0  0  0  0  0
   -3.9846   -4.0357    0.5103 C   0  0  0  0  0  0  0  0  0  0  0  0
   -5.3211   -3.4660    0.4843 C   0  0  0  0  0  0  0  0  0  0  0  0
   -5.3747   -2.1344    0.2646 C   0  0  0  0  0  0  0  0  0  0  0  0
   -3.6843   -1.6342    0.1013 S   0  0  0  0  0  0  0  0  0  0  0  0
   -6.6029   -1.2817    0.1792 C   0  0  0  0  0  0  0  0  0  0  0  0
   -7.8197   -2.2023    0.0059 C   0  0  0  0  0  0  0  0  0  0  0  0
   -7.7368   -3.3295    1.0392 C   0  0  0  0  0  0  0  0  0  0  0  0
   -6.5937   -4.2807    0.6806 C   0  0  0  0  0  0  0  0  0  0  0  0
   -3.7734   -5.4693    0.7314 C   0  0  0  0  0  0  0  0  0  0  0  0
   -3.6379   -5.8971    1.8629 O   0  0  0  0  0  0  0  0  0  0  0  0
   -3.7293   -6.3138   -0.3181 N   0  0  0  0  0  0  0  0  0  0  0  0
   -1.5703    0.7265   -3.2213 H   0  0  0  0  0  0  0  0  0  0  0  0
   -1.5640    2.2113   -2.2397 H   0  0  0  0  0  0  0  0  0  0  0  0
   -0.4433    2.0474   -3.6128 H   0  0  0  0  0  0  0  0  0  0  0  0
    1.1809    2.6617   -1.2152 H   0  0  0  0  0  0  0  0  0  0  0  0
    2.6224    0.8631    0.1656 H   0  0  0  0  0  0  0  0  0  0  0  0
    2.7496   -2.0079   -0.1493 H   0  0  0  0  0  0  0  0  0  0  0  0
   -1.2630   -4.3789    0.4438 H   0  0  0  0  0  0  0  0  0  0  0  0
   -6.7102   -0.6997    1.0946 H   0  0  0  0  0  0  0  0  0  0  0  0
   -6.5250   -0.6102   -0.6758 H   0  0  0  0  0  0  0  0  0  0  0  0
   -8.7350   -1.6311    0.1610 H   0  0  0  0  0  0  0  0  0  0  0  0
   -7.8184   -2.6243   -0.9991 H   0  0  0  0  0  0  0  0  0  0  0  0
   -7.5571   -2.9034    2.0262 H   0  0  0  0  0  0  0  0  0  0  0  0
   -8.6764   -3.8818    1.0488 H   0  0  0  0  0  0  0  0  0  0  0  0
   -6.4477   -4.9976    1.4886 H   0  0  0  0  0  0  0  0  0  0  0  0
   -6.8356   -4.8120   -0.2399 H   0  0  0  0  0  0  0  0  0  0  0  0
   -3.8373   -5.9729   -1.2197 H   0  0  0  0  0  0  0  0  0  0  0  0
   -3.5895   -7.2625   -0.1717 H   0  0  0  0  0  0  0  0  0  0  0  0
  1  2  1  0  0  0  0
  1 26  1  0  0  0  0
  1 27  1  0  0  0  0
  1 28  1  0  0  0  0
  2  6  1  0  0  0  0
  2  3  2  0  0  0  0
  3  4  1  0  0  0  0
  3 29  1  0  0  0  0
  4  5  2  0  0  0  0
  4 30  1  0  0  0  0
  5  6  1  0  0  0  0
  5  7  1  0  0  0  0
  7  8  2  0  0  0  0
  7 31  1  0  0  0  0
  8  9  1  0  0  0  0
  8 11  1  0  0  0  0
  9 10  3  0  0  0  0
 11 12  2  0  0  0  0
 11 13  1  0  0  0  0
 13 14  1  0  0  0  0
 13 32  1  0  0  0  0
 14 18  1  0  0  0  0
 14 15  2  0  0  0  0
 15 16  1  0  0  0  0
 15 23  1  0  0  0  0
 16 22  1  0  0  0  0
 16 17  2  0  0  0  0
 17 18  1  0  0  0  0
 17 19  1  0  0  0  0
 19 20  1  0  0  0  0
 19 33  1  0  0  0  0
 19 34  1  0  0  0  0
 20 21  1  0  0  0  0
 20 35  1  0  0  0  0
 20 36  1  0  0  0  0
 21 22  1  0  0  0  0
 21 37  1  0  0  0  0
 21 38  1  0  0  0  0
 22 39  1  0  0  0  0
 22 40  1  0  0  0  0
 23 24  2  0  0  0  0
 23 25  1  0  0  0  0
 25 41  1  0  0  0  0
 25 42  1  0  0  0  0
M  END
$$$$
ZINC03969858
  -OEChem-08230709453D

 43 45  0     0  0  0  0  0  0999 V2000
    2.6864   -9.9492   -0.5878 C   0  0  0  0  0  0  0  0  0  0  0  0
    2.3236   -8.5423   -0.9878 C   0  0  0  0  0  0  0  0  0  0  0  0
    2.3236   -8.0613   -2.2447 C   0  0  0  0  0  0  0  0  0  0  0  0
    1.9073   -6.6585   -2.1561 C   0  0  0  0  0  0  0  0  0  0  0  0
    1.6934   -6.4054   -0.8313 C   0  0  0  0  0  0  0  0  0  0  0  0
    1.9407   -7.5474   -0.1341 N   0  0  0  0  0  0  0  0  0  0  0  0
    1.8258   -7.6813    1.2562 C   0  0  0  0  0  0  0  0  0  0  0  0
    0.5850   -7.5576    1.8668 C   0  0  0  0  0  0  0  0  0  0  0  0
    0.4743   -7.6943    3.2367 C   0  0  0  0  0  0  0  0  0  0  0  0
    1.5991   -7.9442    4.0011 C   0  0  0  0  0  0  0  0  0  0  0  0
    2.8370   -8.0631    3.3965 C   0  0  0  0  0  0  0  0  0  0  0  0
    2.9534   -7.9322    2.0265 C   0  0  0  0  0  0  0  0  0  0  0  0
    1.2554   -5.0889   -0.2431 C   0  0  0  0  0  0  0  0  0  0  0  0
    1.7560   -5.7088   -3.2734 C   0  0  0  0  0  0  0  0  0  0  0  0
    1.6207   -6.1503   -4.4866 N   0  0  0  0  0  0  0  0  0  0  0  0
    1.4175   -7.5173   -4.7160 N   0  0  0  0  0  0  0  0  0  0  0  0
    1.3935   -7.9927   -5.9769 C   0  0  0  0  0  0  0  0  0  0  0  0
    1.5479   -7.2368   -6.9133 O   0  0  0  0  0  0  0  0  0  0  0  0
    1.1748   -9.4632   -6.2237 C   0  0  0  0  0  0  0  0  0  0  0  0
    1.1917   -9.7317   -7.7065 C   0  0  0  0  0  0  0  0  0  0  0  0
    2.1979  -10.0377   -8.5000 N   0  0  0  0  0  0  0  0  0  0  0  0
    2.0434  -10.2345   -9.7362 N   0  0  0  0  0  0  0  0  0  0  0  0
    0.8533  -10.1448  -10.3150 C   0  0  0  0  0  0  0  0  0  0  0  0
   -0.1500   -9.7262   -8.8921 S   0  0  0  0  0  0  0  0  0  0  0  0
    0.4903  -10.3232  -11.6417 N   0  0  0  0  0  0  0  0  0  0  0  0
    3.7555  -10.0042   -0.3822 H   0  0  0  0  0  0  0  0  0  0  0  0
    2.1296  -10.2275    0.3069 H   0  0  0  0  0  0  0  0  0  0  0  0
    2.4367  -10.6333   -1.3987 H   0  0  0  0  0  0  0  0  0  0  0  0
    2.5798   -8.6030   -3.1431 H   0  0  0  0  0  0  0  0  0  0  0  0
   -0.2933   -7.3584    1.2707 H   0  0  0  0  0  0  0  0  0  0  0  0
   -0.4912   -7.6019    3.7118 H   0  0  0  0  0  0  0  0  0  0  0  0
    1.5106   -8.0470    5.0726 H   0  0  0  0  0  0  0  0  0  0  0  0
    3.7138   -8.2583    3.9962 H   0  0  0  0  0  0  0  0  0  0  0  0
    3.9205   -8.0252    1.5548 H   0  0  0  0  0  0  0  0  0  0  0  0
    0.1689   -5.0148   -0.2871 H   0  0  0  0  0  0  0  0  0  0  0  0
    1.5820   -5.0282    0.7951 H   0  0  0  0  0  0  0  0  0  0  0  0
    1.6987   -4.2715   -0.8118 H   0  0  0  0  0  0  0  0  0  0  0  0
    1.7577   -4.6458   -3.0826 H   0  0  0  0  0  0  0  0  0  0  0  0
    1.2940   -8.1216   -3.9674 H   0  0  0  0  0  0  0  0  0  0  0  0
    0.2108   -9.7614   -5.8115 H   0  0  0  0  0  0  0  0  0  0  0  0
    1.9684  -10.0344   -5.7420 H   0  0  0  0  0  0  0  0  0  0  0  0
    1.1632  -10.5510  -12.3022 H   0  0  0  0  0  0  0  0  0  0  0  0
   -0.4364  -10.2202  -11.9090 H   0  0  0  0  0  0  0  0  0  0  0  0
  1  2  1  0  0  0  0
  1 26  1  0  0  0  0
  1 27  1  0  0  0  0
  1 28  1  0  0  0  0
  2  6  1  0  0  0  0
  2  3  2  0  0  0  0
  3  4  1  0  0  0  0
  3 29  1  0  0  0  0
  4  5  2  0  0  0  0
  4 14  1  0  0  0  0
  5  6  1  0  0  0  0
  5 13  1  0  0  0  0
  6  7  1  0  0  0  0
  7 12  2  0  0  0  0
  7  8  1  0  0  0  0
  8  9  2  0  0  0  0
  8 30  1  0  0  0  0
  9 10  1  0  0  0  0
  9 31  1  0  0  0  0
 10 11  2  0  0  0  0
 10 32  1  0  0  0  0
 11 12  1  0  0  0  0
 11 33  1  0  0  0  0
 12 34  1  0  0  0  0
 13 35  1  0  0  0  0
 13 36  1  0  0  0  0
 13 37  1  0  0  0  0
 14 15  2  0  0  0  0
 14 38  1  0  0  0  0
 15 16  1  0  0  0  0
 16 17  1  0  0  0  0
 16 39  1  0  0  0  0
 17 18  2  0  0  0  0
 17 19  1  0  0  0  0
 19 20  1  0  0  0  0
 19 40  1  0  0  0  0
 19 41  1  0  0  0  0
 20 24  1  0  0  0  0
 20 21  2  0  0  0  0
 21 22  1  0  0  0  0
 22 23  2  0  0  0  0
 23 24  1  0  0  0  0
 23 25  1  0  0  0  0
 25 42  1  0  0  0  0
 25 43  1  0  0  0  0
M  END
$$$$
ZINC03970212
  -OEChem-08230709453D

 41 43  0     0  0  0  0  0  0999 V2000
   -6.3680   11.0726    3.7381 C   0  0  0  0  0  0  0  0  0  0  0  0
   -5.2069   10.2041    3.3275 C   0  0  0  0  0  0  0  0  0  0  0  0
   -3.8954   10.5327    3.2092 C   0  0  0  0  0  0  0  0  0  0  0  0
   -2.9933    9.5658    2.8202 C   0  0  0  0  0  0  0  0  0  0  0  0
   -3.4542    8.3051    2.5540 C   0  0  0  0  0  0  0  0  0  0  0  0
   -5.2024    8.4779    2.8724 S   0  0  0  0  0  0  0  0  0  0  0  0
   -2.6992    7.1085    2.1211 C   0  0  0  0  0  0  0  0  0  0  0  0
   -3.2374    5.8325    1.8636 C   0  0  0  0  0  0  0  0  0  0  0  0
   -2.1595    5.0502    1.4952 C   0  0  0  0  0  0  0  0  0  0  0  0
   -1.0597    5.8606    1.5367 N   0  0  0  0  0  0  0  0  0  0  0  0
   -0.1272    5.5748    1.3158 H   0  0  0  0  0  0  0  0  0  0  0  0
   -1.4014    7.0436    1.9014 N   0  0  0  0  0  0  0  0  0  0  0  0
   -2.1907    3.6264    1.1249 C   0  0  0  0  0  0  0  0  0  0  0  0
   -3.2452    3.0196    1.1295 O   0  0  0  0  0  0  0  0  0  0  0  0
   -1.0510    2.9946    0.7807 N   0  0  0  0  0  0  0  0  0  0  0  0
   -1.0807    1.6390    0.4281 N   0  0  0  0  0  0  0  0  0  0  0  0
   -0.0062    1.0595   -0.0135 C   0  0  0  0  0  0  0  0  0  0  0  0
    1.1760    1.8671   -0.3630 C   0  0  0  0  0  0  0  0  0  0  0  0
    1.0248    3.2000   -0.7561 C   0  0  0  0  0  0  0  0  0  0  0  0
    2.1332    3.9523   -1.0818 C   0  0  0  0  0  0  0  0  0  0  0  0
    3.3989    3.3945   -1.0214 C   0  0  0  0  0  0  0  0  0  0  0  0
    3.5640    2.0743   -0.6334 C   0  0  0  0  0  0  0  0  0  0  0  0
    2.4563    1.3049   -0.2974 C   0  0  0  0  0  0  0  0  0  0  0  0
    2.6151    0.0115    0.0885 O   0  0  0  0  0  0  0  0  0  0  0  0
    4.8104    1.5332   -0.5759 O   0  0  0  0  0  0  0  0  0  0  0  0
    5.9035    2.3832   -0.9291 C   0  0  0  0  0  0  0  0  0  0  0  0
   -7.2847   10.4831    3.7262 H   0  0  0  0  0  0  0  0  0  0  0  0
   -6.1963   11.4572    4.7435 H   0  0  0  0  0  0  0  0  0  0  0  0
   -6.4627   11.9057    3.0417 H   0  0  0  0  0  0  0  0  0  0  0  0
   -3.5622   11.5379    3.4213 H   0  0  0  0  0  0  0  0  0  0  0  0
   -1.9433    9.7995    2.7241 H   0  0  0  0  0  0  0  0  0  0  0  0
   -4.2713    5.5298    1.9394 H   0  0  0  0  0  0  0  0  0  0  0  0
   -0.2103    3.4784    0.7771 H   0  0  0  0  0  0  0  0  0  0  0  0
    0.0198   -0.0140   -0.1291 H   0  0  0  0  0  0  0  0  0  0  0  0
    0.0399    3.6405   -0.8043 H   0  0  0  0  0  0  0  0  0  0  0  0
    2.0136    4.9819   -1.3852 H   0  0  0  0  0  0  0  0  0  0  0  0
    4.2618    3.9909   -1.2782 H   0  0  0  0  0  0  0  0  0  0  0  0
    2.6665   -0.6148   -0.6465 H   0  0  0  0  0  0  0  0  0  0  0  0
    6.8380    1.8291   -0.8407 H   0  0  0  0  0  0  0  0  0  0  0  0
    5.7801    2.7260   -1.9564 H   0  0  0  0  0  0  0  0  0  0  0  0
    5.9263    3.2430   -0.2595 H   0  0  0  0  0  0  0  0  0  0  0  0
  1  2  1  0  0  0  0
  1 27  1  0  0  0  0
  1 28  1  0  0  0  0
  1 29  1  0  0  0  0
  2  6  1  0  0  0  0
  2  3  2  0  0  0  0
  3  4  1  0  0  0  0
  3 30  1  0  0  0  0
  4  5  2  0  0  0  0
  4 31  1  0  0  0  0
  5  6  1  0  0  0  0
  5  7  1  0  0  0  0
  7 12  2  0  0  0  0
  7  8  1  0  0  0  0
  8  9  2  0  0  0  0
  8 32  1  0  0  0  0
  9 10  1  0  0  0  0
  9 13  1  0  0  0  0
 10 11  1  0  0  0  0
 10 12  1  0  0  0  0
 13 14  2  0  0  0  0
 13 15  1  0  0  0  0
 15 16  1  0  0  0  0
 15 33  1  0  0  0  0
 16 17  2  0  0  0  0
 17 18  1  0  0  0  0
 17 34  1  0  0  0  0
 18 23  2  0  0  0  0
 18 19  1  0  0  0  0
 19 20  2  0  0  0  0
 19 35  1  0  0  0  0
 20 21  1  0  0  0  0
 20 36  1  0  0  0  0
 21 22  2  0  0  0  0
 21 37  1  0  0  0  0
 22 23  1  0  0  0  0
 22 25  1  0  0  0  0
 23 24  1  0  0  0  0
 24 38  1  0  0  0  0
 25 26  1  0  0  0  0
 26 39  1  0  0  0  0
 26 40  1  0  0  0  0
 26 41  1  0  0  0  0
M  END
$$$$
ZINC03970212
  -OEChem-08230709453D

 41 43  0     0  0  0  0  0  0999 V2000
   -6.3698   11.0758    3.7260 C   0  0  0  0  0  0  0  0  0  0  0  0
   -5.2084   10.2067    3.3177 C   0  0  0  0  0  0  0  0  0  0  0  0
   -3.8967   10.5351    3.2002 C   0  0  0  0  0  0  0  0  0  0  0  0
   -2.9943    9.5676    2.8134 C   0  0  0  0  0  0  0  0  0  0  0  0
   -3.4550    8.3066    2.5484 C   0  0  0  0  0  0  0  0  0  0  0  0
   -5.2035    8.4799    2.8649 S   0  0  0  0  0  0  0  0  0  0  0  0
   -2.6997    7.1094    2.1178 C   0  0  0  0  0  0  0  0  0  0  0  0
   -3.2377    5.8331    1.8615 C   0  0  0  0  0  0  0  0  0  0  0  0
   -2.1595    5.0502    1.4952 C   0  0  0  0  0  0  0  0  0  0  0  0
   -1.0585    5.8585    1.5445 N   0  0  0  0  0  0  0  0  0  0  0  0
   -0.7675    7.8090    2.0127 H   0  0  0  0  0  0  0  0  0  0  0  0
   -1.4007    7.0423    1.9062 N   0  0  0  0  0  0  0  0  0  0  0  0
   -2.1907    3.6264    1.1249 C   0  0  0  0  0  0  0  0  0  0  0  0
   -3.2452    3.0196    1.1295 O   0  0  0  0  0  0  0  0  0  0  0  0
   -1.0510    2.9946    0.7807 N   0  0  0  0  0  0  0  0  0  0  0  0
   -1.0807    1.6390    0.4281 N   0  0  0  0  0  0  0  0  0  0  0  0
   -0.0062    1.0595   -0.0135 C   0  0  0  0  0  0  0  0  0  0  0  0
    1.1760    1.8671   -0.3630 C   0  0  0  0  0  0  0  0  0  0  0  0
    1.0248    3.2000   -0.7561 C   0  0  0  0  0  0  0  0  0  0  0  0
    2.1332    3.9523   -1.0818 C   0  0  0  0  0  0  0  0  0  0  0  0
    3.3989    3.3945   -1.0214 C   0  0  0  0  0  0  0  0  0  0  0  0
    3.5640    2.0743   -0.6334 C   0  0  0  0  0  0  0  0  0  0  0  0
    2.4563    1.3049   -0.2974 C   0  0  0  0  0  0  0  0  0  0  0  0
    2.6151    0.0115    0.0885 O   0  0  0  0  0  0  0  0  0  0  0  0
    4.8104    1.5332   -0.5759 O   0  0  0  0  0  0  0  0  0  0  0  0
    5.9035    2.3832   -0.9291 C   0  0  0  0  0  0  0  0  0  0  0  0
   -7.2865   10.4864    3.7140 H   0  0  0  0  0  0  0  0  0  0  0  0
   -6.1991   11.4617    4.7311 H   0  0  0  0  0  0  0  0  0  0  0  0
   -6.4638   11.9080    3.0284 H   0  0  0  0  0  0  0  0  0  0  0  0
   -3.5637   11.5405    3.4113 H   0  0  0  0  0  0  0  0  0  0  0  0
   -1.9442    9.8011    2.7180 H   0  0  0  0  0  0  0  0  0  0  0  0
   -4.2719    5.5308    1.9355 H   0  0  0  0  0  0  0  0  0  0  0  0
   -0.2103    3.4784    0.7771 H   0  0  0  0  0  0  0  0  0  0  0  0
    0.0198   -0.0140   -0.1291 H   0  0  0  0  0  0  0  0  0  0  0  0
    0.0399    3.6405   -0.8043 H   0  0  0  0  0  0  0  0  0  0  0  0
    2.0136    4.9819   -1.3852 H   0  0  0  0  0  0  0  0  0  0  0  0
    4.2618    3.9909   -1.2782 H   0  0  0  0  0  0  0  0  0  0  0  0
    2.6665   -0.6148   -0.6465 H   0  0  0  0  0  0  0  0  0  0  0  0
    6.8380    1.8291   -0.8407 H   0  0  0  0  0  0  0  0  0  0  0  0
    5.7801    2.7260   -1.9564 H   0  0  0  0  0  0  0  0  0  0  0  0
    5.9263    3.2430   -0.2595 H   0  0  0  0  0  0  0  0  0  0  0  0
  1  2  1  0  0  0  0
  1 27  1  0  0  0  0
  1 28  1  0  0  0  0
  1 29  1  0  0  0  0
  2  6  1  0  0  0  0
  2  3  2  0  0  0  0
  3  4  1  0  0  0  0
  3 30  1  0  0  0  0
  4  5  2  0  0  0  0
  4 31  1  0  0  0  0
  5  6  1  0  0  0  0
  5  7  1  0  0  0  0
  7  8  2  0  0  0  0
  7 12  1  0  0  0  0
  8 32  1  0  0  0  0
  8  9  1  0  0  0  0
  9 13  1  0  0  0  0
  9 10  2  0  0  0  0
 10 12  1  0  0  0  0
 11 12  1  0  0  0  0
 13 14  2  0  0  0  0
 13 15  1  0  0  0  0
 15 16  1  0  0  0  0
 15 33  1  0  0  0  0
 16 17  2  0  0  0  0
 17 18  1  0  0  0  0
 17 34  1  0  0  0  0
 18 23  2  0  0  0  0
 18 19  1  0  0  0  0
 19 20  2  0  0  0  0
 19 35  1  0  0  0  0
 20 21  1  0  0  0  0
 20 36  1  0  0  0  0
 21 22  2  0  0  0  0
 21 37  1  0  0  0  0
 22 23  1  0  0  0  0
 22 25  1  0  0  0  0
 23 24  1  0  0  0  0
 24 38  1  0  0  0  0
 25 26  1  0  0  0  0
 26 39  1  0  0  0  0
 26 40  1  0  0  0  0
 26 41  1  0  0  0  0
M  END
$$$$
ZINC03970340
  -OEChem-08230709453D

 42 45  0     0  0  0  0  0  0999 V2000
    5.8575    3.7024   -0.1482 C   0  0  0  0  0  0  0  0  0  0  0  0
    7.0131    4.4364    0.0594 C   0  0  0  0  0  0  0  0  0  0  0  0
    6.9456    5.7990    0.2807 C   0  0  0  0  0  0  0  0  0  0  0  0
    5.7178    6.4403    0.2961 C   0  0  0  0  0  0  0  0  0  0  0  0
    4.5451    5.7014    0.0864 C   0  0  0  0  0  0  0  0  0  0  0  0
    4.6266    4.3237   -0.1309 C   0  0  0  0  0  0  0  0  0  0  0  0
    3.2338    6.3728    0.1011 C   0  0  0  0  0  0  0  0  0  0  0  0
    2.1652    5.7037    0.4132 N   0  0  0  0  0  0  0  0  0  0  0  0
    2.2780    4.4217    0.9668 N   0  0  0  0  0  0  0  0  0  0  0  0
    1.1724    3.6831    1.1870 C   0  0  0  0  0  0  0  0  0  0  0  0
    0.0769    4.1294    0.9052 O   0  0  0  0  0  0  0  0  0  0  0  0
    1.2916    2.3299    1.7713 C   0  0  0  0  0  0  0  0  0  0  0  0
    0.1579    1.5940    1.9880 N   0  0  0  0  0  0  0  0  0  0  0  0
   -0.7326    1.9812    1.7489 H   0  0  0  0  0  0  0  0  0  0  0  0
    0.2214    0.3567    2.5180 C   0  0  0  0  0  0  0  0  0  0  0  0
   -0.7909   -0.2942    2.7087 O   0  0  0  0  0  0  0  0  0  0  0  0
    1.5535   -0.1921    2.8625 C   0  0  0  0  0  0  0  0  0  0  0  0
    1.8589   -1.4553    3.4231 C   0  0  0  0  0  0  0  0  0  0  0  0
    3.1628   -1.7423    3.6545 C   0  0  0  0  0  0  0  0  0  0  0  0
    4.0421   -0.2990    3.1168 S   0  0  0  0  0  0  0  0  0  0  0  0
    2.6423    0.6603    2.5927 C   0  0  0  0  0  0  0  0  0  0  0  0
    2.4816    1.8636    2.0688 N   0  0  0  0  0  0  0  0  0  0  0  0
    3.7285   -3.0005    4.2358 C   0  0  0  0  0  0  0  0  0  0  0  0
    2.5821   -3.7940    4.8798 C   0  0  0  0  0  0  0  0  0  0  0  0
    1.4121   -3.8541    3.8936 C   0  0  0  0  0  0  0  0  0  0  0  0
    0.7710   -2.4723    3.7614 C   0  0  0  0  0  0  0  0  0  0  0  0
    5.6506    7.7792    0.5130 O   0  0  0  0  0  0  0  0  0  0  0  0
    5.9202    2.6381   -0.3203 H   0  0  0  0  0  0  0  0  0  0  0  0
    7.9728    3.9411    0.0487 H   0  0  0  0  0  0  0  0  0  0  0  0
    7.8514    6.3645    0.4421 H   0  0  0  0  0  0  0  0  0  0  0  0
    3.7274    3.7470   -0.2892 H   0  0  0  0  0  0  0  0  0  0  0  0
    3.1612    7.4212   -0.1476 H   0  0  0  0  0  0  0  0  0  0  0  0
    3.1519    4.0657    1.1915 H   0  0  0  0  0  0  0  0  0  0  0  0
    4.1887   -3.5951    3.4467 H   0  0  0  0  0  0  0  0  0  0  0  0
    4.4742   -2.7531    4.9913 H   0  0  0  0  0  0  0  0  0  0  0  0
    2.9202   -4.8049    5.1080 H   0  0  0  0  0  0  0  0  0  0  0  0
    2.2630   -3.2972    5.7960 H   0  0  0  0  0  0  0  0  0  0  0  0
    1.7764   -4.1790    2.9191 H   0  0  0  0  0  0  0  0  0  0  0  0
    0.6684   -4.5633    4.2570 H   0  0  0  0  0  0  0  0  0  0  0  0
    0.2950   -2.1984    4.7029 H   0  0  0  0  0  0  0  0  0  0  0  0
    0.0269   -2.4898    2.9651 H   0  0  0  0  0  0  0  0  0  0  0  0
    5.4905    8.0207    1.4356 H   0  0  0  0  0  0  0  0  0  0  0  0
  1  6  2  0  0  0  0
  1  2  1  0  0  0  0
  1 28  1  0  0  0  0
  2  3  2  0  0  0  0
  2 29  1  0  0  0  0
  3  4  1  0  0  0  0
  3 30  1  0  0  0  0
  4  5  2  0  0  0  0
  4 27  1  0  0  0  0
  5  6  1  0  0  0  0
  5  7  1  0  0  0  0
  6 31  1  0  0  0  0
  7  8  2  0  0  0  0
  7 32  1  0  0  0  0
  8  9  1  0  0  0  0
  9 10  1  0  0  0  0
  9 33  1  0  0  0  0
 10 11  2  0  0  0  0
 10 12  1  0  0  0  0
 12 22  2  0  0  0  0
 12 13  1  0  0  0  0
 13 14  1  0  0  0  0
 13 15  1  0  0  0  0
 15 16  2  0  0  0  0
 15 17  1  0  0  0  0
 17 21  2  0  0  0  0
 17 18  1  0  0  0  0
 18 26  1  0  0  0  0
 18 19  2  0  0  0  0
 19 20  1  0  0  0  0
 19 23  1  0  0  0  0
 20 21  1  0  0  0  0
 21 22  1  0  0  0  0
 23 24  1  0  0  0  0
 23 34  1  0  0  0  0
 23 35  1  0  0  0  0
 24 25  1  0  0  0  0
 24 36  1  0  0  0  0
 24 37  1  0  0  0  0
 25 26  1  0  0  0  0
 25 38  1  0  0  0  0
 25 39  1  0  0  0  0
 26 40  1  0  0  0  0
 26 41  1  0  0  0  0
 27 42  1  0  0  0  0
M  END
$$$$
ZINC03970340
  -OEChem-08230709453D

 42 45  0     0  0  0  0  0  0999 V2000
    5.8576    3.7037   -0.1464 C   0  0  0  0  0  0  0  0  0  0  0  0
    7.0131    4.4377    0.0616 C   0  0  0  0  0  0  0  0  0  0  0  0
    6.9454    5.8003    0.2833 C   0  0  0  0  0  0  0  0  0  0  0  0
    5.7176    6.4415    0.2988 C   0  0  0  0  0  0  0  0  0  0  0  0
    4.5450    5.7025    0.0887 C   0  0  0  0  0  0  0  0  0  0  0  0
    4.6266    4.3249   -0.1291 C   0  0  0  0  0  0  0  0  0  0  0  0
    3.2336    6.3738    0.1034 C   0  0  0  0  0  0  0  0  0  0  0  0
    2.1650    5.7045    0.4152 N   0  0  0  0  0  0  0  0  0  0  0  0
    2.2779    4.4224    0.9684 N   0  0  0  0  0  0  0  0  0  0  0  0
    1.1723    3.6836    1.1882 C   0  0  0  0  0  0  0  0  0  0  0  0
    0.0768    4.1299    0.9064 O   0  0  0  0  0  0  0  0  0  0  0  0
    1.2915    2.3302    1.7721 C   0  0  0  0  0  0  0  0  0  0  0  0
    0.1578    1.5945    1.9891 N   0  0  0  0  0  0  0  0  0  0  0  0
   -0.5483   -1.1790    3.1065 H   0  0  0  0  0  0  0  0  0  0  0  0
    0.2213    0.3572    2.5192 C   0  0  0  0  0  0  0  0  0  0  0  0
   -0.7911   -0.2934    2.7107 O   0  0  0  0  0  0  0  0  0  0  0  0
    1.5535   -0.1919    2.8629 C   0  0  0  0  0  0  0  0  0  0  0  0
    1.8589   -1.4552    3.4233 C   0  0  0  0  0  0  0  0  0  0  0  0
    3.1629   -1.7426    3.6538 C   0  0  0  0  0  0  0  0  0  0  0  0
    4.0421   -0.2990    3.1168 S   0  0  0  0  0  0  0  0  0  0  0  0
    2.6423    0.6604    2.5929 C   0  0  0  0  0  0  0  0  0  0  0  0
    2.4815    1.8639    2.0695 N   0  0  0  0  0  0  0  0  0  0  0  0
    3.7286   -3.0011    4.2344 C   0  0  0  0  0  0  0  0  0  0  0  0
    2.5824   -3.7946    4.8786 C   0  0  0  0  0  0  0  0  0  0  0  0
    1.4120   -3.8543    3.8928 C   0  0  0  0  0  0  0  0  0  0  0  0
    0.7710   -2.4723    3.7613 C   0  0  0  0  0  0  0  0  0  0  0  0
    5.6503    7.7803    0.5161 O   0  0  0  0  0  0  0  0  0  0  0  0
    5.9204    2.6395   -0.3188 H   0  0  0  0  0  0  0  0  0  0  0  0
    7.9728    3.9425    0.0509 H   0  0  0  0  0  0  0  0  0  0  0  0
    7.8512    6.3658    0.4450 H   0  0  0  0  0  0  0  0  0  0  0  0
    3.7275    3.7482   -0.2877 H   0  0  0  0  0  0  0  0  0  0  0  0
    3.1610    7.4223   -0.1450 H   0  0  0  0  0  0  0  0  0  0  0  0
    3.1518    4.0664    1.1931 H   0  0  0  0  0  0  0  0  0  0  0  0
    4.1884   -3.5955    3.4450 H   0  0  0  0  0  0  0  0  0  0  0  0
    4.4746   -2.7540    4.9897 H   0  0  0  0  0  0  0  0  0  0  0  0
    2.9204   -4.8056    5.1064 H   0  0  0  0  0  0  0  0  0  0  0  0
    2.2637   -3.2981    5.7951 H   0  0  0  0  0  0  0  0  0  0  0  0
    1.7759   -4.1789    2.9181 H   0  0  0  0  0  0  0  0  0  0  0  0
    0.6683   -4.5635    4.2563 H   0  0  0  0  0  0  0  0  0  0  0  0
    0.2954   -2.1987    4.7031 H   0  0  0  0  0  0  0  0  0  0  0  0
    0.0266   -2.4895    2.9653 H   0  0  0  0  0  0  0  0  0  0  0  0
    5.4900    8.0215    1.4387 H   0  0  0  0  0  0  0  0  0  0  0  0
  1  6  2  0  0  0  0
  1  2  1  0  0  0  0
  1 28  1  0  0  0  0
  2  3  2  0  0  0  0
  2 29  1  0  0  0  0
  3  4  1  0  0  0  0
  3 30  1  0  0  0  0
  4  5  2  0  0  0  0
  4 27  1  0  0  0  0
  5  6  1  0  0  0  0
  5  7  1  0  0  0  0
  6 31  1  0  0  0  0
  7  8  2  0  0  0  0
  7 32  1  0  0  0  0
  8  9  1  0  0  0  0
  9 10  1  0  0  0  0
  9 33  1  0  0  0  0
 10 11  2  0  0  0  0
 10 12  1  0  0  0  0
 12 22  2  0  0  0  0
 12 13  1  0  0  0  0
 13 15  2  0  0  0  0
 14 16  1  0  0  0  0
 15 16  1  0  0  0  0
 15 17  1  0  0  0  0
 17 18  1  0  0  0  0
 17 21  2  0  0  0  0
 18 26  1  0  0  0  0
 18 19  2  0  0  0  0
 19 20  1  0  0  0  0
 19 23  1  0  0  0  0
 20 21  1  0  0  0  0
 21 22  1  0  0  0  0
 23 24  1  0  0  0  0
 23 34  1  0  0  0  0
 23 35  1  0  0  0  0
 24 25  1  0  0  0  0
 24 36  1  0  0  0  0
 24 37  1  0  0  0  0
 25 26  1  0  0  0  0
 25 38  1  0  0  0  0
 25 39  1  0  0  0  0
 26 40  1  0  0  0  0
 26 41  1  0  0  0  0
 27 42  1  0  0  0  0
M  END
$$$$
ZINC03970340
  -OEChem-08230709453D

 42 45  0     0  0  0  0  0  0999 V2000
    5.8572    3.7029   -0.1481 C   0  0  0  0  0  0  0  0  0  0  0  0
    7.0128    4.4367    0.0595 C   0  0  0  0  0  0  0  0  0  0  0  0
    6.9455    5.7993    0.2811 C   0  0  0  0  0  0  0  0  0  0  0  0
    5.7177    6.4407    0.2969 C   0  0  0  0  0  0  0  0  0  0  0  0
    4.5449    5.7019    0.0873 C   0  0  0  0  0  0  0  0  0  0  0  0
    4.6263    4.3242   -0.1304 C   0  0  0  0  0  0  0  0  0  0  0  0
    3.2337    6.3734    0.1024 C   0  0  0  0  0  0  0  0  0  0  0  0
    2.1651    5.7043    0.4145 N   0  0  0  0  0  0  0  0  0  0  0  0
    2.2779    4.4221    0.9678 N   0  0  0  0  0  0  0  0  0  0  0  0
    1.1723    3.6835    1.1880 C   0  0  0  0  0  0  0  0  0  0  0  0
    0.0768    4.1300    0.9065 O   0  0  0  0  0  0  0  0  0  0  0  0
    1.2915    2.3302    1.7720 C   0  0  0  0  0  0  0  0  0  0  0  0
    0.1578    1.5943    1.9887 N   0  0  0  0  0  0  0  0  0  0  0  0
    3.2859    2.4322    1.8960 H   0  0  0  0  0  0  0  0  0  0  0  0
    0.2214    0.3569    2.5184 C   0  0  0  0  0  0  0  0  0  0  0  0
   -0.7909   -0.2940    2.7091 O   0  0  0  0  0  0  0  0  0  0  0  0
    1.5534   -0.1915    2.8638 C   0  0  0  0  0  0  0  0  0  0  0  0
    1.8587   -1.4544    3.4251 C   0  0  0  0  0  0  0  0  0  0  0  0
    3.1626   -1.7412    3.6571 C   0  0  0  0  0  0  0  0  0  0  0  0
    4.0419   -0.2981    3.1190 S   0  0  0  0  0  0  0  0  0  0  0  0
    2.6422    0.6608    2.5939 C   0  0  0  0  0  0  0  0  0  0  0  0
    2.4815    1.8640    2.0697 N   0  0  0  0  0  0  0  0  0  0  0  0
    3.7282   -2.9991    4.2392 C   0  0  0  0  0  0  0  0  0  0  0  0
    2.5817   -3.7924    4.8832 C   0  0  0  0  0  0  0  0  0  0  0  0
    1.4120   -3.8531    3.8967 C   0  0  0  0  0  0  0  0  0  0  0  0
    0.7708   -2.4714    3.7636 C   0  0  0  0  0  0  0  0  0  0  0  0
    5.6506    7.7795    0.5141 O   0  0  0  0  0  0  0  0  0  0  0  0
    5.9198    2.6386   -0.3204 H   0  0  0  0  0  0  0  0  0  0  0  0
    7.9725    3.9414    0.0485 H   0  0  0  0  0  0  0  0  0  0  0  0
    7.8513    6.3647    0.4425 H   0  0  0  0  0  0  0  0  0  0  0  0
    3.7270    3.7476   -0.2887 H   0  0  0  0  0  0  0  0  0  0  0  0
    3.1611    7.4218   -0.1461 H   0  0  0  0  0  0  0  0  0  0  0  0
    3.1518    4.0660    1.1922 H   0  0  0  0  0  0  0  0  0  0  0  0
    4.1887   -3.5940    3.4505 H   0  0  0  0  0  0  0  0  0  0  0  0
    4.4737   -2.7512    4.9948 H   0  0  0  0  0  0  0  0  0  0  0  0
    2.9198   -4.8031    5.1120 H   0  0  0  0  0  0  0  0  0  0  0  0
    2.2622   -3.2951    5.7991 H   0  0  0  0  0  0  0  0  0  0  0  0
    1.7766   -4.1784    2.9224 H   0  0  0  0  0  0  0  0  0  0  0  0
    0.6683   -4.5621    4.2602 H   0  0  0  0  0  0  0  0  0  0  0  0
    0.2945   -2.1971    4.7048 H   0  0  0  0  0  0  0  0  0  0  0  0
    0.0270   -2.4893    2.9671 H   0  0  0  0  0  0  0  0  0  0  0  0
    5.4907    8.0208    1.4368 H   0  0  0  0  0  0  0  0  0  0  0  0
  1  6  2  0  0  0  0
  1  2  1  0  0  0  0
  1 28  1  0  0  0  0
  2  3  2  0  0  0  0
  2 29  1  0  0  0  0
  3  4  1  0  0  0  0
  3 30  1  0  0  0  0
  4  5  2  0  0  0  0
  4 27  1  0  0  0  0
  5  6  1  0  0  0  0
  5  7  1  0  0  0  0
  6 31  1  0  0  0  0
  7  8  2  0  0  0  0
  7 32  1  0  0  0  0
  8  9  1  0  0  0  0
  9 10  1  0  0  0  0
  9 33  1  0  0  0  0
 10 11  2  0  0  0  0
 10 12  1  0  0  0  0
 12 22  1  0  0  0  0
 12 13  2  0  0  0  0
 13 15  1  0  0  0  0
 14 22  1  0  0  0  0
 15 16  2  0  0  0  0
 15 17  1  0  0  0  0
 17 18  1  0  0  0  0
 17 21  2  0  0  0  0
 18 26  1  0  0  0  0
 18 19  2  0  0  0  0
 19 20  1  0  0  0  0
 19 23  1  0  0  0  0
 20 21  1  0  0  0  0
 21 22  1  0  0  0  0
 23 24  1  0  0  0  0
 23 34  1  0  0  0  0
 23 35  1  0  0  0  0
 24 25  1  0  0  0  0
 24 36  1  0  0  0  0
 24 37  1  0  0  0  0
 25 26  1  0  0  0  0
 25 38  1  0  0  0  0
 25 39  1  0  0  0  0
 26 40  1  0  0  0  0
 26 41  1  0  0  0  0
 27 42  1  0  0  0  0
M  END
$$$$
ZINC03970493
  -OEChem-08230709453D

 44 46  0     0  0  0  0  0  0999 V2000
   -1.8502    4.9029    3.5631 C   0  0  0  0  0  0  0  0  0  0  0  0
   -0.5556    4.1688    3.8004 C   0  0  0  0  0  0  0  0  0  0  0  0
   -0.5576    2.8214    4.0761 C   0  0  0  0  0  0  0  0  0  0  0  0
    0.6346    2.1494    4.2996 C   0  0  0  0  0  0  0  0  0  0  0  0
    1.7851    2.7916    4.2402 N   0  0  0  0  0  0  0  0  0  0  0  0
    1.8396    4.0788    3.9746 C   0  0  0  0  0  0  0  0  0  0  0  0
    0.6823    4.8551    3.7370 C   0  0  0  0  0  0  0  0  0  0  0  0
    0.9280    6.2617    3.4588 C   0  0  0  0  0  0  0  0  0  0  0  0
    2.2314    6.7083    3.4503 C   0  0  0  0  0  0  0  0  0  0  0  0
    3.1731    5.2409    3.8184 S   0  0  0  0  0  0  0  0  0  0  0  0
    2.7087    8.0200    3.2066 C   0  0  0  0  0  0  0  0  0  0  0  0
    1.9228    8.9194    2.9670 O   0  0  0  0  0  0  0  0  0  0  0  0
    4.0321    8.2726    3.2400 N   0  0  0  0  0  0  0  0  0  0  0  0
    4.5040    9.5695    2.9991 N   0  0  0  0  0  0  0  0  0  0  0  0
    5.7804    9.7904    2.9138 C   0  0  0  0  0  0  0  0  0  0  0  0
    6.7195    8.6582    2.8175 C   0  0  0  0  0  0  0  0  0  0  0  0
    6.2866    7.4303    2.3103 C   0  0  0  0  0  0  0  0  0  0  0  0
    7.1682    6.3741    2.2162 C   0  0  0  0  0  0  0  0  0  0  0  0
    8.4826    6.5239    2.6338 C   0  0  0  0  0  0  0  0  0  0  0  0
    8.9198    7.7435    3.1459 C   0  0  0  0  0  0  0  0  0  0  0  0
    8.0434    8.8085    3.2385 C   0  0  0  0  0  0  0  0  0  0  0  0
   10.2090    7.8865    3.5543 O   0  0  0  0  0  0  0  0  0  0  0  0
   10.5888    9.1647    4.0684 C   0  0  0  0  0  0  0  0  0  0  0  0
    9.3461    5.4779    2.5436 O   0  0  0  0  0  0  0  0  0  0  0  0
   -0.1240    7.1320    3.2088 N   0  0  0  0  0  0  0  0  0  0  0  0
    0.6160    0.6741    4.6064 C   0  0  0  0  0  0  0  0  0  0  0  0
   -1.9637    5.1044    2.4979 H   0  0  0  0  0  0  0  0  0  0  0  0
   -2.6835    4.2907    3.9079 H   0  0  0  0  0  0  0  0  0  0  0  0
   -1.8397    5.8447    4.1119 H   0  0  0  0  0  0  0  0  0  0  0  0
   -1.4935    2.2845    4.1232 H   0  0  0  0  0  0  0  0  0  0  0  0
    4.6579    7.5564    3.4308 H   0  0  0  0  0  0  0  0  0  0  0  0
    6.1542   10.8036    2.9134 H   0  0  0  0  0  0  0  0  0  0  0  0
    5.2629    7.3097    1.9883 H   0  0  0  0  0  0  0  0  0  0  0  0
    6.8334    5.4266    1.8205 H   0  0  0  0  0  0  0  0  0  0  0  0
    8.3811    9.7546    3.6350 H   0  0  0  0  0  0  0  0  0  0  0  0
   11.6396    9.1426    4.3571 H   0  0  0  0  0  0  0  0  0  0  0  0
   10.4387    9.9241    3.3010 H   0  0  0  0  0  0  0  0  0  0  0  0
    9.9776    9.4022    4.9391 H   0  0  0  0  0  0  0  0  0  0  0  0
    9.3669    4.9160    3.3304 H   0  0  0  0  0  0  0  0  0  0  0  0
   -1.0391    6.8343    3.3308 H   0  0  0  0  0  0  0  0  0  0  0  0
    0.0559    8.0378    2.9122 H   0  0  0  0  0  0  0  0  0  0  0  0
    0.5463    0.5280    5.6843 H   0  0  0  0  0  0  0  0  0  0  0  0
   -0.2441    0.2129    4.1209 H   0  0  0  0  0  0  0  0  0  0  0  0
    1.5322    0.2144    4.2358 H   0  0  0  0  0  0  0  0  0  0  0  0
  1  2  1  0  0  0  0
  1 27  1  0  0  0  0
  1 28  1  0  0  0  0
  1 29  1  0  0  0  0
  2  7  2  0  0  0  0
  2  3  1  0  0  0  0
  3  4  2  0  0  0  0
  3 30  1  0  0  0  0
  4  5  1  0  0  0  0
  4 26  1  0  0  0  0
  5  6  2  0  0  0  0
  6 10  1  0  0  0  0
  6  7  1  0  0  0  0
  7  8  1  0  0  0  0
  8  9  2  0  0  0  0
  8 25  1  0  0  0  0
  9 10  1  0  0  0  0
  9 11  1  0  0  0  0
 11 12  2  0  0  0  0
 11 13  1  0  0  0  0
 13 14  1  0  0  0  0
 13 31  1  0  0  0  0
 14 15  2  0  0  0  0
 15 16  1  0  0  0  0
 15 32  1  0  0  0  0
 16 21  2  0  0  0  0
 16 17  1  0  0  0  0
 17 18  2  0  0  0  0
 17 33  1  0  0  0  0
 18 19  1  0  0  0  0
 18 34  1  0  0  0  0
 19 20  2  0  0  0  0
 19 24  1  0  0  0  0
 20 21  1  0  0  0  0
 20 22  1  0  0  0  0
 21 35  1  0  0  0  0
 22 23  1  0  0  0  0
 23 36  1  0  0  0  0
 23 37  1  0  0  0  0
 23 38  1  0  0  0  0
 24 39  1  0  0  0  0
 25 40  1  0  0  0  0
 25 41  1  0  0  0  0
 26 42  1  0  0  0  0
 26 43  1  0  0  0  0
 26 44  1  0  0  0  0
M  END
$$$$
ZINC03971508
  -OEChem-08230709453D

 42 44  0     1  0  0  0  0  0999 V2000
   -4.0948   -5.1116   -2.6073 C   0  0  0  0  0  0  0  0  0  0  0  0
   -4.1795   -6.0009   -1.3651 C   0  0  1  0  0  0  0  0  0  0  0  0
   -3.3497   -6.7077   -1.3676 H   0  0  0  0  0  0  0  0  0  0  0  0
   -4.1026   -5.1288   -0.1145 C   0  0  0  0  0  0  0  0  0  0  0  0
   -5.2804   -4.1805   -0.0944 C   0  0  0  0  0  0  0  0  0  0  0  0
   -5.1061   -2.9164    0.0088 N   0  0  0  0  0  0  0  0  0  0  0  0
   -3.8097   -2.3853    0.0039 N   0  0  0  0  0  0  0  0  0  0  0  0
   -3.6234   -1.0125    0.0065 C   0  0  0  0  0  0  0  0  0  0  0  0
   -2.4975   -0.3217   -0.0018 N   0  0  0  0  0  0  0  0  0  0  0  0
   -2.5043    1.0033    0.0066 C   0  0  0  0  0  0  0  0  0  0  0  0
   -3.6984    1.6680    0.0135 C   0  0  0  0  0  0  0  0  0  0  0  0
   -4.8429    0.2943    0.0150 S   0  0  0  0  0  0  0  0  0  0  0  0
   -1.2276    1.7582    0.0024 C   0  0  0  0  0  0  0  0  0  0  0  0
   -1.2396    3.1524    0.0112 C   0  0  0  0  0  0  0  0  0  0  0  0
   -0.0503    3.8525    0.0010 C   0  0  0  0  0  0  0  0  0  0  0  0
    1.1550    3.1752   -0.0112 C   0  0  0  0  0  0  0  0  0  0  0  0
    1.1759    1.7873   -0.0143 C   0  0  0  0  0  0  0  0  0  0  0  0
   -0.0130    1.0764   -0.0046 C   0  0  0  0  0  0  0  0  0  0  0  0
    2.3630    1.1257   -0.0263 O   0  0  0  0  0  0  0  0  0  0  0  0
   -6.6724   -4.7686   -0.2061 C   0  0  0  0  0  0  0  0  0  0  0  0
   -6.6476   -5.7814   -1.3330 C   0  0  0  0  0  0  0  0  0  0  0  0
   -7.5168   -5.7991   -2.1712 O   0  0  0  0  0  0  0  0  0  0  0  0
   -5.5038   -6.7695   -1.3778 C   0  0  1  0  0  0  0  0  0  0  0  0
   -5.5470   -7.3723   -0.5811 H   0  0  0  0  0  0  0  0  0  0  0  0
   -5.5999   -7.6063   -2.6551 C   0  0  0  0  0  0  0  0  0  0  0  0
   -4.9250   -4.4054   -2.6058 H   0  0  0  0  0  0  0  0  0  0  0  0
   -3.1522   -4.5644   -2.5987 H   0  0  0  0  0  0  0  0  0  0  0  0
   -4.1468   -5.7317   -3.5022 H   0  0  0  0  0  0  0  0  0  0  0  0
   -3.1745   -4.5573   -0.1267 H   0  0  0  0  0  0  0  0  0  0  0  0
   -4.1301   -5.7633    0.7714 H   0  0  0  0  0  0  0  0  0  0  0  0
   -3.0424   -2.9788   -0.0012 H   0  0  0  0  0  0  0  0  0  0  0  0
   -3.8961    2.7298    0.0173 H   0  0  0  0  0  0  0  0  0  0  0  0
   -2.1794    3.6844    0.0215 H   0  0  0  0  0  0  0  0  0  0  0  0
   -0.0611    4.9325    0.0030 H   0  0  0  0  0  0  0  0  0  0  0  0
    2.0830    3.7276   -0.0188 H   0  0  0  0  0  0  0  0  0  0  0  0
    0.0017   -0.0035   -0.0069 H   0  0  0  0  0  0  0  0  0  0  0  0
    2.6984    0.9358   -0.9132 H   0  0  0  0  0  0  0  0  0  0  0  0
   -6.9191   -5.2075    0.6579 H   0  0  0  0  0  0  0  0  0  0  0  0
   -7.3907   -3.9802   -0.4309 H   0  0  0  0  0  0  0  0  0  0  0  0
   -5.5468   -6.9504   -3.5240 H   0  0  0  0  0  0  0  0  0  0  0  0
   -4.7750   -8.3180   -2.6861 H   0  0  0  0  0  0  0  0  0  0  0  0
   -6.5465   -8.1466   -2.6650 H   0  0  0  0  0  0  0  0  0  0  0  0
  1  2  1  0  0  0  0
  1 26  1  0  0  0  0
  1 27  1  0  0  0  0
  1 28  1  0  0  0  0
  2  3  1  0  0  0  0
  2 23  1  0  0  0  0
  2  4  1  0  0  0  0
  4  5  1  0  0  0  0
  4 29  1  0  0  0  0
  4 30  1  0  0  0  0
  5  6  2  0  0  0  0
  5 20  1  0  0  0  0
  6  7  1  0  0  0  0
  7  8  1  0  0  0  0
  7 31  1  0  0  0  0
  8 12  1  0  0  0  0
  8  9  2  0  0  0  0
  9 10  1  0  0  0  0
 10 11  2  0  0  0  0
 10 13  1  0  0  0  0
 11 12  1  0  0  0  0
 11 32  1  0  0  0  0
 13 18  2  0  0  0  0
 13 14  1  0  0  0  0
 14 15  2  0  0  0  0
 14 33  1  0  0  0  0
 15 16  1  0  0  0  0
 15 34  1  0  0  0  0
 16 17  2  0  0  0  0
 16 35  1  0  0  0  0
 17 18  1  0  0  0  0
 17 19  1  0  0  0  0
 18 36  1  0  0  0  0
 19 37  1  0  0  0  0
 20 21  1  0  0  0  0
 20 38  1  0  0  0  0
 20 39  1  0  0  0  0
 21 22  2  0  0  0  0
 21 23  1  0  0  0  0
 23 24  1  0  0  0  0
 23 25  1  0  0  0  0
 25 40  1  0  0  0  0
 25 41  1  0  0  0  0
 25 42  1  0  0  0  0
M  END
$$$$
ZINC03971594
  -OEChem-08230709453D

 43 44  0     1  0  0  0  0  0999 V2000
    9.5195    2.1912    4.1662 C   0  0  0  0  0  0  0  0  0  0  0  0
    8.7195    1.8054    2.9488 C   0  0  0  0  0  0  0  0  0  0  0  0
    9.2483    1.9974    1.6855 C   0  0  0  0  0  0  0  0  0  0  0  0
    8.5173    1.6447    0.5659 C   0  0  0  0  0  0  0  0  0  0  0  0
    7.2561    1.0997    0.7063 C   0  0  0  0  0  0  0  0  0  0  0  0
    6.7222    0.9057    1.9735 C   0  0  0  0  0  0  0  0  0  0  0  0
    7.4568    1.2654    3.0957 C   0  0  0  0  0  0  0  0  0  0  0  0
    5.4444    0.3543    2.1191 N   0  0  0  0  0  0  0  0  0  0  0  0
    4.4912    0.6108    1.2014 C   0  0  0  0  0  0  0  0  0  0  0  0
    4.7104    1.3946    0.3022 O   0  0  0  0  0  0  0  0  0  0  0  0
    3.1531   -0.0763    1.2927 C   0  0  0  0  0  0  0  0  0  0  0  0
    2.2617    0.3879    0.1391 C   0  0  1  0  0  0  0  0  0  0  0  0
    2.7807    0.3093   -0.8162 H   0  0  0  0  0  0  0  0  0  0  0  0
    0.9415   -0.3707    0.1177 C   0  0  0  0  0  0  0  0  0  0  0  0
   -0.1116    0.3277    0.2861 N   0  0  0  0  0  0  0  0  0  0  0  0
   -0.1086    1.6782    0.4780 C   0  0  0  0  0  0  0  0  0  0  0  0
   -1.1286    2.4746    0.6533 N   0  0  0  0  0  0  0  0  0  0  0  0
   -2.4298    1.9554    0.6593 N   0  0  0  0  0  0  0  0  0  0  0  0
   -3.5113    2.7999    0.8453 C   0  0  0  0  0  0  0  0  0  0  0  0
   -3.3158    4.0968    1.0173 C   0  0  0  0  0  0  0  0  0  0  0  0
   -4.9110    2.2415    0.8516 C   0  0  0  0  0  0  0  0  0  0  0  0
    1.6299    2.0953    0.4233 S   0  0  0  0  0  0  0  0  0  0  0  0
    0.8892   -1.7051   -0.0691 O   0  0  0  0  0  0  0  0  0  0  0  0
    9.0975    1.8556   -0.8089 C   0  0  0  0  0  0  0  0  0  0  0  0
    9.3020    3.2259    4.4310 H   0  0  0  0  0  0  0  0  0  0  0  0
    9.2524    1.5394    4.9980 H   0  0  0  0  0  0  0  0  0  0  0  0
   10.5828    2.0873    3.9502 H   0  0  0  0  0  0  0  0  0  0  0  0
   10.2340    2.4240    1.5731 H   0  0  0  0  0  0  0  0  0  0  0  0
    6.6857    0.8245   -0.1686 H   0  0  0  0  0  0  0  0  0  0  0  0
    7.0428    1.1195    4.0825 H   0  0  0  0  0  0  0  0  0  0  0  0
    5.2447   -0.2125    2.8805 H   0  0  0  0  0  0  0  0  0  0  0  0
    2.6795    0.1752    2.2417 H   0  0  0  0  0  0  0  0  0  0  0  0
    3.2938   -1.1554    1.2317 H   0  0  0  0  0  0  0  0  0  0  0  0
   -2.5731    1.0044    0.5331 H   0  0  0  0  0  0  0  0  0  0  0  0
   -2.3127    4.4970    1.0127 H   0  0  0  0  0  0  0  0  0  0  0  0
   -4.1593    4.7554    1.1623 H   0  0  0  0  0  0  0  0  0  0  0  0
   -5.1863    1.9627    1.8688 H   0  0  0  0  0  0  0  0  0  0  0  0
   -5.6049    2.9960    0.4812 H   0  0  0  0  0  0  0  0  0  0  0  0
   -4.9541    1.3617    0.2095 H   0  0  0  0  0  0  0  0  0  0  0  0
    0.0131   -2.1143   -0.0698 H   0  0  0  0  0  0  0  0  0  0  0  0
    8.8272    2.8483   -1.1689 H   0  0  0  0  0  0  0  0  0  0  0  0
   10.1830    1.7690   -0.7623 H   0  0  0  0  0  0  0  0  0  0  0  0
    8.7017    1.1020   -1.4897 H   0  0  0  0  0  0  0  0  0  0  0  0
  1  2  1  0  0  0  0
  1 25  1  0  0  0  0
  1 26  1  0  0  0  0
  1 27  1  0  0  0  0
  2  7  2  0  0  0  0
  2  3  1  0  0  0  0
  3  4  2  0  0  0  0
  3 28  1  0  0  0  0
  4  5  1  0  0  0  0
  4 24  1  0  0  0  0
  5  6  2  0  0  0  0
  5 29  1  0  0  0  0
  6  7  1  0  0  0  0
  6  8  1  0  0  0  0
  7 30  1  0  0  0  0
  8  9  1  0  0  0  0
  8 31  1  0  0  0  0
  9 10  2  0  0  0  0
  9 11  1  0  0  0  0
 11 12  1  0  0  0  0
 11 32  1  0  0  0  0
 11 33  1  0  0  0  0
 12 13  1  0  0  0  0
 12 22  1  0  0  0  0
 12 14  1  0  0  0  0
 14 15  2  0  0  0  0
 14 23  1  0  0  0  0
 15 16  1  0  0  0  0
 16 17  2  0  0  0  0
 16 22  1  0  0  0  0
 17 18  1  0  0  0  0
 18 19  1  0  0  0  0
 18 34  1  0  0  0  0
 19 20  2  0  0  0  0
 19 21  1  0  0  0  0
 20 35  1  0  0  0  0
 20 36  1  0  0  0  0
 21 37  1  0  0  0  0
 21 38  1  0  0  0  0
 21 39  1  0  0  0  0
 23 40  1  0  0  0  0
 24 41  1  0  0  0  0
 24 42  1  0  0  0  0
 24 43  1  0  0  0  0
M  END
$$$$
ZINC03971599
  -OEChem-08230709453D

 43 44  0     1  0  0  0  0  0999 V2000
  -12.1642    2.2686    3.8792 C   0  0  0  0  0  0  0  0  0  0  0  0
  -10.8852    2.5257    3.1247 C   0  0  0  0  0  0  0  0  0  0  0  0
  -10.6905    3.7378    2.4883 C   0  0  0  0  0  0  0  0  0  0  0  0
   -9.5183    3.9776    1.7949 C   0  0  0  0  0  0  0  0  0  0  0  0
   -8.5378    3.0067    1.7367 C   0  0  0  0  0  0  0  0  0  0  0  0
   -8.7301    1.7885    2.3751 C   0  0  0  0  0  0  0  0  0  0  0  0
   -9.9109    1.5486    3.0654 C   0  0  0  0  0  0  0  0  0  0  0  0
   -7.7386    0.8029    2.3180 N   0  0  0  0  0  0  0  0  0  0  0  0
   -6.9709    0.6822    1.2169 C   0  0  0  0  0  0  0  0  0  0  0  0
   -7.2010    1.3627    0.2396 O   0  0  0  0  0  0  0  0  0  0  0  0
   -5.8265   -0.2982    1.1999 C   0  0  0  0  0  0  0  0  0  0  0  0
   -5.1229   -0.2373   -0.1573 C   0  0  2  0  0  0  0  0  0  0  0  0
   -5.8141   -0.4607   -0.9700 H   0  0  0  0  0  0  0  0  0  0  0  0
   -3.9070   -1.1534   -0.1951 C   0  0  0  0  0  0  0  0  0  0  0  0
   -2.7804   -0.5858   -0.3787 N   0  0  0  0  0  0  0  0  0  0  0  0
   -2.6197    0.7607   -0.5262 C   0  0  0  0  0  0  0  0  0  0  0  0
   -1.5138    1.4298   -0.7126 N   0  0  0  0  0  0  0  0  0  0  0  0
   -0.2883    0.7540   -0.7756 N   0  0  0  0  0  0  0  0  0  0  0  0
    0.8837    1.4629   -0.9789 C   0  0  0  0  0  0  0  0  0  0  0  0
    0.8467    2.7787   -1.1083 C   0  0  0  0  0  0  0  0  0  0  0  0
    2.2013    0.7352   -1.0529 C   0  0  0  0  0  0  0  0  0  0  0  0
   -4.2910    1.3873   -0.4104 S   0  0  0  0  0  0  0  0  0  0  0  0
   -4.0164   -2.4893   -0.0486 O   0  0  0  0  0  0  0  0  0  0  0  0
   -9.3105    5.2999    1.1024 C   0  0  0  0  0  0  0  0  0  0  0  0
  -12.9000    1.8270    3.2072 H   0  0  0  0  0  0  0  0  0  0  0  0
  -11.9680    1.5835    4.7039 H   0  0  0  0  0  0  0  0  0  0  0  0
  -12.5495    3.2094    4.2723 H   0  0  0  0  0  0  0  0  0  0  0  0
  -11.4556    4.4988    2.5327 H   0  0  0  0  0  0  0  0  0  0  0  0
   -7.6225    3.1946    1.1950 H   0  0  0  0  0  0  0  0  0  0  0  0
  -10.0655    0.6004    3.5588 H   0  0  0  0  0  0  0  0  0  0  0  0
   -7.6038    0.2064    3.0710 H   0  0  0  0  0  0  0  0  0  0  0  0
   -6.2085   -1.3054    1.3663 H   0  0  0  0  0  0  0  0  0  0  0  0
   -5.1181   -0.0434    1.9882 H   0  0  0  0  0  0  0  0  0  0  0  0
   -0.2611   -0.2110   -0.6808 H   0  0  0  0  0  0  0  0  0  0  0  0
    1.7607    3.3317   -1.2669 H   0  0  0  0  0  0  0  0  0  0  0  0
   -0.0976    3.3002   -1.0553 H   0  0  0  0  0  0  0  0  0  0  0  0
    2.0334   -0.3342   -0.9256 H   0  0  0  0  0  0  0  0  0  0  0  0
    2.6630    0.9175   -2.0233 H   0  0  0  0  0  0  0  0  0  0  0  0
    2.8604    1.0960   -0.2633 H   0  0  0  0  0  0  0  0  0  0  0  0
   -3.1981   -3.0033   -0.0844 H   0  0  0  0  0  0  0  0  0  0  0  0
   -9.6874    5.2386    0.0815 H   0  0  0  0  0  0  0  0  0  0  0  0
   -9.8470    6.0806    1.6416 H   0  0  0  0  0  0  0  0  0  0  0  0
   -8.2467    5.5367    1.0834 H   0  0  0  0  0  0  0  0  0  0  0  0
  1  2  1  0  0  0  0
  1 25  1  0  0  0  0
  1 26  1  0  0  0  0
  1 27  1  0  0  0  0
  2  7  2  0  0  0  0
  2  3  1  0  0  0  0
  3  4  2  0  0  0  0
  3 28  1  0  0  0  0
  4  5  1  0  0  0  0
  4 24  1  0  0  0  0
  5  6  2  0  0  0  0
  5 29  1  0  0  0  0
  6  7  1  0  0  0  0
  6  8  1  0  0  0  0
  7 30  1  0  0  0  0
  8  9  1  0  0  0  0
  8 31  1  0  0  0  0
  9 10  2  0  0  0  0
  9 11  1  0  0  0  0
 11 12  1  0  0  0  0
 11 32  1  0  0  0  0
 11 33  1  0  0  0  0
 12 13  1  0  0  0  0
 12 22  1  0  0  0  0
 12 14  1  0  0  0  0
 14 15  2  0  0  0  0
 14 23  1  0  0  0  0
 15 16  1  0  0  0  0
 16 17  2  0  0  0  0
 16 22  1  0  0  0  0
 17 18  1  0  0  0  0
 18 19  1  0  0  0  0
 18 34  1  0  0  0  0
 19 20  2  0  0  0  0
 19 21  1  0  0  0  0
 20 35  1  0  0  0  0
 20 36  1  0  0  0  0
 21 37  1  0  0  0  0
 21 38  1  0  0  0  0
 21 39  1  0  0  0  0
 23 40  1  0  0  0  0
 24 41  1  0  0  0  0
 24 42  1  0  0  0  0
 24 43  1  0  0  0  0
M  END
$$$$
ZINC03971746
  -OEChem-08230709453D

 41 43  0     1  0  0  0  0  0999 V2000
    1.1682    2.0860   -0.0167 C   0  0  0  0  0  0  0  0  0  0  0  0
    2.1113    1.4123   -0.7709 C   0  0  0  0  0  0  0  0  0  0  0  0
    2.1370    0.0314   -0.7742 C   0  0  0  0  0  0  0  0  0  0  0  0
    1.2143   -0.6805   -0.0189 C   0  0  0  0  0  0  0  0  0  0  0  0
    0.2684   -0.0009    0.7374 C   0  0  0  0  0  0  0  0  0  0  0  0
    0.2481    1.3801    0.7364 C   0  0  0  0  0  0  0  0  0  0  0  0
    1.2373   -2.0795   -0.0204 N   0  0  0  0  0  0  0  0  0  0  0  0
    2.4096   -2.7341   -0.1369 C   0  0  0  0  0  0  0  0  0  0  0  0
    3.4521   -2.1143   -0.1440 O   0  0  0  0  0  0  0  0  0  0  0  0
    2.4252   -4.2361   -0.2581 C   0  0  0  0  0  0  0  0  0  0  0  0
    3.8707   -4.7234   -0.3760 C   0  0  1  0  0  0  0  0  0  0  0  0
    4.4959   -4.2957    0.4078 H   0  0  0  0  0  0  0  0  0  0  0  0
    3.9455   -6.2443   -0.3779 C   0  0  0  0  0  0  0  0  0  0  0  0
    4.4171   -6.7832   -1.4325 N   0  0  0  0  0  0  0  0  0  0  0  0
    4.8432   -6.0821   -2.5222 C   0  0  0  0  0  0  0  0  0  0  0  0
    5.3376   -6.5421   -3.6400 N   0  0  0  0  0  0  0  0  0  0  0  0
    5.4837   -7.9230   -3.8254 N   0  0  0  0  0  0  0  0  0  0  0  0
    6.0079   -8.4108   -5.0106 C   0  0  0  0  0  0  0  0  0  0  0  0
    6.3924   -7.6594   -6.0236 C   0  0  0  0  0  0  0  0  0  0  0  0
    6.9171   -8.5103   -7.1567 C   0  0  0  0  0  0  0  0  0  0  0  0
    7.1805   -9.8956   -6.5229 C   0  0  0  0  0  0  0  0  0  0  0  0
    6.2102   -9.8760   -5.3195 C   0  0  0  0  0  0  0  0  0  0  0  0
    4.5608   -4.3802   -2.0497 S   0  0  0  0  0  0  0  0  0  0  0  0
    3.5366   -6.9792    0.6762 O   0  0  0  0  0  0  0  0  0  0  0  0
    1.1503    3.1659   -0.0158 H   0  0  0  0  0  0  0  0  0  0  0  0
    2.8315    1.9666   -1.3546 H   0  0  0  0  0  0  0  0  0  0  0  0
    2.8736   -0.4942   -1.3637 H   0  0  0  0  0  0  0  0  0  0  0  0
   -0.4507   -0.5517    1.3255 H   0  0  0  0  0  0  0  0  0  0  0  0
   -0.4870    1.9092    1.3247 H   0  0  0  0  0  0  0  0  0  0  0  0
    0.4094   -2.5783    0.0623 H   0  0  0  0  0  0  0  0  0  0  0  0
    1.9642   -4.6768    0.6259 H   0  0  0  0  0  0  0  0  0  0  0  0
    1.8676   -4.5348   -1.1458 H   0  0  0  0  0  0  0  0  0  0  0  0
    5.2176   -8.5375   -3.1236 H   0  0  0  0  0  0  0  0  0  0  0  0
    6.3408   -6.5807   -6.0405 H   0  0  0  0  0  0  0  0  0  0  0  0
    7.8427   -8.0915   -7.5517 H   0  0  0  0  0  0  0  0  0  0  0  0
    6.1702   -8.5902   -7.9466 H   0  0  0  0  0  0  0  0  0  0  0  0
    8.2147   -9.9824   -6.1896 H   0  0  0  0  0  0  0  0  0  0  0  0
    6.9270  -10.6976   -7.2162 H   0  0  0  0  0  0  0  0  0  0  0  0
    6.6551  -10.3861   -4.4651 H   0  0  0  0  0  0  0  0  0  0  0  0
    5.2622  -10.3415   -5.5889 H   0  0  0  0  0  0  0  0  0  0  0  0
    3.6160   -7.9398    0.5988 H   0  0  0  0  0  0  0  0  0  0  0  0
  1  6  2  0  0  0  0
  1  2  1  0  0  0  0
  1 25  1  0  0  0  0
  2  3  2  0  0  0  0
  2 26  1  0  0  0  0
  3  4  1  0  0  0  0
  3 27  1  0  0  0  0
  4  5  2  0  0  0  0
  4  7  1  0  0  0  0
  5  6  1  0  0  0  0
  5 28  1  0  0  0  0
  6 29  1  0  0  0  0
  7  8  1  0  0  0  0
  7 30  1  0  0  0  0
  8  9  2  0  0  0  0
  8 10  1  0  0  0  0
 10 11  1  0  0  0  0
 10 31  1  0  0  0  0
 10 32  1  0  0  0  0
 11 12  1  0  0  0  0
 11 23  1  0  0  0  0
 11 13  1  0  0  0  0
 13 14  2  0  0  0  0
 13 24  1  0  0  0  0
 14 15  1  0  0  0  0
 15 16  2  0  0  0  0
 15 23  1  0  0  0  0
 16 17  1  0  0  0  0
 17 18  1  0  0  0  0
 17 33  1  0  0  0  0
 18 22  1  0  0  0  0
 18 19  2  0  0  0  0
 19 20  1  0  0  0  0
 19 34  1  0  0  0  0
 20 21  1  0  0  0  0
 20 35  1  0  0  0  0
 20 36  1  0  0  0  0
 21 22  1  0  0  0  0
 21 37  1  0  0  0  0
 21 38  1  0  0  0  0
 22 39  1  0  0  0  0
 22 40  1  0  0  0  0
 24 41  1  0  0  0  0
M  END
$$$$
ZINC03971747
  -OEChem-08230709453D

 41 43  0     1  0  0  0  0  0999 V2000
   10.9485    9.5510   -1.1584 C   0  0  0  0  0  0  0  0  0  0  0  0
   10.9816    8.5843   -0.1702 C   0  0  0  0  0  0  0  0  0  0  0  0
   10.6709    7.2733   -0.4739 C   0  0  0  0  0  0  0  0  0  0  0  0
   10.3249    6.9264   -1.7733 C   0  0  0  0  0  0  0  0  0  0  0  0
   10.2981    7.8985   -2.7646 C   0  0  0  0  0  0  0  0  0  0  0  0
   10.6048    9.2087   -2.4534 C   0  0  0  0  0  0  0  0  0  0  0  0
   10.0094    5.5991   -2.0842 N   0  0  0  0  0  0  0  0  0  0  0  0
    9.3628    4.8316   -1.1846 C   0  0  0  0  0  0  0  0  0  0  0  0
    9.1286    5.2637   -0.0757 O   0  0  0  0  0  0  0  0  0  0  0  0
    8.9307    3.4366   -1.5564 C   0  0  0  0  0  0  0  0  0  0  0  0
    8.2241    2.7869   -0.3649 C   0  0  2  0  0  0  0  0  0  0  0  0
    8.8752    2.7526    0.5086 H   0  0  0  0  0  0  0  0  0  0  0  0
    7.6960    1.4030   -0.7184 C   0  0  0  0  0  0  0  0  0  0  0  0
    6.4326    1.2481   -0.6482 N   0  0  0  0  0  0  0  0  0  0  0  0
    5.5614    2.2364   -0.2947 C   0  0  0  0  0  0  0  0  0  0  0  0
    4.2603    2.1751   -0.2005 N   0  0  0  0  0  0  0  0  0  0  0  0
    3.5928    0.9775   -0.4884 N   0  0  0  0  0  0  0  0  0  0  0  0
    2.2133    0.9125   -0.3885 C   0  0  0  0  0  0  0  0  0  0  0  0
    1.4408    1.9201   -0.0325 C   0  0  0  0  0  0  0  0  0  0  0  0
   -0.0131    1.5084   -0.0268 C   0  0  0  0  0  0  0  0  0  0  0  0
    0.0142   -0.0373   -0.0298 C   0  0  0  0  0  0  0  0  0  0  0  0
    1.3905   -0.3224   -0.6737 C   0  0  0  0  0  0  0  0  0  0  0  0
    6.6330    3.6344    0.0161 S   0  0  0  0  0  0  0  0  0  0  0  0
    8.5183    0.3972   -1.0791 O   0  0  0  0  0  0  0  0  0  0  0  0
   11.1919   10.5755   -0.9184 H   0  0  0  0  0  0  0  0  0  0  0  0
   11.2511    8.8547    0.8401 H   0  0  0  0  0  0  0  0  0  0  0  0
   10.6972    6.5187    0.2983 H   0  0  0  0  0  0  0  0  0  0  0  0
   10.0337    7.6310   -3.7770 H   0  0  0  0  0  0  0  0  0  0  0  0
   10.5802    9.9659   -3.2230 H   0  0  0  0  0  0  0  0  0  0  0  0
   10.2561    5.2313   -2.9472 H   0  0  0  0  0  0  0  0  0  0  0  0
    9.8055    2.8451   -1.8267 H   0  0  0  0  0  0  0  0  0  0  0  0
    8.2467    3.4818   -2.4039 H   0  0  0  0  0  0  0  0  0  0  0  0
    4.0970    0.1938   -0.7576 H   0  0  0  0  0  0  0  0  0  0  0  0
    1.7991    2.9070    0.2204 H   0  0  0  0  0  0  0  0  0  0  0  0
   -0.5164    1.8808   -0.9191 H   0  0  0  0  0  0  0  0  0  0  0  0
   -0.5084    1.8774    0.8712 H   0  0  0  0  0  0  0  0  0  0  0  0
   -0.0311   -0.4308    0.9857 H   0  0  0  0  0  0  0  0  0  0  0  0
   -0.7938   -0.4411   -0.6400 H   0  0  0  0  0  0  0  0  0  0  0  0
    1.8496   -1.1985   -0.2156 H   0  0  0  0  0  0  0  0  0  0  0  0
    1.2835   -0.4693   -1.7485 H   0  0  0  0  0  0  0  0  0  0  0  0
    8.1069   -0.4525   -1.2887 H   0  0  0  0  0  0  0  0  0  0  0  0
  1  6  2  0  0  0  0
  1  2  1  0  0  0  0
  1 25  1  0  0  0  0
  2  3  2  0  0  0  0
  2 26  1  0  0  0  0
  3  4  1  0  0  0  0
  3 27  1  0  0  0  0
  4  5  2  0  0  0  0
  4  7  1  0  0  0  0
  5  6  1  0  0  0  0
  5 28  1  0  0  0  0
  6 29  1  0  0  0  0
  7  8  1  0  0  0  0
  7 30  1  0  0  0  0
  8  9  2  0  0  0  0
  8 10  1  0  0  0  0
 10 11  1  0  0  0  0
 10 31  1  0  0  0  0
 10 32  1  0  0  0  0
 11 12  1  0  0  0  0
 11 23  1  0  0  0  0
 11 13  1  0  0  0  0
 13 14  2  0  0  0  0
 13 24  1  0  0  0  0
 14 15  1  0  0  0  0
 15 16  2  0  0  0  0
 15 23  1  0  0  0  0
 16 17  1  0  0  0  0
 17 18  1  0  0  0  0
 17 33  1  0  0  0  0
 18 22  1  0  0  0  0
 18 19  2  0  0  0  0
 19 20  1  0  0  0  0
 19 34  1  0  0  0  0
 20 21  1  0  0  0  0
 20 35  1  0  0  0  0
 20 36  1  0  0  0  0
 21 22  1  0  0  0  0
 21 37  1  0  0  0  0
 21 38  1  0  0  0  0
 22 39  1  0  0  0  0
 22 40  1  0  0  0  0
 24 41  1  0  0  0  0
M  END
$$$$
ZINC03975065
  -OEChem-08230709453D

 45 47  0     1  0  0  0  0  0999 V2000
    1.2751   -3.5232    1.8964 C   0  0  0  0  0  0  0  0  0  0  0  0
    1.7983   -3.3187    0.4733 C   0  0  1  0  0  0  0  0  0  0  0  0
    2.1272   -4.2740    0.0642 H   0  0  0  0  0  0  0  0  0  0  0  0
    0.6873   -2.7386   -0.4068 C   0  0  0  0  0  0  0  0  0  0  0  0
    1.1190   -2.7631   -1.8738 C   0  0  0  0  0  0  0  0  0  0  0  0
    2.4812   -2.0913   -1.9957 C   0  0  0  0  0  0  0  0  0  0  0  0
    3.2725   -1.9219   -0.9142 C   0  0  0  0  0  0  0  0  0  0  0  0
    4.7196   -1.1123   -1.5345 S   0  0  0  0  0  0  0  0  0  0  0  0
    4.2819   -0.9996   -3.2072 C   0  0  0  0  0  0  0  0  0  0  0  0
    3.0266   -1.5910   -3.2461 C   0  0  0  0  0  0  0  0  0  0  0  0
    2.2793   -1.7068   -4.5020 C   0  0  0  0  0  0  0  0  0  0  0  0
    2.4167   -2.6921   -5.2032 O   0  0  0  0  0  0  0  0  0  0  0  0
    1.4402   -0.7222   -4.8801 N   0  0  0  0  0  0  0  0  0  0  0  0
    5.0083   -0.4523   -4.2520 N   0  0  0  0  0  0  0  0  0  0  0  0
    6.2236    0.0824   -4.0204 C   0  0  0  0  0  0  0  0  0  0  0  0
    6.6826    0.0844   -2.8940 O   0  0  0  0  0  0  0  0  0  0  0  0
    6.9954    0.6640   -5.1306 C   0  0  0  0  0  0  0  0  0  0  0  0
    8.1592    1.3331   -4.8767 C   0  0  0  0  0  0  0  0  0  0  0  0
    8.5223    1.6758   -3.4971 C   0  0  0  0  0  0  0  0  0  0  0  0
    7.5606    2.2029   -2.6257 C   0  0  0  0  0  0  0  0  0  0  0  0
    7.9092    2.5170   -1.3298 C   0  0  0  0  0  0  0  0  0  0  0  0
    9.2082    2.3234   -0.8918 C   0  0  0  0  0  0  0  0  0  0  0  0
   10.1665    1.8079   -1.7478 C   0  0  0  0  0  0  0  0  0  0  0  0
    9.8342    1.4832   -3.0454 C   0  0  0  0  0  0  0  0  0  0  0  0
    6.5265    0.5285   -6.4769 C   0  0  0  0  0  0  0  0  0  0  0  0
    6.1545    0.4210   -7.5448 N   0  0  0  0  0  0  0  0  0  0  0  0
    2.9771   -2.3347    0.4947 C   0  0  0  0  0  0  0  0  0  0  0  0
    0.9467   -2.5670    2.3037 H   0  0  0  0  0  0  0  0  0  0  0  0
    0.4354   -4.2180    1.8785 H   0  0  0  0  0  0  0  0  0  0  0  0
    2.0703   -3.9303    2.5209 H   0  0  0  0  0  0  0  0  0  0  0  0
   -0.2182   -3.3331   -0.2856 H   0  0  0  0  0  0  0  0  0  0  0  0
    0.4869   -1.7103   -0.1060 H   0  0  0  0  0  0  0  0  0  0  0  0
    0.3902   -2.2239   -2.4790 H   0  0  0  0  0  0  0  0  0  0  0  0
    1.1882   -3.7949   -2.2183 H   0  0  0  0  0  0  0  0  0  0  0  0
    1.3308    0.0630   -4.3212 H   0  0  0  0  0  0  0  0  0  0  0  0
    0.9458   -0.7989   -5.7111 H   0  0  0  0  0  0  0  0  0  0  0  0
    4.6423   -0.4538   -5.1503 H   0  0  0  0  0  0  0  0  0  0  0  0
    8.8119    1.6098   -5.6915 H   0  0  0  0  0  0  0  0  0  0  0  0
    6.5479    2.3588   -2.9671 H   0  0  0  0  0  0  0  0  0  0  0  0
    7.1679    2.9193   -0.6553 H   0  0  0  0  0  0  0  0  0  0  0  0
    9.4755    2.5756    0.1237 H   0  0  0  0  0  0  0  0  0  0  0  0
   11.1775    1.6601   -1.3979 H   0  0  0  0  0  0  0  0  0  0  0  0
   10.5829    1.0812   -3.7119 H   0  0  0  0  0  0  0  0  0  0  0  0
    2.7130   -1.4583    1.0865 H   0  0  0  0  0  0  0  0  0  0  0  0
    3.8523   -2.8196    0.9271 H   0  0  0  0  0  0  0  0  0  0  0  0
  1  2  1  0  0  0  0
  1 28  1  0  0  0  0
  1 29  1  0  0  0  0
  1 30  1  0  0  0  0
  2  3  1  0  0  0  0
  2 27  1  0  0  0  0
  2  4  1  0  0  0  0
  4  5  1  0  0  0  0
  4 31  1  0  0  0  0
  4 32  1  0  0  0  0
  5  6  1  0  0  0  0
  5 33  1  0  0  0  0
  5 34  1  0  0  0  0
  6 10  1  0  0  0  0
  6  7  2  0  0  0  0
  7  8  1  0  0  0  0
  7 27  1  0  0  0  0
  8  9  1  0  0  0  0
  9 10  2  0  0  0  0
  9 14  1  0  0  0  0
 10 11  1  0  0  0  0
 11 12  2  0  0  0  0
 11 13  1  0  0  0  0
 13 35  1  0  0  0  0
 13 36  1  0  0  0  0
 14 15  1  0  0  0  0
 14 37  1  0  0  0  0
 15 16  2  0  0  0  0
 15 17  1  0  0  0  0
 17 18  2  0  0  0  0
 17 25  1  0  0  0  0
 18 19  1  0  0  0  0
 18 38  1  0  0  0  0
 19 24  2  0  0  0  0
 19 20  1  0  0  0  0
 20 21  2  0  0  0  0
 20 39  1  0  0  0  0
 21 22  1  0  0  0  0
 21 40  1  0  0  0  0
 22 23  2  0  0  0  0
 22 41  1  0  0  0  0
 23 24  1  0  0  0  0
 23 42  1  0  0  0  0
 24 43  1  0  0  0  0
 25 26  3  0  0  0  0
 27 44  1  0  0  0  0
 27 45  1  0  0  0  0
M  END
$$$$
ZINC03975067
  -OEChem-08230709453D

 45 47  0     1  0  0  0  0  0999 V2000
    3.3909   -2.3260    5.1418 C   0  0  0  0  0  0  0  0  0  0  0  0
    2.8726   -1.2287    4.2101 C   0  0  2  0  0  0  0  0  0  0  0  0
    3.3525   -1.3200    3.2356 H   0  0  0  0  0  0  0  0  0  0  0  0
    3.1865    0.1448    4.8102 C   0  0  0  0  0  0  0  0  0  0  0  0
    2.8984    1.2401    3.7819 C   0  0  0  0  0  0  0  0  0  0  0  0
    1.4816    1.0552    3.2523 C   0  0  0  0  0  0  0  0  0  0  0  0
    0.8330   -0.1208    3.3965 C   0  0  0  0  0  0  0  0  0  0  0  0
   -0.7475    0.1385    2.6421 S   0  0  0  0  0  0  0  0  0  0  0  0
   -0.5515    1.7854    2.1408 C   0  0  0  0  0  0  0  0  0  0  0  0
    0.7319    2.0957    2.5691 C   0  0  0  0  0  0  0  0  0  0  0  0
    1.3096    3.4235    2.3404 C   0  0  0  0  0  0  0  0  0  0  0  0
    1.1622    4.3023    3.1695 O   0  0  0  0  0  0  0  0  0  0  0  0
    2.0039    3.6711    1.2121 N   0  0  0  0  0  0  0  0  0  0  0  0
   -1.4541    2.5941    1.4699 N   0  0  0  0  0  0  0  0  0  0  0  0
   -2.6651    2.1122    1.1268 C   0  0  0  0  0  0  0  0  0  0  0  0
   -2.9654    0.9671    1.4062 O   0  0  0  0  0  0  0  0  0  0  0  0
   -3.6242    2.9716    0.4140 C   0  0  0  0  0  0  0  0  0  0  0  0
   -4.8003    2.4411   -0.0634 C   0  0  0  0  0  0  0  0  0  0  0  0
   -5.0001    0.9876   -0.0700 C   0  0  0  0  0  0  0  0  0  0  0  0
   -3.9732    0.1373   -0.4995 C   0  0  0  0  0  0  0  0  0  0  0  0
   -4.1676   -1.2272   -0.4969 C   0  0  0  0  0  0  0  0  0  0  0  0
   -5.3775   -1.7573   -0.0823 C   0  0  0  0  0  0  0  0  0  0  0  0
   -6.4000   -0.9240    0.3384 C   0  0  0  0  0  0  0  0  0  0  0  0
   -6.2210    0.4425    0.3478 C   0  0  0  0  0  0  0  0  0  0  0  0
   -3.3331    4.3599    0.2176 C   0  0  0  0  0  0  0  0  0  0  0  0
   -3.1022    5.4612    0.0617 N   0  0  0  0  0  0  0  0  0  0  0  0
    1.3511   -1.3635    4.0523 C   0  0  0  0  0  0  0  0  0  0  0  0
    2.9062   -2.2361    6.1140 H   0  0  0  0  0  0  0  0  0  0  0  0
    3.1666   -3.3027    4.7130 H   0  0  0  0  0  0  0  0  0  0  0  0
    4.4692   -2.2211    5.2623 H   0  0  0  0  0  0  0  0  0  0  0  0
    4.2377    0.1836    5.0956 H   0  0  0  0  0  0  0  0  0  0  0  0
    2.5669    0.3045    5.6926 H   0  0  0  0  0  0  0  0  0  0  0  0
    3.6089    1.1646    2.9588 H   0  0  0  0  0  0  0  0  0  0  0  0
    2.9875    2.2190    4.2530 H   0  0  0  0  0  0  0  0  0  0  0  0
    2.1214    2.9707    0.5514 H   0  0  0  0  0  0  0  0  0  0  0  0
    2.3861    4.5497    1.0608 H   0  0  0  0  0  0  0  0  0  0  0  0
   -1.2146    3.5073    1.2471 H   0  0  0  0  0  0  0  0  0  0  0  0
   -5.5765    3.0946   -0.4335 H   0  0  0  0  0  0  0  0  0  0  0  0
   -3.0305    0.5495   -0.8278 H   0  0  0  0  0  0  0  0  0  0  0  0
   -3.3752   -1.8845   -0.8231 H   0  0  0  0  0  0  0  0  0  0  0  0
   -5.5245   -2.8273   -0.0867 H   0  0  0  0  0  0  0  0  0  0  0  0
   -7.3407   -1.3460    0.6598 H   0  0  0  0  0  0  0  0  0  0  0  0
   -7.0195    1.0911    0.6766 H   0  0  0  0  0  0  0  0  0  0  0  0
    0.8894   -1.4812    5.0327 H   0  0  0  0  0  0  0  0  0  0  0  0
    1.1215   -2.2294    3.4314 H   0  0  0  0  0  0  0  0  0  0  0  0
  1  2  1  0  0  0  0
  1 28  1  0  0  0  0
  1 29  1  0  0  0  0
  1 30  1  0  0  0  0
  2  3  1  0  0  0  0
  2 27  1  0  0  0  0
  2  4  1  0  0  0  0
  4  5  1  0  0  0  0
  4 31  1  0  0  0  0
  4 32  1  0  0  0  0
  5  6  1  0  0  0  0
  5 33  1  0  0  0  0
  5 34  1  0  0  0  0
  6 10  1  0  0  0  0
  6  7  2  0  0  0  0
  7  8  1  0  0  0  0
  7 27  1  0  0  0  0
  8  9  1  0  0  0  0
  9 10  2  0  0  0  0
  9 14  1  0  0  0  0
 10 11  1  0  0  0  0
 11 12  2  0  0  0  0
 11 13  1  0  0  0  0
 13 35  1  0  0  0  0
 13 36  1  0  0  0  0
 14 15  1  0  0  0  0
 14 37  1  0  0  0  0
 15 16  2  0  0  0  0
 15 17  1  0  0  0  0
 17 18  2  0  0  0  0
 17 25  1  0  0  0  0
 18 19  1  0  0  0  0
 18 38  1  0  0  0  0
 19 24  2  0  0  0  0
 19 20  1  0  0  0  0
 20 21  2  0  0  0  0
 20 39  1  0  0  0  0
 21 22  1  0  0  0  0
 21 40  1  0  0  0  0
 22 23  2  0  0  0  0
 22 41  1  0  0  0  0
 23 24  1  0  0  0  0
 23 42  1  0  0  0  0
 24 43  1  0  0  0  0
 25 26  3  0  0  0  0
 27 44  1  0  0  0  0
 27 45  1  0  0  0  0
M  END
$$$$
ZINC03976393
  -OEChem-08230709453D

 43 44  0     1  0  0  0  0  0999 V2000
   -0.0042    0.0426    0.0055 C   0  0  0  0  0  0  0  0  0  0  0  0
   -0.0287    1.5724    0.0032 C   0  0  0  0  0  0  0  0  0  0  0  0
    1.4054    2.1055   -0.0097 C   0  0  0  0  0  0  0  0  0  0  0  0
   -0.7575    2.0614   -1.2219 C   0  0  0  0  0  0  0  0  0  0  0  0
   -1.8439    2.8047   -1.0925 C   0  0  0  0  0  0  0  0  0  0  0  0
   -0.2897    1.7325   -2.4830 N   0  0  0  0  0  0  0  0  0  0  0  0
   -0.9672    2.1870   -3.6219 N   0  0  0  0  0  0  0  0  0  0  0  0
   -0.5261    1.8769   -4.8113 C   0  0  0  0  0  0  0  0  0  0  0  0
   -1.0451    2.2232   -6.0242 N   0  0  0  0  0  0  0  0  0  0  0  0
   -0.5424    1.8714   -7.1416 C   0  0  0  0  0  0  0  0  0  0  0  0
    0.7136    1.0130   -7.0729 C   0  0  2  0  0  0  0  0  0  0  0  0
    0.5494    0.0322   -7.5193 H   0  0  0  0  0  0  0  0  0  0  0  0
    0.9095    0.9016   -5.2441 S   0  0  0  0  0  0  0  0  0  0  0  0
    1.9084    1.7203   -7.7155 C   0  0  0  0  0  0  0  0  0  0  0  0
    3.0929    0.7888   -7.7345 C   0  0  0  0  0  0  0  0  0  0  0  0
    2.9914   -0.3307   -7.2789 O   0  0  0  0  0  0  0  0  0  0  0  0
    4.2650    1.1996   -8.2577 N   0  0  0  0  0  0  0  0  0  0  0  0
    5.3907    0.3714   -8.1885 C   0  0  0  0  0  0  0  0  0  0  0  0
    6.6532    0.9256   -8.0225 C   0  0  0  0  0  0  0  0  0  0  0  0
    7.7617    0.1050   -7.9488 C   0  0  0  0  0  0  0  0  0  0  0  0
    7.6165   -1.2664   -8.0512 C   0  0  0  0  0  0  0  0  0  0  0  0
    6.3615   -1.8209   -8.2227 C   0  0  0  0  0  0  0  0  0  0  0  0
    5.2484   -1.0062   -8.2915 C   0  0  0  0  0  0  0  0  0  0  0  0
   -1.0911    2.2388   -8.3172 O   0  0  0  0  0  0  0  0  0  0  0  0
    0.5079   -0.3138   -0.8883 H   0  0  0  0  0  0  0  0  0  0  0  0
    0.5229   -0.3110    0.8916 H   0  0  0  0  0  0  0  0  0  0  0  0
   -1.0259   -0.3371    0.0147 H   0  0  0  0  0  0  0  0  0  0  0  0
   -0.5408    1.9289    0.8970 H   0  0  0  0  0  0  0  0  0  0  0  0
    1.9174    1.7490   -0.9035 H   0  0  0  0  0  0  0  0  0  0  0  0
    1.3879    3.1953   -0.0113 H   0  0  0  0  0  0  0  0  0  0  0  0
    1.9324    1.7518    0.8764 H   0  0  0  0  0  0  0  0  0  0  0  0
   -2.3661    3.1551   -1.9705 H   0  0  0  0  0  0  0  0  0  0  0  0
   -2.2087    3.0612   -0.1089 H   0  0  0  0  0  0  0  0  0  0  0  0
    0.5070    1.1874   -2.5778 H   0  0  0  0  0  0  0  0  0  0  0  0
    1.6551    2.0068   -8.7362 H   0  0  0  0  0  0  0  0  0  0  0  0
    2.1563    2.6114   -7.1388 H   0  0  0  0  0  0  0  0  0  0  0  0
    4.3283    2.0695   -8.6823 H   0  0  0  0  0  0  0  0  0  0  0  0
    6.7676    1.9968   -7.9470 H   0  0  0  0  0  0  0  0  0  0  0  0
    8.7433    0.5351   -7.8156 H   0  0  0  0  0  0  0  0  0  0  0  0
    8.4853   -1.9057   -7.9974 H   0  0  0  0  0  0  0  0  0  0  0  0
    6.2515   -2.8924   -8.3027 H   0  0  0  0  0  0  0  0  0  0  0  0
    4.2683   -1.4399   -8.4248 H   0  0  0  0  0  0  0  0  0  0  0  0
   -1.8885    2.7843   -8.2780 H   0  0  0  0  0  0  0  0  0  0  0  0
  1  2  1  0  0  0  0
  1 25  1  0  0  0  0
  1 26  1  0  0  0  0
  1 27  1  0  0  0  0
  2  3  1  0  0  0  0
  2  4  1  0  0  0  0
  2 28  1  0  0  0  0
  3 29  1  0  0  0  0
  3 30  1  0  0  0  0
  3 31  1  0  0  0  0
  4  5  2  0  0  0  0
  4  6  1  0  0  0  0
  5 32  1  0  0  0  0
  5 33  1  0  0  0  0
  6  7  1  0  0  0  0
  6 34  1  0  0  0  0
  7  8  2  0  0  0  0
  8 13  1  0  0  0  0
  8  9  1  0  0  0  0
  9 10  2  0  0  0  0
 10 11  1  0  0  0  0
 10 24  1  0  0  0  0
 11 12  1  0  0  0  0
 11 13  1  0  0  0  0
 11 14  1  0  0  0  0
 14 15  1  0  0  0  0
 14 35  1  0  0  0  0
 14 36  1  0  0  0  0
 15 16  2  0  0  0  0
 15 17  1  0  0  0  0
 17 18  1  0  0  0  0
 17 37  1  0  0  0  0
 18 23  2  0  0  0  0
 18 19  1  0  0  0  0
 19 20  2  0  0  0  0
 19 38  1  0  0  0  0
 20 21  1  0  0  0  0
 20 39  1  0  0  0  0
 21 22  2  0  0  0  0
 21 40  1  0  0  0  0
 22 23  1  0  0  0  0
 22 41  1  0  0  0  0
 23 42  1  0  0  0  0
 24 43  1  0  0  0  0
M  END
$$$$
ZINC03976592
  -OEChem-08230709453D

 43 44  0     1  0  0  0  0  0999 V2000
    8.3555    2.9178   -1.2818 C   0  0  0  0  0  0  0  0  0  0  0  0
    8.3478    2.0248   -0.0394 C   0  0  0  0  0  0  0  0  0  0  0  0
    8.3685    2.8982    1.2166 C   0  0  0  0  0  0  0  0  0  0  0  0
    7.1034    1.1747   -0.0397 C   0  0  0  0  0  0  0  0  0  0  0  0
    7.2036   -0.1442   -0.0505 C   0  0  0  0  0  0  0  0  0  0  0  0
    5.8553    1.7742   -0.0285 N   0  0  0  0  0  0  0  0  0  0  0  0
    4.6986    0.9839   -0.0287 N   0  0  0  0  0  0  0  0  0  0  0  0
    3.5215    1.5493   -0.0182 C   0  0  0  0  0  0  0  0  0  0  0  0
    2.2950    0.9524   -0.0170 N   0  0  0  0  0  0  0  0  0  0  0  0
    1.1915    1.5906   -0.0066 C   0  0  0  0  0  0  0  0  0  0  0  0
    1.2939    3.1099   -0.0010 C   0  0  1  0  0  0  0  0  0  0  0  0
    0.8540    3.5345    0.9014 H   0  0  0  0  0  0  0  0  0  0  0  0
    3.1273    3.2939   -0.0025 S   0  0  0  0  0  0  0  0  0  0  0  0
    0.6696    3.7156   -1.2597 C   0  0  0  0  0  0  0  0  0  0  0  0
    0.6836    5.2189   -1.1539 C   0  0  0  0  0  0  0  0  0  0  0  0
    1.1472    5.7532   -0.1686 O   0  0  0  0  0  0  0  0  0  0  0  0
    0.1809    5.9695   -2.1540 N   0  0  0  0  0  0  0  0  0  0  0  0
    0.1050    7.3608   -2.0151 C   0  0  0  0  0  0  0  0  0  0  0  0
   -0.9547    8.0590   -2.5786 C   0  0  0  0  0  0  0  0  0  0  0  0
   -1.0303    9.4307   -2.4363 C   0  0  0  0  0  0  0  0  0  0  0  0
   -0.0445   10.1110   -1.7413 C   0  0  0  0  0  0  0  0  0  0  0  0
    1.0159    9.4172   -1.1831 C   0  0  0  0  0  0  0  0  0  0  0  0
    1.0924    8.0449   -1.3186 C   0  0  0  0  0  0  0  0  0  0  0  0
   -0.1173   11.4534   -1.6081 F   0  0  0  0  0  0  0  0  0  0  0  0
    0.0015    0.9565   -0.0063 O   0  0  0  0  0  0  0  0  0  0  0  0
    7.4758    3.5614   -1.2722 H   0  0  0  0  0  0  0  0  0  0  0  0
    9.2555    3.5327   -1.2816 H   0  0  0  0  0  0  0  0  0  0  0  0
    8.3408    2.2956   -2.1766 H   0  0  0  0  0  0  0  0  0  0  0  0
    9.2275    1.3813   -0.0490 H   0  0  0  0  0  0  0  0  0  0  0  0
    7.4888    3.5418    1.2262 H   0  0  0  0  0  0  0  0  0  0  0  0
    8.3629    2.2620    2.1017 H   0  0  0  0  0  0  0  0  0  0  0  0
    9.2685    3.5131    1.2168 H   0  0  0  0  0  0  0  0  0  0  0  0
    8.1770   -0.6118   -0.0592 H   0  0  0  0  0  0  0  0  0  0  0  0
    6.3118   -0.7534   -0.0507 H   0  0  0  0  0  0  0  0  0  0  0  0
    5.7819    2.7414   -0.0205 H   0  0  0  0  0  0  0  0  0  0  0  0
    1.2431    3.4076   -2.1340 H   0  0  0  0  0  0  0  0  0  0  0  0
   -0.3586    3.3679   -1.3587 H   0  0  0  0  0  0  0  0  0  0  0  0
   -0.1283    5.5460   -2.9701 H   0  0  0  0  0  0  0  0  0  0  0  0
   -1.7216    7.5292   -3.1242 H   0  0  0  0  0  0  0  0  0  0  0  0
   -1.8564    9.9736   -2.8713 H   0  0  0  0  0  0  0  0  0  0  0  0
    1.7839    9.9496   -0.6417 H   0  0  0  0  0  0  0  0  0  0  0  0
    1.9198    7.5042   -0.8834 H   0  0  0  0  0  0  0  0  0  0  0  0
    0.0192   -0.0103   -0.0140 H   0  0  0  0  0  0  0  0  0  0  0  0
  1  2  1  0  0  0  0
  1 26  1  0  0  0  0
  1 27  1  0  0  0  0
  1 28  1  0  0  0  0
  2  3  1  0  0  0  0
  2  4  1  0  0  0  0
  2 29  1  0  0  0  0
  3 30  1  0  0  0  0
  3 31  1  0  0  0  0
  3 32  1  0  0  0  0
  4  5  2  0  0  0  0
  4  6  1  0  0  0  0
  5 33  1  0  0  0  0
  5 34  1  0  0  0  0
  6  7  1  0  0  0  0
  6 35  1  0  0  0  0
  7  8  2  0  0  0  0
  8 13  1  0  0  0  0
  8  9  1  0  0  0  0
  9 10  2  0  0  0  0
 10 11  1  0  0  0  0
 10 25  1  0  0  0  0
 11 12  1  0  0  0  0
 11 13  1  0  0  0  0
 11 14  1  0  0  0  0
 14 15  1  0  0  0  0
 14 36  1  0  0  0  0
 14 37  1  0  0  0  0
 15 16  2  0  0  0  0
 15 17  1  0  0  0  0
 17 18  1  0  0  0  0
 17 38  1  0  0  0  0
 18 23  2  0  0  0  0
 18 19  1  0  0  0  0
 19 20  2  0  0  0  0
 19 39  1  0  0  0  0
 20 21  1  0  0  0  0
 20 40  1  0  0  0  0
 21 22  2  0  0  0  0
 21 24  1  0  0  0  0
 22 23  1  0  0  0  0
 22 41  1  0  0  0  0
 23 42  1  0  0  0  0
 25 43  1  0  0  0  0
M  END
$$$$
ZINC03976599
  -OEChem-08230709453D

 43 44  0     1  0  0  0  0  0999 V2000
   -0.0022    1.1279   -0.0023 C   0  0  0  0  0  0  0  0  0  0  0  0
   -0.7105    1.6028    1.2403 C   0  0  0  0  0  0  0  0  0  0  0  0
   -1.8455    2.3853    1.1311 C   0  0  0  0  0  0  0  0  0  0  0  0
   -2.4996    2.8180    2.2677 C   0  0  0  0  0  0  0  0  0  0  0  0
   -2.0106    2.4750    3.5216 C   0  0  0  0  0  0  0  0  0  0  0  0
   -0.8678    1.6936    3.6278 C   0  0  0  0  0  0  0  0  0  0  0  0
   -0.2209    1.2599    2.4870 C   0  0  0  0  0  0  0  0  0  0  0  0
   -0.3340    1.3186    4.9863 C   0  0  0  0  0  0  0  0  0  0  0  0
   -2.6680    2.9163    4.6753 N   0  0  0  0  0  0  0  0  0  0  0  0
   -3.9803    3.2197    4.6288 C   0  0  0  0  0  0  0  0  0  0  0  0
   -4.6143    3.0158    3.6151 O   0  0  0  0  0  0  0  0  0  0  0  0
   -4.6599    3.8123    5.8362 C   0  0  0  0  0  0  0  0  0  0  0  0
   -6.1362    4.0604    5.5201 C   0  0  1  0  0  0  0  0  0  0  0  0
   -6.6374    3.1373    5.2287 H   0  0  0  0  0  0  0  0  0  0  0  0
   -6.8475    4.7357    6.6850 C   0  0  0  0  0  0  0  0  0  0  0  0
   -7.3276    5.8941    6.4557 N   0  0  0  0  0  0  0  0  0  0  0  0
   -7.2357    6.5339    5.2545 C   0  0  0  0  0  0  0  0  0  0  0  0
   -7.6923    7.7126    4.9265 N   0  0  0  0  0  0  0  0  0  0  0  0
   -8.3780    8.4863    5.8720 N   0  0  0  0  0  0  0  0  0  0  0  0
   -8.8621    9.7360    5.5242 C   0  0  0  0  0  0  0  0  0  0  0  0
   -8.6772   10.1995    4.2992 C   0  0  0  0  0  0  0  0  0  0  0  0
   -9.5998   10.5682    6.5413 C   0  0  0  0  0  0  0  0  0  0  0  0
   -6.3380    5.3680    4.2377 S   0  0  0  0  0  0  0  0  0  0  0  0
   -6.9633    4.1420    7.8901 O   0  0  0  0  0  0  0  0  0  0  0  0
   -0.4108    0.1647   -0.3078 H   0  0  0  0  0  0  0  0  0  0  0  0
    1.0627    1.0217    0.2046 H   0  0  0  0  0  0  0  0  0  0  0  0
   -0.1462    1.8539   -0.8025 H   0  0  0  0  0  0  0  0  0  0  0  0
   -2.2231    2.6549    0.1558 H   0  0  0  0  0  0  0  0  0  0  0  0
   -3.3883    3.4257    2.1817 H   0  0  0  0  0  0  0  0  0  0  0  0
    0.6681    0.6521    2.5690 H   0  0  0  0  0  0  0  0  0  0  0  0
    0.3746    2.0766    5.3202 H   0  0  0  0  0  0  0  0  0  0  0  0
   -1.1590    1.2548    5.6959 H   0  0  0  0  0  0  0  0  0  0  0  0
    0.1684    0.3532    4.9255 H   0  0  0  0  0  0  0  0  0  0  0  0
   -2.1792    3.0038    5.5085 H   0  0  0  0  0  0  0  0  0  0  0  0
   -4.5792    3.1205    6.6747 H   0  0  0  0  0  0  0  0  0  0  0  0
   -4.1805    4.7560    6.0964 H   0  0  0  0  0  0  0  0  0  0  0  0
   -8.5137    8.1464    6.7703 H   0  0  0  0  0  0  0  0  0  0  0  0
   -8.1486    9.6031    3.5703 H   0  0  0  0  0  0  0  0  0  0  0  0
   -9.0548   11.1743    4.0279 H   0  0  0  0  0  0  0  0  0  0  0  0
   -8.8901   11.1947    7.0816 H   0  0  0  0  0  0  0  0  0  0  0  0
  -10.3291   11.1997    6.0340 H   0  0  0  0  0  0  0  0  0  0  0  0
  -10.1135    9.9121    7.2439 H   0  0  0  0  0  0  0  0  0  0  0  0
   -7.4291    4.6350    8.5794 H   0  0  0  0  0  0  0  0  0  0  0  0
  1  2  1  0  0  0  0
  1 25  1  0  0  0  0
  1 26  1  0  0  0  0
  1 27  1  0  0  0  0
  2  7  2  0  0  0  0
  2  3  1  0  0  0  0
  3  4  2  0  0  0  0
  3 28  1  0  0  0  0
  4  5  1  0  0  0  0
  4 29  1  0  0  0  0
  5  6  2  0  0  0  0
  5  9  1  0  0  0  0
  6  7  1  0  0  0  0
  6  8  1  0  0  0  0
  7 30  1  0  0  0  0
  8 31  1  0  0  0  0
  8 32  1  0  0  0  0
  8 33  1  0  0  0  0
  9 10  1  0  0  0  0
  9 34  1  0  0  0  0
 10 11  2  0  0  0  0
 10 12  1  0  0  0  0
 12 13  1  0  0  0  0
 12 35  1  0  0  0  0
 12 36  1  0  0  0  0
 13 14  1  0  0  0  0
 13 23  1  0  0  0  0
 13 15  1  0  0  0  0
 15 16  2  0  0  0  0
 15 24  1  0  0  0  0
 16 17  1  0  0  0  0
 17 18  2  0  0  0  0
 17 23  1  0  0  0  0
 18 19  1  0  0  0  0
 19 20  1  0  0  0  0
 19 37  1  0  0  0  0
 20 21  2  0  0  0  0
 20 22  1  0  0  0  0
 21 38  1  0  0  0  0
 21 39  1  0  0  0  0
 22 40  1  0  0  0  0
 22 41  1  0  0  0  0
 22 42  1  0  0  0  0
 24 43  1  0  0  0  0
M  END
$$$$
ZINC03976610
  -OEChem-08230709453D

 43 44  0     1  0  0  0  0  0999 V2000
    2.4910    1.0481   -0.0602 C   0  0  0  0  0  0  0  0  0  0  0  0
    1.1770    1.7854   -0.0323 C   0  0  0  0  0  0  0  0  0  0  0  0
    0.0568    1.2215   -0.6154 C   0  0  0  0  0  0  0  0  0  0  0  0
   -1.1475    1.8969   -0.5961 C   0  0  0  0  0  0  0  0  0  0  0  0
   -1.2357    3.1389    0.0193 C   0  0  0  0  0  0  0  0  0  0  0  0
   -0.1092    3.7026    0.6033 C   0  0  0  0  0  0  0  0  0  0  0  0
    1.0939    3.0244    0.5757 C   0  0  0  0  0  0  0  0  0  0  0  0
   -0.1988    5.0529    1.2663 C   0  0  0  0  0  0  0  0  0  0  0  0
   -2.4559    3.8233    0.0456 N   0  0  0  0  0  0  0  0  0  0  0  0
   -3.6139    3.1401   -0.0483 C   0  0  0  0  0  0  0  0  0  0  0  0
   -3.6037    1.9273   -0.0547 O   0  0  0  0  0  0  0  0  0  0  0  0
   -4.9214    3.8831   -0.1454 C   0  0  0  0  0  0  0  0  0  0  0  0
   -6.0724    2.8797   -0.2407 C   0  0  2  0  0  0  0  0  0  0  0  0
   -5.8823    2.1340   -1.0127 H   0  0  0  0  0  0  0  0  0  0  0  0
   -7.4047    3.5826   -0.4639 C   0  0  0  0  0  0  0  0  0  0  0  0
   -8.2794    3.4342    0.4514 N   0  0  0  0  0  0  0  0  0  0  0  0
   -8.0821    2.6989    1.5832 C   0  0  0  0  0  0  0  0  0  0  0  0
   -8.9119    2.4902    2.5697 N   0  0  0  0  0  0  0  0  0  0  0  0
  -10.1917    3.0595    2.5409 N   0  0  0  0  0  0  0  0  0  0  0  0
  -11.0715    2.8382    3.5870 C   0  0  0  0  0  0  0  0  0  0  0  0
  -10.7037    2.0894    4.6134 C   0  0  0  0  0  0  0  0  0  0  0  0
  -12.4482    3.4506    3.5560 C   0  0  0  0  0  0  0  0  0  0  0  0
   -6.4115    2.0898    1.3891 S   0  0  0  0  0  0  0  0  0  0  0  0
   -7.6452    4.3203   -1.5666 O   0  0  0  0  0  0  0  0  0  0  0  0
    3.0434    1.3241   -0.9585 H   0  0  0  0  0  0  0  0  0  0  0  0
    3.0750    1.3130    0.8212 H   0  0  0  0  0  0  0  0  0  0  0  0
    2.3050   -0.0259   -0.0636 H   0  0  0  0  0  0  0  0  0  0  0  0
    0.1251    0.2539   -1.0902 H   0  0  0  0  0  0  0  0  0  0  0  0
   -2.0209    1.4579   -1.0555 H   0  0  0  0  0  0  0  0  0  0  0  0
    1.9705    3.4623    1.0298 H   0  0  0  0  0  0  0  0  0  0  0  0
    0.0147    5.8319    0.5343 H   0  0  0  0  0  0  0  0  0  0  0  0
   -1.2027    5.1954    1.6662 H   0  0  0  0  0  0  0  0  0  0  0  0
    0.5268    5.1082    2.0778 H   0  0  0  0  0  0  0  0  0  0  0  0
   -2.4683    4.7894    0.1314 H   0  0  0  0  0  0  0  0  0  0  0  0
   -5.0531    4.5041    0.7407 H   0  0  0  0  0  0  0  0  0  0  0  0
   -4.9153    4.5145   -1.0339 H   0  0  0  0  0  0  0  0  0  0  0  0
  -10.4614    3.6087    1.7882 H   0  0  0  0  0  0  0  0  0  0  0  0
   -9.7172    1.6505    4.6356 H   0  0  0  0  0  0  0  0  0  0  0  0
  -11.3900    1.9168    5.4293 H   0  0  0  0  0  0  0  0  0  0  0  0
  -13.1404    2.7638    3.0689 H   0  0  0  0  0  0  0  0  0  0  0  0
  -12.7835    3.6424    4.5752 H   0  0  0  0  0  0  0  0  0  0  0  0
  -12.4163    4.3884    3.0014 H   0  0  0  0  0  0  0  0  0  0  0  0
   -8.5158    4.7356   -1.6358 H   0  0  0  0  0  0  0  0  0  0  0  0
  1  2  1  0  0  0  0
  1 25  1  0  0  0  0
  1 26  1  0  0  0  0
  1 27  1  0  0  0  0
  2  7  2  0  0  0  0
  2  3  1  0  0  0  0
  3  4  2  0  0  0  0
  3 28  1  0  0  0  0
  4  5  1  0  0  0  0
  4 29  1  0  0  0  0
  5  6  2  0  0  0  0
  5  9  1  0  0  0  0
  6  7  1  0  0  0  0
  6  8  1  0  0  0  0
  7 30  1  0  0  0  0
  8 31  1  0  0  0  0
  8 32  1  0  0  0  0
  8 33  1  0  0  0  0
  9 10  1  0  0  0  0
  9 34  1  0  0  0  0
 10 11  2  0  0  0  0
 10 12  1  0  0  0  0
 12 13  1  0  0  0  0
 12 35  1  0  0  0  0
 12 36  1  0  0  0  0
 13 14  1  0  0  0  0
 13 23  1  0  0  0  0
 13 15  1  0  0  0  0
 15 16  2  0  0  0  0
 15 24  1  0  0  0  0
 16 17  1  0  0  0  0
 17 18  2  0  0  0  0
 17 23  1  0  0  0  0
 18 19  1  0  0  0  0
 19 20  1  0  0  0  0
 19 37  1  0  0  0  0
 20 21  2  0  0  0  0
 20 22  1  0  0  0  0
 21 38  1  0  0  0  0
 21 39  1  0  0  0  0
 22 40  1  0  0  0  0
 22 41  1  0  0  0  0
 22 42  1  0  0  0  0
 24 43  1  0  0  0  0
M  END
$$$$
ZINC03976628
  -OEChem-08230709453D

 43 44  0     1  0  0  0  0  0999 V2000
    0.1838    2.3930   -0.0351 C   0  0  0  0  0  0  0  0  0  0  0  0
   -0.6222    2.2090    1.2249 C   0  0  0  0  0  0  0  0  0  0  0  0
    0.0067    1.8373    2.3992 C   0  0  0  0  0  0  0  0  0  0  0  0
   -0.7292    1.6675    3.5573 C   0  0  0  0  0  0  0  0  0  0  0  0
   -2.0956    1.8696    3.5449 C   0  0  0  0  0  0  0  0  0  0  0  0
   -2.7300    2.2433    2.3676 C   0  0  0  0  0  0  0  0  0  0  0  0
   -1.9872    2.4173    1.2070 C   0  0  0  0  0  0  0  0  0  0  0  0
   -4.1140    2.4488    2.3517 N   0  0  0  0  0  0  0  0  0  0  0  0
   -4.8013    2.3195    1.1996 C   0  0  0  0  0  0  0  0  0  0  0  0
   -4.2390    1.9281    0.1987 O   0  0  0  0  0  0  0  0  0  0  0  0
   -6.2683    2.6613    1.1549 C   0  0  0  0  0  0  0  0  0  0  0  0
   -6.8034    2.4283   -0.2594 C   0  0  1  0  0  0  0  0  0  0  0  0
   -6.6542    1.3948   -0.5719 H   0  0  0  0  0  0  0  0  0  0  0  0
   -8.2654    2.8386   -0.3744 C   0  0  0  0  0  0  0  0  0  0  0  0
   -8.5218    3.7851   -1.1889 N   0  0  0  0  0  0  0  0  0  0  0  0
   -7.5772    4.4249   -1.9365 C   0  0  0  0  0  0  0  0  0  0  0  0
   -7.7420    5.3984   -2.7912 N   0  0  0  0  0  0  0  0  0  0  0  0
   -9.0238    5.9108   -3.0307 N   0  0  0  0  0  0  0  0  0  0  0  0
   -9.1985    6.9430   -3.9370 C   0  0  0  0  0  0  0  0  0  0  0  0
   -8.1553    7.4453   -4.5765 C   0  0  0  0  0  0  0  0  0  0  0  0
  -10.5773    7.4941   -4.1946 C   0  0  0  0  0  0  0  0  0  0  0  0
   -6.0581    3.6082   -1.4625 S   0  0  0  0  0  0  0  0  0  0  0  0
   -9.2337    2.2348    0.3441 O   0  0  0  0  0  0  0  0  0  0  0  0
   -2.8969    1.6852    4.8078 C   0  0  0  0  0  0  0  0  0  0  0  0
    0.2346    1.4476   -0.5752 H   0  0  0  0  0  0  0  0  0  0  0  0
    1.1916    2.7188    0.2226 H   0  0  0  0  0  0  0  0  0  0  0  0
   -0.2917    3.1457   -0.6639 H   0  0  0  0  0  0  0  0  0  0  0  0
    1.0750    1.6790    2.4116 H   0  0  0  0  0  0  0  0  0  0  0  0
   -0.2352    1.3768    4.4726 H   0  0  0  0  0  0  0  0  0  0  0  0
   -2.4771    2.7119    0.2907 H   0  0  0  0  0  0  0  0  0  0  0  0
   -4.5788    2.6844    3.1699 H   0  0  0  0  0  0  0  0  0  0  0  0
   -6.8104    2.0282    1.8574 H   0  0  0  0  0  0  0  0  0  0  0  0
   -6.4061    3.7076    1.4277 H   0  0  0  0  0  0  0  0  0  0  0  0
   -9.7888    5.5424   -2.5618 H   0  0  0  0  0  0  0  0  0  0  0  0
   -8.2916    8.2504   -5.2833 H   0  0  0  0  0  0  0  0  0  0  0  0
   -7.1673    7.0504   -4.3918 H   0  0  0  0  0  0  0  0  0  0  0  0
  -11.3027    6.9594   -3.5816 H   0  0  0  0  0  0  0  0  0  0  0  0
  -10.5982    8.5540   -3.9409 H   0  0  0  0  0  0  0  0  0  0  0  0
  -10.8281    7.3677   -5.2478 H   0  0  0  0  0  0  0  0  0  0  0  0
  -10.1381    2.5519    0.2156 H   0  0  0  0  0  0  0  0  0  0  0  0
   -2.9458    2.6305    5.3483 H   0  0  0  0  0  0  0  0  0  0  0  0
   -3.9056    1.3593    4.5538 H   0  0  0  0  0  0  0  0  0  0  0  0
   -2.4189    0.9325    5.4348 H   0  0  0  0  0  0  0  0  0  0  0  0
  1  2  1  0  0  0  0
  1 25  1  0  0  0  0
  1 26  1  0  0  0  0
  1 27  1  0  0  0  0
  2  7  2  0  0  0  0
  2  3  1  0  0  0  0
  3  4  2  0  0  0  0
  3 28  1  0  0  0  0
  4  5  1  0  0  0  0
  4 29  1  0  0  0  0
  5  6  2  0  0  0  0
  5 24  1  0  0  0  0
  6  7  1  0  0  0  0
  6  8  1  0  0  0  0
  7 30  1  0  0  0  0
  8  9  1  0  0  0  0
  8 31  1  0  0  0  0
  9 10  2  0  0  0  0
  9 11  1  0  0  0  0
 11 12  1  0  0  0  0
 11 32  1  0  0  0  0
 11 33  1  0  0  0  0
 12 13  1  0  0  0  0
 12 22  1  0  0  0  0
 12 14  1  0  0  0  0
 14 15  2  0  0  0  0
 14 23  1  0  0  0  0
 15 16  1  0  0  0  0
 16 17  2  0  0  0  0
 16 22  1  0  0  0  0
 17 18  1  0  0  0  0
 18 19  1  0  0  0  0
 18 34  1  0  0  0  0
 19 20  2  0  0  0  0
 19 21  1  0  0  0  0
 20 35  1  0  0  0  0
 20 36  1  0  0  0  0
 21 37  1  0  0  0  0
 21 38  1  0  0  0  0
 21 39  1  0  0  0  0
 23 40  1  0  0  0  0
 24 41  1  0  0  0  0
 24 42  1  0  0  0  0
 24 43  1  0  0  0  0
M  END
$$$$
ZINC03976632
  -OEChem-08230709453D

 43 44  0     1  0  0  0  0  0999 V2000
    0.1830    2.3931   -0.0356 C   0  0  0  0  0  0  0  0  0  0  0  0
   -0.6226    2.2091    1.2246 C   0  0  0  0  0  0  0  0  0  0  0  0
    0.0067    1.8373    2.3987 C   0  0  0  0  0  0  0  0  0  0  0  0
   -0.7288    1.6674    3.5570 C   0  0  0  0  0  0  0  0  0  0  0  0
   -2.0954    1.8687    3.5449 C   0  0  0  0  0  0  0  0  0  0  0  0
   -2.7302    2.2424    2.3679 C   0  0  0  0  0  0  0  0  0  0  0  0
   -1.9876    2.4174    1.2072 C   0  0  0  0  0  0  0  0  0  0  0  0
   -4.1143    2.4471    2.3522 N   0  0  0  0  0  0  0  0  0  0  0  0
   -4.8016    2.3178    1.2002 C   0  0  0  0  0  0  0  0  0  0  0  0
   -4.2393    1.9271    0.1991 O   0  0  0  0  0  0  0  0  0  0  0  0
   -6.2689    2.6586    1.1558 C   0  0  0  0  0  0  0  0  0  0  0  0
   -6.8040    2.4258   -0.2585 C   0  0  2  0  0  0  0  0  0  0  0  0
   -6.1730    2.9106   -1.0034 H   0  0  0  0  0  0  0  0  0  0  0  0
   -8.2544    2.8729   -0.3839 C   0  0  0  0  0  0  0  0  0  0  0  0
   -9.1008    1.9635   -0.6695 N   0  0  0  0  0  0  0  0  0  0  0  0
   -8.7764    0.6525   -0.8613 C   0  0  0  0  0  0  0  0  0  0  0  0
   -9.5675   -0.3441   -1.1548 N   0  0  0  0  0  0  0  0  0  0  0  0
  -10.9425   -0.1248   -1.3102 N   0  0  0  0  0  0  0  0  0  0  0  0
  -11.7813   -1.1815   -1.6215 C   0  0  0  0  0  0  0  0  0  0  0  0
  -11.2845   -2.3981   -1.7721 C   0  0  0  0  0  0  0  0  0  0  0  0
  -13.2603   -0.9456   -1.7887 C   0  0  0  0  0  0  0  0  0  0  0  0
   -7.0051    0.6289   -0.6133 S   0  0  0  0  0  0  0  0  0  0  0  0
   -8.6224    4.1574   -0.2026 O   0  0  0  0  0  0  0  0  0  0  0  0
   -2.8965    1.6823    4.8076 C   0  0  0  0  0  0  0  0  0  0  0  0
    0.2336    1.4478   -0.5758 H   0  0  0  0  0  0  0  0  0  0  0  0
    1.1909    2.7189    0.2218 H   0  0  0  0  0  0  0  0  0  0  0  0
   -0.2927    3.1458   -0.6642 H   0  0  0  0  0  0  0  0  0  0  0  0
    1.0750    1.6790    2.4107 H   0  0  0  0  0  0  0  0  0  0  0  0
   -0.2345    1.3767    4.4722 H   0  0  0  0  0  0  0  0  0  0  0  0
   -2.4778    2.7120    0.2911 H   0  0  0  0  0  0  0  0  0  0  0  0
   -4.5791    2.6820    3.1706 H   0  0  0  0  0  0  0  0  0  0  0  0
   -6.8105    2.0249    1.8581 H   0  0  0  0  0  0  0  0  0  0  0  0
   -6.4073    3.7047    1.4291 H   0  0  0  0  0  0  0  0  0  0  0  0
  -11.3068    0.7674   -1.1998 H   0  0  0  0  0  0  0  0  0  0  0  0
  -11.9388   -3.2223   -2.0149 H   0  0  0  0  0  0  0  0  0  0  0  0
  -10.2246   -2.5672   -1.6523 H   0  0  0  0  0  0  0  0  0  0  0  0
  -13.4803    0.1099   -1.6281 H   0  0  0  0  0  0  0  0  0  0  0  0
  -13.5620   -1.2303   -2.7967 H   0  0  0  0  0  0  0  0  0  0  0  0
  -13.8084   -1.5456   -1.0623 H   0  0  0  0  0  0  0  0  0  0  0  0
   -9.5624    4.3625   -0.2993 H   0  0  0  0  0  0  0  0  0  0  0  0
   -2.9460    2.6269    5.3492 H   0  0  0  0  0  0  0  0  0  0  0  0
   -3.9050    1.3560    4.5533 H   0  0  0  0  0  0  0  0  0  0  0  0
   -2.4180    0.9292    5.4337 H   0  0  0  0  0  0  0  0  0  0  0  0
  1  2  1  0  0  0  0
  1 25  1  0  0  0  0
  1 26  1  0  0  0  0
  1 27  1  0  0  0  0
  2  7  2  0  0  0  0
  2  3  1  0  0  0  0
  3  4  2  0  0  0  0
  3 28  1  0  0  0  0
  4  5  1  0  0  0  0
  4 29  1  0  0  0  0
  5  6  2  0  0  0  0
  5 24  1  0  0  0  0
  6  7  1  0  0  0  0
  6  8  1  0  0  0  0
  7 30  1  0  0  0  0
  8  9  1  0  0  0  0
  8 31  1  0  0  0  0
  9 10  2  0  0  0  0
  9 11  1  0  0  0  0
 11 12  1  0  0  0  0
 11 32  1  0  0  0  0
 11 33  1  0  0  0  0
 12 13  1  0  0  0  0
 12 22  1  0  0  0  0
 12 14  1  0  0  0  0
 14 15  2  0  0  0  0
 14 23  1  0  0  0  0
 15 16  1  0  0  0  0
 16 17  2  0  0  0  0
 16 22  1  0  0  0  0
 17 18  1  0  0  0  0
 18 19  1  0  0  0  0
 18 34  1  0  0  0  0
 19 20  2  0  0  0  0
 19 21  1  0  0  0  0
 20 35  1  0  0  0  0
 20 36  1  0  0  0  0
 21 37  1  0  0  0  0
 21 38  1  0  0  0  0
 21 39  1  0  0  0  0
 23 40  1  0  0  0  0
 24 41  1  0  0  0  0
 24 42  1  0  0  0  0
 24 43  1  0  0  0  0
M  END
$$$$
ZINC03976645
  -OEChem-08230709453D

 43 44  0     1  0  0  0  0  0999 V2000
   -0.0451    1.5023    0.0138 C   0  0  0  0  0  0  0  0  0  0  0  0
   -0.0176   -0.0044    0.0046 C   0  0  0  0  0  0  0  0  0  0  0  0
    0.7534   -0.6861    0.9285 C   0  0  0  0  0  0  0  0  0  0  0  0
    0.7770   -2.0668    0.9257 C   0  0  0  0  0  0  0  0  0  0  0  0
    0.0334   -2.7707   -0.0126 C   0  0  0  0  0  0  0  0  0  0  0  0
   -0.7355   -2.0833   -0.9422 C   0  0  0  0  0  0  0  0  0  0  0  0
   -0.7586   -0.7022   -0.9311 C   0  0  0  0  0  0  0  0  0  0  0  0
   -1.5929    0.0448   -1.9397 C   0  0  0  0  0  0  0  0  0  0  0  0
    0.0586   -4.1697   -0.0209 N   0  0  0  0  0  0  0  0  0  0  0  0
   -0.0456   -4.8387   -1.1863 C   0  0  0  0  0  0  0  0  0  0  0  0
   -0.0648   -4.2302   -2.2353 O   0  0  0  0  0  0  0  0  0  0  0  0
   -0.1381   -6.3429   -1.1860 C   0  0  0  0  0  0  0  0  0  0  0  0
   -0.2470   -6.8474   -2.6263 C   0  0  1  0  0  0  0  0  0  0  0  0
    0.6091   -6.5291   -3.2212 H   0  0  0  0  0  0  0  0  0  0  0  0
   -0.4256   -8.3590   -2.6730 C   0  0  0  0  0  0  0  0  0  0  0  0
   -1.5141   -8.7814   -3.1846 N   0  0  0  0  0  0  0  0  0  0  0  0
   -2.4925   -7.9676   -3.6755 C   0  0  0  0  0  0  0  0  0  0  0  0
   -3.6334   -8.3048   -4.2141 N   0  0  0  0  0  0  0  0  0  0  0  0
   -3.9745   -9.6575   -4.3430 N   0  0  0  0  0  0  0  0  0  0  0  0
   -5.1842  -10.0151   -4.9141 C   0  0  0  0  0  0  0  0  0  0  0  0
   -6.0176   -9.0796   -5.3380 C   0  0  0  0  0  0  0  0  0  0  0  0
   -5.5511  -11.4702   -5.0528 C   0  0  0  0  0  0  0  0  0  0  0  0
   -1.8350   -6.3267   -3.4022 S   0  0  0  0  0  0  0  0  0  0  0  0
    0.5142   -9.2026   -2.2004 O   0  0  0  0  0  0  0  0  0  0  0  0
   -0.8505    1.8470    0.6624 H   0  0  0  0  0  0  0  0  0  0  0  0
    0.9074    1.8809    0.3847 H   0  0  0  0  0  0  0  0  0  0  0  0
   -0.2122    1.8689   -0.9990 H   0  0  0  0  0  0  0  0  0  0  0  0
    1.3347   -0.1381    1.6553 H   0  0  0  0  0  0  0  0  0  0  0  0
    1.3758   -2.5987    1.6503 H   0  0  0  0  0  0  0  0  0  0  0  0
   -1.3146   -2.6277   -1.6734 H   0  0  0  0  0  0  0  0  0  0  0  0
   -0.9954    0.2438   -2.8294 H   0  0  0  0  0  0  0  0  0  0  0  0
   -2.4599   -0.5573   -2.2114 H   0  0  0  0  0  0  0  0  0  0  0  0
   -1.9267    0.9883   -1.5077 H   0  0  0  0  0  0  0  0  0  0  0  0
    0.1510   -4.6581    0.8121 H   0  0  0  0  0  0  0  0  0  0  0  0
    0.7542   -6.7617   -0.7207 H   0  0  0  0  0  0  0  0  0  0  0  0
   -1.0198   -6.6525   -0.6249 H   0  0  0  0  0  0  0  0  0  0  0  0
   -3.3633  -10.3436   -4.0322 H   0  0  0  0  0  0  0  0  0  0  0  0
   -5.7546   -8.0368   -5.2386 H   0  0  0  0  0  0  0  0  0  0  0  0
   -6.9611   -9.3585   -5.7834 H   0  0  0  0  0  0  0  0  0  0  0  0
   -6.0839  -11.7972   -4.1599 H   0  0  0  0  0  0  0  0  0  0  0  0
   -6.1900  -11.6021   -5.9259 H   0  0  0  0  0  0  0  0  0  0  0  0
   -4.6447  -12.0636   -5.1728 H   0  0  0  0  0  0  0  0  0  0  0  0
    0.3273  -10.1491   -2.2656 H   0  0  0  0  0  0  0  0  0  0  0  0
  1  2  1  0  0  0  0
  1 25  1  0  0  0  0
  1 26  1  0  0  0  0
  1 27  1  0  0  0  0
  2  7  2  0  0  0  0
  2  3  1  0  0  0  0
  3  4  2  0  0  0  0
  3 28  1  0  0  0  0
  4  5  1  0  0  0  0
  4 29  1  0  0  0  0
  5  6  2  0  0  0  0
  5  9  1  0  0  0  0
  6  7  1  0  0  0  0
  6 30  1  0  0  0  0
  7  8  1  0  0  0  0
  8 31  1  0  0  0  0
  8 32  1  0  0  0  0
  8 33  1  0  0  0  0
  9 10  1  0  0  0  0
  9 34  1  0  0  0  0
 10 11  2  0  0  0  0
 10 12  1  0  0  0  0
 12 13  1  0  0  0  0
 12 35  1  0  0  0  0
 12 36  1  0  0  0  0
 13 14  1  0  0  0  0
 13 23  1  0  0  0  0
 13 15  1  0  0  0  0
 15 16  2  0  0  0  0
 15 24  1  0  0  0  0
 16 17  1  0  0  0  0
 17 18  2  0  0  0  0
 17 23  1  0  0  0  0
 18 19  1  0  0  0  0
 19 20  1  0  0  0  0
 19 37  1  0  0  0  0
 20 21  2  0  0  0  0
 20 22  1  0  0  0  0
 21 38  1  0  0  0  0
 21 39  1  0  0  0  0
 22 40  1  0  0  0  0
 22 41  1  0  0  0  0
 22 42  1  0  0  0  0
 24 43  1  0  0  0  0
M  END
$$$$
ZINC03976659
  -OEChem-08230709453D

 43 44  0     1  0  0  0  0  0999 V2000
    0.0053    1.5030    0.0086 C   0  0  0  0  0  0  0  0  0  0  0  0
    0.0194   -0.0039    0.0006 C   0  0  0  0  0  0  0  0  0  0  0  0
    0.7796   -0.6917    0.9288 C   0  0  0  0  0  0  0  0  0  0  0  0
    0.7947   -2.0726    0.9242 C   0  0  0  0  0  0  0  0  0  0  0  0
    0.0449   -2.7706   -0.0138 C   0  0  0  0  0  0  0  0  0  0  0  0
   -0.7177   -2.0770   -0.9440 C   0  0  0  0  0  0  0  0  0  0  0  0
   -0.7322   -0.6958   -0.9310 C   0  0  0  0  0  0  0  0  0  0  0  0
   -1.5637    0.0577   -1.9370 C   0  0  0  0  0  0  0  0  0  0  0  0
    0.0576   -4.1698   -0.0209 N   0  0  0  0  0  0  0  0  0  0  0  0
    0.1796   -4.8485    1.1371 C   0  0  0  0  0  0  0  0  0  0  0  0
    0.1820   -4.2512    2.1927 O   0  0  0  0  0  0  0  0  0  0  0  0
    0.3129   -6.3495    1.1203 C   0  0  0  0  0  0  0  0  0  0  0  0
    0.4351   -6.8667    2.5551 C   0  0  2  0  0  0  0  0  0  0  0  0
    1.1996   -6.3202    3.1073 H   0  0  0  0  0  0  0  0  0  0  0  0
    0.6950   -8.3669    2.5841 C   0  0  0  0  0  0  0  0  0  0  0  0
   -0.1977   -9.0818    3.1472 N   0  0  0  0  0  0  0  0  0  0  0  0
   -1.3365   -8.5801    3.7058 C   0  0  0  0  0  0  0  0  0  0  0  0
   -2.3017   -9.2282    4.3005 N   0  0  0  0  0  0  0  0  0  0  0  0
   -2.2378  -10.6223    4.4229 N   0  0  0  0  0  0  0  0  0  0  0  0
   -3.2613  -11.3095    5.0535 C   0  0  0  0  0  0  0  0  0  0  0  0
   -4.2992  -10.6497    5.5403 C   0  0  0  0  0  0  0  0  0  0  0  0
   -3.1926  -12.8092    5.1852 C   0  0  0  0  0  0  0  0  0  0  0  0
   -1.1877   -6.8196    3.4265 S   0  0  0  0  0  0  0  0  0  0  0  0
    1.8058   -8.9082    2.0446 O   0  0  0  0  0  0  0  0  0  0  0  0
    0.8008    1.8773   -0.6358 H   0  0  0  0  0  0  0  0  0  0  0  0
   -0.9573    1.8593   -0.3583 H   0  0  0  0  0  0  0  0  0  0  0  0
    0.1621    1.8625    1.0256 H   0  0  0  0  0  0  0  0  0  0  0  0
    1.3624   -0.1484    1.6579 H   0  0  0  0  0  0  0  0  0  0  0  0
    1.3886   -2.6091    1.6493 H   0  0  0  0  0  0  0  0  0  0  0  0
   -1.3017   -2.6169   -1.6746 H   0  0  0  0  0  0  0  0  0  0  0  0
   -0.9682    0.2499   -2.8295 H   0  0  0  0  0  0  0  0  0  0  0  0
   -2.4375   -0.5366   -2.2042 H   0  0  0  0  0  0  0  0  0  0  0  0
   -1.8867    1.0048   -1.5048 H   0  0  0  0  0  0  0  0  0  0  0  0
   -0.0213   -4.6512   -0.8592 H   0  0  0  0  0  0  0  0  0  0  0  0
   -0.5676   -6.7872    0.6500 H   0  0  0  0  0  0  0  0  0  0  0  0
    1.2028   -6.6289    0.5564 H   0  0  0  0  0  0  0  0  0  0  0  0
   -1.4767  -11.1062    4.0659 H   0  0  0  0  0  0  0  0  0  0  0  0
   -4.3484   -9.5750    5.4460 H   0  0  0  0  0  0  0  0  0  0  0  0
   -5.0974  -11.1857    6.0322 H   0  0  0  0  0  0  0  0  0  0  0  0
   -2.6897  -13.0695    6.1166 H   0  0  0  0  0  0  0  0  0  0  0  0
   -4.2022  -13.2201    5.1903 H   0  0  0  0  0  0  0  0  0  0  0  0
   -2.6363  -13.2227    4.3440 H   0  0  0  0  0  0  0  0  0  0  0  0
    1.8989   -9.8690    2.1029 H   0  0  0  0  0  0  0  0  0  0  0  0
  1  2  1  0  0  0  0
  1 25  1  0  0  0  0
  1 26  1  0  0  0  0
  1 27  1  0  0  0  0
  2  7  2  0  0  0  0
  2  3  1  0  0  0  0
  3  4  2  0  0  0  0
  3 28  1  0  0  0  0
  4  5  1  0  0  0  0
  4 29  1  0  0  0  0
  5  6  2  0  0  0  0
  5  9  1  0  0  0  0
  6  7  1  0  0  0  0
  6 30  1  0  0  0  0
  7  8  1  0  0  0  0
  8 31  1  0  0  0  0
  8 32  1  0  0  0  0
  8 33  1  0  0  0  0
  9 10  1  0  0  0  0
  9 34  1  0  0  0  0
 10 11  2  0  0  0  0
 10 12  1  0  0  0  0
 12 13  1  0  0  0  0
 12 35  1  0  0  0  0
 12 36  1  0  0  0  0
 13 14  1  0  0  0  0
 13 23  1  0  0  0  0
 13 15  1  0  0  0  0
 15 16  2  0  0  0  0
 15 24  1  0  0  0  0
 16 17  1  0  0  0  0
 17 18  2  0  0  0  0
 17 23  1  0  0  0  0
 18 19  1  0  0  0  0
 19 20  1  0  0  0  0
 19 37  1  0  0  0  0
 20 21  2  0  0  0  0
 20 22  1  0  0  0  0
 21 38  1  0  0  0  0
 21 39  1  0  0  0  0
 22 40  1  0  0  0  0
 22 41  1  0  0  0  0
 22 42  1  0  0  0  0
 24 43  1  0  0  0  0
M  END
$$$$
ZINC03976706
  -OEChem-08230709453D

 40 41  0     1  0  0  0  0  0999 V2000
   -8.9637   11.9971    4.3565 C   0  0  0  0  0  0  0  0  0  0  0  0
   -8.1761   11.6236    3.1272 C   0  0  0  0  0  0  0  0  0  0  0  0
   -8.6664   11.9343    1.8718 C   0  0  0  0  0  0  0  0  0  0  0  0
   -7.9469   11.5933    0.7415 C   0  0  0  0  0  0  0  0  0  0  0  0
   -6.7331   10.9451    0.8631 C   0  0  0  0  0  0  0  0  0  0  0  0
   -6.2409   10.6267    2.1218 C   0  0  0  0  0  0  0  0  0  0  0  0
   -6.9659   10.9710    3.2553 C   0  0  0  0  0  0  0  0  0  0  0  0
   -6.4327   10.6324    4.6235 C   0  0  0  0  0  0  0  0  0  0  0  0
   -5.0142    9.9654    2.2482 N   0  0  0  0  0  0  0  0  0  0  0  0
   -4.5508    9.2056    1.2360 C   0  0  0  0  0  0  0  0  0  0  0  0
   -5.2404    9.0136    0.2569 O   0  0  0  0  0  0  0  0  0  0  0  0
   -3.1758    8.5947    1.3208 C   0  0  0  0  0  0  0  0  0  0  0  0
   -2.8976    7.7866    0.0517 C   0  0  1  0  0  0  0  0  0  0  0  0
   -3.1121    8.3708   -0.8432 H   0  0  0  0  0  0  0  0  0  0  0  0
   -1.4724    7.2504    0.0363 C   0  0  0  0  0  0  0  0  0  0  0  0
   -1.3488    5.9816    0.0292 N   0  0  0  0  0  0  0  0  0  0  0  0
   -2.4001    5.1126    0.0346 C   0  0  0  0  0  0  0  0  0  0  0  0
   -2.3732    3.8070    0.0283 N   0  0  0  0  0  0  0  0  0  0  0  0
   -1.1458    3.1318    0.0145 N   0  0  0  0  0  0  0  0  0  0  0  0
   -1.1172    1.7474    0.0078 C   0  0  0  0  0  0  0  0  0  0  0  0
    0.0417    1.1099   -0.0052 C   0  0  0  0  0  0  0  0  0  0  0  0
   -3.8247    6.1943    0.0447 S   0  0  0  0  0  0  0  0  0  0  0  0
   -0.4023    8.0707    0.0309 O   0  0  0  0  0  0  0  0  0  0  0  0
   -8.6691   12.9928    4.6881 H   0  0  0  0  0  0  0  0  0  0  0  0
  -10.0281   11.9927    4.1214 H   0  0  0  0  0  0  0  0  0  0  0  0
   -8.7637   11.2761    5.1491 H   0  0  0  0  0  0  0  0  0  0  0  0
   -9.6132   12.4447    1.7743 H   0  0  0  0  0  0  0  0  0  0  0  0
   -8.3323   11.8376   -0.2374 H   0  0  0  0  0  0  0  0  0  0  0  0
   -6.1694   10.6829   -0.0200 H   0  0  0  0  0  0  0  0  0  0  0  0
   -5.8192   11.4562    4.9885 H   0  0  0  0  0  0  0  0  0  0  0  0
   -7.2653   10.4686    5.3076 H   0  0  0  0  0  0  0  0  0  0  0  0
   -5.8278    9.7276    4.5640 H   0  0  0  0  0  0  0  0  0  0  0  0
   -4.4975   10.0537    3.0643 H   0  0  0  0  0  0  0  0  0  0  0  0
   -3.1231    7.9375    2.1888 H   0  0  0  0  0  0  0  0  0  0  0  0
   -2.4322    9.3856    1.4182 H   0  0  0  0  0  0  0  0  0  0  0  0
   -0.3159    3.6340    0.0098 H   0  0  0  0  0  0  0  0  0  0  0  0
   -2.0411    1.1882    0.0131 H   0  0  0  0  0  0  0  0  0  0  0  0
    0.0639    0.0301   -0.0105 H   0  0  0  0  0  0  0  0  0  0  0  0
    0.9655    1.6691   -0.0150 H   0  0  0  0  0  0  0  0  0  0  0  0
    0.4702    7.6540    0.0210 H   0  0  0  0  0  0  0  0  0  0  0  0
  1  2  1  0  0  0  0
  1 24  1  0  0  0  0
  1 25  1  0  0  0  0
  1 26  1  0  0  0  0
  2  7  2  0  0  0  0
  2  3  1  0  0  0  0
  3  4  2  0  0  0  0
  3 27  1  0  0  0  0
  4  5  1  0  0  0  0
  4 28  1  0  0  0  0
  5  6  2  0  0  0  0
  5 29  1  0  0  0  0
  6  7  1  0  0  0  0
  6  9  1  0  0  0  0
  7  8  1  0  0  0  0
  8 30  1  0  0  0  0
  8 31  1  0  0  0  0
  8 32  1  0  0  0  0
  9 10  1  0  0  0  0
  9 33  1  0  0  0  0
 10 11  2  0  0  0  0
 10 12  1  0  0  0  0
 12 13  1  0  0  0  0
 12 34  1  0  0  0  0
 12 35  1  0  0  0  0
 13 14  1  0  0  0  0
 13 22  1  0  0  0  0
 13 15  1  0  0  0  0
 15 16  2  0  0  0  0
 15 23  1  0  0  0  0
 16 17  1  0  0  0  0
 17 18  2  0  0  0  0
 17 22  1  0  0  0  0
 18 19  1  0  0  0  0
 19 20  1  0  0  0  0
 19 36  1  0  0  0  0
 20 21  2  0  0  0  0
 20 37  1  0  0  0  0
 21 38  1  0  0  0  0
 21 39  1  0  0  0  0
 23 40  1  0  0  0  0
M  END
$$$$
ZINC03977220
  -OEChem-08230709453D

 43 44  0     0  0  0  0  0  0999 V2000
    1.7743    1.3566   -6.9478 C   0  0  0  0  0  0  0  0  0  0  0  0
    1.4051    0.0960   -6.1633 C   0  0  0  0  0  0  0  0  0  0  0  0
    2.6550   -0.7625   -5.9599 C   0  0  0  0  0  0  0  0  0  0  0  0
    0.3593   -0.7026   -6.9440 C   0  0  0  0  0  0  0  0  0  0  0  0
    0.8402    0.4866   -4.8219 C   0  0  0  0  0  0  0  0  0  0  0  0
   -0.2979    1.2688   -4.7535 C   0  0  0  0  0  0  0  0  0  0  0  0
   -0.8177    1.6282   -3.5251 C   0  0  0  0  0  0  0  0  0  0  0  0
   -0.1967    1.2037   -2.3594 C   0  0  0  0  0  0  0  0  0  0  0  0
    0.9484    0.4237   -2.4307 C   0  0  0  0  0  0  0  0  0  0  0  0
    1.4607    0.0618   -3.6615 C   0  0  0  0  0  0  0  0  0  0  0  0
   -0.7061    1.5559   -1.1497 O   0  0  0  0  0  0  0  0  0  0  0  0
   -0.0147    1.0829    0.0080 C   0  0  0  0  0  0  0  0  0  0  0  0
   -0.7303    1.5770    1.2668 C   0  0  0  0  0  0  0  0  0  0  0  0
    0.1454    0.9779    2.7332 S   0  0  0  0  0  0  0  0  0  0  0  0
   -0.8643    1.6740    3.9983 C   0  0  0  0  0  0  0  0  0  0  0  0
   -0.5447    1.4568    5.3048 N   0  0  0  0  0  0  0  0  0  0  0  0
   -2.1219    2.5448    2.6976 H   0  0  0  0  0  0  0  0  0  0  0  0
   -1.3184    1.9907    6.3019 C   0  0  0  0  0  0  0  0  0  0  0  0
   -2.4154    2.7308    5.9661 C   0  0  0  0  0  0  0  0  0  0  0  0
   -2.7097    2.9314    4.6027 C   0  0  0  0  0  0  0  0  0  0  0  0
   -3.6836    3.5945    4.2761 O   0  0  0  0  0  0  0  0  0  0  0  0
   -1.9142    2.3949    3.6642 N   0  0  0  0  0  0  0  0  0  0  0  0
   -1.0005    1.7745    7.6228 N   0  0  0  0  0  0  0  0  0  0  0  0
    2.5192    1.9255   -6.3916 H   0  0  0  0  0  0  0  0  0  0  0  0
    2.1828    1.0740   -7.9180 H   0  0  0  0  0  0  0  0  0  0  0  0
    0.8837    1.9682   -7.0927 H   0  0  0  0  0  0  0  0  0  0  0  0
    2.3919   -1.6606   -5.4009 H   0  0  0  0  0  0  0  0  0  0  0  0
    3.0636   -1.0451   -6.9301 H   0  0  0  0  0  0  0  0  0  0  0  0
    3.4000   -0.1936   -5.4037 H   0  0  0  0  0  0  0  0  0  0  0  0
   -0.5312   -0.0910   -7.0889 H   0  0  0  0  0  0  0  0  0  0  0  0
    0.7678   -0.9851   -7.9142 H   0  0  0  0  0  0  0  0  0  0  0  0
    0.0963   -1.6007   -6.3851 H   0  0  0  0  0  0  0  0  0  0  0  0
   -0.7808    1.5994   -5.6613 H   0  0  0  0  0  0  0  0  0  0  0  0
   -1.7069    2.2389   -3.4722 H   0  0  0  0  0  0  0  0  0  0  0  0
    1.4361    0.0958   -1.5246 H   0  0  0  0  0  0  0  0  0  0  0  0
    2.3491   -0.5496   -3.7176 H   0  0  0  0  0  0  0  0  0  0  0  0
   -0.0000   -0.0070    0.0025 H   0  0  0  0  0  0  0  0  0  0  0  0
    1.0080    1.4601   -0.0002 H   0  0  0  0  0  0  0  0  0  0  0  0
   -0.7450    2.6669    1.2723 H   0  0  0  0  0  0  0  0  0  0  0  0
   -1.7530    1.1999    1.2751 H   0  0  0  0  0  0  0  0  0  0  0  0
   -3.0445    3.1589    6.7325 H   0  0  0  0  0  0  0  0  0  0  0  0
   -0.2239    1.2413    7.8538 H   0  0  0  0  0  0  0  0  0  0  0  0
   -1.5531    2.1553    8.3232 H   0  0  0  0  0  0  0  0  0  0  0  0
  1  2  1  0  0  0  0
  1 24  1  0  0  0  0
  1 25  1  0  0  0  0
  1 26  1  0  0  0  0
  2  3  1  0  0  0  0
  2  4  1  0  0  0  0
  2  5  1  0  0  0  0
  3 27  1  0  0  0  0
  3 28  1  0  0  0  0
  3 29  1  0  0  0  0
  4 30  1  0  0  0  0
  4 31  1  0  0  0  0
  4 32  1  0  0  0  0
  5 10  2  0  0  0  0
  5  6  1  0  0  0  0
  6  7  2  0  0  0  0
  6 33  1  0  0  0  0
  7  8  1  0  0  0  0
  7 34  1  0  0  0  0
  8  9  2  0  0  0  0
  8 11  1  0  0  0  0
  9 10  1  0  0  0  0
  9 35  1  0  0  0  0
 10 36  1  0  0  0  0
 11 12  1  0  0  0  0
 12 13  1  0  0  0  0
 12 37  1  0  0  0  0
 12 38  1  0  0  0  0
 13 14  1  0  0  0  0
 13 39  1  0  0  0  0
 13 40  1  0  0  0  0
 14 15  1  0  0  0  0
 15 16  2  0  0  0  0
 15 22  1  0  0  0  0
 16 18  1  0  0  0  0
 17 22  1  0  0  0  0
 18 23  1  0  0  0  0
 18 19  2  0  0  0  0
 19 41  1  0  0  0  0
 19 20  1  0  0  0  0
 20 22  1  0  0  0  0
 20 21  2  0  0  0  0
 23 42  1  0  0  0  0
 23 43  1  0  0  0  0
M  END
$$$$
ZINC03977220
  -OEChem-08230709453D

 43 44  0     0  0  0  0  0  0999 V2000
    1.7743    1.3566   -6.9478 C   0  0  0  0  0  0  0  0  0  0  0  0
    1.4051    0.0960   -6.1633 C   0  0  0  0  0  0  0  0  0  0  0  0
    2.6550   -0.7625   -5.9599 C   0  0  0  0  0  0  0  0  0  0  0  0
    0.3593   -0.7026   -6.9440 C   0  0  0  0  0  0  0  0  0  0  0  0
    0.8402    0.4866   -4.8219 C   0  0  0  0  0  0  0  0  0  0  0  0
   -0.2979    1.2688   -4.7535 C   0  0  0  0  0  0  0  0  0  0  0  0
   -0.8177    1.6282   -3.5251 C   0  0  0  0  0  0  0  0  0  0  0  0
   -0.1967    1.2037   -2.3594 C   0  0  0  0  0  0  0  0  0  0  0  0
    0.9484    0.4237   -2.4307 C   0  0  0  0  0  0  0  0  0  0  0  0
    1.4607    0.0618   -3.6615 C   0  0  0  0  0  0  0  0  0  0  0  0
   -0.7061    1.5559   -1.1497 O   0  0  0  0  0  0  0  0  0  0  0  0
   -0.0147    1.0829    0.0080 C   0  0  0  0  0  0  0  0  0  0  0  0
   -0.7303    1.5770    1.2668 C   0  0  0  0  0  0  0  0  0  0  0  0
    0.1454    0.9779    2.7332 S   0  0  0  0  0  0  0  0  0  0  0  0
   -0.8643    1.6740    3.9983 C   0  0  0  0  0  0  0  0  0  0  0  0
   -0.5580    1.4381    5.3047 N   0  0  0  0  0  0  0  0  0  0  0  0
   -4.1432    3.9376    5.0955 H   0  0  0  0  0  0  0  0  0  0  0  0
   -1.3453    1.9527    6.3014 C   0  0  0  0  0  0  0  0  0  0  0  0
   -2.4360    2.7019    5.9651 C   0  0  0  0  0  0  0  0  0  0  0  0
   -2.6969    2.9500    4.6027 C   0  0  0  0  0  0  0  0  0  0  0  0
   -3.6671    3.6185    4.2760 O   0  0  0  0  0  0  0  0  0  0  0  0
   -1.9016    2.4130    3.6642 N   0  0  0  0  0  0  0  0  0  0  0  0
   -1.0409    1.7176    7.6222 N   0  0  0  0  0  0  0  0  0  0  0  0
    2.5192    1.9255   -6.3916 H   0  0  0  0  0  0  0  0  0  0  0  0
    2.1828    1.0740   -7.9180 H   0  0  0  0  0  0  0  0  0  0  0  0
    0.8837    1.9682   -7.0927 H   0  0  0  0  0  0  0  0  0  0  0  0
    2.3919   -1.6606   -5.4009 H   0  0  0  0  0  0  0  0  0  0  0  0
    3.0636   -1.0451   -6.9301 H   0  0  0  0  0  0  0  0  0  0  0  0
    3.4000   -0.1936   -5.4037 H   0  0  0  0  0  0  0  0  0  0  0  0
   -0.5312   -0.0910   -7.0889 H   0  0  0  0  0  0  0  0  0  0  0  0
    0.7678   -0.9851   -7.9142 H   0  0  0  0  0  0  0  0  0  0  0  0
    0.0963   -1.6007   -6.3851 H   0  0  0  0  0  0  0  0  0  0  0  0
   -0.7808    1.5994   -5.6613 H   0  0  0  0  0  0  0  0  0  0  0  0
   -1.7069    2.2389   -3.4722 H   0  0  0  0  0  0  0  0  0  0  0  0
    1.4361    0.0958   -1.5246 H   0  0  0  0  0  0  0  0  0  0  0  0
    2.3491   -0.5496   -3.7176 H   0  0  0  0  0  0  0  0  0  0  0  0
   -0.0000   -0.0070    0.0025 H   0  0  0  0  0  0  0  0  0  0  0  0
    1.0080    1.4601   -0.0002 H   0  0  0  0  0  0  0  0  0  0  0  0
   -0.7450    2.6669    1.2723 H   0  0  0  0  0  0  0  0  0  0  0  0
   -1.7530    1.1999    1.2751 H   0  0  0  0  0  0  0  0  0  0  0  0
   -3.0779    3.1116    6.7308 H   0  0  0  0  0  0  0  0  0  0  0  0
   -0.2642    1.1847    7.8535 H   0  0  0  0  0  0  0  0  0  0  0  0
   -1.6031    2.0847    8.3222 H   0  0  0  0  0  0  0  0  0  0  0  0
  1  2  1  0  0  0  0
  1 24  1  0  0  0  0
  1 25  1  0  0  0  0
  1 26  1  0  0  0  0
  2  3  1  0  0  0  0
  2  4  1  0  0  0  0
  2  5  1  0  0  0  0
  3 27  1  0  0  0  0
  3 28  1  0  0  0  0
  3 29  1  0  0  0  0
  4 30  1  0  0  0  0
  4 31  1  0  0  0  0
  4 32  1  0  0  0  0
  5 10  2  0  0  0  0
  5  6  1  0  0  0  0
  6  7  2  0  0  0  0
  6 33  1  0  0  0  0
  7  8  1  0  0  0  0
  7 34  1  0  0  0  0
  8  9  2  0  0  0  0
  8 11  1  0  0  0  0
  9 10  1  0  0  0  0
  9 35  1  0  0  0  0
 10 36  1  0  0  0  0
 11 12  1  0  0  0  0
 12 13  1  0  0  0  0
 12 37  1  0  0  0  0
 12 38  1  0  0  0  0
 13 14  1  0  0  0  0
 13 39  1  0  0  0  0
 13 40  1  0  0  0  0
 14 15  1  0  0  0  0
 15 16  2  0  0  0  0
 15 22  1  0  0  0  0
 16 18  1  0  0  0  0
 17 21  1  0  0  0  0
 18 23  1  0  0  0  0
 18 19  2  0  0  0  0
 19 41  1  0  0  0  0
 19 20  1  0  0  0  0
 20 22  2  0  0  0  0
 20 21  1  0  0  0  0
 23 42  1  0  0  0  0
 23 43  1  0  0  0  0
M  END
$$$$
ZINC03977220
  -OEChem-08230709453D

 43 44  0     0  0  0  0  0  0999 V2000
    1.8435    1.4645   -6.9362 C   0  0  0  0  0  0  0  0  0  0  0  0
    1.4733    0.1971   -6.1632 C   0  0  0  0  0  0  0  0  0  0  0  0
    2.7241   -0.6600   -5.9599 C   0  0  0  0  0  0  0  0  0  0  0  0
    0.4334   -0.5979   -6.9553 C   0  0  0  0  0  0  0  0  0  0  0  0
    0.9006    0.5762   -4.8218 C   0  0  0  0  0  0  0  0  0  0  0  0
   -0.2397    1.3552   -4.7533 C   0  0  0  0  0  0  0  0  0  0  0  0
   -0.7666    1.7041   -3.5249 C   0  0  0  0  0  0  0  0  0  0  0  0
   -0.1506    1.2722   -2.3593 C   0  0  0  0  0  0  0  0  0  0  0  0
    0.9967    0.4954   -2.4306 C   0  0  0  0  0  0  0  0  0  0  0  0
    1.5162    0.1440   -3.6615 C   0  0  0  0  0  0  0  0  0  0  0  0
   -0.6670    1.6140   -1.1495 O   0  0  0  0  0  0  0  0  0  0  0  0
    0.0196    1.1338    0.0081 C   0  0  0  0  0  0  0  0  0  0  0  0
   -0.7036    1.6167    1.2669 C   0  0  0  0  0  0  0  0  0  0  0  0
    0.1660    1.0084    2.7332 S   0  0  0  0  0  0  0  0  0  0  0  0
   -0.8518    1.6926    3.9983 C   0  0  0  0  0  0  0  0  0  0  0  0
   -0.5384    1.4661    5.3048 N   0  0  0  0  0  0  0  0  0  0  0  0
    0.2634    0.9154    5.5367 H   0  0  0  0  0  0  0  0  0  0  0  0
   -1.3185    1.9905    6.3019 C   0  0  0  0  0  0  0  0  0  0  0  0
   -2.4155    2.7306    5.9661 C   0  0  0  0  0  0  0  0  0  0  0  0
   -2.7097    2.9314    4.6027 C   0  0  0  0  0  0  0  0  0  0  0  0
   -3.6836    3.5945    4.2761 O   0  0  0  0  0  0  0  0  0  0  0  0
   -1.9016    2.4136    3.6643 N   0  0  0  0  0  0  0  0  0  0  0  0
   -1.0007    1.7743    7.6228 N   0  0  0  0  0  0  0  0  0  0  0  0
    2.5842    2.0309   -6.3719 H   0  0  0  0  0  0  0  0  0  0  0  0
    2.2577    1.1902   -7.9064 H   0  0  0  0  0  0  0  0  0  0  0  0
    0.9523    2.0751   -7.0810 H   0  0  0  0  0  0  0  0  0  0  0  0
    2.4603   -1.5630   -5.4091 H   0  0  0  0  0  0  0  0  0  0  0  0
    3.1384   -0.9343   -6.9301 H   0  0  0  0  0  0  0  0  0  0  0  0
    3.4649   -0.0937   -5.3956 H   0  0  0  0  0  0  0  0  0  0  0  0
   -0.4578    0.0127   -7.1001 H   0  0  0  0  0  0  0  0  0  0  0  0
    0.8475   -0.8721   -7.9255 H   0  0  0  0  0  0  0  0  0  0  0  0
    0.1696   -1.5009   -6.4046 H   0  0  0  0  0  0  0  0  0  0  0  0
   -0.7187    1.6916   -5.6610 H   0  0  0  0  0  0  0  0  0  0  0  0
   -1.6575    2.3123   -3.4719 H   0  0  0  0  0  0  0  0  0  0  0  0
    1.4805    0.1617   -1.5245 H   0  0  0  0  0  0  0  0  0  0  0  0
    2.4063   -0.4649   -3.7176 H   0  0  0  0  0  0  0  0  0  0  0  0
    0.0369    0.0440   -0.0056 H   0  0  0  0  0  0  0  0  0  0  0  0
    1.0415    1.5134    0.0080 H   0  0  0  0  0  0  0  0  0  0  0  0
   -0.7209    2.7064    1.2806 H   0  0  0  0  0  0  0  0  0  0  0  0
   -1.7254    1.2371    1.2671 H   0  0  0  0  0  0  0  0  0  0  0  0
   -3.0471    3.1551    6.7325 H   0  0  0  0  0  0  0  0  0  0  0  0
   -0.2241    1.2411    7.8538 H   0  0  0  0  0  0  0  0  0  0  0  0
   -1.5533    2.1550    8.3232 H   0  0  0  0  0  0  0  0  0  0  0  0
  1  2  1  0  0  0  0
  1 24  1  0  0  0  0
  1 25  1  0  0  0  0
  1 26  1  0  0  0  0
  2  3  1  0  0  0  0
  2  4  1  0  0  0  0
  2  5  1  0  0  0  0
  3 27  1  0  0  0  0
  3 28  1  0  0  0  0
  3 29  1  0  0  0  0
  4 30  1  0  0  0  0
  4 31  1  0  0  0  0
  4 32  1  0  0  0  0
  5 10  2  0  0  0  0
  5  6  1  0  0  0  0
  6  7  2  0  0  0  0
  6 33  1  0  0  0  0
  7  8  1  0  0  0  0
  7 34  1  0  0  0  0
  8  9  2  0  0  0  0
  8 11  1  0  0  0  0
  9 10  1  0  0  0  0
  9 35  1  0  0  0  0
 10 36  1  0  0  0  0
 11 12  1  0  0  0  0
 12 13  1  0  0  0  0
 12 37  1  0  0  0  0
 12 38  1  0  0  0  0
 13 14  1  0  0  0  0
 13 39  1  0  0  0  0
 13 40  1  0  0  0  0
 14 15  1  0  0  0  0
 15 16  1  0  0  0  0
 15 22  2  0  0  0  0
 16 18  1  0  0  0  0
 16 17  1  0  0  0  0
 18 23  1  0  0  0  0
 18 19  2  0  0  0  0
 19 41  1  0  0  0  0
 19 20  1  0  0  0  0
 20 22  1  0  0  0  0
 20 21  2  0  0  0  0
 23 42  1  0  0  0  0
 23 43  1  0  0  0  0
M  END
$$$$
ZINC03977550
  -OEChem-08230709453D

 44 45  0     0  0  0  0  0  0999 V2000
   -2.8478   -0.9203    2.4019 C   0  0  0  0  0  0  0  0  0  0  0  0
   -3.2463   -0.0661    1.2261 C   0  0  0  0  0  0  0  0  0  0  0  0
   -4.4501    0.6045    1.2376 C   0  0  0  0  0  0  0  0  0  0  0  0
   -4.8221    1.3925    0.1552 C   0  0  0  0  0  0  0  0  0  0  0  0
   -3.9844    1.5104   -0.9448 C   0  0  0  0  0  0  0  0  0  0  0  0
   -2.7708    0.8466   -0.9656 C   0  0  0  0  0  0  0  0  0  0  0  0
   -2.3960    0.0460    0.1234 C   0  0  0  0  0  0  0  0  0  0  0  0
   -1.1080   -0.6687    0.1072 C   0  0  0  0  0  0  0  0  0  0  0  0
   -0.0034   -0.0119   -0.0772 N   0  0  0  0  0  0  0  0  0  0  0  0
   -0.0208    1.3881   -0.1268 N   0  0  0  0  0  0  0  0  0  0  0  0
    1.1357    2.0734   -0.2230 C   0  0  0  0  0  0  0  0  0  0  0  0
    2.1919    1.4780   -0.2666 O   0  0  0  0  0  0  0  0  0  0  0  0
    1.1170    3.5794   -0.2764 C   0  0  0  0  0  0  0  0  0  0  0  0
    2.4894    4.0815   -0.3793 N   0  0  0  0  0  0  0  0  0  0  0  0
    2.7187    5.4081   -0.4415 C   0  0  0  0  0  0  0  0  0  0  0  0
    1.7868    6.1880   -0.4123 O   0  0  0  0  0  0  0  0  0  0  0  0
    4.1038    5.9149   -0.5453 C   0  0  0  0  0  0  0  0  0  0  0  0
    5.1764    5.0219   -0.5733 C   0  0  0  0  0  0  0  0  0  0  0  0
    6.4665    5.4997   -0.6746 C   0  0  0  0  0  0  0  0  0  0  0  0
    6.7007    6.8616   -0.7384 C   0  0  0  0  0  0  0  0  0  0  0  0
    5.6417    7.7545   -0.7064 C   0  0  0  0  0  0  0  0  0  0  0  0
    4.3444    7.2877   -0.6099 C   0  0  0  0  0  0  0  0  0  0  0  0
    5.8776    9.0833   -0.7691 F   0  0  0  0  0  0  0  0  0  0  0  0
   -1.9475    0.9655   -2.0390 O   0  0  0  0  0  0  0  0  0  0  0  0
   -4.3942    2.3671   -2.1149 C   0  0  0  0  0  0  0  0  0  0  0  0
   -6.0104    2.0504    0.1741 O   0  0  0  0  0  0  0  0  0  0  0  0
   -2.2950   -0.3147    3.1201 H   0  0  0  0  0  0  0  0  0  0  0  0
   -3.7418   -1.3230    2.8781 H   0  0  0  0  0  0  0  0  0  0  0  0
   -2.2183   -1.7410    2.0580 H   0  0  0  0  0  0  0  0  0  0  0  0
   -5.1068    0.5171    2.0905 H   0  0  0  0  0  0  0  0  0  0  0  0
   -1.0826   -1.7391    0.2486 H   0  0  0  0  0  0  0  0  0  0  0  0
   -0.8655    1.8640   -0.0960 H   0  0  0  0  0  0  0  0  0  0  0  0
    0.5449    3.9050   -1.1452 H   0  0  0  0  0  0  0  0  0  0  0  0
    0.6544    3.9694    0.6302 H   0  0  0  0  0  0  0  0  0  0  0  0
    3.2331    3.4591   -0.4026 H   0  0  0  0  0  0  0  0  0  0  0  0
    4.9963    3.9584   -0.5191 H   0  0  0  0  0  0  0  0  0  0  0  0
    7.2963    4.8088   -0.7001 H   0  0  0  0  0  0  0  0  0  0  0  0
    7.7130    7.2304   -0.8132 H   0  0  0  0  0  0  0  0  0  0  0  0
    3.5190    7.9838   -0.5850 H   0  0  0  0  0  0  0  0  0  0  0  0
   -2.0480    0.2593   -2.6919 H   0  0  0  0  0  0  0  0  0  0  0  0
   -4.0366    3.3855   -1.9625 H   0  0  0  0  0  0  0  0  0  0  0  0
   -3.9614    1.9633   -3.0302 H   0  0  0  0  0  0  0  0  0  0  0  0
   -5.4810    2.3724   -2.1985 H   0  0  0  0  0  0  0  0  0  0  0  0
   -5.9620    2.9389    0.5529 H   0  0  0  0  0  0  0  0  0  0  0  0
  1  2  1  0  0  0  0
  1 27  1  0  0  0  0
  1 28  1  0  0  0  0
  1 29  1  0  0  0  0
  2  7  2  0  0  0  0
  2  3  1  0  0  0  0
  3  4  2  0  0  0  0
  3 30  1  0  0  0  0
  4  5  1  0  0  0  0
  4 26  1  0  0  0  0
  5  6  2  0  0  0  0
  5 25  1  0  0  0  0
  6  7  1  0  0  0  0
  6 24  1  0  0  0  0
  7  8  1  0  0  0  0
  8  9  2  0  0  0  0
  8 31  1  0  0  0  0
  9 10  1  0  0  0  0
 10 11  1  0  0  0  0
 10 32  1  0  0  0  0
 11 12  2  0  0  0  0
 11 13  1  0  0  0  0
 13 14  1  0  0  0  0
 13 33  1  0  0  0  0
 13 34  1  0  0  0  0
 14 15  1  0  0  0  0
 14 35  1  0  0  0  0
 15 16  2  0  0  0  0
 15 17  1  0  0  0  0
 17 22  2  0  0  0  0
 17 18  1  0  0  0  0
 18 19  2  0  0  0  0
 18 36  1  0  0  0  0
 19 20  1  0  0  0  0
 19 37  1  0  0  0  0
 20 21  2  0  0  0  0
 20 38  1  0  0  0  0
 21 22  1  0  0  0  0
 21 23  1  0  0  0  0
 22 39  1  0  0  0  0
 24 40  1  0  0  0  0
 25 41  1  0  0  0  0
 25 42  1  0  0  0  0
 25 43  1  0  0  0  0
 26 44  1  0  0  0  0
M  END
$$$$
ZINC03978975
  -OEChem-08230709453D

 46 47  0     0  0  0  0  0  0999 V2000
   -1.9805    0.9854   -1.5214 C   0  0  0  0  0  0  0  0  0  0  0  0
   -0.9658    1.7540   -0.7147 C   0  0  0  0  0  0  0  0  0  0  0  0
   -0.0142    1.0757    0.0251 C   0  0  0  0  0  0  0  0  0  0  0  0
    0.9220    1.7773    0.7619 C   0  0  0  0  0  0  0  0  0  0  0  0
    0.9067    3.1585    0.7651 C   0  0  0  0  0  0  0  0  0  0  0  0
   -0.0506    3.8424    0.0276 C   0  0  0  0  0  0  0  0  0  0  0  0
   -0.9900    3.1347   -0.7112 C   0  0  0  0  0  0  0  0  0  0  0  0
   -0.0691    5.2415    0.0290 N   0  0  0  0  0  0  0  0  0  0  0  0
    1.0853    5.9306    0.1234 C   0  0  0  0  0  0  0  0  0  0  0  0
    2.1457    5.3420    0.1107 O   0  0  0  0  0  0  0  0  0  0  0  0
    1.0585    7.4325    0.2448 C   0  0  0  0  0  0  0  0  0  0  0  0
    2.7531    8.0594    0.3521 S   0  0  0  0  0  0  0  0  0  0  0  0
    2.4325    9.7871    0.4821 C   0  0  0  0  0  0  0  0  0  0  0  0
    1.1443   10.2293    0.4753 N   0  0  0  0  0  0  0  0  0  0  0  0
    0.3921    9.5751    0.3967 H   0  0  0  0  0  0  0  0  0  0  0  0
    0.8819   11.5493    0.5745 C   0  0  0  0  0  0  0  0  0  0  0  0
   -0.2692   11.9558    0.5690 O   0  0  0  0  0  0  0  0  0  0  0  0
    1.9527   12.4445    0.6833 C   0  0  0  0  0  0  0  0  0  0  0  0
    3.2433   11.9425    0.6853 C   0  0  0  0  0  0  0  0  0  0  0  0
    3.4437   10.6253    0.5893 N   0  3  0  0  0  0  0  0  0  0  0  0
    4.8125   10.1034    0.5978 C   0  0  0  0  0  0  0  0  0  0  0  0
    5.3432   10.0404   -0.8359 C   0  0  0  0  0  0  0  0  0  0  0  0
    6.8126    9.6144   -0.8176 C   0  0  0  0  0  0  0  0  0  0  0  0
    4.5275    9.0240   -1.6374 C   0  0  0  0  0  0  0  0  0  0  0  0
    4.2985   12.7837    0.7893 O   0  0  0  0  0  0  0  0  0  0  0  0
   -2.8601    0.7905   -0.9079 H   0  0  0  0  0  0  0  0  0  0  0  0
   -2.2689    1.5704   -2.3947 H   0  0  0  0  0  0  0  0  0  0  0  0
   -1.5463    0.0394   -1.8449 H   0  0  0  0  0  0  0  0  0  0  0  0
    0.0003   -0.0042    0.0237 H   0  0  0  0  0  0  0  0  0  0  0  0
    1.6663    1.2447    1.3354 H   0  0  0  0  0  0  0  0  0  0  0  0
    1.6387    3.7059    1.3403 H   0  0  0  0  0  0  0  0  0  0  0  0
   -1.7361    3.6637   -1.2856 H   0  0  0  0  0  0  0  0  0  0  0  0
   -0.9128    5.7154   -0.0379 H   0  0  0  0  0  0  0  0  0  0  0  0
    0.5680    7.8590   -0.6302 H   0  0  0  0  0  0  0  0  0  0  0  0
    0.5092    7.7147    1.1429 H   0  0  0  0  0  0  0  0  0  0  0  0
    1.7755   13.5068    0.7646 H   0  0  0  0  0  0  0  0  0  0  0  0
    5.4481   10.7601    1.1919 H   0  0  0  0  0  0  0  0  0  0  0  0
    4.8175    9.1034    1.0313 H   0  0  0  0  0  0  0  0  0  0  0  0
    5.2555   11.0231   -1.2993 H   0  0  0  0  0  0  0  0  0  0  0  0
    6.9002    8.6318   -0.3541 H   0  0  0  0  0  0  0  0  0  0  0  0
    7.1906    9.5695   -1.8389 H   0  0  0  0  0  0  0  0  0  0  0  0
    7.3937   10.3386   -0.2466 H   0  0  0  0  0  0  0  0  0  0  0  0
    4.9055    8.9790   -2.6587 H   0  0  0  0  0  0  0  0  0  0  0  0
    4.6152    8.0413   -1.1739 H   0  0  0  0  0  0  0  0  0  0  0  0
    3.4807    9.3274   -1.6504 H   0  0  0  0  0  0  0  0  0  0  0  0
    4.0528   13.7164    0.8573 H   0  0  0  0  0  0  0  0  0  0  0  0
  1  2  1  0  0  0  0
  1 26  1  0  0  0  0
  1 27  1  0  0  0  0
  1 28  1  0  0  0  0
  2  7  2  0  0  0  0
  2  3  1  0  0  0  0
  3  4  2  0  0  0  0
  3 29  1  0  0  0  0
  4  5  1  0  0  0  0
  4 30  1  0  0  0  0
  5  6  2  0  0  0  0
  5 31  1  0  0  0  0
  6  7  1  0  0  0  0
  6  8  1  0  0  0  0
  7 32  1  0  0  0  0
  8  9  1  0  0  0  0
  8 33  1  0  0  0  0
  9 10  2  0  0  0  0
  9 11  1  0  0  0  0
 11 12  1  0  0  0  0
 11 34  1  0  0  0  0
 11 35  1  0  0  0  0
 12 13  1  0  0  0  0
 13 20  2  0  0  0  0
 13 14  1  0  0  0  0
 14 15  1  0  0  0  0
 14 16  1  0  0  0  0
 16 17  2  0  0  0  0
 16 18  1  0  0  0  0
 18 19  2  0  0  0  0
 18 36  1  0  0  0  0
 19 20  1  0  0  0  0
 19 25  1  0  0  0  0
 20 21  1  0  0  0  0
 21 22  1  0  0  0  0
 21 37  1  0  0  0  0
 21 38  1  0  0  0  0
 22 23  1  0  0  0  0
 22 24  1  0  0  0  0
 22 39  1  0  0  0  0
 23 40  1  0  0  0  0
 23 41  1  0  0  0  0
 23 42  1  0  0  0  0
 24 43  1  0  0  0  0
 24 44  1  0  0  0  0
 24 45  1  0  0  0  0
 25 46  1  0  0  0  0
M  CHG  1  20   1
M  END
$$$$
ZINC03978975
  -OEChem-08230709453D

 46 47  0     0  0  0  0  0  0999 V2000
   -1.9744    0.9885   -1.5508 C   0  0  0  0  0  0  0  0  0  0  0  0
   -0.9629    1.7562   -0.7393 C   0  0  0  0  0  0  0  0  0  0  0  0
   -0.0147    1.0772    0.0041 C   0  0  0  0  0  0  0  0  0  0  0  0
    0.9185    1.7780    0.7454 C   0  0  0  0  0  0  0  0  0  0  0  0
    0.9037    3.1592    0.7494 C   0  0  0  0  0  0  0  0  0  0  0  0
   -0.0503    3.8439    0.0083 C   0  0  0  0  0  0  0  0  0  0  0  0
   -0.9867    3.1369   -0.7350 C   0  0  0  0  0  0  0  0  0  0  0  0
   -0.0683    5.2430    0.0105 N   0  0  0  0  0  0  0  0  0  0  0  0
    1.0859    5.9316    0.1103 C   0  0  0  0  0  0  0  0  0  0  0  0
    2.1461    5.3427    0.1017 O   0  0  0  0  0  0  0  0  0  0  0  0
    1.0590    7.4335    0.2325 C   0  0  0  0  0  0  0  0  0  0  0  0
    2.7533    8.0598    0.3475 S   0  0  0  0  0  0  0  0  0  0  0  0
    2.4327    9.7875    0.4772 C   0  0  0  0  0  0  0  0  0  0  0  0
    1.1447   10.2301    0.4652 N   0  0  0  0  0  0  0  0  0  0  0  0
   -0.2706   12.9536    0.6365 H   0  0  0  0  0  0  0  0  0  0  0  0
    0.8823   11.5501    0.5642 C   0  0  0  0  0  0  0  0  0  0  0  0
   -0.2687   11.9569    0.5545 O   0  0  0  0  0  0  0  0  0  0  0  0
    1.9533   12.4458    0.6669 C   0  0  0  0  0  0  0  0  0  0  0  0
    3.2437   11.9434    0.6744 C   0  0  0  0  0  0  0  0  0  0  0  0
    3.4439   10.6257    0.5840 N   0  3  0  0  0  0  0  0  0  0  0  0
    4.8127   10.1038    0.5927 C   0  0  0  0  0  0  0  0  0  0  0  0
    5.3412   10.0344   -0.8415 C   0  0  0  0  0  0  0  0  0  0  0  0
    6.8106    9.6084   -0.8236 C   0  0  0  0  0  0  0  0  0  0  0  0
    4.5242    9.0144   -1.6372 C   0  0  0  0  0  0  0  0  0  0  0  0
    4.2991   12.7850    0.7730 O   0  0  0  0  0  0  0  0  0  0  0  0
   -2.8567    0.7934   -0.9412 H   0  0  0  0  0  0  0  0  0  0  0  0
   -2.2589    1.5741   -2.4250 H   0  0  0  0  0  0  0  0  0  0  0  0
   -1.5391    0.0425   -1.8731 H   0  0  0  0  0  0  0  0  0  0  0  0
   -0.0005   -0.0028    0.0021 H   0  0  0  0  0  0  0  0  0  0  0  0
    1.6602    1.2448    1.3217 H   0  0  0  0  0  0  0  0  0  0  0  0
    1.6334    3.7060    1.3281 H   0  0  0  0  0  0  0  0  0  0  0  0
   -1.7302    3.6665   -1.3122 H   0  0  0  0  0  0  0  0  0  0  0  0
   -0.9116    5.7172   -0.0597 H   0  0  0  0  0  0  0  0  0  0  0  0
    0.5724    7.8607   -0.6443 H   0  0  0  0  0  0  0  0  0  0  0  0
    0.5060    7.7153    1.1285 H   0  0  0  0  0  0  0  0  0  0  0  0
    1.7763   13.5085    0.7432 H   0  0  0  0  0  0  0  0  0  0  0  0
    5.4492   10.7632    1.1829 H   0  0  0  0  0  0  0  0  0  0  0  0
    4.8183    9.1058    1.0307 H   0  0  0  0  0  0  0  0  0  0  0  0
    5.2528   11.0150   -1.3092 H   0  0  0  0  0  0  0  0  0  0  0  0
    6.8989    8.6279   -0.3558 H   0  0  0  0  0  0  0  0  0  0  0  0
    7.1870    9.5589   -1.8452 H   0  0  0  0  0  0  0  0  0  0  0  0
    7.3926   10.3351   -0.2567 H   0  0  0  0  0  0  0  0  0  0  0  0
    4.9006    8.9648   -2.6589 H   0  0  0  0  0  0  0  0  0  0  0  0
    4.6126    8.0338   -1.1694 H   0  0  0  0  0  0  0  0  0  0  0  0
    3.4774    9.3178   -1.6499 H   0  0  0  0  0  0  0  0  0  0  0  0
    4.0535   13.7180    0.8372 H   0  0  0  0  0  0  0  0  0  0  0  0
  1  2  1  0  0  0  0
  1 26  1  0  0  0  0
  1 27  1  0  0  0  0
  1 28  1  0  0  0  0
  2  7  2  0  0  0  0
  2  3  1  0  0  0  0
  3  4  2  0  0  0  0
  3 29  1  0  0  0  0
  4  5  1  0  0  0  0
  4 30  1  0  0  0  0
  5  6  2  0  0  0  0
  5 31  1  0  0  0  0
  6  7  1  0  0  0  0
  6  8  1  0  0  0  0
  7 32  1  0  0  0  0
  8  9  1  0  0  0  0
  8 33  1  0  0  0  0
  9 10  2  0  0  0  0
  9 11  1  0  0  0  0
 11 12  1  0  0  0  0
 11 34  1  0  0  0  0
 11 35  1  0  0  0  0
 12 13  1  0  0  0  0
 13 20  2  0  0  0  0
 13 14  1  0  0  0  0
 14 16  2  0  0  0  0
 15 17  1  0  0  0  0
 16 17  1  0  0  0  0
 16 18  1  0  0  0  0
 18 36  1  0  0  0  0
 18 19  2  0  0  0  0
 19 25  1  0  0  0  0
 19 20  1  0  0  0  0
 20 21  1  0  0  0  0
 21 22  1  0  0  0  0
 21 37  1  0  0  0  0
 21 38  1  0  0  0  0
 22 23  1  0  0  0  0
 22 24  1  0  0  0  0
 22 39  1  0  0  0  0
 23 40  1  0  0  0  0
 23 41  1  0  0  0  0
 23 42  1  0  0  0  0
 24 43  1  0  0  0  0
 24 44  1  0  0  0  0
 24 45  1  0  0  0  0
 25 46  1  0  0  0  0
M  CHG  1  20   1
M  END
$$$$
ZINC03979408
  -OEChem-08230709453D

 41 42  0     0  0  0  0  0  0999 V2000
    3.2732    3.9150   -1.0362 C   0  0  0  0  0  0  0  0  0  0  0  0
    2.4344    4.2094    0.2091 C   0  0  0  0  0  0  0  0  0  0  0  0
    2.1900    5.7161    0.3148 C   0  0  0  0  0  0  0  0  0  0  0  0
    3.1815    3.7253    1.4534 C   0  0  0  0  0  0  0  0  0  0  0  0
    1.1498    3.5122    0.1086 N   0  0  0  0  0  0  0  0  0  0  0  0
    1.1173    2.1157    0.0010 N   0  0  0  0  0  0  0  0  0  0  0  0
   -0.0287    1.4856    0.0113 C   0  0  0  0  0  0  0  0  0  0  0  0
   -0.0596    0.0075    0.0081 C   0  0  0  0  0  0  0  0  0  0  0  0
   -1.2768   -0.6657    0.1301 C   0  0  0  0  0  0  0  0  0  0  0  0
   -1.3071   -2.0421    0.1264 C   0  0  0  0  0  0  0  0  0  0  0  0
   -0.1183   -2.7694    0.0002 C   0  0  0  0  0  0  0  0  0  0  0  0
    1.1019   -2.0987   -0.1212 C   0  0  0  0  0  0  0  0  0  0  0  0
    1.1321   -0.7181   -0.1233 C   0  0  0  0  0  0  0  0  0  0  0  0
    2.3165   -0.0638   -0.2478 O   0  0  0  0  0  0  0  0  0  0  0  0
   -0.1518   -4.2010   -0.0040 C   0  0  0  0  0  0  0  0  0  0  0  0
   -0.1784   -5.3367   -0.0073 N   0  0  0  0  0  0  0  0  0  0  0  0
   -2.9573   -2.9508    0.2912 Br  0  0  0  0  0  0  0  0  0  0  0  0
   -1.2940    2.2518    0.0199 C   0  0  0  0  0  0  0  0  0  0  0  0
   -1.8299    2.6958    1.2348 C   0  0  0  0  0  0  0  0  0  0  0  0
   -3.0158    3.4176    1.2223 C   0  0  0  0  0  0  0  0  0  0  0  0
   -3.6292    3.6613    0.0019 C   0  0  0  0  0  0  0  0  0  0  0  0
   -3.0458    3.1879   -1.1588 C   0  0  0  0  0  0  0  0  0  0  0  0
   -1.9169    2.5092   -1.1238 N   0  0  0  0  0  0  0  0  0  0  0  0
   -1.1967    2.4291    2.4069 O   0  0  0  0  0  0  0  0  0  0  0  0
    2.7410    4.2599   -1.9227 H   0  0  0  0  0  0  0  0  0  0  0  0
    4.2289    4.4337   -0.9614 H   0  0  0  0  0  0  0  0  0  0  0  0
    3.4473    2.8416   -1.1115 H   0  0  0  0  0  0  0  0  0  0  0  0
    1.5924    5.9258    1.2020 H   0  0  0  0  0  0  0  0  0  0  0  0
    3.1457    6.2348    0.3896 H   0  0  0  0  0  0  0  0  0  0  0  0
    1.6578    6.0609   -0.5717 H   0  0  0  0  0  0  0  0  0  0  0  0
    3.3556    2.6520    1.3781 H   0  0  0  0  0  0  0  0  0  0  0  0
    4.1372    4.2441    1.5282 H   0  0  0  0  0  0  0  0  0  0  0  0
    2.5839    3.9351    2.3405 H   0  0  0  0  0  0  0  0  0  0  0  0
    0.3218    4.0175    0.1166 H   0  0  0  0  0  0  0  0  0  0  0  0
   -2.1954   -0.1061    0.2272 H   0  0  0  0  0  0  0  0  0  0  0  0
    2.0197   -2.6596   -0.2182 H   0  0  0  0  0  0  0  0  0  0  0  0
    2.7538    0.1217    0.5945 H   0  0  0  0  0  0  0  0  0  0  0  0
   -3.4531    3.7776    2.1419 H   0  0  0  0  0  0  0  0  0  0  0  0
   -4.5549    4.2159   -0.0411 H   0  0  0  0  0  0  0  0  0  0  0  0
   -3.5231    3.3770   -2.1090 H   0  0  0  0  0  0  0  0  0  0  0  0
   -0.6153    3.1396    2.7104 H   0  0  0  0  0  0  0  0  0  0  0  0
  1  2  1  0  0  0  0
  1 25  1  0  0  0  0
  1 26  1  0  0  0  0
  1 27  1  0  0  0  0
  2  3  1  0  0  0  0
  2  4  1  0  0  0  0
  2  5  1  0  0  0  0
  3 28  1  0  0  0  0
  3 29  1  0  0  0  0
  3 30  1  0  0  0  0
  4 31  1  0  0  0  0
  4 32  1  0  0  0  0
  4 33  1  0  0  0  0
  5  6  1  0  0  0  0
  5 34  1  0  0  0  0
  6  7  2  0  0  0  0
  7  8  1  0  0  0  0
  7 18  1  0  0  0  0
  8 13  2  0  0  0  0
  8  9  1  0  0  0  0
  9 10  2  0  0  0  0
  9 35  1  0  0  0  0
 10 11  1  0  0  0  0
 10 17  1  0  0  0  0
 11 12  2  0  0  0  0
 11 15  1  0  0  0  0
 12 13  1  0  0  0  0
 12 36  1  0  0  0  0
 13 14  1  0  0  0  0
 14 37  1  0  0  0  0
 15 16  3  0  0  0  0
 18 23  2  0  0  0  0
 18 19  1  0  0  0  0
 19 20  2  0  0  0  0
 19 24  1  0  0  0  0
 20 21  1  0  0  0  0
 20 38  1  0  0  0  0
 21 22  2  0  0  0  0
 21 39  1  0  0  0  0
 22 23  1  0  0  0  0
 22 40  1  0  0  0  0
 24 41  1  0  0  0  0
M  END
$$$$
ZINC03982894
  -OEChem-08230709453D

 42 44  0     0  0  0  0  0  0999 V2000
    0.2914    0.3631    2.0008 C   0  0  0  0  0  0  0  0  0  0  0  0
    0.7405    1.5846    2.4731 C   0  0  0  0  0  0  0  0  0  0  0  0
    1.8407    2.1868    1.9017 C   0  0  0  0  0  0  0  0  0  0  0  0
    2.5045    1.5595    0.8396 C   0  0  0  0  0  0  0  0  0  0  0  0
    2.0435    0.3235    0.3685 C   0  0  0  0  0  0  0  0  0  0  0  0
    0.9421   -0.2645    0.9521 C   0  0  0  0  0  0  0  0  0  0  0  0
    3.6765    2.1929    0.2250 C   0  0  0  0  0  0  0  0  0  0  0  0
    3.6378    3.5245   -0.1186 C   0  0  0  0  0  0  0  0  0  0  0  0
    4.8424    4.2031   -0.4914 C   0  0  0  0  0  0  0  0  0  0  0  0
    5.7981    4.7414   -0.7870 N   0  0  0  0  0  0  0  0  0  0  0  0
    2.3581    4.2516   -0.1032 C   0  0  0  0  0  0  0  0  0  0  0  0
    1.3185    3.6491    0.0863 O   0  0  0  0  0  0  0  0  0  0  0  0
    2.3382    5.5849   -0.2990 N   0  0  0  0  0  0  0  0  0  0  0  0
    1.1339    6.2692   -0.2844 C   0  0  0  0  0  0  0  0  0  0  0  0
    0.9120    7.6283   -0.4588 C   0  0  0  0  0  0  0  0  0  0  0  0
   -0.4623    8.0968   -0.4021 C   0  0  0  0  0  0  0  0  0  0  0  0
   -1.3871    7.1400   -0.1703 C   0  0  0  0  0  0  0  0  0  0  0  0
   -0.4603    5.6376   -0.0365 S   0  0  0  0  0  0  0  0  0  0  0  0
   -2.8687    7.3253   -0.0538 C   0  0  0  0  0  0  0  0  0  0  0  0
   -3.1556    8.8219    0.1359 C   0  0  0  0  0  0  0  0  0  0  0  0
   -2.3618    9.6125   -0.9082 C   0  0  0  0  0  0  0  0  0  0  0  0
   -0.8689    9.5545   -0.5801 C   0  0  0  0  0  0  0  0  0  0  0  0
    2.0223    8.5559   -0.6954 C   0  0  0  0  0  0  0  0  0  0  0  0
    2.3862    8.7921   -1.8326 O   0  0  0  0  0  0  0  0  0  0  0  0
    2.6402    9.1470    0.3464 N   0  0  0  0  0  0  0  0  0  0  0  0
   -0.5713   -0.1032    2.4532 H   0  0  0  0  0  0  0  0  0  0  0  0
    0.2245    2.0691    3.2888 H   0  0  0  0  0  0  0  0  0  0  0  0
    2.1896    3.1396    2.2713 H   0  0  0  0  0  0  0  0  0  0  0  0
    2.5499   -0.1674   -0.4494 H   0  0  0  0  0  0  0  0  0  0  0  0
    0.5853   -1.2174    0.5901 H   0  0  0  0  0  0  0  0  0  0  0  0
    4.5696    1.6138    0.0422 H   0  0  0  0  0  0  0  0  0  0  0  0
    3.1673    6.0653   -0.4501 H   0  0  0  0  0  0  0  0  0  0  0  0
   -3.3557    6.9702   -0.9620 H   0  0  0  0  0  0  0  0  0  0  0  0
   -3.2420    6.7676    0.8051 H   0  0  0  0  0  0  0  0  0  0  0  0
   -4.2212    9.0093    0.0035 H   0  0  0  0  0  0  0  0  0  0  0  0
   -2.8524    9.1280    1.1371 H   0  0  0  0  0  0  0  0  0  0  0  0
   -2.5327    9.1823   -1.8950 H   0  0  0  0  0  0  0  0  0  0  0  0
   -2.6922   10.6513   -0.9039 H   0  0  0  0  0  0  0  0  0  0  0  0
   -0.2978    9.9961   -1.3967 H   0  0  0  0  0  0  0  0  0  0  0  0
   -0.6754   10.1050    0.3406 H   0  0  0  0  0  0  0  0  0  0  0  0
    2.3502    8.9587    1.2527 H   0  0  0  0  0  0  0  0  0  0  0  0
    3.3749    9.7607    0.1898 H   0  0  0  0  0  0  0  0  0  0  0  0
  1  6  2  0  0  0  0
  1  2  1  0  0  0  0
  1 26  1  0  0  0  0
  2  3  2  0  0  0  0
  2 27  1  0  0  0  0
  3  4  1  0  0  0  0
  3 28  1  0  0  0  0
  4  5  2  0  0  0  0
  4  7  1  0  0  0  0
  5  6  1  0  0  0  0
  5 29  1  0  0  0  0
  6 30  1  0  0  0  0
  7  8  2  0  0  0  0
  7 31  1  0  0  0  0
  8  9  1  0  0  0  0
  8 11  1  0  0  0  0
  9 10  3  0  0  0  0
 11 12  2  0  0  0  0
 11 13  1  0  0  0  0
 13 14  1  0  0  0  0
 13 32  1  0  0  0  0
 14 18  1  0  0  0  0
 14 15  2  0  0  0  0
 15 16  1  0  0  0  0
 15 23  1  0  0  0  0
 16 22  1  0  0  0  0
 16 17  2  0  0  0  0
 17 18  1  0  0  0  0
 17 19  1  0  0  0  0
 19 20  1  0  0  0  0
 19 33  1  0  0  0  0
 19 34  1  0  0  0  0
 20 21  1  0  0  0  0
 20 35  1  0  0  0  0
 20 36  1  0  0  0  0
 21 22  1  0  0  0  0
 21 37  1  0  0  0  0
 21 38  1  0  0  0  0
 22 39  1  0  0  0  0
 22 40  1  0  0  0  0
 23 24  2  0  0  0  0
 23 25  1  0  0  0  0
 25 41  1  0  0  0  0
 25 42  1  0  0  0  0
M  END
$$$$
ZINC03984304
  -OEChem-08230709453D

 45 47  0     0  0  0  0  0  0999 V2000
   -0.0443   -3.5668   -2.2017 C   0  0  0  0  0  0  0  0  0  0  0  0
   -0.5572   -3.6086   -0.7853 C   0  0  0  0  0  0  0  0  0  0  0  0
    0.0573   -3.0350    0.2891 C   0  0  0  0  0  0  0  0  0  0  0  0
   -0.7936   -3.3199    1.4591 C   0  0  0  0  0  0  0  0  0  0  0  0
   -0.7111   -3.0060    2.8136 C   0  0  0  0  0  0  0  0  0  0  0  0
   -1.7020   -3.4354    3.6760 C   0  0  0  0  0  0  0  0  0  0  0  0
   -2.7761   -4.1777    3.1937 C   0  0  0  0  0  0  0  0  0  0  0  0
   -2.8657   -4.4927    1.8560 C   0  0  0  0  0  0  0  0  0  0  0  0
   -1.8774   -4.0682    0.9736 C   0  0  0  0  0  0  0  0  0  0  0  0
   -1.6962   -4.2243   -0.3869 N   0  0  0  0  0  0  0  0  0  0  0  0
   -2.6099   -4.9479   -1.2744 C   0  0  0  0  0  0  0  0  0  0  0  0
   -1.6272   -3.1322    4.9994 O   0  0  0  0  0  0  0  0  0  0  0  0
   -2.6850   -3.6072    5.8345 C   0  0  0  0  0  0  0  0  0  0  0  0
    1.3154   -2.2773    0.2809 C   0  0  0  0  0  0  0  0  0  0  0  0
    2.3739   -2.8534    0.4514 O   0  0  0  0  0  0  0  0  0  0  0  0
    1.2979   -0.9440    0.0847 N   0  0  0  0  0  0  0  0  0  0  0  0
    2.4980   -0.2213    0.0769 N   0  0  0  0  0  0  0  0  0  0  0  0
    2.4746    1.0750    0.0153 C   0  0  0  0  0  0  0  0  0  0  0  0
    1.2996    1.8153    0.5100 C   0  0  0  0  0  0  0  0  0  0  0  0
    1.1264    3.1602    0.1732 C   0  0  0  0  0  0  0  0  0  0  0  0
    0.0291    3.8522    0.6409 C   0  0  0  0  0  0  0  0  0  0  0  0
   -0.9103    3.2132    1.4370 C   0  0  0  0  0  0  0  0  0  0  0  0
   -0.7440    1.8725    1.7772 C   0  0  0  0  0  0  0  0  0  0  0  0
    0.3561    1.1737    1.3165 C   0  0  0  0  0  0  0  0  0  0  0  0
   -1.6642    1.2511    2.5624 O   0  0  0  0  0  0  0  0  0  0  0  0
   -1.9929    3.8986    1.8911 O   0  0  0  0  0  0  0  0  0  0  0  0
    0.6030   -4.4257   -2.3792 H   0  0  0  0  0  0  0  0  0  0  0  0
   -0.8857   -3.5968   -2.8939 H   0  0  0  0  0  0  0  0  0  0  0  0
    0.5210   -2.6478   -2.3565 H   0  0  0  0  0  0  0  0  0  0  0  0
    0.1223   -2.4300    3.1877 H   0  0  0  0  0  0  0  0  0  0  0  0
   -3.5458   -4.5100    3.8745 H   0  0  0  0  0  0  0  0  0  0  0  0
   -3.7034   -5.0689    1.4919 H   0  0  0  0  0  0  0  0  0  0  0  0
   -3.3596   -4.2591   -1.6638 H   0  0  0  0  0  0  0  0  0  0  0  0
   -2.0470   -5.3784   -2.1026 H   0  0  0  0  0  0  0  0  0  0  0  0
   -3.1029   -5.7445   -0.7172 H   0  0  0  0  0  0  0  0  0  0  0  0
   -3.6328   -3.1919    5.4920 H   0  0  0  0  0  0  0  0  0  0  0  0
   -2.7262   -4.6953    5.7852 H   0  0  0  0  0  0  0  0  0  0  0  0
   -2.5029   -3.2968    6.8634 H   0  0  0  0  0  0  0  0  0  0  0  0
    0.4543   -0.4849   -0.0512 H   0  0  0  0  0  0  0  0  0  0  0  0
    3.3158    1.6113   -0.3984 H   0  0  0  0  0  0  0  0  0  0  0  0
    1.8541    3.6590   -0.4498 H   0  0  0  0  0  0  0  0  0  0  0  0
   -0.1015    4.8928    0.3832 H   0  0  0  0  0  0  0  0  0  0  0  0
    0.4859    0.1342    1.5790 H   0  0  0  0  0  0  0  0  0  0  0  0
   -1.4773    1.3100    3.5093 H   0  0  0  0  0  0  0  0  0  0  0  0
   -1.8529    4.3358    2.7422 H   0  0  0  0  0  0  0  0  0  0  0  0
  1  2  1  0  0  0  0
  1 27  1  0  0  0  0
  1 28  1  0  0  0  0
  1 29  1  0  0  0  0
  2 10  1  0  0  0  0
  2  3  2  0  0  0  0
  3  4  1  0  0  0  0
  3 14  1  0  0  0  0
  4  9  2  0  0  0  0
  4  5  1  0  0  0  0
  5  6  2  0  0  0  0
  5 30  1  0  0  0  0
  6  7  1  0  0  0  0
  6 12  1  0  0  0  0
  7  8  2  0  0  0  0
  7 31  1  0  0  0  0
  8  9  1  0  0  0  0
  8 32  1  0  0  0  0
  9 10  1  0  0  0  0
 10 11  1  0  0  0  0
 11 33  1  0  0  0  0
 11 34  1  0  0  0  0
 11 35  1  0  0  0  0
 12 13  1  0  0  0  0
 13 36  1  0  0  0  0
 13 37  1  0  0  0  0
 13 38  1  0  0  0  0
 14 15  2  0  0  0  0
 14 16  1  0  0  0  0
 16 17  1  0  0  0  0
 16 39  1  0  0  0  0
 17 18  2  3  0  0  0
 18 19  1  0  0  0  0
 18 40  1  0  0  0  0
 19 24  2  0  0  0  0
 19 20  1  0  0  0  0
 20 21  2  0  0  0  0
 20 41  1  0  0  0  0
 21 22  1  0  0  0  0
 21 42  1  0  0  0  0
 22 23  2  0  0  0  0
 22 26  1  0  0  0  0
 23 24  1  0  0  0  0
 23 25  1  0  0  0  0
 24 43  1  0  0  0  0
 25 44  1  0  0  0  0
 26 45  1  0  0  0  0
M  END
$$$$
ZINC03985211
  -OEChem-08230709453D

 47 50  0     1  0  0  0  0  0999 V2000
    1.8460    5.9599   -3.0989 C   0  0  0  0  0  0  0  0  0  0  0  0
    1.9231    5.4026   -1.7853 O   0  0  0  0  0  0  0  0  0  0  0  0
    3.2167    5.5027   -1.1865 C   0  0  0  0  0  0  0  0  0  0  0  0
    3.1822    4.8776    0.2095 C   0  0  0  0  0  0  0  0  0  0  0  0
    2.9182    3.4412    0.0950 N   0  0  0  0  0  0  0  0  0  0  0  0
    1.6475    2.9919    0.1022 C   0  0  0  0  0  0  0  0  0  0  0  0
    0.7199    3.7761    0.2027 O   0  0  0  0  0  0  0  0  0  0  0  0
    1.3996    1.6115   -0.0027 C   0  0  0  0  0  0  0  0  0  0  0  0
    2.4548    0.7559   -0.1198 C   0  0  0  0  0  0  0  0  0  0  0  0
    3.7318    1.2563   -0.1277 N   0  0  0  0  0  0  0  0  0  0  0  0
    4.5090    0.6328   -0.2133 H   0  0  0  0  0  0  0  0  0  0  0  0
    3.9460    2.5805   -0.0210 C   0  0  0  0  0  0  0  0  0  0  0  0
    5.5499    3.1790   -0.0335 S   0  0  0  0  0  0  0  0  0  0  0  0
    2.2443   -0.5731   -0.2275 O   0  0  0  0  0  0  0  0  0  0  0  0
   -0.0127    1.0858    0.0080 C   0  0  2  0  0  0  0  0  0  0  0  0
    0.0021   -0.0041    0.0020 H   0  0  0  0  0  0  0  0  0  0  0  0
   -0.7512    1.5901   -1.2092 C   0  0  0  0  0  0  0  0  0  0  0  0
   -2.0231    2.0591   -1.1531 C   0  0  0  0  0  0  0  0  0  0  0  0
   -2.3914    2.4490   -2.4958 C   0  0  0  0  0  0  0  0  0  0  0  0
   -3.5578    2.9935   -3.0423 C   0  0  0  0  0  0  0  0  0  0  0  0
   -3.5536    3.2437   -4.3921 C   0  0  0  0  0  0  0  0  0  0  0  0
   -2.4522    2.9733   -5.1877 C   0  0  0  0  0  0  0  0  0  0  0  0
   -1.2852    2.4348   -4.6742 C   0  0  0  0  0  0  0  0  0  0  0  0
   -1.2601    2.1704   -3.3065 C   0  0  0  0  0  0  0  0  0  0  0  0
   -0.2933    1.6520   -2.4929 N   0  0  0  0  0  0  0  0  0  0  0  0
    0.5883    1.3701   -2.7832 H   0  0  0  0  0  0  0  0  0  0  0  0
   -2.8315    2.1273    0.1181 C   0  0  0  0  0  0  0  0  0  0  0  0
   -2.1429    1.2428    1.1665 C   0  0  0  0  0  0  0  0  0  0  0  0
    2.5452    5.4416   -3.7551 H   0  0  0  0  0  0  0  0  0  0  0  0
    0.8328    5.8444   -3.4837 H   0  0  0  0  0  0  0  0  0  0  0  0
    2.1013    7.0189   -3.0599 H   0  0  0  0  0  0  0  0  0  0  0  0
    3.5004    6.5522   -1.1078 H   0  0  0  0  0  0  0  0  0  0  0  0
    3.9443    4.9749   -1.8030 H   0  0  0  0  0  0  0  0  0  0  0  0
    2.3934    5.3462    0.7980 H   0  0  0  0  0  0  0  0  0  0  0  0
    4.1428    5.0325    0.7008 H   0  0  0  0  0  0  0  0  0  0  0  0
    3.0548   -1.0947   -0.3056 H   0  0  0  0  0  0  0  0  0  0  0  0
   -4.4220    3.2071   -2.4307 H   0  0  0  0  0  0  0  0  0  0  0  0
   -4.4374    3.6644   -4.8485 H   0  0  0  0  0  0  0  0  0  0  0  0
   -2.5059    3.1904   -6.2443 H   0  0  0  0  0  0  0  0  0  0  0  0
   -0.4330    2.2289   -5.3049 H   0  0  0  0  0  0  0  0  0  0  0  0
   -3.8411    1.7608   -0.0673 H   0  0  0  0  0  0  0  0  0  0  0  0
   -2.8722    3.1568    0.4740 H   0  0  0  0  0  0  0  0  0  0  0  0
   -2.2715    0.1942    0.8983 H   0  0  0  0  0  0  0  0  0  0  0  0
   -2.5880    1.4251    2.1446 H   0  0  0  0  0  0  0  0  0  0  0  0
   -0.7035    1.5709    1.2231 N   0  3  0  0  0  0  0  0  0  0  0  0
   -0.5916    2.5893    1.2914 H   0  0  0  0  0  0  0  0  0  0  0  0
   -0.2876    1.1247    2.0490 H   0  0  0  0  0  0  0  0  0  0  0  0
  1  2  1  0  0  0  0
  1 29  1  0  0  0  0
  1 30  1  0  0  0  0
  1 31  1  0  0  0  0
  2  3  1  0  0  0  0
  3  4  1  0  0  0  0
  3 32  1  0  0  0  0
  3 33  1  0  0  0  0
  4  5  1  0  0  0  0
  4 34  1  0  0  0  0
  4 35  1  0  0  0  0
  5 12  1  0  0  0  0
  5  6  1  0  0  0  0
  6  7  2  0  0  0  0
  6  8  1  0  0  0  0
  8  9  2  0  0  0  0
  8 15  1  0  0  0  0
  9 10  1  0  0  0  0
  9 14  1  0  0  0  0
 10 11  1  0  0  0  0
 10 12  1  0  0  0  0
 12 13  2  0  0  0  0
 14 36  1  0  0  0  0
 15 16  1  0  0  0  0
 15 17  1  0  0  0  0
 15 45  1  0  0  0  0
 17 25  1  0  0  0  0
 17 18  2  0  0  0  0
 18 19  1  0  0  0  0
 18 27  1  0  0  0  0
 19 24  2  0  0  0  0
 19 20  1  0  0  0  0
 20 21  2  0  0  0  0
 20 37  1  0  0  0  0
 21 22  1  0  0  0  0
 21 38  1  0  0  0  0
 22 23  2  0  0  0  0
 22 39  1  0  0  0  0
 23 24  1  0  0  0  0
 23 40  1  0  0  0  0
 24 25  1  0  0  0  0
 25 26  1  0  0  0  0
 27 28  1  0  0  0  0
 27 41  1  0  0  0  0
 27 42  1  0  0  0  0
 28 43  1  0  0  0  0
 28 44  1  0  0  0  0
 28 45  1  0  0  0  0
 45 46  1  0  0  0  0
 45 47  1  0  0  0  0
M  CHG  1  45   1
M  END
$$$$
ZINC03987647
  -OEChem-08230709453D

 50 52  0     0  0  0  0  0  0999 V2000
    0.1811   -6.8446   -1.3048 C   0  0  0  0  0  0  0  0  0  0  0  0
    1.4256   -6.1463   -1.2303 O   0  0  0  0  0  0  0  0  0  0  0  0
    1.3699   -4.8107   -0.9879 C   0  0  0  0  0  0  0  0  0  0  0  0
    2.5427   -4.0723   -0.9032 C   0  0  0  0  0  0  0  0  0  0  0  0
    2.4895   -2.7167   -0.6573 C   0  0  0  0  0  0  0  0  0  0  0  0
    1.2562   -2.0874   -0.4931 C   0  0  0  0  0  0  0  0  0  0  0  0
    0.0805   -2.8325   -0.5730 C   0  0  0  0  0  0  0  0  0  0  0  0
    0.1401   -4.1868   -0.8248 C   0  0  0  0  0  0  0  0  0  0  0  0
    1.1954   -0.6297   -0.2280 C   0  0  0  0  0  0  0  0  0  0  0  0
    2.3682    0.1331   -0.2469 C   0  0  0  0  0  0  0  0  0  0  0  0
    2.3198    1.4296   -0.0123 N   0  0  0  0  0  0  0  0  0  0  0  0
    1.1557    2.0176    0.2433 C   0  0  0  0  0  0  0  0  0  0  0  0
   -0.0236    1.2556    0.2631 C   0  0  0  0  0  0  0  0  0  0  0  0
    0.0301   -0.0515    0.0260 N   0  0  0  0  0  0  0  0  0  0  0  0
   -1.3210    1.9055    0.5407 C   0  0  0  0  0  0  0  0  0  0  0  0
   -1.3838    3.1145    0.6521 O   0  0  0  0  0  0  0  0  0  0  0  0
   -2.4350    1.1581    0.6703 N   0  0  0  0  0  0  0  0  0  0  0  0
   -3.7216    1.8026    0.9455 C   0  0  0  0  0  0  0  0  0  0  0  0
   -4.8149    0.7369    1.0451 C   0  0  0  0  0  0  0  0  0  0  0  0
   -4.8175   -0.1115   -0.2281 C   0  0  0  0  0  0  0  0  0  0  0  0
   -5.9108   -1.1772   -0.1286 C   0  0  0  0  0  0  0  0  0  0  0  0
   -7.2720   -0.4978    0.0344 C   0  0  0  0  0  0  0  0  0  0  0  0
   -7.2693    0.3506    1.3077 C   0  0  0  0  0  0  0  0  0  0  0  0
   -6.1760    1.4163    1.2081 C   0  0  0  0  0  0  0  0  0  0  0  0
   -4.5622   -0.1007    2.1750 O   0  0  0  0  0  0  0  0  0  0  0  0
    1.1058    3.3773    0.4887 N   0  0  0  0  0  0  0  0  0  0  0  0
   -0.4229   -6.4258   -2.1097 H   0  0  0  0  0  0  0  0  0  0  0  0
    0.3680   -7.9001   -1.5022 H   0  0  0  0  0  0  0  0  0  0  0  0
   -0.3511   -6.7405   -0.3593 H   0  0  0  0  0  0  0  0  0  0  0  0
    3.4977   -4.5604   -1.0305 H   0  0  0  0  0  0  0  0  0  0  0  0
    3.4021   -2.1429   -0.5916 H   0  0  0  0  0  0  0  0  0  0  0  0
   -0.8761   -2.3487   -0.4418 H   0  0  0  0  0  0  0  0  0  0  0  0
   -0.7704   -4.7638   -0.8912 H   0  0  0  0  0  0  0  0  0  0  0  0
    3.3158   -0.3415   -0.4546 H   0  0  0  0  0  0  0  0  0  0  0  0
   -2.3850    0.1935    0.5814 H   0  0  0  0  0  0  0  0  0  0  0  0
   -3.6602    2.3491    1.8866 H   0  0  0  0  0  0  0  0  0  0  0  0
   -3.9613    2.4947    0.1383 H   0  0  0  0  0  0  0  0  0  0  0  0
   -5.0103    0.5273   -1.0900 H   0  0  0  0  0  0  0  0  0  0  0  0
   -3.8478   -0.5956   -0.3442 H   0  0  0  0  0  0  0  0  0  0  0  0
   -5.7181   -1.8161    0.7333 H   0  0  0  0  0  0  0  0  0  0  0  0
   -5.9127   -1.7817   -1.0356 H   0  0  0  0  0  0  0  0  0  0  0  0
   -8.0508   -1.2570    0.1054 H   0  0  0  0  0  0  0  0  0  0  0  0
   -7.4647    0.1410   -0.8275 H   0  0  0  0  0  0  0  0  0  0  0  0
   -7.0766   -0.2883    2.1695 H   0  0  0  0  0  0  0  0  0  0  0  0
   -8.2390    0.8346    1.4238 H   0  0  0  0  0  0  0  0  0  0  0  0
   -6.1741    2.0207    2.1152 H   0  0  0  0  0  0  0  0  0  0  0  0
   -6.3687    2.0551    0.3462 H   0  0  0  0  0  0  0  0  0  0  0  0
   -3.7143   -0.5642    2.1393 H   0  0  0  0  0  0  0  0  0  0  0  0
    0.3649    3.7529    0.9898 H   0  0  0  0  0  0  0  0  0  0  0  0
    1.8116    3.9557    0.1599 H   0  0  0  0  0  0  0  0  0  0  0  0
  1  2  1  0  0  0  0
  1 27  1  0  0  0  0
  1 28  1  0  0  0  0
  1 29  1  0  0  0  0
  2  3  1  0  0  0  0
  3  8  2  0  0  0  0
  3  4  1  0  0  0  0
  4  5  2  0  0  0  0
  4 30  1  0  0  0  0
  5  6  1  0  0  0  0
  5 31  1  0  0  0  0
  6  7  2  0  0  0  0
  6  9  1  0  0  0  0
  7  8  1  0  0  0  0
  7 32  1  0  0  0  0
  8 33  1  0  0  0  0
  9 14  2  0  0  0  0
  9 10  1  0  0  0  0
 10 11  2  0  0  0  0
 10 34  1  0  0  0  0
 11 12  1  0  0  0  0
 12 13  2  0  0  0  0
 12 26  1  0  0  0  0
 13 14  1  0  0  0  0
 13 15  1  0  0  0  0
 15 16  2  0  0  0  0
 15 17  1  0  0  0  0
 17 18  1  0  0  0  0
 17 35  1  0  0  0  0
 18 19  1  0  0  0  0
 18 36  1  0  0  0  0
 18 37  1  0  0  0  0
 19 24  1  0  0  0  0
 19 20  1  0  0  0  0
 19 25  1  0  0  0  0
 20 21  1  0  0  0  0
 20 38  1  0  0  0  0
 20 39  1  0  0  0  0
 21 22  1  0  0  0  0
 21 40  1  0  0  0  0
 21 41  1  0  0  0  0
 22 23  1  0  0  0  0
 22 42  1  0  0  0  0
 22 43  1  0  0  0  0
 23 24  1  0  0  0  0
 23 44  1  0  0  0  0
 23 45  1  0  0  0  0
 24 46  1  0  0  0  0
 24 47  1  0  0  0  0
 25 48  1  0  0  0  0
 26 49  1  0  0  0  0
 26 50  1  0  0  0  0
M  END
$$$$
ZINC03987650
  -OEChem-08230709453D

 45 46  0     0  0  0  0  0  0999 V2000
   -2.8779    3.2182    0.0664 C   0  0  0  0  0  0  0  0  0  0  0  0
   -1.4924    2.6259    0.0463 C   0  0  0  0  0  0  0  0  0  0  0  0
   -1.3303    1.2521    0.0411 C   0  0  0  0  0  0  0  0  0  0  0  0
   -0.0637    0.7041    0.0275 C   0  0  0  0  0  0  0  0  0  0  0  0
    1.0531    1.5377    0.0084 C   0  0  0  0  0  0  0  0  0  0  0  0
    0.8837    2.9210    0.0084 C   0  0  0  0  0  0  0  0  0  0  0  0
   -0.3875    3.4579    0.0273 C   0  0  0  0  0  0  0  0  0  0  0  0
    2.4168    0.9546   -0.0124 C   0  0  0  0  0  0  0  0  0  0  0  0
    2.5824   -0.4308   -0.1127 C   0  0  0  0  0  0  0  0  0  0  0  0
    3.7924   -0.9542   -0.1366 N   0  0  0  0  0  0  0  0  0  0  0  0
    4.8603   -0.1674   -0.0549 C   0  0  0  0  0  0  0  0  0  0  0  0
    4.6979    1.2237    0.0513 C   0  0  0  0  0  0  0  0  0  0  0  0
    3.4761    1.7468    0.0695 N   0  0  0  0  0  0  0  0  0  0  0  0
    5.8818    2.1030    0.1429 C   0  0  0  0  0  0  0  0  0  0  0  0
    6.9934    1.6187    0.2292 O   0  0  0  0  0  0  0  0  0  0  0  0
    5.7292    3.4420    0.1307 N   0  0  0  0  0  0  0  0  0  0  0  0
    6.9030    4.3139    0.2215 C   0  0  0  0  0  0  0  0  0  0  0  0
    6.4558    5.7766    0.1864 C   0  0  0  0  0  0  0  0  0  0  0  0
    5.7159    6.0524   -1.1241 C   0  0  0  0  0  0  0  0  0  0  0  0
    5.5226    6.0531    1.3669 C   0  0  0  0  0  0  0  0  0  0  0  0
    7.6817    6.6872    0.2812 C   0  0  0  0  0  0  0  0  0  0  0  0
    7.2640    8.0534    0.2485 O   0  0  0  0  0  0  0  0  0  0  0  0
    6.1284   -0.7170   -0.0748 N   0  0  0  0  0  0  0  0  0  0  0  0
   -3.2279    3.3587   -0.9563 H   0  0  0  0  0  0  0  0  0  0  0  0
   -3.5538    2.5438    0.5923 H   0  0  0  0  0  0  0  0  0  0  0  0
   -2.8543    4.1805    0.5778 H   0  0  0  0  0  0  0  0  0  0  0  0
   -2.1965    0.6071    0.0514 H   0  0  0  0  0  0  0  0  0  0  0  0
    0.0617   -0.3685    0.0272 H   0  0  0  0  0  0  0  0  0  0  0  0
    1.7456    3.5716   -0.0068 H   0  0  0  0  0  0  0  0  0  0  0  0
   -0.5199    4.5298    0.0277 H   0  0  0  0  0  0  0  0  0  0  0  0
    1.7165   -1.0733   -0.1748 H   0  0  0  0  0  0  0  0  0  0  0  0
    4.8422    3.8285    0.0617 H   0  0  0  0  0  0  0  0  0  0  0  0
    7.4302    4.1174    1.1551 H   0  0  0  0  0  0  0  0  0  0  0  0
    7.5678    4.1169   -0.6195 H   0  0  0  0  0  0  0  0  0  0  0  0
    4.8425    5.4037   -1.1917 H   0  0  0  0  0  0  0  0  0  0  0  0
    5.3972    7.0945   -1.1491 H   0  0  0  0  0  0  0  0  0  0  0  0
    6.3807    5.8555   -1.9651 H   0  0  0  0  0  0  0  0  0  0  0  0
    6.0497    5.8566    2.3005 H   0  0  0  0  0  0  0  0  0  0  0  0
    5.2040    7.0952    1.3419 H   0  0  0  0  0  0  0  0  0  0  0  0
    4.6492    5.4044    1.2993 H   0  0  0  0  0  0  0  0  0  0  0  0
    8.2088    6.4907    1.2149 H   0  0  0  0  0  0  0  0  0  0  0  0
    8.3465    6.4902   -0.5598 H   0  0  0  0  0  0  0  0  0  0  0  0
    7.9911    8.6884    0.3047 H   0  0  0  0  0  0  0  0  0  0  0  0
    6.9043   -0.1514    0.0627 H   0  0  0  0  0  0  0  0  0  0  0  0
    6.2424   -1.6683   -0.2264 H   0  0  0  0  0  0  0  0  0  0  0  0
  1  2  1  0  0  0  0
  1 24  1  0  0  0  0
  1 25  1  0  0  0  0
  1 26  1  0  0  0  0
  2  7  2  0  0  0  0
  2  3  1  0  0  0  0
  3  4  2  0  0  0  0
  3 27  1  0  0  0  0
  4  5  1  0  0  0  0
  4 28  1  0  0  0  0
  5  6  2  0  0  0  0
  5  8  1  0  0  0  0
  6  7  1  0  0  0  0
  6 29  1  0  0  0  0
  7 30  1  0  0  0  0
  8 13  2  0  0  0  0
  8  9  1  0  0  0  0
  9 10  2  0  0  0  0
  9 31  1  0  0  0  0
 10 11  1  0  0  0  0
 11 12  2  0  0  0  0
 11 23  1  0  0  0  0
 12 13  1  0  0  0  0
 12 14  1  0  0  0  0
 14 15  2  0  0  0  0
 14 16  1  0  0  0  0
 16 17  1  0  0  0  0
 16 32  1  0  0  0  0
 17 18  1  0  0  0  0
 17 33  1  0  0  0  0
 17 34  1  0  0  0  0
 18 19  1  0  0  0  0
 18 20  1  0  0  0  0
 18 21  1  0  0  0  0
 19 35  1  0  0  0  0
 19 36  1  0  0  0  0
 19 37  1  0  0  0  0
 20 38  1  0  0  0  0
 20 39  1  0  0  0  0
 20 40  1  0  0  0  0
 21 22  1  0  0  0  0
 21 41  1  0  0  0  0
 21 42  1  0  0  0  0
 22 43  1  0  0  0  0
 23 44  1  0  0  0  0
 23 45  1  0  0  0  0
M  END
$$$$
ZINC03991383
  -OEChem-08230709453D

 40 42  0     0  0  0  0  0  0999 V2000
   -4.2039    6.3875    0.1083 C   0  0  0  0  0  0  0  0  0  0  0  0
   -5.3220    5.3771    0.1120 C   0  0  0  0  0  0  0  0  0  0  0  0
   -5.0576    4.0148    0.0954 C   0  0  0  0  0  0  0  0  0  0  0  0
   -6.7193    3.3573    0.1162 S   0  0  0  0  0  0  0  0  0  0  0  0
   -7.5638    4.8743    0.1369 C   0  0  0  0  0  0  0  0  0  0  0  0
   -6.5741    5.7548    0.1272 N   0  0  0  0  0  0  0  0  0  0  0  0
   -8.9228    5.1046    0.1582 N   0  0  0  0  0  0  0  0  0  0  0  0
   -3.7756    3.3126    0.0734 C   0  0  0  0  0  0  0  0  0  0  0  0
   -2.7348    3.9452    0.0619 O   0  0  0  0  0  0  0  0  0  0  0  0
   -3.7453    1.9652    0.0659 N   0  0  0  0  0  0  0  0  0  0  0  0
   -2.5167    1.2922    0.0448 N   0  0  0  0  0  0  0  0  0  0  0  0
   -2.4876   -0.0073    0.0375 C   0  0  0  0  0  0  0  0  0  0  0  0
   -1.1987   -0.7133    0.0154 C   0  0  0  0  0  0  0  0  0  0  0  0
   -1.1475   -2.1741    0.0018 C   0  0  0  0  0  0  0  0  0  0  0  0
   -2.3155   -2.9462    0.0097 C   0  0  0  0  0  0  0  0  0  0  0  0
   -2.2241   -4.3063    0.0029 C   0  0  0  0  0  0  0  0  0  0  0  0
   -0.9837   -4.9396   -0.0118 C   0  0  0  0  0  0  0  0  0  0  0  0
    0.1716   -4.2191   -0.0198 C   0  0  0  0  0  0  0  0  0  0  0  0
    0.1153   -2.8149   -0.0132 C   0  0  0  0  0  0  0  0  0  0  0  0
    1.2870   -2.0378   -0.0207 C   0  0  0  0  0  0  0  0  0  0  0  0
    1.2212   -0.6801   -0.0133 C   0  0  0  0  0  0  0  0  0  0  0  0
    0.0021   -0.0041    0.0020 C   0  0  0  0  0  0  0  0  0  0  0  0
   -0.0163    1.3536    0.0095 O   0  0  0  0  0  0  0  0  0  0  0  0
    1.2479    2.0196    0.0010 C   0  0  0  0  0  0  0  0  0  0  0  0
   -3.9469    6.6412   -0.9202 H   0  0  0  0  0  0  0  0  0  0  0  0
   -4.5246    7.2863    0.6350 H   0  0  0  0  0  0  0  0  0  0  0  0
   -3.3314    5.9657    0.6073 H   0  0  0  0  0  0  0  0  0  0  0  0
   -9.5413    4.3574    0.1628 H   0  0  0  0  0  0  0  0  0  0  0  0
   -9.2605    6.0139    0.1685 H   0  0  0  0  0  0  0  0  0  0  0  0
   -4.5742    1.4614    0.0750 H   0  0  0  0  0  0  0  0  0  0  0  0
   -3.4104   -0.5682    0.0477 H   0  0  0  0  0  0  0  0  0  0  0  0
   -3.2833   -2.4669    0.0208 H   0  0  0  0  0  0  0  0  0  0  0  0
   -3.1257   -4.9007    0.0087 H   0  0  0  0  0  0  0  0  0  0  0  0
   -0.9376   -6.0186   -0.0166 H   0  0  0  0  0  0  0  0  0  0  0  0
    1.1263   -4.7241   -0.0309 H   0  0  0  0  0  0  0  0  0  0  0  0
    2.2506   -2.5253   -0.0322 H   0  0  0  0  0  0  0  0  0  0  0  0
    2.1382   -0.1096   -0.0190 H   0  0  0  0  0  0  0  0  0  0  0  0
    1.0905    3.0981    0.0083 H   0  0  0  0  0  0  0  0  0  0  0  0
    1.8173    1.7295    0.8840 H   0  0  0  0  0  0  0  0  0  0  0  0
    1.8003    1.7391   -0.8958 H   0  0  0  0  0  0  0  0  0  0  0  0
  1  2  1  0  0  0  0
  1 25  1  0  0  0  0
  1 26  1  0  0  0  0
  1 27  1  0  0  0  0
  2  6  1  0  0  0  0
  2  3  2  0  0  0  0
  3  4  1  0  0  0  0
  3  8  1  0  0  0  0
  4  5  1  0  0  0  0
  5  6  2  0  0  0  0
  5  7  1  0  0  0  0
  7 28  1  0  0  0  0
  7 29  1  0  0  0  0
  8  9  2  0  0  0  0
  8 10  1  0  0  0  0
 10 11  1  0  0  0  0
 10 30  1  0  0  0  0
 11 12  2  0  0  0  0
 12 13  1  0  0  0  0
 12 31  1  0  0  0  0
 13 22  2  0  0  0  0
 13 14  1  0  0  0  0
 14 19  2  0  0  0  0
 14 15  1  0  0  0  0
 15 16  2  0  0  0  0
 15 32  1  0  0  0  0
 16 17  1  0  0  0  0
 16 33  1  0  0  0  0
 17 18  2  0  0  0  0
 17 34  1  0  0  0  0
 18 19  1  0  0  0  0
 18 35  1  0  0  0  0
 19 20  1  0  0  0  0
 20 21  2  0  0  0  0
 20 36  1  0  0  0  0
 21 22  1  0  0  0  0
 21 37  1  0  0  0  0
 22 23  1  0  0  0  0
 23 24  1  0  0  0  0
 24 38  1  0  0  0  0
 24 39  1  0  0  0  0
 24 40  1  0  0  0  0
M  END
$$$$
ZINC03991386
  -OEChem-08230709453D

 45 46  0     0  0  0  0  0  0999 V2000
   -7.9846   -8.9894    2.6325 C   0  0  0  0  0  0  0  0  0  0  0  0
   -8.6885   -8.0705    1.6320 C   0  0  0  0  0  0  0  0  0  0  0  0
   -9.2842   -6.8948    2.3627 C   0  0  0  0  0  0  0  0  0  0  0  0
   -8.5576   -5.7284    2.5572 C   0  0  0  0  0  0  0  0  0  0  0  0
   -9.7517   -4.7426    3.4496 S   0  0  0  0  0  0  0  0  0  0  0  0
  -11.0354   -5.9114    3.4784 C   0  0  0  0  0  0  0  0  0  0  0  0
  -10.5048   -6.9376    2.8299 N   0  0  0  0  0  0  0  0  0  0  0  0
  -12.2928   -5.7979    4.0317 N   0  0  0  0  0  0  0  0  0  0  0  0
   -7.1942   -5.3981    2.1466 C   0  0  0  0  0  0  0  0  0  0  0  0
   -6.5270   -6.2148    1.5375 O   0  0  0  0  0  0  0  0  0  0  0  0
   -6.6754   -4.1898    2.4422 N   0  0  0  0  0  0  0  0  0  0  0  0
   -5.3686   -3.8733    2.0487 N   0  0  0  0  0  0  0  0  0  0  0  0
   -4.8270   -2.7585    2.4338 C   0  0  0  0  0  0  0  0  0  0  0  0
   -5.3451   -2.0598    3.6246 C   0  0  0  0  0  0  0  0  0  0  0  0
   -4.9617   -0.7424    3.8874 C   0  0  0  0  0  0  0  0  0  0  0  0
   -5.4540   -0.0935    5.0006 C   0  0  0  0  0  0  0  0  0  0  0  0
   -6.3172   -0.7478    5.8616 C   0  0  0  0  0  0  0  0  0  0  0  0
   -6.6970   -2.0544    5.6105 C   0  0  0  0  0  0  0  0  0  0  0  0
   -6.2168   -2.7140    4.4983 C   0  0  0  0  0  0  0  0  0  0  0  0
   -6.8458   -0.0340    7.0791 C   0  0  0  0  0  0  0  0  0  0  0  0
   -6.4231   -0.7928    8.3387 C   0  0  0  0  0  0  0  0  0  0  0  0
   -6.2779    1.3859    7.1245 C   0  0  0  0  0  0  0  0  0  0  0  0
   -8.3729    0.0293    7.0102 C   0  0  0  0  0  0  0  0  0  0  0  0
   -7.5537   -9.8398    2.1040 H   0  0  0  0  0  0  0  0  0  0  0  0
   -7.1928   -8.4370    3.1384 H   0  0  0  0  0  0  0  0  0  0  0  0
   -8.7057   -9.3461    3.3679 H   0  0  0  0  0  0  0  0  0  0  0  0
   -7.9673   -7.7138    0.8966 H   0  0  0  0  0  0  0  0  0  0  0  0
   -9.4803   -8.6230    1.1261 H   0  0  0  0  0  0  0  0  0  0  0  0
  -12.5535   -4.9777    4.4792 H   0  0  0  0  0  0  0  0  0  0  0  0
  -12.9170   -6.5381    3.9735 H   0  0  0  0  0  0  0  0  0  0  0  0
   -7.2068   -3.5394    2.9274 H   0  0  0  0  0  0  0  0  0  0  0  0
   -3.9969   -2.3426    1.8821 H   0  0  0  0  0  0  0  0  0  0  0  0
   -4.2846   -0.2320    3.2186 H   0  0  0  0  0  0  0  0  0  0  0  0
   -5.1618    0.9264    5.2028 H   0  0  0  0  0  0  0  0  0  0  0  0
   -7.3708   -2.5591    6.2870 H   0  0  0  0  0  0  0  0  0  0  0  0
   -6.5138   -3.7340    4.3037 H   0  0  0  0  0  0  0  0  0  0  0  0
   -5.3352   -0.8380    8.3878 H   0  0  0  0  0  0  0  0  0  0  0  0
   -6.8054   -0.2766    9.2193 H   0  0  0  0  0  0  0  0  0  0  0  0
   -6.8277   -1.8044    8.3064 H   0  0  0  0  0  0  0  0  0  0  0  0
   -6.5790    1.9265    6.2272 H   0  0  0  0  0  0  0  0  0  0  0  0
   -6.6602    1.9022    8.0051 H   0  0  0  0  0  0  0  0  0  0  0  0
   -5.1900    1.3408    7.1736 H   0  0  0  0  0  0  0  0  0  0  0  0
   -8.7774   -0.9823    6.9779 H   0  0  0  0  0  0  0  0  0  0  0  0
   -8.7552    0.5456    7.8908 H   0  0  0  0  0  0  0  0  0  0  0  0
   -8.6740    0.5699    6.1129 H   0  0  0  0  0  0  0  0  0  0  0  0
  1  2  1  0  0  0  0
  1 24  1  0  0  0  0
  1 25  1  0  0  0  0
  1 26  1  0  0  0  0
  2  3  1  0  0  0  0
  2 27  1  0  0  0  0
  2 28  1  0  0  0  0
  3  7  1  0  0  0  0
  3  4  2  0  0  0  0
  4  5  1  0  0  0  0
  4  9  1  0  0  0  0
  5  6  1  0  0  0  0
  6  7  2  0  0  0  0
  6  8  1  0  0  0  0
  8 29  1  0  0  0  0
  8 30  1  0  0  0  0
  9 10  2  0  0  0  0
  9 11  1  0  0  0  0
 11 12  1  0  0  0  0
 11 31  1  0  0  0  0
 12 13  2  3  0  0  0
 13 14  1  0  0  0  0
 13 32  1  0  0  0  0
 14 19  2  0  0  0  0
 14 15  1  0  0  0  0
 15 16  2  0  0  0  0
 15 33  1  0  0  0  0
 16 17  1  0  0  0  0
 16 34  1  0  0  0  0
 17 18  2  0  0  0  0
 17 20  1  0  0  0  0
 18 19  1  0  0  0  0
 18 35  1  0  0  0  0
 19 36  1  0  0  0  0
 20 21  1  0  0  0  0
 20 22  1  0  0  0  0
 20 23  1  0  0  0  0
 21 37  1  0  0  0  0
 21 38  1  0  0  0  0
 21 39  1  0  0  0  0
 22 40  1  0  0  0  0
 22 41  1  0  0  0  0
 22 42  1  0  0  0  0
 23 43  1  0  0  0  0
 23 44  1  0  0  0  0
 23 45  1  0  0  0  0
M  END
$$$$
ZINC03991387
  -OEChem-08230709453D

 45 46  0     0  0  0  0  0  0999 V2000
   -0.7527    1.5927   -1.2315 C   0  0  0  0  0  0  0  0  0  0  0  0
   -0.0127    1.0858    0.0080 C   0  0  0  0  0  0  0  0  0  0  0  0
   -0.7181    1.5718    1.2479 C   0  0  0  0  0  0  0  0  0  0  0  0
   -1.7265    0.8236    1.8391 C   0  0  0  0  0  0  0  0  0  0  0  0
   -2.1553    1.8798    3.2155 S   0  0  0  0  0  0  0  0  0  0  0  0
   -1.0146    3.1485    2.8926 C   0  0  0  0  0  0  0  0  0  0  0  0
   -0.3967    2.7101    1.8058 N   0  0  0  0  0  0  0  0  0  0  0  0
   -0.8014    4.3157    3.5942 N   0  0  0  0  0  0  0  0  0  0  0  0
   -2.2836   -0.4690    1.4450 C   0  0  0  0  0  0  0  0  0  0  0  0
   -1.8533   -1.0430    0.4608 O   0  0  0  0  0  0  0  0  0  0  0  0
   -3.2734   -1.0257    2.1708 N   0  0  0  0  0  0  0  0  0  0  0  0
   -3.8074   -2.2647    1.7932 N   0  0  0  0  0  0  0  0  0  0  0  0
   -4.7605   -2.8008    2.4921 C   0  0  0  0  0  0  0  0  0  0  0  0
   -5.3225   -4.1050    2.0945 C   0  0  0  0  0  0  0  0  0  0  0  0
   -4.8354   -4.7635    0.9629 C   0  0  0  0  0  0  0  0  0  0  0  0
   -5.3625   -5.9853    0.5998 C   0  0  0  0  0  0  0  0  0  0  0  0
   -6.3787   -6.5538    1.3473 C   0  0  0  0  0  0  0  0  0  0  0  0
   -6.8697   -5.9048    2.4664 C   0  0  0  0  0  0  0  0  0  0  0  0
   -6.3485   -4.6850    2.8444 C   0  0  0  0  0  0  0  0  0  0  0  0
   -6.9537   -7.8861    0.9405 C   0  0  0  0  0  0  0  0  0  0  0  0
   -8.4486   -7.7303    0.6540 C   0  0  0  0  0  0  0  0  0  0  0  0
   -6.2424   -8.3854   -0.3187 C   0  0  0  0  0  0  0  0  0  0  0  0
   -6.7539   -8.8951    2.0731 C   0  0  0  0  0  0  0  0  0  0  0  0
   -0.7675    2.6825   -1.2255 H   0  0  0  0  0  0  0  0  0  0  0  0
   -0.2425    1.2411   -2.1283 H   0  0  0  0  0  0  0  0  0  0  0  0
   -1.7753    1.2154   -1.2238 H   0  0  0  0  0  0  0  0  0  0  0  0
    0.0021   -0.0041    0.0020 H   0  0  0  0  0  0  0  0  0  0  0  0
    1.0099    1.4631    0.0003 H   0  0  0  0  0  0  0  0  0  0  0  0
   -1.3298    4.5102    4.3841 H   0  0  0  0  0  0  0  0  0  0  0  0
   -0.1229    4.9425    3.2981 H   0  0  0  0  0  0  0  0  0  0  0  0
   -3.6161   -0.5686    2.9547 H   0  0  0  0  0  0  0  0  0  0  0  0
   -5.1420   -2.2918    3.3648 H   0  0  0  0  0  0  0  0  0  0  0  0
   -4.0454   -4.3188    0.3760 H   0  0  0  0  0  0  0  0  0  0  0  0
   -4.9841   -6.4975   -0.2725 H   0  0  0  0  0  0  0  0  0  0  0  0
   -7.6632   -6.3542    3.0450 H   0  0  0  0  0  0  0  0  0  0  0  0
   -6.7329   -4.1793    3.7179 H   0  0  0  0  0  0  0  0  0  0  0  0
   -8.5909   -7.0114   -0.1529 H   0  0  0  0  0  0  0  0  0  0  0  0
   -8.8645   -8.6939    0.3598 H   0  0  0  0  0  0  0  0  0  0  0  0
   -8.9553   -7.3745    1.5511 H   0  0  0  0  0  0  0  0  0  0  0  0
   -5.1775   -8.4964   -0.1146 H   0  0  0  0  0  0  0  0  0  0  0  0
   -6.6584   -9.3490   -0.6130 H   0  0  0  0  0  0  0  0  0  0  0  0
   -6.3848   -7.6666   -1.1256 H   0  0  0  0  0  0  0  0  0  0  0  0
   -7.2606   -8.5393    2.9702 H   0  0  0  0  0  0  0  0  0  0  0  0
   -7.1698   -9.8587    1.7789 H   0  0  0  0  0  0  0  0  0  0  0  0
   -5.6890   -9.0061    2.2772 H   0  0  0  0  0  0  0  0  0  0  0  0
  1  2  1  0  0  0  0
  1 24  1  0  0  0  0
  1 25  1  0  0  0  0
  1 26  1  0  0  0  0
  2  3  1  0  0  0  0
  2 27  1  0  0  0  0
  2 28  1  0  0  0  0
  3  7  1  0  0  0  0
  3  4  2  0  0  0  0
  4  5  1  0  0  0  0
  4  9  1  0  0  0  0
  5  6  1  0  0  0  0
  6  7  2  0  0  0  0
  6  8  1  0  0  0  0
  8 29  1  0  0  0  0
  8 30  1  0  0  0  0
  9 10  2  0  0  0  0
  9 11  1  0  0  0  0
 11 12  1  0  0  0  0
 11 31  1  0  0  0  0
 12 13  2  0  0  0  0
 13 14  1  0  0  0  0
 13 32  1  0  0  0  0
 14 19  2  0  0  0  0
 14 15  1  0  0  0  0
 15 16  2  0  0  0  0
 15 33  1  0  0  0  0
 16 17  1  0  0  0  0
 16 34  1  0  0  0  0
 17 18  2  0  0  0  0
 17 20  1  0  0  0  0
 18 19  1  0  0  0  0
 18 35  1  0  0  0  0
 19 36  1  0  0  0  0
 20 21  1  0  0  0  0
 20 22  1  0  0  0  0
 20 23  1  0  0  0  0
 21 37  1  0  0  0  0
 21 38  1  0  0  0  0
 21 39  1  0  0  0  0
 22 40  1  0  0  0  0
 22 41  1  0  0  0  0
 22 42  1  0  0  0  0
 23 43  1  0  0  0  0
 23 44  1  0  0  0  0
 23 45  1  0  0  0  0
M  END
$$$$
ZINC03991390
  -OEChem-08230709453D

 42 43  0     0  0  0  0  0  0999 V2000
   -8.8727    2.8027    0.0723 C   0  0  0  0  0  0  0  0  0  0  0  0
   -8.5760    1.3253    0.0552 C   0  0  0  0  0  0  0  0  0  0  0  0
   -7.2699    0.8563    0.0409 C   0  0  0  0  0  0  0  0  0  0  0  0
   -7.5545   -0.9080    0.0331 S   0  0  0  0  0  0  0  0  0  0  0  0
   -9.2901   -0.8584    0.0411 C   0  0  0  0  0  0  0  0  0  0  0  0
   -9.5407    0.4424    0.0489 N   0  0  0  0  0  0  0  0  0  0  0  0
  -10.1829   -1.9087    0.0404 N   0  0  0  0  0  0  0  0  0  0  0  0
   -6.0110    1.5991    0.0390 C   0  0  0  0  0  0  0  0  0  0  0  0
   -6.0225    2.8169    0.0457 O   0  0  0  0  0  0  0  0  0  0  0  0
   -4.8375    0.9363    0.0299 N   0  0  0  0  0  0  0  0  0  0  0  0
   -3.6308    1.6483    0.0281 N   0  0  0  0  0  0  0  0  0  0  0  0
   -2.5009    1.0100    0.0193 C   0  0  0  0  0  0  0  0  0  0  0  0
   -1.2307    1.7595    0.0174 C   0  0  0  0  0  0  0  0  0  0  0  0
   -0.0126    1.0758    0.0080 C   0  0  0  0  0  0  0  0  0  0  0  0
    1.1715    1.7833    0.0005 C   0  0  0  0  0  0  0  0  0  0  0  0
    1.1546    3.1669    0.0076 C   0  0  0  0  0  0  0  0  0  0  0  0
   -0.0483    3.8507    0.0218 C   0  0  0  0  0  0  0  0  0  0  0  0
   -1.2401    3.1563    0.0299 C   0  0  0  0  0  0  0  0  0  0  0  0
    2.4524    3.9328   -0.0007 C   0  0  0  0  0  0  0  0  0  0  0  0
    3.2465    3.5770   -1.2592 C   0  0  0  0  0  0  0  0  0  0  0  0
    2.1587    5.4343    0.0096 C   0  0  0  0  0  0  0  0  0  0  0  0
    3.2698    3.5645    1.2391 C   0  0  0  0  0  0  0  0  0  0  0  0
   -8.9519    3.1693   -0.9512 H   0  0  0  0  0  0  0  0  0  0  0  0
   -9.8130    2.9785    0.5949 H   0  0  0  0  0  0  0  0  0  0  0  0
   -8.0679    3.3290    0.5855 H   0  0  0  0  0  0  0  0  0  0  0  0
   -9.8570   -2.8223    0.0345 H   0  0  0  0  0  0  0  0  0  0  0  0
  -11.1371   -1.7341    0.0459 H   0  0  0  0  0  0  0  0  0  0  0  0
   -4.8283   -0.0336    0.0245 H   0  0  0  0  0  0  0  0  0  0  0  0
   -2.4907   -0.0699    0.0133 H   0  0  0  0  0  0  0  0  0  0  0  0
    0.0021   -0.0041    0.0020 H   0  0  0  0  0  0  0  0  0  0  0  0
    2.1140    1.2561   -0.0114 H   0  0  0  0  0  0  0  0  0  0  0  0
   -0.0540    4.9307    0.0269 H   0  0  0  0  0  0  0  0  0  0  0  0
   -2.1782    3.6913    0.0413 H   0  0  0  0  0  0  0  0  0  0  0  0
    2.6641    3.8394   -2.1425 H   0  0  0  0  0  0  0  0  0  0  0  0
    4.1852    4.1310   -1.2652 H   0  0  0  0  0  0  0  0  0  0  0  0
    3.4557    2.5073   -1.2666 H   0  0  0  0  0  0  0  0  0  0  0  0
    1.5930    5.6877    0.9062 H   0  0  0  0  0  0  0  0  0  0  0  0
    3.0974    5.9882    0.0036 H   0  0  0  0  0  0  0  0  0  0  0  0
    1.5763    5.6966   -0.8737 H   0  0  0  0  0  0  0  0  0  0  0  0
    3.4791    2.4948    1.2318 H   0  0  0  0  0  0  0  0  0  0  0  0
    4.2085    4.1184    1.2331 H   0  0  0  0  0  0  0  0  0  0  0  0
    2.7041    3.8179    2.1357 H   0  0  0  0  0  0  0  0  0  0  0  0
  1  2  1  0  0  0  0
  1 23  1  0  0  0  0
  1 24  1  0  0  0  0
  1 25  1  0  0  0  0
  2  6  1  0  0  0  0
  2  3  2  0  0  0  0
  3  4  1  0  0  0  0
  3  8  1  0  0  0  0
  4  5  1  0  0  0  0
  5  6  2  0  0  0  0
  5  7  1  0  0  0  0
  7 26  1  0  0  0  0
  7 27  1  0  0  0  0
  8  9  2  0  0  0  0
  8 10  1  0  0  0  0
 10 11  1  0  0  0  0
 10 28  1  0  0  0  0
 11 12  2  0  0  0  0
 12 13  1  0  0  0  0
 12 29  1  0  0  0  0
 13 18  2  0  0  0  0
 13 14  1  0  0  0  0
 14 15  2  0  0  0  0
 14 30  1  0  0  0  0
 15 16  1  0  0  0  0
 15 31  1  0  0  0  0
 16 17  2  0  0  0  0
 16 19  1  0  0  0  0
 17 18  1  0  0  0  0
 17 32  1  0  0  0  0
 18 33  1  0  0  0  0
 19 20  1  0  0  0  0
 19 21  1  0  0  0  0
 19 22  1  0  0  0  0
 20 34  1  0  0  0  0
 20 35  1  0  0  0  0
 20 36  1  0  0  0  0
 21 37  1  0  0  0  0
 21 38  1  0  0  0  0
 21 39  1  0  0  0  0
 22 40  1  0  0  0  0
 22 41  1  0  0  0  0
 22 42  1  0  0  0  0
M  END
$$$$
ZINC03991415
  -OEChem-08230709453D

 44 45  0     0  0  0  0  0  0999 V2000
    5.2721   -0.2710   -0.2818 C   0  0  0  0  0  0  0  0  0  0  0  0
    4.7621    0.3722   -1.5729 C   0  0  0  0  0  0  0  0  0  0  0  0
    3.4667   -0.2110   -1.9306 N   0  0  0  0  0  0  0  0  0  0  0  0
    3.4093   -1.3973   -2.7883 C   0  0  0  0  0  0  0  0  0  0  0  0
    3.3303   -0.9640   -4.2535 C   0  0  0  0  0  0  0  0  0  0  0  0
    2.2880    0.3631   -1.4545 C   0  0  0  0  0  0  0  0  0  0  0  0
    1.0591   -0.1921   -1.7951 C   0  0  0  0  0  0  0  0  0  0  0  0
   -0.1071    0.3724   -1.3272 C   0  0  0  0  0  0  0  0  0  0  0  0
   -0.0543    1.5045   -0.5092 C   0  0  0  0  0  0  0  0  0  0  0  0
    1.1826    2.0596   -0.1690 C   0  0  0  0  0  0  0  0  0  0  0  0
    2.3445    1.4896   -0.6407 C   0  0  0  0  0  0  0  0  0  0  0  0
   -1.3001    2.1150   -0.0114 C   0  0  0  0  0  0  0  0  0  0  0  0
   -2.4168    1.4564   -0.0766 N   0  0  0  0  0  0  0  0  0  0  0  0
   -2.4044    0.0555   -0.0844 N   0  0  0  0  0  0  0  0  0  0  0  0
   -3.5488   -0.6274   -0.2854 C   0  0  0  0  0  0  0  0  0  0  0  0
   -4.5938   -0.0267   -0.4602 O   0  0  0  0  0  0  0  0  0  0  0  0
   -3.5359   -2.0892   -0.2936 C   0  0  0  0  0  0  0  0  0  0  0  0
   -4.5813   -2.9841   -0.4733 C   0  0  0  0  0  0  0  0  0  0  0  0
   -4.3029   -4.2614   -0.4395 N   0  0  0  0  0  0  0  0  0  0  0  0
   -3.0693   -4.6969   -0.2310 C   0  0  0  0  0  0  0  0  0  0  0  0
   -2.1707   -3.2201   -0.0672 S   0  0  0  0  0  0  0  0  0  0  0  0
   -2.6134   -5.9960   -0.1615 N   0  0  0  0  0  0  0  0  0  0  0  0
   -5.9896   -2.4999   -0.7043 C   0  0  0  0  0  0  0  0  0  0  0  0
    5.3859   -1.3447   -0.4311 H   0  0  0  0  0  0  0  0  0  0  0  0
    6.2359    0.1629   -0.0157 H   0  0  0  0  0  0  0  0  0  0  0  0
    4.5578   -0.0896    0.5213 H   0  0  0  0  0  0  0  0  0  0  0  0
    5.4765    0.1908   -2.3760 H   0  0  0  0  0  0  0  0  0  0  0  0
    4.6483    1.4460   -1.4236 H   0  0  0  0  0  0  0  0  0  0  0  0
    4.3046   -1.9999   -2.6354 H   0  0  0  0  0  0  0  0  0  0  0  0
    2.5275   -1.9861   -2.5355 H   0  0  0  0  0  0  0  0  0  0  0  0
    3.2876   -1.8466   -4.8917 H   0  0  0  0  0  0  0  0  0  0  0  0
    2.4350   -0.3614   -4.4064 H   0  0  0  0  0  0  0  0  0  0  0  0
    4.2121   -0.3752   -4.5063 H   0  0  0  0  0  0  0  0  0  0  0  0
    1.0190   -1.0666   -2.4275 H   0  0  0  0  0  0  0  0  0  0  0  0
   -1.0610   -0.0590   -1.5924 H   0  0  0  0  0  0  0  0  0  0  0  0
    1.2272    2.9345    0.4626 H   0  0  0  0  0  0  0  0  0  0  0  0
    3.3005    1.9178   -0.3779 H   0  0  0  0  0  0  0  0  0  0  0  0
   -1.2838    3.1104    0.4075 H   0  0  0  0  0  0  0  0  0  0  0  0
   -1.5722   -0.4230    0.0548 H   0  0  0  0  0  0  0  0  0  0  0  0
   -1.6730   -6.1721   -0.0019 H   0  0  0  0  0  0  0  0  0  0  0  0
   -3.2331   -6.7340   -0.2722 H   0  0  0  0  0  0  0  0  0  0  0  0
   -6.1606   -2.3766   -1.7737 H   0  0  0  0  0  0  0  0  0  0  0  0
   -6.6946   -3.2294   -0.3054 H   0  0  0  0  0  0  0  0  0  0  0  0
   -6.1323   -1.5438   -0.2008 H   0  0  0  0  0  0  0  0  0  0  0  0
  1  2  1  0  0  0  0
  1 24  1  0  0  0  0
  1 25  1  0  0  0  0
  1 26  1  0  0  0  0
  2  3  1  0  0  0  0
  2 27  1  0  0  0  0
  2 28  1  0  0  0  0
  3  4  1  0  0  0  0
  3  6  1  0  0  0  0
  4  5  1  0  0  0  0
  4 29  1  0  0  0  0
  4 30  1  0  0  0  0
  5 31  1  0  0  0  0
  5 32  1  0  0  0  0
  5 33  1  0  0  0  0
  6 11  2  0  0  0  0
  6  7  1  0  0  0  0
  7  8  2  0  0  0  0
  7 34  1  0  0  0  0
  8  9  1  0  0  0  0
  8 35  1  0  0  0  0
  9 10  2  0  0  0  0
  9 12  1  0  0  0  0
 10 11  1  0  0  0  0
 10 36  1  0  0  0  0
 11 37  1  0  0  0  0
 12 13  2  3  0  0  0
 12 38  1  0  0  0  0
 13 14  1  0  0  0  0
 14 15  1  0  0  0  0
 14 39  1  0  0  0  0
 15 16  2  0  0  0  0
 15 17  1  0  0  0  0
 17 21  1  0  0  0  0
 17 18  2  0  0  0  0
 18 19  1  0  0  0  0
 18 23  1  0  0  0  0
 19 20  2  0  0  0  0
 20 21  1  0  0  0  0
 20 22  1  0  0  0  0
 22 40  1  0  0  0  0
 22 41  1  0  0  0  0
 23 42  1  0  0  0  0
 23 43  1  0  0  0  0
 23 44  1  0  0  0  0
M  END
$$$$
ZINC03991416
  -OEChem-08230709453D

 44 45  0     0  0  0  0  0  0999 V2000
    2.3436    5.8506    1.4538 C   0  0  0  0  0  0  0  0  0  0  0  0
    2.3357    5.3484    0.0086 C   0  0  0  0  0  0  0  0  0  0  0  0
    2.3524    3.8836    0.0005 N   0  0  0  0  0  0  0  0  0  0  0  0
    3.6294    3.1657   -0.0156 C   0  0  0  0  0  0  0  0  0  0  0  0
    4.0601    2.9236   -1.4636 C   0  0  0  0  0  0  0  0  0  0  0  0
    1.1525    3.1723    0.0081 C   0  0  0  0  0  0  0  0  0  0  0  0
    1.1703    1.7816    0.0005 C   0  0  0  0  0  0  0  0  0  0  0  0
   -0.0126    1.0758    0.0080 C   0  0  0  0  0  0  0  0  0  0  0  0
   -1.2319    1.7590    0.0174 C   0  0  0  0  0  0  0  0  0  0  0  0
   -1.2458    3.1566    0.0305 C   0  0  0  0  0  0  0  0  0  0  0  0
   -0.0589    3.8556    0.0230 C   0  0  0  0  0  0  0  0  0  0  0  0
   -2.4998    1.0075    0.0188 C   0  0  0  0  0  0  0  0  0  0  0  0
   -3.6314    1.6437    0.0277 N   0  0  0  0  0  0  0  0  0  0  0  0
   -4.8366    0.9293    0.0290 N   0  0  0  0  0  0  0  0  0  0  0  0
   -6.0114    1.5898    0.0381 C   0  0  0  0  0  0  0  0  0  0  0  0
   -6.0253    2.8076    0.0453 O   0  0  0  0  0  0  0  0  0  0  0  0
   -7.2690    0.8444    0.0395 C   0  0  0  0  0  0  0  0  0  0  0  0
   -8.5760    1.3108    0.0539 C   0  0  0  0  0  0  0  0  0  0  0  0
   -9.5390    0.4259    0.0479 N   0  0  0  0  0  0  0  0  0  0  0  0
   -9.2858   -0.8743    0.0396 C   0  0  0  0  0  0  0  0  0  0  0  0
   -7.5501   -0.9205    0.0312 S   0  0  0  0  0  0  0  0  0  0  0  0
  -10.1766   -1.9264    0.0380 N   0  0  0  0  0  0  0  0  0  0  0  0
   -8.8756    2.7876    0.0714 C   0  0  0  0  0  0  0  0  0  0  0  0
    3.2426    5.4947    1.9571 H   0  0  0  0  0  0  0  0  0  0  0  0
    2.3312    6.9405    1.4598 H   0  0  0  0  0  0  0  0  0  0  0  0
    1.4628    5.4743    1.9741 H   0  0  0  0  0  0  0  0  0  0  0  0
    3.2165    5.7247   -0.5117 H   0  0  0  0  0  0  0  0  0  0  0  0
    1.4367    5.7043   -0.4948 H   0  0  0  0  0  0  0  0  0  0  0  0
    4.3871    3.7606    0.4942 H   0  0  0  0  0  0  0  0  0  0  0  0
    3.5148    2.2091    0.4942 H   0  0  0  0  0  0  0  0  0  0  0  0
    4.1746    3.8802   -1.9734 H   0  0  0  0  0  0  0  0  0  0  0  0
    5.0102    2.3894   -1.4756 H   0  0  0  0  0  0  0  0  0  0  0  0
    3.3023    2.3286   -1.9734 H   0  0  0  0  0  0  0  0  0  0  0  0
    2.1128    1.2544   -0.0118 H   0  0  0  0  0  0  0  0  0  0  0  0
    0.0021   -0.0041    0.0020 H   0  0  0  0  0  0  0  0  0  0  0  0
   -2.1861    3.6879    0.0421 H   0  0  0  0  0  0  0  0  0  0  0  0
   -0.0689    4.9355    0.0289 H   0  0  0  0  0  0  0  0  0  0  0  0
   -2.4875   -0.0724    0.0125 H   0  0  0  0  0  0  0  0  0  0  0  0
   -4.8255   -0.0406    0.0233 H   0  0  0  0  0  0  0  0  0  0  0  0
   -9.8488   -2.8393    0.0310 H   0  0  0  0  0  0  0  0  0  0  0  0
  -11.1311   -1.7538    0.0437 H   0  0  0  0  0  0  0  0  0  0  0  0
   -8.9553    3.1544   -0.9520 H   0  0  0  0  0  0  0  0  0  0  0  0
   -9.8163    2.9614    0.5939 H   0  0  0  0  0  0  0  0  0  0  0  0
   -8.0719    3.3153    0.5849 H   0  0  0  0  0  0  0  0  0  0  0  0
  1  2  1  0  0  0  0
  1 24  1  0  0  0  0
  1 25  1  0  0  0  0
  1 26  1  0  0  0  0
  2  3  1  0  0  0  0
  2 27  1  0  0  0  0
  2 28  1  0  0  0  0
  3  4  1  0  0  0  0
  3  6  1  0  0  0  0
  4  5  1  0  0  0  0
  4 29  1  0  0  0  0
  4 30  1  0  0  0  0
  5 31  1  0  0  0  0
  5 32  1  0  0  0  0
  5 33  1  0  0  0  0
  6 11  2  0  0  0  0
  6  7  1  0  0  0  0
  7  8  2  0  0  0  0
  7 34  1  0  0  0  0
  8  9  1  0  0  0  0
  8 35  1  0  0  0  0
  9 10  2  0  0  0  0
  9 12  1  0  0  0  0
 10 11  1  0  0  0  0
 10 36  1  0  0  0  0
 11 37  1  0  0  0  0
 12 13  2  0  0  0  0
 12 38  1  0  0  0  0
 13 14  1  0  0  0  0
 14 15  1  0  0  0  0
 14 39  1  0  0  0  0
 15 16  2  0  0  0  0
 15 17  1  0  0  0  0
 17 21  1  0  0  0  0
 17 18  2  0  0  0  0
 18 19  1  0  0  0  0
 18 23  1  0  0  0  0
 19 20  2  0  0  0  0
 20 21  1  0  0  0  0
 20 22  1  0  0  0  0
 22 40  1  0  0  0  0
 22 41  1  0  0  0  0
 23 42  1  0  0  0  0
 23 43  1  0  0  0  0
 23 44  1  0  0  0  0
M  END
$$$$
ZINC03991423
  -OEChem-08230709453D

 43 44  0     0  0  0  0  0  0999 V2000
   -8.8748    2.7914    0.0724 C   0  0  0  0  0  0  0  0  0  0  0  0
   -8.5759    1.3144    0.0554 C   0  0  0  0  0  0  0  0  0  0  0  0
   -7.2692    0.8473    0.0410 C   0  0  0  0  0  0  0  0  0  0  0  0
   -7.5511   -0.9174    0.0334 S   0  0  0  0  0  0  0  0  0  0  0  0
   -9.2869   -0.8704    0.0414 C   0  0  0  0  0  0  0  0  0  0  0  0
   -9.5394    0.4300    0.0491 N   0  0  0  0  0  0  0  0  0  0  0  0
  -10.1781   -1.9220    0.0408 N   0  0  0  0  0  0  0  0  0  0  0  0
   -6.0112    1.5920    0.0391 C   0  0  0  0  0  0  0  0  0  0  0  0
   -6.0245    2.8099    0.0458 O   0  0  0  0  0  0  0  0  0  0  0  0
   -4.8368    0.9310    0.0300 N   0  0  0  0  0  0  0  0  0  0  0  0
   -3.6312    1.6447    0.0281 N   0  0  0  0  0  0  0  0  0  0  0  0
   -2.5001    1.0081    0.0194 C   0  0  0  0  0  0  0  0  0  0  0  0
   -1.2315    1.7591    0.0174 C   0  0  0  0  0  0  0  0  0  0  0  0
   -0.0126    1.0758    0.0080 C   0  0  0  0  0  0  0  0  0  0  0  0
    1.1707    1.7821    0.0005 C   0  0  0  0  0  0  0  0  0  0  0  0
    1.1531    3.1709    0.0071 C   0  0  0  0  0  0  0  0  0  0  0  0
   -0.0560    3.8543    0.0219 C   0  0  0  0  0  0  0  0  0  0  0  0
   -1.2443    3.1564    0.0304 C   0  0  0  0  0  0  0  0  0  0  0  0
    2.3221    3.8630   -0.0012 O   0  0  0  0  0  0  0  0  0  0  0  0
    2.2317    5.2891    0.0064 C   0  0  0  0  0  0  0  0  0  0  0  0
    3.6390    5.8894   -0.0048 C   0  0  0  0  0  0  0  0  0  0  0  0
    4.3343    5.5349   -1.3207 C   0  0  0  0  0  0  0  0  0  0  0  0
    3.5456    7.4107    0.1290 C   0  0  0  0  0  0  0  0  0  0  0  0
   -8.9545    3.1577   -0.9511 H   0  0  0  0  0  0  0  0  0  0  0  0
   -9.8153    2.9658    0.5950 H   0  0  0  0  0  0  0  0  0  0  0  0
   -8.0707    3.3189    0.5856 H   0  0  0  0  0  0  0  0  0  0  0  0
   -9.8509   -2.8351    0.0349 H   0  0  0  0  0  0  0  0  0  0  0  0
  -11.1325   -1.7489    0.0462 H   0  0  0  0  0  0  0  0  0  0  0  0
   -4.8262   -0.0389    0.0247 H   0  0  0  0  0  0  0  0  0  0  0  0
   -2.4883   -0.0719    0.0134 H   0  0  0  0  0  0  0  0  0  0  0  0
    0.0021   -0.0041    0.0020 H   0  0  0  0  0  0  0  0  0  0  0  0
    2.1132    1.2549   -0.0110 H   0  0  0  0  0  0  0  0  0  0  0  0
   -0.0649    4.9342    0.0270 H   0  0  0  0  0  0  0  0  0  0  0  0
   -2.1840    3.6886    0.0422 H   0  0  0  0  0  0  0  0  0  0  0  0
    1.6871    5.6234   -0.8767 H   0  0  0  0  0  0  0  0  0  0  0  0
    1.7048    5.6150    0.9032 H   0  0  0  0  0  0  0  0  0  0  0  0
    4.2128    5.4858    0.8295 H   0  0  0  0  0  0  0  0  0  0  0  0
    3.7605    5.9384   -2.1550 H   0  0  0  0  0  0  0  0  0  0  0  0
    5.3369    5.9625   -1.3287 H   0  0  0  0  0  0  0  0  0  0  0  0
    4.4008    4.4511   -1.4161 H   0  0  0  0  0  0  0  0  0  0  0  0
    3.0503    7.6632    1.0665 H   0  0  0  0  0  0  0  0  0  0  0  0
    4.5482    7.8383    0.1211 H   0  0  0  0  0  0  0  0  0  0  0  0
    2.9719    7.8142   -0.7053 H   0  0  0  0  0  0  0  0  0  0  0  0
  1  2  1  0  0  0  0
  1 24  1  0  0  0  0
  1 25  1  0  0  0  0
  1 26  1  0  0  0  0
  2  6  1  0  0  0  0
  2  3  2  0  0  0  0
  3  4  1  0  0  0  0
  3  8  1  0  0  0  0
  4  5  1  0  0  0  0
  5  6  2  0  0  0  0
  5  7  1  0  0  0  0
  7 27  1  0  0  0  0
  7 28  1  0  0  0  0
  8  9  2  0  0  0  0
  8 10  1  0  0  0  0
 10 11  1  0  0  0  0
 10 29  1  0  0  0  0
 11 12  2  0  0  0  0
 12 13  1  0  0  0  0
 12 30  1  0  0  0  0
 13 18  2  0  0  0  0
 13 14  1  0  0  0  0
 14 15  2  0  0  0  0
 14 31  1  0  0  0  0
 15 16  1  0  0  0  0
 15 32  1  0  0  0  0
 16 17  2  0  0  0  0
 16 19  1  0  0  0  0
 17 18  1  0  0  0  0
 17 33  1  0  0  0  0
 18 34  1  0  0  0  0
 19 20  1  0  0  0  0
 20 21  1  0  0  0  0
 20 35  1  0  0  0  0
 20 36  1  0  0  0  0
 21 22  1  0  0  0  0
 21 23  1  0  0  0  0
 21 37  1  0  0  0  0
 22 38  1  0  0  0  0
 22 39  1  0  0  0  0
 22 40  1  0  0  0  0
 23 41  1  0  0  0  0
 23 42  1  0  0  0  0
 23 43  1  0  0  0  0
M  END
$$$$
ZINC03991425
  -OEChem-08230709453D

 43 44  0     0  0  0  0  0  0999 V2000
    3.8879   10.3878    0.0080 C   0  0  0  0  0  0  0  0  0  0  0  0
    5.0443    9.4215    0.0003 C   0  0  0  0  0  0  0  0  0  0  0  0
    4.8326    8.0499    0.0006 C   0  0  0  0  0  0  0  0  0  0  0  0
    6.5186    7.4573   -0.0187 S   0  0  0  0  0  0  0  0  0  0  0  0
    7.3039    9.0060   -0.0171 C   0  0  0  0  0  0  0  0  0  0  0  0
    6.2808    9.8474   -0.0027 N   0  0  0  0  0  0  0  0  0  0  0  0
    8.6530    9.2889   -0.0281 N   0  0  0  0  0  0  0  0  0  0  0  0
    3.5787    7.2985    0.0080 C   0  0  0  0  0  0  0  0  0  0  0  0
    2.5143    7.8902    0.0210 O   0  0  0  0  0  0  0  0  0  0  0  0
    3.6006    5.9509    0.0006 N   0  0  0  0  0  0  0  0  0  0  0  0
    2.3989    5.2308    0.0077 N   0  0  0  0  0  0  0  0  0  0  0  0
    2.4199    3.9328    0.0006 C   0  0  0  0  0  0  0  0  0  0  0  0
    1.1558    3.1753    0.0081 C   0  0  0  0  0  0  0  0  0  0  0  0
    1.1739    1.7786    0.0004 C   0  0  0  0  0  0  0  0  0  0  0  0
   -0.0126    1.0758    0.0080 C   0  0  0  0  0  0  0  0  0  0  0  0
   -1.2225    1.7488    0.0174 C   0  0  0  0  0  0  0  0  0  0  0  0
   -1.2537    3.1305    0.0308 C   0  0  0  0  0  0  0  0  0  0  0  0
   -0.0713    3.8522    0.0234 C   0  0  0  0  0  0  0  0  0  0  0  0
   -0.1011    5.2100    0.0315 O   0  0  0  0  0  0  0  0  0  0  0  0
   -1.3882    5.8306    0.0470 C   0  0  0  0  0  0  0  0  0  0  0  0
   -1.2210    7.3514    0.0542 C   0  0  0  0  0  0  0  0  0  0  0  0
   -2.5948    8.0160   -0.0549 C   0  0  0  0  0  0  0  0  0  0  0  0
   -0.5471    7.7843    1.3577 C   0  0  0  0  0  0  0  0  0  0  0  0
    3.6152   10.6200    1.0375 H   0  0  0  0  0  0  0  0  0  0  0  0
    4.1766   11.3041   -0.5069 H   0  0  0  0  0  0  0  0  0  0  0  0
    3.0353    9.9382   -0.5011 H   0  0  0  0  0  0  0  0  0  0  0  0
    9.3000    8.5662   -0.0380 H   0  0  0  0  0  0  0  0  0  0  0  0
    8.9553   10.2105   -0.0260 H   0  0  0  0  0  0  0  0  0  0  0  0
    4.4484    5.4796   -0.0097 H   0  0  0  0  0  0  0  0  0  0  0  0
    3.3638    3.4081   -0.0109 H   0  0  0  0  0  0  0  0  0  0  0  0
    2.1156    1.2500   -0.0118 H   0  0  0  0  0  0  0  0  0  0  0  0
    0.0021   -0.0041    0.0020 H   0  0  0  0  0  0  0  0  0  0  0  0
   -2.1472    1.1908    0.0184 H   0  0  0  0  0  0  0  0  0  0  0  0
   -2.2014    3.6483    0.0423 H   0  0  0  0  0  0  0  0  0  0  0  0
   -1.9470    5.5306   -0.8395 H   0  0  0  0  0  0  0  0  0  0  0  0
   -1.9303    5.5205    0.9404 H   0  0  0  0  0  0  0  0  0  0  0  0
   -0.6033    7.6530   -0.7918 H   0  0  0  0  0  0  0  0  0  0  0  0
   -3.2125    7.7144    0.7910 H   0  0  0  0  0  0  0  0  0  0  0  0
   -2.4757    9.0994   -0.0499 H   0  0  0  0  0  0  0  0  0  0  0  0
   -3.0750    7.7076   -0.9836 H   0  0  0  0  0  0  0  0  0  0  0  0
    0.4316    7.3108    1.4354 H   0  0  0  0  0  0  0  0  0  0  0  0
   -0.4280    8.8678    1.3628 H   0  0  0  0  0  0  0  0  0  0  0  0
   -1.1648    7.4827    2.2037 H   0  0  0  0  0  0  0  0  0  0  0  0
  1  2  1  0  0  0  0
  1 24  1  0  0  0  0
  1 25  1  0  0  0  0
  1 26  1  0  0  0  0
  2  6  1  0  0  0  0
  2  3  2  0  0  0  0
  3  4  1  0  0  0  0
  3  8  1  0  0  0  0
  4  5  1  0  0  0  0
  5  6  2  0  0  0  0
  5  7  1  0  0  0  0
  7 27  1  0  0  0  0
  7 28  1  0  0  0  0
  8  9  2  0  0  0  0
  8 10  1  0  0  0  0
 10 11  1  0  0  0  0
 10 29  1  0  0  0  0
 11 12  2  0  0  0  0
 12 13  1  0  0  0  0
 12 30  1  0  0  0  0
 13 18  2  0  0  0  0
 13 14  1  0  0  0  0
 14 15  2  0  0  0  0
 14 31  1  0  0  0  0
 15 16  1  0  0  0  0
 15 32  1  0  0  0  0
 16 17  2  0  0  0  0
 16 33  1  0  0  0  0
 17 18  1  0  0  0  0
 17 34  1  0  0  0  0
 18 19  1  0  0  0  0
 19 20  1  0  0  0  0
 20 21  1  0  0  0  0
 20 35  1  0  0  0  0
 20 36  1  0  0  0  0
 21 22  1  0  0  0  0
 21 23  1  0  0  0  0
 21 37  1  0  0  0  0
 22 38  1  0  0  0  0
 22 39  1  0  0  0  0
 22 40  1  0  0  0  0
 23 41  1  0  0  0  0
 23 42  1  0  0  0  0
 23 43  1  0  0  0  0
M  END
$$$$
ZINC03991459
  -OEChem-08230709453D

 40 41  0     0  0  0  0  0  0999 V2000
   -6.0600   -2.0920   -1.0984 C   0  0  0  0  0  0  0  0  0  0  0  0
   -4.6579   -2.6381   -1.0139 C   0  0  0  0  0  0  0  0  0  0  0  0
   -3.5777   -1.8043   -0.7614 C   0  0  0  0  0  0  0  0  0  0  0  0
   -2.2392   -2.9884   -0.7718 S   0  0  0  0  0  0  0  0  0  0  0  0
   -3.1901   -4.4036   -1.1007 C   0  0  0  0  0  0  0  0  0  0  0  0
   -4.4181   -3.9129   -1.1799 N   0  0  0  0  0  0  0  0  0  0  0  0
   -2.7723   -5.7094   -1.2435 N   0  0  0  0  0  0  0  0  0  0  0  0
   -3.5446   -0.3594   -0.5415 C   0  0  0  0  0  0  0  0  0  0  0  0
   -4.5775    0.2852   -0.5732 O   0  0  0  0  0  0  0  0  0  0  0  0
   -2.3711    0.2593   -0.3037 N   0  0  0  0  0  0  0  0  0  0  0  0
   -2.3394    1.6440   -0.0930 N   0  0  0  0  0  0  0  0  0  0  0  0
   -1.2300    2.2227    0.2524 C   0  0  0  0  0  0  0  0  0  0  0  0
   -0.1519    1.4358    0.8782 C   0  0  0  0  0  0  0  0  0  0  0  0
    1.1331    1.9732    0.9912 C   0  0  0  0  0  0  0  0  0  0  0  0
    2.1393    1.2316    1.5714 C   0  0  0  0  0  0  0  0  0  0  0  0
    1.8776   -0.0479    2.0442 C   0  0  0  0  0  0  0  0  0  0  0  0
    0.6020   -0.5863    1.9339 C   0  0  0  0  0  0  0  0  0  0  0  0
   -0.4103    0.1479    1.3548 C   0  0  0  0  0  0  0  0  0  0  0  0
    2.8725   -0.7753    2.6158 O   0  0  0  0  0  0  0  0  0  0  0  0
    2.5661   -2.1241    2.9746 C   0  0  0  0  0  0  0  0  0  0  0  0
    3.8541   -2.9495    3.0029 C   0  0  0  0  0  0  0  0  0  0  0  0
    1.9144   -2.1483    4.3586 C   0  0  0  0  0  0  0  0  0  0  0  0
   -6.2785   -1.8095   -2.1282 H   0  0  0  0  0  0  0  0  0  0  0  0
   -6.7673   -2.8550   -0.7731 H   0  0  0  0  0  0  0  0  0  0  0  0
   -6.1484   -1.2167   -0.4549 H   0  0  0  0  0  0  0  0  0  0  0  0
   -1.8312   -5.9294   -1.1599 H   0  0  0  0  0  0  0  0  0  0  0  0
   -3.4192   -6.4083   -1.4275 H   0  0  0  0  0  0  0  0  0  0  0  0
   -1.5485   -0.2541   -0.2784 H   0  0  0  0  0  0  0  0  0  0  0  0
   -1.0968    3.2807    0.0813 H   0  0  0  0  0  0  0  0  0  0  0  0
    1.3374    2.9681    0.6239 H   0  0  0  0  0  0  0  0  0  0  0  0
    3.1327    1.6460    1.6589 H   0  0  0  0  0  0  0  0  0  0  0  0
    0.4032   -1.5819    2.3023 H   0  0  0  0  0  0  0  0  0  0  0  0
   -1.4018   -0.2717    1.2692 H   0  0  0  0  0  0  0  0  0  0  0  0
    1.8791   -2.5479    2.2420 H   0  0  0  0  0  0  0  0  0  0  0  0
    4.5411   -2.5258    3.7354 H   0  0  0  0  0  0  0  0  0  0  0  0
    3.6204   -3.9783    3.2766 H   0  0  0  0  0  0  0  0  0  0  0  0
    4.3184   -2.9323    2.0169 H   0  0  0  0  0  0  0  0  0  0  0  0
    0.9968   -1.5603    4.3384 H   0  0  0  0  0  0  0  0  0  0  0  0
    1.6807   -3.1771    4.6323 H   0  0  0  0  0  0  0  0  0  0  0  0
    2.6014   -1.7246    5.0911 H   0  0  0  0  0  0  0  0  0  0  0  0
  1  2  1  0  0  0  0
  1 23  1  0  0  0  0
  1 24  1  0  0  0  0
  1 25  1  0  0  0  0
  2  6  1  0  0  0  0
  2  3  2  0  0  0  0
  3  4  1  0  0  0  0
  3  8  1  0  0  0  0
  4  5  1  0  0  0  0
  5  6  2  0  0  0  0
  5  7  1  0  0  0  0
  7 26  1  0  0  0  0
  7 27  1  0  0  0  0
  8  9  2  0  0  0  0
  8 10  1  0  0  0  0
 10 11  1  0  0  0  0
 10 28  1  0  0  0  0
 11 12  2  3  0  0  0
 12 13  1  0  0  0  0
 12 29  1  0  0  0  0
 13 18  2  0  0  0  0
 13 14  1  0  0  0  0
 14 15  2  0  0  0  0
 14 30  1  0  0  0  0
 15 16  1  0  0  0  0
 15 31  1  0  0  0  0
 16 17  2  0  0  0  0
 16 19  1  0  0  0  0
 17 18  1  0  0  0  0
 17 32  1  0  0  0  0
 18 33  1  0  0  0  0
 19 20  1  0  0  0  0
 20 21  1  0  0  0  0
 20 22  1  0  0  0  0
 20 34  1  0  0  0  0
 21 35  1  0  0  0  0
 21 36  1  0  0  0  0
 21 37  1  0  0  0  0
 22 38  1  0  0  0  0
 22 39  1  0  0  0  0
 22 40  1  0  0  0  0
M  END
$$$$
ZINC03991512
  -OEChem-08230709453D

 43 44  0     0  0  0  0  0  0999 V2000
   -0.0472    1.6539   -0.1054 C   0  0  0  0  0  0  0  0  0  0  0  0
    0.6914    0.5974    0.7188 C   0  0  0  0  0  0  0  0  0  0  0  0
    0.2800    0.7099    2.1642 C   0  0  0  0  0  0  0  0  0  0  0  0
   -0.8011   -0.0054    2.6598 C   0  0  0  0  0  0  0  0  0  0  0  0
   -0.7913    0.5250    4.3664 S   0  0  0  0  0  0  0  0  0  0  0  0
    0.5759    1.5906    4.2655 C   0  0  0  0  0  0  0  0  0  0  0  0
    0.9331    1.4807    2.9946 N   0  0  0  0  0  0  0  0  0  0  0  0
    1.1491    2.3546    5.2595 N   0  0  0  0  0  0  0  0  0  0  0  0
   -1.6986   -0.9346    1.9758 C   0  0  0  0  0  0  0  0  0  0  0  0
   -1.5423   -1.1718    0.7914 O   0  0  0  0  0  0  0  0  0  0  0  0
   -2.6991   -1.5288    2.6557 N   0  0  0  0  0  0  0  0  0  0  0  0
   -3.5593   -2.4194    2.0002 N   0  0  0  0  0  0  0  0  0  0  0  0
   -4.5914   -2.9016    2.6224 C   0  0  0  0  0  0  0  0  0  0  0  0
   -5.1418   -2.1960    3.7940 C   0  0  0  0  0  0  0  0  0  0  0  0
   -6.0643   -2.8345    4.6270 C   0  0  0  0  0  0  0  0  0  0  0  0
   -6.5725   -2.1726    5.7237 C   0  0  0  0  0  0  0  0  0  0  0  0
   -6.1771   -0.8692    5.9956 C   0  0  0  0  0  0  0  0  0  0  0  0
   -5.2644   -0.2288    5.1674 C   0  0  0  0  0  0  0  0  0  0  0  0
   -4.7469   -0.8846    4.0715 C   0  0  0  0  0  0  0  0  0  0  0  0
   -6.6850   -0.2186    7.0747 O   0  0  0  0  0  0  0  0  0  0  0  0
   -6.1760    1.0895    7.3424 C   0  0  0  0  0  0  0  0  0  0  0  0
   -7.2001    1.8775    8.1615 C   0  0  0  0  0  0  0  0  0  0  0  0
   -4.8698    0.9769    8.1312 C   0  0  0  0  0  0  0  0  0  0  0  0
   -1.1222    1.4950   -0.0202 H   0  0  0  0  0  0  0  0  0  0  0  0
    0.2041    2.6468    0.2676 H   0  0  0  0  0  0  0  0  0  0  0  0
    0.2504    1.5725   -1.1509 H   0  0  0  0  0  0  0  0  0  0  0  0
    0.4401   -0.3954    0.3457 H   0  0  0  0  0  0  0  0  0  0  0  0
    1.7664    0.7563    0.6336 H   0  0  0  0  0  0  0  0  0  0  0  0
    0.7828    2.3362    6.1575 H   0  0  0  0  0  0  0  0  0  0  0  0
    1.9187    2.9106    5.0610 H   0  0  0  0  0  0  0  0  0  0  0  0
   -2.8236   -1.3399    3.5989 H   0  0  0  0  0  0  0  0  0  0  0  0
   -5.0468   -3.8198    2.2820 H   0  0  0  0  0  0  0  0  0  0  0  0
   -6.3754   -3.8465    4.4140 H   0  0  0  0  0  0  0  0  0  0  0  0
   -7.2825   -2.6667    6.3704 H   0  0  0  0  0  0  0  0  0  0  0  0
   -4.9601    0.7849    5.3825 H   0  0  0  0  0  0  0  0  0  0  0  0
   -4.0375   -0.3857    3.4279 H   0  0  0  0  0  0  0  0  0  0  0  0
   -5.9886    1.6061    6.4011 H   0  0  0  0  0  0  0  0  0  0  0  0
   -7.3875    1.3609    9.1029 H   0  0  0  0  0  0  0  0  0  0  0  0
   -6.8118    2.8754    8.3657 H   0  0  0  0  0  0  0  0  0  0  0  0
   -8.1306    1.9578    7.5996 H   0  0  0  0  0  0  0  0  0  0  0  0
   -5.0572    0.4603    9.0725 H   0  0  0  0  0  0  0  0  0  0  0  0
   -4.1402    0.4155    7.5476 H   0  0  0  0  0  0  0  0  0  0  0  0
   -4.4815    1.9747    8.3353 H   0  0  0  0  0  0  0  0  0  0  0  0
  1  2  1  0  0  0  0
  1 24  1  0  0  0  0
  1 25  1  0  0  0  0
  1 26  1  0  0  0  0
  2  3  1  0  0  0  0
  2 27  1  0  0  0  0
  2 28  1  0  0  0  0
  3  7  1  0  0  0  0
  3  4  2  0  0  0  0
  4  5  1  0  0  0  0
  4  9  1  0  0  0  0
  5  6  1  0  0  0  0
  6  7  2  0  0  0  0
  6  8  1  0  0  0  0
  8 29  1  0  0  0  0
  8 30  1  0  0  0  0
  9 10  2  0  0  0  0
  9 11  1  0  0  0  0
 11 12  1  0  0  0  0
 11 31  1  0  0  0  0
 12 13  2  3  0  0  0
 13 14  1  0  0  0  0
 13 32  1  0  0  0  0
 14 19  2  0  0  0  0
 14 15  1  0  0  0  0
 15 16  2  0  0  0  0
 15 33  1  0  0  0  0
 16 17  1  0  0  0  0
 16 34  1  0  0  0  0
 17 18  2  0  0  0  0
 17 20  1  0  0  0  0
 18 19  1  0  0  0  0
 18 35  1  0  0  0  0
 19 36  1  0  0  0  0
 20 21  1  0  0  0  0
 21 22  1  0  0  0  0
 21 23  1  0  0  0  0
 21 37  1  0  0  0  0
 22 38  1  0  0  0  0
 22 39  1  0  0  0  0
 22 40  1  0  0  0  0
 23 41  1  0  0  0  0
 23 42  1  0  0  0  0
 23 43  1  0  0  0  0
M  END
$$$$
ZINC03991965
  -OEChem-08230709453D

 48 50  0     0  0  0  0  0  0999 V2000
   -0.0408    1.3421   -2.5007 C   0  0  0  0  0  0  0  0  0  0  0  0
   -0.0370    2.0766   -1.1848 C   0  0  0  0  0  0  0  0  0  0  0  0
   -0.0158    1.3623    0.0162 C   0  0  0  0  0  0  0  0  0  0  0  0
   -0.0188    2.0517    1.2316 C   0  0  0  0  0  0  0  0  0  0  0  0
   -0.0305    3.4311    1.2388 C   0  0  0  0  0  0  0  0  0  0  0  0
   -0.0519    4.1325    0.0465 C   0  0  0  0  0  0  0  0  0  0  0  0
   -0.0550    3.4564   -1.1625 C   0  0  0  0  0  0  0  0  0  0  0  0
   -0.0819    4.3465   -2.6527 Cl  0  0  0  0  0  0  0  0  0  0  0  0
    0.0021   -0.0041    0.0020 N   0  0  0  0  0  0  0  0  0  0  0  0
   -1.1289   -0.6813    0.1090 C   0  0  0  0  0  0  0  0  0  0  0  0
   -2.3403   -0.0206    0.1310 N   0  0  0  0  0  0  0  0  0  0  0  0
   -2.3766    0.9466    0.0683 H   0  0  0  0  0  0  0  0  0  0  0  0
   -3.4867   -0.7537    0.2373 C   0  0  0  0  0  0  0  0  0  0  0  0
   -3.4133   -2.0725    0.3271 N   0  0  0  0  0  0  0  0  0  0  0  0
   -2.2396   -2.6925    0.3096 C   0  0  0  0  0  0  0  0  0  0  0  0
   -1.1136   -2.0211    0.2033 N   0  0  0  0  0  0  0  0  0  0  0  0
   -2.1965   -4.1953    0.4140 C   0  0  0  0  0  0  0  0  0  0  0  0
   -0.8765   -4.0565    2.4500 C   0  0  0  0  0  0  0  0  0  0  0  0
   -0.6067   -4.6487    3.8064 C   0  0  0  0  0  0  0  0  0  0  0  0
    0.3329   -5.8605    3.6336 C   0  0  0  0  0  0  0  0  0  0  0  0
   -0.3777   -7.0466    3.1686 C   0  0  0  0  0  0  0  0  0  0  0  0
   -1.0372   -6.8279    1.7907 C   0  0  0  0  0  0  0  0  0  0  0  0
   -2.3060   -6.0439    1.9880 C   0  0  0  0  0  0  0  0  0  0  0  0
   -4.7013   -0.1304    0.2568 N   0  0  0  0  0  0  0  0  0  0  0  0
   -1.0693    1.1518   -2.8076 H   0  0  0  0  0  0  0  0  0  0  0  0
    0.4577    1.9486   -3.2568 H   0  0  0  0  0  0  0  0  0  0  0  0
    0.4863    0.3946   -2.3894 H   0  0  0  0  0  0  0  0  0  0  0  0
   -0.0069    1.5058    2.1634 H   0  0  0  0  0  0  0  0  0  0  0  0
   -0.0279    3.9649    2.1777 H   0  0  0  0  0  0  0  0  0  0  0  0
   -0.0660    5.2124    0.0584 H   0  0  0  0  0  0  0  0  0  0  0  0
   -3.1012   -4.6161   -0.0248 H   0  0  0  0  0  0  0  0  0  0  0  0
   -1.3243   -4.5717   -0.1205 H   0  0  0  0  0  0  0  0  0  0  0  0
   -0.0318   -4.2752    1.7967 H   0  0  0  0  0  0  0  0  0  0  0  0
   -0.9694   -2.9752    2.5507 H   0  0  0  0  0  0  0  0  0  0  0  0
   -1.5444   -4.9737    4.2572 H   0  0  0  0  0  0  0  0  0  0  0  0
   -0.1314   -3.9050    4.4460 H   0  0  0  0  0  0  0  0  0  0  0  0
    0.8034   -6.0827    4.5913 H   0  0  0  0  0  0  0  0  0  0  0  0
    1.1083   -5.6066    2.9108 H   0  0  0  0  0  0  0  0  0  0  0  0
   -1.1500   -7.3033    3.8937 H   0  0  0  0  0  0  0  0  0  0  0  0
    0.3267   -7.8753    3.0961 H   0  0  0  0  0  0  0  0  0  0  0  0
   -1.2691   -7.7922    1.3386 H   0  0  0  0  0  0  0  0  0  0  0  0
   -0.3591   -6.2707    1.1444 H   0  0  0  0  0  0  0  0  0  0  0  0
   -2.6877   -6.2393    2.9900 H   0  0  0  0  0  0  0  0  0  0  0  0
   -3.0430   -6.3820    1.2595 H   0  0  0  0  0  0  0  0  0  0  0  0
   -5.5139   -0.6540    0.3366 H   0  0  0  0  0  0  0  0  0  0  0  0
   -4.7516    0.8361    0.1908 H   0  0  0  0  0  0  0  0  0  0  0  0
   -2.1558   -4.5560    1.8400 N   0  3  0  0  0  0  0  0  0  0  0  0
   -2.9421   -4.1020    2.3195 H   0  0  0  0  0  0  0  0  0  0  0  0
  1  2  1  0  0  0  0
  1 25  1  0  0  0  0
  1 26  1  0  0  0  0
  1 27  1  0  0  0  0
  2  7  2  0  0  0  0
  2  3  1  0  0  0  0
  3  4  2  0  0  0  0
  3  9  1  0  0  0  0
  4  5  1  0  0  0  0
  4 28  1  0  0  0  0
  5  6  2  0  0  0  0
  5 29  1  0  0  0  0
  6  7  1  0  0  0  0
  6 30  1  0  0  0  0
  7  8  1  0  0  0  0
  9 10  2  0  0  0  0
 10 16  1  0  0  0  0
 10 11  1  0  0  0  0
 11 12  1  0  0  0  0
 11 13  1  0  0  0  0
 13 14  2  0  0  0  0
 13 24  1  0  0  0  0
 14 15  1  0  0  0  0
 15 16  2  0  0  0  0
 15 17  1  0  0  0  0
 17 31  1  0  0  0  0
 17 32  1  0  0  0  0
 17 47  1  0  0  0  0
 18 19  1  0  0  0  0
 18 33  1  0  0  0  0
 18 34  1  0  0  0  0
 18 47  1  0  0  0  0
 19 20  1  0  0  0  0
 19 35  1  0  0  0  0
 19 36  1  0  0  0  0
 20 21  1  0  0  0  0
 20 37  1  0  0  0  0
 20 38  1  0  0  0  0
 21 22  1  0  0  0  0
 21 39  1  0  0  0  0
 21 40  1  0  0  0  0
 22 23  1  0  0  0  0
 22 41  1  0  0  0  0
 22 42  1  0  0  0  0
 23 43  1  0  0  0  0
 23 44  1  0  0  0  0
 23 47  1  0  0  0  0
 24 45  1  0  0  0  0
 24 46  1  0  0  0  0
 47 48  1  0  0  0  0
M  CHG  1  47   1
M  END
$$$$
ZINC03994627
  -OEChem-08230709453D

 45 48  0     1  0  0  0  0  0999 V2000
   -6.2275    2.1697    0.5692 C   0  0  0  0  0  0  0  0  0  0  0  0
   -5.4065    2.9085   -0.2602 C   0  0  0  0  0  0  0  0  0  0  0  0
   -4.0927    2.5323   -0.4765 C   0  0  0  0  0  0  0  0  0  0  0  0
   -3.5801    1.3962    0.1518 C   0  0  0  0  0  0  0  0  0  0  0  0
   -4.4304    0.6526    0.9924 C   0  0  0  0  0  0  0  0  0  0  0  0
   -5.7340    1.0382    1.1943 C   0  0  0  0  0  0  0  0  0  0  0  0
   -6.6274    0.2273    2.0974 C   0  0  0  0  0  0  0  0  0  0  0  0
   -7.1485    2.0625    3.5957 C   0  0  0  0  0  0  0  0  0  0  0  0
   -8.2253    1.9606    4.6964 C   0  0  0  0  0  0  0  0  0  0  0  0
   -7.7610    0.7354    5.5271 C   0  0  0  0  0  0  0  0  0  0  0  0
   -7.1784   -0.1861    4.4267 C   0  0  2  0  0  0  0  0  0  0  0  0
   -7.9772   -0.7392    3.9327 H   0  0  0  0  0  0  0  0  0  0  0  0
   -6.1536   -1.1506    5.0272 C   0  0  0  0  0  0  0  0  0  0  0  0
   -5.2114   -0.4166    5.8118 O   0  0  0  0  0  0  0  0  0  0  0  0
   -2.3115    0.9435    0.0181 N   0  0  0  0  0  0  0  0  0  0  0  0
   -1.2148    1.6391    0.0167 C   0  0  0  0  0  0  0  0  0  0  0  0
   -1.1937    3.0885    0.0304 C   0  0  0  0  0  0  0  0  0  0  0  0
   -2.0717    3.9244   -0.6393 C   0  0  0  0  0  0  0  0  0  0  0  0
   -1.7840    5.2777   -0.5271 C   0  0  0  0  0  0  0  0  0  0  0  0
   -0.7354    5.6887    0.2273 C   0  0  0  0  0  0  0  0  0  0  0  0
   -0.0725    4.2002    0.8251 S   0  0  0  0  0  0  0  0  0  0  0  0
   -3.2620    3.3778   -1.4053 C   0  0  0  0  0  0  0  0  0  0  0  0
   -0.0111    0.9658    0.0074 N   0  0  0  0  0  0  0  0  0  0  0  0
   -7.2511    2.4745    0.7296 H   0  0  0  0  0  0  0  0  0  0  0  0
   -5.7950    3.7913   -0.7461 H   0  0  0  0  0  0  0  0  0  0  0  0
   -4.0536   -0.2319    1.4844 H   0  0  0  0  0  0  0  0  0  0  0  0
   -7.6596    0.3106    1.7573 H   0  0  0  0  0  0  0  0  0  0  0  0
   -6.3191   -0.8178    2.0702 H   0  0  0  0  0  0  0  0  0  0  0  0
   -6.3982    2.8009    3.8782 H   0  0  0  0  0  0  0  0  0  0  0  0
   -7.6084    2.3450    2.6487 H   0  0  0  0  0  0  0  0  0  0  0  0
   -8.2352    2.8612    5.3104 H   0  0  0  0  0  0  0  0  0  0  0  0
   -9.2073    1.7801    4.2592 H   0  0  0  0  0  0  0  0  0  0  0  0
   -6.9924    1.0196    6.2458 H   0  0  0  0  0  0  0  0  0  0  0  0
   -8.6048    0.2610    6.0281 H   0  0  0  0  0  0  0  0  0  0  0  0
   -6.6648   -1.8770    5.6588 H   0  0  0  0  0  0  0  0  0  0  0  0
   -5.6308   -1.6711    4.2247 H   0  0  0  0  0  0  0  0  0  0  0  0
   -4.5304   -0.9656    6.2240 H   0  0  0  0  0  0  0  0  0  0  0  0
   -2.3958    6.0039   -1.0417 H   0  0  0  0  0  0  0  0  0  0  0  0
   -0.3950    6.6970    0.4113 H   0  0  0  0  0  0  0  0  0  0  0  0
   -2.9116    2.7686   -2.2384 H   0  0  0  0  0  0  0  0  0  0  0  0
   -3.8639    4.2044   -1.7830 H   0  0  0  0  0  0  0  0  0  0  0  0
    0.0021   -0.0041    0.0020 H   0  0  0  0  0  0  0  0  0  0  0  0
    0.8223    1.4622    0.0021 H   0  0  0  0  0  0  0  0  0  0  0  0
   -6.5131    0.7392    3.4880 N   0  3  1  0  0  0  0  0  0  0  0  0
   -5.5198    0.8182    3.7355 H   0  0  0  0  0  0  0  0  0  0  0  0
  1  6  2  0  0  0  0
  1  2  1  0  0  0  0
  1 24  1  0  0  0  0
  2  3  2  0  0  0  0
  2 25  1  0  0  0  0
  3 22  1  0  0  0  0
  3  4  1  0  0  0  0
  4  5  2  0  0  0  0
  4 15  1  0  0  0  0
  5  6  1  0  0  0  0
  5 26  1  0  0  0  0
  6  7  1  0  0  0  0
  7 27  1  0  0  0  0
  7 28  1  0  0  0  0
  7 44  1  0  0  0  0
  8  9  1  0  0  0  0
  8 29  1  0  0  0  0
  8 30  1  0  0  0  0
  8 44  1  0  0  0  0
  9 10  1  0  0  0  0
  9 31  1  0  0  0  0
  9 32  1  0  0  0  0
 10 11  1  0  0  0  0
 10 33  1  0  0  0  0
 10 34  1  0  0  0  0
 11 12  1  0  0  0  0
 11 13  1  0  0  0  0
 11 44  1  0  0  0  0
 13 14  1  0  0  0  0
 13 35  1  0  0  0  0
 13 36  1  0  0  0  0
 14 37  1  0  0  0  0
 15 16  2  0  0  0  0
 16 17  1  0  0  0  0
 16 23  1  0  0  0  0
 17 21  1  0  0  0  0
 17 18  2  0  0  0  0
 18 19  1  0  0  0  0
 18 22  1  0  0  0  0
 19 20  2  0  0  0  0
 19 38  1  0  0  0  0
 20 21  1  0  0  0  0
 20 39  1  0  0  0  0
 22 40  1  0  0  0  0
 22 41  1  0  0  0  0
 23 42  1  0  0  0  0
 23 43  1  0  0  0  0
 44 45  1  0  0  0  0
M  CHG  1  44   1
M  END
$$$$
ZINC03997186
  -OEChem-08230709453D

 45 47  0     0  0  0  0  0  0999 V2000
   -0.2403   -0.7797    1.1842 C   0  0  0  0  0  0  0  0  0  0  0  0
   -0.0548    0.0442   -0.0916 C   0  0  0  0  0  0  0  0  0  0  0  0
    1.3769    0.5122   -0.2158 C   0  0  0  0  0  0  0  0  0  0  0  0
    2.5728   -0.1624   -0.3236 C   0  0  0  0  0  0  0  0  0  0  0  0
    3.7579    0.5446   -0.4261 C   0  0  0  0  0  0  0  0  0  0  0  0
    3.7369    1.9276   -0.4196 C   0  0  0  0  0  0  0  0  0  0  0  0
    2.5411    2.6061   -0.3114 C   0  0  0  0  0  0  0  0  0  0  0  0
    1.3427    1.9008   -0.2081 C   0  0  0  0  0  0  0  0  0  0  0  0
    0.0295    2.3533   -0.0912 N   0  0  0  0  0  0  0  0  0  0  0  0
   -0.8580    1.3253   -0.0167 C   0  0  0  0  0  0  0  0  0  0  0  0
   -2.2049    1.4282    0.0969 C   0  0  0  0  0  0  0  0  0  0  0  0
   -2.9929    0.2708    0.1678 C   0  0  0  0  0  0  0  0  0  0  0  0
   -2.4801   -0.8227    0.0324 O   0  0  0  0  0  0  0  0  0  0  0  0
   -4.4758    0.3826    0.4118 C   0  0  0  0  0  0  0  0  0  0  0  0
   -5.2075   -1.2725    0.4495 S   0  0  0  0  0  0  0  0  0  0  0  0
   -6.8943   -0.8547    0.7411 C   0  0  0  0  0  0  0  0  0  0  0  0
   -7.8202   -1.8488    0.8421 N   0  0  0  0  0  0  0  0  0  0  0  0
   -7.5387   -2.8040    0.7510 H   0  0  0  0  0  0  0  0  0  0  0  0
   -9.1164   -1.5472    1.0648 C   0  0  0  0  0  0  0  0  0  0  0  0
   -9.9529   -2.4320    1.1558 O   0  0  0  0  0  0  0  0  0  0  0  0
   -9.4856   -0.2044    1.1891 C   0  0  0  0  0  0  0  0  0  0  0  0
   -8.5040    0.7707    1.0788 C   0  0  0  0  0  0  0  0  0  0  0  0
   -7.2336    0.4123    0.8625 N   0  0  0  0  0  0  0  0  0  0  0  0
   -8.8369    2.1053    1.1969 N   0  0  0  0  0  0  0  0  0  0  0  0
   -0.3497    3.7678   -0.0530 C   0  0  0  0  0  0  0  0  0  0  0  0
   -0.4604   -0.7712   -1.3211 C   0  0  0  0  0  0  0  0  0  0  0  0
   -1.2973   -0.8062    1.4491 H   0  0  0  0  0  0  0  0  0  0  0  0
    0.1177   -1.7954    1.0161 H   0  0  0  0  0  0  0  0  0  0  0  0
    0.3265   -0.3245    1.9963 H   0  0  0  0  0  0  0  0  0  0  0  0
    2.5856   -1.2424   -0.3287 H   0  0  0  0  0  0  0  0  0  0  0  0
    4.6969    0.0179   -0.5108 H   0  0  0  0  0  0  0  0  0  0  0  0
    4.6620    2.4791   -0.5000 H   0  0  0  0  0  0  0  0  0  0  0  0
    2.5328    3.6861   -0.3070 H   0  0  0  0  0  0  0  0  0  0  0  0
   -2.6710    2.4018    0.1329 H   0  0  0  0  0  0  0  0  0  0  0  0
   -4.6361    0.8380    1.2875 H   0  0  0  0  0  0  0  0  0  0  0  0
   -4.9330    0.9638   -0.3890 H   0  0  0  0  0  0  0  0  0  0  0  0
  -10.5150    0.0689    1.3680 H   0  0  0  0  0  0  0  0  0  0  0  0
   -9.7581    2.3631    1.3572 H   0  0  0  0  0  0  0  0  0  0  0  0
   -8.1494    2.7853    1.1195 H   0  0  0  0  0  0  0  0  0  0  0  0
   -0.3538    4.1152    0.9801 H   0  0  0  0  0  0  0  0  0  0  0  0
    0.3674    4.3519   -0.6299 H   0  0  0  0  0  0  0  0  0  0  0  0
   -1.3448    3.8889   -0.4810 H   0  0  0  0  0  0  0  0  0  0  0  0
    0.0705   -0.3971   -2.1964 H   0  0  0  0  0  0  0  0  0  0  0  0
   -0.2060   -1.8191   -1.1622 H   0  0  0  0  0  0  0  0  0  0  0  0
   -1.5347   -0.6782   -1.4805 H   0  0  0  0  0  0  0  0  0  0  0  0
  1  2  1  0  0  0  0
  1 27  1  0  0  0  0
  1 28  1  0  0  0  0
  1 29  1  0  0  0  0
  2 10  1  0  0  0  0
  2  3  1  0  0  0  0
  2 26  1  0  0  0  0
  3  8  2  0  0  0  0
  3  4  1  0  0  0  0
  4  5  2  0  0  0  0
  4 30  1  0  0  0  0
  5  6  1  0  0  0  0
  5 31  1  0  0  0  0
  6  7  2  0  0  0  0
  6 32  1  0  0  0  0
  7  8  1  0  0  0  0
  7 33  1  0  0  0  0
  8  9  1  0  0  0  0
  9 10  1  0  0  0  0
  9 25  1  0  0  0  0
 10 11  2  0  0  0  0
 11 12  1  0  0  0  0
 11 34  1  0  0  0  0
 12 13  2  0  0  0  0
 12 14  1  0  0  0  0
 14 15  1  0  0  0  0
 14 35  1  0  0  0  0
 14 36  1  0  0  0  0
 15 16  1  0  0  0  0
 16 23  2  0  0  0  0
 16 17  1  0  0  0  0
 17 18  1  0  0  0  0
 17 19  1  0  0  0  0
 19 20  2  0  0  0  0
 19 21  1  0  0  0  0
 21 22  2  0  0  0  0
 21 37  1  0  0  0  0
 22 23  1  0  0  0  0
 22 24  1  0  0  0  0
 24 38  1  0  0  0  0
 24 39  1  0  0  0  0
 25 40  1  0  0  0  0
 25 41  1  0  0  0  0
 25 42  1  0  0  0  0
 26 43  1  0  0  0  0
 26 44  1  0  0  0  0
 26 45  1  0  0  0  0
M  END
$$$$
ZINC03997186
  -OEChem-08230709453D

 45 47  0     0  0  0  0  0  0999 V2000
   -0.2403   -0.7797    1.1842 C   0  0  0  0  0  0  0  0  0  0  0  0
   -0.0548    0.0442   -0.0916 C   0  0  0  0  0  0  0  0  0  0  0  0
    1.3769    0.5122   -0.2158 C   0  0  0  0  0  0  0  0  0  0  0  0
    2.5728   -0.1624   -0.3236 C   0  0  0  0  0  0  0  0  0  0  0  0
    3.7579    0.5446   -0.4261 C   0  0  0  0  0  0  0  0  0  0  0  0
    3.7369    1.9276   -0.4196 C   0  0  0  0  0  0  0  0  0  0  0  0
    2.5411    2.6061   -0.3114 C   0  0  0  0  0  0  0  0  0  0  0  0
    1.3427    1.9008   -0.2081 C   0  0  0  0  0  0  0  0  0  0  0  0
    0.0295    2.3533   -0.0912 N   0  0  0  0  0  0  0  0  0  0  0  0
   -0.8580    1.3253   -0.0167 C   0  0  0  0  0  0  0  0  0  0  0  0
   -2.2049    1.4282    0.0969 C   0  0  0  0  0  0  0  0  0  0  0  0
   -2.9929    0.2708    0.1678 C   0  0  0  0  0  0  0  0  0  0  0  0
   -2.4801   -0.8227    0.0324 O   0  0  0  0  0  0  0  0  0  0  0  0
   -4.4758    0.3826    0.4118 C   0  0  0  0  0  0  0  0  0  0  0  0
   -5.2075   -1.2725    0.4495 S   0  0  0  0  0  0  0  0  0  0  0  0
   -6.8943   -0.8547    0.7411 C   0  0  0  0  0  0  0  0  0  0  0  0
   -7.8217   -1.8483    0.8324 N   0  0  0  0  0  0  0  0  0  0  0  0
  -10.8538   -2.0248    1.3064 H   0  0  0  0  0  0  0  0  0  0  0  0
   -9.1180   -1.5467    1.0548 C   0  0  0  0  0  0  0  0  0  0  0  0
   -9.9551   -2.4313    1.1418 O   0  0  0  0  0  0  0  0  0  0  0  0
   -9.4851   -0.2046    1.1923 C   0  0  0  0  0  0  0  0  0  0  0  0
   -8.5027    0.7703    1.0868 C   0  0  0  0  0  0  0  0  0  0  0  0
   -7.2330    0.4121    0.8664 N   0  0  0  0  0  0  0  0  0  0  0  0
   -8.8350    2.1046    1.2090 N   0  0  0  0  0  0  0  0  0  0  0  0
   -0.3497    3.7678   -0.0530 C   0  0  0  0  0  0  0  0  0  0  0  0
   -0.4604   -0.7712   -1.3211 C   0  0  0  0  0  0  0  0  0  0  0  0
   -1.2973   -0.8062    1.4491 H   0  0  0  0  0  0  0  0  0  0  0  0
    0.1177   -1.7954    1.0161 H   0  0  0  0  0  0  0  0  0  0  0  0
    0.3265   -0.3245    1.9963 H   0  0  0  0  0  0  0  0  0  0  0  0
    2.5856   -1.2424   -0.3287 H   0  0  0  0  0  0  0  0  0  0  0  0
    4.6969    0.0179   -0.5108 H   0  0  0  0  0  0  0  0  0  0  0  0
    4.6620    2.4791   -0.5000 H   0  0  0  0  0  0  0  0  0  0  0  0
    2.5328    3.6861   -0.3070 H   0  0  0  0  0  0  0  0  0  0  0  0
   -2.6710    2.4018    0.1329 H   0  0  0  0  0  0  0  0  0  0  0  0
   -4.6361    0.8380    1.2875 H   0  0  0  0  0  0  0  0  0  0  0  0
   -4.9330    0.9638   -0.3890 H   0  0  0  0  0  0  0  0  0  0  0  0
  -10.5140    0.0685    1.3740 H   0  0  0  0  0  0  0  0  0  0  0  0
   -9.7557    2.3623    1.3723 H   0  0  0  0  0  0  0  0  0  0  0  0
   -8.1476    2.7847    1.1315 H   0  0  0  0  0  0  0  0  0  0  0  0
   -0.3538    4.1152    0.9801 H   0  0  0  0  0  0  0  0  0  0  0  0
    0.3674    4.3519   -0.6299 H   0  0  0  0  0  0  0  0  0  0  0  0
   -1.3448    3.8889   -0.4810 H   0  0  0  0  0  0  0  0  0  0  0  0
    0.0705   -0.3971   -2.1964 H   0  0  0  0  0  0  0  0  0  0  0  0
   -0.2060   -1.8191   -1.1622 H   0  0  0  0  0  0  0  0  0  0  0  0
   -1.5347   -0.6782   -1.4805 H   0  0  0  0  0  0  0  0  0  0  0  0
  1  2  1  0  0  0  0
  1 27  1  0  0  0  0
  1 28  1  0  0  0  0
  1 29  1  0  0  0  0
  2 10  1  0  0  0  0
  2  3  1  0  0  0  0
  2 26  1  0  0  0  0
  3  8  2  0  0  0  0
  3  4  1  0  0  0  0
  4  5  2  0  0  0  0
  4 30  1  0  0  0  0
  5  6  1  0  0  0  0
  5 31  1  0  0  0  0
  6  7  2  0  0  0  0
  6 32  1  0  0  0  0
  7  8  1  0  0  0  0
  7 33  1  0  0  0  0
  8  9  1  0  0  0  0
  9 10  1  0  0  0  0
  9 25  1  0  0  0  0
 10 11  2  0  0  0  0
 11 12  1  0  0  0  0
 11 34  1  0  0  0  0
 12 13  2  0  0  0  0
 12 14  1  0  0  0  0
 14 15  1  0  0  0  0
 14 35  1  0  0  0  0
 14 36  1  0  0  0  0
 15 16  1  0  0  0  0
 16 23  2  0  0  0  0
 16 17  1  0  0  0  0
 17 19  2  0  0  0  0
 18 20  1  0  0  0  0
 19 20  1  0  0  0  0
 19 21  1  0  0  0  0
 21 37  1  0  0  0  0
 21 22  2  0  0  0  0
 22 24  1  0  0  0  0
 22 23  1  0  0  0  0
 24 38  1  0  0  0  0
 24 39  1  0  0  0  0
 25 40  1  0  0  0  0
 25 41  1  0  0  0  0
 25 42  1  0  0  0  0
 26 43  1  0  0  0  0
 26 44  1  0  0  0  0
 26 45  1  0  0  0  0
M  END
$$$$
ZINC03997186
  -OEChem-08230709453D

 45 47  0     0  0  0  0  0  0999 V2000
   -0.2406   -0.7827    1.1551 C   0  0  0  0  0  0  0  0  0  0  0  0
   -0.0586    0.0449   -0.1188 C   0  0  0  0  0  0  0  0  0  0  0  0
    1.3729    0.5128   -0.2459 C   0  0  0  0  0  0  0  0  0  0  0  0
    2.5683   -0.1619   -0.3592 C   0  0  0  0  0  0  0  0  0  0  0  0
    3.7533    0.5450   -0.4631 C   0  0  0  0  0  0  0  0  0  0  0  0
    3.7328    1.9280   -0.4524 C   0  0  0  0  0  0  0  0  0  0  0  0
    2.5376    2.6066   -0.3387 C   0  0  0  0  0  0  0  0  0  0  0  0
    1.3392    1.9014   -0.2339 C   0  0  0  0  0  0  0  0  0  0  0  0
    0.0265    2.3540   -0.1118 N   0  0  0  0  0  0  0  0  0  0  0  0
   -0.8611    1.3260   -0.0377 C   0  0  0  0  0  0  0  0  0  0  0  0
   -2.2076    1.4290    0.0802 C   0  0  0  0  0  0  0  0  0  0  0  0
   -2.9958    0.2717    0.1500 C   0  0  0  0  0  0  0  0  0  0  0  0
   -2.4838   -0.8216    0.0098 O   0  0  0  0  0  0  0  0  0  0  0  0
   -4.4779    0.3833    0.3987 C   0  0  0  0  0  0  0  0  0  0  0  0
   -5.2101   -1.2717    0.4336 S   0  0  0  0  0  0  0  0  0  0  0  0
   -6.8959   -0.8542    0.7315 C   0  0  0  0  0  0  0  0  0  0  0  0
   -7.8218   -1.8483    0.8323 N   0  0  0  0  0  0  0  0  0  0  0  0
   -6.5308    1.1190    0.7816 H   0  0  0  0  0  0  0  0  0  0  0  0
   -9.1164   -1.5472    1.0648 C   0  0  0  0  0  0  0  0  0  0  0  0
   -9.9529   -2.4320    1.1558 O   0  0  0  0  0  0  0  0  0  0  0  0
   -9.4875   -0.2038    1.1776 C   0  0  0  0  0  0  0  0  0  0  0  0
   -8.5058    0.7713    1.0675 C   0  0  0  0  0  0  0  0  0  0  0  0
   -7.2353    0.4128    0.8522 N   0  0  0  0  0  0  0  0  0  0  0  0
   -8.8396    2.1061    1.1800 N   0  0  0  0  0  0  0  0  0  0  0  0
   -0.3521    3.7685   -0.0682 C   0  0  0  0  0  0  0  0  0  0  0  0
   -0.4681   -0.7667   -1.3495 C   0  0  0  0  0  0  0  0  0  0  0  0
   -1.2968   -0.8097    1.4230 H   0  0  0  0  0  0  0  0  0  0  0  0
    0.1166   -1.7981    0.9829 H   0  0  0  0  0  0  0  0  0  0  0  0
    0.3288   -0.3302    1.9668 H   0  0  0  0  0  0  0  0  0  0  0  0
    2.5807   -1.2419   -0.3676 H   0  0  0  0  0  0  0  0  0  0  0  0
    4.6919    0.0183   -0.5522 H   0  0  0  0  0  0  0  0  0  0  0  0
    4.6578    2.4794   -0.5339 H   0  0  0  0  0  0  0  0  0  0  0  0
    2.5296    3.6866   -0.3310 H   0  0  0  0  0  0  0  0  0  0  0  0
   -2.6733    2.4027    0.1205 H   0  0  0  0  0  0  0  0  0  0  0  0
   -4.6355    0.8361    1.2763 H   0  0  0  0  0  0  0  0  0  0  0  0
   -4.9373    0.9670   -0.3990 H   0  0  0  0  0  0  0  0  0  0  0  0
  -10.5177    0.0697    1.3514 H   0  0  0  0  0  0  0  0  0  0  0  0
   -9.7615    2.3641    1.3361 H   0  0  0  0  0  0  0  0  0  0  0  0
   -8.1521    2.7861    1.1028 H   0  0  0  0  0  0  0  0  0  0  0  0
   -0.3530    4.1128    0.9659 H   0  0  0  0  0  0  0  0  0  0  0  0
    0.3635    4.3540   -0.6455 H   0  0  0  0  0  0  0  0  0  0  0  0
   -1.3484    3.8912   -0.4929 H   0  0  0  0  0  0  0  0  0  0  0  0
    0.0604   -0.3902   -2.2253 H   0  0  0  0  0  0  0  0  0  0  0  0
   -0.2136   -1.8151   -1.1945 H   0  0  0  0  0  0  0  0  0  0  0  0
   -1.5428   -0.6729   -1.5055 H   0  0  0  0  0  0  0  0  0  0  0  0
  1  2  1  0  0  0  0
  1 27  1  0  0  0  0
  1 28  1  0  0  0  0
  1 29  1  0  0  0  0
  2 10  1  0  0  0  0
  2  3  1  0  0  0  0
  2 26  1  0  0  0  0
  3  8  2  0  0  0  0
  3  4  1  0  0  0  0
  4  5  2  0  0  0  0
  4 30  1  0  0  0  0
  5  6  1  0  0  0  0
  5 31  1  0  0  0  0
  6  7  2  0  0  0  0
  6 32  1  0  0  0  0
  7  8  1  0  0  0  0
  7 33  1  0  0  0  0
  8  9  1  0  0  0  0
  9 10  1  0  0  0  0
  9 25  1  0  0  0  0
 10 11  2  0  0  0  0
 11 12  1  0  0  0  0
 11 34  1  0  0  0  0
 12 13  2  0  0  0  0
 12 14  1  0  0  0  0
 14 15  1  0  0  0  0
 14 35  1  0  0  0  0
 14 36  1  0  0  0  0
 15 16  1  0  0  0  0
 16 23  1  0  0  0  0
 16 17  2  0  0  0  0
 17 19  1  0  0  0  0
 18 23  1  0  0  0  0
 19 20  2  0  0  0  0
 19 21  1  0  0  0  0
 21 37  1  0  0  0  0
 21 22  2  0  0  0  0
 22 24  1  0  0  0  0
 22 23  1  0  0  0  0
 24 38  1  0  0  0  0
 24 39  1  0  0  0  0
 25 40  1  0  0  0  0
 25 41  1  0  0  0  0
 25 42  1  0  0  0  0
 26 43  1  0  0  0  0
 26 44  1  0  0  0  0
 26 45  1  0  0  0  0
M  END
$$$$
ZINC03997187
  -OEChem-08230709453D

 45 47  0     0  0  0  0  0  0999 V2000
    3.9011   -7.7005    0.3119 C   0  0  0  0  0  0  0  0  0  0  0  0
    5.0612   -7.3215   -0.6107 C   0  0  0  0  0  0  0  0  0  0  0  0
    6.3765   -7.7892   -0.0312 C   0  0  0  0  0  0  0  0  0  0  0  0
    6.8667   -9.0377    0.2816 C   0  0  0  0  0  0  0  0  0  0  0  0
    8.1352   -9.1668    0.8192 C   0  0  0  0  0  0  0  0  0  0  0  0
    8.9068   -8.0405    1.0407 C   0  0  0  0  0  0  0  0  0  0  0  0
    8.4188   -6.7888    0.7287 C   0  0  0  0  0  0  0  0  0  0  0  0
    7.1416   -6.6505    0.1866 C   0  0  0  0  0  0  0  0  0  0  0  0
    6.4392   -5.5118   -0.2046 N   0  0  0  0  0  0  0  0  0  0  0  0
    5.2057   -5.8166   -0.6897 C   0  0  0  0  0  0  0  0  0  0  0  0
    4.2802   -4.9398   -1.1506 C   0  0  0  0  0  0  0  0  0  0  0  0
    4.4895   -3.5608   -1.0094 C   0  0  0  0  0  0  0  0  0  0  0  0
    4.7009   -3.0876    0.0899 O   0  0  0  0  0  0  0  0  0  0  0  0
    4.4525   -2.6651   -2.2208 C   0  0  0  0  0  0  0  0  0  0  0  0
    4.7561   -0.9538   -1.7155 S   0  0  0  0  0  0  0  0  0  0  0  0
    4.6593   -0.1508   -3.2808 C   0  0  0  0  0  0  0  0  0  0  0  0
    4.8360    1.1982   -3.3509 N   0  0  0  0  0  0  0  0  0  0  0  0
    5.0182    1.7215   -2.5185 H   0  0  0  0  0  0  0  0  0  0  0  0
    4.7657    1.8296   -4.5413 C   0  0  0  0  0  0  0  0  0  0  0  0
    4.9236    3.0382   -4.6132 O   0  0  0  0  0  0  0  0  0  0  0  0
    4.5089    1.0766   -5.6911 C   0  0  0  0  0  0  0  0  0  0  0  0
    4.3359   -0.2948   -5.5660 C   0  0  0  0  0  0  0  0  0  0  0  0
    4.4171   -0.8668   -4.3596 N   0  0  0  0  0  0  0  0  0  0  0  0
    4.0816   -1.0658   -6.6826 N   0  0  0  0  0  0  0  0  0  0  0  0
    6.9671   -4.1488   -0.1054 C   0  0  0  0  0  0  0  0  0  0  0  0
    4.8532   -7.9137   -2.0060 C   0  0  0  0  0  0  0  0  0  0  0  0
    2.9750   -7.2757   -0.0756 H   0  0  0  0  0  0  0  0  0  0  0  0
    3.8121   -8.7860    0.3567 H   0  0  0  0  0  0  0  0  0  0  0  0
    4.0895   -7.3099    1.3119 H   0  0  0  0  0  0  0  0  0  0  0  0
    6.2615   -9.9151    0.1077 H   0  0  0  0  0  0  0  0  0  0  0  0
    8.5220  -10.1448    1.0650 H   0  0  0  0  0  0  0  0  0  0  0  0
    9.8969   -8.1417    1.4600 H   0  0  0  0  0  0  0  0  0  0  0  0
    9.0274   -5.9141    0.9042 H   0  0  0  0  0  0  0  0  0  0  0  0
    3.3815   -5.3036   -1.6264 H   0  0  0  0  0  0  0  0  0  0  0  0
    3.5544   -2.7298   -2.6559 H   0  0  0  0  0  0  0  0  0  0  0  0
    5.2217   -2.9773   -2.9272 H   0  0  0  0  0  0  0  0  0  0  0  0
    4.4507    1.5525   -6.6589 H   0  0  0  0  0  0  0  0  0  0  0  0
    4.0234   -0.6492   -7.5566 H   0  0  0  0  0  0  0  0  0  0  0  0
    3.9610   -2.0241   -6.5931 H   0  0  0  0  0  0  0  0  0  0  0  0
    6.7290   -3.7374    0.8755 H   0  0  0  0  0  0  0  0  0  0  0  0
    8.0488   -4.1675   -0.2387 H   0  0  0  0  0  0  0  0  0  0  0  0
    6.5163   -3.5274   -0.8791 H   0  0  0  0  0  0  0  0  0  0  0  0
    5.7106   -7.6728   -2.6345 H   0  0  0  0  0  0  0  0  0  0  0  0
    4.7514   -8.9962   -1.9298 H   0  0  0  0  0  0  0  0  0  0  0  0
    3.9495   -7.4939   -2.4479 H   0  0  0  0  0  0  0  0  0  0  0  0
  1  2  1  0  0  0  0
  1 27  1  0  0  0  0
  1 28  1  0  0  0  0
  1 29  1  0  0  0  0
  2 10  1  0  0  0  0
  2  3  1  0  0  0  0
  2 26  1  0  0  0  0
  3  8  2  0  0  0  0
  3  4  1  0  0  0  0
  4  5  2  0  0  0  0
  4 30  1  0  0  0  0
  5  6  1  0  0  0  0
  5 31  1  0  0  0  0
  6  7  2  0  0  0  0
  6 32  1  0  0  0  0
  7  8  1  0  0  0  0
  7 33  1  0  0  0  0
  8  9  1  0  0  0  0
  9 10  1  0  0  0  0
  9 25  1  0  0  0  0
 10 11  2  0  0  0  0
 11 12  1  0  0  0  0
 11 34  1  0  0  0  0
 12 13  2  0  0  0  0
 12 14  1  0  0  0  0
 14 15  1  0  0  0  0
 14 35  1  0  0  0  0
 14 36  1  0  0  0  0
 15 16  1  0  0  0  0
 16 23  2  0  0  0  0
 16 17  1  0  0  0  0
 17 18  1  0  0  0  0
 17 19  1  0  0  0  0
 19 20  2  0  0  0  0
 19 21  1  0  0  0  0
 21 22  2  0  0  0  0
 21 37  1  0  0  0  0
 22 23  1  0  0  0  0
 22 24  1  0  0  0  0
 24 38  1  0  0  0  0
 24 39  1  0  0  0  0
 25 40  1  0  0  0  0
 25 41  1  0  0  0  0
 25 42  1  0  0  0  0
 26 43  1  0  0  0  0
 26 44  1  0  0  0  0
 26 45  1  0  0  0  0
M  END
$$$$
ZINC03997187
  -OEChem-08230709453D

 45 47  0     0  0  0  0  0  0999 V2000
    3.9011   -7.7005    0.3119 C   0  0  0  0  0  0  0  0  0  0  0  0
    5.0612   -7.3215   -0.6107 C   0  0  0  0  0  0  0  0  0  0  0  0
    6.3765   -7.7892   -0.0312 C   0  0  0  0  0  0  0  0  0  0  0  0
    6.8667   -9.0377    0.2816 C   0  0  0  0  0  0  0  0  0  0  0  0
    8.1352   -9.1668    0.8192 C   0  0  0  0  0  0  0  0  0  0  0  0
    8.9068   -8.0405    1.0407 C   0  0  0  0  0  0  0  0  0  0  0  0
    8.4188   -6.7888    0.7287 C   0  0  0  0  0  0  0  0  0  0  0  0
    7.1416   -6.6505    0.1866 C   0  0  0  0  0  0  0  0  0  0  0  0
    6.4392   -5.5118   -0.2046 N   0  0  0  0  0  0  0  0  0  0  0  0
    5.2057   -5.8166   -0.6897 C   0  0  0  0  0  0  0  0  0  0  0  0
    4.2802   -4.9398   -1.1506 C   0  0  0  0  0  0  0  0  0  0  0  0
    4.4895   -3.5608   -1.0094 C   0  0  0  0  0  0  0  0  0  0  0  0
    4.7009   -3.0876    0.0899 O   0  0  0  0  0  0  0  0  0  0  0  0
    4.4525   -2.6651   -2.2208 C   0  0  0  0  0  0  0  0  0  0  0  0
    4.7561   -0.9538   -1.7155 S   0  0  0  0  0  0  0  0  0  0  0  0
    4.6593   -0.1508   -3.2808 C   0  0  0  0  0  0  0  0  0  0  0  0
    4.8347    1.1984   -3.3507 N   0  0  0  0  0  0  0  0  0  0  0  0
    4.8360    3.3297   -5.5657 H   0  0  0  0  0  0  0  0  0  0  0  0
    4.7644    1.8298   -4.5411 C   0  0  0  0  0  0  0  0  0  0  0  0
    4.9218    3.0384   -4.6130 O   0  0  0  0  0  0  0  0  0  0  0  0
    4.5117    1.0762   -5.6915 C   0  0  0  0  0  0  0  0  0  0  0  0
    4.3393   -0.2953   -5.5664 C   0  0  0  0  0  0  0  0  0  0  0  0
    4.4188   -0.8670   -4.3598 N   0  0  0  0  0  0  0  0  0  0  0  0
    4.0867   -1.0665   -6.6833 N   0  0  0  0  0  0  0  0  0  0  0  0
    6.9671   -4.1488   -0.1054 C   0  0  0  0  0  0  0  0  0  0  0  0
    4.8532   -7.9137   -2.0060 C   0  0  0  0  0  0  0  0  0  0  0  0
    2.9750   -7.2757   -0.0756 H   0  0  0  0  0  0  0  0  0  0  0  0
    3.8121   -8.7860    0.3567 H   0  0  0  0  0  0  0  0  0  0  0  0
    4.0895   -7.3099    1.3119 H   0  0  0  0  0  0  0  0  0  0  0  0
    6.2615   -9.9151    0.1077 H   0  0  0  0  0  0  0  0  0  0  0  0
    8.5220  -10.1448    1.0650 H   0  0  0  0  0  0  0  0  0  0  0  0
    9.8969   -8.1417    1.4600 H   0  0  0  0  0  0  0  0  0  0  0  0
    9.0274   -5.9141    0.9042 H   0  0  0  0  0  0  0  0  0  0  0  0
    3.3815   -5.3036   -1.6264 H   0  0  0  0  0  0  0  0  0  0  0  0
    3.5544   -2.7298   -2.6559 H   0  0  0  0  0  0  0  0  0  0  0  0
    5.2217   -2.9773   -2.9272 H   0  0  0  0  0  0  0  0  0  0  0  0
    4.4506    1.5525   -6.6589 H   0  0  0  0  0  0  0  0  0  0  0  0
    4.0298   -0.6501   -7.5574 H   0  0  0  0  0  0  0  0  0  0  0  0
    3.9661   -2.0248   -6.5938 H   0  0  0  0  0  0  0  0  0  0  0  0
    6.7290   -3.7374    0.8755 H   0  0  0  0  0  0  0  0  0  0  0  0
    8.0488   -4.1675   -0.2387 H   0  0  0  0  0  0  0  0  0  0  0  0
    6.5163   -3.5274   -0.8791 H   0  0  0  0  0  0  0  0  0  0  0  0
    5.7106   -7.6728   -2.6345 H   0  0  0  0  0  0  0  0  0  0  0  0
    4.7514   -8.9962   -1.9298 H   0  0  0  0  0  0  0  0  0  0  0  0
    3.9495   -7.4939   -2.4479 H   0  0  0  0  0  0  0  0  0  0  0  0
  1  2  1  0  0  0  0
  1 27  1  0  0  0  0
  1 28  1  0  0  0  0
  1 29  1  0  0  0  0
  2 10  1  0  0  0  0
  2  3  1  0  0  0  0
  2 26  1  0  0  0  0
  3  8  2  0  0  0  0
  3  4  1  0  0  0  0
  4  5  2  0  0  0  0
  4 30  1  0  0  0  0
  5  6  1  0  0  0  0
  5 31  1  0  0  0  0
  6  7  2  0  0  0  0
  6 32  1  0  0  0  0
  7  8  1  0  0  0  0
  7 33  1  0  0  0  0
  8  9  1  0  0  0  0
  9 10  1  0  0  0  0
  9 25  1  0  0  0  0
 10 11  2  0  0  0  0
 11 12  1  0  0  0  0
 11 34  1  0  0  0  0
 12 13  2  0  0  0  0
 12 14  1  0  0  0  0
 14 15  1  0  0  0  0
 14 35  1  0  0  0  0
 14 36  1  0  0  0  0
 15 16  1  0  0  0  0
 16 23  2  0  0  0  0
 16 17  1  0  0  0  0
 17 19  2  0  0  0  0
 18 20  1  0  0  0  0
 19 20  1  0  0  0  0
 19 21  1  0  0  0  0
 21 37  1  0  0  0  0
 21 22  2  0  0  0  0
 22 24  1  0  0  0  0
 22 23  1  0  0  0  0
 24 38  1  0  0  0  0
 24 39  1  0  0  0  0
 25 40  1  0  0  0  0
 25 41  1  0  0  0  0
 25 42  1  0  0  0  0
 26 43  1  0  0  0  0
 26 44  1  0  0  0  0
 26 45  1  0  0  0  0
M  END
$$$$
ZINC03997187
  -OEChem-08230709453D

 45 47  0     0  0  0  0  0  0999 V2000
    3.8983   -7.7001    0.3122 C   0  0  0  0  0  0  0  0  0  0  0  0
    5.0589   -7.3211   -0.6098 C   0  0  0  0  0  0  0  0  0  0  0  0
    6.3739   -7.7887   -0.0296 C   0  0  0  0  0  0  0  0  0  0  0  0
    6.8640   -9.0372    0.2836 C   0  0  0  0  0  0  0  0  0  0  0  0
    8.1322   -9.1662    0.8219 C   0  0  0  0  0  0  0  0  0  0  0  0
    8.9036   -8.0398    1.0437 C   0  0  0  0  0  0  0  0  0  0  0  0
    8.4157   -6.7882    0.7313 C   0  0  0  0  0  0  0  0  0  0  0  0
    7.1388   -6.6500    0.1885 C   0  0  0  0  0  0  0  0  0  0  0  0
    6.4366   -5.5113   -0.2031 N   0  0  0  0  0  0  0  0  0  0  0  0
    5.2033   -5.8162   -0.6889 C   0  0  0  0  0  0  0  0  0  0  0  0
    4.2780   -4.9395   -1.1503 C   0  0  0  0  0  0  0  0  0  0  0  0
    4.4872   -3.5605   -1.0091 C   0  0  0  0  0  0  0  0  0  0  0  0
    4.6980   -3.0872    0.0903 O   0  0  0  0  0  0  0  0  0  0  0  0
    4.4508   -2.6649   -2.2206 C   0  0  0  0  0  0  0  0  0  0  0  0
    4.7541   -0.9535   -1.7152 S   0  0  0  0  0  0  0  0  0  0  0  0
    4.6581   -0.1506   -3.2806 C   0  0  0  0  0  0  0  0  0  0  0  0
    4.8347    1.1984   -3.3507 N   0  0  0  0  0  0  0  0  0  0  0  0
    4.2916   -1.8553   -4.2752 H   0  0  0  0  0  0  0  0  0  0  0  0
    4.7657    1.8296   -4.5413 C   0  0  0  0  0  0  0  0  0  0  0  0
    4.9236    3.0382   -4.6132 O   0  0  0  0  0  0  0  0  0  0  0  0
    4.5098    1.0765   -5.6912 C   0  0  0  0  0  0  0  0  0  0  0  0
    4.3368   -0.2949   -5.5661 C   0  0  0  0  0  0  0  0  0  0  0  0
    4.4169   -0.8668   -4.3596 N   0  0  0  0  0  0  0  0  0  0  0  0
    4.0830   -1.0660   -6.6828 N   0  0  0  0  0  0  0  0  0  0  0  0
    6.9643   -4.1483   -0.1037 C   0  0  0  0  0  0  0  0  0  0  0  0
    4.8517   -7.9134   -2.0052 C   0  0  0  0  0  0  0  0  0  0  0  0
    2.9724   -7.2754   -0.0759 H   0  0  0  0  0  0  0  0  0  0  0  0
    3.8093   -8.7856    0.3570 H   0  0  0  0  0  0  0  0  0  0  0  0
    4.0861   -7.3094    1.3122 H   0  0  0  0  0  0  0  0  0  0  0  0
    6.2589   -9.9146    0.1094 H   0  0  0  0  0  0  0  0  0  0  0  0
    8.5189  -10.1441    1.0679 H   0  0  0  0  0  0  0  0  0  0  0  0
    9.8935   -8.1409    1.4635 H   0  0  0  0  0  0  0  0  0  0  0  0
    9.0242   -5.9134    0.9071 H   0  0  0  0  0  0  0  0  0  0  0  0
    3.3796   -5.3034   -1.6266 H   0  0  0  0  0  0  0  0  0  0  0  0
    3.5530   -2.7296   -2.6561 H   0  0  0  0  0  0  0  0  0  0  0  0
    5.2204   -2.9771   -2.9265 H   0  0  0  0  0  0  0  0  0  0  0  0
    4.4477    1.5529   -6.6585 H   0  0  0  0  0  0  0  0  0  0  0  0
    4.0251   -0.6494   -7.5568 H   0  0  0  0  0  0  0  0  0  0  0  0
    3.9624   -2.0243   -6.5933 H   0  0  0  0  0  0  0  0  0  0  0  0
    6.7257   -3.7368    0.8770 H   0  0  0  0  0  0  0  0  0  0  0  0
    8.0461   -4.1670   -0.2364 H   0  0  0  0  0  0  0  0  0  0  0  0
    6.5139   -3.5270   -0.8777 H   0  0  0  0  0  0  0  0  0  0  0  0
    5.7094   -7.6725   -2.6333 H   0  0  0  0  0  0  0  0  0  0  0  0
    4.7499   -8.9959   -1.9290 H   0  0  0  0  0  0  0  0  0  0  0  0
    3.9482   -7.4937   -2.4476 H   0  0  0  0  0  0  0  0  0  0  0  0
  1  2  1  0  0  0  0
  1 27  1  0  0  0  0
  1 28  1  0  0  0  0
  1 29  1  0  0  0  0
  2 10  1  0  0  0  0
  2  3  1  0  0  0  0
  2 26  1  0  0  0  0
  3  8  2  0  0  0  0
  3  4  1  0  0  0  0
  4  5  2  0  0  0  0
  4 30  1  0  0  0  0
  5  6  1  0  0  0  0
  5 31  1  0  0  0  0
  6  7  2  0  0  0  0
  6 32  1  0  0  0  0
  7  8  1  0  0  0  0
  7 33  1  0  0  0  0
  8  9  1  0  0  0  0
  9 10  1  0  0  0  0
  9 25  1  0  0  0  0
 10 11  2  0  0  0  0
 11 12  1  0  0  0  0
 11 34  1  0  0  0  0
 12 13  2  0  0  0  0
 12 14  1  0  0  0  0
 14 15  1  0  0  0  0
 14 35  1  0  0  0  0
 14 36  1  0  0  0  0
 15 16  1  0  0  0  0
 16 23  1  0  0  0  0
 16 17  2  0  0  0  0
 17 19  1  0  0  0  0
 18 23  1  0  0  0  0
 19 20  2  0  0  0  0
 19 21  1  0  0  0  0
 21 37  1  0  0  0  0
 21 22  2  0  0  0  0
 22 24  1  0  0  0  0
 22 23  1  0  0  0  0
 24 38  1  0  0  0  0
 24 39  1  0  0  0  0
 25 40  1  0  0  0  0
 25 41  1  0  0  0  0
 25 42  1  0  0  0  0
 26 43  1  0  0  0  0
 26 44  1  0  0  0  0
 26 45  1  0  0  0  0
M  END
$$$$
ZINC04000554
  -OEChem-08230709453D

 40 43  0     0  0  0  0  0  0999 V2000
   -0.0140   -5.0929   -2.3229 C   0  0  0  0  0  0  0  0  0  0  0  0
   -1.1028   -4.9024   -3.1456 C   0  0  0  0  0  0  0  0  0  0  0  0
   -1.4496   -5.8673   -4.0827 C   0  0  0  0  0  0  0  0  0  0  0  0
   -0.7003   -7.0335   -4.1977 C   0  0  0  0  0  0  0  0  0  0  0  0
    0.4004   -7.2337   -3.3777 C   0  0  0  0  0  0  0  0  0  0  0  0
    0.7467   -6.2611   -2.4287 C   0  0  0  0  0  0  0  0  0  0  0  0
    1.9107   -6.4667   -1.5513 C   0  0  0  0  0  0  0  0  0  0  0  0
    2.0010   -5.8179   -0.4292 N   0  0  0  0  0  0  0  0  0  0  0  0
    0.9212   -5.0490    0.0243 N   0  0  0  0  0  0  0  0  0  0  0  0
   -0.2685   -5.6651    0.2333 C   0  0  0  0  0  0  0  0  0  0  0  0
   -1.3395   -5.0291    0.6572 N   0  0  0  0  0  0  0  0  0  0  0  0
   -1.2254   -3.7248    0.8840 C   0  0  0  0  0  0  0  0  0  0  0  0
   -0.0303   -2.9946    0.6969 C   0  0  0  0  0  0  0  0  0  0  0  0
    1.1142   -3.7251    0.2335 C   0  0  0  0  0  0  0  0  0  0  0  0
    2.1917   -3.1882    0.0403 O   0  0  0  0  0  0  0  0  0  0  0  0
   -0.0936   -1.5751    0.9962 C   0  0  0  0  0  0  0  0  0  0  0  0
   -1.2864   -1.0971    1.4221 C   0  0  0  0  0  0  0  0  0  0  0  0
   -2.3696   -2.5034    1.4437 S   0  0  0  0  0  0  0  0  0  0  0  0
   -1.6170    0.3152    1.7942 C   0  0  0  0  0  0  0  0  0  0  0  0
   -0.3042    1.0894    1.9795 C   0  0  0  0  0  0  0  0  0  0  0  0
    0.6084    0.8003    0.7850 C   0  0  0  0  0  0  0  0  0  0  0  0
    1.1066   -0.6436    0.8485 C   0  0  0  0  0  0  0  0  0  0  0  0
    1.1377   -8.3693   -3.4909 O   0  0  0  0  0  0  0  0  0  0  0  0
   -1.0441   -7.9756   -5.1178 O   0  0  0  0  0  0  0  0  0  0  0  0
   -2.5249   -5.6710   -4.8904 O   0  0  0  0  0  0  0  0  0  0  0  0
    0.2521   -4.3394   -1.5964 H   0  0  0  0  0  0  0  0  0  0  0  0
   -1.6887   -3.9990   -3.0618 H   0  0  0  0  0  0  0  0  0  0  0  0
    2.6895   -7.1569   -1.8402 H   0  0  0  0  0  0  0  0  0  0  0  0
   -0.3403   -6.7257    0.0429 H   0  0  0  0  0  0  0  0  0  0  0  0
   -2.2046    0.7753    0.9997 H   0  0  0  0  0  0  0  0  0  0  0  0
   -2.1831    0.3258    2.7256 H   0  0  0  0  0  0  0  0  0  0  0  0
   -0.5136    2.1579    2.0299 H   0  0  0  0  0  0  0  0  0  0  0  0
    0.1844    0.7662    2.8987 H   0  0  0  0  0  0  0  0  0  0  0  0
    1.4610    1.4790    0.8078 H   0  0  0  0  0  0  0  0  0  0  0  0
    0.0505    0.9506   -0.1392 H   0  0  0  0  0  0  0  0  0  0  0  0
    1.7695   -0.7637    1.7054 H   0  0  0  0  0  0  0  0  0  0  0  0
    1.6450   -0.8845   -0.0681 H   0  0  0  0  0  0  0  0  0  0  0  0
    0.8803   -9.0685   -2.8744 H   0  0  0  0  0  0  0  0  0  0  0  0
   -0.6236   -7.8550   -5.9802 H   0  0  0  0  0  0  0  0  0  0  0  0
   -2.3161   -5.2216   -5.7209 H   0  0  0  0  0  0  0  0  0  0  0  0
  1  6  2  0  0  0  0
  1  2  1  0  0  0  0
  1 26  1  0  0  0  0
  2  3  2  0  0  0  0
  2 27  1  0  0  0  0
  3  4  1  0  0  0  0
  3 25  1  0  0  0  0
  4  5  2  0  0  0  0
  4 24  1  0  0  0  0
  5  6  1  0  0  0  0
  5 23  1  0  0  0  0
  6  7  1  0  0  0  0
  7  8  2  0  0  0  0
  7 28  1  0  0  0  0
  8  9  1  0  0  0  0
  9 14  1  0  0  0  0
  9 10  1  0  0  0  0
 10 11  2  0  0  0  0
 10 29  1  0  0  0  0
 11 12  1  0  0  0  0
 12 18  1  0  0  0  0
 12 13  2  0  0  0  0
 13 14  1  0  0  0  0
 13 16  1  0  0  0  0
 14 15  2  0  0  0  0
 16 22  1  0  0  0  0
 16 17  2  0  0  0  0
 17 18  1  0  0  0  0
 17 19  1  0  0  0  0
 19 20  1  0  0  0  0
 19 30  1  0  0  0  0
 19 31  1  0  0  0  0
 20 21  1  0  0  0  0
 20 32  1  0  0  0  0
 20 33  1  0  0  0  0
 21 22  1  0  0  0  0
 21 34  1  0  0  0  0
 21 35  1  0  0  0  0
 22 36  1  0  0  0  0
 22 37  1  0  0  0  0
 23 38  1  0  0  0  0
 24 39  1  0  0  0  0
 25 40  1  0  0  0  0
M  END
$$$$
ZINC04000724
  -OEChem-08230709453D

 45 47  0     0  0  0  0  0  0999 V2000
   -6.2583   10.0967    0.0461 C   0  0  0  0  0  0  0  0  0  0  0  0
   -4.9578    9.3352    0.0332 C   0  0  0  0  0  0  0  0  0  0  0  0
   -4.9174    8.0496   -0.4772 C   0  0  0  0  0  0  0  0  0  0  0  0
   -3.7292    7.3492   -0.4968 C   0  0  0  0  0  0  0  0  0  0  0  0
   -2.5683    7.9361    0.0095 C   0  0  0  0  0  0  0  0  0  0  0  0
   -2.6158    9.2330    0.5223 C   0  0  0  0  0  0  0  0  0  0  0  0
   -3.8097    9.9247    0.5312 C   0  0  0  0  0  0  0  0  0  0  0  0
   -3.8631   11.3252    1.0851 C   0  0  0  0  0  0  0  0  0  0  0  0
   -1.2922    7.1889   -0.0032 C   0  0  0  0  0  0  0  0  0  0  0  0
   -0.1208    7.8495   -0.1081 C   0  0  0  0  0  0  0  0  0  0  0  0
    1.0674    6.5172   -0.0819 S   0  0  0  0  0  0  0  0  0  0  0  0
   -0.0828    5.1602    0.0752 C   0  0  0  0  0  0  0  0  0  0  0  0
    0.1586    3.8755    0.1510 N   0  0  0  0  0  0  0  0  0  0  0  0
    1.5401    3.3925    0.2176 C   0  0  0  0  0  0  0  0  0  0  0  0
   -1.2934    5.8229    0.0964 N   0  0  0  0  0  0  0  0  0  0  0  0
   -2.4963    5.1139    0.2112 N   0  0  0  0  0  0  0  0  0  0  0  0
   -2.6530    4.2516    1.1698 C   0  0  0  0  0  0  0  0  0  0  0  0
   -1.6614    4.1696    2.2559 C   0  0  0  0  0  0  0  0  0  0  0  0
   -0.8678    5.2777    2.5663 C   0  0  0  0  0  0  0  0  0  0  0  0
    0.0630    5.1970    3.5795 C   0  0  0  0  0  0  0  0  0  0  0  0
    0.2099    4.0205    4.3028 C   0  0  0  0  0  0  0  0  0  0  0  0
   -0.5776    2.9133    4.0066 C   0  0  0  0  0  0  0  0  0  0  0  0
   -1.5140    2.9820    2.9852 C   0  0  0  0  0  0  0  0  0  0  0  0
   -2.2849    1.9016    2.6927 O   0  0  0  0  0  0  0  0  0  0  0  0
   -0.4295    1.7626    4.7180 O   0  0  0  0  0  0  0  0  0  0  0  0
    1.1271    3.9509    5.3038 O   0  0  0  0  0  0  0  0  0  0  0  0
   -6.3606   10.6568   -0.8833 H   0  0  0  0  0  0  0  0  0  0  0  0
   -7.0883    9.3966    0.1418 H   0  0  0  0  0  0  0  0  0  0  0  0
   -6.2665   10.7874    0.8893 H   0  0  0  0  0  0  0  0  0  0  0  0
   -5.8172    7.5952   -0.8648 H   0  0  0  0  0  0  0  0  0  0  0  0
   -3.6980    6.3476   -0.8995 H   0  0  0  0  0  0  0  0  0  0  0  0
   -1.7202    9.6942    0.9117 H   0  0  0  0  0  0  0  0  0  0  0  0
   -3.6646   12.0397    0.2862 H   0  0  0  0  0  0  0  0  0  0  0  0
   -4.8520   11.5131    1.5032 H   0  0  0  0  0  0  0  0  0  0  0  0
   -3.1113   11.4358    1.8665 H   0  0  0  0  0  0  0  0  0  0  0  0
    0.0535    8.9121   -0.1910 H   0  0  0  0  0  0  0  0  0  0  0  0
    2.1025    3.7821   -0.6309 H   0  0  0  0  0  0  0  0  0  0  0  0
    1.9997    3.7332    1.1454 H   0  0  0  0  0  0  0  0  0  0  0  0
    1.5458    2.3029    0.1879 H   0  0  0  0  0  0  0  0  0  0  0  0
   -3.5103    3.5948    1.1705 H   0  0  0  0  0  0  0  0  0  0  0  0
   -0.9815    6.1961    2.0096 H   0  0  0  0  0  0  0  0  0  0  0  0
    0.6774    6.0534    3.8149 H   0  0  0  0  0  0  0  0  0  0  0  0
   -3.1488    1.9057    3.1272 H   0  0  0  0  0  0  0  0  0  0  0  0
   -0.9378    1.7403    5.5403 H   0  0  0  0  0  0  0  0  0  0  0  0
    0.7842    4.2094    6.1702 H   0  0  0  0  0  0  0  0  0  0  0  0
  1  2  1  0  0  0  0
  1 27  1  0  0  0  0
  1 28  1  0  0  0  0
  1 29  1  0  0  0  0
  2  7  2  0  0  0  0
  2  3  1  0  0  0  0
  3  4  2  0  0  0  0
  3 30  1  0  0  0  0
  4  5  1  0  0  0  0
  4 31  1  0  0  0  0
  5  6  2  0  0  0  0
  5  9  1  0  0  0  0
  6  7  1  0  0  0  0
  6 32  1  0  0  0  0
  7  8  1  0  0  0  0
  8 33  1  0  0  0  0
  8 34  1  0  0  0  0
  8 35  1  0  0  0  0
  9 15  1  0  0  0  0
  9 10  2  0  0  0  0
 10 11  1  0  0  0  0
 10 36  1  0  0  0  0
 11 12  1  0  0  0  0
 12 13  2  0  0  0  0
 12 15  1  0  0  0  0
 13 14  1  0  0  0  0
 14 37  1  0  0  0  0
 14 38  1  0  0  0  0
 14 39  1  0  0  0  0
 15 16  1  0  0  0  0
 16 17  2  0  0  0  0
 17 18  1  0  0  0  0
 17 40  1  0  0  0  0
 18 23  2  0  0  0  0
 18 19  1  0  0  0  0
 19 20  2  0  0  0  0
 19 41  1  0  0  0  0
 20 21  1  0  0  0  0
 20 42  1  0  0  0  0
 21 22  2  0  0  0  0
 21 26  1  0  0  0  0
 22 23  1  0  0  0  0
 22 25  1  0  0  0  0
 23 24  1  0  0  0  0
 24 43  1  0  0  0  0
 25 44  1  0  0  0  0
 26 45  1  0  0  0  0
M  END
$$$$
ZINC04000898
  -OEChem-08230709453D

 44 46  0     0  0  0  0  0  0999 V2000
    3.3188    7.7052   -0.4138 C   0  0  0  0  0  0  0  0  0  0  0  0
    3.3461    6.2022   -0.3084 C   0  0  0  0  0  0  0  0  0  0  0  0
    3.4201    5.6005    0.9357 C   0  0  0  0  0  0  0  0  0  0  0  0
    3.4459    4.2256    1.0400 C   0  0  0  0  0  0  0  0  0  0  0  0
    3.3972    3.4397   -0.1146 C   0  0  0  0  0  0  0  0  0  0  0  0
    3.3279    4.0545   -1.3677 C   0  0  0  0  0  0  0  0  0  0  0  0
    3.2975    5.4304   -1.4560 C   0  0  0  0  0  0  0  0  0  0  0  0
    3.4228    2.0768   -0.0190 N   0  0  0  0  0  0  0  0  0  0  0  0
    2.2896    1.3926   -0.0071 C   0  0  0  0  0  0  0  0  0  0  0  0
    2.3058    0.0133   -0.0211 N   0  0  0  0  0  0  0  0  0  0  0  0
    3.1480   -0.4678   -0.0397 H   0  0  0  0  0  0  0  0  0  0  0  0
    1.1329   -0.6599   -0.0080 C   0  0  0  0  0  0  0  0  0  0  0  0
    0.0015   -0.0030    0.0175 N   0  0  0  0  0  0  0  0  0  0  0  0
   -0.0161    1.3380    0.0311 C   0  0  0  0  0  0  0  0  0  0  0  0
    1.1105    2.0315    0.0190 N   0  0  0  0  0  0  0  0  0  0  0  0
   -1.2197    2.0001    0.0522 N   0  0  0  0  0  0  0  0  0  0  0  0
    1.1289   -2.1669   -0.0224 C   0  0  0  0  0  0  0  0  0  0  0  0
   -0.3358   -2.7747    0.8501 S   0  0  0  0  0  0  0  0  0  0  0  0
   -0.0918   -4.5118    0.6843 C   0  0  0  0  0  0  0  0  0  0  0  0
    0.9739   -4.9564    0.0333 N   0  0  0  0  0  0  0  0  0  0  0  0
    1.1893   -6.2541   -0.1042 C   0  0  0  0  0  0  0  0  0  0  0  0
    0.2790   -7.1513    0.4323 C   0  0  0  0  0  0  0  0  0  0  0  0
   -0.8274   -6.6525    1.1021 C   0  0  0  0  0  0  0  0  0  0  0  0
   -0.9810   -5.3432    1.2088 N   0  0  0  0  0  0  0  0  0  0  0  0
   -1.8428   -7.5908    1.7017 C   0  0  0  0  0  0  0  0  0  0  0  0
    2.4066   -6.7512   -0.8405 C   0  0  0  0  0  0  0  0  0  0  0  0
    4.3384    8.0825   -0.4931 H   0  0  0  0  0  0  0  0  0  0  0  0
    2.7536    7.9971   -1.2989 H   0  0  0  0  0  0  0  0  0  0  0  0
    2.8448    8.1232    0.4743 H   0  0  0  0  0  0  0  0  0  0  0  0
    3.4581    6.2092    1.8270 H   0  0  0  0  0  0  0  0  0  0  0  0
    3.5041    3.7574    2.0115 H   0  0  0  0  0  0  0  0  0  0  0  0
    3.2944    3.4535   -2.2644 H   0  0  0  0  0  0  0  0  0  0  0  0
    3.2398    5.9069   -2.4235 H   0  0  0  0  0  0  0  0  0  0  0  0
   -2.0496    1.4978    0.0571 H   0  0  0  0  0  0  0  0  0  0  0  0
   -1.2397    2.9698    0.0621 H   0  0  0  0  0  0  0  0  0  0  0  0
    1.1105   -2.5203   -1.0534 H   0  0  0  0  0  0  0  0  0  0  0  0
    2.0266   -2.5373    0.4727 H   0  0  0  0  0  0  0  0  0  0  0  0
    0.4288   -8.2161    0.3310 H   0  0  0  0  0  0  0  0  0  0  0  0
   -2.6169   -7.8073    0.9655 H   0  0  0  0  0  0  0  0  0  0  0  0
   -1.3514   -8.5183    1.9957 H   0  0  0  0  0  0  0  0  0  0  0  0
   -2.2946   -7.1255    2.5778 H   0  0  0  0  0  0  0  0  0  0  0  0
    2.1712   -6.8613   -1.8990 H   0  0  0  0  0  0  0  0  0  0  0  0
    3.2204   -6.0359   -0.7217 H   0  0  0  0  0  0  0  0  0  0  0  0
    2.7087   -7.7161   -0.4332 H   0  0  0  0  0  0  0  0  0  0  0  0
  1  2  1  0  0  0  0
  1 27  1  0  0  0  0
  1 28  1  0  0  0  0
  1 29  1  0  0  0  0
  2  7  2  0  0  0  0
  2  3  1  0  0  0  0
  3  4  2  0  0  0  0
  3 30  1  0  0  0  0
  4  5  1  0  0  0  0
  4 31  1  0  0  0  0
  5  6  2  0  0  0  0
  5  8  1  0  0  0  0
  6  7  1  0  0  0  0
  6 32  1  0  0  0  0
  7 33  1  0  0  0  0
  8  9  2  0  0  0  0
  9 15  1  0  0  0  0
  9 10  1  0  0  0  0
 10 11  1  0  0  0  0
 10 12  1  0  0  0  0
 12 13  2  0  0  0  0
 12 17  1  0  0  0  0
 13 14  1  0  0  0  0
 14 15  2  0  0  0  0
 14 16  1  0  0  0  0
 16 34  1  0  0  0  0
 16 35  1  0  0  0  0
 17 18  1  0  0  0  0
 17 36  1  0  0  0  0
 17 37  1  0  0  0  0
 18 19  1  0  0  0  0
 19 24  2  0  0  0  0
 19 20  1  0  0  0  0
 20 21  2  0  0  0  0
 21 22  1  0  0  0  0
 21 26  1  0  0  0  0
 22 23  2  0  0  0  0
 22 38  1  0  0  0  0
 23 24  1  0  0  0  0
 23 25  1  0  0  0  0
 25 39  1  0  0  0  0
 25 40  1  0  0  0  0
 25 41  1  0  0  0  0
 26 42  1  0  0  0  0
 26 43  1  0  0  0  0
 26 44  1  0  0  0  0
M  END
$$$$
ZINC04000929
  -OEChem-08230709453D

 47 50  0     1  0  0  0  0  0999 V2000
   -1.1857    7.3526    0.0538 C   0  0  0  0  0  0  0  0  0  0  0  0
   -1.3617    5.8328    0.0468 C   0  0  0  0  0  0  0  0  0  0  0  0
   -0.0782    5.2047    0.0312 O   0  0  0  0  0  0  0  0  0  0  0  0
   -0.0563    3.8450    0.0232 C   0  0  0  0  0  0  0  0  0  0  0  0
   -1.2440    3.1313    0.0308 C   0  0  0  0  0  0  0  0  0  0  0  0
   -1.2200    1.7492    0.0174 C   0  0  0  0  0  0  0  0  0  0  0  0
   -0.0126    1.0758    0.0080 C   0  0  0  0  0  0  0  0  0  0  0  0
    1.1760    1.7817    0.0004 C   0  0  0  0  0  0  0  0  0  0  0  0
    1.1590    3.1672    0.0080 C   0  0  0  0  0  0  0  0  0  0  0  0
    2.3273    3.8632    0.0010 O   0  0  0  0  0  0  0  0  0  0  0  0
    2.4902    1.0444   -0.0166 C   0  0  1  0  0  0  0  0  0  0  0  0
    2.8447    0.9265    1.0074 H   0  0  0  0  0  0  0  0  0  0  0  0
    2.2857   -0.2892   -0.6113 N   0  0  0  0  0  0  0  0  0  0  0  0
    2.3312   -0.3591   -1.9827 C   0  0  0  0  0  0  0  0  0  0  0  0
    3.0222    0.5798   -2.7599 C   0  0  0  0  0  0  0  0  0  0  0  0
    2.9850    0.3627   -4.1934 C   0  0  0  0  0  0  0  0  0  0  0  0
    2.2777   -0.7167   -4.6058 C   0  0  0  0  0  0  0  0  0  0  0  0
    1.6645   -1.4546   -3.1159 S   0  0  0  0  0  0  0  0  0  0  0  0
    2.0780   -1.1624   -6.0197 C   0  0  0  0  0  0  0  0  0  0  0  0
    3.7862    0.4769   -6.5327 C   0  0  0  0  0  0  0  0  0  0  0  0
    3.6789    1.2540   -5.2176 C   0  0  0  0  0  0  0  0  0  0  0  0
    2.4623   -0.4852   -8.3178 C   0  0  0  0  0  0  0  0  0  0  0  0
    3.7088    1.6841   -2.0414 C   0  0  0  0  0  0  0  0  0  0  0  0
    3.4641    1.8260   -0.7682 N   0  0  0  0  0  0  0  0  0  0  0  0
    4.5605    2.5145   -2.6863 O   0  0  0  0  0  0  0  0  0  0  0  0
   -0.6251    7.6494    0.9403 H   0  0  0  0  0  0  0  0  0  0  0  0
   -0.6418    7.6595   -0.8395 H   0  0  0  0  0  0  0  0  0  0  0  0
   -2.1647    7.8317    0.0657 H   0  0  0  0  0  0  0  0  0  0  0  0
   -1.9222    5.5360   -0.8397 H   0  0  0  0  0  0  0  0  0  0  0  0
   -1.9055    5.5259    0.9402 H   0  0  0  0  0  0  0  0  0  0  0  0
   -2.1885    3.6549    0.0426 H   0  0  0  0  0  0  0  0  0  0  0  0
   -2.1465    1.1942    0.0187 H   0  0  0  0  0  0  0  0  0  0  0  0
    0.0021   -0.0041    0.0020 H   0  0  0  0  0  0  0  0  0  0  0  0
    2.6571    4.0692   -0.8843 H   0  0  0  0  0  0  0  0  0  0  0  0
    2.1280   -1.0745   -0.0642 H   0  0  0  0  0  0  0  0  0  0  0  0
    2.6990   -2.0353   -6.2211 H   0  0  0  0  0  0  0  0  0  0  0  0
    1.0293   -1.4115   -6.1820 H   0  0  0  0  0  0  0  0  0  0  0  0
    4.4882   -0.3478   -6.4091 H   0  0  0  0  0  0  0  0  0  0  0  0
    4.1463    1.1437   -7.3161 H   0  0  0  0  0  0  0  0  0  0  0  0
    3.0938    2.1605   -5.3726 H   0  0  0  0  0  0  0  0  0  0  0  0
    4.6758    1.5152   -4.8625 H   0  0  0  0  0  0  0  0  0  0  0  0
    1.4789   -0.8815   -8.5708 H   0  0  0  0  0  0  0  0  0  0  0  0
    2.6867    0.3669   -8.9594 H   0  0  0  0  0  0  0  0  0  0  0  0
    3.2151   -1.2595   -8.4655 H   0  0  0  0  0  0  0  0  0  0  0  0
    4.9494    3.1956   -2.1207 H   0  0  0  0  0  0  0  0  0  0  0  0
    2.4529   -0.0361   -6.9088 N   0  3  1  0  0  0  0  0  0  0  0  0
    1.7630    0.7170   -6.8033 H   0  0  0  0  0  0  0  0  0  0  0  0
  1  2  1  0  0  0  0
  1 26  1  0  0  0  0
  1 27  1  0  0  0  0
  1 28  1  0  0  0  0
  2  3  1  0  0  0  0
  2 29  1  0  0  0  0
  2 30  1  0  0  0  0
  3  4  1  0  0  0  0
  4  9  2  0  0  0  0
  4  5  1  0  0  0  0
  5  6  2  0  0  0  0
  5 31  1  0  0  0  0
  6  7  1  0  0  0  0
  6 32  1  0  0  0  0
  7  8  2  0  0  0  0
  7 33  1  0  0  0  0
  8  9  1  0  0  0  0
  8 11  1  0  0  0  0
  9 10  1  0  0  0  0
 10 34  1  0  0  0  0
 11 12  1  0  0  0  0
 11 24  1  0  0  0  0
 11 13  1  0  0  0  0
 13 14  1  0  0  0  0
 13 35  1  0  0  0  0
 14 18  1  0  0  0  0
 14 15  2  0  0  0  0
 15 16  1  0  0  0  0
 15 23  1  0  0  0  0
 16 21  1  0  0  0  0
 16 17  2  0  0  0  0
 17 18  1  0  0  0  0
 17 19  1  0  0  0  0
 19 36  1  0  0  0  0
 19 37  1  0  0  0  0
 19 46  1  0  0  0  0
 20 21  1  0  0  0  0
 20 38  1  0  0  0  0
 20 39  1  0  0  0  0
 20 46  1  0  0  0  0
 21 40  1  0  0  0  0
 21 41  1  0  0  0  0
 22 42  1  0  0  0  0
 22 43  1  0  0  0  0
 22 44  1  0  0  0  0
 22 46  1  0  0  0  0
 23 24  2  0  0  0  0
 23 25  1  0  0  0  0
 25 45  1  0  0  0  0
 46 47  1  0  0  0  0
M  CHG  1  46   1
M  END
$$$$
ZINC04000988
  -OEChem-08230709453D

 45 47  0     0  0  0  0  0  0999 V2000
   -0.0408    1.3421   -2.5007 C   0  0  0  0  0  0  0  0  0  0  0  0
   -0.0370    2.0766   -1.1848 C   0  0  0  0  0  0  0  0  0  0  0  0
   -0.0158    1.3623    0.0162 C   0  0  0  0  0  0  0  0  0  0  0  0
   -0.0188    2.0517    1.2316 C   0  0  0  0  0  0  0  0  0  0  0  0
   -0.0305    3.4311    1.2388 C   0  0  0  0  0  0  0  0  0  0  0  0
   -0.0519    4.1325    0.0465 C   0  0  0  0  0  0  0  0  0  0  0  0
   -0.0550    3.4564   -1.1625 C   0  0  0  0  0  0  0  0  0  0  0  0
   -0.0819    4.3465   -2.6527 Cl  0  0  0  0  0  0  0  0  0  0  0  0
    0.0021   -0.0041    0.0020 N   0  0  0  0  0  0  0  0  0  0  0  0
   -1.1289   -0.6813    0.1090 C   0  0  0  0  0  0  0  0  0  0  0  0
   -2.3403   -0.0206    0.1310 N   0  0  0  0  0  0  0  0  0  0  0  0
   -2.3766    0.9466    0.0683 H   0  0  0  0  0  0  0  0  0  0  0  0
   -3.4867   -0.7537    0.2373 C   0  0  0  0  0  0  0  0  0  0  0  0
   -3.4133   -2.0725    0.3271 N   0  0  0  0  0  0  0  0  0  0  0  0
   -2.2396   -2.6925    0.3096 C   0  0  0  0  0  0  0  0  0  0  0  0
   -1.1136   -2.0211    0.2033 N   0  0  0  0  0  0  0  0  0  0  0  0
   -2.1965   -4.1953    0.4140 C   0  0  0  0  0  0  0  0  0  0  0  0
   -3.2470   -4.2093    2.5950 C   0  0  0  0  0  0  0  0  0  0  0  0
   -4.5239   -4.5904    3.3476 C   0  0  0  0  0  0  0  0  0  0  0  0
   -4.7048   -6.1101    3.2991 C   0  0  0  0  0  0  0  0  0  0  0  0
   -4.7542   -6.5640    1.8376 C   0  0  0  0  0  0  0  0  0  0  0  0
   -3.4706   -6.1256    1.1287 C   0  0  0  0  0  0  0  0  0  0  0  0
   -4.7013   -0.1304    0.2568 N   0  0  0  0  0  0  0  0  0  0  0  0
   -1.0693    1.1518   -2.8076 H   0  0  0  0  0  0  0  0  0  0  0  0
    0.4577    1.9486   -3.2568 H   0  0  0  0  0  0  0  0  0  0  0  0
    0.4863    0.3946   -2.3894 H   0  0  0  0  0  0  0  0  0  0  0  0
   -0.0069    1.5058    2.1634 H   0  0  0  0  0  0  0  0  0  0  0  0
   -0.0279    3.9649    2.1777 H   0  0  0  0  0  0  0  0  0  0  0  0
   -0.0660    5.2124    0.0584 H   0  0  0  0  0  0  0  0  0  0  0  0
   -2.2394   -4.6303   -0.5845 H   0  0  0  0  0  0  0  0  0  0  0  0
   -1.2710   -4.4991    0.9032 H   0  0  0  0  0  0  0  0  0  0  0  0
   -2.3890   -4.6822    3.0728 H   0  0  0  0  0  0  0  0  0  0  0  0
   -3.1229   -3.1266    2.6154 H   0  0  0  0  0  0  0  0  0  0  0  0
   -5.3808   -4.1068    2.8787 H   0  0  0  0  0  0  0  0  0  0  0  0
   -4.4459   -4.2662    4.3853 H   0  0  0  0  0  0  0  0  0  0  0  0
   -5.6357   -6.3822    3.7967 H   0  0  0  0  0  0  0  0  0  0  0  0
   -3.8677   -6.5938    3.8026 H   0  0  0  0  0  0  0  0  0  0  0  0
   -5.6147   -6.1114    1.3449 H   0  0  0  0  0  0  0  0  0  0  0  0
   -4.8403   -7.6497    1.7958 H   0  0  0  0  0  0  0  0  0  0  0  0
   -3.5089   -6.4348    0.0842 H   0  0  0  0  0  0  0  0  0  0  0  0
   -2.6116   -6.5895    1.6134 H   0  0  0  0  0  0  0  0  0  0  0  0
   -5.5139   -0.6540    0.3366 H   0  0  0  0  0  0  0  0  0  0  0  0
   -4.7516    0.8361    0.1908 H   0  0  0  0  0  0  0  0  0  0  0  0
   -3.3681   -4.6520    1.1897 N   0  3  0  0  0  0  0  0  0  0  0  0
   -4.2173   -4.2420    0.7835 H   0  0  0  0  0  0  0  0  0  0  0  0
  1  2  1  0  0  0  0
  1 24  1  0  0  0  0
  1 25  1  0  0  0  0
  1 26  1  0  0  0  0
  2  7  2  0  0  0  0
  2  3  1  0  0  0  0
  3  4  2  0  0  0  0
  3  9  1  0  0  0  0
  4  5  1  0  0  0  0
  4 27  1  0  0  0  0
  5  6  2  0  0  0  0
  5 28  1  0  0  0  0
  6  7  1  0  0  0  0
  6 29  1  0  0  0  0
  7  8  1  0  0  0  0
  9 10  2  0  0  0  0
 10 16  1  0  0  0  0
 10 11  1  0  0  0  0
 11 12  1  0  0  0  0
 11 13  1  0  0  0  0
 13 14  2  0  0  0  0
 13 23  1  0  0  0  0
 14 15  1  0  0  0  0
 15 16  2  0  0  0  0
 15 17  1  0  0  0  0
 17 30  1  0  0  0  0
 17 31  1  0  0  0  0
 17 44  1  0  0  0  0
 18 19  1  0  0  0  0
 18 32  1  0  0  0  0
 18 33  1  0  0  0  0
 18 44  1  0  0  0  0
 19 20  1  0  0  0  0
 19 34  1  0  0  0  0
 19 35  1  0  0  0  0
 20 21  1  0  0  0  0
 20 36  1  0  0  0  0
 20 37  1  0  0  0  0
 21 22  1  0  0  0  0
 21 38  1  0  0  0  0
 21 39  1  0  0  0  0
 22 40  1  0  0  0  0
 22 41  1  0  0  0  0
 22 44  1  0  0  0  0
 23 42  1  0  0  0  0
 23 43  1  0  0  0  0
 44 45  1  0  0  0  0
M  CHG  1  44   1
M  END
$$$$
ZINC04001093
  -OEChem-08230709453D

 41 43  0     0  0  0  0  0  0999 V2000
   -5.0475    1.3299   -2.1201 C   0  0  0  0  0  0  0  0  0  0  0  0
   -4.2589    0.9624   -0.8896 C   0  0  0  0  0  0  0  0  0  0  0  0
   -4.7453    1.2877    0.3647 C   0  0  0  0  0  0  0  0  0  0  0  0
   -4.0280    0.9548    1.5001 C   0  0  0  0  0  0  0  0  0  0  0  0
   -2.8245    0.2900    1.3895 C   0  0  0  0  0  0  0  0  0  0  0  0
   -2.3243   -0.0366    0.1263 C   0  0  0  0  0  0  0  0  0  0  0  0
   -3.0543    0.3034   -1.0161 C   0  0  0  0  0  0  0  0  0  0  0  0
   -1.1300   -0.6901    0.0087 N   0  0  0  0  0  0  0  0  0  0  0  0
    0.0018   -0.0037   -0.0032 C   0  0  0  0  0  0  0  0  0  0  0  0
    1.2161   -0.6583   -0.0119 N   0  0  0  0  0  0  0  0  0  0  0  0
    1.2514   -1.6276   -0.0087 H   0  0  0  0  0  0  0  0  0  0  0  0
    2.3566    0.0684   -0.0244 C   0  0  0  0  0  0  0  0  0  0  0  0
    2.2997    1.3757   -0.0277 N   0  0  0  0  0  0  0  0  0  0  0  0
    1.1200    2.0137   -0.0197 C   0  0  0  0  0  0  0  0  0  0  0  0
   -0.0170    1.3375   -0.0074 N   0  0  0  0  0  0  0  0  0  0  0  0
    1.0920    3.3873   -0.0244 N   0  0  0  0  0  0  0  0  0  0  0  0
    3.6933   -0.6274   -0.0341 C   0  0  0  0  0  0  0  0  0  0  0  0
    4.9032    0.4020   -0.9015 S   0  0  0  0  0  0  0  0  0  0  0  0
    6.3301   -0.6228   -0.7659 C   0  0  0  0  0  0  0  0  0  0  0  0
    6.2341   -1.7861   -0.1374 N   0  0  0  0  0  0  0  0  0  0  0  0
    7.2859   -2.5789   -0.0186 C   0  0  0  0  0  0  0  0  0  0  0  0
    8.4981   -2.1803   -0.5607 C   0  0  0  0  0  0  0  0  0  0  0  0
    8.5634   -0.9581   -1.2112 C   0  0  0  0  0  0  0  0  0  0  0  0
    7.4728   -0.2149   -1.2994 N   0  0  0  0  0  0  0  0  0  0  0  0
    9.8599   -0.4846   -1.8160 C   0  0  0  0  0  0  0  0  0  0  0  0
   -5.7269    0.5158   -2.3727 H   0  0  0  0  0  0  0  0  0  0  0  0
   -5.6220    2.2357   -1.9264 H   0  0  0  0  0  0  0  0  0  0  0  0
   -4.3641    1.5039   -2.9512 H   0  0  0  0  0  0  0  0  0  0  0  0
   -5.6892    1.8043    0.4577 H   0  0  0  0  0  0  0  0  0  0  0  0
   -4.4135    1.2122    2.4756 H   0  0  0  0  0  0  0  0  0  0  0  0
   -2.2678    0.0269    2.2768 H   0  0  0  0  0  0  0  0  0  0  0  0
   -2.6760    0.0502   -1.9955 H   0  0  0  0  0  0  0  0  0  0  0  0
    0.2423    3.8551   -0.0186 H   0  0  0  0  0  0  0  0  0  0  0  0
    1.9220    3.8893   -0.0334 H   0  0  0  0  0  0  0  0  0  0  0  0
    4.0247   -0.7919    0.9912 H   0  0  0  0  0  0  0  0  0  0  0  0
    3.6001   -1.5863   -0.5440 H   0  0  0  0  0  0  0  0  0  0  0  0
    7.2017   -3.5253    0.4949 H   0  0  0  0  0  0  0  0  0  0  0  0
    9.3726   -2.8087   -0.4782 H   0  0  0  0  0  0  0  0  0  0  0  0
    9.9266   -0.8289   -2.8481 H   0  0  0  0  0  0  0  0  0  0  0  0
    9.8949    0.6046   -1.7934 H   0  0  0  0  0  0  0  0  0  0  0  0
   10.6961   -0.8869   -1.2441 H   0  0  0  0  0  0  0  0  0  0  0  0
  1  2  1  0  0  0  0
  1 26  1  0  0  0  0
  1 27  1  0  0  0  0
  1 28  1  0  0  0  0
  2  7  2  0  0  0  0
  2  3  1  0  0  0  0
  3  4  2  0  0  0  0
  3 29  1  0  0  0  0
  4  5  1  0  0  0  0
  4 30  1  0  0  0  0
  5  6  2  0  0  0  0
  5 31  1  0  0  0  0
  6  7  1  0  0  0  0
  6  8  1  0  0  0  0
  7 32  1  0  0  0  0
  8  9  2  0  0  0  0
  9 15  1  0  0  0  0
  9 10  1  0  0  0  0
 10 11  1  0  0  0  0
 10 12  1  0  0  0  0
 12 13  2  0  0  0  0
 12 17  1  0  0  0  0
 13 14  1  0  0  0  0
 14 15  2  0  0  0  0
 14 16  1  0  0  0  0
 16 33  1  0  0  0  0
 16 34  1  0  0  0  0
 17 18  1  0  0  0  0
 17 35  1  0  0  0  0
 17 36  1  0  0  0  0
 18 19  1  0  0  0  0
 19 24  2  0  0  0  0
 19 20  1  0  0  0  0
 20 21  2  0  0  0  0
 21 22  1  0  0  0  0
 21 37  1  0  0  0  0
 22 23  2  0  0  0  0
 22 38  1  0  0  0  0
 23 24  1  0  0  0  0
 23 25  1  0  0  0  0
 25 39  1  0  0  0  0
 25 40  1  0  0  0  0
 25 41  1  0  0  0  0
M  END
$$$$
ZINC04001154
  -OEChem-08230709453D

 42 44  0     0  0  0  0  0  0999 V2000
    6.5963   -1.2345    1.1068 C   0  0  0  0  0  0  0  0  0  0  0  0
    5.3346   -2.0945    1.2041 C   0  0  0  0  0  0  0  0  0  0  0  0
    4.6866   -2.2075   -0.1773 C   0  0  0  0  0  0  0  0  0  0  0  0
    3.5086   -3.1814   -0.1099 C   0  0  0  0  0  0  0  0  0  0  0  0
    4.0271   -4.5888    0.1926 C   0  0  0  0  0  0  0  0  0  0  0  0
    4.1933   -0.8518   -0.6131 C   0  0  0  0  0  0  0  0  0  0  0  0
    3.0036   -0.3371   -0.4911 N   0  0  0  0  0  0  0  0  0  0  0  0
    2.7186    0.9269   -0.9579 N   0  0  0  0  0  0  0  0  0  0  0  0
    1.4473    1.5398   -0.9577 C   0  0  0  0  0  0  0  0  0  0  0  0
    0.3292    0.8699   -0.8710 N   0  0  0  0  0  0  0  0  0  0  0  0
    0.3473   -0.0978   -0.8067 H   0  0  0  0  0  0  0  0  0  0  0  0
    1.5039    3.0254   -1.0595 C   0  0  0  0  0  0  0  0  0  0  0  0
    0.5712    3.8309   -0.4458 C   0  0  0  0  0  0  0  0  0  0  0  0
    0.7643    5.2824   -0.4146 C   0  0  0  0  0  0  0  0  0  0  0  0
    2.0544    5.8185   -0.2932 C   0  0  0  0  0  0  0  0  0  0  0  0
    2.2285    7.1733   -0.2700 C   0  0  0  0  0  0  0  0  0  0  0  0
    1.1284    8.0204   -0.3553 C   0  0  0  0  0  0  0  0  0  0  0  0
   -0.1544    7.4945   -0.4700 C   0  0  0  0  0  0  0  0  0  0  0  0
   -0.3408    6.1416   -0.5001 C   0  0  0  0  0  0  0  0  0  0  0  0
    1.3073    9.3651   -0.3268 O   0  0  0  0  0  0  0  0  0  0  0  0
    2.6200    3.5897   -1.8589 C   0  0  0  0  0  0  0  0  0  0  0  0
    2.5198    4.6807   -2.3966 O   0  0  0  0  0  0  0  0  0  0  0  0
    3.7470    2.8601   -1.9728 N   0  0  0  0  0  0  0  0  0  0  0  0
    3.7673    1.6359   -1.5084 C   0  0  0  0  0  0  0  0  0  0  0  0
    5.0919    0.4598   -1.4301 S   0  0  0  0  0  0  0  0  0  0  0  0
    6.3431   -0.2653    0.6770 H   0  0  0  0  0  0  0  0  0  0  0  0
    7.0164   -1.0919    2.1024 H   0  0  0  0  0  0  0  0  0  0  0  0
    7.3281   -1.7336    0.4717 H   0  0  0  0  0  0  0  0  0  0  0  0
    4.6325   -1.6323    1.8981 H   0  0  0  0  0  0  0  0  0  0  0  0
    5.5995   -3.0888    1.5636 H   0  0  0  0  0  0  0  0  0  0  0  0
    5.4210   -2.5746   -0.8942 H   0  0  0  0  0  0  0  0  0  0  0  0
    2.8237   -2.8693    0.6785 H   0  0  0  0  0  0  0  0  0  0  0  0
    2.9849   -3.1849   -1.0658 H   0  0  0  0  0  0  0  0  0  0  0  0
    3.2010   -5.2983    0.1450 H   0  0  0  0  0  0  0  0  0  0  0  0
    4.7842   -4.8628   -0.5421 H   0  0  0  0  0  0  0  0  0  0  0  0
    4.4653   -4.6078    1.1905 H   0  0  0  0  0  0  0  0  0  0  0  0
   -0.3029    3.3924    0.0127 H   0  0  0  0  0  0  0  0  0  0  0  0
    2.9089    5.1618   -0.2228 H   0  0  0  0  0  0  0  0  0  0  0  0
    3.2220    7.5874   -0.1807 H   0  0  0  0  0  0  0  0  0  0  0  0
   -1.0046    8.1572   -0.5358 H   0  0  0  0  0  0  0  0  0  0  0  0
   -1.3371    5.7345   -0.5900 H   0  0  0  0  0  0  0  0  0  0  0  0
    1.2840    9.7463    0.5616 H   0  0  0  0  0  0  0  0  0  0  0  0
  1  2  1  0  0  0  0
  1 26  1  0  0  0  0
  1 27  1  0  0  0  0
  1 28  1  0  0  0  0
  2  3  1  0  0  0  0
  2 29  1  0  0  0  0
  2 30  1  0  0  0  0
  3  4  1  0  0  0  0
  3  6  1  0  0  0  0
  3 31  1  0  0  0  0
  4  5  1  0  0  0  0
  4 32  1  0  0  0  0
  4 33  1  0  0  0  0
  5 34  1  0  0  0  0
  5 35  1  0  0  0  0
  5 36  1  0  0  0  0
  6 25  1  0  0  0  0
  6  7  2  0  0  0  0
  7  8  1  0  0  0  0
  8 24  1  0  0  0  0
  8  9  1  0  0  0  0
  9 10  2  0  0  0  0
  9 12  1  0  0  0  0
 10 11  1  0  0  0  0
 12 13  2  0  0  0  0
 12 21  1  0  0  0  0
 13 14  1  0  0  0  0
 13 37  1  0  0  0  0
 14 19  2  0  0  0  0
 14 15  1  0  0  0  0
 15 16  2  0  0  0  0
 15 38  1  0  0  0  0
 16 17  1  0  0  0  0
 16 39  1  0  0  0  0
 17 18  2  0  0  0  0
 17 20  1  0  0  0  0
 18 19  1  0  0  0  0
 18 40  1  0  0  0  0
 19 41  1  0  0  0  0
 20 42  1  0  0  0  0
 21 22  2  0  0  0  0
 21 23  1  0  0  0  0
 23 24  2  0  0  0  0
 24 25  1  0  0  0  0
M  END
$$$$
ZINC04001225
  -OEChem-08230709453D

 41 42  0     0  0  0  0  0  0999 V2000
   -4.0880   -5.9301    0.8949 C   0  0  0  0  0  0  0  0  0  0  0  0
   -5.1955   -5.0345    0.7793 O   0  0  0  0  0  0  0  0  0  0  0  0
   -4.9087   -3.7188    0.6032 C   0  0  0  0  0  0  0  0  0  0  0  0
   -3.5863   -3.3001    0.5436 C   0  0  0  0  0  0  0  0  0  0  0  0
   -3.2901   -1.9670    0.3603 C   0  0  0  0  0  0  0  0  0  0  0  0
   -4.3215   -1.0316    0.2445 C   0  0  0  0  0  0  0  0  0  0  0  0
   -5.6526   -1.4529    0.3045 C   0  0  0  0  0  0  0  0  0  0  0  0
   -5.9427   -2.7916    0.4832 C   0  0  0  0  0  0  0  0  0  0  0  0
   -7.2370   -3.2049    0.5424 O   0  0  0  0  0  0  0  0  0  0  0  0
   -8.2453   -2.2007    0.4126 C   0  0  0  0  0  0  0  0  0  0  0  0
   -4.0060    0.3973    0.0533 C   0  0  0  0  0  0  0  0  0  0  0  0
   -4.9048    1.2097   -0.0524 O   0  0  0  0  0  0  0  0  0  0  0  0
   -2.7217    0.8020   -0.0044 N   0  0  0  0  0  0  0  0  0  0  0  0
   -2.4205    2.1677   -0.0826 C   0  0  0  0  0  0  0  0  0  0  0  0
   -1.7058    2.6470   -1.1352 C   0  0  0  0  0  0  0  0  0  0  0  0
   -1.3763    1.7921   -2.2157 C   0  0  0  0  0  0  0  0  0  0  0  0
   -0.7379    2.0973   -3.4107 C   0  0  0  0  0  0  0  0  0  0  0  0
   -0.5327    1.0864   -4.3158 C   0  0  0  0  0  0  0  0  0  0  0  0
   -0.9568   -0.1721   -4.0177 C   0  0  0  0  0  0  0  0  0  0  0  0
   -1.6804    0.0424   -2.4001 S   0  0  0  0  0  0  0  0  0  0  0  0
   -2.8755    3.0793    0.9692 C   0  0  0  0  0  0  0  0  0  0  0  0
   -2.6983    4.2783    0.8543 O   0  0  0  0  0  0  0  0  0  0  0  0
   -3.4905    2.5909    2.0646 N   0  0  0  0  0  0  0  0  0  0  0  0
   -4.0043    3.4460    2.9977 N   0  0  0  0  0  0  0  0  0  0  0  0
   -4.4558   -6.9470    1.0315 H   0  0  0  0  0  0  0  0  0  0  0  0
   -3.4846   -5.8806   -0.0115 H   0  0  0  0  0  0  0  0  0  0  0  0
   -3.4788   -5.6458    1.7529 H   0  0  0  0  0  0  0  0  0  0  0  0
   -2.7881   -4.0215    0.6371 H   0  0  0  0  0  0  0  0  0  0  0  0
   -2.2606   -1.6446    0.3098 H   0  0  0  0  0  0  0  0  0  0  0  0
   -6.4526   -0.7335    0.2110 H   0  0  0  0  0  0  0  0  0  0  0  0
   -9.2299   -2.6639    0.4774 H   0  0  0  0  0  0  0  0  0  0  0  0
   -8.1346   -1.4690    1.2128 H   0  0  0  0  0  0  0  0  0  0  0  0
   -8.1406   -1.7032   -0.5516 H   0  0  0  0  0  0  0  0  0  0  0  0
   -2.0059    0.1474    0.0084 H   0  0  0  0  0  0  0  0  0  0  0  0
   -1.3892    3.6795   -1.1476 H   0  0  0  0  0  0  0  0  0  0  0  0
   -0.4115    3.1048   -3.6225 H   0  0  0  0  0  0  0  0  0  0  0  0
   -0.0391    1.2873   -5.2552 H   0  0  0  0  0  0  0  0  0  0  0  0
   -0.8764   -1.0718   -4.6097 H   0  0  0  0  0  0  0  0  0  0  0  0
   -3.5683    1.6323    2.1902 H   0  0  0  0  0  0  0  0  0  0  0  0
   -4.4321    2.9378    3.7572 H   0  0  0  0  0  0  0  0  0  0  0  0
   -3.2950    4.0772    3.3392 H   0  0  0  0  0  0  0  0  0  0  0  0
  1  2  1  0  0  0  0
  1 25  1  0  0  0  0
  1 26  1  0  0  0  0
  1 27  1  0  0  0  0
  2  3  1  0  0  0  0
  3  8  2  0  0  0  0
  3  4  1  0  0  0  0
  4  5  2  0  0  0  0
  4 28  1  0  0  0  0
  5  6  1  0  0  0  0
  5 29  1  0  0  0  0
  6  7  2  0  0  0  0
  6 11  1  0  0  0  0
  7  8  1  0  0  0  0
  7 30  1  0  0  0  0
  8  9  1  0  0  0  0
  9 10  1  0  0  0  0
 10 31  1  0  0  0  0
 10 32  1  0  0  0  0
 10 33  1  0  0  0  0
 11 12  2  0  0  0  0
 11 13  1  0  0  0  0
 13 14  1  0  0  0  0
 13 34  1  0  0  0  0
 14 15  2  0  0  0  0
 14 21  1  0  0  0  0
 15 16  1  0  0  0  0
 15 35  1  0  0  0  0
 16 20  1  0  0  0  0
 16 17  2  0  0  0  0
 17 18  1  0  0  0  0
 17 36  1  0  0  0  0
 18 19  2  0  0  0  0
 18 37  1  0  0  0  0
 19 20  1  0  0  0  0
 19 38  1  0  0  0  0
 21 22  2  0  0  0  0
 21 23  1  0  0  0  0
 23 24  1  0  0  0  0
 23 39  1  0  0  0  0
 24 40  1  0  0  0  0
 24 41  1  0  0  0  0
M  END
$$$$
ZINC04033708
  -OEChem-08230709453D

 43 44  0     0  0  0  0  0  0999 V2000
   -0.0129    5.7328    0.0324 C   0  0  0  0  0  0  0  0  0  0  0  0
   -0.0057    4.2258    0.0248 C   0  0  0  0  0  0  0  0  0  0  0  0
   -1.2088    3.5330    0.0326 C   0  0  0  0  0  0  0  0  0  0  0  0
   -1.2245    2.1671    0.0312 C   0  0  0  0  0  0  0  0  0  0  0  0
   -0.0178    1.4598    0.0101 C   0  0  0  0  0  0  0  0  0  0  0  0
    0.0021   -0.0041    0.0020 C   0  0  0  0  0  0  0  0  0  0  0  0
    1.2020   -0.6355   -0.0128 C   0  0  0  0  0  0  0  0  0  0  0  0
    2.3988    0.1125   -0.0202 C   0  0  0  0  0  0  0  0  0  0  0  0
    3.4666   -0.4751   -0.0339 O   0  0  0  0  0  0  0  0  0  0  0  0
    2.3906    1.4570   -0.0129 N   0  0  0  0  0  0  0  0  0  0  0  0
    3.2577    1.9551   -0.0185 H   0  0  0  0  0  0  0  0  0  0  0  0
    1.2040    2.1587    0.0022 C   0  0  0  0  0  0  0  0  0  0  0  0
    1.1951    3.5498    0.0097 C   0  0  0  0  0  0  0  0  0  0  0  0
    1.2578   -2.1414   -0.0219 C   0  0  0  0  0  0  0  0  0  0  0  0
    1.3888   -2.6382   -1.4631 C   0  0  0  0  0  0  0  0  0  0  0  0
    1.4431   -4.1022   -1.4719 N   0  0  0  0  0  0  0  0  0  0  0  0
    1.5588   -4.7652   -2.6396 C   0  0  0  0  0  0  0  0  0  0  0  0
    1.6424   -3.8966   -4.1125 S   0  0  0  0  0  0  0  0  0  0  0  0
    1.6087   -6.1120   -2.6478 N   0  0  0  0  0  0  0  0  0  0  0  0
    1.7345   -6.8327   -3.9170 C   0  0  0  0  0  0  0  0  0  0  0  0
    1.7685   -8.3384   -3.6474 C   0  0  0  0  0  0  0  0  0  0  0  0
    0.5152   -8.7526   -3.1001 O   0  0  0  0  0  0  0  0  0  0  0  0
    0.4409  -10.1500   -2.8102 C   0  0  0  0  0  0  0  0  0  0  0  0
   -0.0247    6.1013   -0.9933 H   0  0  0  0  0  0  0  0  0  0  0  0
   -0.8996    6.0892    0.5567 H   0  0  0  0  0  0  0  0  0  0  0  0
    0.8803    6.0979    0.5394 H   0  0  0  0  0  0  0  0  0  0  0  0
   -2.1406    4.0789    0.0444 H   0  0  0  0  0  0  0  0  0  0  0  0
   -2.1645    1.6355    0.0415 H   0  0  0  0  0  0  0  0  0  0  0  0
   -0.9186   -0.5686    0.0081 H   0  0  0  0  0  0  0  0  0  0  0  0
    2.1257    4.0979    0.0041 H   0  0  0  0  0  0  0  0  0  0  0  0
    2.1179   -2.4767    0.5576 H   0  0  0  0  0  0  0  0  0  0  0  0
    0.3446   -2.5415    0.4187 H   0  0  0  0  0  0  0  0  0  0  0  0
    0.5287   -2.3030   -2.0426 H   0  0  0  0  0  0  0  0  0  0  0  0
    2.3020   -2.2381   -1.9037 H   0  0  0  0  0  0  0  0  0  0  0  0
    1.3957   -4.5943   -0.6374 H   0  0  0  0  0  0  0  0  0  0  0  0
    1.5613   -6.6042   -1.8132 H   0  0  0  0  0  0  0  0  0  0  0  0
    0.8826   -6.5969   -4.5547 H   0  0  0  0  0  0  0  0  0  0  0  0
    2.6559   -6.5320   -4.4158 H   0  0  0  0  0  0  0  0  0  0  0  0
    1.9510   -8.8706   -4.5809 H   0  0  0  0  0  0  0  0  0  0  0  0
    2.5662   -8.5628   -2.9393 H   0  0  0  0  0  0  0  0  0  0  0  0
    0.5959  -10.7198   -3.7264 H   0  0  0  0  0  0  0  0  0  0  0  0
    1.2111  -10.4120   -2.0847 H   0  0  0  0  0  0  0  0  0  0  0  0
   -0.5408  -10.3840   -2.3985 H   0  0  0  0  0  0  0  0  0  0  0  0
  1  2  1  0  0  0  0
  1 24  1  0  0  0  0
  1 25  1  0  0  0  0
  1 26  1  0  0  0  0
  2 13  2  0  0  0  0
  2  3  1  0  0  0  0
  3  4  2  0  0  0  0
  3 27  1  0  0  0  0
  4  5  1  0  0  0  0
  4 28  1  0  0  0  0
  5 12  2  0  0  0  0
  5  6  1  0  0  0  0
  6  7  2  0  0  0  0
  6 29  1  0  0  0  0
  7  8  1  0  0  0  0
  7 14  1  0  0  0  0
  8  9  2  0  0  0  0
  8 10  1  0  0  0  0
 10 11  1  0  0  0  0
 10 12  1  0  0  0  0
 12 13  1  0  0  0  0
 13 30  1  0  0  0  0
 14 15  1  0  0  0  0
 14 31  1  0  0  0  0
 14 32  1  0  0  0  0
 15 16  1  0  0  0  0
 15 33  1  0  0  0  0
 15 34  1  0  0  0  0
 16 17  1  0  0  0  0
 16 35  1  0  0  0  0
 17 18  2  0  0  0  0
 17 19  1  0  0  0  0
 19 20  1  0  0  0  0
 19 36  1  0  0  0  0
 20 21  1  0  0  0  0
 20 37  1  0  0  0  0
 20 38  1  0  0  0  0
 21 22  1  0  0  0  0
 21 39  1  0  0  0  0
 21 40  1  0  0  0  0
 22 23  1  0  0  0  0
 23 41  1  0  0  0  0
 23 42  1  0  0  0  0
 23 43  1  0  0  0  0
M  END
$$$$
ZINC04033708
  -OEChem-08230709453D

 43 44  0     0  0  0  0  0  0999 V2000
   -0.0129    5.7328    0.0334 C   0  0  0  0  0  0  0  0  0  0  0  0
   -0.0057    4.2258    0.0259 C   0  0  0  0  0  0  0  0  0  0  0  0
   -1.2087    3.5330    0.0401 C   0  0  0  0  0  0  0  0  0  0  0  0
   -1.2245    2.1671    0.0332 C   0  0  0  0  0  0  0  0  0  0  0  0
   -0.0178    1.4598    0.0116 C   0  0  0  0  0  0  0  0  0  0  0  0
    0.0021   -0.0041    0.0036 C   0  0  0  0  0  0  0  0  0  0  0  0
    1.2020   -0.6355   -0.0117 C   0  0  0  0  0  0  0  0  0  0  0  0
    2.3987    0.1126   -0.0317 C   0  0  0  0  0  0  0  0  0  0  0  0
    3.4664   -0.4750   -0.0501 O   0  0  0  0  0  0  0  0  0  0  0  0
    2.3905    1.4571   -0.0245 N   0  0  0  0  0  0  0  0  0  0  0  0
    3.3039   -1.4617   -0.0530 H   0  0  0  0  0  0  0  0  0  0  0  0
    1.2039    2.1587   -0.0028 C   0  0  0  0  0  0  0  0  0  0  0  0
    1.1950    3.5498    0.0052 C   0  0  0  0  0  0  0  0  0  0  0  0
    1.2578   -2.1414   -0.0203 C   0  0  0  0  0  0  0  0  0  0  0  0
    1.3885   -2.6388   -1.4613 C   0  0  0  0  0  0  0  0  0  0  0  0
    1.4428   -4.1028   -1.4695 N   0  0  0  0  0  0  0  0  0  0  0  0
    1.5582   -4.7662   -2.6370 C   0  0  0  0  0  0  0  0  0  0  0  0
    1.6415   -3.8982   -4.1103 S   0  0  0  0  0  0  0  0  0  0  0  0
    1.6082   -6.1130   -2.6447 N   0  0  0  0  0  0  0  0  0  0  0  0
    1.7337   -6.8342   -3.9137 C   0  0  0  0  0  0  0  0  0  0  0  0
    1.7677   -8.3398   -3.6435 C   0  0  0  0  0  0  0  0  0  0  0  0
    0.5146   -8.7538   -3.0958 O   0  0  0  0  0  0  0  0  0  0  0  0
    0.4403  -10.1511   -2.8053 C   0  0  0  0  0  0  0  0  0  0  0  0
   -0.0301    6.1012   -0.9922 H   0  0  0  0  0  0  0  0  0  0  0  0
   -0.8969    6.0892    0.5623 H   0  0  0  0  0  0  0  0  0  0  0  0
    0.8829    6.0980    0.5357 H   0  0  0  0  0  0  0  0  0  0  0  0
   -2.1405    4.0788    0.0567 H   0  0  0  0  0  0  0  0  0  0  0  0
   -2.1645    1.6355    0.0439 H   0  0  0  0  0  0  0  0  0  0  0  0
   -0.9186   -0.5686    0.0097 H   0  0  0  0  0  0  0  0  0  0  0  0
    2.1256    4.0980   -0.0050 H   0  0  0  0  0  0  0  0  0  0  0  0
    2.1181   -2.4765    0.5592 H   0  0  0  0  0  0  0  0  0  0  0  0
    0.3447   -2.5413    0.4207 H   0  0  0  0  0  0  0  0  0  0  0  0
    0.5283   -2.3038   -2.0407 H   0  0  0  0  0  0  0  0  0  0  0  0
    2.3016   -2.2388   -1.9023 H   0  0  0  0  0  0  0  0  0  0  0  0
    1.3956   -4.5945   -0.6349 H   0  0  0  0  0  0  0  0  0  0  0  0
    1.5610   -6.6049   -1.8099 H   0  0  0  0  0  0  0  0  0  0  0  0
    0.8816   -6.5987   -4.5513 H   0  0  0  0  0  0  0  0  0  0  0  0
    2.6550   -6.5337   -4.4128 H   0  0  0  0  0  0  0  0  0  0  0  0
    1.9500   -8.8724   -4.5768 H   0  0  0  0  0  0  0  0  0  0  0  0
    2.5656   -8.5639   -2.9355 H   0  0  0  0  0  0  0  0  0  0  0  0
    0.5951  -10.7212   -3.7213 H   0  0  0  0  0  0  0  0  0  0  0  0
    1.2107  -10.4128   -2.0799 H   0  0  0  0  0  0  0  0  0  0  0  0
   -0.5413  -10.3849   -2.3933 H   0  0  0  0  0  0  0  0  0  0  0  0
  1  2  1  0  0  0  0
  1 24  1  0  0  0  0
  1 25  1  0  0  0  0
  1 26  1  0  0  0  0
  2 13  2  0  0  0  0
  2  3  1  0  0  0  0
  3  4  2  0  0  0  0
  3 27  1  0  0  0  0
  4  5  1  0  0  0  0
  4 28  1  0  0  0  0
  5  6  2  0  0  0  0
  5 12  1  0  0  0  0
  6 29  1  0  0  0  0
  6  7  1  0  0  0  0
  7 14  1  0  0  0  0
  7  8  2  0  0  0  0
  8 10  1  0  0  0  0
  8  9  1  0  0  0  0
  9 11  1  0  0  0  0
 10 12  2  0  0  0  0
 12 13  1  0  0  0  0
 13 30  1  0  0  0  0
 14 15  1  0  0  0  0
 14 31  1  0  0  0  0
 14 32  1  0  0  0  0
 15 16  1  0  0  0  0
 15 33  1  0  0  0  0
 15 34  1  0  0  0  0
 16 17  1  0  0  0  0
 16 35  1  0  0  0  0
 17 18  2  0  0  0  0
 17 19  1  0  0  0  0
 19 20  1  0  0  0  0
 19 36  1  0  0  0  0
 20 21  1  0  0  0  0
 20 37  1  0  0  0  0
 20 38  1  0  0  0  0
 21 22  1  0  0  0  0
 21 39  1  0  0  0  0
 21 40  1  0  0  0  0
 22 23  1  0  0  0  0
 23 41  1  0  0  0  0
 23 42  1  0  0  0  0
 23 43  1  0  0  0  0
M  END
$$$$
ZINC04058838
  -OEChem-08230709453D

 41 43  0     0  0  0  0  0  0999 V2000
    0.2787    1.5252   -0.1210 C   0  0  0  0  0  0  0  0  0  0  0  0
    0.2310   -0.0039   -0.1005 C   0  0  0  0  0  0  0  0  0  0  0  0
    0.8807   -0.4965    1.1166 N   0  0  0  0  0  0  0  0  0  0  0  0
    0.9604   -1.8637    1.3575 C   0  0  0  0  0  0  0  0  0  0  0  0
    0.3398   -2.7593    0.4906 C   0  0  0  0  0  0  0  0  0  0  0  0
    0.4168   -4.1126    0.7263 C   0  0  0  0  0  0  0  0  0  0  0  0
    1.1193   -4.5883    1.8378 C   0  0  0  0  0  0  0  0  0  0  0  0
    1.7413   -3.6867    2.7062 C   0  0  0  0  0  0  0  0  0  0  0  0
    1.6653   -2.3344    2.4617 C   0  0  0  0  0  0  0  0  0  0  0  0
    2.3291   -1.3792    3.3771 N   0  3  0  0  0  0  0  0  0  0  0  0
    3.4117   -1.6536    3.8632 O   0  0  0  0  0  0  0  0  0  0  0  0
    1.7928   -0.3187    3.6443 O   0  5  0  0  0  0  0  0  0  0  0  0
    1.2034   -6.0385    2.0936 C   0  0  0  0  0  0  0  0  0  0  0  0
    1.8147   -6.4509    3.0607 O   0  0  0  0  0  0  0  0  0  0  0  0
    0.6028   -6.9066    1.2557 N   0  0  0  0  0  0  0  0  0  0  0  0
    0.6010   -8.2750    1.5491 C   0  0  0  0  0  0  0  0  0  0  0  0
   -0.4968   -9.0669    1.2156 C   0  0  0  0  0  0  0  0  0  0  0  0
   -0.5243  -10.3974    1.4891 C   0  0  0  0  0  0  0  0  0  0  0  0
    0.5679  -11.0318    2.1267 C   0  0  0  0  0  0  0  0  0  0  0  0
    1.6678  -10.2053    2.4537 C   0  0  0  0  0  0  0  0  0  0  0  0
    1.6948   -8.8619    2.1707 C   0  0  0  0  0  0  0  0  0  0  0  0
    2.7877  -11.3549    3.2155 S   0  0  0  0  0  0  0  0  0  0  0  0
    1.7586  -12.8076    3.0559 C   0  0  0  0  0  0  0  0  0  0  0  0
    0.6957  -12.3328    2.4657 N   0  0  0  0  0  0  0  0  0  0  0  0
    2.0453  -14.2213    3.4921 C   0  0  0  0  0  0  0  0  0  0  0  0
    1.3170    1.8566   -0.1038 H   0  0  0  0  0  0  0  0  0  0  0  0
   -0.2047    1.8917   -1.0265 H   0  0  0  0  0  0  0  0  0  0  0  0
   -0.2422    1.9167    0.7528 H   0  0  0  0  0  0  0  0  0  0  0  0
   -0.8073   -0.3353   -0.1177 H   0  0  0  0  0  0  0  0  0  0  0  0
    0.7518   -0.3954   -0.9744 H   0  0  0  0  0  0  0  0  0  0  0  0
    1.2553    0.1310    1.7544 H   0  0  0  0  0  0  0  0  0  0  0  0
   -0.2024   -2.3912   -0.3678 H   0  0  0  0  0  0  0  0  0  0  0  0
   -0.0652   -4.8067    0.0537 H   0  0  0  0  0  0  0  0  0  0  0  0
    2.2846   -4.0510    3.5655 H   0  0  0  0  0  0  0  0  0  0  0  0
    0.1717   -6.5829    0.4492 H   0  0  0  0  0  0  0  0  0  0  0  0
   -1.3463   -8.6116    0.7283 H   0  0  0  0  0  0  0  0  0  0  0  0
   -1.3921  -10.9792    1.2156 H   0  0  0  0  0  0  0  0  0  0  0  0
    2.5569   -8.2667    2.4332 H   0  0  0  0  0  0  0  0  0  0  0  0
    2.5348  -14.7597    2.6805 H   0  0  0  0  0  0  0  0  0  0  0  0
    2.6985  -14.2070    4.3646 H   0  0  0  0  0  0  0  0  0  0  0  0
    1.1099  -14.7198    3.7466 H   0  0  0  0  0  0  0  0  0  0  0  0
  1  2  1  0  0  0  0
  1 26  1  0  0  0  0
  1 27  1  0  0  0  0
  1 28  1  0  0  0  0
  2  3  1  0  0  0  0
  2 29  1  0  0  0  0
  2 30  1  0  0  0  0
  3  4  1  0  0  0  0
  3 31  1  0  0  0  0
  4  9  2  0  0  0  0
  4  5  1  0  0  0  0
  5  6  2  0  0  0  0
  5 32  1  0  0  0  0
  6  7  1  0  0  0  0
  6 33  1  0  0  0  0
  7  8  2  0  0  0  0
  7 13  1  0  0  0  0
  8  9  1  0  0  0  0
  8 34  1  0  0  0  0
  9 10  1  0  0  0  0
 10 11  2  0  0  0  0
 10 12  1  0  0  0  0
 13 14  2  0  0  0  0
 13 15  1  0  0  0  0
 15 16  1  0  0  0  0
 15 35  1  0  0  0  0
 16 21  2  0  0  0  0
 16 17  1  0  0  0  0
 17 18  2  0  0  0  0
 17 36  1  0  0  0  0
 18 19  1  0  0  0  0
 18 37  1  0  0  0  0
 19 24  1  0  0  0  0
 19 20  2  0  0  0  0
 20 21  1  0  0  0  0
 20 22  1  0  0  0  0
 21 38  1  0  0  0  0
 22 23  1  0  0  0  0
 23 24  2  0  0  0  0
 23 25  1  0  0  0  0
 25 39  1  0  0  0  0
 25 40  1  0  0  0  0
 25 41  1  0  0  0  0
M  CHG  2  10   1  12  -1
M  END
$$$$
ZINC04081566
  -OEChem-08230709453D

 50 52  0     1  0  0  0  0  0999 V2000
   -2.1293    4.3183    1.9326 C   0  0  0  0  0  0  0  0  0  0  0  0
   -1.2959    4.0423    0.6646 C   0  0  0  0  0  0  0  0  0  0  0  0
    0.1154    4.5609    0.8976 C   0  0  0  0  0  0  0  0  0  0  0  0
    1.1691    3.9043    0.0178 C   0  0  1  0  0  0  0  0  0  0  0  0
    0.9648    2.4620   -0.0865 N   0  0  0  0  0  0  0  0  0  0  0  0
   -0.2394    1.9006    0.0773 C   0  0  0  0  0  0  0  0  0  0  0  0
   -0.3938    0.2094   -0.1475 S   0  0  0  0  0  0  0  0  0  0  0  0
   -1.3234    2.6061    0.4141 N   0  0  0  0  0  0  0  0  0  0  0  0
    2.0608    1.6401   -0.3796 C   0  0  0  0  0  0  0  0  0  0  0  0
    2.6544    1.6950   -1.6336 C   0  0  0  0  0  0  0  0  0  0  0  0
    3.7383    0.8886   -1.9199 C   0  0  0  0  0  0  0  0  0  0  0  0
    4.2265    0.0154   -0.9590 C   0  0  0  0  0  0  0  0  0  0  0  0
    3.6304   -0.0440    0.2921 C   0  0  0  0  0  0  0  0  0  0  0  0
    2.5503    0.7662    0.5819 C   0  0  0  0  0  0  0  0  0  0  0  0
    5.2903   -0.7824   -1.2435 O   0  0  0  0  0  0  0  0  0  0  0  0
    5.8549   -0.6690   -2.5513 C   0  0  0  0  0  0  0  0  0  0  0  0
    1.1825    4.5265   -1.3809 C   0  0  0  0  0  0  0  0  0  0  0  0
    2.5216    4.1376    0.6402 C   0  0  0  0  0  0  0  0  0  0  0  0
    3.5156    4.7674   -0.0844 C   0  0  0  0  0  0  0  0  0  0  0  0
    4.7566    4.9827    0.4834 C   0  0  0  0  0  0  0  0  0  0  0  0
    5.0077    4.5670    1.7836 C   0  0  0  0  0  0  0  0  0  0  0  0
    4.0123    3.9350    2.5124 C   0  0  0  0  0  0  0  0  0  0  0  0
    2.7660    3.7248    1.9422 C   0  0  0  0  0  0  0  0  0  0  0  0
    1.7864    3.1104    2.6561 O   0  0  0  0  0  0  0  0  0  0  0  0
    6.2283    4.7798    2.3418 O   0  0  0  0  0  0  0  0  0  0  0  0
   -1.9616    4.7834   -0.4999 C   0  0  0  0  0  0  0  0  0  0  0  0
   -2.1526    5.3907    2.1258 H   0  0  0  0  0  0  0  0  0  0  0  0
   -3.1459    3.9534    1.7858 H   0  0  0  0  0  0  0  0  0  0  0  0
   -1.6785    3.8057    2.7824 H   0  0  0  0  0  0  0  0  0  0  0  0
    0.3836    4.4047    1.9533 H   0  0  0  0  0  0  0  0  0  0  0  0
    0.1308    5.6471    0.7244 H   0  0  0  0  0  0  0  0  0  0  0  0
   -2.1752    2.1349    0.4959 H   0  0  0  0  0  0  0  0  0  0  0  0
    2.2715    2.3715   -2.3833 H   0  0  0  0  0  0  0  0  0  0  0  0
    4.2029    0.9343   -2.8938 H   0  0  0  0  0  0  0  0  0  0  0  0
    4.0113   -0.7239    1.0399 H   0  0  0  0  0  0  0  0  0  0  0  0
    2.0868    0.7203    1.5563 H   0  0  0  0  0  0  0  0  0  0  0  0
    6.2036    0.3515   -2.7093 H   0  0  0  0  0  0  0  0  0  0  0  0
    6.6938   -1.3584   -2.6459 H   0  0  0  0  0  0  0  0  0  0  0  0
    5.0977   -0.9137   -3.2963 H   0  0  0  0  0  0  0  0  0  0  0  0
    0.2759    4.2409   -1.9143 H   0  0  0  0  0  0  0  0  0  0  0  0
    1.2269    5.6122   -1.2951 H   0  0  0  0  0  0  0  0  0  0  0  0
    2.0544    4.1694   -1.9290 H   0  0  0  0  0  0  0  0  0  0  0  0
    3.3219    5.0922   -1.0960 H   0  0  0  0  0  0  0  0  0  0  0  0
    5.5318    5.4751   -0.0849 H   0  0  0  0  0  0  0  0  0  0  0  0
    4.2059    3.6106    3.5242 H   0  0  0  0  0  0  0  0  0  0  0  0
    1.7762    2.1480    2.5626 H   0  0  0  0  0  0  0  0  0  0  0  0
    6.3063    5.6241    2.8068 H   0  0  0  0  0  0  0  0  0  0  0  0
   -1.3773    4.6331   -1.4077 H   0  0  0  0  0  0  0  0  0  0  0  0
   -2.9696    4.3961   -0.6483 H   0  0  0  0  0  0  0  0  0  0  0  0
   -2.0114    5.8481   -0.2719 H   0  0  0  0  0  0  0  0  0  0  0  0
  1  2  1  0  0  0  0
  1 27  1  0  0  0  0
  1 28  1  0  0  0  0
  1 29  1  0  0  0  0
  2  8  1  0  0  0  0
  2  3  1  0  0  0  0
  2 26  1  0  0  0  0
  3  4  1  0  0  0  0
  3 30  1  0  0  0  0
  3 31  1  0  0  0  0
  4  5  1  0  0  0  0
  4 17  1  0  0  0  0
  4 18  1  0  0  0  0
  5  6  1  0  0  0  0
  5  9  1  0  0  0  0
  6  7  2  0  0  0  0
  6  8  1  0  0  0  0
  8 32  1  0  0  0  0
  9 14  2  0  0  0  0
  9 10  1  0  0  0  0
 10 11  2  0  0  0  0
 10 33  1  0  0  0  0
 11 12  1  0  0  0  0
 11 34  1  0  0  0  0
 12 13  2  0  0  0  0
 12 15  1  0  0  0  0
 13 14  1  0  0  0  0
 13 35  1  0  0  0  0
 14 36  1  0  0  0  0
 15 16  1  0  0  0  0
 16 37  1  0  0  0  0
 16 38  1  0  0  0  0
 16 39  1  0  0  0  0
 17 40  1  0  0  0  0
 17 41  1  0  0  0  0
 17 42  1  0  0  0  0
 18 23  2  0  0  0  0
 18 19  1  0  0  0  0
 19 20  2  0  0  0  0
 19 43  1  0  0  0  0
 20 21  1  0  0  0  0
 20 44  1  0  0  0  0
 21 22  2  0  0  0  0
 21 25  1  0  0  0  0
 22 23  1  0  0  0  0
 22 45  1  0  0  0  0
 23 24  1  0  0  0  0
 24 46  1  0  0  0  0
 25 47  1  0  0  0  0
 26 48  1  0  0  0  0
 26 49  1  0  0  0  0
 26 50  1  0  0  0  0
M  END
$$$$
ZINC04087173
  -OEChem-08230709453D

 47 50  0     1  0  0  0  0  0999 V2000
   -1.2190    1.7506    0.0173 C   0  0  0  0  0  0  0  0  0  0  0  0
   -0.0126    1.0758    0.0080 C   0  0  0  0  0  0  0  0  0  0  0  0
    1.1750    1.7832    0.0004 C   0  0  0  0  0  0  0  0  0  0  0  0
    1.1563    3.1654    0.0076 C   0  0  0  0  0  0  0  0  0  0  0  0
   -0.0501    3.8402    0.0228 C   0  0  0  0  0  0  0  0  0  0  0  0
   -1.2377    3.1328    0.0299 C   0  0  0  0  0  0  0  0  0  0  0  0
    2.4510    3.9366   -0.0006 C   0  0  0  0  0  0  0  0  0  0  0  0
    3.9816    5.1408   -1.4401 C   0  0  0  0  0  0  0  0  0  0  0  0
    4.6319    5.1106   -2.8262 C   0  0  0  0  0  0  0  0  0  0  0  0
    3.5356    5.2928   -3.8693 C   0  0  0  0  0  0  0  0  0  0  0  0
    2.2406    5.0921   -3.5347 C   0  0  0  0  0  0  0  0  0  0  0  0
    1.3361    5.4107   -5.0208 S   0  0  0  0  0  0  0  0  0  0  0  0
    2.6562    5.8038   -6.0728 C   0  0  0  0  0  0  0  0  0  0  0  0
    3.7666    5.6794   -5.2482 C   0  0  0  0  0  0  0  0  0  0  0  0
    5.1207    5.9297   -5.7519 C   0  0  0  0  0  0  0  0  0  0  0  0
    5.7699    5.0185   -6.2310 O   0  0  0  0  0  0  0  0  0  0  0  0
    5.6465    7.1689   -5.6844 N   0  0  0  0  0  0  0  0  0  0  0  0
    2.6138    6.1577   -7.4128 N   0  0  0  0  0  0  0  0  0  0  0  0
    1.4305    6.2274   -8.0543 C   0  0  0  0  0  0  0  0  0  0  0  0
    0.4029    5.9806   -7.4594 O   0  0  0  0  0  0  0  0  0  0  0  0
    1.3845    6.6119   -9.5107 C   0  0  0  0  0  0  0  0  0  0  0  0
    0.7685    7.9670   -9.8644 C   0  0  0  0  0  0  0  0  0  0  0  0
    0.0108    6.6752  -10.1815 C   0  0  0  0  0  0  0  0  0  0  0  0
    1.7228    4.6869   -2.1902 C   0  0  0  0  0  0  0  0  0  0  0  0
   -2.1469    1.1980    0.0188 H   0  0  0  0  0  0  0  0  0  0  0  0
    0.0021   -0.0041    0.0020 H   0  0  0  0  0  0  0  0  0  0  0  0
    2.1175    1.2560   -0.0115 H   0  0  0  0  0  0  0  0  0  0  0  0
   -0.0647    4.9201    0.0288 H   0  0  0  0  0  0  0  0  0  0  0  0
   -2.1802    3.6600    0.0414 H   0  0  0  0  0  0  0  0  0  0  0  0
    2.3126    4.8845    0.5194 H   0  0  0  0  0  0  0  0  0  0  0  0
    3.2233    3.3553    0.5031 H   0  0  0  0  0  0  0  0  0  0  0  0
    3.6160    6.1469   -1.2342 H   0  0  0  0  0  0  0  0  0  0  0  0
    4.7210    4.8661   -0.6878 H   0  0  0  0  0  0  0  0  0  0  0  0
    5.3575    5.9197   -2.9099 H   0  0  0  0  0  0  0  0  0  0  0  0
    5.1290    4.1526   -2.9785 H   0  0  0  0  0  0  0  0  0  0  0  0
    5.1291    7.8951   -5.3026 H   0  0  0  0  0  0  0  0  0  0  0  0
    6.5423    7.3344   -6.0176 H   0  0  0  0  0  0  0  0  0  0  0  0
    3.4358    6.3550   -7.8886 H   0  0  0  0  0  0  0  0  0  0  0  0
    2.2241    6.2677  -10.1146 H   0  0  0  0  0  0  0  0  0  0  0  0
    0.3965    8.5804   -9.0437 H   0  0  0  0  0  0  0  0  0  0  0  0
    1.2025    8.5141  -10.7013 H   0  0  0  0  0  0  0  0  0  0  0  0
   -0.0532    6.3731  -11.2268 H   0  0  0  0  0  0  0  0  0  0  0  0
   -0.8595    6.4384   -9.5695 H   0  0  0  0  0  0  0  0  0  0  0  0
    0.9825    3.8950   -2.3045 H   0  0  0  0  0  0  0  0  0  0  0  0
    1.2694    5.5464   -1.6964 H   0  0  0  0  0  0  0  0  0  0  0  0
    2.8674    4.1714   -1.4000 N   0  3  2  0  0  0  0  0  0  0  0  0
    3.1822    3.2834   -1.8079 H   0  0  0  0  0  0  0  0  0  0  0  0
  1  6  2  0  0  0  0
  1  2  1  0  0  0  0
  1 25  1  0  0  0  0
  2  3  2  0  0  0  0
  2 26  1  0  0  0  0
  3  4  1  0  0  0  0
  3 27  1  0  0  0  0
  4  5  2  0  0  0  0
  4  7  1  0  0  0  0
  5  6  1  0  0  0  0
  5 28  1  0  0  0  0
  6 29  1  0  0  0  0
  7 30  1  0  0  0  0
  7 31  1  0  0  0  0
  7 46  1  0  0  0  0
  8  9  1  0  0  0  0
  8 32  1  0  0  0  0
  8 33  1  0  0  0  0
  8 46  1  0  0  0  0
  9 10  1  0  0  0  0
  9 34  1  0  0  0  0
  9 35  1  0  0  0  0
 10 14  1  0  0  0  0
 10 11  2  0  0  0  0
 11 12  1  0  0  0  0
 11 24  1  0  0  0  0
 12 13  1  0  0  0  0
 13 14  2  0  0  0  0
 13 18  1  0  0  0  0
 14 15  1  0  0  0  0
 15 16  2  0  0  0  0
 15 17  1  0  0  0  0
 17 36  1  0  0  0  0
 17 37  1  0  0  0  0
 18 19  1  0  0  0  0
 18 38  1  0  0  0  0
 19 20  2  0  0  0  0
 19 21  1  0  0  0  0
 21 23  1  0  0  0  0
 21 22  1  0  0  0  0
 21 39  1  0  0  0  0
 22 23  1  0  0  0  0
 22 40  1  0  0  0  0
 22 41  1  0  0  0  0
 23 42  1  0  0  0  0
 23 43  1  0  0  0  0
 24 44  1  0  0  0  0
 24 45  1  0  0  0  0
 24 46  1  0  0  0  0
 46 47  1  0  0  0  0
M  CHG  1  46   1
M  END
$$$$
ZINC04103979
  -OEChem-08230709453D

 39 42  0     0  0  0  0  0  0999 V2000
    7.4429    3.8502   -0.9043 H   0  0  0  0  0  0  0  0  0  0  0  0
    6.4764    3.9143   -0.8530 N   0  0  0  0  0  0  0  0  0  0  0  0
    5.9198    4.9257   -0.2381 C   0  0  0  0  0  0  0  0  0  0  0  0
    4.4468    5.0964   -0.1160 C   0  0  0  0  0  0  0  0  0  0  0  0
    3.5943    4.0126   -0.0099 C   0  0  0  0  0  0  0  0  0  0  0  0
    2.2263    4.2154    0.2814 C   0  0  0  0  0  0  0  0  0  0  0  0
    1.6857    5.2015    1.0844 C   0  0  0  0  0  0  0  0  0  0  0  0
    0.3451    5.0703    1.1193 N   0  0  0  0  0  0  0  0  0  0  0  0
   -0.2527    5.6491    1.6179 H   0  0  0  0  0  0  0  0  0  0  0  0
   -0.0614    4.0002    0.3475 C   0  0  0  0  0  0  0  0  0  0  0  0
    1.0864    3.4163   -0.2111 C   0  0  0  0  0  0  0  0  0  0  0  0
    0.9724    2.3061   -1.0418 C   0  0  0  0  0  0  0  0  0  0  0  0
   -0.2734    1.7821   -1.3139 C   0  0  0  0  0  0  0  0  0  0  0  0
   -1.4092    2.3603   -0.7675 C   0  0  0  0  0  0  0  0  0  0  0  0
   -1.3097    3.4576    0.0607 C   0  0  0  0  0  0  0  0  0  0  0  0
    3.9424    6.4894   -0.1080 C   0  0  0  0  0  0  0  0  0  0  0  0
    2.8059    6.7485   -0.4708 O   0  0  0  0  0  0  0  0  0  0  0  0
    4.7761    7.4624    0.3117 N   0  0  0  0  0  0  0  0  0  0  0  0
    6.0268    7.1679    0.5621 C   0  0  0  0  0  0  0  0  0  0  0  0
    6.6600    5.9589    0.3685 N   0  0  0  0  0  0  0  0  0  0  0  0
    7.9767    5.8770    0.7687 N   0  0  0  0  0  0  0  0  0  0  0  0
    8.5985    6.9087    1.2630 C   0  0  0  0  0  0  0  0  0  0  0  0
    7.3292    8.1670    1.2327 S   0  0  0  0  0  0  0  0  0  0  0  0
   10.0244    7.0150    1.7388 C   0  0  0  0  0  0  0  0  0  0  0  0
   10.7225    5.6649    1.5635 C   0  0  0  0  0  0  0  0  0  0  0  0
   12.1702    5.7728    2.0466 C   0  0  0  0  0  0  0  0  0  0  0  0
    3.9740    3.0112   -0.1496 H   0  0  0  0  0  0  0  0  0  0  0  0
    2.2510    5.9605    1.6047 H   0  0  0  0  0  0  0  0  0  0  0  0
    1.8557    1.8567   -1.4712 H   0  0  0  0  0  0  0  0  0  0  0  0
   -0.3655    0.9206   -1.9586 H   0  0  0  0  0  0  0  0  0  0  0  0
   -2.3808    1.9447   -0.9902 H   0  0  0  0  0  0  0  0  0  0  0  0
   -2.2005    3.8978    0.4839 H   0  0  0  0  0  0  0  0  0  0  0  0
   10.5468    7.7727    1.1547 H   0  0  0  0  0  0  0  0  0  0  0  0
   10.0361    7.2960    2.7919 H   0  0  0  0  0  0  0  0  0  0  0  0
   10.2001    4.9072    2.1476 H   0  0  0  0  0  0  0  0  0  0  0  0
   10.7109    5.3838    0.5104 H   0  0  0  0  0  0  0  0  0  0  0  0
   12.1819    6.0538    3.0996 H   0  0  0  0  0  0  0  0  0  0  0  0
   12.6676    4.8109    1.9217 H   0  0  0  0  0  0  0  0  0  0  0  0
   12.6926    6.5305    1.4625 H   0  0  0  0  0  0  0  0  0  0  0  0
  1  2  1  0  0  0  0
  2  3  2  0  0  0  0
  3 20  1  0  0  0  0
  3  4  1  0  0  0  0
  4  5  2  0  0  0  0
  4 16  1  0  0  0  0
  5  6  1  0  0  0  0
  5 27  1  0  0  0  0
  6 11  1  0  0  0  0
  6  7  2  0  0  0  0
  7  8  1  0  0  0  0
  7 28  1  0  0  0  0
  8  9  1  0  0  0  0
  8 10  1  0  0  0  0
 10 15  2  0  0  0  0
 10 11  1  0  0  0  0
 11 12  2  0  0  0  0
 12 13  1  0  0  0  0
 12 29  1  0  0  0  0
 13 14  2  0  0  0  0
 13 30  1  0  0  0  0
 14 15  1  0  0  0  0
 14 31  1  0  0  0  0
 15 32  1  0  0  0  0
 16 17  2  0  0  0  0
 16 18  1  0  0  0  0
 18 19  2  0  0  0  0
 19 23  1  0  0  0  0
 19 20  1  0  0  0  0
 20 21  1  0  0  0  0
 21 22  2  0  0  0  0
 22 23  1  0  0  0  0
 22 24  1  0  0  0  0
 24 25  1  0  0  0  0
 24 33  1  0  0  0  0
 24 34  1  0  0  0  0
 25 26  1  0  0  0  0
 25 35  1  0  0  0  0
 25 36  1  0  0  0  0
 26 37  1  0  0  0  0
 26 38  1  0  0  0  0
 26 39  1  0  0  0  0
M  END
$$$$
ZINC04117159
  -OEChem-08230709453D

 45 47  0     0  0  0  0  0  0999 V2000
    0.4981   -2.6992   -1.2657 C   0  0  0  0  0  0  0  0  0  0  0  0
    1.2256   -2.1871   -0.0209 C   0  0  0  0  0  0  0  0  0  0  0  0
    2.6738   -2.6802   -0.0375 C   0  0  0  0  0  0  0  0  0  0  0  0
    0.5225   -2.7117    1.2326 C   0  0  0  0  0  0  0  0  0  0  0  0
    1.2080   -0.6802   -0.0131 C   0  0  0  0  0  0  0  0  0  0  0  0
    0.0021   -0.0041    0.0020 C   0  0  0  0  0  0  0  0  0  0  0  0
   -0.0167    1.3772    0.0096 C   0  0  0  0  0  0  0  0  0  0  0  0
    1.1759    2.0860    0.0020 C   0  0  0  0  0  0  0  0  0  0  0  0
    2.3846    1.4052   -0.0127 C   0  0  0  0  0  0  0  0  0  0  0  0
    2.3980    0.0239   -0.0207 C   0  0  0  0  0  0  0  0  0  0  0  0
    1.1601    3.4449    0.0099 O   0  0  0  0  0  0  0  0  0  0  0  0
    2.4257    4.1084    0.0014 C   0  0  0  0  0  0  0  0  0  0  0  0
    2.2077    5.6228    0.0121 C   0  0  0  0  0  0  0  0  0  0  0  0
    3.8106    6.4633    0.0013 S   0  0  0  0  0  0  0  0  0  0  0  0
    3.2760    8.1421    0.0161 C   0  0  0  0  0  0  0  0  0  0  0  0
    4.1035    9.2322    0.0197 N   0  0  0  0  0  0  0  0  0  0  0  0
    5.1034    9.2164    0.0168 H   0  0  0  0  0  0  0  0  0  0  0  0
    3.3065   10.3539    0.0281 C   0  0  0  0  0  0  0  0  0  0  0  0
    1.9804    9.8913    0.0390 C   0  0  0  0  0  0  0  0  0  0  0  0
    2.0259    8.5354    0.0310 N   0  0  0  0  0  0  0  0  0  0  0  0
    0.9467   10.8414    0.0548 C   0  0  0  0  0  0  0  0  0  0  0  0
    1.2707   12.1306    0.0587 N   0  0  0  0  0  0  0  0  0  0  0  0
    2.5328   12.5180    0.0480 C   0  0  0  0  0  0  0  0  0  0  0  0
    3.5340   11.6625    0.0331 N   0  0  0  0  0  0  0  0  0  0  0  0
   -0.3809   10.4443    0.0665 N   0  0  0  0  0  0  0  0  0  0  0  0
    0.9990   -2.3254   -2.1587 H   0  0  0  0  0  0  0  0  0  0  0  0
    0.5108   -3.7891   -1.2713 H   0  0  0  0  0  0  0  0  0  0  0  0
   -0.5336   -2.3478   -1.2539 H   0  0  0  0  0  0  0  0  0  0  0  0
    3.1920   -2.3154    0.8494 H   0  0  0  0  0  0  0  0  0  0  0  0
    2.6865   -3.7701   -0.0431 H   0  0  0  0  0  0  0  0  0  0  0  0
    3.1747   -2.3064   -0.9305 H   0  0  0  0  0  0  0  0  0  0  0  0
   -0.5093   -2.3604    1.2444 H   0  0  0  0  0  0  0  0  0  0  0  0
    0.5351   -3.8017    1.2270 H   0  0  0  0  0  0  0  0  0  0  0  0
    1.0407   -2.3469    2.1195 H   0  0  0  0  0  0  0  0  0  0  0  0
   -0.9261   -0.5563    0.0076 H   0  0  0  0  0  0  0  0  0  0  0  0
   -0.9589    1.9049    0.0169 H   0  0  0  0  0  0  0  0  0  0  0  0
    3.3144    1.9547   -0.0186 H   0  0  0  0  0  0  0  0  0  0  0  0
    3.3387   -0.5065   -0.0325 H   0  0  0  0  0  0  0  0  0  0  0  0
    2.9947    3.8170    0.8842 H   0  0  0  0  0  0  0  0  0  0  0  0
    2.9774    3.8272   -0.8956 H   0  0  0  0  0  0  0  0  0  0  0  0
    1.6386    5.9142   -0.8707 H   0  0  0  0  0  0  0  0  0  0  0  0
    1.6560    5.9041    0.9092 H   0  0  0  0  0  0  0  0  0  0  0  0
    2.7522   13.5754    0.0520 H   0  0  0  0  0  0  0  0  0  0  0  0
   -0.5736    9.9014   -0.7509 H   0  0  0  0  0  0  0  0  0  0  0  0
   -1.0863   11.1101    0.0773 H   0  0  0  0  0  0  0  0  0  0  0  0
  1  2  1  0  0  0  0
  1 26  1  0  0  0  0
  1 27  1  0  0  0  0
  1 28  1  0  0  0  0
  2  3  1  0  0  0  0
  2  4  1  0  0  0  0
  2  5  1  0  0  0  0
  3 29  1  0  0  0  0
  3 30  1  0  0  0  0
  3 31  1  0  0  0  0
  4 32  1  0  0  0  0
  4 33  1  0  0  0  0
  4 34  1  0  0  0  0
  5 10  2  0  0  0  0
  5  6  1  0  0  0  0
  6  7  2  0  0  0  0
  6 35  1  0  0  0  0
  7  8  1  0  0  0  0
  7 36  1  0  0  0  0
  8  9  2  0  0  0  0
  8 11  1  0  0  0  0
  9 10  1  0  0  0  0
  9 37  1  0  0  0  0
 10 38  1  0  0  0  0
 11 12  1  0  0  0  0
 12 13  1  0  0  0  0
 12 39  1  0  0  0  0
 12 40  1  0  0  0  0
 13 14  1  0  0  0  0
 13 41  1  0  0  0  0
 13 42  1  0  0  0  0
 14 15  1  0  0  0  0
 15 20  2  0  0  0  0
 15 16  1  0  0  0  0
 16 17  1  0  0  0  0
 16 18  1  0  0  0  0
 18 24  2  0  0  0  0
 18 19  1  0  0  0  0
 19 20  1  0  0  0  0
 19 21  2  0  0  0  0
 21 22  1  0  0  0  0
 21 25  1  0  0  0  0
 22 23  2  0  0  0  0
 23 24  1  0  0  0  0
 23 43  1  0  0  0  0
 25 44  1  0  0  0  0
 25 45  1  0  0  0  0
M  END
$$$$
ZINC04123388
  -OEChem-08230709453D

 42 43  0     0  0  0  0  0  0999 V2000
  -16.3470    6.4378    1.7151 C   0  0  0  0  0  0  0  0  0  0  0  0
  -15.5664    6.6523    0.5375 O   0  0  0  0  0  0  0  0  0  0  0  0
  -14.4113    5.9438    0.4250 C   0  0  0  0  0  0  0  0  0  0  0  0
  -13.6058    6.1040   -0.6930 C   0  0  0  0  0  0  0  0  0  0  0  0
  -12.4328    5.3845   -0.8081 C   0  0  0  0  0  0  0  0  0  0  0  0
  -12.0594    4.5009    0.1958 C   0  0  0  0  0  0  0  0  0  0  0  0
  -12.8685    4.3375    1.3123 C   0  0  0  0  0  0  0  0  0  0  0  0
  -14.0386    5.0615    1.4285 C   0  0  0  0  0  0  0  0  0  0  0  0
  -10.8697    3.7702    0.0794 N   0  0  0  0  0  0  0  0  0  0  0  0
   -9.7370    4.3852   -0.3146 C   0  0  0  0  0  0  0  0  0  0  0  0
   -9.7740    6.0332   -0.7770 S   0  0  0  0  0  0  0  0  0  0  0  0
   -8.5751    3.7028   -0.3447 N   0  0  0  0  0  0  0  0  0  0  0  0
   -7.3439    4.3713   -0.7730 C   0  0  0  0  0  0  0  0  0  0  0  0
   -6.1793    3.3806   -0.7158 C   0  0  0  0  0  0  0  0  0  0  0  0
   -4.9481    4.0491   -1.1441 N   0  0  0  0  0  0  0  0  0  0  0  0
   -3.7498    3.3453   -1.1751 C   0  0  0  0  0  0  0  0  0  0  0  0
   -3.7267    2.0062   -0.7980 C   0  0  0  0  0  0  0  0  0  0  0  0
   -2.5275    1.3182   -0.8332 C   0  0  0  0  0  0  0  0  0  0  0  0
   -1.3870    1.9948   -1.2458 C   0  0  0  0  0  0  0  0  0  0  0  0
   -1.4816    3.3251   -1.6011 C   0  0  0  0  0  0  0  0  0  0  0  0
   -0.0824    1.2979   -1.2983 N   0  3  0  0  0  0  0  0  0  0  0  0
   -0.0050    0.1252   -0.9786 O   0  0  0  0  0  0  0  0  0  0  0  0
    0.9131    1.8959   -1.6659 O   0  5  0  0  0  0  0  0  0  0  0  0
  -16.6398    5.3893    1.7709 H   0  0  0  0  0  0  0  0  0  0  0  0
  -15.7573    6.6976    2.5942 H   0  0  0  0  0  0  0  0  0  0  0  0
  -17.2393    7.0628    1.6784 H   0  0  0  0  0  0  0  0  0  0  0  0
  -13.8964    6.7913   -1.4737 H   0  0  0  0  0  0  0  0  0  0  0  0
  -11.8058    5.5093   -1.6785 H   0  0  0  0  0  0  0  0  0  0  0  0
  -12.5807    3.6473    2.0915 H   0  0  0  0  0  0  0  0  0  0  0  0
  -14.6658    4.9378    2.2989 H   0  0  0  0  0  0  0  0  0  0  0  0
  -10.8612    2.8218    0.2825 H   0  0  0  0  0  0  0  0  0  0  0  0
   -8.5541    2.7691   -0.0827 H   0  0  0  0  0  0  0  0  0  0  0  0
   -7.1381    5.2126   -0.1112 H   0  0  0  0  0  0  0  0  0  0  0  0
   -7.4633    4.7330   -1.7943 H   0  0  0  0  0  0  0  0  0  0  0  0
   -6.3851    2.5393   -1.3775 H   0  0  0  0  0  0  0  0  0  0  0  0
   -6.0599    3.0188    0.3055 H   0  0  0  0  0  0  0  0  0  0  0  0
   -4.9691    4.9828   -1.4061 H   0  0  0  0  0  0  0  0  0  0  0  0
   -4.6330    1.5107   -0.4825 H   0  0  0  0  0  0  0  0  0  0  0  0
   -2.4790    0.2782   -0.5459 H   0  0  0  0  0  0  0  0  0  0  0  0
   -0.5964    3.8562   -1.9186 H   0  0  0  0  0  0  0  0  0  0  0  0
   -2.6437    4.0313   -1.5842 N   0  3  0  0  0  0  0  0  0  0  0  0
   -2.6860    5.0188   -1.8619 H   0  0  0  0  0  0  0  0  0  0  0  0
  1  2  1  0  0  0  0
  1 24  1  0  0  0  0
  1 25  1  0  0  0  0
  1 26  1  0  0  0  0
  2  3  1  0  0  0  0
  3  8  2  0  0  0  0
  3  4  1  0  0  0  0
  4  5  2  0  0  0  0
  4 27  1  0  0  0  0
  5  6  1  0  0  0  0
  5 28  1  0  0  0  0
  6  7  2  0  0  0  0
  6  9  1  0  0  0  0
  7  8  1  0  0  0  0
  7 29  1  0  0  0  0
  8 30  1  0  0  0  0
  9 10  1  0  0  0  0
  9 31  1  0  0  0  0
 10 11  2  0  0  0  0
 10 12  1  0  0  0  0
 12 13  1  0  0  0  0
 12 32  1  0  0  0  0
 13 14  1  0  0  0  0
 13 33  1  0  0  0  0
 13 34  1  0  0  0  0
 14 15  1  0  0  0  0
 14 35  1  0  0  0  0
 14 36  1  0  0  0  0
 15 16  1  0  0  0  0
 15 37  1  0  0  0  0
 16 17  2  0  0  0  0
 16 41  1  0  0  0  0
 17 18  1  0  0  0  0
 17 38  1  0  0  0  0
 18 19  2  0  0  0  0
 18 39  1  0  0  0  0
 19 20  1  0  0  0  0
 19 21  1  0  0  0  0
 20 40  1  0  0  0  0
 20 41  2  0  0  0  0
 21 22  2  0  0  0  0
 21 23  1  0  0  0  0
 41 42  1  0  0  0  0
M  CHG  3  21   1  23  -1  41   1
M  END
$$$$
ZINC04131230
  -OEChem-08230709453D

 49 50  0     0  0  0  0  0  0999 V2000
    7.6220    0.4760   -2.8917 C   0  0  0  0  0  0  0  0  0  0  0  0
    6.3688   -0.3304   -2.6677 C   0  0  0  0  0  0  0  0  0  0  0  0
    6.1320   -1.4617   -3.4370 C   0  0  0  0  0  0  0  0  0  0  0  0
    4.9928   -2.2141   -3.2493 C   0  0  0  0  0  0  0  0  0  0  0  0
    4.0686   -1.8373   -2.2800 C   0  0  0  0  0  0  0  0  0  0  0  0
    4.3122   -0.6898   -1.5022 C   0  0  0  0  0  0  0  0  0  0  0  0
    5.4757    0.0584   -1.7100 C   0  0  0  0  0  0  0  0  0  0  0  0
    3.3342   -0.3019   -0.4841 C   0  0  0  0  0  0  0  0  0  0  0  0
    2.2249   -1.0658   -0.3272 C   0  0  0  0  0  0  0  0  0  0  0  0
    2.0310   -2.2106   -1.1295 C   0  0  0  0  0  0  0  0  0  0  0  0
    1.0293   -2.8861   -0.9687 O   0  0  0  0  0  0  0  0  0  0  0  0
    2.9209   -2.5717   -2.0706 N   0  0  0  0  0  0  0  0  0  0  0  0
    2.7477   -3.3846   -2.6266 H   0  0  0  0  0  0  0  0  0  0  0  0
    1.1984   -0.6944    0.7117 C   0  0  0  0  0  0  0  0  0  0  0  0
    0.1337    0.0940    0.0863 N   0  0  0  0  0  0  0  0  0  0  0  0
    0.2985    1.5393   -0.0880 C   0  0  0  0  0  0  0  0  0  0  0  0
   -0.3667    2.2727    1.0784 C   0  0  0  0  0  0  0  0  0  0  0  0
    0.3257    1.9668    2.2905 O   0  0  0  0  0  0  0  0  0  0  0  0
   -0.9973   -0.5102   -0.3287 C   0  0  0  0  0  0  0  0  0  0  0  0
   -1.2291   -2.1821   -0.0426 S   0  0  0  0  0  0  0  0  0  0  0  0
   -1.9457    0.2018   -0.9690 N   0  0  0  0  0  0  0  0  0  0  0  0
   -3.1751   -0.4550   -1.4201 C   0  0  0  0  0  0  0  0  0  0  0  0
   -4.0764    0.5696   -2.1120 C   0  0  0  0  0  0  0  0  0  0  0  0
   -5.3020   -0.1388   -2.6924 C   0  0  0  0  0  0  0  0  0  0  0  0
   -4.5282    1.6201   -1.0955 C   0  0  0  0  0  0  0  0  0  0  0  0
    8.4181    0.0956   -2.2518 H   0  0  0  0  0  0  0  0  0  0  0  0
    7.9247    0.3945   -3.9357 H   0  0  0  0  0  0  0  0  0  0  0  0
    7.4295    1.5213   -2.6498 H   0  0  0  0  0  0  0  0  0  0  0  0
    6.8482   -1.7554   -4.1901 H   0  0  0  0  0  0  0  0  0  0  0  0
    4.8177   -3.0925   -3.8528 H   0  0  0  0  0  0  0  0  0  0  0  0
    5.6674    0.9394   -1.1155 H   0  0  0  0  0  0  0  0  0  0  0  0
    3.4926    0.5735    0.1282 H   0  0  0  0  0  0  0  0  0  0  0  0
    1.6727   -0.1060    1.4971 H   0  0  0  0  0  0  0  0  0  0  0  0
    0.7736   -1.6009    1.1431 H   0  0  0  0  0  0  0  0  0  0  0  0
    1.3604    1.7836   -0.1125 H   0  0  0  0  0  0  0  0  0  0  0  0
   -0.1671    1.8478   -1.0240 H   0  0  0  0  0  0  0  0  0  0  0  0
   -0.3299    3.3474    0.9002 H   0  0  0  0  0  0  0  0  0  0  0  0
   -1.4056    1.9539    1.1631 H   0  0  0  0  0  0  0  0  0  0  0  0
   -0.0424    2.3987    3.0735 H   0  0  0  0  0  0  0  0  0  0  0  0
   -1.8144    1.1491   -1.1311 H   0  0  0  0  0  0  0  0  0  0  0  0
   -2.9254   -1.2513   -2.1212 H   0  0  0  0  0  0  0  0  0  0  0  0
   -3.6974   -0.8773   -0.5617 H   0  0  0  0  0  0  0  0  0  0  0  0
   -3.5234    1.0559   -2.9156 H   0  0  0  0  0  0  0  0  0  0  0  0
   -5.8550   -0.6251   -1.8887 H   0  0  0  0  0  0  0  0  0  0  0  0
   -5.9441    0.5912   -3.1853 H   0  0  0  0  0  0  0  0  0  0  0  0
   -4.9801   -0.8872   -3.4165 H   0  0  0  0  0  0  0  0  0  0  0  0
   -3.6551    2.1248   -0.6820 H   0  0  0  0  0  0  0  0  0  0  0  0
   -5.1703    2.3501   -1.5884 H   0  0  0  0  0  0  0  0  0  0  0  0
   -5.0812    1.1338   -0.2919 H   0  0  0  0  0  0  0  0  0  0  0  0
  1  2  1  0  0  0  0
  1 26  1  0  0  0  0
  1 27  1  0  0  0  0
  1 28  1  0  0  0  0
  2  7  2  0  0  0  0
  2  3  1  0  0  0  0
  3  4  2  0  0  0  0
  3 29  1  0  0  0  0
  4  5  1  0  0  0  0
  4 30  1  0  0  0  0
  5 12  1  0  0  0  0
  5  6  2  0  0  0  0
  6  7  1  0  0  0  0
  6  8  1  0  0  0  0
  7 31  1  0  0  0  0
  8  9  2  0  0  0  0
  8 32  1  0  0  0  0
  9 10  1  0  0  0  0
  9 14  1  0  0  0  0
 10 11  2  0  0  0  0
 10 12  1  0  0  0  0
 12 13  1  0  0  0  0
 14 15  1  0  0  0  0
 14 33  1  0  0  0  0
 14 34  1  0  0  0  0
 15 16  1  0  0  0  0
 15 19  1  0  0  0  0
 16 17  1  0  0  0  0
 16 35  1  0  0  0  0
 16 36  1  0  0  0  0
 17 18  1  0  0  0  0
 17 37  1  0  0  0  0
 17 38  1  0  0  0  0
 18 39  1  0  0  0  0
 19 20  2  0  0  0  0
 19 21  1  0  0  0  0
 21 22  1  0  0  0  0
 21 40  1  0  0  0  0
 22 23  1  0  0  0  0
 22 41  1  0  0  0  0
 22 42  1  0  0  0  0
 23 24  1  0  0  0  0
 23 25  1  0  0  0  0
 23 43  1  0  0  0  0
 24 44  1  0  0  0  0
 24 45  1  0  0  0  0
 24 46  1  0  0  0  0
 25 47  1  0  0  0  0
 25 48  1  0  0  0  0
 25 49  1  0  0  0  0
M  END
$$$$
ZINC04131230
  -OEChem-08230709453D

 49 50  0     0  0  0  0  0  0999 V2000
    7.6083    0.4918   -2.9107 C   0  0  0  0  0  0  0  0  0  0  0  0
    6.3580   -0.3179   -2.6828 C   0  0  0  0  0  0  0  0  0  0  0  0
    6.1244   -1.4530   -3.4475 C   0  0  0  0  0  0  0  0  0  0  0  0
    4.9845   -2.2046   -3.2608 C   0  0  0  0  0  0  0  0  0  0  0  0
    4.0630   -1.8309   -2.2877 C   0  0  0  0  0  0  0  0  0  0  0  0
    4.3033   -0.6796   -1.5146 C   0  0  0  0  0  0  0  0  0  0  0  0
    5.4640    0.0719   -1.7263 C   0  0  0  0  0  0  0  0  0  0  0  0
    3.3246   -0.2910   -0.4974 C   0  0  0  0  0  0  0  0  0  0  0  0
    2.2182   -1.0581   -0.3365 C   0  0  0  0  0  0  0  0  0  0  0  0
    2.0306   -2.2102   -1.1300 C   0  0  0  0  0  0  0  0  0  0  0  0
    1.0313   -2.8884   -0.9660 O   0  0  0  0  0  0  0  0  0  0  0  0
    2.9205   -2.5713   -2.0711 N   0  0  0  0  0  0  0  0  0  0  0  0
    0.4749   -2.4910   -0.2362 H   0  0  0  0  0  0  0  0  0  0  0  0
    1.1881   -0.6827    0.6974 C   0  0  0  0  0  0  0  0  0  0  0  0
    0.1247    0.1017    0.0650 N   0  0  0  0  0  0  0  0  0  0  0  0
    0.2887    1.5463   -0.1157 C   0  0  0  0  0  0  0  0  0  0  0  0
   -0.3807    2.2846    1.0451 C   0  0  0  0  0  0  0  0  0  0  0  0
    0.3082    1.9852    2.2608 O   0  0  0  0  0  0  0  0  0  0  0  0
   -1.0045   -0.5055   -0.3506 C   0  0  0  0  0  0  0  0  0  0  0  0
   -1.2357   -2.1762   -0.0573 S   0  0  0  0  0  0  0  0  0  0  0  0
   -1.9516    0.2026   -0.9972 N   0  0  0  0  0  0  0  0  0  0  0  0
   -3.1790   -0.4575   -1.4490 C   0  0  0  0  0  0  0  0  0  0  0  0
   -4.0791    0.5630   -2.1485 C   0  0  0  0  0  0  0  0  0  0  0  0
   -5.3022   -0.1493   -2.7293 C   0  0  0  0  0  0  0  0  0  0  0  0
   -4.5349    1.6179   -1.1385 C   0  0  0  0  0  0  0  0  0  0  0  0
    8.4061    0.1165   -2.2699 H   0  0  0  0  0  0  0  0  0  0  0  0
    7.9106    0.4072   -3.9546 H   0  0  0  0  0  0  0  0  0  0  0  0
    7.4125    1.5374   -2.6728 H   0  0  0  0  0  0  0  0  0  0  0  0
    6.8411   -1.7472   -4.1999 H   0  0  0  0  0  0  0  0  0  0  0  0
    4.8093   -3.0830   -3.8644 H   0  0  0  0  0  0  0  0  0  0  0  0
    5.6530    0.9560   -1.1356 H   0  0  0  0  0  0  0  0  0  0  0  0
    3.4805    0.5873    0.1114 H   0  0  0  0  0  0  0  0  0  0  0  0
    1.6595   -0.0902    1.4814 H   0  0  0  0  0  0  0  0  0  0  0  0
    0.7628   -1.5876    1.1318 H   0  0  0  0  0  0  0  0  0  0  0  0
    1.3505    1.7915   -0.1381 H   0  0  0  0  0  0  0  0  0  0  0  0
   -0.1743    1.8499   -1.0546 H   0  0  0  0  0  0  0  0  0  0  0  0
   -0.3444    3.3585    0.8619 H   0  0  0  0  0  0  0  0  0  0  0  0
   -1.4196    1.9653    1.1281 H   0  0  0  0  0  0  0  0  0  0  0  0
   -0.0627    2.4204    3.0406 H   0  0  0  0  0  0  0  0  0  0  0  0
   -1.8206    1.1492   -1.1634 H   0  0  0  0  0  0  0  0  0  0  0  0
   -2.9264   -1.2569   -2.1455 H   0  0  0  0  0  0  0  0  0  0  0  0
   -3.7035   -0.8762   -0.5902 H   0  0  0  0  0  0  0  0  0  0  0  0
   -3.5240    1.0460   -2.9527 H   0  0  0  0  0  0  0  0  0  0  0  0
   -5.8573   -0.6322   -1.9250 H   0  0  0  0  0  0  0  0  0  0  0  0
   -5.9434    0.5778   -3.2277 H   0  0  0  0  0  0  0  0  0  0  0  0
   -4.9774   -0.9008   -3.4489 H   0  0  0  0  0  0  0  0  0  0  0  0
   -3.6636    2.1254   -0.7247 H   0  0  0  0  0  0  0  0  0  0  0  0
   -5.1762    2.3450   -1.6368 H   0  0  0  0  0  0  0  0  0  0  0  0
   -5.0900    1.1349   -0.3343 H   0  0  0  0  0  0  0  0  0  0  0  0
  1  2  1  0  0  0  0
  1 26  1  0  0  0  0
  1 27  1  0  0  0  0
  1 28  1  0  0  0  0
  2  7  2  0  0  0  0
  2  3  1  0  0  0  0
  3  4  2  0  0  0  0
  3 29  1  0  0  0  0
  4  5  1  0  0  0  0
  4 30  1  0  0  0  0
  5  6  2  0  0  0  0
  5 12  1  0  0  0  0
  6  7  1  0  0  0  0
  6  8  1  0  0  0  0
  7 31  1  0  0  0  0
  8 32  1  0  0  0  0
  8  9  2  0  0  0  0
  9 14  1  0  0  0  0
  9 10  1  0  0  0  0
 10 12  2  0  0  0  0
 10 11  1  0  0  0  0
 11 13  1  0  0  0  0
 14 15  1  0  0  0  0
 14 33  1  0  0  0  0
 14 34  1  0  0  0  0
 15 16  1  0  0  0  0
 15 19  1  0  0  0  0
 16 17  1  0  0  0  0
 16 35  1  0  0  0  0
 16 36  1  0  0  0  0
 17 18  1  0  0  0  0
 17 37  1  0  0  0  0
 17 38  1  0  0  0  0
 18 39  1  0  0  0  0
 19 20  2  0  0  0  0
 19 21  1  0  0  0  0
 21 22  1  0  0  0  0
 21 40  1  0  0  0  0
 22 23  1  0  0  0  0
 22 41  1  0  0  0  0
 22 42  1  0  0  0  0
 23 24  1  0  0  0  0
 23 25  1  0  0  0  0
 23 43  1  0  0  0  0
 24 44  1  0  0  0  0
 24 45  1  0  0  0  0
 24 46  1  0  0  0  0
 25 47  1  0  0  0  0
 25 48  1  0  0  0  0
 25 49  1  0  0  0  0
M  END
$$$$
ZINC04136483
  -OEChem-08230709453D

 42 44  0     0  0  0  0  0  0999 V2000
    1.6053   -1.5753   -0.2006 C   0  0  0  0  0  0  0  0  0  0  0  0
    2.3516   -0.3169   -0.2780 N   0  0  0  0  0  0  0  0  0  0  0  0
    1.6913    0.8906   -0.1160 C   0  0  0  0  0  0  0  0  0  0  0  0
    2.4239    2.0706   -0.1941 C   0  0  0  0  0  0  0  0  0  0  0  0
    3.8074    2.0048   -0.4343 C   0  0  0  0  0  0  0  0  0  0  0  0
    4.4690    3.0259   -0.5062 O   0  0  0  0  0  0  0  0  0  0  0  0
    4.3952    0.7998   -0.5833 N   0  0  0  0  0  0  0  0  0  0  0  0
    5.3793    0.7497   -0.7539 H   0  0  0  0  0  0  0  0  0  0  0  0
    3.6784   -0.3346   -0.5060 C   0  0  0  0  0  0  0  0  0  0  0  0
    4.2419   -1.4031   -0.6459 O   0  0  0  0  0  0  0  0  0  0  0  0
    1.5197    3.1062    0.0024 N   0  0  0  0  0  0  0  0  0  0  0  0
    0.3008    2.5313    0.1882 C   0  0  0  0  0  0  0  0  0  0  0  0
    0.4192    1.2205    0.1103 N   0  0  0  0  0  0  0  0  0  0  0  0
   -1.2025    3.4026    0.4807 S   0  0  0  0  0  0  0  0  0  0  0  0
   -2.3505    2.0104    0.6215 C   0  0  0  0  0  0  0  0  0  0  0  0
   -3.7623    2.5381    0.8846 C   0  0  0  0  0  0  0  0  0  0  0  0
   -4.7327    1.3612    1.0037 C   0  0  0  0  0  0  0  0  0  0  0  0
   -6.0513    1.8541    1.2494 O   0  0  0  0  0  0  0  0  0  0  0  0
    1.8202    4.5400    0.0080 C   0  0  0  0  0  0  0  0  0  0  0  0
    2.0631    4.9968    1.4234 C   0  0  0  0  0  0  0  0  0  0  0  0
    3.2503    4.6812    2.0575 C   0  0  0  0  0  0  0  0  0  0  0  0
    3.4730    5.0997    3.3559 C   0  0  0  0  0  0  0  0  0  0  0  0
    2.5092    5.8348    4.0209 C   0  0  0  0  0  0  0  0  0  0  0  0
    1.3222    6.1513    3.3878 C   0  0  0  0  0  0  0  0  0  0  0  0
    1.1006    5.7368    2.0864 C   0  0  0  0  0  0  0  0  0  0  0  0
   -0.3872    6.1400    1.2880 Cl  0  0  0  0  0  0  0  0  0  0  0  0
    1.2465   -1.8465   -1.1935 H   0  0  0  0  0  0  0  0  0  0  0  0
    2.2581   -2.3621    0.1774 H   0  0  0  0  0  0  0  0  0  0  0  0
    0.7562   -1.4534    0.4718 H   0  0  0  0  0  0  0  0  0  0  0  0
   -2.3435    1.4384   -0.3063 H   0  0  0  0  0  0  0  0  0  0  0  0
   -2.0431    1.3680    1.4468 H   0  0  0  0  0  0  0  0  0  0  0  0
   -3.7694    3.1101    1.8124 H   0  0  0  0  0  0  0  0  0  0  0  0
   -4.0697    3.1805    0.0594 H   0  0  0  0  0  0  0  0  0  0  0  0
   -4.7257    0.7892    0.0759 H   0  0  0  0  0  0  0  0  0  0  0  0
   -4.4253    0.7189    1.8289 H   0  0  0  0  0  0  0  0  0  0  0  0
   -6.7203    1.1613    1.3362 H   0  0  0  0  0  0  0  0  0  0  0  0
    2.7107    4.7270   -0.5921 H   0  0  0  0  0  0  0  0  0  0  0  0
    0.9774    5.0895   -0.4115 H   0  0  0  0  0  0  0  0  0  0  0  0
    4.0036    4.1073    1.5384 H   0  0  0  0  0  0  0  0  0  0  0  0
    4.4005    4.8526    3.8510 H   0  0  0  0  0  0  0  0  0  0  0  0
    2.6841    6.1621    5.0351 H   0  0  0  0  0  0  0  0  0  0  0  0
    0.5696    6.7259    3.9072 H   0  0  0  0  0  0  0  0  0  0  0  0
  1  2  1  0  0  0  0
  1 27  1  0  0  0  0
  1 28  1  0  0  0  0
  1 29  1  0  0  0  0
  2  9  1  0  0  0  0
  2  3  1  0  0  0  0
  3 13  1  0  0  0  0
  3  4  2  0  0  0  0
  4  5  1  0  0  0  0
  4 11  1  0  0  0  0
  5  6  2  0  0  0  0
  5  7  1  0  0  0  0
  7  8  1  0  0  0  0
  7  9  1  0  0  0  0
  9 10  2  0  0  0  0
 11 12  1  0  0  0  0
 11 19  1  0  0  0  0
 12 13  2  0  0  0  0
 12 14  1  0  0  0  0
 14 15  1  0  0  0  0
 15 16  1  0  0  0  0
 15 30  1  0  0  0  0
 15 31  1  0  0  0  0
 16 17  1  0  0  0  0
 16 32  1  0  0  0  0
 16 33  1  0  0  0  0
 17 18  1  0  0  0  0
 17 34  1  0  0  0  0
 17 35  1  0  0  0  0
 18 36  1  0  0  0  0
 19 20  1  0  0  0  0
 19 37  1  0  0  0  0
 19 38  1  0  0  0  0
 20 25  2  0  0  0  0
 20 21  1  0  0  0  0
 21 22  2  0  0  0  0
 21 39  1  0  0  0  0
 22 23  1  0  0  0  0
 22 40  1  0  0  0  0
 23 24  2  0  0  0  0
 23 41  1  0  0  0  0
 24 25  1  0  0  0  0
 24 42  1  0  0  0  0
 25 26  1  0  0  0  0
M  END
$$$$
ZINC04136483
  -OEChem-08230709453D

 43 45  0     0  0  0  0  0  0999 V2000
    1.6053   -1.5753   -0.2006 C   0  0  0  0  0  0  0  0  0  0  0  0
    2.3516   -0.3169   -0.2780 N   0  0  0  0  0  0  0  0  0  0  0  0
    1.6913    0.8906   -0.1160 C   0  0  0  0  0  0  0  0  0  0  0  0
    2.4239    2.0706   -0.1941 C   0  0  0  0  0  0  0  0  0  0  0  0
    3.8074    2.0048   -0.4343 C   0  0  0  0  0  0  0  0  0  0  0  0
    4.4690    3.0259   -0.5062 O   0  0  0  0  0  0  0  0  0  0  0  0
    4.3952    0.7998   -0.5833 N   0  0  0  0  0  0  0  0  0  0  0  0
    5.3793    0.7497   -0.7539 H   0  0  0  0  0  0  0  0  0  0  0  0
    3.6784   -0.3346   -0.5060 C   0  0  0  0  0  0  0  0  0  0  0  0
    4.2419   -1.4031   -0.6459 O   0  0  0  0  0  0  0  0  0  0  0  0
    1.5197    3.1062    0.0024 N   0  0  0  0  0  0  0  0  0  0  0  0
    0.3008    2.5313    0.1882 C   0  0  0  0  0  0  0  0  0  0  0  0
   -1.2025    3.4026    0.4807 S   0  0  0  0  0  0  0  0  0  0  0  0
   -2.3505    2.0104    0.6215 C   0  0  0  0  0  0  0  0  0  0  0  0
   -3.7623    2.5381    0.8846 C   0  0  0  0  0  0  0  0  0  0  0  0
   -4.7327    1.3612    1.0037 C   0  0  0  0  0  0  0  0  0  0  0  0
   -6.0513    1.8541    1.2494 O   0  0  0  0  0  0  0  0  0  0  0  0
    1.8202    4.5400    0.0080 C   0  0  0  0  0  0  0  0  0  0  0  0
    2.0631    4.9968    1.4234 C   0  0  0  0  0  0  0  0  0  0  0  0
    3.2503    4.6812    2.0575 C   0  0  0  0  0  0  0  0  0  0  0  0
    3.4730    5.0997    3.3559 C   0  0  0  0  0  0  0  0  0  0  0  0
    2.5092    5.8348    4.0209 C   0  0  0  0  0  0  0  0  0  0  0  0
    1.3222    6.1513    3.3878 C   0  0  0  0  0  0  0  0  0  0  0  0
    1.1006    5.7368    2.0864 C   0  0  0  0  0  0  0  0  0  0  0  0
   -0.3872    6.1400    1.2880 Cl  0  0  0  0  0  0  0  0  0  0  0  0
    1.2465   -1.8465   -1.1935 H   0  0  0  0  0  0  0  0  0  0  0  0
    2.2581   -2.3621    0.1774 H   0  0  0  0  0  0  0  0  0  0  0  0
    0.7562   -1.4534    0.4718 H   0  0  0  0  0  0  0  0  0  0  0  0
   -2.3435    1.4384   -0.3063 H   0  0  0  0  0  0  0  0  0  0  0  0
   -2.0431    1.3680    1.4468 H   0  0  0  0  0  0  0  0  0  0  0  0
   -3.7694    3.1101    1.8124 H   0  0  0  0  0  0  0  0  0  0  0  0
   -4.0697    3.1805    0.0594 H   0  0  0  0  0  0  0  0  0  0  0  0
   -4.7257    0.7892    0.0759 H   0  0  0  0  0  0  0  0  0  0  0  0
   -4.4253    0.7189    1.8289 H   0  0  0  0  0  0  0  0  0  0  0  0
   -6.7203    1.1613    1.3362 H   0  0  0  0  0  0  0  0  0  0  0  0
    2.7107    4.7270   -0.5921 H   0  0  0  0  0  0  0  0  0  0  0  0
    0.9774    5.0895   -0.4115 H   0  0  0  0  0  0  0  0  0  0  0  0
    4.0036    4.1073    1.5384 H   0  0  0  0  0  0  0  0  0  0  0  0
    4.4005    4.8526    3.8510 H   0  0  0  0  0  0  0  0  0  0  0  0
    2.6841    6.1621    5.0351 H   0  0  0  0  0  0  0  0  0  0  0  0
    0.5696    6.7259    3.9072 H   0  0  0  0  0  0  0  0  0  0  0  0
    0.4168    1.2184    0.1106 N   0  3  0  0  0  0  0  0  0  0  0  0
   -0.3564    0.5502    0.2096 H   0  0  0  0  0  0  0  0  0  0  0  0
  1  2  1  0  0  0  0
  1 26  1  0  0  0  0
  1 27  1  0  0  0  0
  1 28  1  0  0  0  0
  2  9  1  0  0  0  0
  2  3  1  0  0  0  0
  3  4  2  0  0  0  0
  3 42  1  0  0  0  0
  4  5  1  0  0  0  0
  4 11  1  0  0  0  0
  5  6  2  0  0  0  0
  5  7  1  0  0  0  0
  7  8  1  0  0  0  0
  7  9  1  0  0  0  0
  9 10  2  0  0  0  0
 11 12  1  0  0  0  0
 11 18  1  0  0  0  0
 12 13  1  0  0  0  0
 12 42  2  0  0  0  0
 13 14  1  0  0  0  0
 14 15  1  0  0  0  0
 14 29  1  0  0  0  0
 14 30  1  0  0  0  0
 15 16  1  0  0  0  0
 15 31  1  0  0  0  0
 15 32  1  0  0  0  0
 16 17  1  0  0  0  0
 16 33  1  0  0  0  0
 16 34  1  0  0  0  0
 17 35  1  0  0  0  0
 18 19  1  0  0  0  0
 18 36  1  0  0  0  0
 18 37  1  0  0  0  0
 19 24  2  0  0  0  0
 19 20  1  0  0  0  0
 20 21  2  0  0  0  0
 20 38  1  0  0  0  0
 21 22  1  0  0  0  0
 21 39  1  0  0  0  0
 22 23  2  0  0  0  0
 22 40  1  0  0  0  0
 23 24  1  0  0  0  0
 23 41  1  0  0  0  0
 24 25  1  0  0  0  0
 42 43  1  0  0  0  0
M  CHG  1  42   1
M  END
$$$$
ZINC04146832
  -OEChem-08230709453D

 48 52  0     0  0  0  0  0  0999 V2000
    1.1691    2.0905    0.0021 C   0  0  0  0  0  0  0  0  0  0  0  0
   -0.0167    1.3819    0.0096 C   0  0  0  0  0  0  0  0  0  0  0  0
    0.0021   -0.0041    0.0020 C   0  0  0  0  0  0  0  0  0  0  0  0
    1.2261   -0.6821   -0.0134 C   0  0  0  0  0  0  0  0  0  0  0  0
    2.4168    0.0428   -0.0209 C   0  0  0  0  0  0  0  0  0  0  0  0
    2.3827    1.4229   -0.0131 C   0  0  0  0  0  0  0  0  0  0  0  0
    3.8660    2.3248   -0.0225 Cl  0  0  0  0  0  0  0  0  0  0  0  0
    1.2564   -2.1627   -0.0211 C   0  0  0  0  0  0  0  0  0  0  0  0
    0.1182   -2.8519   -0.0079 N   0  0  0  0  0  0  0  0  0  0  0  0
    0.1461   -4.1808   -0.0191 C   0  0  0  0  0  0  0  0  0  0  0  0
    1.3108   -4.8213   -0.0337 N   0  0  0  0  0  0  0  0  0  0  0  0
    2.4481   -4.1337   -0.0422 C   0  0  0  0  0  0  0  0  0  0  0  0
    2.4217   -2.8045   -0.0357 N   0  0  0  0  0  0  0  0  0  0  0  0
    3.6570   -4.7996   -0.0574 N   0  0  0  0  0  0  0  0  0  0  0  0
    3.6863   -6.2643   -0.0645 C   0  0  0  0  0  0  0  0  0  0  0  0
    2.9630   -6.7829   -1.3091 C   0  0  0  0  0  0  0  0  0  0  0  0
    2.9937   -8.3125   -1.3165 C   0  0  0  0  0  0  0  0  0  0  0  0
    4.4460   -8.7935   -1.3333 C   0  0  0  0  0  0  0  0  0  0  0  0
    5.1693   -8.2749   -0.0887 C   0  0  0  0  0  0  0  0  0  0  0  0
    5.1387   -6.7453   -0.0813 C   0  0  0  0  0  0  0  0  0  0  0  0
    4.4709   -8.8052    1.1651 C   0  0  0  0  0  0  0  0  0  0  0  0
    3.0186   -8.3242    1.1818 C   0  0  0  0  0  0  0  0  0  0  0  0
    2.2953   -8.8428   -0.0627 C   0  0  0  0  0  0  0  0  0  0  0  0
    2.9879   -6.7946    1.1893 C   0  0  0  0  0  0  0  0  0  0  0  0
   -1.0345   -4.8958   -0.0102 N   0  0  0  0  0  0  0  0  0  0  0  0
   -1.1629   -0.7012    0.0090 O   0  0  0  0  0  0  0  0  0  0  0  0
    1.1499    3.1704    0.0081 H   0  0  0  0  0  0  0  0  0  0  0  0
   -0.9596    1.9084    0.0170 H   0  0  0  0  0  0  0  0  0  0  0  0
    3.3648   -0.4745   -0.0331 H   0  0  0  0  0  0  0  0  0  0  0  0
    4.4871   -4.2979   -0.0633 H   0  0  0  0  0  0  0  0  0  0  0  0
    1.9284   -6.4402   -1.2972 H   0  0  0  0  0  0  0  0  0  0  0  0
    3.4606   -6.4051   -2.2023 H   0  0  0  0  0  0  0  0  0  0  0  0
    2.4784   -8.6819   -2.2032 H   0  0  0  0  0  0  0  0  0  0  0  0
    4.9436   -8.4157   -2.2265 H   0  0  0  0  0  0  0  0  0  0  0  0
    4.4679   -9.8832   -1.3386 H   0  0  0  0  0  0  0  0  0  0  0  0
    6.2040   -8.6176   -0.1006 H   0  0  0  0  0  0  0  0  0  0  0  0
    5.6362   -6.3675   -0.9745 H   0  0  0  0  0  0  0  0  0  0  0  0
    5.6540   -6.3759    0.8054 H   0  0  0  0  0  0  0  0  0  0  0  0
    4.4928   -9.8949    1.1597 H   0  0  0  0  0  0  0  0  0  0  0  0
    4.9862   -8.4358    2.0517 H   0  0  0  0  0  0  0  0  0  0  0  0
    2.5210   -8.7020    2.0750 H   0  0  0  0  0  0  0  0  0  0  0  0
    1.2606   -8.5001   -0.0508 H   0  0  0  0  0  0  0  0  0  0  0  0
    2.3171   -9.9325   -0.0681 H   0  0  0  0  0  0  0  0  0  0  0  0
    3.5032   -6.4252    2.0759 H   0  0  0  0  0  0  0  0  0  0  0  0
    1.9532   -6.4519    1.2012 H   0  0  0  0  0  0  0  0  0  0  0  0
   -1.0142   -5.8656   -0.0146 H   0  0  0  0  0  0  0  0  0  0  0  0
   -1.8844   -4.4285    0.0005 H   0  0  0  0  0  0  0  0  0  0  0  0
   -1.5085   -0.8985   -0.8723 H   0  0  0  0  0  0  0  0  0  0  0  0
  1  6  2  0  0  0  0
  1  2  1  0  0  0  0
  1 27  1  0  0  0  0
  2  3  2  0  0  0  0
  2 28  1  0  0  0  0
  3  4  1  0  0  0  0
  3 26  1  0  0  0  0
  4  5  2  0  0  0  0
  4  8  1  0  0  0  0
  5  6  1  0  0  0  0
  5 29  1  0  0  0  0
  6  7  1  0  0  0  0
  8 13  2  0  0  0  0
  8  9  1  0  0  0  0
  9 10  2  0  0  0  0
 10 11  1  0  0  0  0
 10 25  1  0  0  0  0
 11 12  2  0  0  0  0
 12 13  1  0  0  0  0
 12 14  1  0  0  0  0
 14 15  1  0  0  0  0
 14 30  1  0  0  0  0
 15 20  1  0  0  0  0
 15 24  1  0  0  0  0
 15 16  1  0  0  0  0
 16 17  1  0  0  0  0
 16 31  1  0  0  0  0
 16 32  1  0  0  0  0
 17 23  1  0  0  0  0
 17 18  1  0  0  0  0
 17 33  1  0  0  0  0
 18 19  1  0  0  0  0
 18 34  1  0  0  0  0
 18 35  1  0  0  0  0
 19 20  1  0  0  0  0
 19 21  1  0  0  0  0
 19 36  1  0  0  0  0
 20 37  1  0  0  0  0
 20 38  1  0  0  0  0
 21 22  1  0  0  0  0
 21 39  1  0  0  0  0
 21 40  1  0  0  0  0
 22 23  1  0  0  0  0
 22 24  1  0  0  0  0
 22 41  1  0  0  0  0
 23 42  1  0  0  0  0
 23 43  1  0  0  0  0
 24 44  1  0  0  0  0
 24 45  1  0  0  0  0
 25 46  1  0  0  0  0
 25 47  1  0  0  0  0
 26 48  1  0  0  0  0
M  END
$$$$
ZINC04154833
  -OEChem-08230709453D

 43 46  0     0  0  0  0  0  0999 V2000
    5.5487   -6.4280   -0.6965 C   0  0  0  0  0  0  0  0  0  0  0  0
    5.7033   -4.9318   -0.6036 C   0  0  0  0  0  0  0  0  0  0  0  0
    4.6321   -4.1827   -0.4145 N   0  0  0  0  0  0  0  0  0  0  0  0
    4.7012   -2.8635   -0.3242 C   0  0  0  0  0  0  0  0  0  0  0  0
    5.9694   -2.2276   -0.4391 C   0  0  0  0  0  0  0  0  0  0  0  0
    6.2890   -0.8014   -0.3650 C   0  0  0  0  0  0  0  0  0  0  0  0
    7.5862   -0.4573   -0.4989 C   0  0  0  0  0  0  0  0  0  0  0  0
    8.4505   -1.9892   -0.7218 S   0  0  0  0  0  0  0  0  0  0  0  0
    7.0648   -3.0929   -0.6341 C   0  0  0  0  0  0  0  0  0  0  0  0
    6.9055   -4.3997   -0.7124 N   0  0  0  0  0  0  0  0  0  0  0  0
    8.1666    0.9237   -0.4661 C   0  0  0  0  0  0  0  0  0  0  0  0
    7.0224    1.9348   -0.6265 C   0  0  0  0  0  0  0  0  0  0  0  0
    5.8897    1.5505    0.3299 C   0  0  0  0  0  0  0  0  0  0  0  0
    5.2175    0.2645   -0.1520 C   0  0  0  0  0  0  0  0  0  0  0  0
    3.5567   -2.1138   -0.1267 N   0  0  0  0  0  0  0  0  0  0  0  0
    2.3784   -2.7352    0.3070 N   0  0  0  0  0  0  0  0  0  0  0  0
    1.2702   -2.0604    0.3603 C   0  0  0  0  0  0  0  0  0  0  0  0
    1.0952   -0.8637   -0.4813 C   0  0  0  0  0  0  0  0  0  0  0  0
    1.9098   -0.6673   -1.5992 C   0  0  0  0  0  0  0  0  0  0  0  0
    1.7432    0.4535   -2.3834 C   0  0  0  0  0  0  0  0  0  0  0  0
    0.7668    1.3901   -2.0662 C   0  0  0  0  0  0  0  0  0  0  0  0
   -0.0470    1.2041   -0.9582 C   0  0  0  0  0  0  0  0  0  0  0  0
    0.1108    0.0826   -0.1631 C   0  0  0  0  0  0  0  0  0  0  0  0
   -0.6850   -0.1007    0.9222 O   0  0  0  0  0  0  0  0  0  0  0  0
    0.6086    2.4925   -2.8444 O   0  0  0  0  0  0  0  0  0  0  0  0
    5.3853   -6.7125   -1.7359 H   0  0  0  0  0  0  0  0  0  0  0  0
    6.4531   -6.9104   -0.3257 H   0  0  0  0  0  0  0  0  0  0  0  0
    4.6961   -6.7432   -0.0951 H   0  0  0  0  0  0  0  0  0  0  0  0
    8.6703    1.0876    0.4866 H   0  0  0  0  0  0  0  0  0  0  0  0
    8.8788    1.0420   -1.2828 H   0  0  0  0  0  0  0  0  0  0  0  0
    7.3817    2.9350   -0.3845 H   0  0  0  0  0  0  0  0  0  0  0  0
    6.6589    1.9155   -1.6539 H   0  0  0  0  0  0  0  0  0  0  0  0
    6.2965    1.3942    1.3289 H   0  0  0  0  0  0  0  0  0  0  0  0
    5.1538    2.3540    0.3612 H   0  0  0  0  0  0  0  0  0  0  0  0
    4.5051   -0.0786    0.5982 H   0  0  0  0  0  0  0  0  0  0  0  0
    4.6966    0.4541   -1.0905 H   0  0  0  0  0  0  0  0  0  0  0  0
    3.5695   -1.1574   -0.2883 H   0  0  0  0  0  0  0  0  0  0  0  0
    0.4769   -2.3763    1.0215 H   0  0  0  0  0  0  0  0  0  0  0  0
    2.6698   -1.3930   -1.8484 H   0  0  0  0  0  0  0  0  0  0  0  0
    2.3764    0.6067   -3.2448 H   0  0  0  0  0  0  0  0  0  0  0  0
   -0.8043    1.9350   -0.7161 H   0  0  0  0  0  0  0  0  0  0  0  0
   -0.3720    0.3480    1.7196 H   0  0  0  0  0  0  0  0  0  0  0  0
   -0.0191    2.3747   -3.5705 H   0  0  0  0  0  0  0  0  0  0  0  0
  1  2  1  0  0  0  0
  1 26  1  0  0  0  0
  1 27  1  0  0  0  0
  1 28  1  0  0  0  0
  2 10  2  0  0  0  0
  2  3  1  0  0  0  0
  3  4  2  0  0  0  0
  4  5  1  0  0  0  0
  4 15  1  0  0  0  0
  5  9  2  0  0  0  0
  5  6  1  0  0  0  0
  6 14  1  0  0  0  0
  6  7  2  0  0  0  0
  7  8  1  0  0  0  0
  7 11  1  0  0  0  0
  8  9  1  0  0  0  0
  9 10  1  0  0  0  0
 11 12  1  0  0  0  0
 11 29  1  0  0  0  0
 11 30  1  0  0  0  0
 12 13  1  0  0  0  0
 12 31  1  0  0  0  0
 12 32  1  0  0  0  0
 13 14  1  0  0  0  0
 13 33  1  0  0  0  0
 13 34  1  0  0  0  0
 14 35  1  0  0  0  0
 14 36  1  0  0  0  0
 15 16  1  0  0  0  0
 15 37  1  0  0  0  0
 16 17  2  3  0  0  0
 17 18  1  0  0  0  0
 17 38  1  0  0  0  0
 18 23  2  0  0  0  0
 18 19  1  0  0  0  0
 19 20  2  0  0  0  0
 19 39  1  0  0  0  0
 20 21  1  0  0  0  0
 20 40  1  0  0  0  0
 21 22  2  0  0  0  0
 21 25  1  0  0  0  0
 22 23  1  0  0  0  0
 22 41  1  0  0  0  0
 23 24  1  0  0  0  0
 24 42  1  0  0  0  0
 25 43  1  0  0  0  0
M  END
$$$$
ZINC04155435
  -OEChem-08230709453D

 39 40  0     0  0  0  0  0  0999 V2000
   -1.3413    2.0614    0.0196 C   0  0  0  0  0  0  0  0  0  0  0  0
   -0.0162    1.3438    0.0094 C   0  0  0  0  0  0  0  0  0  0  0  0
    0.0021   -0.0041    0.0020 C   0  0  0  0  0  0  0  0  0  0  0  0
    1.2316   -0.6910   -0.0135 C   0  0  0  0  0  0  0  0  0  0  0  0
    2.4153    0.0565   -0.0208 C   0  0  0  0  0  0  0  0  0  0  0  0
    2.3225    1.4691   -0.0123 C   0  0  0  0  0  0  0  0  0  0  0  0
    3.3351    2.1474   -0.0180 O   0  0  0  0  0  0  0  0  0  0  0  0
    1.1161    2.0609    0.0025 O   0  0  0  0  0  0  0  0  0  0  0  0
    3.7251   -0.6105   -0.0365 C   0  0  0  0  0  0  0  0  0  0  0  0
    4.2937   -0.8997   -1.1690 N   0  0  0  0  0  0  0  0  0  0  0  0
    5.5421   -1.5354   -1.1840 N   0  0  0  0  0  0  0  0  0  0  0  0
    6.1316   -1.8353   -2.3583 C   0  0  0  0  0  0  0  0  0  0  0  0
    5.5797   -1.5540   -3.4053 O   0  0  0  0  0  0  0  0  0  0  0  0
    7.4459   -2.5045   -2.3740 C   0  0  0  0  0  0  0  0  0  0  0  0
    8.0859   -2.8242   -1.1738 C   0  0  0  0  0  0  0  0  0  0  0  0
    9.3121   -3.4547   -1.1955 C   0  0  0  0  0  0  0  0  0  0  0  0
    9.9179   -3.7634   -2.4038 C   0  0  0  0  0  0  0  0  0  0  0  0
    9.2982   -3.4475   -3.5964 C   0  0  0  0  0  0  0  0  0  0  0  0
    8.0624   -2.8181   -3.5928 C   0  0  0  0  0  0  0  0  0  0  0  0
    7.4526   -2.5077   -4.7645 O   0  0  0  0  0  0  0  0  0  0  0  0
    8.1409   -2.8579   -5.9668 C   0  0  0  0  0  0  0  0  0  0  0  0
   10.1036   -3.8575    0.2961 Cl  0  0  0  0  0  0  0  0  0  0  0  0
    4.4088   -0.9590    1.2605 C   0  0  0  0  0  0  0  0  0  0  0  0
    1.2680   -2.0435   -0.0206 O   0  0  0  0  0  0  0  0  0  0  0  0
   -1.6560    2.2288    1.0496 H   0  0  0  0  0  0  0  0  0  0  0  0
   -1.2394    3.0198   -0.4895 H   0  0  0  0  0  0  0  0  0  0  0  0
   -2.0871    1.4546   -0.4941 H   0  0  0  0  0  0  0  0  0  0  0  0
   -0.9256   -0.5570    0.0083 H   0  0  0  0  0  0  0  0  0  0  0  0
    5.9821   -1.7597   -0.3491 H   0  0  0  0  0  0  0  0  0  0  0  0
    7.6190   -2.5817   -0.2306 H   0  0  0  0  0  0  0  0  0  0  0  0
   10.8803   -4.2535   -2.4121 H   0  0  0  0  0  0  0  0  0  0  0  0
    9.7768   -3.6905   -4.5336 H   0  0  0  0  0  0  0  0  0  0  0  0
    9.1049   -2.3498   -5.9948 H   0  0  0  0  0  0  0  0  0  0  0  0
    8.2977   -3.9362   -5.9949 H   0  0  0  0  0  0  0  0  0  0  0  0
    7.5453   -2.5548   -6.8279 H   0  0  0  0  0  0  0  0  0  0  0  0
    4.1073   -1.9588    1.5730 H   0  0  0  0  0  0  0  0  0  0  0  0
    5.4894   -0.9326    1.1202 H   0  0  0  0  0  0  0  0  0  0  0  0
    4.1241   -0.2376    2.0265 H   0  0  0  0  0  0  0  0  0  0  0  0
    1.2699   -2.4322   -0.9061 H   0  0  0  0  0  0  0  0  0  0  0  0
  1  2  1  0  0  0  0
  1 25  1  0  0  0  0
  1 26  1  0  0  0  0
  1 27  1  0  0  0  0
  2  8  1  0  0  0  0
  2  3  2  0  0  0  0
  3  4  1  0  0  0  0
  3 28  1  0  0  0  0
  4  5  2  0  0  0  0
  4 24  1  0  0  0  0
  5  6  1  0  0  0  0
  5  9  1  0  0  0  0
  6  7  2  0  0  0  0
  6  8  1  0  0  0  0
  9 10  2  0  0  0  0
  9 23  1  0  0  0  0
 10 11  1  0  0  0  0
 11 12  1  0  0  0  0
 11 29  1  0  0  0  0
 12 13  2  0  0  0  0
 12 14  1  0  0  0  0
 14 19  2  0  0  0  0
 14 15  1  0  0  0  0
 15 16  2  0  0  0  0
 15 30  1  0  0  0  0
 16 17  1  0  0  0  0
 16 22  1  0  0  0  0
 17 18  2  0  0  0  0
 17 31  1  0  0  0  0
 18 19  1  0  0  0  0
 18 32  1  0  0  0  0
 19 20  1  0  0  0  0
 20 21  1  0  0  0  0
 21 33  1  0  0  0  0
 21 34  1  0  0  0  0
 21 35  1  0  0  0  0
 23 36  1  0  0  0  0
 23 37  1  0  0  0  0
 23 38  1  0  0  0  0
 24 39  1  0  0  0  0
M  END
$$$$
ZINC04170650
  -OEChem-08230709453D

 42 45  0     0  0  0  0  0  0999 V2000
    7.4429    3.8502   -0.9043 H   0  0  0  0  0  0  0  0  0  0  0  0
    6.4764    3.9143   -0.8530 N   0  0  0  0  0  0  0  0  0  0  0  0
    5.9198    4.9257   -0.2381 C   0  0  0  0  0  0  0  0  0  0  0  0
    4.4468    5.0964   -0.1160 C   0  0  0  0  0  0  0  0  0  0  0  0
    3.5943    4.0126   -0.0099 C   0  0  0  0  0  0  0  0  0  0  0  0
    2.2263    4.2154    0.2814 C   0  0  0  0  0  0  0  0  0  0  0  0
    1.6857    5.2015    1.0844 C   0  0  0  0  0  0  0  0  0  0  0  0
    0.3451    5.0703    1.1193 N   0  0  0  0  0  0  0  0  0  0  0  0
   -0.2527    5.6491    1.6179 H   0  0  0  0  0  0  0  0  0  0  0  0
   -0.0614    4.0002    0.3475 C   0  0  0  0  0  0  0  0  0  0  0  0
    1.0864    3.4163   -0.2111 C   0  0  0  0  0  0  0  0  0  0  0  0
    0.9724    2.3061   -1.0418 C   0  0  0  0  0  0  0  0  0  0  0  0
   -0.2734    1.7821   -1.3139 C   0  0  0  0  0  0  0  0  0  0  0  0
   -1.4092    2.3603   -0.7675 C   0  0  0  0  0  0  0  0  0  0  0  0
   -1.3097    3.4576    0.0607 C   0  0  0  0  0  0  0  0  0  0  0  0
    3.9424    6.4894   -0.1080 C   0  0  0  0  0  0  0  0  0  0  0  0
    2.8059    6.7485   -0.4708 O   0  0  0  0  0  0  0  0  0  0  0  0
    4.7761    7.4624    0.3117 N   0  0  0  0  0  0  0  0  0  0  0  0
    6.0268    7.1679    0.5621 C   0  0  0  0  0  0  0  0  0  0  0  0
    6.6600    5.9589    0.3685 N   0  0  0  0  0  0  0  0  0  0  0  0
    7.9767    5.8770    0.7687 N   0  0  0  0  0  0  0  0  0  0  0  0
    8.5985    6.9087    1.2630 C   0  0  0  0  0  0  0  0  0  0  0  0
    7.3292    8.1670    1.2327 S   0  0  0  0  0  0  0  0  0  0  0  0
   10.0244    7.0150    1.7388 C   0  0  0  0  0  0  0  0  0  0  0  0
   10.7225    5.6649    1.5635 C   0  0  0  0  0  0  0  0  0  0  0  0
   10.8168    5.3291    0.0738 C   0  0  0  0  0  0  0  0  0  0  0  0
   12.1296    5.7370    2.1601 C   0  0  0  0  0  0  0  0  0  0  0  0
    3.9740    3.0112   -0.1496 H   0  0  0  0  0  0  0  0  0  0  0  0
    2.2510    5.9605    1.6047 H   0  0  0  0  0  0  0  0  0  0  0  0
    1.8557    1.8567   -1.4712 H   0  0  0  0  0  0  0  0  0  0  0  0
   -0.3655    0.9206   -1.9586 H   0  0  0  0  0  0  0  0  0  0  0  0
   -2.3808    1.9447   -0.9902 H   0  0  0  0  0  0  0  0  0  0  0  0
   -2.2005    3.8978    0.4839 H   0  0  0  0  0  0  0  0  0  0  0  0
   10.5468    7.7727    1.1547 H   0  0  0  0  0  0  0  0  0  0  0  0
   10.0361    7.2960    2.7919 H   0  0  0  0  0  0  0  0  0  0  0  0
   10.1503    4.8908    2.0749 H   0  0  0  0  0  0  0  0  0  0  0  0
   11.3142    4.3673   -0.0511 H   0  0  0  0  0  0  0  0  0  0  0  0
    9.8144    5.2777   -0.3513 H   0  0  0  0  0  0  0  0  0  0  0  0
   11.3891    6.1031   -0.4376 H   0  0  0  0  0  0  0  0  0  0  0  0
   12.0624    5.9762    3.2214 H   0  0  0  0  0  0  0  0  0  0  0  0
   12.6269    4.7751    2.0352 H   0  0  0  0  0  0  0  0  0  0  0  0
   12.7018    6.5110    1.6488 H   0  0  0  0  0  0  0  0  0  0  0  0
  1  2  1  0  0  0  0
  2  3  2  0  0  0  0
  3 20  1  0  0  0  0
  3  4  1  0  0  0  0
  4  5  2  0  0  0  0
  4 16  1  0  0  0  0
  5  6  1  0  0  0  0
  5 28  1  0  0  0  0
  6 11  1  0  0  0  0
  6  7  2  0  0  0  0
  7  8  1  0  0  0  0
  7 29  1  0  0  0  0
  8  9  1  0  0  0  0
  8 10  1  0  0  0  0
 10 15  2  0  0  0  0
 10 11  1  0  0  0  0
 11 12  2  0  0  0  0
 12 13  1  0  0  0  0
 12 30  1  0  0  0  0
 13 14  2  0  0  0  0
 13 31  1  0  0  0  0
 14 15  1  0  0  0  0
 14 32  1  0  0  0  0
 15 33  1  0  0  0  0
 16 17  2  0  0  0  0
 16 18  1  0  0  0  0
 18 19  2  0  0  0  0
 19 23  1  0  0  0  0
 19 20  1  0  0  0  0
 20 21  1  0  0  0  0
 21 22  2  0  0  0  0
 22 23  1  0  0  0  0
 22 24  1  0  0  0  0
 24 25  1  0  0  0  0
 24 34  1  0  0  0  0
 24 35  1  0  0  0  0
 25 26  1  0  0  0  0
 25 27  1  0  0  0  0
 25 36  1  0  0  0  0
 26 37  1  0  0  0  0
 26 38  1  0  0  0  0
 26 39  1  0  0  0  0
 27 40  1  0  0  0  0
 27 41  1  0  0  0  0
 27 42  1  0  0  0  0
M  END
$$$$
ZINC04176095
  -OEChem-08230709453D

 40 42  0     0  0  0  0  0  0999 V2000
    1.4227    1.6154   -0.0028 C   0  0  0  0  0  0  0  0  0  0  0  0
   -0.0127    1.0858    0.0080 C   0  0  0  0  0  0  0  0  0  0  0  0
   -0.7527    1.5927   -1.2315 C   0  0  0  0  0  0  0  0  0  0  0  0
   -0.7288    1.5792    1.2668 C   0  0  0  0  0  0  0  0  0  0  0  0
   -0.0738    0.9805    2.4848 C   0  0  0  0  0  0  0  0  0  0  0  0
    0.9204    1.6305    3.0516 N   0  0  0  0  0  0  0  0  0  0  0  0
    1.5355    1.1476    4.1307 C   0  0  0  0  0  0  0  0  0  0  0  0
    1.0972   -0.0798    4.6551 C   0  0  0  0  0  0  0  0  0  0  0  0
    0.0249   -0.7354    4.0063 C   0  0  0  0  0  0  0  0  0  0  0  0
   -0.5231   -0.1722    2.9439 N   0  0  0  0  0  0  0  0  0  0  0  0
   -0.1949   -1.8957    4.7164 N   0  0  0  0  0  0  0  0  0  0  0  0
    0.7103   -1.9231    5.7414 C   0  0  0  0  0  0  0  0  0  0  0  0
    1.4658   -0.8531    5.6990 N   0  0  0  0  0  0  0  0  0  0  0  0
    0.8110   -2.9080    6.6616 O   0  0  0  0  0  0  0  0  0  0  0  0
   -1.1664   -2.8677    4.4397 C   0  0  0  0  0  0  0  0  0  0  0  0
   -1.1017   -3.6004    3.2620 C   0  0  0  0  0  0  0  0  0  0  0  0
   -2.0572   -4.5609    2.9938 C   0  0  0  0  0  0  0  0  0  0  0  0
   -3.0839   -4.7867    3.8920 C   0  0  0  0  0  0  0  0  0  0  0  0
   -3.1546   -4.0548    5.0642 C   0  0  0  0  0  0  0  0  0  0  0  0
   -2.1979   -3.0955    5.3399 C   0  0  0  0  0  0  0  0  0  0  0  0
   -4.4455   -4.3410    6.1891 Cl  0  0  0  0  0  0  0  0  0  0  0  0
    2.6520    1.8861    4.7612 C   0  0  0  0  0  0  0  0  0  0  0  0
    3.2023    1.4318    5.7450 O   0  0  0  0  0  0  0  0  0  0  0  0
    3.0587    3.0626    4.2444 N   0  0  0  0  0  0  0  0  0  0  0  0
    1.9499    1.2543    0.8802 H   0  0  0  0  0  0  0  0  0  0  0  0
    1.9329    1.2639   -0.8996 H   0  0  0  0  0  0  0  0  0  0  0  0
    1.4079    2.7053    0.0031 H   0  0  0  0  0  0  0  0  0  0  0  0
    0.0021   -0.0041    0.0020 H   0  0  0  0  0  0  0  0  0  0  0  0
   -0.2425    1.2411   -2.1283 H   0  0  0  0  0  0  0  0  0  0  0  0
   -1.7753    1.2154   -1.2238 H   0  0  0  0  0  0  0  0  0  0  0  0
   -0.7675    2.6825   -1.2255 H   0  0  0  0  0  0  0  0  0  0  0  0
   -0.6662    2.6662    1.3180 H   0  0  0  0  0  0  0  0  0  0  0  0
   -1.7755    1.2768    1.2315 H   0  0  0  0  0  0  0  0  0  0  0  0
    0.2658   -2.7687    7.4480 H   0  0  0  0  0  0  0  0  0  0  0  0
   -0.3027   -3.4216    2.5577 H   0  0  0  0  0  0  0  0  0  0  0  0
   -2.0047   -5.1333    2.0795 H   0  0  0  0  0  0  0  0  0  0  0  0
   -3.8323   -5.5355    3.6781 H   0  0  0  0  0  0  0  0  0  0  0  0
   -2.2531   -2.5242    6.2548 H   0  0  0  0  0  0  0  0  0  0  0  0
    2.6195    3.4252    3.4592 H   0  0  0  0  0  0  0  0  0  0  0  0
    3.7906    3.5467    4.6577 H   0  0  0  0  0  0  0  0  0  0  0  0
  1  2  1  0  0  0  0
  1 25  1  0  0  0  0
  1 26  1  0  0  0  0
  1 27  1  0  0  0  0
  2  3  1  0  0  0  0
  2  4  1  0  0  0  0
  2 28  1  0  0  0  0
  3 29  1  0  0  0  0
  3 30  1  0  0  0  0
  3 31  1  0  0  0  0
  4  5  1  0  0  0  0
  4 32  1  0  0  0  0
  4 33  1  0  0  0  0
  5 10  2  0  0  0  0
  5  6  1  0  0  0  0
  6  7  2  0  0  0  0
  7  8  1  0  0  0  0
  7 22  1  0  0  0  0
  8 13  1  0  0  0  0
  8  9  2  0  0  0  0
  9 10  1  0  0  0  0
  9 11  1  0  0  0  0
 11 12  1  0  0  0  0
 11 15  1  0  0  0  0
 12 13  2  0  0  0  0
 12 14  1  0  0  0  0
 14 34  1  0  0  0  0
 15 20  2  0  0  0  0
 15 16  1  0  0  0  0
 16 17  2  0  0  0  0
 16 35  1  0  0  0  0
 17 18  1  0  0  0  0
 17 36  1  0  0  0  0
 18 19  2  0  0  0  0
 18 37  1  0  0  0  0
 19 20  1  0  0  0  0
 19 21  1  0  0  0  0
 20 38  1  0  0  0  0
 22 23  2  0  0  0  0
 22 24  1  0  0  0  0
 24 39  1  0  0  0  0
 24 40  1  0  0  0  0
M  END
$$$$
ZINC04176890
  -OEChem-08230709453D

 45 47  0     0  0  0  0  0  0999 V2000
   10.2645   -6.7642    4.9526 C   0  0  0  0  0  0  0  0  0  0  0  0
   10.6337   -5.7678    3.8840 C   0  0  0  0  0  0  0  0  0  0  0  0
   11.7831   -5.6790    3.5091 O   0  0  0  0  0  0  0  0  0  0  0  0
    9.5974   -4.9014    3.2946 C   0  0  0  0  0  0  0  0  0  0  0  0
    9.9393   -3.9768    2.3031 C   0  0  0  0  0  0  0  0  0  0  0  0
    8.9697   -3.1678    1.7526 C   0  0  0  0  0  0  0  0  0  0  0  0
    7.6461   -3.2711    2.1841 C   0  0  0  0  0  0  0  0  0  0  0  0
    7.3045   -4.1900    3.1781 C   0  0  0  0  0  0  0  0  0  0  0  0
    8.2714   -5.0037    3.7263 C   0  0  0  0  0  0  0  0  0  0  0  0
    6.6052   -2.4017    1.5915 C   0  0  0  0  0  0  0  0  0  0  0  0
    6.9030   -1.5982    0.7297 O   0  0  0  0  0  0  0  0  0  0  0  0
    5.3272   -2.5011    2.0077 N   0  0  0  0  0  0  0  0  0  0  0  0
    4.3530   -1.6874    1.4531 C   0  0  0  0  0  0  0  0  0  0  0  0
    2.9987   -1.6418    1.7462 C   0  0  0  0  0  0  0  0  0  0  0  0
    2.1792   -0.6844    1.0160 C   0  0  0  0  0  0  0  0  0  0  0  0
    2.8466    0.0616    0.1096 C   0  0  0  0  0  0  0  0  0  0  0  0
    4.5303   -0.4794    0.2248 S   0  0  0  0  0  0  0  0  0  0  0  0
    2.2880    1.1048   -0.8069 C   0  0  0  0  0  0  0  0  0  0  0  0
    1.4063    2.0676   -0.0003 C   0  0  0  0  0  0  0  0  0  0  0  0
   -0.0186    1.5231    0.0104 C   0  0  0  0  0  0  0  0  0  0  0  0
    0.0021   -0.0041    0.0020 C   0  0  0  0  0  0  0  0  0  0  0  0
    0.6826   -0.5346    1.2591 C   0  0  0  0  0  0  0  0  0  0  0  0
    2.4114   -2.5273    2.7564 C   0  0  0  0  0  0  0  0  0  0  0  0
    1.9828   -3.6196    2.4330 O   0  0  0  0  0  0  0  0  0  0  0  0
    2.3461   -2.1318    4.0432 N   0  0  0  0  0  0  0  0  0  0  0  0
   10.0168   -7.6341    4.5260 H   0  0  0  0  0  0  0  0  0  0  0  0
   11.1145   -6.9149    5.6182 H   0  0  0  0  0  0  0  0  0  0  0  0
    9.4175   -6.3860    5.5250 H   0  0  0  0  0  0  0  0  0  0  0  0
   10.9631   -3.8972    1.9686 H   0  0  0  0  0  0  0  0  0  0  0  0
    9.2336   -2.4536    0.9867 H   0  0  0  0  0  0  0  0  0  0  0  0
    6.2810   -4.2657    3.5144 H   0  0  0  0  0  0  0  0  0  0  0  0
    8.0061   -5.7178    4.4918 H   0  0  0  0  0  0  0  0  0  0  0  0
    5.0895   -3.1424    2.6955 H   0  0  0  0  0  0  0  0  0  0  0  0
    3.1052    1.6595   -1.2681 H   0  0  0  0  0  0  0  0  0  0  0  0
    1.6895    0.6258   -1.5818 H   0  0  0  0  0  0  0  0  0  0  0  0
    1.4186    3.0530   -0.4660 H   0  0  0  0  0  0  0  0  0  0  0  0
    1.7796    2.1373    1.0215 H   0  0  0  0  0  0  0  0  0  0  0  0
   -0.5493    1.8822   -0.8714 H   0  0  0  0  0  0  0  0  0  0  0  0
   -0.5323    1.8726    0.9060 H   0  0  0  0  0  0  0  0  0  0  0  0
   -1.0209   -0.3781   -0.0392 H   0  0  0  0  0  0  0  0  0  0  0  0
    0.5456   -0.3523   -0.8763 H   0  0  0  0  0  0  0  0  0  0  0  0
    0.5174    0.1616    2.0813 H   0  0  0  0  0  0  0  0  0  0  0  0
    0.2602   -1.5059    1.5168 H   0  0  0  0  0  0  0  0  0  0  0  0
    2.6876   -1.2613    4.3010 H   0  0  0  0  0  0  0  0  0  0  0  0
    1.9575   -2.7177    4.7115 H   0  0  0  0  0  0  0  0  0  0  0  0
  1  2  1  0  0  0  0
  1 26  1  0  0  0  0
  1 27  1  0  0  0  0
  1 28  1  0  0  0  0
  2  3  2  0  0  0  0
  2  4  1  0  0  0  0
  4  9  2  0  0  0  0
  4  5  1  0  0  0  0
  5  6  2  0  0  0  0
  5 29  1  0  0  0  0
  6  7  1  0  0  0  0
  6 30  1  0  0  0  0
  7  8  2  0  0  0  0
  7 10  1  0  0  0  0
  8  9  1  0  0  0  0
  8 31  1  0  0  0  0
  9 32  1  0  0  0  0
 10 11  2  0  0  0  0
 10 12  1  0  0  0  0
 12 13  1  0  0  0  0
 12 33  1  0  0  0  0
 13 17  1  0  0  0  0
 13 14  2  0  0  0  0
 14 15  1  0  0  0  0
 14 23  1  0  0  0  0
 15 22  1  0  0  0  0
 15 16  2  0  0  0  0
 16 17  1  0  0  0  0
 16 18  1  0  0  0  0
 18 19  1  0  0  0  0
 18 34  1  0  0  0  0
 18 35  1  0  0  0  0
 19 20  1  0  0  0  0
 19 36  1  0  0  0  0
 19 37  1  0  0  0  0
 20 21  1  0  0  0  0
 20 38  1  0  0  0  0
 20 39  1  0  0  0  0
 21 22  1  0  0  0  0
 21 40  1  0  0  0  0
 21 41  1  0  0  0  0
 22 42  1  0  0  0  0
 22 43  1  0  0  0  0
 23 24  2  0  0  0  0
 23 25  1  0  0  0  0
 25 44  1  0  0  0  0
 25 45  1  0  0  0  0
M  END
$$$$
ZINC04177545
  -OEChem-08230709453D

 40 43  0     0  0  0  0  0  0999 V2000
    1.1598    1.7781    0.0005 C   0  0  0  0  0  0  0  0  0  0  0  0
    1.1508    3.1655    0.0075 C   0  0  0  0  0  0  0  0  0  0  0  0
   -0.0412    3.8618    0.0246 C   0  0  0  0  0  0  0  0  0  0  0  0
   -1.2436    3.1703    0.0342 C   0  0  0  0  0  0  0  0  0  0  0  0
   -1.2327    1.7623    0.0174 C   0  0  0  0  0  0  0  0  0  0  0  0
   -0.0126    1.0758    0.0080 C   0  0  0  0  0  0  0  0  0  0  0  0
   -2.5034    1.0347    0.0126 C   0  0  0  0  0  0  0  0  0  0  0  0
   -3.6556    1.7649   -0.2541 C   0  0  0  0  0  0  0  0  0  0  0  0
   -3.4929    3.2081   -0.5073 C   0  0  0  0  0  0  0  0  0  0  0  0
   -4.3609    3.8702   -1.2489 N   0  0  0  0  0  0  0  0  0  0  0  0
   -4.1925    5.1896   -1.4675 C   0  0  0  0  0  0  0  0  0  0  0  0
   -4.9858    6.0642   -2.2197 C   0  0  0  0  0  0  0  0  0  0  0  0
   -4.5741    7.4548   -2.2888 C   0  0  0  0  0  0  0  0  0  0  0  0
   -3.4437    7.7796   -1.6206 C   0  0  0  0  0  0  0  0  0  0  0  0
   -2.8976    6.2660   -0.8784 S   0  0  0  0  0  0  0  0  0  0  0  0
   -2.7993    9.1290   -1.5326 C   0  0  0  0  0  0  0  0  0  0  0  0
   -3.4047   10.0277   -2.6203 C   0  0  0  0  0  0  0  0  0  0  0  0
   -4.9299    9.8977   -2.5719 C   0  0  0  0  0  0  0  0  0  0  0  0
   -5.3492    8.5135   -3.0680 C   0  0  0  0  0  0  0  0  0  0  0  0
   -6.1628    5.6046   -2.8935 C   0  0  0  0  0  0  0  0  0  0  0  0
   -7.0966    5.2400   -3.4280 N   0  0  0  0  0  0  0  0  0  0  0  0
   -2.4238    3.8352    0.0567 O   0  0  0  0  0  0  0  0  0  0  0  0
   -4.9823    1.1243   -0.2820 C   0  0  0  0  0  0  0  0  0  0  0  0
   -5.9733    1.7885   -0.5181 O   0  0  0  0  0  0  0  0  0  0  0  0
   -5.0974   -0.1976   -0.0457 N   0  0  0  0  0  0  0  0  0  0  0  0
    2.1011    1.2487   -0.0112 H   0  0  0  0  0  0  0  0  0  0  0  0
    2.0857    3.7062   -0.0002 H   0  0  0  0  0  0  0  0  0  0  0  0
   -0.0375    4.9418    0.0308 H   0  0  0  0  0  0  0  0  0  0  0  0
    0.0021   -0.0041    0.0020 H   0  0  0  0  0  0  0  0  0  0  0  0
   -2.5436   -0.0267    0.2080 H   0  0  0  0  0  0  0  0  0  0  0  0
   -2.9887    9.5628   -0.5507 H   0  0  0  0  0  0  0  0  0  0  0  0
   -1.7251    9.0338   -1.6911 H   0  0  0  0  0  0  0  0  0  0  0  0
   -3.1202   11.0641   -2.4384 H   0  0  0  0  0  0  0  0  0  0  0  0
   -3.0418    9.7128   -3.5986 H   0  0  0  0  0  0  0  0  0  0  0  0
   -5.2727   10.0340   -1.5462 H   0  0  0  0  0  0  0  0  0  0  0  0
   -5.3788   10.6605   -3.2081 H   0  0  0  0  0  0  0  0  0  0  0  0
   -6.4184    8.3760   -2.9064 H   0  0  0  0  0  0  0  0  0  0  0  0
   -5.1260    8.4235   -4.1311 H   0  0  0  0  0  0  0  0  0  0  0  0
   -4.3070   -0.7273    0.1426 H   0  0  0  0  0  0  0  0  0  0  0  0
   -5.9708   -0.6192   -0.0641 H   0  0  0  0  0  0  0  0  0  0  0  0
  1  6  2  0  0  0  0
  1  2  1  0  0  0  0
  1 26  1  0  0  0  0
  2  3  2  0  0  0  0
  2 27  1  0  0  0  0
  3  4  1  0  0  0  0
  3 28  1  0  0  0  0
  4 22  1  0  0  0  0
  4  5  2  0  0  0  0
  5  6  1  0  0  0  0
  5  7  1  0  0  0  0
  6 29  1  0  0  0  0
  7  8  2  0  0  0  0
  7 30  1  0  0  0  0
  8  9  1  0  0  0  0
  8 23  1  0  0  0  0
  9 10  2  0  0  0  0
  9 22  1  0  0  0  0
 10 11  1  0  0  0  0
 11 15  1  0  0  0  0
 11 12  2  0  0  0  0
 12 13  1  0  0  0  0
 12 20  1  0  0  0  0
 13 19  1  0  0  0  0
 13 14  2  0  0  0  0
 14 15  1  0  0  0  0
 14 16  1  0  0  0  0
 16 17  1  0  0  0  0
 16 31  1  0  0  0  0
 16 32  1  0  0  0  0
 17 18  1  0  0  0  0
 17 33  1  0  0  0  0
 17 34  1  0  0  0  0
 18 19  1  0  0  0  0
 18 35  1  0  0  0  0
 18 36  1  0  0  0  0
 19 37  1  0  0  0  0
 19 38  1  0  0  0  0
 20 21  3  0  0  0  0
 23 24  2  0  0  0  0
 23 25  1  0  0  0  0
 25 39  1  0  0  0  0
 25 40  1  0  0  0  0
M  END
$$$$
ZINC04193507
  -OEChem-08230709453D

 42 44  0     0  0  0  0  0  0999 V2000
    0.5654    7.2623    0.0764 C   0  0  0  0  0  0  0  0  0  0  0  0
    0.7940    5.7728    0.0622 C   0  0  0  0  0  0  0  0  0  0  0  0
    2.0885    5.2738    0.0323 C   0  0  0  0  0  0  0  0  0  0  0  0
    2.2761    3.8785    0.0289 C   0  0  0  0  0  0  0  0  0  0  0  0
    3.6339    3.3304    0.0127 C   0  0  0  0  0  0  0  0  0  0  0  0
    4.6754    4.2090    0.2762 C   0  0  0  0  0  0  0  0  0  0  0  0
    4.3168    5.6160    0.5505 C   0  0  0  0  0  0  0  0  0  0  0  0
    5.0939    6.3804    1.2857 N   0  0  0  0  0  0  0  0  0  0  0  0
    4.8010    7.7073    1.4385 C   0  0  0  0  0  0  0  0  0  0  0  0
    5.2414    8.6365    0.4920 C   0  0  0  0  0  0  0  0  0  0  0  0
    4.9389    9.9733    0.6468 C   0  0  0  0  0  0  0  0  0  0  0  0
    4.2099   10.3997    1.7421 C   0  0  0  0  0  0  0  0  0  0  0  0
    3.7731    9.4850    2.6912 C   0  0  0  0  0  0  0  0  0  0  0  0
    4.0657    8.1399    2.5436 C   0  0  0  0  0  0  0  0  0  0  0  0
    3.0576    9.9104    3.7654 O   0  0  0  0  0  0  0  0  0  0  0  0
    2.7921   11.3117    3.8544 C   0  0  0  0  0  0  0  0  0  0  0  0
    3.1623    6.0978    0.0099 O   0  0  0  0  0  0  0  0  0  0  0  0
    6.0770    3.7588    0.2816 C   0  0  0  0  0  0  0  0  0  0  0  0
    6.4508    2.1197   -0.0418 S   0  0  0  0  0  0  0  0  0  0  0  0
    7.0659    4.6369    0.5412 N   0  0  0  0  0  0  0  0  0  0  0  0
    1.1474    3.0500    0.0386 C   0  0  0  0  0  0  0  0  0  0  0  0
   -0.0999    3.6383    0.0662 C   0  0  0  0  0  0  0  0  0  0  0  0
   -0.2366    4.9517    0.0777 N   0  0  0  0  0  0  0  0  0  0  0  0
    1.2921    1.5501    0.0253 C   0  0  0  0  0  0  0  0  0  0  0  0
   -0.0030    0.9464    0.0455 O   0  0  0  0  0  0  0  0  0  0  0  0
    0.5310    7.6149    1.1072 H   0  0  0  0  0  0  0  0  0  0  0  0
    1.3794    7.7599   -0.4509 H   0  0  0  0  0  0  0  0  0  0  0  0
   -0.3796    7.4896   -0.4170 H   0  0  0  0  0  0  0  0  0  0  0  0
    3.8170    2.2866   -0.1952 H   0  0  0  0  0  0  0  0  0  0  0  0
    5.8143    8.3075   -0.3624 H   0  0  0  0  0  0  0  0  0  0  0  0
    5.2759   10.6900   -0.0875 H   0  0  0  0  0  0  0  0  0  0  0  0
    3.9797   11.4483    1.8600 H   0  0  0  0  0  0  0  0  0  0  0  0
    3.7265    7.4276    3.2812 H   0  0  0  0  0  0  0  0  0  0  0  0
    3.7344   11.8582    3.8951 H   0  0  0  0  0  0  0  0  0  0  0  0
    2.2248   11.6303    2.9799 H   0  0  0  0  0  0  0  0  0  0  0  0
    2.2147   11.5156    4.7561 H   0  0  0  0  0  0  0  0  0  0  0  0
    6.8541    5.5656    0.7245 H   0  0  0  0  0  0  0  0  0  0  0  0
    7.9894    4.3403    0.5448 H   0  0  0  0  0  0  0  0  0  0  0  0
   -0.9807    3.0135    0.0783 H   0  0  0  0  0  0  0  0  0  0  0  0
    1.8551    1.2316    0.9027 H   0  0  0  0  0  0  0  0  0  0  0  0
    1.8216    1.2441   -0.8770 H   0  0  0  0  0  0  0  0  0  0  0  0
    0.0136   -0.0205    0.0384 H   0  0  0  0  0  0  0  0  0  0  0  0
  1  2  1  0  0  0  0
  1 26  1  0  0  0  0
  1 27  1  0  0  0  0
  1 28  1  0  0  0  0
  2 23  2  0  0  0  0
  2  3  1  0  0  0  0
  3 17  1  0  0  0  0
  3  4  2  0  0  0  0
  4  5  1  0  0  0  0
  4 21  1  0  0  0  0
  5  6  2  0  0  0  0
  5 29  1  0  0  0  0
  6  7  1  0  0  0  0
  6 18  1  0  0  0  0
  7  8  2  0  0  0  0
  7 17  1  0  0  0  0
  8  9  1  0  0  0  0
  9 14  2  0  0  0  0
  9 10  1  0  0  0  0
 10 11  2  0  0  0  0
 10 30  1  0  0  0  0
 11 12  1  0  0  0  0
 11 31  1  0  0  0  0
 12 13  2  0  0  0  0
 12 32  1  0  0  0  0
 13 14  1  0  0  0  0
 13 15  1  0  0  0  0
 14 33  1  0  0  0  0
 15 16  1  0  0  0  0
 16 34  1  0  0  0  0
 16 35  1  0  0  0  0
 16 36  1  0  0  0  0
 18 19  2  0  0  0  0
 18 20  1  0  0  0  0
 20 37  1  0  0  0  0
 20 38  1  0  0  0  0
 21 22  2  0  0  0  0
 21 24  1  0  0  0  0
 22 23  1  0  0  0  0
 22 39  1  0  0  0  0
 24 25  1  0  0  0  0
 24 40  1  0  0  0  0
 24 41  1  0  0  0  0
 25 42  1  0  0  0  0
M  END
$$$$
ZINC04194502
  -OEChem-08230709453D

 43 45  0     0  0  0  0  0  0999 V2000
   -1.3773   -1.0600   13.1870 C   0  0  0  0  0  0  0  0  0  0  0  0
   -1.3209   -0.7251   11.7753 O   0  0  0  0  0  0  0  0  0  0  0  0
   -2.0912    0.2982   11.3584 C   0  0  0  0  0  0  0  0  0  0  0  0
   -2.7908    0.8943   12.1521 O   0  0  0  0  0  0  0  0  0  0  0  0
   -2.0850    0.6958    9.9337 C   0  0  0  0  0  0  0  0  0  0  0  0
   -2.8834    1.7564    9.5014 C   0  0  0  0  0  0  0  0  0  0  0  0
   -2.8773    2.1270    8.1743 C   0  0  0  0  0  0  0  0  0  0  0  0
   -2.0728    1.4420    7.2620 C   0  0  0  0  0  0  0  0  0  0  0  0
   -1.2788    0.3779    7.6930 C   0  0  0  0  0  0  0  0  0  0  0  0
   -1.2805    0.0108    9.0212 C   0  0  0  0  0  0  0  0  0  0  0  0
   -2.0663    1.8401    5.8368 C   0  0  0  0  0  0  0  0  0  0  0  0
   -2.7613    2.7634    5.4606 O   0  0  0  0  0  0  0  0  0  0  0  0
   -1.2896    1.1788    4.9560 N   0  0  0  0  0  0  0  0  0  0  0  0
   -1.2834    1.5515    3.6218 C   0  0  0  0  0  0  0  0  0  0  0  0
   -0.5587    0.9984    2.5751 C   0  0  0  0  0  0  0  0  0  0  0  0
   -0.7317    1.5801    1.2572 C   0  0  0  0  0  0  0  0  0  0  0  0
   -1.6011    2.6148    1.1937 C   0  0  0  0  0  0  0  0  0  0  0  0
   -2.1791    2.8208    2.8544 S   0  0  0  0  0  0  0  0  0  0  0  0
   -1.9795    3.4047   -0.0210 C   0  0  0  0  0  0  0  0  0  0  0  0
   -0.9558    3.1107   -1.1273 C   0  0  0  0  0  0  0  0  0  0  0  0
   -0.7583    1.5954   -1.2267 C   0  0  0  0  0  0  0  0  0  0  0  0
   -0.0127    1.0858    0.0080 C   0  0  0  0  0  0  0  0  0  0  0  0
    0.3504   -0.1311    2.7930 C   0  0  0  0  0  0  0  0  0  0  0  0
   -0.0616   -1.2719    2.6926 O   0  0  0  0  0  0  0  0  0  0  0  0
    1.6422    0.0940    3.1045 N   0  0  0  0  0  0  0  0  0  0  0  0
   -2.3978   -1.3335   13.4551 H   0  0  0  0  0  0  0  0  0  0  0  0
   -0.7115   -1.8992   13.3882 H   0  0  0  0  0  0  0  0  0  0  0  0
   -1.0649   -0.1987   13.7775 H   0  0  0  0  0  0  0  0  0  0  0  0
   -3.5056    2.2865   10.2073 H   0  0  0  0  0  0  0  0  0  0  0  0
   -3.4946    2.9476    7.8399 H   0  0  0  0  0  0  0  0  0  0  0  0
   -0.6600   -0.1550    6.9862 H   0  0  0  0  0  0  0  0  0  0  0  0
   -0.6626   -0.8095    9.3555 H   0  0  0  0  0  0  0  0  0  0  0  0
   -0.7348    0.4420    5.2562 H   0  0  0  0  0  0  0  0  0  0  0  0
   -1.9695    4.4688    0.2151 H   0  0  0  0  0  0  0  0  0  0  0  0
   -2.9749    3.1114   -0.3545 H   0  0  0  0  0  0  0  0  0  0  0  0
   -0.0067    3.5877   -0.8829 H   0  0  0  0  0  0  0  0  0  0  0  0
   -1.3231    3.4945   -2.0791 H   0  0  0  0  0  0  0  0  0  0  0  0
   -0.1792    1.3636   -2.1206 H   0  0  0  0  0  0  0  0  0  0  0  0
   -1.7312    1.1079   -1.2890 H   0  0  0  0  0  0  0  0  0  0  0  0
    0.0021   -0.0041    0.0020 H   0  0  0  0  0  0  0  0  0  0  0  0
    1.0091    1.4652    0.0003 H   0  0  0  0  0  0  0  0  0  0  0  0
    1.9705    1.0032    3.1845 H   0  0  0  0  0  0  0  0  0  0  0  0
    2.2436   -0.6533    3.2487 H   0  0  0  0  0  0  0  0  0  0  0  0
  1  2  1  0  0  0  0
  1 26  1  0  0  0  0
  1 27  1  0  0  0  0
  1 28  1  0  0  0  0
  2  3  1  0  0  0  0
  3  4  2  0  0  0  0
  3  5  1  0  0  0  0
  5 10  2  0  0  0  0
  5  6  1  0  0  0  0
  6  7  2  0  0  0  0
  6 29  1  0  0  0  0
  7  8  1  0  0  0  0
  7 30  1  0  0  0  0
  8  9  2  0  0  0  0
  8 11  1  0  0  0  0
  9 10  1  0  0  0  0
  9 31  1  0  0  0  0
 10 32  1  0  0  0  0
 11 12  2  0  0  0  0
 11 13  1  0  0  0  0
 13 14  1  0  0  0  0
 13 33  1  0  0  0  0
 14 18  1  0  0  0  0
 14 15  2  0  0  0  0
 15 16  1  0  0  0  0
 15 23  1  0  0  0  0
 16 22  1  0  0  0  0
 16 17  2  0  0  0  0
 17 18  1  0  0  0  0
 17 19  1  0  0  0  0
 19 20  1  0  0  0  0
 19 34  1  0  0  0  0
 19 35  1  0  0  0  0
 20 21  1  0  0  0  0
 20 36  1  0  0  0  0
 20 37  1  0  0  0  0
 21 22  1  0  0  0  0
 21 38  1  0  0  0  0
 21 39  1  0  0  0  0
 22 40  1  0  0  0  0
 22 41  1  0  0  0  0
 23 24  2  0  0  0  0
 23 25  1  0  0  0  0
 25 42  1  0  0  0  0
 25 43  1  0  0  0  0
M  END
$$$$
ZINC04194673
  -OEChem-08230709453D

 46 49  0     0  0  0  0  0  0999 V2000
    1.2010   -0.6822   -0.0155 C   0  0  0  0  0  0  0  0  0  0  0  0
    0.0021   -0.0041    0.0020 C   0  0  0  0  0  0  0  0  0  0  0  0
   -0.0168    1.3855    0.0097 C   0  0  0  0  0  0  0  0  0  0  0  0
    1.1794    2.0995    0.0021 C   0  0  0  0  0  0  0  0  0  0  0  0
    2.3859    1.4250   -0.0171 C   0  0  0  0  0  0  0  0  0  0  0  0
    2.4041    0.0277   -0.0259 C   0  0  0  0  0  0  0  0  0  0  0  0
    3.6900   -0.6956   -0.0457 C   0  0  0  0  0  0  0  0  0  0  0  0
    4.7361   -0.0758   -0.0547 O   0  0  0  0  0  0  0  0  0  0  0  0
    3.7051   -2.0432   -0.0538 N   0  0  0  0  0  0  0  0  0  0  0  0
    4.9125   -2.7224   -0.0723 C   0  0  0  0  0  0  0  0  0  0  0  0
    5.1314   -4.0913   -0.0774 C   0  0  0  0  0  0  0  0  0  0  0  0
    6.5113   -4.5568   -0.1065 C   0  0  0  0  0  0  0  0  0  0  0  0
    7.4421   -3.5785   -0.1071 C   0  0  0  0  0  0  0  0  0  0  0  0
    6.5159   -2.0678   -0.0873 S   0  0  0  0  0  0  0  0  0  0  0  0
    8.9310   -3.7321   -0.1082 C   0  0  0  0  0  0  0  0  0  0  0  0
    9.3363   -4.7338   -1.1978 C   0  0  0  0  0  0  0  0  0  0  0  0
    9.3394   -6.1327   -0.5894 C   0  0  0  0  0  0  0  0  0  0  0  0
    8.2560   -6.2427    0.4815 C   0  0  0  0  0  0  0  0  0  0  0  0
    6.8764   -6.0358   -0.1339 C   0  0  0  0  0  0  0  0  0  0  0  0
    4.0122   -5.0380   -0.0587 C   0  0  0  0  0  0  0  0  0  0  0  0
    3.5295   -5.4304   -1.1049 O   0  0  0  0  0  0  0  0  0  0  0  0
    3.5177   -5.4738    1.1169 N   0  0  0  0  0  0  0  0  0  0  0  0
    1.1777    3.4608    0.0180 O   0  0  0  0  0  0  0  0  0  0  0  0
   -0.0490    4.1069   -0.3390 C   0  0  0  0  0  0  0  0  0  0  0  0
   -1.1940    3.4112    0.4095 C   0  0  0  0  0  0  0  0  0  0  0  0
   -1.2120    2.0335    0.0189 O   0  0  0  0  0  0  0  0  0  0  0  0
    1.2109   -1.7621   -0.0209 H   0  0  0  0  0  0  0  0  0  0  0  0
   -0.9271   -0.5546    0.0095 H   0  0  0  0  0  0  0  0  0  0  0  0
    3.3139    1.9775   -0.0256 H   0  0  0  0  0  0  0  0  0  0  0  0
    2.8706   -2.5377   -0.0466 H   0  0  0  0  0  0  0  0  0  0  0  0
    9.3962   -2.7671   -0.3098 H   0  0  0  0  0  0  0  0  0  0  0  0
    9.2597   -4.0992    0.8640 H   0  0  0  0  0  0  0  0  0  0  0  0
    8.6208   -4.6923   -2.0190 H   0  0  0  0  0  0  0  0  0  0  0  0
   10.3332   -4.4918   -1.5664 H   0  0  0  0  0  0  0  0  0  0  0  0
    9.1498   -6.8675   -1.3720 H   0  0  0  0  0  0  0  0  0  0  0  0
   10.3128   -6.3293   -0.1402 H   0  0  0  0  0  0  0  0  0  0  0  0
    8.3016   -7.2304    0.9403 H   0  0  0  0  0  0  0  0  0  0  0  0
    8.4269   -5.4850    1.2462 H   0  0  0  0  0  0  0  0  0  0  0  0
    6.8838   -6.3876   -1.1655 H   0  0  0  0  0  0  0  0  0  0  0  0
    6.1378   -6.6000    0.4356 H   0  0  0  0  0  0  0  0  0  0  0  0
    3.9023   -5.1610    1.9506 H   0  0  0  0  0  0  0  0  0  0  0  0
    2.7771   -6.1001    1.1292 H   0  0  0  0  0  0  0  0  0  0  0  0
   -0.0078    5.1579   -0.0527 H   0  0  0  0  0  0  0  0  0  0  0  0
   -0.2084    4.0248   -1.4141 H   0  0  0  0  0  0  0  0  0  0  0  0
   -1.0305    3.4878    1.4844 H   0  0  0  0  0  0  0  0  0  0  0  0
   -2.1426    3.8796    0.1472 H   0  0  0  0  0  0  0  0  0  0  0  0
  1  6  2  0  0  0  0
  1  2  1  0  0  0  0
  1 27  1  0  0  0  0
  2  3  2  0  0  0  0
  2 28  1  0  0  0  0
  3 26  1  0  0  0  0
  3  4  1  0  0  0  0
  4  5  2  0  0  0  0
  4 23  1  0  0  0  0
  5  6  1  0  0  0  0
  5 29  1  0  0  0  0
  6  7  1  0  0  0  0
  7  8  2  0  0  0  0
  7  9  1  0  0  0  0
  9 10  1  0  0  0  0
  9 30  1  0  0  0  0
 10 14  1  0  0  0  0
 10 11  2  0  0  0  0
 11 12  1  0  0  0  0
 11 20  1  0  0  0  0
 12 19  1  0  0  0  0
 12 13  2  0  0  0  0
 13 14  1  0  0  0  0
 13 15  1  0  0  0  0
 15 16  1  0  0  0  0
 15 31  1  0  0  0  0
 15 32  1  0  0  0  0
 16 17  1  0  0  0  0
 16 33  1  0  0  0  0
 16 34  1  0  0  0  0
 17 18  1  0  0  0  0
 17 35  1  0  0  0  0
 17 36  1  0  0  0  0
 18 19  1  0  0  0  0
 18 37  1  0  0  0  0
 18 38  1  0  0  0  0
 19 39  1  0  0  0  0
 19 40  1  0  0  0  0
 20 21  2  0  0  0  0
 20 22  1  0  0  0  0
 22 41  1  0  0  0  0
 22 42  1  0  0  0  0
 23 24  1  0  0  0  0
 24 25  1  0  0  0  0
 24 43  1  0  0  0  0
 24 44  1  0  0  0  0
 25 26  1  0  0  0  0
 25 45  1  0  0  0  0
 25 46  1  0  0  0  0
M  END
$$$$
ZINC04225278
  -OEChem-08230709453D

 45 46  0     0  0  0  0  0  0999 V2000
    0.2870    5.7634    0.0466 C   0  0  0  0  0  0  0  0  0  0  0  0
    0.2484    4.2570    0.0329 C   0  0  0  0  0  0  0  0  0  0  0  0
   -0.9752    3.6013    0.0109 C   0  0  0  0  0  0  0  0  0  0  0  0
   -1.0325    2.2365    0.0035 C   0  0  0  0  0  0  0  0  0  0  0  0
    0.1522    1.4927    0.0065 C   0  0  0  0  0  0  0  0  0  0  0  0
    0.1275    0.0289   -0.0071 C   0  0  0  0  0  0  0  0  0  0  0  0
    1.3076   -0.6389    0.0023 C   0  0  0  0  0  0  0  0  0  0  0  0
    2.5266    0.0721    0.0248 C   0  0  0  0  0  0  0  0  0  0  0  0
    3.5760   -0.5478    0.0325 O   0  0  0  0  0  0  0  0  0  0  0  0
    2.5592    1.4162    0.0374 N   0  0  0  0  0  0  0  0  0  0  0  0
    3.4410    1.8876    0.0532 H   0  0  0  0  0  0  0  0  0  0  0  0
    1.3946    2.1539    0.0288 C   0  0  0  0  0  0  0  0  0  0  0  0
    1.4280    3.5446    0.0419 C   0  0  0  0  0  0  0  0  0  0  0  0
    1.3176   -2.1458   -0.0118 C   0  0  0  0  0  0  0  0  0  0  0  0
    1.4658   -2.6414   -1.4516 C   0  0  0  0  0  0  0  0  0  0  0  0
    1.4755   -4.1063   -1.4653 N   0  0  0  0  0  0  0  0  0  0  0  0
    1.5972   -4.7685   -2.6328 C   0  0  0  0  0  0  0  0  0  0  0  0
    1.7404   -3.8979   -4.0999 S   0  0  0  0  0  0  0  0  0  0  0  0
    1.6061   -6.1162   -2.6454 N   0  0  0  0  0  0  0  0  0  0  0  0
    1.6240   -6.8368   -3.9208 C   0  0  0  0  0  0  0  0  0  0  0  0
    2.9141   -6.5076   -4.6745 C   0  0  0  0  0  0  0  0  0  0  0  0
    1.5574   -8.3424   -3.6570 C   0  0  0  0  0  0  0  0  0  0  0  0
    0.4190   -6.4128   -4.7630 C   0  0  0  0  0  0  0  0  0  0  0  0
    0.3096    6.1356   -0.9777 H   0  0  0  0  0  0  0  0  0  0  0  0
   -0.5999    6.1450    0.5524 H   0  0  0  0  0  0  0  0  0  0  0  0
    1.1793    6.0992    0.5749 H   0  0  0  0  0  0  0  0  0  0  0  0
   -1.8900    4.1754    0.0041 H   0  0  0  0  0  0  0  0  0  0  0  0
   -1.9884    1.7339   -0.0094 H   0  0  0  0  0  0  0  0  0  0  0  0
   -0.8099   -0.5072   -0.0239 H   0  0  0  0  0  0  0  0  0  0  0  0
    2.3748    4.0639    0.0593 H   0  0  0  0  0  0  0  0  0  0  0  0
    2.1539   -2.5092    0.5855 H   0  0  0  0  0  0  0  0  0  0  0  0
    0.3829   -2.5193    0.4067 H   0  0  0  0  0  0  0  0  0  0  0  0
    0.6295   -2.2780   -2.0489 H   0  0  0  0  0  0  0  0  0  0  0  0
    2.4005   -2.2680   -1.8701 H   0  0  0  0  0  0  0  0  0  0  0  0
    1.3944   -4.5996   -0.6341 H   0  0  0  0  0  0  0  0  0  0  0  0
    1.6007   -6.6091   -1.8100 H   0  0  0  0  0  0  0  0  0  0  0  0
    3.7688   -6.8883   -4.1153 H   0  0  0  0  0  0  0  0  0  0  0  0
    2.8882   -6.9730   -5.6598 H   0  0  0  0  0  0  0  0  0  0  0  0
    3.0046   -5.4270   -4.7854 H   0  0  0  0  0  0  0  0  0  0  0  0
    0.6383   -8.5769   -3.1201 H   0  0  0  0  0  0  0  0  0  0  0  0
    1.5707   -8.8785   -4.6060 H   0  0  0  0  0  0  0  0  0  0  0  0
    2.4159   -8.6444   -3.0570 H   0  0  0  0  0  0  0  0  0  0  0  0
    0.4201   -5.3290   -4.8790 H   0  0  0  0  0  0  0  0  0  0  0  0
    0.4781   -6.8833   -5.7445 H   0  0  0  0  0  0  0  0  0  0  0  0
   -0.4995   -6.7241   -4.2656 H   0  0  0  0  0  0  0  0  0  0  0  0
  1  2  1  0  0  0  0
  1 24  1  0  0  0  0
  1 25  1  0  0  0  0
  1 26  1  0  0  0  0
  2 13  2  0  0  0  0
  2  3  1  0  0  0  0
  3  4  2  0  0  0  0
  3 27  1  0  0  0  0
  4  5  1  0  0  0  0
  4 28  1  0  0  0  0
  5 12  2  0  0  0  0
  5  6  1  0  0  0  0
  6  7  2  0  0  0  0
  6 29  1  0  0  0  0
  7  8  1  0  0  0  0
  7 14  1  0  0  0  0
  8  9  2  0  0  0  0
  8 10  1  0  0  0  0
 10 11  1  0  0  0  0
 10 12  1  0  0  0  0
 12 13  1  0  0  0  0
 13 30  1  0  0  0  0
 14 15  1  0  0  0  0
 14 31  1  0  0  0  0
 14 32  1  0  0  0  0
 15 16  1  0  0  0  0
 15 33  1  0  0  0  0
 15 34  1  0  0  0  0
 16 17  1  0  0  0  0
 16 35  1  0  0  0  0
 17 18  2  0  0  0  0
 17 19  1  0  0  0  0
 19 20  1  0  0  0  0
 19 36  1  0  0  0  0
 20 21  1  0  0  0  0
 20 22  1  0  0  0  0
 20 23  1  0  0  0  0
 21 37  1  0  0  0  0
 21 38  1  0  0  0  0
 21 39  1  0  0  0  0
 22 40  1  0  0  0  0
 22 41  1  0  0  0  0
 22 42  1  0  0  0  0
 23 43  1  0  0  0  0
 23 44  1  0  0  0  0
 23 45  1  0  0  0  0
M  END
$$$$
ZINC04225278
  -OEChem-08230709453D

 45 46  0     0  0  0  0  0  0999 V2000
    0.2870    5.7634    0.0477 C   0  0  0  0  0  0  0  0  0  0  0  0
    0.2484    4.2570    0.0340 C   0  0  0  0  0  0  0  0  0  0  0  0
   -0.9753    3.6012    0.0183 C   0  0  0  0  0  0  0  0  0  0  0  0
   -1.0325    2.2365    0.0052 C   0  0  0  0  0  0  0  0  0  0  0  0
    0.1522    1.4927    0.0077 C   0  0  0  0  0  0  0  0  0  0  0  0
    0.1275    0.0289   -0.0059 C   0  0  0  0  0  0  0  0  0  0  0  0
    1.3076   -0.6389    0.0030 C   0  0  0  0  0  0  0  0  0  0  0  0
    2.5267    0.0722    0.0132 C   0  0  0  0  0  0  0  0  0  0  0  0
    3.5762   -0.5476    0.0163 O   0  0  0  0  0  0  0  0  0  0  0  0
    2.5593    1.4163    0.0257 N   0  0  0  0  0  0  0  0  0  0  0  0
    3.3837   -1.5289    0.0057 H   0  0  0  0  0  0  0  0  0  0  0  0
    1.3947    2.1539    0.0237 C   0  0  0  0  0  0  0  0  0  0  0  0
    1.4280    3.5446    0.0372 C   0  0  0  0  0  0  0  0  0  0  0  0
    1.3176   -2.1458   -0.0107 C   0  0  0  0  0  0  0  0  0  0  0  0
    1.4656   -2.6418   -1.4504 C   0  0  0  0  0  0  0  0  0  0  0  0
    1.4753   -4.1067   -1.4637 N   0  0  0  0  0  0  0  0  0  0  0  0
    1.5968   -4.7692   -2.6311 C   0  0  0  0  0  0  0  0  0  0  0  0
    1.7397   -3.8990   -4.0984 S   0  0  0  0  0  0  0  0  0  0  0  0
    1.6057   -6.1169   -2.6433 N   0  0  0  0  0  0  0  0  0  0  0  0
    1.6234   -6.8378   -3.9185 C   0  0  0  0  0  0  0  0  0  0  0  0
    2.9133   -6.5088   -4.6725 C   0  0  0  0  0  0  0  0  0  0  0  0
    1.5568   -8.3433   -3.6543 C   0  0  0  0  0  0  0  0  0  0  0  0
    0.4182   -6.4140   -4.7606 C   0  0  0  0  0  0  0  0  0  0  0  0
    0.3042    6.1357   -0.9766 H   0  0  0  0  0  0  0  0  0  0  0  0
   -0.5973    6.1449    0.5582 H   0  0  0  0  0  0  0  0  0  0  0  0
    1.1820    6.0992    0.5714 H   0  0  0  0  0  0  0  0  0  0  0  0
   -1.8901    4.1753    0.0163 H   0  0  0  0  0  0  0  0  0  0  0  0
   -1.9884    1.7339   -0.0074 H   0  0  0  0  0  0  0  0  0  0  0  0
   -0.8099   -0.5072   -0.0228 H   0  0  0  0  0  0  0  0  0  0  0  0
    2.3749    4.0640    0.0500 H   0  0  0  0  0  0  0  0  0  0  0  0
    2.1540   -2.5091    0.5866 H   0  0  0  0  0  0  0  0  0  0  0  0
    0.3830   -2.5192    0.4081 H   0  0  0  0  0  0  0  0  0  0  0  0
    0.6292   -2.2785   -2.0476 H   0  0  0  0  0  0  0  0  0  0  0  0
    2.4002   -2.2685   -1.8691 H   0  0  0  0  0  0  0  0  0  0  0  0
    1.3943   -4.5998   -0.6324 H   0  0  0  0  0  0  0  0  0  0  0  0
    1.6004   -6.6096   -1.8078 H   0  0  0  0  0  0  0  0  0  0  0  0
    3.7681   -6.8894   -4.1134 H   0  0  0  0  0  0  0  0  0  0  0  0
    2.8873   -6.9745   -5.6577 H   0  0  0  0  0  0  0  0  0  0  0  0
    3.0038   -5.4282   -4.7837 H   0  0  0  0  0  0  0  0  0  0  0  0
    0.6378   -8.5777   -3.1172 H   0  0  0  0  0  0  0  0  0  0  0  0
    1.5699   -8.8797   -4.6032 H   0  0  0  0  0  0  0  0  0  0  0  0
    2.4154   -8.6452   -3.0544 H   0  0  0  0  0  0  0  0  0  0  0  0
    0.4193   -5.3303   -4.8769 H   0  0  0  0  0  0  0  0  0  0  0  0
    0.4772   -6.8848   -5.7420 H   0  0  0  0  0  0  0  0  0  0  0  0
   -0.5002   -6.7252   -4.2630 H   0  0  0  0  0  0  0  0  0  0  0  0
  1  2  1  0  0  0  0
  1 24  1  0  0  0  0
  1 25  1  0  0  0  0
  1 26  1  0  0  0  0
  2 13  2  0  0  0  0
  2  3  1  0  0  0  0
  3  4  2  0  0  0  0
  3 27  1  0  0  0  0
  4  5  1  0  0  0  0
  4 28  1  0  0  0  0
  5  6  2  0  0  0  0
  5 12  1  0  0  0  0
  6 29  1  0  0  0  0
  6  7  1  0  0  0  0
  7 14  1  0  0  0  0
  7  8  2  0  0  0  0
  8 10  1  0  0  0  0
  8  9  1  0  0  0  0
  9 11  1  0  0  0  0
 10 12  2  0  0  0  0
 12 13  1  0  0  0  0
 13 30  1  0  0  0  0
 14 15  1  0  0  0  0
 14 31  1  0  0  0  0
 14 32  1  0  0  0  0
 15 16  1  0  0  0  0
 15 33  1  0  0  0  0
 15 34  1  0  0  0  0
 16 17  1  0  0  0  0
 16 35  1  0  0  0  0
 17 18  2  0  0  0  0
 17 19  1  0  0  0  0
 19 20  1  0  0  0  0
 19 36  1  0  0  0  0
 20 21  1  0  0  0  0
 20 22  1  0  0  0  0
 20 23  1  0  0  0  0
 21 37  1  0  0  0  0
 21 38  1  0  0  0  0
 21 39  1  0  0  0  0
 22 40  1  0  0  0  0
 22 41  1  0  0  0  0
 22 42  1  0  0  0  0
 23 43  1  0  0  0  0
 23 44  1  0  0  0  0
 23 45  1  0  0  0  0
M  END
$$$$
ZINC04229218
  -OEChem-08230709453D

 43 45  0     0  0  0  0  0  0999 V2000
    8.5810    7.6031   -2.2261 C   0  0  0  0  0  0  0  0  0  0  0  0
    7.5642    8.2718   -2.8946 C   0  0  0  0  0  0  0  0  0  0  0  0
    6.2749    7.7862   -2.8778 C   0  0  0  0  0  0  0  0  0  0  0  0
    5.9832    6.6139   -2.1853 C   0  0  0  0  0  0  0  0  0  0  0  0
    7.0156    5.9378   -1.5085 C   0  0  0  0  0  0  0  0  0  0  0  0
    8.3204    6.4523   -1.5403 C   0  0  0  0  0  0  0  0  0  0  0  0
    6.7357    4.7433   -0.7994 C   0  0  0  0  0  0  0  0  0  0  0  0
    5.4430    4.2582   -0.7844 C   0  0  0  0  0  0  0  0  0  0  0  0
    4.3945    4.9887   -1.5077 C   0  0  0  0  0  0  0  0  0  0  0  0
    3.2511    4.5694   -1.5074 O   0  0  0  0  0  0  0  0  0  0  0  0
    4.6933    6.1241   -2.1665 N   0  0  0  0  0  0  0  0  0  0  0  0
    3.9706    6.6192   -2.6488 H   0  0  0  0  0  0  0  0  0  0  0  0
    5.1210    3.0204   -0.0571 C   0  0  0  0  0  0  0  0  0  0  0  0
    3.9022    2.5707   -0.0478 N   0  0  0  0  0  0  0  0  0  0  0  0
    3.5956    1.3921    0.6447 N   0  0  0  0  0  0  0  0  0  0  0  0
    2.3312    0.9256    0.6543 C   0  0  0  0  0  0  0  0  0  0  0  0
    1.9565   -0.5147    1.5006 S   0  0  0  0  0  0  0  0  0  0  0  0
    1.3617    1.5929   -0.0024 N   0  0  0  0  0  0  0  0  0  0  0  0
   -0.0127    1.0858    0.0080 C   0  0  0  0  0  0  0  0  0  0  0  0
   -0.7288    1.5792    1.2668 C   0  0  0  0  0  0  0  0  0  0  0  0
   -2.1642    1.0497    1.2777 C   0  0  0  0  0  0  0  0  0  0  0  0
   -2.9042    1.5565    0.0381 C   0  0  0  0  0  0  0  0  0  0  0  0
   -2.1881    1.0631   -1.2207 C   0  0  0  0  0  0  0  0  0  0  0  0
   -0.7527    1.5927   -1.2315 C   0  0  0  0  0  0  0  0  0  0  0  0
    9.5863    7.9971   -2.2486 H   0  0  0  0  0  0  0  0  0  0  0  0
    7.7860    9.1816   -3.4326 H   0  0  0  0  0  0  0  0  0  0  0  0
    5.4915    8.3139   -3.4014 H   0  0  0  0  0  0  0  0  0  0  0  0
    9.1172    5.9387   -1.0228 H   0  0  0  0  0  0  0  0  0  0  0  0
    7.5231    4.2191   -0.2781 H   0  0  0  0  0  0  0  0  0  0  0  0
    5.8979    2.4856    0.4691 H   0  0  0  0  0  0  0  0  0  0  0  0
    4.2933    0.9118    1.1173 H   0  0  0  0  0  0  0  0  0  0  0  0
    1.5740    2.4089   -0.4819 H   0  0  0  0  0  0  0  0  0  0  0  0
    0.0021   -0.0041    0.0020 H   0  0  0  0  0  0  0  0  0  0  0  0
   -0.2017    1.2182    2.1499 H   0  0  0  0  0  0  0  0  0  0  0  0
   -0.7436    2.6691    1.2728 H   0  0  0  0  0  0  0  0  0  0  0  0
   -2.6744    1.4012    2.1745 H   0  0  0  0  0  0  0  0  0  0  0  0
   -2.1494   -0.0402    1.2717 H   0  0  0  0  0  0  0  0  0  0  0  0
   -2.9190    2.6464    0.0441 H   0  0  0  0  0  0  0  0  0  0  0  0
   -3.9268    1.1792    0.0459 H   0  0  0  0  0  0  0  0  0  0  0  0
   -2.7153    1.4241   -2.1037 H   0  0  0  0  0  0  0  0  0  0  0  0
   -2.1733   -0.0268   -1.2266 H   0  0  0  0  0  0  0  0  0  0  0  0
   -0.7675    2.6825   -1.2255 H   0  0  0  0  0  0  0  0  0  0  0  0
   -0.2425    1.2411   -2.1283 H   0  0  0  0  0  0  0  0  0  0  0  0
  1  6  2  0  0  0  0
  1  2  1  0  0  0  0
  1 25  1  0  0  0  0
  2  3  2  0  0  0  0
  2 26  1  0  0  0  0
  3  4  1  0  0  0  0
  3 27  1  0  0  0  0
  4 11  1  0  0  0  0
  4  5  2  0  0  0  0
  5  6  1  0  0  0  0
  5  7  1  0  0  0  0
  6 28  1  0  0  0  0
  7  8  2  0  0  0  0
  7 29  1  0  0  0  0
  8  9  1  0  0  0  0
  8 13  1  0  0  0  0
  9 10  2  0  0  0  0
  9 11  1  0  0  0  0
 11 12  1  0  0  0  0
 13 14  2  0  0  0  0
 13 30  1  0  0  0  0
 14 15  1  0  0  0  0
 15 16  1  0  0  0  0
 15 31  1  0  0  0  0
 16 17  2  0  0  0  0
 16 18  1  0  0  0  0
 18 19  1  0  0  0  0
 18 32  1  0  0  0  0
 19 24  1  0  0  0  0
 19 20  1  0  0  0  0
 19 33  1  0  0  0  0
 20 21  1  0  0  0  0
 20 34  1  0  0  0  0
 20 35  1  0  0  0  0
 21 22  1  0  0  0  0
 21 36  1  0  0  0  0
 21 37  1  0  0  0  0
 22 23  1  0  0  0  0
 22 38  1  0  0  0  0
 22 39  1  0  0  0  0
 23 24  1  0  0  0  0
 23 40  1  0  0  0  0
 23 41  1  0  0  0  0
 24 42  1  0  0  0  0
 24 43  1  0  0  0  0
M  END
$$$$
ZINC04229218
  -OEChem-08230709453D

 43 45  0     0  0  0  0  0  0999 V2000
    8.5766    7.6151   -2.2075 C   0  0  0  0  0  0  0  0  0  0  0  0
    7.5610    8.2805   -2.8811 C   0  0  0  0  0  0  0  0  0  0  0  0
    6.2715    7.7953   -2.8637 C   0  0  0  0  0  0  0  0  0  0  0  0
    5.9809    6.6200   -2.1758 C   0  0  0  0  0  0  0  0  0  0  0  0
    7.0121    5.9472   -1.4940 C   0  0  0  0  0  0  0  0  0  0  0  0
    8.3158    6.4648   -1.5210 C   0  0  0  0  0  0  0  0  0  0  0  0
    6.7321    4.7530   -0.7844 C   0  0  0  0  0  0  0  0  0  0  0  0
    5.4405    4.2649   -0.7741 C   0  0  0  0  0  0  0  0  0  0  0  0
    4.3944    4.9890   -1.5073 C   0  0  0  0  0  0  0  0  0  0  0  0
    3.2520    4.5670   -1.5111 O   0  0  0  0  0  0  0  0  0  0  0  0
    4.6932    6.1244   -2.1661 N   0  0  0  0  0  0  0  0  0  0  0  0
    3.2070    3.7221   -0.9781 H   0  0  0  0  0  0  0  0  0  0  0  0
    5.1172    3.0306   -0.0415 C   0  0  0  0  0  0  0  0  0  0  0  0
    3.8984    2.5809   -0.0323 N   0  0  0  0  0  0  0  0  0  0  0  0
    3.5906    1.4056    0.6653 N   0  0  0  0  0  0  0  0  0  0  0  0
    2.3262    0.9391    0.6748 C   0  0  0  0  0  0  0  0  0  0  0  0
    1.9500   -0.4972    1.5273 S   0  0  0  0  0  0  0  0  0  0  0  0
    1.3579    1.6032    0.0131 N   0  0  0  0  0  0  0  0  0  0  0  0
   -0.0165    1.0961    0.0234 C   0  0  0  0  0  0  0  0  0  0  0  0
   -0.7350    1.5955    1.2785 C   0  0  0  0  0  0  0  0  0  0  0  0
   -2.1704    1.0660    1.2893 C   0  0  0  0  0  0  0  0  0  0  0  0
   -2.9081    1.5668    0.0459 C   0  0  0  0  0  0  0  0  0  0  0  0
   -2.1897    1.0674   -1.2091 C   0  0  0  0  0  0  0  0  0  0  0  0
   -0.7543    1.5970   -1.2198 C   0  0  0  0  0  0  0  0  0  0  0  0
    9.5811    8.0113   -2.2265 H   0  0  0  0  0  0  0  0  0  0  0  0
    7.7829    9.1901   -3.4194 H   0  0  0  0  0  0  0  0  0  0  0  0
    5.4881    8.3231   -3.3872 H   0  0  0  0  0  0  0  0  0  0  0  0
    9.1117    5.9538   -0.9995 H   0  0  0  0  0  0  0  0  0  0  0  0
    7.5185    4.2317   -0.2586 H   0  0  0  0  0  0  0  0  0  0  0  0
    5.8932    2.4983    0.4887 H   0  0  0  0  0  0  0  0  0  0  0  0
    4.2874    0.9276    1.1415 H   0  0  0  0  0  0  0  0  0  0  0  0
    1.5710    2.4169   -0.4699 H   0  0  0  0  0  0  0  0  0  0  0  0
   -0.0017    0.0062    0.0227 H   0  0  0  0  0  0  0  0  0  0  0  0
   -0.2095    1.2387    2.1643 H   0  0  0  0  0  0  0  0  0  0  0  0
   -0.7498    2.6854    1.2793 H   0  0  0  0  0  0  0  0  0  0  0  0
   -2.6822    1.4218    2.1835 H   0  0  0  0  0  0  0  0  0  0  0  0
   -2.1555   -0.0239    1.2886 H   0  0  0  0  0  0  0  0  0  0  0  0
   -2.9230    2.6567    0.0467 H   0  0  0  0  0  0  0  0  0  0  0  0
   -3.9307    1.1895    0.0537 H   0  0  0  0  0  0  0  0  0  0  0  0
   -2.7153    1.4242   -2.0948 H   0  0  0  0  0  0  0  0  0  0  0  0
   -2.1748   -0.0225   -1.2098 H   0  0  0  0  0  0  0  0  0  0  0  0
   -0.7691    2.6868   -1.2191 H   0  0  0  0  0  0  0  0  0  0  0  0
   -0.2424    1.2411   -2.1140 H   0  0  0  0  0  0  0  0  0  0  0  0
  1  6  2  0  0  0  0
  1  2  1  0  0  0  0
  1 25  1  0  0  0  0
  2  3  2  0  0  0  0
  2 26  1  0  0  0  0
  3  4  1  0  0  0  0
  3 27  1  0  0  0  0
  4  5  2  0  0  0  0
  4 11  1  0  0  0  0
  5  6  1  0  0  0  0
  5  7  1  0  0  0  0
  6 28  1  0  0  0  0
  7 29  1  0  0  0  0
  7  8  2  0  0  0  0
  8 13  1  0  0  0  0
  8  9  1  0  0  0  0
  9 11  2  0  0  0  0
  9 10  1  0  0  0  0
 10 12  1  0  0  0  0
 13 14  2  0  0  0  0
 13 30  1  0  0  0  0
 14 15  1  0  0  0  0
 15 16  1  0  0  0  0
 15 31  1  0  0  0  0
 16 17  2  0  0  0  0
 16 18  1  0  0  0  0
 18 19  1  0  0  0  0
 18 32  1  0  0  0  0
 19 24  1  0  0  0  0
 19 20  1  0  0  0  0
 19 33  1  0  0  0  0
 20 21  1  0  0  0  0
 20 34  1  0  0  0  0
 20 35  1  0  0  0  0
 21 22  1  0  0  0  0
 21 36  1  0  0  0  0
 21 37  1  0  0  0  0
 22 23  1  0  0  0  0
 22 38  1  0  0  0  0
 22 39  1  0  0  0  0
 23 24  1  0  0  0  0
 23 40  1  0  0  0  0
 23 41  1  0  0  0  0
 24 42  1  0  0  0  0
 24 43  1  0  0  0  0
M  END
$$$$
ZINC04247278
  -OEChem-08230709453D

 53 56  0     1  0  0  0  0  0999 V2000
   -4.9041    1.7437   -6.7646 C   0  0  0  0  0  0  0  0  0  0  0  0
   -4.0591    0.5956   -6.6647 O   0  0  0  0  0  0  0  0  0  0  0  0
   -3.2732    0.5032   -5.5622 C   0  0  0  0  0  0  0  0  0  0  0  0
   -2.4277   -0.5886   -5.4033 C   0  0  0  0  0  0  0  0  0  0  0  0
   -1.6287   -0.6861   -4.2860 C   0  0  0  0  0  0  0  0  0  0  0  0
   -1.6687    0.3144   -3.3113 C   0  0  0  0  0  0  0  0  0  0  0  0
   -2.5242    1.4074   -3.4720 C   0  0  0  0  0  0  0  0  0  0  0  0
   -3.3155    1.5007   -4.5952 C   0  0  0  0  0  0  0  0  0  0  0  0
   -0.8138    0.2138   -2.1122 C   0  0  0  0  0  0  0  0  0  0  0  0
   -0.0736   -0.7404   -1.9716 O   0  0  0  0  0  0  0  0  0  0  0  0
   -0.8538    1.1798   -1.1732 N   0  0  0  0  0  0  0  0  0  0  0  0
   -0.0054    1.0800    0.0170 C   0  0  1  0  0  0  0  0  0  0  0  0
    0.0867    0.0344    0.3108 H   0  0  0  0  0  0  0  0  0  0  0  0
    1.3603    1.6373   -0.2916 C   0  0  0  0  0  0  0  0  0  0  0  0
    1.4910    2.4788   -1.1551 O   0  0  0  0  0  0  0  0  0  0  0  0
    2.4366    1.2006    0.3921 N   0  0  0  0  0  0  0  0  0  0  0  0
    3.6573    1.7779    0.1858 N   0  0  0  0  0  0  0  0  0  0  0  0
   -0.6352    1.8776    1.1606 C   0  0  0  0  0  0  0  0  0  0  0  0
   -2.0576    1.3728    1.4117 C   0  0  0  0  0  0  0  0  0  0  0  0
   -2.6874    2.1704    2.5553 C   0  0  0  0  0  0  0  0  0  0  0  0
   -1.8510    1.9904    3.8238 C   0  0  0  0  0  0  0  0  0  0  0  0
   -0.4287    2.4953    3.5727 C   0  0  0  0  0  0  0  0  0  0  0  0
    0.2011    1.6976    2.4291 C   0  0  0  0  0  0  0  0  0  0  0  0
   -0.4726    3.9778    3.1969 C   0  0  0  0  0  0  0  0  0  0  0  0
   -1.3090    4.1577    1.9284 C   0  0  0  0  0  0  0  0  0  0  0  0
   -2.7313    3.6529    2.1795 C   0  0  0  0  0  0  0  0  0  0  0  0
   -0.6792    3.3601    0.7848 C   0  0  0  0  0  0  0  0  0  0  0  0
   -5.5870    1.7672   -5.9154 H   0  0  0  0  0  0  0  0  0  0  0  0
   -4.2926    2.6460   -6.7643 H   0  0  0  0  0  0  0  0  0  0  0  0
   -5.4772    1.6935   -7.6904 H   0  0  0  0  0  0  0  0  0  0  0  0
   -2.3976   -1.3616   -6.1569 H   0  0  0  0  0  0  0  0  0  0  0  0
   -0.9717   -1.5345   -4.1634 H   0  0  0  0  0  0  0  0  0  0  0  0
   -2.5613    2.1804   -2.7187 H   0  0  0  0  0  0  0  0  0  0  0  0
   -3.9733    2.3477   -4.7226 H   0  0  0  0  0  0  0  0  0  0  0  0
   -1.4444    1.9411   -1.2854 H   0  0  0  0  0  0  0  0  0  0  0  0
    2.3443    0.4763    1.0307 H   0  0  0  0  0  0  0  0  0  0  0  0
    4.3630    1.3484    0.7651 H   0  0  0  0  0  0  0  0  0  0  0  0
    3.9160    1.7381   -0.7887 H   0  0  0  0  0  0  0  0  0  0  0  0
   -2.6534    1.5010    0.5080 H   0  0  0  0  0  0  0  0  0  0  0  0
   -2.0263    0.3167    1.6794 H   0  0  0  0  0  0  0  0  0  0  0  0
   -3.7007    1.8108    2.7342 H   0  0  0  0  0  0  0  0  0  0  0  0
   -1.8197    0.9343    4.0915 H   0  0  0  0  0  0  0  0  0  0  0  0
   -2.2997    2.5587    4.6386 H   0  0  0  0  0  0  0  0  0  0  0  0
    0.1672    2.3671    4.4764 H   0  0  0  0  0  0  0  0  0  0  0  0
    0.2324    0.6415    2.6968 H   0  0  0  0  0  0  0  0  0  0  0  0
    1.2144    2.0573    2.2502 H   0  0  0  0  0  0  0  0  0  0  0  0
   -0.9213    4.5460    4.0117 H   0  0  0  0  0  0  0  0  0  0  0  0
    0.5407    4.3374    3.0180 H   0  0  0  0  0  0  0  0  0  0  0  0
   -1.3403    5.2139    1.6607 H   0  0  0  0  0  0  0  0  0  0  0  0
   -3.3272    3.7811    1.2758 H   0  0  0  0  0  0  0  0  0  0  0  0
   -3.1800    4.2212    2.9943 H   0  0  0  0  0  0  0  0  0  0  0  0
    0.3341    3.7198    0.6059 H   0  0  0  0  0  0  0  0  0  0  0  0
   -1.2750    3.4883   -0.1189 H   0  0  0  0  0  0  0  0  0  0  0  0
  1  2  1  0  0  0  0
  1 28  1  0  0  0  0
  1 29  1  0  0  0  0
  1 30  1  0  0  0  0
  2  3  1  0  0  0  0
  3  8  2  0  0  0  0
  3  4  1  0  0  0  0
  4  5  2  0  0  0  0
  4 31  1  0  0  0  0
  5  6  1  0  0  0  0
  5 32  1  0  0  0  0
  6  7  2  0  0  0  0
  6  9  1  0  0  0  0
  7  8  1  0  0  0  0
  7 33  1  0  0  0  0
  8 34  1  0  0  0  0
  9 10  2  0  0  0  0
  9 11  1  0  0  0  0
 11 12  1  0  0  0  0
 11 35  1  0  0  0  0
 12 13  1  0  0  0  0
 12 14  1  0  0  0  0
 12 18  1  0  0  0  0
 14 15  2  0  0  0  0
 14 16  1  0  0  0  0
 16 17  1  0  0  0  0
 16 36  1  0  0  0  0
 17 37  1  0  0  0  0
 17 38  1  0  0  0  0
 18 23  1  0  0  0  0
 18 27  1  0  0  0  0
 18 19  1  0  0  0  0
 19 20  1  0  0  0  0
 19 39  1  0  0  0  0
 19 40  1  0  0  0  0
 20 26  1  0  0  0  0
 20 21  1  0  0  0  0
 20 41  1  0  0  0  0
 21 22  1  0  0  0  0
 21 42  1  0  0  0  0
 21 43  1  0  0  0  0
 22 23  1  0  0  0  0
 22 24  1  0  0  0  0
 22 44  1  0  0  0  0
 23 45  1  0  0  0  0
 23 46  1  0  0  0  0
 24 25  1  0  0  0  0
 24 47  1  0  0  0  0
 24 48  1  0  0  0  0
 25 26  1  0  0  0  0
 25 27  1  0  0  0  0
 25 49  1  0  0  0  0
 26 50  1  0  0  0  0
 26 51  1  0  0  0  0
 27 52  1  0  0  0  0
 27 53  1  0  0  0  0
M  END
$$$$
ZINC04248907
  -OEChem-08230709453D

 38 39  0     0  0  0  0  0  0999 V2000
    1.3290   11.8683   -0.5871 C   0  0  0  0  0  0  0  0  0  0  0  0
    1.4945   10.3515   -0.4737 C   0  0  0  0  0  0  0  0  0  0  0  0
    0.2074    9.7307   -0.4724 O   0  0  0  0  0  0  0  0  0  0  0  0
    0.1763    8.3772   -0.3772 C   0  0  0  0  0  0  0  0  0  0  0  0
   -1.0434    7.7108   -0.3705 C   0  0  0  0  0  0  0  0  0  0  0  0
   -1.0793    6.3375   -0.2740 C   0  0  0  0  0  0  0  0  0  0  0  0
    0.1128    5.6140   -0.1832 C   0  0  0  0  0  0  0  0  0  0  0  0
    1.3367    6.2882   -0.1854 C   0  0  0  0  0  0  0  0  0  0  0  0
    1.3642    7.6613   -0.2871 C   0  0  0  0  0  0  0  0  0  0  0  0
    0.0789    4.1422   -0.0791 C   0  0  0  0  0  0  0  0  0  0  0  0
   -0.9876    3.5574   -0.0722 O   0  0  0  0  0  0  0  0  0  0  0  0
    1.2297    3.4462    0.0084 N   0  0  0  0  0  0  0  0  0  0  0  0
    1.2032    2.0380    0.0022 C   0  0  0  0  0  0  0  0  0  0  0  0
    1.7351    1.3136    1.0640 C   0  0  0  0  0  0  0  0  0  0  0  0
    1.7000   -0.0235    1.0378 N   0  0  0  0  0  0  0  0  0  0  0  0
    1.1697   -0.6723    0.0224 C   0  0  0  0  0  0  0  0  0  0  0  0
    0.6354   -0.0114   -1.0422 N   0  0  0  0  0  0  0  0  0  0  0  0
    0.2384   -0.5272   -1.8014 H   0  0  0  0  0  0  0  0  0  0  0  0
    0.6405    1.3377   -1.0749 C   0  0  0  0  0  0  0  0  0  0  0  0
    0.1681    1.9381   -2.0278 O   0  0  0  0  0  0  0  0  0  0  0  0
    1.1500   -2.4341    0.0410 S   0  0  0  0  0  0  0  0  0  0  0  0
    1.9592   -2.7406    1.6308 C   0  0  0  0  0  0  0  0  0  0  0  0
    2.2976    1.9727    2.1421 N   0  0  0  0  0  0  0  0  0  0  0  0
    0.8087   12.1087   -1.5143 H   0  0  0  0  0  0  0  0  0  0  0  0
    0.7495   12.2350    0.2602 H   0  0  0  0  0  0  0  0  0  0  0  0
    2.3107   12.3419   -0.5880 H   0  0  0  0  0  0  0  0  0  0  0  0
    2.0147   10.1112    0.4535 H   0  0  0  0  0  0  0  0  0  0  0  0
    2.0739    9.9849   -1.3210 H   0  0  0  0  0  0  0  0  0  0  0  0
   -1.9643    8.2707   -0.4406 H   0  0  0  0  0  0  0  0  0  0  0  0
   -2.0274    5.8204   -0.2688 H   0  0  0  0  0  0  0  0  0  0  0  0
    2.2601    5.7329   -0.1113 H   0  0  0  0  0  0  0  0  0  0  0  0
    2.3099    8.1828   -0.2926 H   0  0  0  0  0  0  0  0  0  0  0  0
    2.0762    3.9150    0.0756 H   0  0  0  0  0  0  0  0  0  0  0  0
    2.0290   -3.8148    1.8019 H   0  0  0  0  0  0  0  0  0  0  0  0
    2.9600   -2.3089    1.6184 H   0  0  0  0  0  0  0  0  0  0  0  0
    1.3759   -2.2827    2.4297 H   0  0  0  0  0  0  0  0  0  0  0  0
    2.6678    1.4654    2.8813 H   0  0  0  0  0  0  0  0  0  0  0  0
    2.3219    2.9423    2.1589 H   0  0  0  0  0  0  0  0  0  0  0  0
  1  2  1  0  0  0  0
  1 24  1  0  0  0  0
  1 25  1  0  0  0  0
  1 26  1  0  0  0  0
  2  3  1  0  0  0  0
  2 27  1  0  0  0  0
  2 28  1  0  0  0  0
  3  4  1  0  0  0  0
  4  9  2  0  0  0  0
  4  5  1  0  0  0  0
  5  6  2  0  0  0  0
  5 29  1  0  0  0  0
  6  7  1  0  0  0  0
  6 30  1  0  0  0  0
  7  8  2  0  0  0  0
  7 10  1  0  0  0  0
  8  9  1  0  0  0  0
  8 31  1  0  0  0  0
  9 32  1  0  0  0  0
 10 11  2  0  0  0  0
 10 12  1  0  0  0  0
 12 13  1  0  0  0  0
 12 33  1  0  0  0  0
 13 19  1  0  0  0  0
 13 14  2  0  0  0  0
 14 15  1  0  0  0  0
 14 23  1  0  0  0  0
 15 16  2  0  0  0  0
 16 17  1  0  0  0  0
 16 21  1  0  0  0  0
 17 18  1  0  0  0  0
 17 19  1  0  0  0  0
 19 20  2  0  0  0  0
 21 22  1  0  0  0  0
 22 34  1  0  0  0  0
 22 35  1  0  0  0  0
 22 36  1  0  0  0  0
 23 37  1  0  0  0  0
 23 38  1  0  0  0  0
M  END
$$$$
ZINC04248907
  -OEChem-08230709453D

 38 39  0     0  0  0  0  0  0999 V2000
    1.3330   11.8681   -0.5892 C   0  0  0  0  0  0  0  0  0  0  0  0
    1.4980   10.3513   -0.4756 C   0  0  0  0  0  0  0  0  0  0  0  0
    0.2107    9.7309   -0.4739 O   0  0  0  0  0  0  0  0  0  0  0  0
    0.1792    8.3775   -0.3785 C   0  0  0  0  0  0  0  0  0  0  0  0
   -1.0407    7.7115   -0.3714 C   0  0  0  0  0  0  0  0  0  0  0  0
   -1.0771    6.3382   -0.2747 C   0  0  0  0  0  0  0  0  0  0  0  0
    0.1148    5.6143   -0.1840 C   0  0  0  0  0  0  0  0  0  0  0  0
    1.3389    6.2881   -0.1866 C   0  0  0  0  0  0  0  0  0  0  0  0
    1.3669    7.6612   -0.2885 C   0  0  0  0  0  0  0  0  0  0  0  0
    0.0805    4.1425   -0.0797 C   0  0  0  0  0  0  0  0  0  0  0  0
   -0.9862    3.5581   -0.0725 O   0  0  0  0  0  0  0  0  0  0  0  0
    1.2310    3.4462    0.0077 N   0  0  0  0  0  0  0  0  0  0  0  0
    1.2041    2.0380    0.0017 C   0  0  0  0  0  0  0  0  0  0  0  0
    1.7360    1.3136    1.0636 C   0  0  0  0  0  0  0  0  0  0  0  0
    1.6999   -0.0235    1.0378 N   0  0  0  0  0  0  0  0  0  0  0  0
    1.1688   -0.6723    0.0229 C   0  0  0  0  0  0  0  0  0  0  0  0
    0.6344   -0.0114   -1.0417 N   0  0  0  0  0  0  0  0  0  0  0  0
    2.0836   -0.5396    1.8036 H   0  0  0  0  0  0  0  0  0  0  0  0
    0.6400    1.3377   -1.0746 C   0  0  0  0  0  0  0  0  0  0  0  0
    0.1676    1.9381   -2.0275 O   0  0  0  0  0  0  0  0  0  0  0  0
    1.1484   -2.4341    0.0418 S   0  0  0  0  0  0  0  0  0  0  0  0
    1.9579   -2.7406    1.6315 C   0  0  0  0  0  0  0  0  0  0  0  0
    2.2989    1.9727    2.1414 N   0  0  0  0  0  0  0  0  0  0  0  0
    0.8126   12.1086   -1.5163 H   0  0  0  0  0  0  0  0  0  0  0  0
    0.7538   12.2352    0.2582 H   0  0  0  0  0  0  0  0  0  0  0  0
    2.3148   12.3414   -0.5904 H   0  0  0  0  0  0  0  0  0  0  0  0
    2.0183   10.1110    0.4516 H   0  0  0  0  0  0  0  0  0  0  0  0
    2.0771    9.9844   -1.3229 H   0  0  0  0  0  0  0  0  0  0  0  0
   -1.9615    8.2716   -0.4414 H   0  0  0  0  0  0  0  0  0  0  0  0
   -2.0253    5.8214   -0.2692 H   0  0  0  0  0  0  0  0  0  0  0  0
    2.2622    5.7325   -0.1126 H   0  0  0  0  0  0  0  0  0  0  0  0
    2.3127    8.1824   -0.2943 H   0  0  0  0  0  0  0  0  0  0  0  0
    2.0777    3.9147    0.0747 H   0  0  0  0  0  0  0  0  0  0  0  0
    2.0274   -3.8148    1.8027 H   0  0  0  0  0  0  0  0  0  0  0  0
    2.9589   -2.3092    1.6187 H   0  0  0  0  0  0  0  0  0  0  0  0
    1.3750   -2.2823    2.4304 H   0  0  0  0  0  0  0  0  0  0  0  0
    2.6691    1.4654    2.8806 H   0  0  0  0  0  0  0  0  0  0  0  0
    2.3235    2.9423    2.1581 H   0  0  0  0  0  0  0  0  0  0  0  0
  1  2  1  0  0  0  0
  1 24  1  0  0  0  0
  1 25  1  0  0  0  0
  1 26  1  0  0  0  0
  2  3  1  0  0  0  0
  2 27  1  0  0  0  0
  2 28  1  0  0  0  0
  3  4  1  0  0  0  0
  4  9  2  0  0  0  0
  4  5  1  0  0  0  0
  5  6  2  0  0  0  0
  5 29  1  0  0  0  0
  6  7  1  0  0  0  0
  6 30  1  0  0  0  0
  7  8  2  0  0  0  0
  7 10  1  0  0  0  0
  8  9  1  0  0  0  0
  8 31  1  0  0  0  0
  9 32  1  0  0  0  0
 10 11  2  0  0  0  0
 10 12  1  0  0  0  0
 12 13  1  0  0  0  0
 12 33  1  0  0  0  0
 13 19  1  0  0  0  0
 13 14  2  0  0  0  0
 14 23  1  0  0  0  0
 14 15  1  0  0  0  0
 15 18  1  0  0  0  0
 15 16  1  0  0  0  0
 16 21  1  0  0  0  0
 16 17  2  0  0  0  0
 17 19  1  0  0  0  0
 19 20  2  0  0  0  0
 21 22  1  0  0  0  0
 22 34  1  0  0  0  0
 22 35  1  0  0  0  0
 22 36  1  0  0  0  0
 23 37  1  0  0  0  0
 23 38  1  0  0  0  0
M  END
$$$$
ZINC04248907
  -OEChem-08230709453D

 38 39  0     0  0  0  0  0  0999 V2000
    1.3262   11.8684   -0.5856 C   0  0  0  0  0  0  0  0  0  0  0  0
    1.4920   10.3516   -0.4723 C   0  0  0  0  0  0  0  0  0  0  0  0
    0.2051    9.7305   -0.4715 O   0  0  0  0  0  0  0  0  0  0  0  0
    0.1743    8.3770   -0.3764 C   0  0  0  0  0  0  0  0  0  0  0  0
   -1.0452    7.7103   -0.3702 C   0  0  0  0  0  0  0  0  0  0  0  0
   -1.0808    6.3370   -0.2739 C   0  0  0  0  0  0  0  0  0  0  0  0
    0.1114    5.6138   -0.1828 C   0  0  0  0  0  0  0  0  0  0  0  0
    1.3352    6.2883   -0.1846 C   0  0  0  0  0  0  0  0  0  0  0  0
    1.3623    7.6614   -0.2861 C   0  0  0  0  0  0  0  0  0  0  0  0
    0.0779    4.1419   -0.0789 C   0  0  0  0  0  0  0  0  0  0  0  0
   -0.9885    3.5569   -0.0724 O   0  0  0  0  0  0  0  0  0  0  0  0
    1.2288    3.4462    0.0089 N   0  0  0  0  0  0  0  0  0  0  0  0
    1.2027    2.0380    0.0025 C   0  0  0  0  0  0  0  0  0  0  0  0
    1.7339    1.3136    1.0646 C   0  0  0  0  0  0  0  0  0  0  0  0
    1.6987   -0.0235    1.0385 N   0  0  0  0  0  0  0  0  0  0  0  0
    1.1687   -0.6723    0.0229 C   0  0  0  0  0  0  0  0  0  0  0  0
    0.6357   -0.0114   -1.0423 N   0  0  0  0  0  0  0  0  0  0  0  0
    0.2556    2.9229   -1.8779 H   0  0  0  0  0  0  0  0  0  0  0  0
    0.6408    1.3377   -1.0750 C   0  0  0  0  0  0  0  0  0  0  0  0
    0.1640    1.9382   -2.0257 O   0  0  0  0  0  0  0  0  0  0  0  0
    1.1484   -2.4341    0.0418 S   0  0  0  0  0  0  0  0  0  0  0  0
    1.9571   -2.7406    1.6319 C   0  0  0  0  0  0  0  0  0  0  0  0
    2.2961    1.9727    2.1429 N   0  0  0  0  0  0  0  0  0  0  0  0
    0.8061   12.1088   -1.5129 H   0  0  0  0  0  0  0  0  0  0  0  0
    0.7463   12.2349    0.2616 H   0  0  0  0  0  0  0  0  0  0  0  0
    2.3078   12.3423   -0.5861 H   0  0  0  0  0  0  0  0  0  0  0  0
    2.0120   10.1114    0.4550 H   0  0  0  0  0  0  0  0  0  0  0  0
    2.0718    9.9853   -1.3195 H   0  0  0  0  0  0  0  0  0  0  0  0
   -1.9663    8.2700   -0.4405 H   0  0  0  0  0  0  0  0  0  0  0  0
   -2.0288    5.8196   -0.2690 H   0  0  0  0  0  0  0  0  0  0  0  0
    2.2587    5.7332   -0.1103 H   0  0  0  0  0  0  0  0  0  0  0  0
    2.3079    8.1831   -0.2912 H   0  0  0  0  0  0  0  0  0  0  0  0
    2.0752    3.9152    0.0764 H   0  0  0  0  0  0  0  0  0  0  0  0
    2.0265   -3.8148    1.8032 H   0  0  0  0  0  0  0  0  0  0  0  0
    2.9581   -2.3092    1.6196 H   0  0  0  0  0  0  0  0  0  0  0  0
    1.3738   -2.2823    2.4305 H   0  0  0  0  0  0  0  0  0  0  0  0
    2.6659    1.4654    2.8822 H   0  0  0  0  0  0  0  0  0  0  0  0
    2.3205    2.9423    2.1596 H   0  0  0  0  0  0  0  0  0  0  0  0
  1  2  1  0  0  0  0
  1 24  1  0  0  0  0
  1 25  1  0  0  0  0
  1 26  1  0  0  0  0
  2  3  1  0  0  0  0
  2 27  1  0  0  0  0
  2 28  1  0  0  0  0
  3  4  1  0  0  0  0
  4  9  2  0  0  0  0
  4  5  1  0  0  0  0
  5  6  2  0  0  0  0
  5 29  1  0  0  0  0
  6  7  1  0  0  0  0
  6 30  1  0  0  0  0
  7  8  2  0  0  0  0
  7 10  1  0  0  0  0
  8  9  1  0  0  0  0
  8 31  1  0  0  0  0
  9 32  1  0  0  0  0
 10 11  2  0  0  0  0
 10 12  1  0  0  0  0
 12 13  1  0  0  0  0
 12 33  1  0  0  0  0
 13 19  2  0  0  0  0
 13 14  1  0  0  0  0
 14 23  1  0  0  0  0
 14 15  2  0  0  0  0
 15 16  1  0  0  0  0
 16 21  1  0  0  0  0
 16 17  2  0  0  0  0
 17 19  1  0  0  0  0
 18 20  1  0  0  0  0
 19 20  1  0  0  0  0
 21 22  1  0  0  0  0
 22 34  1  0  0  0  0
 22 35  1  0  0  0  0
 22 36  1  0  0  0  0
 23 37  1  0  0  0  0
 23 38  1  0  0  0  0
M  END
$$$$
ZINC04252168
  -OEChem-08230709453D

 42 45  0     0  0  0  0  0  0999 V2000
   -0.0512    5.3713    0.0320 C   0  0  0  0  0  0  0  0  0  0  0  0
   -0.0508    3.8643    0.0234 C   0  0  0  0  0  0  0  0  0  0  0  0
    1.1479    3.1697    0.0077 C   0  0  0  0  0  0  0  0  0  0  0  0
    1.1589    1.7764    0.0005 C   0  0  0  0  0  0  0  0  0  0  0  0
   -0.0126    1.0758    0.0080 C   0  0  0  0  0  0  0  0  0  0  0  0
   -1.2325    1.7611    0.0175 C   0  0  0  0  0  0  0  0  0  0  0  0
   -1.2499    3.1686    0.0316 C   0  0  0  0  0  0  0  0  0  0  0  0
   -2.4293    3.8260    0.0464 O   0  0  0  0  0  0  0  0  0  0  0  0
   -3.5988    3.1671    0.0354 C   0  0  0  0  0  0  0  0  0  0  0  0
   -4.6378    3.8025    0.0438 O   0  0  0  0  0  0  0  0  0  0  0  0
   -3.6552    1.7582    0.0279 C   0  0  0  0  0  0  0  0  0  0  0  0
   -2.5047    1.0359    0.0190 C   0  0  0  0  0  0  0  0  0  0  0  0
   -2.5368   -0.4707    0.0104 C   0  0  0  0  0  0  0  0  0  0  0  0
   -2.5420   -1.0838    1.7133 S   0  0  0  0  0  0  0  0  0  0  0  0
   -2.5803   -2.8197    1.4135 C   0  0  0  0  0  0  0  0  0  0  0  0
   -2.5963   -3.7842    2.3822 N   0  0  0  0  0  0  0  0  0  0  0  0
   -2.5882   -3.6323    3.3706 H   0  0  0  0  0  0  0  0  0  0  0  0
   -2.6259   -5.0111    1.7397 C   0  0  0  0  0  0  0  0  0  0  0  0
   -2.6525   -6.3255    2.1808 C   0  0  0  0  0  0  0  0  0  0  0  0
   -2.6797   -7.3594    1.2613 C   0  0  0  0  0  0  0  0  0  0  0  0
   -2.6805   -7.0861   -0.1028 C   0  0  0  0  0  0  0  0  0  0  0  0
   -2.6543   -5.7856   -0.5537 C   0  0  0  0  0  0  0  0  0  0  0  0
   -2.6267   -4.7321    0.3634 C   0  0  0  0  0  0  0  0  0  0  0  0
   -2.6034   -3.3787    0.2291 N   0  0  0  0  0  0  0  0  0  0  0  0
   -2.7062   -8.6486    1.6932 O   0  0  0  0  0  0  0  0  0  0  0  0
   -2.7340   -9.6677    0.6919 C   0  0  0  0  0  0  0  0  0  0  0  0
    2.3214    3.8521   -0.0003 O   0  0  0  0  0  0  0  0  0  0  0  0
   -0.0613    5.7405   -0.9935 H   0  0  0  0  0  0  0  0  0  0  0  0
   -0.9362    5.7314    0.5566 H   0  0  0  0  0  0  0  0  0  0  0  0
    0.8437    5.7319    0.5392 H   0  0  0  0  0  0  0  0  0  0  0  0
    2.1003    1.2474   -0.0113 H   0  0  0  0  0  0  0  0  0  0  0  0
    0.0021   -0.0041    0.0020 H   0  0  0  0  0  0  0  0  0  0  0  0
   -4.6106    1.2547    0.0290 H   0  0  0  0  0  0  0  0  0  0  0  0
   -3.4367   -0.8120   -0.5014 H   0  0  0  0  0  0  0  0  0  0  0  0
   -1.6571   -0.8499   -0.5097 H   0  0  0  0  0  0  0  0  0  0  0  0
   -2.6523   -6.5417    3.2389 H   0  0  0  0  0  0  0  0  0  0  0  0
   -2.7023   -7.8996   -0.8128 H   0  0  0  0  0  0  0  0  0  0  0  0
   -2.6555   -5.5803   -1.6140 H   0  0  0  0  0  0  0  0  0  0  0  0
   -3.6247   -9.5471    0.0752 H   0  0  0  0  0  0  0  0  0  0  0  0
   -1.8452   -9.5867    0.0662 H   0  0  0  0  0  0  0  0  0  0  0  0
   -2.7534  -10.6468    1.1705 H   0  0  0  0  0  0  0  0  0  0  0  0
    2.6527    4.0543   -0.8859 H   0  0  0  0  0  0  0  0  0  0  0  0
  1  2  1  0  0  0  0
  1 28  1  0  0  0  0
  1 29  1  0  0  0  0
  1 30  1  0  0  0  0
  2  7  2  0  0  0  0
  2  3  1  0  0  0  0
  3  4  2  0  0  0  0
  3 27  1  0  0  0  0
  4  5  1  0  0  0  0
  4 31  1  0  0  0  0
  5  6  2  0  0  0  0
  5 32  1  0  0  0  0
  6 12  1  0  0  0  0
  6  7  1  0  0  0  0
  7  8  1  0  0  0  0
  8  9  1  0  0  0  0
  9 10  2  0  0  0  0
  9 11  1  0  0  0  0
 11 12  2  0  0  0  0
 11 33  1  0  0  0  0
 12 13  1  0  0  0  0
 13 14  1  0  0  0  0
 13 34  1  0  0  0  0
 13 35  1  0  0  0  0
 14 15  1  0  0  0  0
 15 24  2  0  0  0  0
 15 16  1  0  0  0  0
 16 17  1  0  0  0  0
 16 18  1  0  0  0  0
 18 23  2  0  0  0  0
 18 19  1  0  0  0  0
 19 20  2  0  0  0  0
 19 36  1  0  0  0  0
 20 21  1  0  0  0  0
 20 25  1  0  0  0  0
 21 22  2  0  0  0  0
 21 37  1  0  0  0  0
 22 23  1  0  0  0  0
 22 38  1  0  0  0  0
 23 24  1  0  0  0  0
 25 26  1  0  0  0  0
 26 39  1  0  0  0  0
 26 40  1  0  0  0  0
 26 41  1  0  0  0  0
 27 42  1  0  0  0  0
M  END
$$$$
ZINC04280317
  -OEChem-08230709453D

 42 44  0     0  0  0  0  0  0999 V2000
    7.8721    2.2612   -4.9065 C   0  0  0  0  0  0  0  0  0  0  0  0
    6.4020    2.1141   -5.3044 C   0  0  0  0  0  0  0  0  0  0  0  0
    5.5586    2.6197   -4.2360 O   0  0  0  0  0  0  0  0  0  0  0  0
    4.2274    2.5625   -4.4293 C   0  0  0  0  0  0  0  0  0  0  0  0
    3.7826    2.1027   -5.4624 O   0  0  0  0  0  0  0  0  0  0  0  0
    3.3881    3.0152   -3.4768 N   0  0  0  0  0  0  0  0  0  0  0  0
    1.9295    2.9660   -3.6590 C   0  0  0  0  0  0  0  0  0  0  0  0
    1.3151    2.0240   -2.6220 C   0  0  0  0  0  0  0  0  0  0  0  0
    1.8804    2.3553   -1.2467 C   0  0  0  0  0  0  0  0  0  0  0  0
    3.0338    3.0448   -1.1092 C   0  0  0  0  0  0  0  0  0  0  0  0
    3.2836    3.1724    0.6379 S   0  0  0  0  0  0  0  0  0  0  0  0
    1.8713    2.3299    1.1839 C   0  0  0  0  0  0  0  0  0  0  0  0
    1.2450    1.9631    0.0007 C   0  0  0  0  0  0  0  0  0  0  0  0
   -0.0144    1.2130    0.0087 C   0  0  0  0  0  0  0  0  0  0  0  0
    0.0021   -0.0041    0.0020 O   0  0  0  0  0  0  0  0  0  0  0  0
   -1.1906    1.8709    0.0179 N   0  0  0  0  0  0  0  0  0  0  0  0
    1.4666    2.0812    2.4850 N   0  0  0  0  0  0  0  0  0  0  0  0
    2.2124    2.5200    3.5182 C   0  0  0  0  0  0  0  0  0  0  0  0
    3.2415    3.1349    3.3080 O   0  0  0  0  0  0  0  0  0  0  0  0
    1.7841    2.2568    4.8952 C   0  0  0  0  0  0  0  0  0  0  0  0
    2.4421    2.6428    6.0282 C   0  0  0  0  0  0  0  0  0  0  0  0
    1.6804    2.1830    7.1136 C   0  0  0  0  0  0  0  0  0  0  0  0
    0.6045    1.5447    6.6026 C   0  0  0  0  0  0  0  0  0  0  0  0
    0.6677    1.5959    5.2656 O   0  0  0  0  0  0  0  0  0  0  0  0
    3.8984    3.5787   -2.2113 C   0  0  0  0  0  0  0  0  0  0  0  0
    8.0978    3.3132   -4.7323 H   0  0  0  0  0  0  0  0  0  0  0  0
    8.0604    1.6934   -3.9953 H   0  0  0  0  0  0  0  0  0  0  0  0
    8.5052    1.8817   -5.7084 H   0  0  0  0  0  0  0  0  0  0  0  0
    6.1763    1.0621   -5.4786 H   0  0  0  0  0  0  0  0  0  0  0  0
    6.2137    2.6819   -6.2156 H   0  0  0  0  0  0  0  0  0  0  0  0
    1.7009    2.6020   -4.6607 H   0  0  0  0  0  0  0  0  0  0  0  0
    1.5142    3.9658   -3.5325 H   0  0  0  0  0  0  0  0  0  0  0  0
    1.5590    0.9927   -2.8771 H   0  0  0  0  0  0  0  0  0  0  0  0
    0.2325    2.1500   -2.6107 H   0  0  0  0  0  0  0  0  0  0  0  0
   -2.0240    1.3745    0.0191 H   0  0  0  0  0  0  0  0  0  0  0  0
   -1.2038    2.8408    0.0232 H   0  0  0  0  0  0  0  0  0  0  0  0
    0.6464    1.5911    2.6525 H   0  0  0  0  0  0  0  0  0  0  0  0
    3.3692    3.1946    6.0789 H   0  0  0  0  0  0  0  0  0  0  0  0
    1.9108    2.3147    8.1605 H   0  0  0  0  0  0  0  0  0  0  0  0
   -0.1795    1.0744    7.1775 H   0  0  0  0  0  0  0  0  0  0  0  0
    4.9316    3.2679   -2.0563 H   0  0  0  0  0  0  0  0  0  0  0  0
    3.8369    4.6666   -2.2377 H   0  0  0  0  0  0  0  0  0  0  0  0
  1  2  1  0  0  0  0
  1 26  1  0  0  0  0
  1 27  1  0  0  0  0
  1 28  1  0  0  0  0
  2  3  1  0  0  0  0
  2 29  1  0  0  0  0
  2 30  1  0  0  0  0
  3  4  1  0  0  0  0
  4  5  2  0  0  0  0
  4  6  1  0  0  0  0
  6 25  1  0  0  0  0
  6  7  1  0  0  0  0
  7  8  1  0  0  0  0
  7 31  1  0  0  0  0
  7 32  1  0  0  0  0
  8  9  1  0  0  0  0
  8 33  1  0  0  0  0
  8 34  1  0  0  0  0
  9 13  1  0  0  0  0
  9 10  2  0  0  0  0
 10 11  1  0  0  0  0
 10 25  1  0  0  0  0
 11 12  1  0  0  0  0
 12 13  2  0  0  0  0
 12 17  1  0  0  0  0
 13 14  1  0  0  0  0
 14 15  2  0  0  0  0
 14 16  1  0  0  0  0
 16 35  1  0  0  0  0
 16 36  1  0  0  0  0
 17 18  1  0  0  0  0
 17 37  1  0  0  0  0
 18 19  2  0  0  0  0
 18 20  1  0  0  0  0
 20 24  1  0  0  0  0
 20 21  2  0  0  0  0
 21 22  1  0  0  0  0
 21 38  1  0  0  0  0
 22 23  2  0  0  0  0
 22 39  1  0  0  0  0
 23 24  1  0  0  0  0
 23 40  1  0  0  0  0
 25 41  1  0  0  0  0
 25 42  1  0  0  0  0
M  END
$$$$
ZINC04286742
  -OEChem-08230709453D

 41 43  0     0  0  0  0  0  0999 V2000
    5.0200    4.4202   13.7295 C   0  0  0  0  0  0  0  0  0  0  0  0
    4.6844    4.0452   12.3090 C   0  0  0  0  0  0  0  0  0  0  0  0
    5.6863    3.6257   11.4523 C   0  0  0  0  0  0  0  0  0  0  0  0
    5.3853    3.2806   10.1506 C   0  0  0  0  0  0  0  0  0  0  0  0
    4.0676    3.3555    9.6993 C   0  0  0  0  0  0  0  0  0  0  0  0
    3.0628    3.7843   10.5664 C   0  0  0  0  0  0  0  0  0  0  0  0
    3.3756    4.1216   11.8673 C   0  0  0  0  0  0  0  0  0  0  0  0
    3.7379    2.9873    8.3039 C   0  0  0  0  0  0  0  0  0  0  0  0
    2.5074    3.0581    7.8855 N   0  0  0  0  0  0  0  0  0  0  0  0
    2.2362    2.7551    6.7374 O   0  0  0  0  0  0  0  0  0  0  0  0
    0.9448    2.8508    6.3688 C   0  0  0  0  0  0  0  0  0  0  0  0
    0.1107    3.2259    7.1691 O   0  0  0  0  0  0  0  0  0  0  0  0
    0.5425    2.5004    4.9940 C   0  0  0  0  0  0  0  0  0  0  0  0
    1.4974    2.0665    4.0633 C   0  0  0  0  0  0  0  0  0  0  0  0
    1.1603    1.7502    2.8358 N   0  0  0  0  0  0  0  0  0  0  0  0
   -0.0981    1.8233    2.4115 C   0  0  0  0  0  0  0  0  0  0  0  0
   -1.1183    2.2500    3.2859 C   0  0  0  0  0  0  0  0  0  0  0  0
   -0.7956    2.5959    4.6018 C   0  0  0  0  0  0  0  0  0  0  0  0
   -2.0185    3.1277    5.7133 Cl  0  0  0  0  0  0  0  0  0  0  0  0
   -2.3599    2.2178    2.5196 C   0  0  0  0  0  0  0  0  0  0  0  0
   -2.0689    1.8145    1.3161 N   0  0  0  0  0  0  0  0  0  0  0  0
   -0.6984    1.5583    1.2133 N   0  0  0  0  0  0  0  0  0  0  0  0
   -0.0127    1.0858    0.0080 C   0  0  0  0  0  0  0  0  0  0  0  0
   -3.7292    2.5898    3.0270 C   0  0  0  0  0  0  0  0  0  0  0  0
    4.7375    2.5679    7.4447 N   0  0  0  0  0  0  0  0  0  0  0  0
    5.2571    5.4829   13.7785 H   0  0  0  0  0  0  0  0  0  0  0  0
    4.1658    4.2084   14.3727 H   0  0  0  0  0  0  0  0  0  0  0  0
    5.8799    3.8403   14.0649 H   0  0  0  0  0  0  0  0  0  0  0  0
    6.7061    3.5678   11.8030 H   0  0  0  0  0  0  0  0  0  0  0  0
    6.1682    2.9529    9.4828 H   0  0  0  0  0  0  0  0  0  0  0  0
    2.0413    3.8483   10.2215 H   0  0  0  0  0  0  0  0  0  0  0  0
    2.5978    4.4495   12.5410 H   0  0  0  0  0  0  0  0  0  0  0  0
    2.5322    1.9917    4.3633 H   0  0  0  0  0  0  0  0  0  0  0  0
    0.0021   -0.0041    0.0020 H   0  0  0  0  0  0  0  0  0  0  0  0
    1.0099    1.4631    0.0003 H   0  0  0  0  0  0  0  0  0  0  0  0
   -0.5399    1.4469   -0.8751 H   0  0  0  0  0  0  0  0  0  0  0  0
   -3.9038    3.6521    2.8563 H   0  0  0  0  0  0  0  0  0  0  0  0
   -4.4835    2.0079    2.4973 H   0  0  0  0  0  0  0  0  0  0  0  0
   -3.7909    2.3784    4.0946 H   0  0  0  0  0  0  0  0  0  0  0  0
    4.5215    2.3266    6.5304 H   0  0  0  0  0  0  0  0  0  0  0  0
    5.6545    2.5151    7.7565 H   0  0  0  0  0  0  0  0  0  0  0  0
  1  2  1  0  0  0  0
  1 26  1  0  0  0  0
  1 27  1  0  0  0  0
  1 28  1  0  0  0  0
  2  7  2  0  0  0  0
  2  3  1  0  0  0  0
  3  4  2  0  0  0  0
  3 29  1  0  0  0  0
  4  5  1  0  0  0  0
  4 30  1  0  0  0  0
  5  6  2  0  0  0  0
  5  8  1  0  0  0  0
  6  7  1  0  0  0  0
  6 31  1  0  0  0  0
  7 32  1  0  0  0  0
  8  9  2  0  0  0  0
  8 25  1  0  0  0  0
  9 10  1  0  0  0  0
 10 11  1  0  0  0  0
 11 12  2  0  0  0  0
 11 13  1  0  0  0  0
 13 18  2  0  0  0  0
 13 14  1  0  0  0  0
 14 15  2  0  0  0  0
 14 33  1  0  0  0  0
 15 16  1  0  0  0  0
 16 22  1  0  0  0  0
 16 17  2  0  0  0  0
 17 18  1  0  0  0  0
 17 20  1  0  0  0  0
 18 19  1  0  0  0  0
 20 21  2  0  0  0  0
 20 24  1  0  0  0  0
 21 22  1  0  0  0  0
 22 23  1  0  0  0  0
 23 34  1  0  0  0  0
 23 35  1  0  0  0  0
 23 36  1  0  0  0  0
 24 37  1  0  0  0  0
 24 38  1  0  0  0  0
 24 39  1  0  0  0  0
 25 40  1  0  0  0  0
 25 41  1  0  0  0  0
M  END
$$$$
ZINC04305902
  -OEChem-08230709453D

 47 49  0     1  0  0  0  0  0999 V2000
    1.7016   -7.1461   -0.3211 C   0  0  0  0  0  0  0  0  0  0  0  0
    0.4973   -6.2401   -0.3122 C   0  0  0  0  0  0  0  0  0  0  0  0
   -0.7098   -6.7020    0.1794 C   0  0  0  0  0  0  0  0  0  0  0  0
   -1.8152   -5.8742    0.1899 C   0  0  0  0  0  0  0  0  0  0  0  0
   -1.7135   -4.5763   -0.2947 C   0  0  0  0  0  0  0  0  0  0  0  0
   -0.5009   -4.1174   -0.7931 C   0  0  0  0  0  0  0  0  0  0  0  0
    0.6020   -4.9486   -0.7954 C   0  0  0  0  0  0  0  0  0  0  0  0
   -2.8305   -3.7359   -0.2860 N   0  0  0  0  0  0  0  0  0  0  0  0
   -2.6700   -2.3710   -0.0971 C   0  0  0  0  0  0  0  0  0  0  0  0
   -3.7601   -1.5117   -0.2011 C   0  0  0  0  0  0  0  0  0  0  0  0
   -3.5513   -0.1500   -0.0040 C   0  0  0  0  0  0  0  0  0  0  0  0
   -2.3250    0.2828    0.2812 N   0  0  0  0  0  0  0  0  0  0  0  0
   -1.3100   -0.5635    0.3672 C   0  0  0  0  0  0  0  0  0  0  0  0
   -1.4715   -1.8656    0.1858 N   0  0  0  0  0  0  0  0  0  0  0  0
   -0.0486   -0.0753    0.6597 N   0  0  0  0  0  0  0  0  0  0  0  0
    0.5080   -0.7341    1.8482 C   0  0  0  0  0  0  0  0  0  0  0  0
    1.9539   -0.2776    2.0560 C   0  0  0  0  0  0  0  0  0  0  0  0
    1.9835    1.2432    2.2315 C   0  0  0  0  0  0  0  0  0  0  0  0
    1.3543    1.9034    1.0016 C   0  0  1  0  0  0  0  0  0  0  0  0
    1.9425    1.6599    0.1169 H   0  0  0  0  0  0  0  0  0  0  0  0
   -0.0742    1.3837    0.8244 C   0  0  0  0  0  0  0  0  0  0  0  0
    1.3254    3.4209    1.1950 C   0  0  0  0  0  0  0  0  0  0  0  0
   -4.6073    0.7431   -0.0973 N   0  0  0  0  0  0  0  0  0  0  0  0
   -5.1095   -2.0340   -0.5136 N   0  3  0  0  0  0  0  0  0  0  0  0
   -5.8570   -2.3682    0.3880 O   0  0  0  0  0  0  0  0  0  0  0  0
   -5.4722   -2.1295   -1.6724 O   0  5  0  0  0  0  0  0  0  0  0  0
    1.7362   -7.6953   -1.2620 H   0  0  0  0  0  0  0  0  0  0  0  0
    2.6069   -6.5481   -0.2160 H   0  0  0  0  0  0  0  0  0  0  0  0
    1.6328   -7.8500    0.5082 H   0  0  0  0  0  0  0  0  0  0  0  0
   -0.7882   -7.7112    0.5560 H   0  0  0  0  0  0  0  0  0  0  0  0
   -2.7574   -6.2353    0.5747 H   0  0  0  0  0  0  0  0  0  0  0  0
   -0.4195   -3.1102   -1.1743 H   0  0  0  0  0  0  0  0  0  0  0  0
    1.5461   -4.5911   -1.1790 H   0  0  0  0  0  0  0  0  0  0  0  0
   -3.7177   -4.1071   -0.4121 H   0  0  0  0  0  0  0  0  0  0  0  0
   -0.0860   -0.4682    2.7226 H   0  0  0  0  0  0  0  0  0  0  0  0
    0.4851   -1.8149    1.7086 H   0  0  0  0  0  0  0  0  0  0  0  0
    2.3617   -0.7548    2.9471 H   0  0  0  0  0  0  0  0  0  0  0  0
    2.5516   -0.5555    1.1879 H   0  0  0  0  0  0  0  0  0  0  0  0
    1.4181    1.5182    3.1219 H   0  0  0  0  0  0  0  0  0  0  0  0
    3.0155    1.5776    2.3377 H   0  0  0  0  0  0  0  0  0  0  0  0
   -0.5201    1.8411   -0.0588 H   0  0  0  0  0  0  0  0  0  0  0  0
   -0.6655    1.6396    1.7035 H   0  0  0  0  0  0  0  0  0  0  0  0
    0.7384    3.6631    2.0809 H   0  0  0  0  0  0  0  0  0  0  0  0
    2.3430    3.7905    1.3212 H   0  0  0  0  0  0  0  0  0  0  0  0
    0.8742    3.8900    0.3207 H   0  0  0  0  0  0  0  0  0  0  0  0
   -5.4990    0.4203   -0.3012 H   0  0  0  0  0  0  0  0  0  0  0  0
   -4.4545    1.6909    0.0413 H   0  0  0  0  0  0  0  0  0  0  0  0
  1  2  1  0  0  0  0
  1 27  1  0  0  0  0
  1 28  1  0  0  0  0
  1 29  1  0  0  0  0
  2  7  2  0  0  0  0
  2  3  1  0  0  0  0
  3  4  2  0  0  0  0
  3 30  1  0  0  0  0
  4  5  1  0  0  0  0
  4 31  1  0  0  0  0
  5  6  2  0  0  0  0
  5  8  1  0  0  0  0
  6  7  1  0  0  0  0
  6 32  1  0  0  0  0
  7 33  1  0  0  0  0
  8  9  1  0  0  0  0
  8 34  1  0  0  0  0
  9 14  2  0  0  0  0
  9 10  1  0  0  0  0
 10 11  2  0  0  0  0
 10 24  1  0  0  0  0
 11 12  1  0  0  0  0
 11 23  1  0  0  0  0
 12 13  2  0  0  0  0
 13 14  1  0  0  0  0
 13 15  1  0  0  0  0
 15 21  1  0  0  0  0
 15 16  1  0  0  0  0
 16 17  1  0  0  0  0
 16 35  1  0  0  0  0
 16 36  1  0  0  0  0
 17 18  1  0  0  0  0
 17 37  1  0  0  0  0
 17 38  1  0  0  0  0
 18 19  1  0  0  0  0
 18 39  1  0  0  0  0
 18 40  1  0  0  0  0
 19 20  1  0  0  0  0
 19 21  1  0  0  0  0
 19 22  1  0  0  0  0
 21 41  1  0  0  0  0
 21 42  1  0  0  0  0
 22 43  1  0  0  0  0
 22 44  1  0  0  0  0
 22 45  1  0  0  0  0
 23 46  1  0  0  0  0
 23 47  1  0  0  0  0
 24 25  2  0  0  0  0
 24 26  1  0  0  0  0
M  CHG  2  24   1  26  -1
M  END
$$$$
ZINC04305909
  -OEChem-08230709453D

 47 49  0     0  0  0  0  0  0999 V2000
    0.9331   -4.1283    0.8907 C   0  0  0  0  0  0  0  0  0  0  0  0
    0.6805   -2.6612    0.6563 C   0  0  0  0  0  0  0  0  0  0  0  0
    1.4665   -1.9603   -0.2400 C   0  0  0  0  0  0  0  0  0  0  0  0
    1.2379   -0.6157   -0.4567 C   0  0  0  0  0  0  0  0  0  0  0  0
    0.2169    0.0326    0.2264 C   0  0  0  0  0  0  0  0  0  0  0  0
   -0.5677   -0.6732    1.1296 C   0  0  0  0  0  0  0  0  0  0  0  0
   -0.3366   -2.0187    1.3384 C   0  0  0  0  0  0  0  0  0  0  0  0
   -0.0169    1.3937    0.0097 N   0  0  0  0  0  0  0  0  0  0  0  0
   -1.3125    1.8885    0.0409 C   0  0  0  0  0  0  0  0  0  0  0  0
   -1.5471    3.2572   -0.0540 C   0  0  0  0  0  0  0  0  0  0  0  0
   -2.8633    3.7077   -0.0181 C   0  0  0  0  0  0  0  0  0  0  0  0
   -3.8485    2.8208    0.1049 N   0  0  0  0  0  0  0  0  0  0  0  0
   -3.5878    1.5253    0.1926 C   0  0  0  0  0  0  0  0  0  0  0  0
   -2.3481    1.0603    0.1564 N   0  0  0  0  0  0  0  0  0  0  0  0
   -4.6385    0.6337    0.3195 N   0  0  0  0  0  0  0  0  0  0  0  0
   -4.5387   -0.4499   -0.6837 C   0  0  0  0  0  0  0  0  0  0  0  0
   -5.7874   -1.2848   -0.7671 C   0  0  0  0  0  0  0  0  0  0  0  0
   -6.6853   -0.7126   -1.8840 C   0  0  0  0  0  0  0  0  0  0  0  0
   -7.4126    0.4757   -1.4516 C   0  0  0  0  0  0  0  0  0  0  0  0
   -6.4645    1.6239   -1.0467 C   0  0  0  0  0  0  0  0  0  0  0  0
   -5.9373    1.3430    0.3341 C   0  0  0  0  0  0  0  0  0  0  0  0
   -3.1449    5.0619   -0.1097 N   0  0  0  0  0  0  0  0  0  0  0  0
   -0.4231    4.2110   -0.1892 N   0  3  0  0  0  0  0  0  0  0  0  0
   -0.0172    4.5210   -1.2950 O   0  0  0  0  0  0  0  0  0  0  0  0
    0.0957    4.6859    0.8052 O   0  5  0  0  0  0  0  0  0  0  0  0
    1.6488   -4.2483    1.7040 H   0  0  0  0  0  0  0  0  0  0  0  0
   -0.0029   -4.6205    1.1547 H   0  0  0  0  0  0  0  0  0  0  0  0
    1.3362   -4.5771   -0.0172 H   0  0  0  0  0  0  0  0  0  0  0  0
    2.2602   -2.4650   -0.7708 H   0  0  0  0  0  0  0  0  0  0  0  0
    1.8521   -0.0689   -1.1569 H   0  0  0  0  0  0  0  0  0  0  0  0
   -1.3595   -0.1711    1.6656 H   0  0  0  0  0  0  0  0  0  0  0  0
   -0.9486   -2.5690    2.0377 H   0  0  0  0  0  0  0  0  0  0  0  0
    0.7265    1.9914   -0.1664 H   0  0  0  0  0  0  0  0  0  0  0  0
   -4.3458   -0.0074   -1.6610 H   0  0  0  0  0  0  0  0  0  0  0  0
   -3.7009   -1.0959   -0.4212 H   0  0  0  0  0  0  0  0  0  0  0  0
   -6.3176   -1.2469    0.1845 H   0  0  0  0  0  0  0  0  0  0  0  0
   -5.5234   -2.3161   -1.0016 H   0  0  0  0  0  0  0  0  0  0  0  0
   -7.4024   -1.4755   -2.1871 H   0  0  0  0  0  0  0  0  0  0  0  0
   -6.0629   -0.4543   -2.7408 H   0  0  0  0  0  0  0  0  0  0  0  0
   -8.0387    0.2161   -0.5979 H   0  0  0  0  0  0  0  0  0  0  0  0
   -8.0506    0.8148   -2.2677 H   0  0  0  0  0  0  0  0  0  0  0  0
   -7.0111    2.5669   -1.0452 H   0  0  0  0  0  0  0  0  0  0  0  0
   -5.6344    1.6829   -1.7507 H   0  0  0  0  0  0  0  0  0  0  0  0
   -6.6645    0.7338    0.8708 H   0  0  0  0  0  0  0  0  0  0  0  0
   -5.8155    2.2884    0.8628 H   0  0  0  0  0  0  0  0  0  0  0  0
   -2.4221    5.7025   -0.1995 H   0  0  0  0  0  0  0  0  0  0  0  0
   -4.0647    5.3688   -0.0841 H   0  0  0  0  0  0  0  0  0  0  0  0
  1  2  1  0  0  0  0
  1 26  1  0  0  0  0
  1 27  1  0  0  0  0
  1 28  1  0  0  0  0
  2  7  2  0  0  0  0
  2  3  1  0  0  0  0
  3  4  2  0  0  0  0
  3 29  1  0  0  0  0
  4  5  1  0  0  0  0
  4 30  1  0  0  0  0
  5  6  2  0  0  0  0
  5  8  1  0  0  0  0
  6  7  1  0  0  0  0
  6 31  1  0  0  0  0
  7 32  1  0  0  0  0
  8  9  1  0  0  0  0
  8 33  1  0  0  0  0
  9 14  2  0  0  0  0
  9 10  1  0  0  0  0
 10 11  2  0  0  0  0
 10 23  1  0  0  0  0
 11 12  1  0  0  0  0
 11 22  1  0  0  0  0
 12 13  2  0  0  0  0
 13 14  1  0  0  0  0
 13 15  1  0  0  0  0
 15 21  1  0  0  0  0
 15 16  1  0  0  0  0
 16 17  1  0  0  0  0
 16 34  1  0  0  0  0
 16 35  1  0  0  0  0
 17 18  1  0  0  0  0
 17 36  1  0  0  0  0
 17 37  1  0  0  0  0
 18 19  1  0  0  0  0
 18 38  1  0  0  0  0
 18 39  1  0  0  0  0
 19 20  1  0  0  0  0
 19 40  1  0  0  0  0
 19 41  1  0  0  0  0
 20 21  1  0  0  0  0
 20 42  1  0  0  0  0
 20 43  1  0  0  0  0
 21 44  1  0  0  0  0
 21 45  1  0  0  0  0
 22 46  1  0  0  0  0
 22 47  1  0  0  0  0
 23 24  2  0  0  0  0
 23 25  1  0  0  0  0
M  CHG  2  23   1  25  -1
M  END
$$$$
ZINC04305919
  -OEChem-08230709453D

 44 46  0     0  0  0  0  0  0999 V2000
   -2.3206    3.7626    0.6130 C   0  0  0  0  0  0  0  0  0  0  0  0
   -3.5007    3.2420    0.1143 C   0  0  0  0  0  0  0  0  0  0  0  0
   -3.5264    1.9670   -0.4203 C   0  0  0  0  0  0  0  0  0  0  0  0
   -2.3708    1.2083   -0.4575 C   0  0  0  0  0  0  0  0  0  0  0  0
   -1.1828    1.7300    0.0431 C   0  0  0  0  0  0  0  0  0  0  0  0
   -1.1634    3.0087    0.5835 C   0  0  0  0  0  0  0  0  0  0  0  0
   -0.0111    0.9658    0.0074 N   0  0  0  0  0  0  0  0  0  0  0  0
    1.2248    1.5857    0.1175 C   0  0  0  0  0  0  0  0  0  0  0  0
    2.3882    0.8274    0.2119 C   0  0  0  0  0  0  0  0  0  0  0  0
    3.6056    1.4928    0.3203 C   0  0  0  0  0  0  0  0  0  0  0  0
    3.6177    2.8240    0.3301 N   0  0  0  0  0  0  0  0  0  0  0  0
    2.4905    3.5133    0.2383 C   0  0  0  0  0  0  0  0  0  0  0  0
    1.3145    2.9138    0.1288 N   0  0  0  0  0  0  0  0  0  0  0  0
    2.5433    4.8960    0.2520 N   0  0  0  0  0  0  0  0  0  0  0  0
    1.7948    5.4667   -0.8902 C   0  0  0  0  0  0  0  0  0  0  0  0
    2.0455    6.9385   -1.0755 C   0  0  0  0  0  0  0  0  0  0  0  0
    3.1891    7.1156   -2.0962 C   0  0  0  0  0  0  0  0  0  0  0  0
    4.5004    6.8858   -1.4997 C   0  0  0  0  0  0  0  0  0  0  0  0
    4.6473    5.4512   -0.9507 C   0  0  0  0  0  0  0  0  0  0  0  0
    3.9392    5.3724    0.3743 C   0  0  0  0  0  0  0  0  0  0  0  0
    4.7900    0.7791    0.4163 N   0  0  0  0  0  0  0  0  0  0  0  0
    2.3318   -0.6518    0.1978 N   0  3  0  0  0  0  0  0  0  0  0  0
    2.3982   -1.2537   -0.8590 O   0  0  0  0  0  0  0  0  0  0  0  0
    2.2191   -1.2669    1.2430 O   0  5  0  0  0  0  0  0  0  0  0  0
   -2.3958   -0.0375   -0.9797 F   0  0  0  0  0  0  0  0  0  0  0  0
   -2.3047    4.7586    1.0303 H   0  0  0  0  0  0  0  0  0  0  0  0
   -4.4044    3.8326    0.1426 H   0  0  0  0  0  0  0  0  0  0  0  0
   -4.4498    1.5632   -0.8086 H   0  0  0  0  0  0  0  0  0  0  0  0
   -0.2435    3.4151    0.9771 H   0  0  0  0  0  0  0  0  0  0  0  0
   -0.0630    0.0030   -0.0984 H   0  0  0  0  0  0  0  0  0  0  0  0
    2.0885    4.9428   -1.7998 H   0  0  0  0  0  0  0  0  0  0  0  0
    0.7288    5.3097   -0.7255 H   0  0  0  0  0  0  0  0  0  0  0  0
    2.3325    7.3838   -0.1230 H   0  0  0  0  0  0  0  0  0  0  0  0
    1.1421    7.4195   -1.4505 H   0  0  0  0  0  0  0  0  0  0  0  0
    3.1543    8.1299   -2.4940 H   0  0  0  0  0  0  0  0  0  0  0  0
    3.0446    6.4111   -2.9153 H   0  0  0  0  0  0  0  0  0  0  0  0
    4.6468    7.5936   -0.6838 H   0  0  0  0  0  0  0  0  0  0  0  0
    5.2664    7.0552   -2.2564 H   0  0  0  0  0  0  0  0  0  0  0  0
    5.7033    5.2170   -0.8160 H   0  0  0  0  0  0  0  0  0  0  0  0
    4.2008    4.7417   -1.6473 H   0  0  0  0  0  0  0  0  0  0  0  0
    3.9340    6.3628    0.8295 H   0  0  0  0  0  0  0  0  0  0  0  0
    4.4871    4.6915    1.0257 H   0  0  0  0  0  0  0  0  0  0  0  0
    4.7738   -0.1908    0.4082 H   0  0  0  0  0  0  0  0  0  0  0  0
    5.6350    1.2494    0.4916 H   0  0  0  0  0  0  0  0  0  0  0  0
  1  6  2  0  0  0  0
  1  2  1  0  0  0  0
  1 26  1  0  0  0  0
  2  3  2  0  0  0  0
  2 27  1  0  0  0  0
  3  4  1  0  0  0  0
  3 28  1  0  0  0  0
  4  5  2  0  0  0  0
  4 25  1  0  0  0  0
  5  6  1  0  0  0  0
  5  7  1  0  0  0  0
  6 29  1  0  0  0  0
  7  8  1  0  0  0  0
  7 30  1  0  0  0  0
  8 13  2  0  0  0  0
  8  9  1  0  0  0  0
  9 10  2  0  0  0  0
  9 22  1  0  0  0  0
 10 11  1  0  0  0  0
 10 21  1  0  0  0  0
 11 12  2  0  0  0  0
 12 13  1  0  0  0  0
 12 14  1  0  0  0  0
 14 20  1  0  0  0  0
 14 15  1  0  0  0  0
 15 16  1  0  0  0  0
 15 31  1  0  0  0  0
 15 32  1  0  0  0  0
 16 17  1  0  0  0  0
 16 33  1  0  0  0  0
 16 34  1  0  0  0  0
 17 18  1  0  0  0  0
 17 35  1  0  0  0  0
 17 36  1  0  0  0  0
 18 19  1  0  0  0  0
 18 37  1  0  0  0  0
 18 38  1  0  0  0  0
 19 20  1  0  0  0  0
 19 39  1  0  0  0  0
 19 40  1  0  0  0  0
 20 41  1  0  0  0  0
 20 42  1  0  0  0  0
 21 43  1  0  0  0  0
 21 44  1  0  0  0  0
 22 23  2  0  0  0  0
 22 24  1  0  0  0  0
M  CHG  2  22   1  24  -1
M  END
$$$$
ZINC04305936
  -OEChem-08230709453D

 40 41  0     0  0  0  0  0  0999 V2000
   -8.4006    0.4208    0.6830 C   0  0  0  0  0  0  0  0  0  0  0  0
   -6.9689   -0.0928    0.5173 C   0  0  0  0  0  0  0  0  0  0  0  0
   -6.8842   -0.9730   -0.7313 C   0  0  0  0  0  0  0  0  0  0  0  0
   -6.0150    1.0944    0.3700 C   0  0  0  0  0  0  0  0  0  0  0  0
   -4.6334    0.6087    0.3312 N   0  0  0  0  0  0  0  0  0  0  0  0
   -3.5879    1.5061    0.2018 C   0  0  0  0  0  0  0  0  0  0  0  0
   -3.8560    2.8004    0.1144 N   0  0  0  0  0  0  0  0  0  0  0  0
   -2.8762    3.6924   -0.0114 C   0  0  0  0  0  0  0  0  0  0  0  0
   -1.5572    3.2490   -0.0505 C   0  0  0  0  0  0  0  0  0  0  0  0
   -1.3150    1.8820    0.0441 C   0  0  0  0  0  0  0  0  0  0  0  0
   -2.3461    1.0480    0.1626 N   0  0  0  0  0  0  0  0  0  0  0  0
   -0.0169    1.3943    0.0097 N   0  0  0  0  0  0  0  0  0  0  0  0
    0.2249    0.0340    0.2263 C   0  0  0  0  0  0  0  0  0  0  0  0
   -0.5549   -0.6760    1.1301 C   0  0  0  0  0  0  0  0  0  0  0  0
   -0.3173   -2.0205    1.3381 C   0  0  0  0  0  0  0  0  0  0  0  0
    0.7041   -2.6576    0.6556 C   0  0  0  0  0  0  0  0  0  0  0  0
    1.4860   -1.9514   -0.2416 C   0  0  0  0  0  0  0  0  0  0  0  0
    1.2491   -0.6081   -0.4578 C   0  0  0  0  0  0  0  0  0  0  0  0
    1.0047   -4.3461    0.9248 Cl  0  0  0  0  0  0  0  0  0  0  0  0
   -0.4389    4.2089   -0.1889 N   0  3  0  0  0  0  0  0  0  0  0  0
   -0.0375    4.5208   -1.2958 O   0  0  0  0  0  0  0  0  0  0  0  0
    0.0799    4.6869    0.8040 O   0  5  0  0  0  0  0  0  0  0  0  0
   -3.1654    5.0450   -0.1026 N   0  0  0  0  0  0  0  0  0  0  0  0
   -8.6805    1.0054   -0.1934 H   0  0  0  0  0  0  0  0  0  0  0  0
   -9.0801   -0.4249    0.7879 H   0  0  0  0  0  0  0  0  0  0  0  0
   -8.4609    1.0479    1.5725 H   0  0  0  0  0  0  0  0  0  0  0  0
   -6.6889   -0.6774    1.3936 H   0  0  0  0  0  0  0  0  0  0  0  0
   -5.8643   -1.3389   -0.8494 H   0  0  0  0  0  0  0  0  0  0  0  0
   -7.5638   -1.8187   -0.6264 H   0  0  0  0  0  0  0  0  0  0  0  0
   -7.1642   -0.3884   -1.6077 H   0  0  0  0  0  0  0  0  0  0  0  0
   -6.1397    1.7679    1.2179 H   0  0  0  0  0  0  0  0  0  0  0  0
   -6.2387    1.6278   -0.5538 H   0  0  0  0  0  0  0  0  0  0  0  0
   -4.4514   -0.3418    0.3962 H   0  0  0  0  0  0  0  0  0  0  0  0
    0.7227    1.9960   -0.1685 H   0  0  0  0  0  0  0  0  0  0  0  0
   -1.3493   -0.1783    1.6663 H   0  0  0  0  0  0  0  0  0  0  0  0
   -0.9262   -2.5741    2.0375 H   0  0  0  0  0  0  0  0  0  0  0  0
    2.2820   -2.4513   -0.7735 H   0  0  0  0  0  0  0  0  0  0  0  0
    1.8594   -0.0575   -1.1583 H   0  0  0  0  0  0  0  0  0  0  0  0
   -2.4463    5.6896   -0.1945 H   0  0  0  0  0  0  0  0  0  0  0  0
   -4.0868    5.3470   -0.0747 H   0  0  0  0  0  0  0  0  0  0  0  0
  1  2  1  0  0  0  0
  1 24  1  0  0  0  0
  1 25  1  0  0  0  0
  1 26  1  0  0  0  0
  2  3  1  0  0  0  0
  2  4  1  0  0  0  0
  2 27  1  0  0  0  0
  3 28  1  0  0  0  0
  3 29  1  0  0  0  0
  3 30  1  0  0  0  0
  4  5  1  0  0  0  0
  4 31  1  0  0  0  0
  4 32  1  0  0  0  0
  5  6  1  0  0  0  0
  5 33  1  0  0  0  0
  6 11  2  0  0  0  0
  6  7  1  0  0  0  0
  7  8  2  0  0  0  0
  8  9  1  0  0  0  0
  8 23  1  0  0  0  0
  9 10  2  0  0  0  0
  9 20  1  0  0  0  0
 10 11  1  0  0  0  0
 10 12  1  0  0  0  0
 12 13  1  0  0  0  0
 12 34  1  0  0  0  0
 13 18  2  0  0  0  0
 13 14  1  0  0  0  0
 14 15  2  0  0  0  0
 14 35  1  0  0  0  0
 15 16  1  0  0  0  0
 15 36  1  0  0  0  0
 16 17  2  0  0  0  0
 16 19  1  0  0  0  0
 17 18  1  0  0  0  0
 17 37  1  0  0  0  0
 18 38  1  0  0  0  0
 20 21  2  0  0  0  0
 20 22  1  0  0  0  0
 23 39  1  0  0  0  0
 23 40  1  0  0  0  0
M  CHG  2  20   1  22  -1
M  END
$$$$
ZINC04305949
  -OEChem-08230709453D

 44 46  0     0  0  0  0  0  0999 V2000
    1.4043   -0.3609    0.0273 C   0  0  0  0  0  0  0  0  0  0  0  0
    0.0412    0.0138    0.0435 C   0  0  0  0  0  0  0  0  0  0  0  0
    0.0064    1.3584    0.0304 C   0  0  0  0  0  0  0  0  0  0  0  0
    1.2691    1.8153    0.0072 O   0  0  0  0  0  0  0  0  0  0  0  0
    2.1211    0.7771    0.0052 C   0  0  0  0  0  0  0  0  0  0  0  0
   -1.2383    2.2080    0.0345 C   0  0  0  0  0  0  0  0  0  0  0  0
   -1.6276    2.4971    1.4168 N   0  0  0  0  0  0  0  0  0  0  0  0
   -2.7488    3.2666    1.6734 C   0  0  0  0  0  0  0  0  0  0  0  0
   -3.4544    3.7375    0.6560 N   0  0  0  0  0  0  0  0  0  0  0  0
   -4.5416    4.4764    0.8647 C   0  0  0  0  0  0  0  0  0  0  0  0
   -4.9265    4.7612    2.1717 C   0  0  0  0  0  0  0  0  0  0  0  0
   -4.1571    4.2538    3.2142 C   0  0  0  0  0  0  0  0  0  0  0  0
   -3.0852    3.5174    2.9294 N   0  0  0  0  0  0  0  0  0  0  0  0
   -4.5019    4.5120    4.5318 N   0  0  0  0  0  0  0  0  0  0  0  0
   -3.4472    5.2963    5.2121 C   0  0  0  0  0  0  0  0  0  0  0  0
   -3.6432    5.3690    6.7020 C   0  0  0  0  0  0  0  0  0  0  0  0
   -2.8320    4.2324    7.3586 C   0  0  0  0  0  0  0  0  0  0  0  0
   -3.5052    2.9426    7.2523 C   0  0  0  0  0  0  0  0  0  0  0  0
   -3.7150    2.5140    5.7848 C   0  0  0  0  0  0  0  0  0  0  0  0
   -4.8933    3.2678    5.2312 C   0  0  0  0  0  0  0  0  0  0  0  0
   -6.1261    5.5840    2.4461 N   0  3  0  0  0  0  0  0  0  0  0  0
   -6.0396    6.7987    2.4672 O   0  0  0  0  0  0  0  0  0  0  0  0
   -7.1996    5.0462    2.6509 O   0  5  0  0  0  0  0  0  0  0  0  0
   -5.2777    4.9606   -0.2054 N   0  0  0  0  0  0  0  0  0  0  0  0
    1.7952   -1.3677    0.0321 H   0  0  0  0  0  0  0  0  0  0  0  0
   -0.8091   -0.6518    0.0633 H   0  0  0  0  0  0  0  0  0  0  0  0
    3.1988    0.8445   -0.0117 H   0  0  0  0  0  0  0  0  0  0  0  0
   -1.0420    3.1427   -0.4908 H   0  0  0  0  0  0  0  0  0  0  0  0
   -2.0452    1.6726   -0.4659 H   0  0  0  0  0  0  0  0  0  0  0  0
   -1.0996    2.1492    2.1523 H   0  0  0  0  0  0  0  0  0  0  0  0
   -2.4801    4.8372    5.0068 H   0  0  0  0  0  0  0  0  0  0  0  0
   -3.4461    6.3086    4.8080 H   0  0  0  0  0  0  0  0  0  0  0  0
   -4.7004    5.2483    6.9386 H   0  0  0  0  0  0  0  0  0  0  0  0
   -3.2923    6.3315    7.0740 H   0  0  0  0  0  0  0  0  0  0  0  0
   -2.6824    4.4676    8.4124 H   0  0  0  0  0  0  0  0  0  0  0  0
   -1.8599    4.1654    6.8700 H   0  0  0  0  0  0  0  0  0  0  0  0
   -4.4759    3.0087    7.7437 H   0  0  0  0  0  0  0  0  0  0  0  0
   -2.9033    2.1880    7.7587 H   0  0  0  0  0  0  0  0  0  0  0  0
   -3.9119    1.4428    5.7407 H   0  0  0  0  0  0  0  0  0  0  0  0
   -2.8235    2.7496    5.2035 H   0  0  0  0  0  0  0  0  0  0  0  0
   -5.5648    3.5220    6.0513 H   0  0  0  0  0  0  0  0  0  0  0  0
   -5.4253    2.6236    4.5311 H   0  0  0  0  0  0  0  0  0  0  0  0
   -6.0667    5.5018   -0.0461 H   0  0  0  0  0  0  0  0  0  0  0  0
   -5.0037    4.7582   -1.1137 H   0  0  0  0  0  0  0  0  0  0  0  0
  1  5  2  0  0  0  0
  1  2  1  0  0  0  0
  1 25  1  0  0  0  0
  2  3  2  0  0  0  0
  2 26  1  0  0  0  0
  3  4  1  0  0  0  0
  3  6  1  0  0  0  0
  4  5  1  0  0  0  0
  5 27  1  0  0  0  0
  6  7  1  0  0  0  0
  6 28  1  0  0  0  0
  6 29  1  0  0  0  0
  7  8  1  0  0  0  0
  7 30  1  0  0  0  0
  8 13  2  0  0  0  0
  8  9  1  0  0  0  0
  9 10  2  0  0  0  0
 10 11  1  0  0  0  0
 10 24  1  0  0  0  0
 11 12  2  0  0  0  0
 11 21  1  0  0  0  0
 12 13  1  0  0  0  0
 12 14  1  0  0  0  0
 14 20  1  0  0  0  0
 14 15  1  0  0  0  0
 15 16  1  0  0  0  0
 15 31  1  0  0  0  0
 15 32  1  0  0  0  0
 16 17  1  0  0  0  0
 16 33  1  0  0  0  0
 16 34  1  0  0  0  0
 17 18  1  0  0  0  0
 17 35  1  0  0  0  0
 17 36  1  0  0  0  0
 18 19  1  0  0  0  0
 18 37  1  0  0  0  0
 18 38  1  0  0  0  0
 19 20  1  0  0  0  0
 19 39  1  0  0  0  0
 19 40  1  0  0  0  0
 20 41  1  0  0  0  0
 20 42  1  0  0  0  0
 21 22  2  0  0  0  0
 21 23  1  0  0  0  0
 24 43  1  0  0  0  0
 24 44  1  0  0  0  0
M  CHG  2  21   1  23  -1
M  END
$$$$
ZINC04305974
  -OEChem-08230709453D

 44 46  0     0  0  0  0  0  0999 V2000
    1.0435    1.8037   -0.0898 C   0  0  0  0  0  0  0  0  0  0  0  0
    2.2273    1.0907   -0.1082 C   0  0  0  0  0  0  0  0  0  0  0  0
    2.2038   -0.2906   -0.0332 C   0  0  0  0  0  0  0  0  0  0  0  0
    0.9951   -0.9573    0.0601 C   0  0  0  0  0  0  0  0  0  0  0  0
   -0.1881   -0.2431    0.0784 C   0  0  0  0  0  0  0  0  0  0  0  0
   -0.1639    1.1370    0.0035 C   0  0  0  0  0  0  0  0  0  0  0  0
   -1.4547    1.9148    0.0171 C   0  0  0  0  0  0  0  0  0  0  0  0
   -1.8139    2.2406    1.3995 N   0  0  0  0  0  0  0  0  0  0  0  0
   -2.9684    2.9562    1.6641 C   0  0  0  0  0  0  0  0  0  0  0  0
   -3.7333    3.3427    0.6542 N   0  0  0  0  0  0  0  0  0  0  0  0
   -4.8537    4.0277    0.8710 C   0  0  0  0  0  0  0  0  0  0  0  0
   -5.2107    4.3462    2.1782 C   0  0  0  0  0  0  0  0  0  0  0  0
   -4.3791    3.9279    3.2125 C   0  0  0  0  0  0  0  0  0  0  0  0
   -3.2766    3.2414    2.9201 N   0  0  0  0  0  0  0  0  0  0  0  0
   -4.6943    4.2226    4.5298 N   0  0  0  0  0  0  0  0  0  0  0  0
   -3.6607    5.0673    5.1419 C   0  0  0  0  0  0  0  0  0  0  0  0
   -4.1098    5.4914    6.5421 C   0  0  0  0  0  0  0  0  0  0  0  0
   -4.3473    4.2432    7.3965 C   0  0  0  0  0  0  0  0  0  0  0  0
   -5.3923    3.3574    6.7126 C   0  0  0  0  0  0  0  0  0  0  0  0
   -4.9060    2.9951    5.3075 C   0  0  0  0  0  0  0  0  0  0  0  0
   -6.4458    5.1114    2.4613 N   0  3  0  0  0  0  0  0  0  0  0  0
   -6.4116    6.3280    2.5068 O   0  0  0  0  0  0  0  0  0  0  0  0
   -7.4964    4.5242    2.6487 O   0  5  0  0  0  0  0  0  0  0  0  0
   -5.6516    4.4235   -0.1911 N   0  0  0  0  0  0  0  0  0  0  0  0
    3.6904   -1.1869   -0.0556 Cl  0  0  0  0  0  0  0  0  0  0  0  0
    1.0617    2.8820   -0.1483 H   0  0  0  0  0  0  0  0  0  0  0  0
    3.1706    1.6117   -0.1807 H   0  0  0  0  0  0  0  0  0  0  0  0
    0.9762   -2.0355    0.1191 H   0  0  0  0  0  0  0  0  0  0  0  0
   -1.1317   -0.7634    0.1516 H   0  0  0  0  0  0  0  0  0  0  0  0
   -1.3300    2.8356   -0.5526 H   0  0  0  0  0  0  0  0  0  0  0  0
   -2.2456    1.3140   -0.4319 H   0  0  0  0  0  0  0  0  0  0  0  0
   -1.2425    1.9547    2.1293 H   0  0  0  0  0  0  0  0  0  0  0  0
   -2.7288    4.5064    5.2137 H   0  0  0  0  0  0  0  0  0  0  0  0
   -3.5045    5.9534    4.5266 H   0  0  0  0  0  0  0  0  0  0  0  0
   -5.0343    6.0642    6.4697 H   0  0  0  0  0  0  0  0  0  0  0  0
   -3.3356    6.1055    7.0021 H   0  0  0  0  0  0  0  0  0  0  0  0
   -4.7089    4.5393    8.3812 H   0  0  0  0  0  0  0  0  0  0  0  0
   -3.4136    3.6905    7.5013 H   0  0  0  0  0  0  0  0  0  0  0  0
   -6.3370    3.8966    6.6430 H   0  0  0  0  0  0  0  0  0  0  0  0
   -5.5344    2.4467    7.2946 H   0  0  0  0  0  0  0  0  0  0  0  0
   -5.6543    2.3761    4.8125 H   0  0  0  0  0  0  0  0  0  0  0  0
   -3.9683    2.4439    5.3786 H   0  0  0  0  0  0  0  0  0  0  0  0
   -6.4648    4.9259   -0.0260 H   0  0  0  0  0  0  0  0  0  0  0  0
   -5.3967    4.1981   -1.0995 H   0  0  0  0  0  0  0  0  0  0  0  0
  1  6  2  0  0  0  0
  1  2  1  0  0  0  0
  1 26  1  0  0  0  0
  2  3  2  0  0  0  0
  2 27  1  0  0  0  0
  3  4  1  0  0  0  0
  3 25  1  0  0  0  0
  4  5  2  0  0  0  0
  4 28  1  0  0  0  0
  5  6  1  0  0  0  0
  5 29  1  0  0  0  0
  6  7  1  0  0  0  0
  7  8  1  0  0  0  0
  7 30  1  0  0  0  0
  7 31  1  0  0  0  0
  8  9  1  0  0  0  0
  8 32  1  0  0  0  0
  9 14  2  0  0  0  0
  9 10  1  0  0  0  0
 10 11  2  0  0  0  0
 11 12  1  0  0  0  0
 11 24  1  0  0  0  0
 12 13  2  0  0  0  0
 12 21  1  0  0  0  0
 13 14  1  0  0  0  0
 13 15  1  0  0  0  0
 15 20  1  0  0  0  0
 15 16  1  0  0  0  0
 16 17  1  0  0  0  0
 16 33  1  0  0  0  0
 16 34  1  0  0  0  0
 17 18  1  0  0  0  0
 17 35  1  0  0  0  0
 17 36  1  0  0  0  0
 18 19  1  0  0  0  0
 18 37  1  0  0  0  0
 18 38  1  0  0  0  0
 19 20  1  0  0  0  0
 19 39  1  0  0  0  0
 19 40  1  0  0  0  0
 20 41  1  0  0  0  0
 20 42  1  0  0  0  0
 21 22  2  0  0  0  0
 21 23  1  0  0  0  0
 24 43  1  0  0  0  0
 24 44  1  0  0  0  0
M  CHG  2  21   1  23  -1
M  END
$$$$
ZINC04305975
  -OEChem-08230709453D

 41 43  0     0  0  0  0  0  0999 V2000
    1.2162    2.7413   -1.0487 C   0  0  0  0  0  0  0  0  0  0  0  0
    2.3949    3.4304   -1.2562 C   0  0  0  0  0  0  0  0  0  0  0  0
    3.5472    3.0489   -0.5915 C   0  0  0  0  0  0  0  0  0  0  0  0
    3.5204    1.9800    0.2870 C   0  0  0  0  0  0  0  0  0  0  0  0
    2.3430    1.2913    0.5029 C   0  0  0  0  0  0  0  0  0  0  0  0
    1.1851    1.6720   -0.1629 C   0  0  0  0  0  0  0  0  0  0  0  0
   -0.0088    0.9763    0.0539 N   0  0  0  0  0  0  0  0  0  0  0  0
   -1.2097    1.6636    0.1143 C   0  0  0  0  0  0  0  0  0  0  0  0
   -1.1972    2.9878    0.0819 N   0  0  0  0  0  0  0  0  0  0  0  0
   -2.3320    3.6814    0.1322 C   0  0  0  0  0  0  0  0  0  0  0  0
   -3.5403    2.9974    0.2313 C   0  0  0  0  0  0  0  0  0  0  0  0
   -3.5129    1.6065    0.2684 C   0  0  0  0  0  0  0  0  0  0  0  0
   -2.3400    0.9798    0.2082 N   0  0  0  0  0  0  0  0  0  0  0  0
   -4.6914    0.8833    0.3671 N   0  0  0  0  0  0  0  0  0  0  0  0
   -4.7872    0.2082    1.6677 C   0  0  0  0  0  0  0  0  0  0  0  0
   -6.1587   -0.4580    1.7983 C   0  0  0  0  0  0  0  0  0  0  0  0
   -6.3398   -1.4691    0.6629 C   0  0  0  0  0  0  0  0  0  0  0  0
   -6.1873   -0.7495   -0.6801 C   0  0  0  0  0  0  0  0  0  0  0  0
   -4.8150   -0.0749   -0.7389 C   0  0  0  0  0  0  0  0  0  0  0  0
   -4.8239    3.7319    0.2953 N   0  3  0  0  0  0  0  0  0  0  0  0
   -5.3237    3.9917    1.3753 O   0  0  0  0  0  0  0  0  0  0  0  0
   -5.3802    4.0766   -0.7319 O   0  5  0  0  0  0  0  0  0  0  0  0
   -2.3106    5.0669    0.0926 N   0  0  0  0  0  0  0  0  0  0  0  0
    5.0286    3.9132   -0.8597 Cl  0  0  0  0  0  0  0  0  0  0  0  0
    0.3183    3.0366   -1.5711 H   0  0  0  0  0  0  0  0  0  0  0  0
    2.4185    4.2652   -1.9410 H   0  0  0  0  0  0  0  0  0  0  0  0
    4.4211    1.6844    0.8045 H   0  0  0  0  0  0  0  0  0  0  0  0
    2.3226    0.4576    1.1892 H   0  0  0  0  0  0  0  0  0  0  0  0
    0.0039    0.0119    0.1581 H   0  0  0  0  0  0  0  0  0  0  0  0
   -4.0069   -0.5492    1.7420 H   0  0  0  0  0  0  0  0  0  0  0  0
   -4.6609    0.9391    2.4664 H   0  0  0  0  0  0  0  0  0  0  0  0
   -6.9390    0.3007    1.7378 H   0  0  0  0  0  0  0  0  0  0  0  0
   -6.2237   -0.9721    2.7572 H   0  0  0  0  0  0  0  0  0  0  0  0
   -7.3325   -1.9147    0.7267 H   0  0  0  0  0  0  0  0  0  0  0  0
   -5.5832   -2.2494    0.7459 H   0  0  0  0  0  0  0  0  0  0  0  0
   -6.9681    0.0046   -0.7795 H   0  0  0  0  0  0  0  0  0  0  0  0
   -6.2728   -1.4719   -1.4918 H   0  0  0  0  0  0  0  0  0  0  0  0
   -4.7089    0.4504   -1.6880 H   0  0  0  0  0  0  0  0  0  0  0  0
   -4.0346   -0.8310   -0.6532 H   0  0  0  0  0  0  0  0  0  0  0  0
   -3.1412    5.5662    0.1339 H   0  0  0  0  0  0  0  0  0  0  0  0
   -1.4650    5.5371    0.0234 H   0  0  0  0  0  0  0  0  0  0  0  0
  1  6  2  0  0  0  0
  1  2  1  0  0  0  0
  1 25  1  0  0  0  0
  2  3  2  0  0  0  0
  2 26  1  0  0  0  0
  3  4  1  0  0  0  0
  3 24  1  0  0  0  0
  4  5  2  0  0  0  0
  4 27  1  0  0  0  0
  5  6  1  0  0  0  0
  5 28  1  0  0  0  0
  6  7  1  0  0  0  0
  7  8  1  0  0  0  0
  7 29  1  0  0  0  0
  8 13  2  0  0  0  0
  8  9  1  0  0  0  0
  9 10  2  0  0  0  0
 10 11  1  0  0  0  0
 10 23  1  0  0  0  0
 11 12  2  0  0  0  0
 11 20  1  0  0  0  0
 12 13  1  0  0  0  0
 12 14  1  0  0  0  0
 14 19  1  0  0  0  0
 14 15  1  0  0  0  0
 15 16  1  0  0  0  0
 15 30  1  0  0  0  0
 15 31  1  0  0  0  0
 16 17  1  0  0  0  0
 16 32  1  0  0  0  0
 16 33  1  0  0  0  0
 17 18  1  0  0  0  0
 17 34  1  0  0  0  0
 17 35  1  0  0  0  0
 18 19  1  0  0  0  0
 18 36  1  0  0  0  0
 18 37  1  0  0  0  0
 19 38  1  0  0  0  0
 19 39  1  0  0  0  0
 20 21  2  0  0  0  0
 20 22  1  0  0  0  0
 23 40  1  0  0  0  0
 23 41  1  0  0  0  0
M  CHG  2  20   1  22  -1
M  END
$$$$
ZINC04305978
  -OEChem-08230709453D

 48 50  0     0  0  0  0  0  0999 V2000
    6.0553    5.4520   -1.8313 C   0  0  0  0  0  0  0  0  0  0  0  0
    4.6665    4.8190   -1.7244 C   0  0  0  0  0  0  0  0  0  0  0  0
    4.7104    3.7267   -0.8041 O   0  0  0  0  0  0  0  0  0  0  0  0
    3.5496    3.0506   -0.5927 C   0  0  0  0  0  0  0  0  0  0  0  0
    3.5219    1.9795    0.2883 C   0  0  0  0  0  0  0  0  0  0  0  0
    2.3437    1.2918    0.5029 C   0  0  0  0  0  0  0  0  0  0  0  0
    1.1865    1.6730   -0.1632 C   0  0  0  0  0  0  0  0  0  0  0  0
    1.2163    2.7420   -1.0490 C   0  0  0  0  0  0  0  0  0  0  0  0
    2.3940    3.4320   -1.2585 C   0  0  0  0  0  0  0  0  0  0  0  0
   -0.0087    0.9762    0.0539 N   0  0  0  0  0  0  0  0  0  0  0  0
   -1.2096    1.6631    0.1144 C   0  0  0  0  0  0  0  0  0  0  0  0
   -1.1974    2.9874    0.0822 N   0  0  0  0  0  0  0  0  0  0  0  0
   -2.3323    3.6808    0.1328 C   0  0  0  0  0  0  0  0  0  0  0  0
   -3.5404    2.9965    0.2319 C   0  0  0  0  0  0  0  0  0  0  0  0
   -3.5128    1.6056    0.2687 C   0  0  0  0  0  0  0  0  0  0  0  0
   -2.3398    0.9792    0.2084 N   0  0  0  0  0  0  0  0  0  0  0  0
   -4.6911    0.8822    0.3674 N   0  0  0  0  0  0  0  0  0  0  0  0
   -4.7867    0.2070    1.6679 C   0  0  0  0  0  0  0  0  0  0  0  0
   -6.1581   -0.4595    1.7986 C   0  0  0  0  0  0  0  0  0  0  0  0
   -6.3391   -1.4706    0.6631 C   0  0  0  0  0  0  0  0  0  0  0  0
   -6.1869   -0.7508   -0.6798 C   0  0  0  0  0  0  0  0  0  0  0  0
   -4.8146   -0.0759   -0.7386 C   0  0  0  0  0  0  0  0  0  0  0  0
   -4.8242    3.7308    0.2961 N   0  3  0  0  0  0  0  0  0  0  0  0
   -5.3239    3.9903    1.3761 O   0  0  0  0  0  0  0  0  0  0  0  0
   -5.3806    4.0755   -0.7311 O   0  5  0  0  0  0  0  0  0  0  0  0
   -2.3111    5.0663    0.0933 N   0  0  0  0  0  0  0  0  0  0  0  0
    6.0218    6.2852   -2.5332 H   0  0  0  0  0  0  0  0  0  0  0  0
    6.3656    5.8147   -0.8514 H   0  0  0  0  0  0  0  0  0  0  0  0
    6.7679    4.7070   -2.1853 H   0  0  0  0  0  0  0  0  0  0  0  0
    4.3562    4.4563   -2.7044 H   0  0  0  0  0  0  0  0  0  0  0  0
    3.9539    5.5640   -1.3704 H   0  0  0  0  0  0  0  0  0  0  0  0
    4.4220    1.6832    0.8063 H   0  0  0  0  0  0  0  0  0  0  0  0
    2.3223    0.4579    1.1889 H   0  0  0  0  0  0  0  0  0  0  0  0
    0.3178    3.0361   -1.5711 H   0  0  0  0  0  0  0  0  0  0  0  0
    2.4164    4.2662   -1.9440 H   0  0  0  0  0  0  0  0  0  0  0  0
    0.0041    0.0118    0.1579 H   0  0  0  0  0  0  0  0  0  0  0  0
   -4.0063   -0.5504    1.7422 H   0  0  0  0  0  0  0  0  0  0  0  0
   -4.6605    0.9378    2.4667 H   0  0  0  0  0  0  0  0  0  0  0  0
   -6.9386    0.2990    1.7383 H   0  0  0  0  0  0  0  0  0  0  0  0
   -6.2230   -0.9737    2.7575 H   0  0  0  0  0  0  0  0  0  0  0  0
   -7.3317   -1.9163    0.7270 H   0  0  0  0  0  0  0  0  0  0  0  0
   -5.5824   -2.2508    0.7460 H   0  0  0  0  0  0  0  0  0  0  0  0
   -6.9678    0.0032   -0.7791 H   0  0  0  0  0  0  0  0  0  0  0  0
   -6.2723   -1.4731   -1.4916 H   0  0  0  0  0  0  0  0  0  0  0  0
   -4.7087    0.4495   -1.6877 H   0  0  0  0  0  0  0  0  0  0  0  0
   -4.0341   -0.8319   -0.6531 H   0  0  0  0  0  0  0  0  0  0  0  0
   -3.1418    5.5654    0.1348 H   0  0  0  0  0  0  0  0  0  0  0  0
   -1.4656    5.5366    0.0241 H   0  0  0  0  0  0  0  0  0  0  0  0
  1  2  1  0  0  0  0
  1 27  1  0  0  0  0
  1 28  1  0  0  0  0
  1 29  1  0  0  0  0
  2  3  1  0  0  0  0
  2 30  1  0  0  0  0
  2 31  1  0  0  0  0
  3  4  1  0  0  0  0
  4  9  2  0  0  0  0
  4  5  1  0  0  0  0
  5  6  2  0  0  0  0
  5 32  1  0  0  0  0
  6  7  1  0  0  0  0
  6 33  1  0  0  0  0
  7  8  2  0  0  0  0
  7 10  1  0  0  0  0
  8  9  1  0  0  0  0
  8 34  1  0  0  0  0
  9 35  1  0  0  0  0
 10 11  1  0  0  0  0
 10 36  1  0  0  0  0
 11 16  2  0  0  0  0
 11 12  1  0  0  0  0
 12 13  2  0  0  0  0
 13 14  1  0  0  0  0
 13 26  1  0  0  0  0
 14 15  2  0  0  0  0
 14 23  1  0  0  0  0
 15 16  1  0  0  0  0
 15 17  1  0  0  0  0
 17 22  1  0  0  0  0
 17 18  1  0  0  0  0
 18 19  1  0  0  0  0
 18 37  1  0  0  0  0
 18 38  1  0  0  0  0
 19 20  1  0  0  0  0
 19 39  1  0  0  0  0
 19 40  1  0  0  0  0
 20 21  1  0  0  0  0
 20 41  1  0  0  0  0
 20 42  1  0  0  0  0
 21 22  1  0  0  0  0
 21 43  1  0  0  0  0
 21 44  1  0  0  0  0
 22 45  1  0  0  0  0
 22 46  1  0  0  0  0
 23 24  2  0  0  0  0
 23 25  1  0  0  0  0
 26 47  1  0  0  0  0
 26 48  1  0  0  0  0
M  CHG  2  23   1  25  -1
M  END
$$$$
ZINC04305981
  -OEChem-08230709453D

 45 47  0     0  0  0  0  0  0999 V2000
    1.1875    1.5232    0.3319 C   0  0  0  0  0  0  0  0  0  0  0  0
    0.6441    1.9826    1.5712 O   0  0  0  0  0  0  0  0  0  0  0  0
   -0.0910    3.1251    1.5368 C   0  0  0  0  0  0  0  0  0  0  0  0
   -0.2800    3.7934    0.3349 C   0  0  0  0  0  0  0  0  0  0  0  0
   -1.0315    4.9523    0.2973 C   0  0  0  0  0  0  0  0  0  0  0  0
   -1.5875    5.4561    1.4574 C   0  0  0  0  0  0  0  0  0  0  0  0
   -1.3973    4.7945    2.6640 C   0  0  0  0  0  0  0  0  0  0  0  0
   -0.6474    3.6269    2.7026 C   0  0  0  0  0  0  0  0  0  0  0  0
   -1.9599    5.3042    3.8381 N   0  0  0  0  0  0  0  0  0  0  0  0
   -2.0831    6.6731    4.0095 C   0  0  0  0  0  0  0  0  0  0  0  0
   -1.5581    7.4862    3.1052 N   0  0  0  0  0  0  0  0  0  0  0  0
   -1.6611    8.8068    3.2344 C   0  0  0  0  0  0  0  0  0  0  0  0
   -2.3215    9.3295    4.3427 C   0  0  0  0  0  0  0  0  0  0  0  0
   -2.8554    8.4440    5.2741 C   0  0  0  0  0  0  0  0  0  0  0  0
   -2.7180    7.1348    5.0761 N   0  0  0  0  0  0  0  0  0  0  0  0
   -3.5218    8.9190    6.3930 N   0  0  0  0  0  0  0  0  0  0  0  0
   -2.8146    8.5457    7.6246 C   0  0  0  0  0  0  0  0  0  0  0  0
   -3.4951    9.2068    8.8255 C   0  0  0  0  0  0  0  0  0  0  0  0
   -4.9548    8.7496    8.8943 C   0  0  0  0  0  0  0  0  0  0  0  0
   -5.6558    9.1071    7.5808 C   0  0  0  0  0  0  0  0  0  0  0  0
   -4.9128    8.4489    6.4160 C   0  0  0  0  0  0  0  0  0  0  0  0
   -2.4532   10.7925    4.5260 N   0  3  0  0  0  0  0  0  0  0  0  0
   -1.5884   11.4123    5.1188 O   0  0  0  0  0  0  0  0  0  0  0  0
   -3.4264   11.3765    4.0839 O   0  5  0  0  0  0  0  0  0  0  0  0
   -1.1130    9.6506    2.2810 N   0  0  0  0  0  0  0  0  0  0  0  0
    1.7503    0.6051    0.5001 H   0  0  0  0  0  0  0  0  0  0  0  0
    1.8497    2.2852   -0.0791 H   0  0  0  0  0  0  0  0  0  0  0  0
    0.3769    1.3290   -0.3705 H   0  0  0  0  0  0  0  0  0  0  0  0
    0.1571    3.4044   -0.5729 H   0  0  0  0  0  0  0  0  0  0  0  0
   -1.1804    5.4680   -0.6398 H   0  0  0  0  0  0  0  0  0  0  0  0
   -2.1707    6.3646    1.4261 H   0  0  0  0  0  0  0  0  0  0  0  0
   -0.4976    3.1107    3.6393 H   0  0  0  0  0  0  0  0  0  0  0  0
   -2.2639    4.6991    4.5326 H   0  0  0  0  0  0  0  0  0  0  0  0
   -2.8399    7.4625    7.7438 H   0  0  0  0  0  0  0  0  0  0  0  0
   -1.7790    8.8802    7.5644 H   0  0  0  0  0  0  0  0  0  0  0  0
   -3.4580   10.2904    8.7137 H   0  0  0  0  0  0  0  0  0  0  0  0
   -2.9794    8.9169    9.7410 H   0  0  0  0  0  0  0  0  0  0  0  0
   -5.4550    9.2515    9.7225 H   0  0  0  0  0  0  0  0  0  0  0  0
   -4.9919    7.6707    9.0451 H   0  0  0  0  0  0  0  0  0  0  0  0
   -5.6528   10.1892    7.4494 H   0  0  0  0  0  0  0  0  0  0  0  0
   -6.6840    8.7461    7.6070 H   0  0  0  0  0  0  0  0  0  0  0  0
   -5.4010    8.7132    5.4780 H   0  0  0  0  0  0  0  0  0  0  0  0
   -4.9282    7.3662    6.5409 H   0  0  0  0  0  0  0  0  0  0  0  0
   -1.1884   10.6122    2.3836 H   0  0  0  0  0  0  0  0  0  0  0  0
   -0.6542    9.2795    1.5111 H   0  0  0  0  0  0  0  0  0  0  0  0
  1  2  1  0  0  0  0
  1 26  1  0  0  0  0
  1 27  1  0  0  0  0
  1 28  1  0  0  0  0
  2  3  1  0  0  0  0
  3  8  2  0  0  0  0
  3  4  1  0  0  0  0
  4  5  2  0  0  0  0
  4 29  1  0  0  0  0
  5  6  1  0  0  0  0
  5 30  1  0  0  0  0
  6  7  2  0  0  0  0
  6 31  1  0  0  0  0
  7  8  1  0  0  0  0
  7  9  1  0  0  0  0
  8 32  1  0  0  0  0
  9 10  1  0  0  0  0
  9 33  1  0  0  0  0
 10 15  2  0  0  0  0
 10 11  1  0  0  0  0
 11 12  2  0  0  0  0
 12 13  1  0  0  0  0
 12 25  1  0  0  0  0
 13 14  2  0  0  0  0
 13 22  1  0  0  0  0
 14 15  1  0  0  0  0
 14 16  1  0  0  0  0
 16 21  1  0  0  0  0
 16 17  1  0  0  0  0
 17 18  1  0  0  0  0
 17 34  1  0  0  0  0
 17 35  1  0  0  0  0
 18 19  1  0  0  0  0
 18 36  1  0  0  0  0
 18 37  1  0  0  0  0
 19 20  1  0  0  0  0
 19 38  1  0  0  0  0
 19 39  1  0  0  0  0
 20 21  1  0  0  0  0
 20 40  1  0  0  0  0
 20 41  1  0  0  0  0
 21 42  1  0  0  0  0
 21 43  1  0  0  0  0
 22 23  2  0  0  0  0
 22 24  1  0  0  0  0
 25 44  1  0  0  0  0
 25 45  1  0  0  0  0
M  CHG  2  22   1  24  -1
M  END
$$$$
ZINC04305996
  -OEChem-08230709453D

 44 46  0     0  0  0  0  0  0999 V2000
    2.0188   -0.1581   -9.8653 C   0  0  0  0  0  0  0  0  0  0  0  0
    2.4111   -1.0491   -8.8400 C   0  0  0  0  0  0  0  0  0  0  0  0
    1.2849   -1.5911   -8.3427 C   0  0  0  0  0  0  0  0  0  0  0  0
    0.2376   -1.0828   -9.0124 O   0  0  0  0  0  0  0  0  0  0  0  0
    0.6763   -0.2089   -9.9331 C   0  0  0  0  0  0  0  0  0  0  0  0
    1.2112   -2.6019   -7.2274 C   0  0  0  0  0  0  0  0  0  0  0  0
    1.1020   -1.9053   -5.9433 N   0  0  0  0  0  0  0  0  0  0  0  0
    1.0199   -2.6304   -4.7675 C   0  0  0  0  0  0  0  0  0  0  0  0
    1.0420   -3.9537   -4.8230 N   0  0  0  0  0  0  0  0  0  0  0  0
    0.9650   -4.6838   -3.7128 C   0  0  0  0  0  0  0  0  0  0  0  0
    0.8661   -4.0387   -2.4833 C   0  0  0  0  0  0  0  0  0  0  0  0
    0.8407   -2.6475   -2.4655 C   0  0  0  0  0  0  0  0  0  0  0  0
    0.9217   -1.9832   -3.6164 N   0  0  0  0  0  0  0  0  0  0  0  0
    0.7381   -1.9623   -1.2648 N   0  0  0  0  0  0  0  0  0  0  0  0
    0.7182   -0.4975   -1.2568 C   0  0  0  0  0  0  0  0  0  0  0  0
    0.0021   -0.0041    0.0020 C   0  0  0  0  0  0  0  0  0  0  0  0
   -0.0187    1.5258    0.0104 C   0  0  0  0  0  0  0  0  0  0  0  0
    1.4167    2.0553   -0.0004 C   0  0  0  0  0  0  0  0  0  0  0  0
    2.1328    1.5619   -1.2592 C   0  0  0  0  0  0  0  0  0  0  0  0
    2.1536    0.0321   -1.2676 C   0  0  0  0  0  0  0  0  0  0  0  0
    0.7845   -4.8142   -1.2251 N   0  3  0  0  0  0  0  0  0  0  0  0
   -0.3007   -5.1515   -0.7869 O   0  0  0  0  0  0  0  0  0  0  0  0
    1.8026   -5.1150   -0.6280 O   0  5  0  0  0  0  0  0  0  0  0  0
    0.9888   -6.0681   -3.7796 N   0  0  0  0  0  0  0  0  0  0  0  0
    2.6717    0.4473  -10.4765 H   0  0  0  0  0  0  0  0  0  0  0  0
    3.4211   -1.2547   -8.5176 H   0  0  0  0  0  0  0  0  0  0  0  0
    0.0567    0.3538  -10.6157 H   0  0  0  0  0  0  0  0  0  0  0  0
    2.1124   -3.2151   -7.2327 H   0  0  0  0  0  0  0  0  0  0  0  0
    0.3380   -3.2383   -7.3710 H   0  0  0  0  0  0  0  0  0  0  0  0
    1.0873   -0.9358   -5.9172 H   0  0  0  0  0  0  0  0  0  0  0  0
    0.6794   -2.4528   -0.4300 H   0  0  0  0  0  0  0  0  0  0  0  0
    0.1910   -0.1364   -2.1398 H   0  0  0  0  0  0  0  0  0  0  0  0
    0.5293   -0.3651    0.8851 H   0  0  0  0  0  0  0  0  0  0  0  0
   -1.0205   -0.3814    0.0098 H   0  0  0  0  0  0  0  0  0  0  0  0
   -0.5459    1.8868   -0.8726 H   0  0  0  0  0  0  0  0  0  0  0  0
   -0.5289    1.8773    0.9072 H   0  0  0  0  0  0  0  0  0  0  0  0
    1.4019    3.1452    0.0056 H   0  0  0  0  0  0  0  0  0  0  0  0
    1.9439    1.6943    0.8826 H   0  0  0  0  0  0  0  0  0  0  0  0
    3.1554    1.9392   -1.2670 H   0  0  0  0  0  0  0  0  0  0  0  0
    1.6057    1.9230   -2.1423 H   0  0  0  0  0  0  0  0  0  0  0  0
    2.6808   -0.3290   -0.3846 H   0  0  0  0  0  0  0  0  0  0  0  0
    2.6638   -0.3194   -2.1644 H   0  0  0  0  0  0  0  0  0  0  0  0
    1.0620   -6.5110   -4.6395 H   0  0  0  0  0  0  0  0  0  0  0  0
    0.9324   -6.5940   -2.9665 H   0  0  0  0  0  0  0  0  0  0  0  0
  1  5  2  0  0  0  0
  1  2  1  0  0  0  0
  1 25  1  0  0  0  0
  2  3  2  0  0  0  0
  2 26  1  0  0  0  0
  3  4  1  0  0  0  0
  3  6  1  0  0  0  0
  4  5  1  0  0  0  0
  5 27  1  0  0  0  0
  6  7  1  0  0  0  0
  6 28  1  0  0  0  0
  6 29  1  0  0  0  0
  7  8  1  0  0  0  0
  7 30  1  0  0  0  0
  8 13  2  0  0  0  0
  8  9  1  0  0  0  0
  9 10  2  0  0  0  0
 10 11  1  0  0  0  0
 10 24  1  0  0  0  0
 11 12  2  0  0  0  0
 11 21  1  0  0  0  0
 12 13  1  0  0  0  0
 12 14  1  0  0  0  0
 14 15  1  0  0  0  0
 14 31  1  0  0  0  0
 15 20  1  0  0  0  0
 15 16  1  0  0  0  0
 15 32  1  0  0  0  0
 16 17  1  0  0  0  0
 16 33  1  0  0  0  0
 16 34  1  0  0  0  0
 17 18  1  0  0  0  0
 17 35  1  0  0  0  0
 17 36  1  0  0  0  0
 18 19  1  0  0  0  0
 18 37  1  0  0  0  0
 18 38  1  0  0  0  0
 19 20  1  0  0  0  0
 19 39  1  0  0  0  0
 19 40  1  0  0  0  0
 20 41  1  0  0  0  0
 20 42  1  0  0  0  0
 21 22  2  0  0  0  0
 21 23  1  0  0  0  0
 24 43  1  0  0  0  0
 24 44  1  0  0  0  0
M  CHG  2  21   1  23  -1
M  END
$$$$
ZINC04306111
  -OEChem-08230709453D

 48 50  0     0  0  0  0  0  0999 V2000
   -8.3174    0.4365    2.4981 C   0  0  0  0  0  0  0  0  0  0  0  0
   -6.9874    1.1853    2.3911 C   0  0  0  0  0  0  0  0  0  0  0  0
   -7.0225    2.1199    1.1788 C   0  0  0  0  0  0  0  0  0  0  0  0
   -5.6688    2.8204    1.0415 C   0  0  0  0  0  0  0  0  0  0  0  0
   -4.6107    1.8155    0.8769 N   0  0  0  0  0  0  0  0  0  0  0  0
   -4.5267    0.9359    2.0499 C   0  0  0  0  0  0  0  0  0  0  0  0
   -5.8463    0.1792    2.2172 C   0  0  0  0  0  0  0  0  0  0  0  0
   -3.3912    2.4169    0.6197 C   0  0  0  0  0  0  0  0  0  0  0  0
   -3.3244    3.7383    0.5561 N   0  0  0  0  0  0  0  0  0  0  0  0
   -2.1689    4.3514    0.3103 C   0  0  0  0  0  0  0  0  0  0  0  0
   -1.0227    3.5851    0.1192 C   0  0  0  0  0  0  0  0  0  0  0  0
   -1.1321    2.1998    0.1934 C   0  0  0  0  0  0  0  0  0  0  0  0
   -2.3227    1.6561    0.4377 N   0  0  0  0  0  0  0  0  0  0  0  0
   -0.0169    1.3960    0.0097 N   0  0  0  0  0  0  0  0  0  0  0  0
   -0.1566    0.0033   -0.0304 C   0  0  0  0  0  0  0  0  0  0  0  0
    0.8584   -0.8109    0.4544 C   0  0  0  0  0  0  0  0  0  0  0  0
    0.7175   -2.1843    0.4193 C   0  0  0  0  0  0  0  0  0  0  0  0
   -0.4328   -2.7505   -0.1100 C   0  0  0  0  0  0  0  0  0  0  0  0
   -1.4449   -1.9380   -0.5993 C   0  0  0  0  0  0  0  0  0  0  0  0
   -1.3079   -0.5644   -0.5602 C   0  0  0  0  0  0  0  0  0  0  0  0
   -0.5681   -4.1031   -0.1498 O   0  0  0  0  0  0  0  0  0  0  0  0
    0.5130   -4.8788    0.3712 C   0  0  0  0  0  0  0  0  0  0  0  0
    0.2818    4.2285   -0.1560 N   0  3  0  0  0  0  0  0  0  0  0  0
    0.6197    4.4534   -1.3044 O   0  0  0  0  0  0  0  0  0  0  0  0
    1.0172    4.5329    0.7659 O   0  5  0  0  0  0  0  0  0  0  0  0
   -2.1078    5.7347    0.2450 N   0  0  0  0  0  0  0  0  0  0  0  0
   -8.4784   -0.1491    1.5929 H   0  0  0  0  0  0  0  0  0  0  0  0
   -8.2915   -0.2286    3.3613 H   0  0  0  0  0  0  0  0  0  0  0  0
   -9.1297    1.1536    2.6162 H   0  0  0  0  0  0  0  0  0  0  0  0
   -6.8244    1.7694    3.2968 H   0  0  0  0  0  0  0  0  0  0  0  0
   -7.8056    2.8654    1.3165 H   0  0  0  0  0  0  0  0  0  0  0  0
   -7.2253    1.5403    0.2782 H   0  0  0  0  0  0  0  0  0  0  0  0
   -5.4729    3.4107    1.9366 H   0  0  0  0  0  0  0  0  0  0  0  0
   -5.6858    3.4757    0.1707 H   0  0  0  0  0  0  0  0  0  0  0  0
   -3.7141    0.2227    1.9115 H   0  0  0  0  0  0  0  0  0  0  0  0
   -4.3362    1.5351    2.9402 H   0  0  0  0  0  0  0  0  0  0  0  0
   -5.7891   -0.4619    3.0969 H   0  0  0  0  0  0  0  0  0  0  0  0
   -6.0310   -0.4314    1.3334 H   0  0  0  0  0  0  0  0  0  0  0  0
    0.8593    1.7987   -0.0949 H   0  0  0  0  0  0  0  0  0  0  0  0
    1.7561   -0.3703    0.8622 H   0  0  0  0  0  0  0  0  0  0  0  0
    1.5051   -2.8176    0.8001 H   0  0  0  0  0  0  0  0  0  0  0  0
   -2.3402   -2.3797   -1.0113 H   0  0  0  0  0  0  0  0  0  0  0  0
   -2.0960    0.0682   -0.9412 H   0  0  0  0  0  0  0  0  0  0  0  0
    0.6653   -4.6305    1.4216 H   0  0  0  0  0  0  0  0  0  0  0  0
    0.2769   -5.9390    0.2791 H   0  0  0  0  0  0  0  0  0  0  0  0
    1.4214   -4.6588   -0.1895 H   0  0  0  0  0  0  0  0  0  0  0  0
   -1.2624    6.1749    0.0651 H   0  0  0  0  0  0  0  0  0  0  0  0
   -2.9105    6.2625    0.3792 H   0  0  0  0  0  0  0  0  0  0  0  0
  1  2  1  0  0  0  0
  1 27  1  0  0  0  0
  1 28  1  0  0  0  0
  1 29  1  0  0  0  0
  2  7  1  0  0  0  0
  2  3  1  0  0  0  0
  2 30  1  0  0  0  0
  3  4  1  0  0  0  0
  3 31  1  0  0  0  0
  3 32  1  0  0  0  0
  4  5  1  0  0  0  0
  4 33  1  0  0  0  0
  4 34  1  0  0  0  0
  5  6  1  0  0  0  0
  5  8  1  0  0  0  0
  6  7  1  0  0  0  0
  6 35  1  0  0  0  0
  6 36  1  0  0  0  0
  7 37  1  0  0  0  0
  7 38  1  0  0  0  0
  8 13  2  0  0  0  0
  8  9  1  0  0  0  0
  9 10  2  0  0  0  0
 10 11  1  0  0  0  0
 10 26  1  0  0  0  0
 11 12  2  0  0  0  0
 11 23  1  0  0  0  0
 12 13  1  0  0  0  0
 12 14  1  0  0  0  0
 14 15  1  0  0  0  0
 14 39  1  0  0  0  0
 15 20  2  0  0  0  0
 15 16  1  0  0  0  0
 16 17  2  0  0  0  0
 16 40  1  0  0  0  0
 17 18  1  0  0  0  0
 17 41  1  0  0  0  0
 18 19  2  0  0  0  0
 18 21  1  0  0  0  0
 19 20  1  0  0  0  0
 19 42  1  0  0  0  0
 20 43  1  0  0  0  0
 21 22  1  0  0  0  0
 22 44  1  0  0  0  0
 22 45  1  0  0  0  0
 22 46  1  0  0  0  0
 23 24  2  0  0  0  0
 23 25  1  0  0  0  0
 26 47  1  0  0  0  0
 26 48  1  0  0  0  0
M  CHG  2  23   1  25  -1
M  END
$$$$
ZINC04306121
  -OEChem-08230709453D

 48 50  0     0  0  0  0  0  0999 V2000
    0.0410   -4.6503    1.8051 C   0  0  0  0  0  0  0  0  0  0  0  0
    0.8930   -3.9897    0.8671 O   0  0  0  0  0  0  0  0  0  0  0  0
    0.6690   -2.6652    0.6560 C   0  0  0  0  0  0  0  0  0  0  0  0
    1.4595   -1.9629   -0.2417 C   0  0  0  0  0  0  0  0  0  0  0  0
    1.2330   -0.6177   -0.4564 C   0  0  0  0  0  0  0  0  0  0  0  0
    0.2135    0.0320    0.2268 C   0  0  0  0  0  0  0  0  0  0  0  0
   -0.5738   -0.6704    1.1296 C   0  0  0  0  0  0  0  0  0  0  0  0
   -0.3497   -2.0169    1.3388 C   0  0  0  0  0  0  0  0  0  0  0  0
   -0.0169    1.3960    0.0097 N   0  0  0  0  0  0  0  0  0  0  0  0
   -1.3109    1.8940    0.0395 C   0  0  0  0  0  0  0  0  0  0  0  0
   -1.5419    3.2634   -0.0554 C   0  0  0  0  0  0  0  0  0  0  0  0
   -2.8570    3.7172   -0.0209 C   0  0  0  0  0  0  0  0  0  0  0  0
   -3.8446    2.8328    0.1009 N   0  0  0  0  0  0  0  0  0  0  0  0
   -3.5874    1.5367    0.1887 C   0  0  0  0  0  0  0  0  0  0  0  0
   -2.3489    1.0684    0.1538 N   0  0  0  0  0  0  0  0  0  0  0  0
   -4.6406    0.6478    0.3143 N   0  0  0  0  0  0  0  0  0  0  0  0
   -4.5425   -0.4359   -0.6890 C   0  0  0  0  0  0  0  0  0  0  0  0
   -5.7933   -1.2675   -0.7739 C   0  0  0  0  0  0  0  0  0  0  0  0
   -6.6885   -0.6928   -1.8917 C   0  0  0  0  0  0  0  0  0  0  0  0
   -7.4131    0.4973   -1.4599 C   0  0  0  0  0  0  0  0  0  0  0  0
   -6.4625    1.6430   -1.0538 C   0  0  0  0  0  0  0  0  0  0  0  0
   -5.9375    1.3606    0.3275 C   0  0  0  0  0  0  0  0  0  0  0  0
   -3.1350    5.0722   -0.1127 N   0  0  0  0  0  0  0  0  0  0  0  0
   -0.4154    4.2144   -0.1893 N   0  3  0  0  0  0  0  0  0  0  0  0
   -0.0075    4.5235   -1.2945 O   0  0  0  0  0  0  0  0  0  0  0  0
    0.1035    4.6878    0.8058 O   0  5  0  0  0  0  0  0  0  0  0  0
    0.1403   -4.1772    2.7820 H   0  0  0  0  0  0  0  0  0  0  0  0
   -0.9936   -4.5781    1.4699 H   0  0  0  0  0  0  0  0  0  0  0  0
    0.3266   -5.6997    1.8790 H   0  0  0  0  0  0  0  0  0  0  0  0
    2.2527   -2.4683   -0.7727 H   0  0  0  0  0  0  0  0  0  0  0  0
    1.8484   -0.0711   -1.1556 H   0  0  0  0  0  0  0  0  0  0  0  0
   -1.3641   -0.1649    1.6646 H   0  0  0  0  0  0  0  0  0  0  0  0
   -0.9650   -2.5645    2.0374 H   0  0  0  0  0  0  0  0  0  0  0  0
    0.7282    1.9918   -0.1655 H   0  0  0  0  0  0  0  0  0  0  0  0
   -4.3474    0.0062   -1.6660 H   0  0  0  0  0  0  0  0  0  0  0  0
   -3.7067   -1.0841   -0.4256 H   0  0  0  0  0  0  0  0  0  0  0  0
   -6.3245   -1.2283    0.1771 H   0  0  0  0  0  0  0  0  0  0  0  0
   -5.5318   -2.2994   -1.0083 H   0  0  0  0  0  0  0  0  0  0  0  0
   -7.4072   -1.4538   -2.1957 H   0  0  0  0  0  0  0  0  0  0  0  0
   -6.0644   -0.4360   -2.7477 H   0  0  0  0  0  0  0  0  0  0  0  0
   -8.0408    0.2393   -0.6070 H   0  0  0  0  0  0  0  0  0  0  0  0
   -8.0494    0.8383   -2.2767 H   0  0  0  0  0  0  0  0  0  0  0  0
   -7.0067    2.5874   -1.0528 H   0  0  0  0  0  0  0  0  0  0  0  0
   -5.6315    1.6999   -1.7569 H   0  0  0  0  0  0  0  0  0  0  0  0
   -6.6670    0.7532    0.8633 H   0  0  0  0  0  0  0  0  0  0  0  0
   -5.8139    2.3055    0.8565 H   0  0  0  0  0  0  0  0  0  0  0  0
   -2.4105    5.7110   -0.2016 H   0  0  0  0  0  0  0  0  0  0  0  0
   -4.0540    5.3815   -0.0880 H   0  0  0  0  0  0  0  0  0  0  0  0
  1  2  1  0  0  0  0
  1 27  1  0  0  0  0
  1 28  1  0  0  0  0
  1 29  1  0  0  0  0
  2  3  1  0  0  0  0
  3  8  2  0  0  0  0
  3  4  1  0  0  0  0
  4  5  2  0  0  0  0
  4 30  1  0  0  0  0
  5  6  1  0  0  0  0
  5 31  1  0  0  0  0
  6  7  2  0  0  0  0
  6  9  1  0  0  0  0
  7  8  1  0  0  0  0
  7 32  1  0  0  0  0
  8 33  1  0  0  0  0
  9 10  1  0  0  0  0
  9 34  1  0  0  0  0
 10 15  2  0  0  0  0
 10 11  1  0  0  0  0
 11 12  2  0  0  0  0
 11 24  1  0  0  0  0
 12 13  1  0  0  0  0
 12 23  1  0  0  0  0
 13 14  2  0  0  0  0
 14 15  1  0  0  0  0
 14 16  1  0  0  0  0
 16 22  1  0  0  0  0
 16 17  1  0  0  0  0
 17 18  1  0  0  0  0
 17 35  1  0  0  0  0
 17 36  1  0  0  0  0
 18 19  1  0  0  0  0
 18 37  1  0  0  0  0
 18 38  1  0  0  0  0
 19 20  1  0  0  0  0
 19 39  1  0  0  0  0
 19 40  1  0  0  0  0
 20 21  1  0  0  0  0
 20 41  1  0  0  0  0
 20 42  1  0  0  0  0
 21 22  1  0  0  0  0
 21 43  1  0  0  0  0
 21 44  1  0  0  0  0
 22 45  1  0  0  0  0
 22 46  1  0  0  0  0
 23 47  1  0  0  0  0
 23 48  1  0  0  0  0
 24 25  2  0  0  0  0
 24 26  1  0  0  0  0
M  CHG  2  24   1  26  -1
M  END
$$$$
ZINC04306131
  -OEChem-08230709453D

 46 48  0     0  0  0  0  0  0999 V2000
   -1.2058   12.0418    1.9575 C   0  0  0  0  0  0  0  0  0  0  0  0
   -1.7501   11.2512    0.7661 C   0  0  0  0  0  0  0  0  0  0  0  0
   -0.9462   10.0880    0.5590 O   0  0  0  0  0  0  0  0  0  0  0  0
   -1.2971    9.2701   -0.4691 C   0  0  0  0  0  0  0  0  0  0  0  0
   -0.5594    8.1238   -0.7258 C   0  0  0  0  0  0  0  0  0  0  0  0
   -0.9148    7.2928   -1.7700 C   0  0  0  0  0  0  0  0  0  0  0  0
   -2.0114    7.6048   -2.5628 C   0  0  0  0  0  0  0  0  0  0  0  0
   -2.7465    8.7551   -2.3081 C   0  0  0  0  0  0  0  0  0  0  0  0
   -2.3924    9.5827   -1.2609 C   0  0  0  0  0  0  0  0  0  0  0  0
   -2.3722    6.7631   -3.6220 N   0  0  0  0  0  0  0  0  0  0  0  0
   -2.2301    5.3893   -3.4953 C   0  0  0  0  0  0  0  0  0  0  0  0
   -2.4724    4.5522   -4.5808 C   0  0  0  0  0  0  0  0  0  0  0  0
   -2.3167    3.1804   -4.4069 C   0  0  0  0  0  0  0  0  0  0  0  0
   -1.9386    2.7168   -3.2176 N   0  0  0  0  0  0  0  0  0  0  0  0
   -1.7214    3.5428   -2.2054 C   0  0  0  0  0  0  0  0  0  0  0  0
   -1.8597    4.8538   -2.3343 N   0  0  0  0  0  0  0  0  0  0  0  0
   -1.3343    3.0231   -0.9827 N   0  0  0  0  0  0  0  0  0  0  0  0
   -1.2369    1.5573   -1.0403 C   0  0  0  0  0  0  0  0  0  0  0  0
   -0.7496    1.0301    0.3119 C   0  0  0  0  0  0  0  0  0  0  0  0
   -1.6390    1.4735    1.3403 O   0  0  0  0  0  0  0  0  0  0  0  0
   -1.7581    2.8963    1.4244 C   0  0  0  0  0  0  0  0  0  0  0  0
   -2.2556    3.4424    0.0835 C   0  0  0  0  0  0  0  0  0  0  0  0
   -2.5470    2.3084   -5.4596 N   0  0  0  0  0  0  0  0  0  0  0  0
   -2.8865    5.1081   -5.8888 N   0  3  0  0  0  0  0  0  0  0  0  0
   -2.0448    5.4157   -6.7137 O   0  0  0  0  0  0  0  0  0  0  0  0
   -4.0688    5.2579   -6.1401 O   0  5  0  0  0  0  0  0  0  0  0  0
   -1.2328   11.4177    2.8507 H   0  0  0  0  0  0  0  0  0  0  0  0
   -0.1777   12.3421    1.7551 H   0  0  0  0  0  0  0  0  0  0  0  0
   -1.8190   12.9290    2.1155 H   0  0  0  0  0  0  0  0  0  0  0  0
   -1.7231   11.8753   -0.1270 H   0  0  0  0  0  0  0  0  0  0  0  0
   -2.7782   10.9509    0.9686 H   0  0  0  0  0  0  0  0  0  0  0  0
    0.2934    7.8813   -0.1091 H   0  0  0  0  0  0  0  0  0  0  0  0
   -0.3403    6.4004   -1.9697 H   0  0  0  0  0  0  0  0  0  0  0  0
   -3.5971    9.0006   -2.9268 H   0  0  0  0  0  0  0  0  0  0  0  0
   -2.9662   10.4754   -1.0603 H   0  0  0  0  0  0  0  0  0  0  0  0
   -2.7215    7.1408   -4.4443 H   0  0  0  0  0  0  0  0  0  0  0  0
   -0.5305    1.2698   -1.8191 H   0  0  0  0  0  0  0  0  0  0  0  0
   -2.2170    1.1359   -1.2635 H   0  0  0  0  0  0  0  0  0  0  0  0
   -0.7304   -0.0596    0.2922 H   0  0  0  0  0  0  0  0  0  0  0  0
    0.2533    1.4083    0.5100 H   0  0  0  0  0  0  0  0  0  0  0  0
   -0.7848    3.3293    1.6553 H   0  0  0  0  0  0  0  0  0  0  0  0
   -2.4679    3.1570    2.2095 H   0  0  0  0  0  0  0  0  0  0  0  0
   -2.2928    4.5310    0.1251 H   0  0  0  0  0  0  0  0  0  0  0  0
   -3.2520    3.0511   -0.1218 H   0  0  0  0  0  0  0  0  0  0  0  0
   -2.8187    2.6534   -6.3246 H   0  0  0  0  0  0  0  0  0  0  0  0
   -2.4365    1.3533   -5.3314 H   0  0  0  0  0  0  0  0  0  0  0  0
  1  2  1  0  0  0  0
  1 27  1  0  0  0  0
  1 28  1  0  0  0  0
  1 29  1  0  0  0  0
  2  3  1  0  0  0  0
  2 30  1  0  0  0  0
  2 31  1  0  0  0  0
  3  4  1  0  0  0  0
  4  9  2  0  0  0  0
  4  5  1  0  0  0  0
  5  6  2  0  0  0  0
  5 32  1  0  0  0  0
  6  7  1  0  0  0  0
  6 33  1  0  0  0  0
  7  8  2  0  0  0  0
  7 10  1  0  0  0  0
  8  9  1  0  0  0  0
  8 34  1  0  0  0  0
  9 35  1  0  0  0  0
 10 11  1  0  0  0  0
 10 36  1  0  0  0  0
 11 16  2  0  0  0  0
 11 12  1  0  0  0  0
 12 13  2  0  0  0  0
 12 24  1  0  0  0  0
 13 14  1  0  0  0  0
 13 23  1  0  0  0  0
 14 15  2  0  0  0  0
 15 16  1  0  0  0  0
 15 17  1  0  0  0  0
 17 22  1  0  0  0  0
 17 18  1  0  0  0  0
 18 19  1  0  0  0  0
 18 37  1  0  0  0  0
 18 38  1  0  0  0  0
 19 20  1  0  0  0  0
 19 39  1  0  0  0  0
 19 40  1  0  0  0  0
 20 21  1  0  0  0  0
 21 22  1  0  0  0  0
 21 41  1  0  0  0  0
 21 42  1  0  0  0  0
 22 43  1  0  0  0  0
 22 44  1  0  0  0  0
 23 45  1  0  0  0  0
 23 46  1  0  0  0  0
 24 25  2  0  0  0  0
 24 26  1  0  0  0  0
M  CHG  2  24   1  26  -1
M  END
$$$$
ZINC04306149
  -OEChem-08230709453D

 45 47  0     1  0  0  0  0  0999 V2000
    3.3702   -4.0313   -2.6179 C   0  0  0  0  0  0  0  0  0  0  0  0
    3.5594   -2.6710   -3.2923 C   0  0  2  0  0  0  0  0  0  0  0  0
    4.3640   -2.1279   -2.7967 H   0  0  0  0  0  0  0  0  0  0  0  0
    2.2609   -1.8661   -3.1926 C   0  0  0  0  0  0  0  0  0  0  0  0
    2.4238   -0.5924   -3.9086 N   0  0  0  0  0  0  0  0  0  0  0  0
    2.7640   -0.8277   -5.3193 C   0  0  0  0  0  0  0  0  0  0  0  0
    4.0574   -1.6431   -5.3977 C   0  0  1  0  0  0  0  0  0  0  0  0
    4.8762   -1.0694   -4.9635 H   0  0  0  0  0  0  0  0  0  0  0  0
    3.8907   -2.8631   -4.6702 O   0  0  0  0  0  0  0  0  0  0  0  0
    4.3744   -1.9589   -6.8608 C   0  0  0  0  0  0  0  0  0  0  0  0
    1.2870    0.1886   -3.7962 C   0  0  0  0  0  0  0  0  0  0  0  0
    0.6788    0.6045   -4.8969 N   0  0  0  0  0  0  0  0  0  0  0  0
   -0.4167    1.3572   -4.8274 C   0  0  0  0  0  0  0  0  0  0  0  0
   -0.9243    1.7008   -3.5777 C   0  0  0  0  0  0  0  0  0  0  0  0
   -0.2552    1.2495   -2.4441 C   0  0  0  0  0  0  0  0  0  0  0  0
    0.8354    0.5002   -2.5909 N   0  0  0  0  0  0  0  0  0  0  0  0
   -0.7213    1.5711   -1.1789 N   0  0  0  0  0  0  0  0  0  0  0  0
   -0.0127    1.0858    0.0080 C   0  0  0  0  0  0  0  0  0  0  0  0
   -0.7181    1.5718    1.2479 C   0  0  0  0  0  0  0  0  0  0  0  0
   -1.7041    0.9261    1.8962 C   0  0  0  0  0  0  0  0  0  0  0  0
   -2.0700    1.7358    2.9959 C   0  0  0  0  0  0  0  0  0  0  0  0
   -1.2858    2.8278    2.9539 C   0  0  0  0  0  0  0  0  0  0  0  0
   -0.4649    2.7204    1.8963 O   0  0  0  0  0  0  0  0  0  0  0  0
   -2.1439    2.5310   -3.4573 N   0  3  0  0  0  0  0  0  0  0  0  0
   -2.0523    3.7447   -3.4109 O   0  0  0  0  0  0  0  0  0  0  0  0
   -3.2391    2.0005   -3.4048 O   0  5  0  0  0  0  0  0  0  0  0  0
   -1.0471    1.7883   -5.9842 N   0  0  0  0  0  0  0  0  0  0  0  0
    4.2938   -4.6054   -2.6926 H   0  0  0  0  0  0  0  0  0  0  0  0
    3.1177   -3.8843   -1.5678 H   0  0  0  0  0  0  0  0  0  0  0  0
    2.5645   -4.5733   -3.1129 H   0  0  0  0  0  0  0  0  0  0  0  0
    2.0348   -1.6683   -2.1448 H   0  0  0  0  0  0  0  0  0  0  0  0
    1.4454   -2.4338   -3.6407 H   0  0  0  0  0  0  0  0  0  0  0  0
    1.9565   -1.3788   -5.8014 H   0  0  0  0  0  0  0  0  0  0  0  0
    2.9043    0.1281   -5.8242 H   0  0  0  0  0  0  0  0  0  0  0  0
    4.4977   -1.0284   -7.4149 H   0  0  0  0  0  0  0  0  0  0  0  0
    5.2953   -2.5394   -6.9159 H   0  0  0  0  0  0  0  0  0  0  0  0
    3.5560   -2.5339   -7.2939 H   0  0  0  0  0  0  0  0  0  0  0  0
   -1.5165    2.1175   -1.0793 H   0  0  0  0  0  0  0  0  0  0  0  0
    0.0021   -0.0041    0.0020 H   0  0  0  0  0  0  0  0  0  0  0  0
    1.0099    1.4631    0.0003 H   0  0  0  0  0  0  0  0  0  0  0  0
   -2.1341   -0.0275    1.6278 H   0  0  0  0  0  0  0  0  0  0  0  0
   -2.8331    1.5192    3.7289 H   0  0  0  0  0  0  0  0  0  0  0  0
   -1.3087    3.6493    3.6547 H   0  0  0  0  0  0  0  0  0  0  0  0
   -0.6902    1.5417   -6.8517 H   0  0  0  0  0  0  0  0  0  0  0  0
   -1.8452    2.3366   -5.9261 H   0  0  0  0  0  0  0  0  0  0  0  0
  1  2  1  0  0  0  0
  1 28  1  0  0  0  0
  1 29  1  0  0  0  0
  1 30  1  0  0  0  0
  2  3  1  0  0  0  0
  2  9  1  0  0  0  0
  2  4  1  0  0  0  0
  4  5  1  0  0  0  0
  4 31  1  0  0  0  0
  4 32  1  0  0  0  0
  5  6  1  0  0  0  0
  5 11  1  0  0  0  0
  6  7  1  0  0  0  0
  6 33  1  0  0  0  0
  6 34  1  0  0  0  0
  7  8  1  0  0  0  0
  7  9  1  0  0  0  0
  7 10  1  0  0  0  0
 10 35  1  0  0  0  0
 10 36  1  0  0  0  0
 10 37  1  0  0  0  0
 11 16  2  0  0  0  0
 11 12  1  0  0  0  0
 12 13  2  0  0  0  0
 13 14  1  0  0  0  0
 13 27  1  0  0  0  0
 14 15  2  0  0  0  0
 14 24  1  0  0  0  0
 15 16  1  0  0  0  0
 15 17  1  0  0  0  0
 17 18  1  0  0  0  0
 17 38  1  0  0  0  0
 18 19  1  0  0  0  0
 18 39  1  0  0  0  0
 18 40  1  0  0  0  0
 19 23  1  0  0  0  0
 19 20  2  0  0  0  0
 20 21  1  0  0  0  0
 20 41  1  0  0  0  0
 21 22  2  0  0  0  0
 21 42  1  0  0  0  0
 22 23  1  0  0  0  0
 22 43  1  0  0  0  0
 24 25  2  0  0  0  0
 24 26  1  0  0  0  0
 27 44  1  0  0  0  0
 27 45  1  0  0  0  0
M  CHG  2  24   1  26  -1
M  END
$$$$
ZINC04306201
  -OEChem-08230709453D

 45 47  0     0  0  0  0  0  0999 V2000
    5.9975    5.4996   -1.9167 C   0  0  0  0  0  0  0  0  0  0  0  0
    4.6142    4.8569   -1.7965 C   0  0  0  0  0  0  0  0  0  0  0  0
    4.6782    3.7547   -0.8893 O   0  0  0  0  0  0  0  0  0  0  0  0
    3.5248    3.0692   -0.6683 C   0  0  0  0  0  0  0  0  0  0  0  0
    3.5165    1.9883    0.2010 C   0  0  0  0  0  0  0  0  0  0  0  0
    2.3458    1.2910    0.4252 C   0  0  0  0  0  0  0  0  0  0  0  0
    1.1766    1.6724   -0.2195 C   0  0  0  0  0  0  0  0  0  0  0  0
    1.1869    2.7513   -1.0936 C   0  0  0  0  0  0  0  0  0  0  0  0
    2.3572    3.4508   -1.3127 C   0  0  0  0  0  0  0  0  0  0  0  0
   -0.0111    0.9658    0.0074 N   0  0  0  0  0  0  0  0  0  0  0  0
   -1.2143    1.6452    0.0984 C   0  0  0  0  0  0  0  0  0  0  0  0
   -1.2101    2.9698    0.0799 N   0  0  0  0  0  0  0  0  0  0  0  0
   -2.3472    3.6562    0.1649 C   0  0  0  0  0  0  0  0  0  0  0  0
   -3.5499    2.9638    0.2743 C   0  0  0  0  0  0  0  0  0  0  0  0
   -3.5143    1.5727    0.2904 C   0  0  0  0  0  0  0  0  0  0  0  0
   -2.3396    0.9536    0.1963 N   0  0  0  0  0  0  0  0  0  0  0  0
   -4.6870    0.8414    0.3978 N   0  0  0  0  0  0  0  0  0  0  0  0
   -5.5753    1.0857   -0.7673 C   0  0  0  0  0  0  0  0  0  0  0  0
   -6.5199   -0.1424   -0.7565 C   0  0  0  0  0  0  0  0  0  0  0  0
   -5.5833   -1.2952   -0.3279 C   0  0  0  0  0  0  0  0  0  0  0  0
   -4.4080   -0.6111    0.3946 C   0  0  0  0  0  0  0  0  0  0  0  0
   -4.8362    3.6900    0.3706 N   0  3  0  0  0  0  0  0  0  0  0  0
   -5.4525    3.9740   -0.6408 O   0  0  0  0  0  0  0  0  0  0  0  0
   -5.2783    4.0035    1.4614 O   0  5  0  0  0  0  0  0  0  0  0  0
   -2.3342    5.0421    0.1443 N   0  0  0  0  0  0  0  0  0  0  0  0
    6.3201    5.8533   -0.9375 H   0  0  0  0  0  0  0  0  0  0  0  0
    6.7092    4.7630   -2.2896 H   0  0  0  0  0  0  0  0  0  0  0  0
    5.9486    6.3403   -2.6088 H   0  0  0  0  0  0  0  0  0  0  0  0
    4.2916    4.5032   -2.7758 H   0  0  0  0  0  0  0  0  0  0  0  0
    3.9025    5.5935   -1.4237 H   0  0  0  0  0  0  0  0  0  0  0  0
    4.4260    1.6917    0.7023 H   0  0  0  0  0  0  0  0  0  0  0  0
    2.3395    0.4494    1.1020 H   0  0  0  0  0  0  0  0  0  0  0  0
    0.2790    3.0456   -1.5991 H   0  0  0  0  0  0  0  0  0  0  0  0
    2.3644    4.2928   -1.9891 H   0  0  0  0  0  0  0  0  0  0  0  0
    0.0086    0.0002    0.0967 H   0  0  0  0  0  0  0  0  0  0  0  0
   -6.1412    2.0075   -0.6330 H   0  0  0  0  0  0  0  0  0  0  0  0
   -4.9977    1.1187   -1.6911 H   0  0  0  0  0  0  0  0  0  0  0  0
   -6.9263   -0.3251   -1.7513 H   0  0  0  0  0  0  0  0  0  0  0  0
   -7.3213   -0.0062   -0.0303 H   0  0  0  0  0  0  0  0  0  0  0  0
   -5.2254   -1.8372   -1.2032 H   0  0  0  0  0  0  0  0  0  0  0  0
   -6.1024   -1.9719    0.3509 H   0  0  0  0  0  0  0  0  0  0  0  0
   -3.4782   -0.8094   -0.1386 H   0  0  0  0  0  0  0  0  0  0  0  0
   -4.3339   -0.9772    1.4186 H   0  0  0  0  0  0  0  0  0  0  0  0
   -1.4925    5.5181    0.0676 H   0  0  0  0  0  0  0  0  0  0  0  0
   -3.1667    5.5360    0.2067 H   0  0  0  0  0  0  0  0  0  0  0  0
  1  2  1  0  0  0  0
  1 26  1  0  0  0  0
  1 27  1  0  0  0  0
  1 28  1  0  0  0  0
  2  3  1  0  0  0  0
  2 29  1  0  0  0  0
  2 30  1  0  0  0  0
  3  4  1  0  0  0  0
  4  9  2  0  0  0  0
  4  5  1  0  0  0  0
  5  6  2  0  0  0  0
  5 31  1  0  0  0  0
  6  7  1  0  0  0  0
  6 32  1  0  0  0  0
  7  8  2  0  0  0  0
  7 10  1  0  0  0  0
  8  9  1  0  0  0  0
  8 33  1  0  0  0  0
  9 34  1  0  0  0  0
 10 11  1  0  0  0  0
 10 35  1  0  0  0  0
 11 16  2  0  0  0  0
 11 12  1  0  0  0  0
 12 13  2  0  0  0  0
 13 14  1  0  0  0  0
 13 25  1  0  0  0  0
 14 15  2  0  0  0  0
 14 22  1  0  0  0  0
 15 16  1  0  0  0  0
 15 17  1  0  0  0  0
 17 21  1  0  0  0  0
 17 18  1  0  0  0  0
 18 19  1  0  0  0  0
 18 36  1  0  0  0  0
 18 37  1  0  0  0  0
 19 20  1  0  0  0  0
 19 38  1  0  0  0  0
 19 39  1  0  0  0  0
 20 21  1  0  0  0  0
 20 40  1  0  0  0  0
 20 41  1  0  0  0  0
 21 42  1  0  0  0  0
 21 43  1  0  0  0  0
 22 23  2  0  0  0  0
 22 24  1  0  0  0  0
 25 44  1  0  0  0  0
 25 45  1  0  0  0  0
M  CHG  2  22   1  24  -1
M  END
$$$$
ZINC04306213
  -OEChem-08230709453D

 44 46  0     0  0  0  0  0  0999 V2000
   -8.4832    1.9271    0.0904 C   0  0  0  0  0  0  0  0  0  0  0  0
   -7.8862    2.2878    1.2839 C   0  0  0  0  0  0  0  0  0  0  0  0
   -6.7138    3.0201    1.2766 C   0  0  0  0  0  0  0  0  0  0  0  0
   -6.1386    3.3921    0.0759 C   0  0  0  0  0  0  0  0  0  0  0  0
   -6.7386    3.0362   -1.1175 C   0  0  0  0  0  0  0  0  0  0  0  0
   -7.9080    2.2990   -1.1103 C   0  0  0  0  0  0  0  0  0  0  0  0
   -4.8607    4.1908    0.0680 C   0  0  0  0  0  0  0  0  0  0  0  0
   -3.6638    3.2379    0.0526 C   0  0  0  0  0  0  0  0  0  0  0  0
   -2.4215    4.0144    0.0449 N   0  0  0  0  0  0  0  0  0  0  0  0
   -1.1996    3.3649    0.0307 C   0  0  0  0  0  0  0  0  0  0  0  0
   -1.1733    2.0406    0.0186 N   0  0  0  0  0  0  0  0  0  0  0  0
   -0.0167    1.3819    0.0096 C   0  0  0  0  0  0  0  0  0  0  0  0
    1.1736    2.1034    0.0021 C   0  0  0  0  0  0  0  0  0  0  0  0
    1.1058    3.4932    0.0098 C   0  0  0  0  0  0  0  0  0  0  0  0
   -0.0874    4.0836    0.0239 N   0  0  0  0  0  0  0  0  0  0  0  0
    2.2652    4.2530    0.0023 N   0  0  0  0  0  0  0  0  0  0  0  0
    3.0481    4.0172   -1.2377 C   0  0  0  0  0  0  0  0  0  0  0  0
    3.9595    5.2671   -1.3246 C   0  0  0  0  0  0  0  0  0  0  0  0
    3.0386    6.4022   -0.8211 C   0  0  0  0  0  0  0  0  0  0  0  0
    1.9518    5.6984    0.0126 C   0  0  0  0  0  0  0  0  0  0  0  0
    2.4806    1.4086   -0.0131 N   0  3  0  0  0  0  0  0  0  0  0  0
    3.0087    1.1278   -1.0741 O   0  0  0  0  0  0  0  0  0  0  0  0
    3.0280    1.1179    1.0354 O   0  5  0  0  0  0  0  0  0  0  0  0
    0.0021   -0.0041    0.0020 N   0  0  0  0  0  0  0  0  0  0  0  0
   -9.3988    1.3543    0.0961 H   0  0  0  0  0  0  0  0  0  0  0  0
   -8.3355    1.9972    2.2220 H   0  0  0  0  0  0  0  0  0  0  0  0
   -6.2473    3.3020    2.2090 H   0  0  0  0  0  0  0  0  0  0  0  0
   -6.2916    3.3306   -2.0556 H   0  0  0  0  0  0  0  0  0  0  0  0
   -8.3743    2.0169   -2.0427 H   0  0  0  0  0  0  0  0  0  0  0  0
   -4.8168    4.8149    0.9605 H   0  0  0  0  0  0  0  0  0  0  0  0
   -4.8330    4.8233   -0.8193 H   0  0  0  0  0  0  0  0  0  0  0  0
   -3.7077    2.6138   -0.8400 H   0  0  0  0  0  0  0  0  0  0  0  0
   -3.6914    2.6054    0.9399 H   0  0  0  0  0  0  0  0  0  0  0  0
   -2.4554    4.9838    0.0497 H   0  0  0  0  0  0  0  0  0  0  0  0
    3.6463    3.1104   -1.1484 H   0  0  0  0  0  0  0  0  0  0  0  0
    2.3890    3.9608   -2.1040 H   0  0  0  0  0  0  0  0  0  0  0  0
    4.2680    5.4488   -2.3541 H   0  0  0  0  0  0  0  0  0  0  0  0
    4.8275    5.1576   -0.6743 H   0  0  0  0  0  0  0  0  0  0  0  0
    2.5885    6.9263   -1.6642 H   0  0  0  0  0  0  0  0  0  0  0  0
    3.6014    7.0980   -0.1988 H   0  0  0  0  0  0  0  0  0  0  0  0
    0.9724    5.8692   -0.4342 H   0  0  0  0  0  0  0  0  0  0  0  0
    1.9635    6.0736    1.0359 H   0  0  0  0  0  0  0  0  0  0  0  0
    0.8486   -0.4776   -0.0086 H   0  0  0  0  0  0  0  0  0  0  0  0
   -0.8313   -0.5005    0.0073 H   0  0  0  0  0  0  0  0  0  0  0  0
  1  6  2  0  0  0  0
  1  2  1  0  0  0  0
  1 25  1  0  0  0  0
  2  3  2  0  0  0  0
  2 26  1  0  0  0  0
  3  4  1  0  0  0  0
  3 27  1  0  0  0  0
  4  5  2  0  0  0  0
  4  7  1  0  0  0  0
  5  6  1  0  0  0  0
  5 28  1  0  0  0  0
  6 29  1  0  0  0  0
  7  8  1  0  0  0  0
  7 30  1  0  0  0  0
  7 31  1  0  0  0  0
  8  9  1  0  0  0  0
  8 32  1  0  0  0  0
  8 33  1  0  0  0  0
  9 10  1  0  0  0  0
  9 34  1  0  0  0  0
 10 15  2  0  0  0  0
 10 11  1  0  0  0  0
 11 12  2  0  0  0  0
 12 13  1  0  0  0  0
 12 24  1  0  0  0  0
 13 14  2  0  0  0  0
 13 21  1  0  0  0  0
 14 15  1  0  0  0  0
 14 16  1  0  0  0  0
 16 20  1  0  0  0  0
 16 17  1  0  0  0  0
 17 18  1  0  0  0  0
 17 35  1  0  0  0  0
 17 36  1  0  0  0  0
 18 19  1  0  0  0  0
 18 37  1  0  0  0  0
 18 38  1  0  0  0  0
 19 20  1  0  0  0  0
 19 39  1  0  0  0  0
 19 40  1  0  0  0  0
 20 41  1  0  0  0  0
 20 42  1  0  0  0  0
 21 22  2  0  0  0  0
 21 23  1  0  0  0  0
 24 43  1  0  0  0  0
 24 44  1  0  0  0  0
M  CHG  2  21   1  23  -1
M  END
$$$$
ZINC04306274
  -OEChem-08230709453D

 46 48  0     0  0  0  0  0  0999 V2000
   -6.5715    0.1808    0.0536 C   0  0  0  0  0  0  0  0  0  0  0  0
   -6.0077    1.0227    1.0613 O   0  0  0  0  0  0  0  0  0  0  0  0
   -4.6696    0.9151    1.2779 C   0  0  0  0  0  0  0  0  0  0  0  0
   -3.9172    0.0177    0.5345 C   0  0  0  0  0  0  0  0  0  0  0  0
   -2.5554   -0.0897    0.7478 C   0  0  0  0  0  0  0  0  0  0  0  0
   -1.9405    0.6905    1.7128 C   0  0  0  0  0  0  0  0  0  0  0  0
   -2.6932    1.5926    2.4610 C   0  0  0  0  0  0  0  0  0  0  0  0
   -4.0584    1.7027    2.2412 C   0  0  0  0  0  0  0  0  0  0  0  0
   -2.0731    2.3864    3.4336 N   0  0  0  0  0  0  0  0  0  0  0  0
   -2.8112    2.8823    4.4978 C   0  0  0  0  0  0  0  0  0  0  0  0
   -2.2363    3.7718    5.4011 C   0  0  0  0  0  0  0  0  0  0  0  0
   -3.0155    4.2435    6.4532 C   0  0  0  0  0  0  0  0  0  0  0  0
   -4.2769    3.8315    6.5607 N   0  0  0  0  0  0  0  0  0  0  0  0
   -4.7908    2.9840    5.6823 C   0  0  0  0  0  0  0  0  0  0  0  0
   -4.0807    2.5184    4.6658 N   0  0  0  0  0  0  0  0  0  0  0  0
   -6.1060    2.5785    5.8271 N   0  0  0  0  0  0  0  0  0  0  0  0
   -6.1890    1.1136    6.0579 C   0  0  0  0  0  0  0  0  0  0  0  0
   -7.5863    0.9349    6.7029 C   0  0  0  0  0  0  0  0  0  0  0  0
   -7.7139    2.1851    7.6034 C   0  0  0  0  0  0  0  0  0  0  0  0
   -6.7277    3.2092    7.0117 C   0  0  0  0  0  0  0  0  0  0  0  0
   -2.4855    5.1310    7.3768 N   0  0  0  0  0  0  0  0  0  0  0  0
   -0.8294    4.2053    5.2465 N   0  3  0  0  0  0  0  0  0  0  0  0
   -0.5658    5.1939    4.5857 O   0  0  0  0  0  0  0  0  0  0  0  0
    0.0647    3.5734    5.7802 O   0  5  0  0  0  0  0  0  0  0  0  0
   -0.6011    0.5799    1.9259 O   0  0  0  0  0  0  0  0  0  0  0  0
    0.1078   -0.3655    1.1223 C   0  0  0  0  0  0  0  0  0  0  0  0
   -6.4001   -0.8634    0.3148 H   0  0  0  0  0  0  0  0  0  0  0  0
   -7.6433    0.3665   -0.0171 H   0  0  0  0  0  0  0  0  0  0  0  0
   -6.1013    0.3973   -0.9056 H   0  0  0  0  0  0  0  0  0  0  0  0
   -4.3953   -0.5952   -0.2153 H   0  0  0  0  0  0  0  0  0  0  0  0
   -1.9713   -0.7861    0.1644 H   0  0  0  0  0  0  0  0  0  0  0  0
   -4.6444    2.4016    2.8196 H   0  0  0  0  0  0  0  0  0  0  0  0
   -1.1272    2.5894    3.3630 H   0  0  0  0  0  0  0  0  0  0  0  0
   -6.1287    0.5714    5.1142 H   0  0  0  0  0  0  0  0  0  0  0  0
   -5.4052    0.7868    6.7413 H   0  0  0  0  0  0  0  0  0  0  0  0
   -7.6217    0.0240    7.3004 H   0  0  0  0  0  0  0  0  0  0  0  0
   -8.3651    0.9278    5.9403 H   0  0  0  0  0  0  0  0  0  0  0  0
   -7.4369    1.9422    8.6292 H   0  0  0  0  0  0  0  0  0  0  0  0
   -8.7309    2.5757    7.5691 H   0  0  0  0  0  0  0  0  0  0  0  0
   -5.9613    3.4544    7.7470 H   0  0  0  0  0  0  0  0  0  0  0  0
   -7.2599    4.1129    6.7149 H   0  0  0  0  0  0  0  0  0  0  0  0
   -1.5658    5.4273    7.2921 H   0  0  0  0  0  0  0  0  0  0  0  0
   -3.0344    5.4558    8.1076 H   0  0  0  0  0  0  0  0  0  0  0  0
   -0.2988   -1.3627    1.2905 H   0  0  0  0  0  0  0  0  0  0  0  0
    1.1636   -0.3532    1.3931 H   0  0  0  0  0  0  0  0  0  0  0  0
   -0.0005   -0.1016    0.0703 H   0  0  0  0  0  0  0  0  0  0  0  0
  1  2  1  0  0  0  0
  1 27  1  0  0  0  0
  1 28  1  0  0  0  0
  1 29  1  0  0  0  0
  2  3  1  0  0  0  0
  3  8  2  0  0  0  0
  3  4  1  0  0  0  0
  4  5  2  0  0  0  0
  4 30  1  0  0  0  0
  5  6  1  0  0  0  0
  5 31  1  0  0  0  0
  6  7  2  0  0  0  0
  6 25  1  0  0  0  0
  7  8  1  0  0  0  0
  7  9  1  0  0  0  0
  8 32  1  0  0  0  0
  9 10  1  0  0  0  0
  9 33  1  0  0  0  0
 10 15  2  0  0  0  0
 10 11  1  0  0  0  0
 11 12  2  0  0  0  0
 11 22  1  0  0  0  0
 12 13  1  0  0  0  0
 12 21  1  0  0  0  0
 13 14  2  0  0  0  0
 14 15  1  0  0  0  0
 14 16  1  0  0  0  0
 16 20  1  0  0  0  0
 16 17  1  0  0  0  0
 17 18  1  0  0  0  0
 17 34  1  0  0  0  0
 17 35  1  0  0  0  0
 18 19  1  0  0  0  0
 18 36  1  0  0  0  0
 18 37  1  0  0  0  0
 19 20  1  0  0  0  0
 19 38  1  0  0  0  0
 19 39  1  0  0  0  0
 20 40  1  0  0  0  0
 20 41  1  0  0  0  0
 21 42  1  0  0  0  0
 21 43  1  0  0  0  0
 22 23  2  0  0  0  0
 22 24  1  0  0  0  0
 25 26  1  0  0  0  0
 26 44  1  0  0  0  0
 26 45  1  0  0  0  0
 26 46  1  0  0  0  0
M  CHG  2  22   1  24  -1
M  END
$$$$
ZINC04306340
  -OEChem-08230709453D

 47 49  0     0  0  0  0  0  0999 V2000
   -7.9266   -2.8131   -1.3332 C   0  0  0  0  0  0  0  0  0  0  0  0
   -8.1319   -1.6438   -0.3681 C   0  0  0  0  0  0  0  0  0  0  0  0
   -7.0530    0.3142    0.5632 C   0  0  0  0  0  0  0  0  0  0  0  0
   -5.9275    1.3271    0.3404 C   0  0  0  0  0  0  0  0  0  0  0  0
   -4.6365    0.6253    0.3244 N   0  0  0  0  0  0  0  0  0  0  0  0
   -4.6021   -0.3839   -0.7433 C   0  0  0  0  0  0  0  0  0  0  0  0
   -5.7276   -1.3969   -0.5205 C   0  0  0  0  0  0  0  0  0  0  0  0
   -3.5877    1.5190    0.1959 C   0  0  0  0  0  0  0  0  0  0  0  0
   -3.8512    2.8142    0.1083 N   0  0  0  0  0  0  0  0  0  0  0  0
   -2.8682    3.7029   -0.0157 C   0  0  0  0  0  0  0  0  0  0  0  0
   -1.5507    3.2550   -0.0527 C   0  0  0  0  0  0  0  0  0  0  0  0
   -1.3133    1.8871    0.0420 C   0  0  0  0  0  0  0  0  0  0  0  0
   -2.3474    1.0566    0.1587 N   0  0  0  0  0  0  0  0  0  0  0  0
   -0.0169    1.3950    0.0097 N   0  0  0  0  0  0  0  0  0  0  0  0
    0.2200    0.0331    0.2265 C   0  0  0  0  0  0  0  0  0  0  0  0
   -0.5630   -0.6737    1.1299 C   0  0  0  0  0  0  0  0  0  0  0  0
   -0.3314   -2.0194    1.3377 C   0  0  0  0  0  0  0  0  0  0  0  0
    0.6883   -2.6610    0.6551 C   0  0  0  0  0  0  0  0  0  0  0  0
    1.4742   -1.9567   -0.2415 C   0  0  0  0  0  0  0  0  0  0  0  0
    1.2422   -0.6124   -0.4570 C   0  0  0  0  0  0  0  0  0  0  0  0
    0.9165   -3.9761    0.8637 F   0  0  0  0  0  0  0  0  0  0  0  0
   -0.4288    4.2111   -0.1892 N   0  3  0  0  0  0  0  0  0  0  0  0
   -0.0245    4.5217   -1.2953 O   0  0  0  0  0  0  0  0  0  0  0  0
    0.0899    4.6871    0.8047 O   0  5  0  0  0  0  0  0  0  0  0  0
   -3.1525    5.0565   -0.1072 N   0  0  0  0  0  0  0  0  0  0  0  0
   -7.8920   -2.4382   -2.3561 H   0  0  0  0  0  0  0  0  0  0  0  0
   -6.9889   -3.3172   -1.0990 H   0  0  0  0  0  0  0  0  0  0  0  0
   -8.7526   -3.5171   -1.2320 H   0  0  0  0  0  0  0  0  0  0  0  0
   -8.1666   -2.0187    0.6548 H   0  0  0  0  0  0  0  0  0  0  0  0
   -9.0696   -1.1398   -0.6023 H   0  0  0  0  0  0  0  0  0  0  0  0
   -6.9178   -0.1732    1.5287 H   0  0  0  0  0  0  0  0  0  0  0  0
   -8.0138    0.8287    0.5469 H   0  0  0  0  0  0  0  0  0  0  0  0
   -5.9330    2.0601    1.1471 H   0  0  0  0  0  0  0  0  0  0  0  0
   -6.0776    1.8342   -0.6127 H   0  0  0  0  0  0  0  0  0  0  0  0
   -4.7373    0.1034   -1.7089 H   0  0  0  0  0  0  0  0  0  0  0  0
   -3.6413   -0.8984   -0.7266 H   0  0  0  0  0  0  0  0  0  0  0  0
   -5.5773   -1.9037    0.4328 H   0  0  0  0  0  0  0  0  0  0  0  0
   -5.7223   -2.1301   -1.3270 H   0  0  0  0  0  0  0  0  0  0  0  0
    0.7251    1.9942   -0.1672 H   0  0  0  0  0  0  0  0  0  0  0  0
   -1.3555   -0.1727    1.6658 H   0  0  0  0  0  0  0  0  0  0  0  0
   -0.9433   -2.5706    2.0363 H   0  0  0  0  0  0  0  0  0  0  0  0
    2.2690   -2.4591   -0.7728 H   0  0  0  0  0  0  0  0  0  0  0  0
    1.8549   -0.0636   -1.1569 H   0  0  0  0  0  0  0  0  0  0  0  0
   -2.4311    5.6986   -0.1977 H   0  0  0  0  0  0  0  0  0  0  0  0
   -4.0729    5.3616   -0.0807 H   0  0  0  0  0  0  0  0  0  0  0  0
   -7.0209   -0.6816   -0.5289 N   0  3  0  0  0  0  0  0  0  0  0  0
   -7.1278   -0.1956   -1.4270 H   0  0  0  0  0  0  0  0  0  0  0  0
  1  2  1  0  0  0  0
  1 26  1  0  0  0  0
  1 27  1  0  0  0  0
  1 28  1  0  0  0  0
  2 29  1  0  0  0  0
  2 30  1  0  0  0  0
  2 46  1  0  0  0  0
  3  4  1  0  0  0  0
  3 31  1  0  0  0  0
  3 32  1  0  0  0  0
  3 46  1  0  0  0  0
  4  5  1  0  0  0  0
  4 33  1  0  0  0  0
  4 34  1  0  0  0  0
  5  6  1  0  0  0  0
  5  8  1  0  0  0  0
  6  7  1  0  0  0  0
  6 35  1  0  0  0  0
  6 36  1  0  0  0  0
  7 37  1  0  0  0  0
  7 38  1  0  0  0  0
  7 46  1  0  0  0  0
  8 13  2  0  0  0  0
  8  9  1  0  0  0  0
  9 10  2  0  0  0  0
 10 11  1  0  0  0  0
 10 25  1  0  0  0  0
 11 12  2  0  0  0  0
 11 22  1  0  0  0  0
 12 13  1  0  0  0  0
 12 14  1  0  0  0  0
 14 15  1  0  0  0  0
 14 39  1  0  0  0  0
 15 20  2  0  0  0  0
 15 16  1  0  0  0  0
 16 17  2  0  0  0  0
 16 40  1  0  0  0  0
 17 18  1  0  0  0  0
 17 41  1  0  0  0  0
 18 19  2  0  0  0  0
 18 21  1  0  0  0  0
 19 20  1  0  0  0  0
 19 42  1  0  0  0  0
 20 43  1  0  0  0  0
 22 23  2  0  0  0  0
 22 24  1  0  0  0  0
 25 44  1  0  0  0  0
 25 45  1  0  0  0  0
 46 47  1  0  0  0  0
M  CHG  3  22   1  24  -1  46   1
M  END
$$$$
ZINC04306344
  -OEChem-08230709453D

 41 43  0     0  0  0  0  0  0999 V2000
   -0.5591   -0.6746    1.1301 C   0  0  0  0  0  0  0  0  0  0  0  0
   -0.3249   -2.0197    1.3383 C   0  0  0  0  0  0  0  0  0  0  0  0
    0.6958   -2.6596    0.6554 C   0  0  0  0  0  0  0  0  0  0  0  0
    1.4799   -1.9541   -0.2417 C   0  0  0  0  0  0  0  0  0  0  0  0
    1.2455   -0.6102   -0.4573 C   0  0  0  0  0  0  0  0  0  0  0  0
    0.2224    0.0336    0.2265 C   0  0  0  0  0  0  0  0  0  0  0  0
   -0.0169    1.3950    0.0097 N   0  0  0  0  0  0  0  0  0  0  0  0
   -1.3141    1.8850    0.0429 C   0  0  0  0  0  0  0  0  0  0  0  0
   -1.5539    3.2528   -0.0519 C   0  0  0  0  0  0  0  0  0  0  0  0
   -2.8717    3.6985   -0.0140 C   0  0  0  0  0  0  0  0  0  0  0  0
   -3.8534    2.8080    0.1108 N   0  0  0  0  0  0  0  0  0  0  0  0
   -3.5878    1.5135    0.1983 C   0  0  0  0  0  0  0  0  0  0  0  0
   -2.3465    1.0530    0.1603 N   0  0  0  0  0  0  0  0  0  0  0  0
   -4.6350    0.6181    0.3271 N   0  0  0  0  0  0  0  0  0  0  0  0
   -4.5938   -0.3961   -0.7341 C   0  0  0  0  0  0  0  0  0  0  0  0
   -5.6744   -1.4490   -0.4775 C   0  0  0  0  0  0  0  0  0  0  0  0
   -7.0460   -0.7690   -0.4487 C   0  0  0  0  0  0  0  0  0  0  0  0
   -7.0466    0.3155    0.6322 C   0  0  0  0  0  0  0  0  0  0  0  0
   -5.9263    1.3172    0.3435 C   0  0  0  0  0  0  0  0  0  0  0  0
   -3.1583    5.0516   -0.1054 N   0  0  0  0  0  0  0  0  0  0  0  0
   -0.4337    4.2108   -0.1892 N   0  3  0  0  0  0  0  0  0  0  0  0
   -0.0307    4.5220   -1.2956 O   0  0  0  0  0  0  0  0  0  0  0  0
    0.0850    4.6877    0.8043 O   0  5  0  0  0  0  0  0  0  0  0  0
    0.9265   -3.9742    0.8644 F   0  0  0  0  0  0  0  0  0  0  0  0
   -1.3522   -0.1748    1.6665 H   0  0  0  0  0  0  0  0  0  0  0  0
   -0.9353   -2.5719    2.0375 H   0  0  0  0  0  0  0  0  0  0  0  0
    2.2752   -2.4552   -0.7735 H   0  0  0  0  0  0  0  0  0  0  0  0
    1.8571   -0.0604   -1.1573 H   0  0  0  0  0  0  0  0  0  0  0  0
    0.7240    1.9954   -0.1678 H   0  0  0  0  0  0  0  0  0  0  0  0
   -4.7720    0.0797   -1.6984 H   0  0  0  0  0  0  0  0  0  0  0  0
   -3.6146   -0.8749   -0.7410 H   0  0  0  0  0  0  0  0  0  0  0  0
   -5.4889   -1.9350    0.4804 H   0  0  0  0  0  0  0  0  0  0  0  0
   -5.6540   -2.1936   -1.2733 H   0  0  0  0  0  0  0  0  0  0  0  0
   -7.8145   -1.5085   -0.2232 H   0  0  0  0  0  0  0  0  0  0  0  0
   -7.2485   -0.3162   -1.4192 H   0  0  0  0  0  0  0  0  0  0  0  0
   -6.8828   -0.1427    1.6075 H   0  0  0  0  0  0  0  0  0  0  0  0
   -8.0065    0.8321    0.6288 H   0  0  0  0  0  0  0  0  0  0  0  0
   -5.9149    2.0829    1.1192 H   0  0  0  0  0  0  0  0  0  0  0  0
   -6.0983    1.7849   -0.6259 H   0  0  0  0  0  0  0  0  0  0  0  0
   -2.4381    5.6949   -0.1965 H   0  0  0  0  0  0  0  0  0  0  0  0
   -4.0792    5.3552   -0.0784 H   0  0  0  0  0  0  0  0  0  0  0  0
  1  6  2  0  0  0  0
  1  2  1  0  0  0  0
  1 25  1  0  0  0  0
  2  3  2  0  0  0  0
  2 26  1  0  0  0  0
  3  4  1  0  0  0  0
  3 24  1  0  0  0  0
  4  5  2  0  0  0  0
  4 27  1  0  0  0  0
  5  6  1  0  0  0  0
  5 28  1  0  0  0  0
  6  7  1  0  0  0  0
  7  8  1  0  0  0  0
  7 29  1  0  0  0  0
  8 13  2  0  0  0  0
  8  9  1  0  0  0  0
  9 10  2  0  0  0  0
  9 21  1  0  0  0  0
 10 11  1  0  0  0  0
 10 20  1  0  0  0  0
 11 12  2  0  0  0  0
 12 13  1  0  0  0  0
 12 14  1  0  0  0  0
 14 19  1  0  0  0  0
 14 15  1  0  0  0  0
 15 16  1  0  0  0  0
 15 30  1  0  0  0  0
 15 31  1  0  0  0  0
 16 17  1  0  0  0  0
 16 32  1  0  0  0  0
 16 33  1  0  0  0  0
 17 18  1  0  0  0  0
 17 34  1  0  0  0  0
 17 35  1  0  0  0  0
 18 19  1  0  0  0  0
 18 36  1  0  0  0  0
 18 37  1  0  0  0  0
 19 38  1  0  0  0  0
 19 39  1  0  0  0  0
 20 40  1  0  0  0  0
 20 41  1  0  0  0  0
 21 22  2  0  0  0  0
 21 23  1  0  0  0  0
M  CHG  2  21   1  23  -1
M  END
$$$$
ZINC04306345
  -OEChem-08230709453D

 44 46  0     1  0  0  0  0  0999 V2000
    1.9748    9.8156    0.6095 C   0  0  0  0  0  0  0  0  0  0  0  0
    2.2019    8.3066    0.4985 C   0  0  2  0  0  0  0  0  0  0  0  0
    2.7120    7.9487    1.3928 H   0  0  0  0  0  0  0  0  0  0  0  0
    3.0601    8.0073   -0.7338 C   0  0  0  0  0  0  0  0  0  0  0  0
    3.2323    6.4919   -0.8702 C   0  0  0  0  0  0  0  0  0  0  0  0
    1.8542    5.8337   -0.9689 C   0  0  0  0  0  0  0  0  0  0  0  0
    1.0724    6.1492    0.2334 N   0  0  0  0  0  0  0  0  0  0  0  0
    0.8537    7.5958    0.3601 C   0  0  0  0  0  0  0  0  0  0  0  0
   -0.1298    5.4638    0.2373 C   0  0  0  0  0  0  0  0  0  0  0  0
   -1.2603    6.1451    0.3477 N   0  0  0  0  0  0  0  0  0  0  0  0
   -2.4352    5.5196    0.3555 C   0  0  0  0  0  0  0  0  0  0  0  0
   -2.4649    4.1326    0.2404 C   0  0  0  0  0  0  0  0  0  0  0  0
   -1.2566    3.4510    0.1315 C   0  0  0  0  0  0  0  0  0  0  0  0
   -0.1197    4.1439    0.1309 N   0  0  0  0  0  0  0  0  0  0  0  0
   -1.2373    2.0686    0.0192 N   0  0  0  0  0  0  0  0  0  0  0  0
   -0.0175    1.3832    0.0264 C   0  0  0  0  0  0  0  0  0  0  0  0
    0.1300    0.2184   -0.7154 C   0  0  0  0  0  0  0  0  0  0  0  0
    1.3331   -0.4597   -0.7024 C   0  0  0  0  0  0  0  0  0  0  0  0
    2.3919    0.0210    0.0496 C   0  0  0  0  0  0  0  0  0  0  0  0
    2.2470    1.1822    0.7900 C   0  0  0  0  0  0  0  0  0  0  0  0
    1.0456    1.8635    0.7798 C   0  0  0  0  0  0  0  0  0  0  0  0
    3.5680   -0.6436    0.0606 F   0  0  0  0  0  0  0  0  0  0  0  0
   -3.7511    3.3998    0.2387 N   0  3  0  0  0  0  0  0  0  0  0  0
   -4.2333    3.0137    1.2884 O   0  0  0  0  0  0  0  0  0  0  0  0
   -4.3272    3.1830   -0.8123 O   0  5  0  0  0  0  0  0  0  0  0  0
   -3.6137    6.2401    0.4715 N   0  0  0  0  0  0  0  0  0  0  0  0
    1.3612   10.0272    1.4852 H   0  0  0  0  0  0  0  0  0  0  0  0
    2.9353   10.3214    0.7080 H   0  0  0  0  0  0  0  0  0  0  0  0
    1.4660   10.1732   -0.2857 H   0  0  0  0  0  0  0  0  0  0  0  0
    2.5686    8.3997   -1.6240 H   0  0  0  0  0  0  0  0  0  0  0  0
    4.0371    8.4771   -0.6201 H   0  0  0  0  0  0  0  0  0  0  0  0
    3.8066    6.2705   -1.7698 H   0  0  0  0  0  0  0  0  0  0  0  0
    3.7585    6.1054    0.0026 H   0  0  0  0  0  0  0  0  0  0  0  0
    1.9729    4.7534   -1.0518 H   0  0  0  0  0  0  0  0  0  0  0  0
    1.3341    6.2104   -1.8496 H   0  0  0  0  0  0  0  0  0  0  0  0
    0.3383    7.9643   -0.5268 H   0  0  0  0  0  0  0  0  0  0  0  0
    0.2459    7.7953    1.2426 H   0  0  0  0  0  0  0  0  0  0  0  0
   -2.0693    1.5771   -0.0644 H   0  0  0  0  0  0  0  0  0  0  0  0
   -0.6956   -0.1571   -1.3018 H   0  0  0  0  0  0  0  0  0  0  0  0
    1.4482   -1.3657   -1.2788 H   0  0  0  0  0  0  0  0  0  0  0  0
    3.0741    1.5556    1.3755 H   0  0  0  0  0  0  0  0  0  0  0  0
    0.9332    2.7693    1.3571 H   0  0  0  0  0  0  0  0  0  0  0  0
   -3.5857    7.2067    0.5476 H   0  0  0  0  0  0  0  0  0  0  0  0
   -4.4663    5.7777    0.4765 H   0  0  0  0  0  0  0  0  0  0  0  0
  1  2  1  0  0  0  0
  1 27  1  0  0  0  0
  1 28  1  0  0  0  0
  1 29  1  0  0  0  0
  2  3  1  0  0  0  0
  2  8  1  0  0  0  0
  2  4  1  0  0  0  0
  4  5  1  0  0  0  0
  4 30  1  0  0  0  0
  4 31  1  0  0  0  0
  5  6  1  0  0  0  0
  5 32  1  0  0  0  0
  5 33  1  0  0  0  0
  6  7  1  0  0  0  0
  6 34  1  0  0  0  0
  6 35  1  0  0  0  0
  7  8  1  0  0  0  0
  7  9  1  0  0  0  0
  8 36  1  0  0  0  0
  8 37  1  0  0  0  0
  9 14  2  0  0  0  0
  9 10  1  0  0  0  0
 10 11  2  0  0  0  0
 11 12  1  0  0  0  0
 11 26  1  0  0  0  0
 12 13  2  0  0  0  0
 12 23  1  0  0  0  0
 13 14  1  0  0  0  0
 13 15  1  0  0  0  0
 15 16  1  0  0  0  0
 15 38  1  0  0  0  0
 16 21  2  0  0  0  0
 16 17  1  0  0  0  0
 17 18  2  0  0  0  0
 17 39  1  0  0  0  0
 18 19  1  0  0  0  0
 18 40  1  0  0  0  0
 19 20  2  0  0  0  0
 19 22  1  0  0  0  0
 20 21  1  0  0  0  0
 20 41  1  0  0  0  0
 21 42  1  0  0  0  0
 23 24  2  0  0  0  0
 23 25  1  0  0  0  0
 26 43  1  0  0  0  0
 26 44  1  0  0  0  0
M  CHG  2  23   1  25  -1
M  END
$$$$
ZINC04306374
  -OEChem-08230709453D

 45 47  0     1  0  0  0  0  0999 V2000
   -3.6347    7.1016    3.4328 C   0  0  0  0  0  0  0  0  0  0  0  0
   -3.0274    6.7817    2.0654 C   0  0  2  0  0  0  0  0  0  0  0  0
   -3.6193    7.2580    1.2838 H   0  0  0  0  0  0  0  0  0  0  0  0
   -3.0210    5.2658    1.8509 C   0  0  0  0  0  0  0  0  0  0  0  0
   -2.3668    4.9601    0.5703 N   0  0  0  0  0  0  0  0  0  0  0  0
   -0.9909    5.4777    0.5515 C   0  0  0  0  0  0  0  0  0  0  0  0
   -1.0177    6.9914    0.7791 C   0  0  1  0  0  0  0  0  0  0  0  0
   -1.5511    7.4732   -0.0404 H   0  0  0  0  0  0  0  0  0  0  0  0
   -1.6847    7.2712    2.0128 O   0  0  0  0  0  0  0  0  0  0  0  0
    0.4151    7.5244    0.8395 C   0  0  0  0  0  0  0  0  0  0  0  0
   -2.3887    3.6002    0.3145 C   0  0  0  0  0  0  0  0  0  0  0  0
   -1.2455    2.9653    0.1032 N   0  0  0  0  0  0  0  0  0  0  0  0
   -1.2283    1.6589   -0.1511 C   0  0  0  0  0  0  0  0  0  0  0  0
   -2.4311    0.9589   -0.1815 C   0  0  0  0  0  0  0  0  0  0  0  0
   -3.6110    1.6590    0.0509 C   0  0  0  0  0  0  0  0  0  0  0  0
   -3.5513    2.9668    0.2932 N   0  0  0  0  0  0  0  0  0  0  0  0
   -4.8331    1.0029    0.0308 N   0  0  0  0  0  0  0  0  0  0  0  0
   -6.0200    1.7324    0.1459 C   0  0  0  0  0  0  0  0  0  0  0  0
   -6.1243    2.9884   -0.4389 C   0  0  0  0  0  0  0  0  0  0  0  0
   -7.2976    3.7076   -0.3241 C   0  0  0  0  0  0  0  0  0  0  0  0
   -8.3693    3.1797    0.3721 C   0  0  0  0  0  0  0  0  0  0  0  0
   -8.2697    1.9281    0.9566 C   0  0  0  0  0  0  0  0  0  0  0  0
   -7.0986    1.2008    0.8399 C   0  0  0  0  0  0  0  0  0  0  0  0
   -9.3184    1.4148    1.6363 F   0  0  0  0  0  0  0  0  0  0  0  0
   -2.4545   -0.4959   -0.4542 N   0  3  0  0  0  0  0  0  0  0  0  0
   -2.3767   -1.2895    0.4665 O   0  0  0  0  0  0  0  0  0  0  0  0
   -2.5514   -0.8994   -1.5994 O   0  5  0  0  0  0  0  0  0  0  0  0
   -0.0281    1.0031   -0.3768 N   0  0  0  0  0  0  0  0  0  0  0  0
   -3.6355    8.1807    3.5865 H   0  0  0  0  0  0  0  0  0  0  0  0
   -4.6580    6.7282    3.4722 H   0  0  0  0  0  0  0  0  0  0  0  0
   -3.0432    6.6238    4.2138 H   0  0  0  0  0  0  0  0  0  0  0  0
   -4.0463    4.8963    1.8332 H   0  0  0  0  0  0  0  0  0  0  0  0
   -2.4744    4.7857    2.6626 H   0  0  0  0  0  0  0  0  0  0  0  0
   -0.4119    5.0009    1.3424 H   0  0  0  0  0  0  0  0  0  0  0  0
   -0.5344    5.2628   -0.4147 H   0  0  0  0  0  0  0  0  0  0  0  0
    0.9234    7.3075   -0.1000 H   0  0  0  0  0  0  0  0  0  0  0  0
    0.3954    8.6021    1.0015 H   0  0  0  0  0  0  0  0  0  0  0  0
    0.9474    7.0433    1.6601 H   0  0  0  0  0  0  0  0  0  0  0  0
   -4.8641    0.0379   -0.0630 H   0  0  0  0  0  0  0  0  0  0  0  0
   -5.2883    3.4020   -0.9833 H   0  0  0  0  0  0  0  0  0  0  0  0
   -7.3784    4.6837   -0.7791 H   0  0  0  0  0  0  0  0  0  0  0  0
   -9.2858    3.7442    0.4600 H   0  0  0  0  0  0  0  0  0  0  0  0
   -7.0220    0.2228    1.2918 H   0  0  0  0  0  0  0  0  0  0  0  0
   -0.0227    0.0501   -0.5576 H   0  0  0  0  0  0  0  0  0  0  0  0
    0.8059    1.4980   -0.3581 H   0  0  0  0  0  0  0  0  0  0  0  0
  1  2  1  0  0  0  0
  1 29  1  0  0  0  0
  1 30  1  0  0  0  0
  1 31  1  0  0  0  0
  2  3  1  0  0  0  0
  2  9  1  0  0  0  0
  2  4  1  0  0  0  0
  4  5  1  0  0  0  0
  4 32  1  0  0  0  0
  4 33  1  0  0  0  0
  5  6  1  0  0  0  0
  5 11  1  0  0  0  0
  6  7  1  0  0  0  0
  6 34  1  0  0  0  0
  6 35  1  0  0  0  0
  7  8  1  0  0  0  0
  7  9  1  0  0  0  0
  7 10  1  0  0  0  0
 10 36  1  0  0  0  0
 10 37  1  0  0  0  0
 10 38  1  0  0  0  0
 11 16  2  0  0  0  0
 11 12  1  0  0  0  0
 12 13  2  0  0  0  0
 13 14  1  0  0  0  0
 13 28  1  0  0  0  0
 14 15  2  0  0  0  0
 14 25  1  0  0  0  0
 15 16  1  0  0  0  0
 15 17  1  0  0  0  0
 17 18  1  0  0  0  0
 17 39  1  0  0  0  0
 18 23  2  0  0  0  0
 18 19  1  0  0  0  0
 19 20  2  0  0  0  0
 19 40  1  0  0  0  0
 20 21  1  0  0  0  0
 20 41  1  0  0  0  0
 21 22  2  0  0  0  0
 21 42  1  0  0  0  0
 22 23  1  0  0  0  0
 22 24  1  0  0  0  0
 23 43  1  0  0  0  0
 25 26  2  0  0  0  0
 25 27  1  0  0  0  0
 28 44  1  0  0  0  0
 28 45  1  0  0  0  0
M  CHG  2  25   1  27  -1
M  END
$$$$
ZINC04316980
  -OEChem-08230709453D

 43 45  0     0  0  0  0  0  0999 V2000
   -6.6358    3.3554   10.4062 C   0  0  0  0  0  0  0  0  0  0  0  0
   -5.7882    2.8570    9.3693 O   0  0  0  0  0  0  0  0  0  0  0  0
   -4.5086    2.5502    9.7119 C   0  0  0  0  0  0  0  0  0  0  0  0
   -4.0785    2.7244   11.0174 C   0  0  0  0  0  0  0  0  0  0  0  0
   -2.7775    2.4111   11.3645 C   0  0  0  0  0  0  0  0  0  0  0  0
   -1.9021    1.9234   10.4116 C   0  0  0  0  0  0  0  0  0  0  0  0
   -2.3247    1.7422    9.1084 C   0  0  0  0  0  0  0  0  0  0  0  0
   -3.6272    2.0594    8.7515 C   0  0  0  0  0  0  0  0  0  0  0  0
   -4.0566    1.8811    7.4296 N   0  0  0  0  0  0  0  0  0  0  0  0
   -3.1609    1.8939    6.4226 C   0  0  0  0  0  0  0  0  0  0  0  0
   -1.9990    2.1591    6.6478 O   0  0  0  0  0  0  0  0  0  0  0  0
   -3.6031    1.5788    5.0168 C   0  0  0  0  0  0  0  0  0  0  0  0
   -2.1816    1.6774    3.9008 S   0  0  0  0  0  0  0  0  0  0  0  0
   -2.9632    1.2758    2.3735 C   0  0  0  0  0  0  0  0  0  0  0  0
   -2.2033    1.2315    1.1790 C   0  0  0  0  0  0  0  0  0  0  0  0
   -2.8224    0.9136    0.0273 C   0  0  0  0  0  0  0  0  0  0  0  0
   -4.1677    0.6562    0.0452 N   0  0  0  0  0  0  0  0  0  0  0  0
   -4.6382    0.4262   -0.8067 H   0  0  0  0  0  0  0  0  0  0  0  0
   -4.8622    0.7091    1.1936 C   0  0  0  0  0  0  0  0  0  0  0  0
   -6.0593    0.4741    1.1841 O   0  0  0  0  0  0  0  0  0  0  0  0
   -4.2623    1.0146    2.3424 N   0  0  0  0  0  0  0  0  0  0  0  0
   -2.1033    0.8255   -1.2917 C   0  0  0  0  0  0  0  0  0  0  0  0
   -0.7598    1.5493   -1.2215 C   0  0  0  0  0  0  0  0  0  0  0  0
   -0.0057    1.0475    0.0160 C   0  0  0  0  0  0  0  0  0  0  0  0
   -0.7346    1.5520    1.2604 C   0  0  0  0  0  0  0  0  0  0  0  0
   -6.2125    4.2747   10.8110 H   0  0  0  0  0  0  0  0  0  0  0  0
   -7.6261    3.5598    9.9992 H   0  0  0  0  0  0  0  0  0  0  0  0
   -6.7153    2.6120   11.1993 H   0  0  0  0  0  0  0  0  0  0  0  0
   -4.7598    3.1048   11.7641 H   0  0  0  0  0  0  0  0  0  0  0  0
   -2.4441    2.5473   12.3827 H   0  0  0  0  0  0  0  0  0  0  0  0
   -0.8869    1.6793   10.6876 H   0  0  0  0  0  0  0  0  0  0  0  0
   -1.6400    1.3573    8.3671 H   0  0  0  0  0  0  0  0  0  0  0  0
   -4.9984    1.7484    7.2394 H   0  0  0  0  0  0  0  0  0  0  0  0
   -4.3608    2.2975    4.7046 H   0  0  0  0  0  0  0  0  0  0  0  0
   -4.0214    0.5727    4.9844 H   0  0  0  0  0  0  0  0  0  0  0  0
   -2.7178    1.2830   -2.0671 H   0  0  0  0  0  0  0  0  0  0  0  0
   -1.9344   -0.2224   -1.5396 H   0  0  0  0  0  0  0  0  0  0  0  0
   -0.9251    2.6236   -1.1403 H   0  0  0  0  0  0  0  0  0  0  0  0
   -0.1786    1.3339   -2.1182 H   0  0  0  0  0  0  0  0  0  0  0  0
    0.0132   -0.0424    0.0179 H   0  0  0  0  0  0  0  0  0  0  0  0
    1.0140    1.4325    0.0061 H   0  0  0  0  0  0  0  0  0  0  0  0
   -0.3100    1.0751    2.1437 H   0  0  0  0  0  0  0  0  0  0  0  0
   -0.6064    2.6316    1.3389 H   0  0  0  0  0  0  0  0  0  0  0  0
  1  2  1  0  0  0  0
  1 26  1  0  0  0  0
  1 27  1  0  0  0  0
  1 28  1  0  0  0  0
  2  3  1  0  0  0  0
  3  8  2  0  0  0  0
  3  4  1  0  0  0  0
  4  5  2  0  0  0  0
  4 29  1  0  0  0  0
  5  6  1  0  0  0  0
  5 30  1  0  0  0  0
  6  7  2  0  0  0  0
  6 31  1  0  0  0  0
  7  8  1  0  0  0  0
  7 32  1  0  0  0  0
  8  9  1  0  0  0  0
  9 10  1  0  0  0  0
  9 33  1  0  0  0  0
 10 11  2  0  0  0  0
 10 12  1  0  0  0  0
 12 13  1  0  0  0  0
 12 34  1  0  0  0  0
 12 35  1  0  0  0  0
 13 14  1  0  0  0  0
 14 21  2  0  0  0  0
 14 15  1  0  0  0  0
 15 25  1  0  0  0  0
 15 16  2  0  0  0  0
 16 17  1  0  0  0  0
 16 22  1  0  0  0  0
 17 18  1  0  0  0  0
 17 19  1  0  0  0  0
 19 20  2  0  0  0  0
 19 21  1  0  0  0  0
 22 23  1  0  0  0  0
 22 36  1  0  0  0  0
 22 37  1  0  0  0  0
 23 24  1  0  0  0  0
 23 38  1  0  0  0  0
 23 39  1  0  0  0  0
 24 25  1  0  0  0  0
 24 40  1  0  0  0  0
 24 41  1  0  0  0  0
 25 42  1  0  0  0  0
 25 43  1  0  0  0  0
M  END
$$$$
ZINC04316980
  -OEChem-08230709453D

 43 45  0     0  0  0  0  0  0999 V2000
   -6.6366    3.3594   10.4050 C   0  0  0  0  0  0  0  0  0  0  0  0
   -5.7889    2.8606    9.3683 O   0  0  0  0  0  0  0  0  0  0  0  0
   -4.5093    2.5539    9.7111 C   0  0  0  0  0  0  0  0  0  0  0  0
   -4.0793    2.7286   11.0166 C   0  0  0  0  0  0  0  0  0  0  0  0
   -2.7783    2.4155   11.3639 C   0  0  0  0  0  0  0  0  0  0  0  0
   -1.9029    1.9274   10.4113 C   0  0  0  0  0  0  0  0  0  0  0  0
   -2.3254    1.7457    9.1081 C   0  0  0  0  0  0  0  0  0  0  0  0
   -3.6278    2.0627    8.7510 C   0  0  0  0  0  0  0  0  0  0  0  0
   -4.0571    1.8839    7.4291 N   0  0  0  0  0  0  0  0  0  0  0  0
   -3.1614    1.8964    6.4222 C   0  0  0  0  0  0  0  0  0  0  0  0
   -1.9995    2.1616    6.6474 O   0  0  0  0  0  0  0  0  0  0  0  0
   -3.6035    1.5807    5.0165 C   0  0  0  0  0  0  0  0  0  0  0  0
   -2.1819    1.6789    3.9006 S   0  0  0  0  0  0  0  0  0  0  0  0
   -2.9634    1.2767    2.3734 C   0  0  0  0  0  0  0  0  0  0  0  0
   -2.2034    1.2319    1.1789 C   0  0  0  0  0  0  0  0  0  0  0  0
   -2.8225    0.9141    0.0272 C   0  0  0  0  0  0  0  0  0  0  0  0
   -4.1679    0.6572    0.0450 N   0  0  0  0  0  0  0  0  0  0  0  0
   -6.4226    0.5569    2.1121 H   0  0  0  0  0  0  0  0  0  0  0  0
   -4.8624    0.7101    1.1934 C   0  0  0  0  0  0  0  0  0  0  0  0
   -6.0596    0.4755    1.1839 O   0  0  0  0  0  0  0  0  0  0  0  0
   -4.2626    1.0160    2.3422 N   0  0  0  0  0  0  0  0  0  0  0  0
   -2.1034    0.8261   -1.2918 C   0  0  0  0  0  0  0  0  0  0  0  0
   -0.7596    1.5489   -1.2215 C   0  0  0  0  0  0  0  0  0  0  0  0
   -0.0058    1.0469    0.0161 C   0  0  0  0  0  0  0  0  0  0  0  0
   -0.7347    1.5525    1.2603 C   0  0  0  0  0  0  0  0  0  0  0  0
   -6.2133    4.2788   10.8095 H   0  0  0  0  0  0  0  0  0  0  0  0
   -7.6268    3.5636    9.9978 H   0  0  0  0  0  0  0  0  0  0  0  0
   -6.7161    2.6163   11.1984 H   0  0  0  0  0  0  0  0  0  0  0  0
   -4.7607    3.1093   11.7631 H   0  0  0  0  0  0  0  0  0  0  0  0
   -2.4450    2.5520   12.3821 H   0  0  0  0  0  0  0  0  0  0  0  0
   -0.8877    1.6834   10.6874 H   0  0  0  0  0  0  0  0  0  0  0  0
   -1.6406    1.3605    8.3670 H   0  0  0  0  0  0  0  0  0  0  0  0
   -4.9989    1.7512    7.2389 H   0  0  0  0  0  0  0  0  0  0  0  0
   -4.3612    2.2993    4.7040 H   0  0  0  0  0  0  0  0  0  0  0  0
   -4.0218    0.5746    4.9844 H   0  0  0  0  0  0  0  0  0  0  0  0
   -2.7177    1.2840   -2.0671 H   0  0  0  0  0  0  0  0  0  0  0  0
   -1.9349   -0.2218   -1.5400 H   0  0  0  0  0  0  0  0  0  0  0  0
   -0.9244    2.6232   -1.1405 H   0  0  0  0  0  0  0  0  0  0  0  0
   -0.1784    1.3331   -2.1181 H   0  0  0  0  0  0  0  0  0  0  0  0
    0.0127   -0.0430    0.0182 H   0  0  0  0  0  0  0  0  0  0  0  0
    1.0141    1.4316    0.0063 H   0  0  0  0  0  0  0  0  0  0  0  0
   -0.3102    1.0759    2.1438 H   0  0  0  0  0  0  0  0  0  0  0  0
   -0.6065    2.6321    1.3384 H   0  0  0  0  0  0  0  0  0  0  0  0
  1  2  1  0  0  0  0
  1 26  1  0  0  0  0
  1 27  1  0  0  0  0
  1 28  1  0  0  0  0
  2  3  1  0  0  0  0
  3  8  2  0  0  0  0
  3  4  1  0  0  0  0
  4  5  2  0  0  0  0
  4 29  1  0  0  0  0
  5  6  1  0  0  0  0
  5 30  1  0  0  0  0
  6  7  2  0  0  0  0
  6 31  1  0  0  0  0
  7  8  1  0  0  0  0
  7 32  1  0  0  0  0
  8  9  1  0  0  0  0
  9 10  1  0  0  0  0
  9 33  1  0  0  0  0
 10 11  2  0  0  0  0
 10 12  1  0  0  0  0
 12 13  1  0  0  0  0
 12 34  1  0  0  0  0
 12 35  1  0  0  0  0
 13 14  1  0  0  0  0
 14 21  2  0  0  0  0
 14 15  1  0  0  0  0
 15 25  1  0  0  0  0
 15 16  2  0  0  0  0
 16 22  1  0  0  0  0
 16 17  1  0  0  0  0
 17 19  2  0  0  0  0
 18 20  1  0  0  0  0
 19 20  1  0  0  0  0
 19 21  1  0  0  0  0
 22 23  1  0  0  0  0
 22 36  1  0  0  0  0
 22 37  1  0  0  0  0
 23 24  1  0  0  0  0
 23 38  1  0  0  0  0
 23 39  1  0  0  0  0
 24 25  1  0  0  0  0
 24 40  1  0  0  0  0
 24 41  1  0  0  0  0
 25 42  1  0  0  0  0
 25 43  1  0  0  0  0
M  END
$$$$
ZINC04317187
  -OEChem-08230709453D

 43 45  0     0  0  0  0  0  0999 V2000
    8.1283    3.8845    0.1647 C   0  0  0  0  0  0  0  0  0  0  0  0
    8.1418    2.6077   -0.4770 O   0  0  0  0  0  0  0  0  0  0  0  0
    7.0171    1.8512   -0.3698 C   0  0  0  0  0  0  0  0  0  0  0  0
    5.9248    2.3301    0.3387 C   0  0  0  0  0  0  0  0  0  0  0  0
    4.7805    1.5635    0.4499 C   0  0  0  0  0  0  0  0  0  0  0  0
    4.7219    0.3128   -0.1472 C   0  0  0  0  0  0  0  0  0  0  0  0
    5.8200   -0.1719   -0.8541 C   0  0  0  0  0  0  0  0  0  0  0  0
    6.9634    0.6014   -0.9685 C   0  0  0  0  0  0  0  0  0  0  0  0
    5.7676   -1.4001   -1.4353 O   0  0  0  0  0  0  0  0  0  0  0  0
    6.9305   -1.8325   -2.1442 C   0  0  0  0  0  0  0  0  0  0  0  0
    3.5605   -0.4652   -0.0344 N   0  0  0  0  0  0  0  0  0  0  0  0
    2.3379    0.1412    0.0680 C   0  0  0  0  0  0  0  0  0  0  0  0
    1.2271   -0.6110    0.3060 N   0  0  0  0  0  0  0  0  0  0  0  0
    1.2942   -1.6036    0.4071 H   0  0  0  0  0  0  0  0  0  0  0  0
    0.0313    0.0144    0.4026 C   0  0  0  0  0  0  0  0  0  0  0  0
   -0.9906   -0.6165    0.6144 O   0  0  0  0  0  0  0  0  0  0  0  0
   -0.0007    1.4178    0.2508 C   0  0  0  0  0  0  0  0  0  0  0  0
    1.1170    2.0668    0.0233 N   0  0  0  0  0  0  0  0  0  0  0  0
    2.2424    1.4531   -0.0643 N   0  0  0  0  0  0  0  0  0  0  0  0
   -1.3073    2.1629    0.3431 C   0  0  0  0  0  0  0  0  0  0  0  0
   -1.0602    3.6365    0.1462 C   0  0  0  0  0  0  0  0  0  0  0  0
   -0.7945    4.4440    1.2363 C   0  0  0  0  0  0  0  0  0  0  0  0
   -0.5630    5.7945    1.0564 C   0  0  0  0  0  0  0  0  0  0  0  0
   -0.6078    6.3406   -0.2152 C   0  0  0  0  0  0  0  0  0  0  0  0
   -0.8792    5.5318   -1.3057 C   0  0  0  0  0  0  0  0  0  0  0  0
   -1.1051    4.1806   -1.1239 C   0  0  0  0  0  0  0  0  0  0  0  0
   -0.3863    7.6616   -0.3917 F   0  0  0  0  0  0  0  0  0  0  0  0
    7.3256    4.4924   -0.2526 H   0  0  0  0  0  0  0  0  0  0  0  0
    7.9653    3.7520    1.2342 H   0  0  0  0  0  0  0  0  0  0  0  0
    9.0839    4.3831    0.0018 H   0  0  0  0  0  0  0  0  0  0  0  0
    5.9690    3.3035    0.8045 H   0  0  0  0  0  0  0  0  0  0  0  0
    3.9314    1.9382    1.0022 H   0  0  0  0  0  0  0  0  0  0  0  0
    7.8144    0.2294   -1.5199 H   0  0  0  0  0  0  0  0  0  0  0  0
    6.7556   -2.8258   -2.5577 H   0  0  0  0  0  0  0  0  0  0  0  0
    7.1431   -1.1343   -2.9538 H   0  0  0  0  0  0  0  0  0  0  0  0
    7.7799   -1.8674   -1.4620 H   0  0  0  0  0  0  0  0  0  0  0  0
    3.6238   -1.4331   -0.0290 H   0  0  0  0  0  0  0  0  0  0  0  0
   -1.9867    1.8020   -0.4291 H   0  0  0  0  0  0  0  0  0  0  0  0
   -1.7516    1.9970    1.3245 H   0  0  0  0  0  0  0  0  0  0  0  0
   -0.7638    4.0185    2.2285 H   0  0  0  0  0  0  0  0  0  0  0  0
   -0.3514    6.4245    1.9077 H   0  0  0  0  0  0  0  0  0  0  0  0
   -0.9140    5.9566   -2.2980 H   0  0  0  0  0  0  0  0  0  0  0  0
   -1.3165    3.5494   -1.9744 H   0  0  0  0  0  0  0  0  0  0  0  0
  1  2  1  0  0  0  0
  1 28  1  0  0  0  0
  1 29  1  0  0  0  0
  1 30  1  0  0  0  0
  2  3  1  0  0  0  0
  3  8  2  0  0  0  0
  3  4  1  0  0  0  0
  4  5  2  0  0  0  0
  4 31  1  0  0  0  0
  5  6  1  0  0  0  0
  5 32  1  0  0  0  0
  6  7  2  0  0  0  0
  6 11  1  0  0  0  0
  7  8  1  0  0  0  0
  7  9  1  0  0  0  0
  8 33  1  0  0  0  0
  9 10  1  0  0  0  0
 10 34  1  0  0  0  0
 10 35  1  0  0  0  0
 10 36  1  0  0  0  0
 11 12  1  0  0  0  0
 11 37  1  0  0  0  0
 12 19  2  0  0  0  0
 12 13  1  0  0  0  0
 13 14  1  0  0  0  0
 13 15  1  0  0  0  0
 15 16  2  0  0  0  0
 15 17  1  0  0  0  0
 17 18  2  0  0  0  0
 17 20  1  0  0  0  0
 18 19  1  0  0  0  0
 20 21  1  0  0  0  0
 20 38  1  0  0  0  0
 20 39  1  0  0  0  0
 21 26  2  0  0  0  0
 21 22  1  0  0  0  0
 22 23  2  0  0  0  0
 22 40  1  0  0  0  0
 23 24  1  0  0  0  0
 23 41  1  0  0  0  0
 24 25  2  0  0  0  0
 24 27  1  0  0  0  0
 25 26  1  0  0  0  0
 25 42  1  0  0  0  0
 26 43  1  0  0  0  0
M  END
$$$$
ZINC04317187
  -OEChem-08230709453D

 43 45  0     0  0  0  0  0  0999 V2000
    8.1265    3.8908    0.1737 C   0  0  0  0  0  0  0  0  0  0  0  0
    8.1425    2.6115   -0.4628 O   0  0  0  0  0  0  0  0  0  0  0  0
    7.0182    1.8545   -0.3552 C   0  0  0  0  0  0  0  0  0  0  0  0
    5.9238    2.3353    0.3488 C   0  0  0  0  0  0  0  0  0  0  0  0
    4.7799    1.5682    0.4604 C   0  0  0  0  0  0  0  0  0  0  0  0
    4.7237    0.3151   -0.1318 C   0  0  0  0  0  0  0  0  0  0  0  0
    5.8239   -0.1715   -0.8341 C   0  0  0  0  0  0  0  0  0  0  0  0
    6.9669    0.6022   -0.9490 C   0  0  0  0  0  0  0  0  0  0  0  0
    5.7738   -1.4021   -1.4105 O   0  0  0  0  0  0  0  0  0  0  0  0
    6.9387   -1.8364   -2.1150 C   0  0  0  0  0  0  0  0  0  0  0  0
    3.5627   -0.4634   -0.0185 N   0  0  0  0  0  0  0  0  0  0  0  0
    2.3394    0.1424    0.0786 C   0  0  0  0  0  0  0  0  0  0  0  0
    1.2286   -0.6098    0.3170 N   0  0  0  0  0  0  0  0  0  0  0  0
    3.0712    1.9838   -0.2415 H   0  0  0  0  0  0  0  0  0  0  0  0
    0.0321    0.0150    0.4083 C   0  0  0  0  0  0  0  0  0  0  0  0
   -0.9898   -0.6158    0.6203 O   0  0  0  0  0  0  0  0  0  0  0  0
    0.0007    1.4189    0.2606 C   0  0  0  0  0  0  0  0  0  0  0  0
    1.1183    2.0679    0.0328 N   0  0  0  0  0  0  0  0  0  0  0  0
    2.2430    1.4537   -0.0596 N   0  0  0  0  0  0  0  0  0  0  0  0
   -1.3052    2.1647    0.3585 C   0  0  0  0  0  0  0  0  0  0  0  0
   -1.0574    3.6387    0.1661 C   0  0  0  0  0  0  0  0  0  0  0  0
   -0.7886    4.4423    1.2584 C   0  0  0  0  0  0  0  0  0  0  0  0
   -0.5565    5.7932    1.0826 C   0  0  0  0  0  0  0  0  0  0  0  0
   -0.6039    6.3437   -0.1871 C   0  0  0  0  0  0  0  0  0  0  0  0
   -0.8784    5.5389   -1.2797 C   0  0  0  0  0  0  0  0  0  0  0  0
   -1.1049    4.1872   -1.1020 C   0  0  0  0  0  0  0  0  0  0  0  0
   -0.3818    7.6652   -0.3595 F   0  0  0  0  0  0  0  0  0  0  0  0
    7.3243    4.4964   -0.2479 H   0  0  0  0  0  0  0  0  0  0  0  0
    7.9611    3.7625    1.2434 H   0  0  0  0  0  0  0  0  0  0  0  0
    9.0820    4.3895    0.0111 H   0  0  0  0  0  0  0  0  0  0  0  0
    5.9662    3.3106    0.8108 H   0  0  0  0  0  0  0  0  0  0  0  0
    3.9292    1.9444    1.0093 H   0  0  0  0  0  0  0  0  0  0  0  0
    7.8195    0.2287   -1.4969 H   0  0  0  0  0  0  0  0  0  0  0  0
    6.7656   -2.8315   -2.5249 H   0  0  0  0  0  0  0  0  0  0  0  0
    7.1526   -1.1413   -2.9269 H   0  0  0  0  0  0  0  0  0  0  0  0
    7.7865   -1.8679   -1.4307 H   0  0  0  0  0  0  0  0  0  0  0  0
    3.6268   -1.4312   -0.0091 H   0  0  0  0  0  0  0  0  0  0  0  0
   -1.9866    1.8069   -0.4133 H   0  0  0  0  0  0  0  0  0  0  0  0
   -1.7473    1.9957    1.3404 H   0  0  0  0  0  0  0  0  0  0  0  0
   -0.7559    4.0134    2.2490 H   0  0  0  0  0  0  0  0  0  0  0  0
   -0.3425    6.4201    1.9355 H   0  0  0  0  0  0  0  0  0  0  0  0
   -0.9152    5.9671   -2.2704 H   0  0  0  0  0  0  0  0  0  0  0  0
   -1.3187    3.5591   -1.9542 H   0  0  0  0  0  0  0  0  0  0  0  0
  1  2  1  0  0  0  0
  1 28  1  0  0  0  0
  1 29  1  0  0  0  0
  1 30  1  0  0  0  0
  2  3  1  0  0  0  0
  3  8  2  0  0  0  0
  3  4  1  0  0  0  0
  4  5  2  0  0  0  0
  4 31  1  0  0  0  0
  5  6  1  0  0  0  0
  5 32  1  0  0  0  0
  6  7  2  0  0  0  0
  6 11  1  0  0  0  0
  7  8  1  0  0  0  0
  7  9  1  0  0  0  0
  8 33  1  0  0  0  0
  9 10  1  0  0  0  0
 10 34  1  0  0  0  0
 10 35  1  0  0  0  0
 10 36  1  0  0  0  0
 11 12  1  0  0  0  0
 11 37  1  0  0  0  0
 12 19  1  0  0  0  0
 12 13  2  0  0  0  0
 13 15  1  0  0  0  0
 14 19  1  0  0  0  0
 15 16  2  0  0  0  0
 15 17  1  0  0  0  0
 17 20  1  0  0  0  0
 17 18  2  0  0  0  0
 18 19  1  0  0  0  0
 20 21  1  0  0  0  0
 20 38  1  0  0  0  0
 20 39  1  0  0  0  0
 21 26  2  0  0  0  0
 21 22  1  0  0  0  0
 22 23  2  0  0  0  0
 22 40  1  0  0  0  0
 23 24  1  0  0  0  0
 23 41  1  0  0  0  0
 24 25  2  0  0  0  0
 24 27  1  0  0  0  0
 25 26  1  0  0  0  0
 25 42  1  0  0  0  0
 26 43  1  0  0  0  0
M  END
$$$$
ZINC04317187
  -OEChem-08230709453D

 43 45  0     0  0  0  0  0  0999 V2000
    8.1274    3.8886    0.2030 C   0  0  0  0  0  0  0  0  0  0  0  0
    8.1445    2.6119   -0.4387 O   0  0  0  0  0  0  0  0  0  0  0  0
    7.0197    1.8548   -0.3369 C   0  0  0  0  0  0  0  0  0  0  0  0
    5.9239    2.3331    0.3666 C   0  0  0  0  0  0  0  0  0  0  0  0
    4.7794    1.5659    0.4723 C   0  0  0  0  0  0  0  0  0  0  0  0
    4.7243    0.3152   -0.1252 C   0  0  0  0  0  0  0  0  0  0  0  0
    5.8259   -0.1688   -0.8270 C   0  0  0  0  0  0  0  0  0  0  0  0
    6.9694    0.6051   -0.9360 C   0  0  0  0  0  0  0  0  0  0  0  0
    5.7769   -1.3970   -1.4086 O   0  0  0  0  0  0  0  0  0  0  0  0
    6.9433   -1.8287   -2.1120 C   0  0  0  0  0  0  0  0  0  0  0  0
    3.5628   -0.4634   -0.0179 N   0  0  0  0  0  0  0  0  0  0  0  0
    2.3394    0.1424    0.0788 C   0  0  0  0  0  0  0  0  0  0  0  0
    1.2271   -0.6110    0.3060 N   0  0  0  0  0  0  0  0  0  0  0  0
   -1.7680    0.0114    0.6531 H   0  0  0  0  0  0  0  0  0  0  0  0
    0.0313    0.0144    0.4026 C   0  0  0  0  0  0  0  0  0  0  0  0
   -0.9905   -0.6164    0.6149 O   0  0  0  0  0  0  0  0  0  0  0  0
    0.0007    1.4189    0.2612 C   0  0  0  0  0  0  0  0  0  0  0  0
    1.1190    2.0685    0.0386 N   0  0  0  0  0  0  0  0  0  0  0  0
    2.2445    1.4548   -0.0488 N   0  0  0  0  0  0  0  0  0  0  0  0
   -1.3051    2.1646    0.3595 C   0  0  0  0  0  0  0  0  0  0  0  0
   -1.0574    3.6387    0.1673 C   0  0  0  0  0  0  0  0  0  0  0  0
   -0.7884    4.4421    1.2597 C   0  0  0  0  0  0  0  0  0  0  0  0
   -0.5563    5.7930    1.0842 C   0  0  0  0  0  0  0  0  0  0  0  0
   -0.6039    6.3438   -0.1853 C   0  0  0  0  0  0  0  0  0  0  0  0
   -0.8786    5.5392   -1.2781 C   0  0  0  0  0  0  0  0  0  0  0  0
   -1.1050    4.1875   -1.1007 C   0  0  0  0  0  0  0  0  0  0  0  0
   -0.3818    7.6653   -0.3576 F   0  0  0  0  0  0  0  0  0  0  0  0
    7.3263    4.4962   -0.2180 H   0  0  0  0  0  0  0  0  0  0  0  0
    7.9594    3.7559    1.2718 H   0  0  0  0  0  0  0  0  0  0  0  0
    9.0835    4.3877    0.0447 H   0  0  0  0  0  0  0  0  0  0  0  0
    5.9654    3.3065    0.8327 H   0  0  0  0  0  0  0  0  0  0  0  0
    3.9276    1.9401    1.0207 H   0  0  0  0  0  0  0  0  0  0  0  0
    7.8232    0.2335   -1.4834 H   0  0  0  0  0  0  0  0  0  0  0  0
    6.7708   -2.8221   -2.5265 H   0  0  0  0  0  0  0  0  0  0  0  0
    7.1593   -1.1303   -2.9206 H   0  0  0  0  0  0  0  0  0  0  0  0
    7.7895   -1.8633   -1.4259 H   0  0  0  0  0  0  0  0  0  0  0  0
    3.6265   -1.4312   -0.0123 H   0  0  0  0  0  0  0  0  0  0  0  0
   -1.9867    1.8070   -0.4124 H   0  0  0  0  0  0  0  0  0  0  0  0
   -1.7471    1.9955    1.3414 H   0  0  0  0  0  0  0  0  0  0  0  0
   -0.7556    4.0129    2.2503 H   0  0  0  0  0  0  0  0  0  0  0  0
   -0.3422    6.4198    1.9372 H   0  0  0  0  0  0  0  0  0  0  0  0
   -0.9155    5.9676   -2.2687 H   0  0  0  0  0  0  0  0  0  0  0  0
   -1.3190    3.5596   -1.9529 H   0  0  0  0  0  0  0  0  0  0  0  0
  1  2  1  0  0  0  0
  1 28  1  0  0  0  0
  1 29  1  0  0  0  0
  1 30  1  0  0  0  0
  2  3  1  0  0  0  0
  3  8  2  0  0  0  0
  3  4  1  0  0  0  0
  4  5  2  0  0  0  0
  4 31  1  0  0  0  0
  5  6  1  0  0  0  0
  5 32  1  0  0  0  0
  6  7  2  0  0  0  0
  6 11  1  0  0  0  0
  7  8  1  0  0  0  0
  7  9  1  0  0  0  0
  8 33  1  0  0  0  0
  9 10  1  0  0  0  0
 10 34  1  0  0  0  0
 10 35  1  0  0  0  0
 10 36  1  0  0  0  0
 11 12  1  0  0  0  0
 11 37  1  0  0  0  0
 12 19  2  0  0  0  0
 12 13  1  0  0  0  0
 13 15  2  0  0  0  0
 14 16  1  0  0  0  0
 15 16  1  0  0  0  0
 15 17  1  0  0  0  0
 17 20  1  0  0  0  0
 17 18  2  0  0  0  0
 18 19  1  0  0  0  0
 20 21  1  0  0  0  0
 20 38  1  0  0  0  0
 20 39  1  0  0  0  0
 21 26  2  0  0  0  0
 21 22  1  0  0  0  0
 22 23  2  0  0  0  0
 22 40  1  0  0  0  0
 23 24  1  0  0  0  0
 23 41  1  0  0  0  0
 24 25  2  0  0  0  0
 24 27  1  0  0  0  0
 25 26  1  0  0  0  0
 25 42  1  0  0  0  0
 26 43  1  0  0  0  0
M  END
$$$$
ZINC04347637
  -OEChem-08230709453D

 42 42  0     0  0  0  0  0  0999 V2000
    4.0925   -8.9186    1.6758 C   0  0  0  0  0  0  0  0  0  0  0  0
    3.1901   -9.2807    0.4944 C   0  0  0  0  0  0  0  0  0  0  0  0
    2.7445  -10.7388    0.6212 C   0  0  0  0  0  0  0  0  0  0  0  0
    3.9628   -9.0953   -0.8130 C   0  0  0  0  0  0  0  0  0  0  0  0
    2.0234   -8.4163    0.4939 O   0  0  0  0  0  0  0  0  0  0  0  0
    2.2437   -7.0923    0.3884 C   0  0  0  0  0  0  0  0  0  0  0  0
    3.3798   -6.6706    0.2993 O   0  0  0  0  0  0  0  0  0  0  0  0
    1.2040   -6.2346    0.3817 N   0  0  0  0  0  0  0  0  0  0  0  0
    1.4437   -4.7939    0.2669 C   0  0  0  0  0  0  0  0  0  0  0  0
    0.1262   -4.0626    0.2837 C   0  0  0  0  0  0  0  0  0  0  0  0
   -0.9109   -4.6837    0.3818 O   0  0  0  0  0  0  0  0  0  0  0  0
    0.1003   -2.7184    0.1896 N   0  0  0  0  0  0  0  0  0  0  0  0
   -1.1246   -2.0385    0.2051 N   0  0  0  0  0  0  0  0  0  0  0  0
   -1.1504   -0.6943    0.1110 C   0  0  0  0  0  0  0  0  0  0  0  0
   -2.6472    0.1365    0.1300 S   0  0  0  0  0  0  0  0  0  0  0  0
    0.0021   -0.0041    0.0020 N   0  0  0  0  0  0  0  0  0  0  0  0
   -0.0157    1.3946    0.0213 C   0  0  0  0  0  0  0  0  0  0  0  0
    0.7879    2.1129   -0.8545 C   0  0  0  0  0  0  0  0  0  0  0  0
    0.7641    3.4937   -0.8365 C   0  0  0  0  0  0  0  0  0  0  0  0
   -0.0506    4.1610    0.0597 C   0  0  0  0  0  0  0  0  0  0  0  0
   -0.8478    3.4487    0.9368 C   0  0  0  0  0  0  0  0  0  0  0  0
   -0.8329    2.0678    0.9201 C   0  0  0  0  0  0  0  0  0  0  0  0
    3.5420   -9.0507    2.6073 H   0  0  0  0  0  0  0  0  0  0  0  0
    4.9683   -9.5675    1.6762 H   0  0  0  0  0  0  0  0  0  0  0  0
    4.4099   -7.8798    1.5855 H   0  0  0  0  0  0  0  0  0  0  0  0
    2.1017  -10.9967   -0.2205 H   0  0  0  0  0  0  0  0  0  0  0  0
    3.6203  -11.3877    0.6216 H   0  0  0  0  0  0  0  0  0  0  0  0
    2.1940  -10.8709    1.5526 H   0  0  0  0  0  0  0  0  0  0  0  0
    4.2803   -8.0565   -0.9033 H   0  0  0  0  0  0  0  0  0  0  0  0
    4.8386   -9.7442   -0.8126 H   0  0  0  0  0  0  0  0  0  0  0  0
    3.3200   -9.3532   -1.6547 H   0  0  0  0  0  0  0  0  0  0  0  0
    0.2971   -6.5712    0.4528 H   0  0  0  0  0  0  0  0  0  0  0  0
    1.9632   -4.5854   -0.6684 H   0  0  0  0  0  0  0  0  0  0  0  0
    2.0555   -4.4595    1.1047 H   0  0  0  0  0  0  0  0  0  0  0  0
    0.9298   -2.2216    0.1111 H   0  0  0  0  0  0  0  0  0  0  0  0
   -1.9540   -2.5352    0.2836 H   0  0  0  0  0  0  0  0  0  0  0  0
    0.8439   -0.4772   -0.0898 H   0  0  0  0  0  0  0  0  0  0  0  0
    1.4275    1.5923   -1.5518 H   0  0  0  0  0  0  0  0  0  0  0  0
    1.3858    4.0528   -1.5201 H   0  0  0  0  0  0  0  0  0  0  0  0
   -0.0641    5.2408    0.0748 H   0  0  0  0  0  0  0  0  0  0  0  0
   -1.4830    3.9729    1.6356 H   0  0  0  0  0  0  0  0  0  0  0  0
   -1.4557    1.5121    1.6054 H   0  0  0  0  0  0  0  0  0  0  0  0
  1  2  1  0  0  0  0
  1 23  1  0  0  0  0
  1 24  1  0  0  0  0
  1 25  1  0  0  0  0
  2  3  1  0  0  0  0
  2  4  1  0  0  0  0
  2  5  1  0  0  0  0
  3 26  1  0  0  0  0
  3 27  1  0  0  0  0
  3 28  1  0  0  0  0
  4 29  1  0  0  0  0
  4 30  1  0  0  0  0
  4 31  1  0  0  0  0
  5  6  1  0  0  0  0
  6  7  2  0  0  0  0
  6  8  1  0  0  0  0
  8  9  1  0  0  0  0
  8 32  1  0  0  0  0
  9 10  1  0  0  0  0
  9 33  1  0  0  0  0
  9 34  1  0  0  0  0
 10 11  2  0  0  0  0
 10 12  1  0  0  0  0
 12 13  1  0  0  0  0
 12 35  1  0  0  0  0
 13 14  1  0  0  0  0
 13 36  1  0  0  0  0
 14 15  2  0  0  0  0
 14 16  1  0  0  0  0
 16 17  1  0  0  0  0
 16 37  1  0  0  0  0
 17 22  2  0  0  0  0
 17 18  1  0  0  0  0
 18 19  2  0  0  0  0
 18 38  1  0  0  0  0
 19 20  1  0  0  0  0
 19 39  1  0  0  0  0
 20 21  2  0  0  0  0
 20 40  1  0  0  0  0
 21 22  1  0  0  0  0
 21 41  1  0  0  0  0
 22 42  1  0  0  0  0
M  END
$$$$
ZINC04354241
  -OEChem-08230709453D

 44 46  0     1  0  0  0  0  0999 V2000
    1.1682    2.0860   -0.0167 C   0  0  0  0  0  0  0  0  0  0  0  0
    2.1113    1.4123   -0.7709 C   0  0  0  0  0  0  0  0  0  0  0  0
    2.1370    0.0314   -0.7742 C   0  0  0  0  0  0  0  0  0  0  0  0
    1.2143   -0.6805   -0.0189 C   0  0  0  0  0  0  0  0  0  0  0  0
    0.2684   -0.0009    0.7374 C   0  0  0  0  0  0  0  0  0  0  0  0
    0.2481    1.3801    0.7364 C   0  0  0  0  0  0  0  0  0  0  0  0
    1.2373   -2.0795   -0.0204 N   0  0  0  0  0  0  0  0  0  0  0  0
    2.4096   -2.7341   -0.1369 C   0  0  0  0  0  0  0  0  0  0  0  0
    3.4521   -2.1143   -0.1440 O   0  0  0  0  0  0  0  0  0  0  0  0
    2.4252   -4.2361   -0.2581 C   0  0  0  0  0  0  0  0  0  0  0  0
    3.8707   -4.7234   -0.3760 C   0  0  2  0  0  0  0  0  0  0  0  0
    4.4123   -4.1703   -1.1435 H   0  0  0  0  0  0  0  0  0  0  0  0
    3.9332   -6.2257   -0.6241 C   0  0  0  0  0  0  0  0  0  0  0  0
    3.4662   -6.7525   -1.6151 O   0  0  0  0  0  0  0  0  0  0  0  0
    4.5336   -6.8977    0.3226 N   0  0  0  0  0  0  0  0  0  0  0  0
    5.0509   -6.3505    1.4107 C   0  0  0  0  0  0  0  0  0  0  0  0
    4.7372   -4.6511    1.2423 S   0  0  0  0  0  0  0  0  0  0  0  0
    5.6893   -6.9818    2.4374 N   0  0  0  0  0  0  0  0  0  0  0  0
    5.8642   -8.4360    2.4076 C   0  0  0  0  0  0  0  0  0  0  0  0
    4.6102   -9.1121    2.9657 C   0  0  0  0  0  0  0  0  0  0  0  0
    4.7929  -10.6308    2.9345 C   0  0  0  0  0  0  0  0  0  0  0  0
    6.0029  -11.0166    3.7877 C   0  0  0  0  0  0  0  0  0  0  0  0
    7.2568  -10.3406    3.2296 C   0  0  0  0  0  0  0  0  0  0  0  0
    7.0742   -8.8218    3.2608 C   0  0  0  0  0  0  0  0  0  0  0  0
    1.1503    3.1659   -0.0158 H   0  0  0  0  0  0  0  0  0  0  0  0
    2.8315    1.9666   -1.3546 H   0  0  0  0  0  0  0  0  0  0  0  0
    2.8736   -0.4942   -1.3637 H   0  0  0  0  0  0  0  0  0  0  0  0
   -0.4507   -0.5517    1.3255 H   0  0  0  0  0  0  0  0  0  0  0  0
   -0.4870    1.9092    1.3247 H   0  0  0  0  0  0  0  0  0  0  0  0
    0.4094   -2.5783    0.0623 H   0  0  0  0  0  0  0  0  0  0  0  0
    1.9642   -4.6768    0.6259 H   0  0  0  0  0  0  0  0  0  0  0  0
    1.8676   -4.5348   -1.1458 H   0  0  0  0  0  0  0  0  0  0  0  0
    6.0275   -6.4680    3.1874 H   0  0  0  0  0  0  0  0  0  0  0  0
    6.0256   -8.7616    1.3799 H   0  0  0  0  0  0  0  0  0  0  0  0
    4.4488   -8.7866    3.9933 H   0  0  0  0  0  0  0  0  0  0  0  0
    3.7482   -8.8373    2.3578 H   0  0  0  0  0  0  0  0  0  0  0  0
    4.9543  -10.9564    1.9068 H   0  0  0  0  0  0  0  0  0  0  0  0
    3.8995  -11.1125    3.3321 H   0  0  0  0  0  0  0  0  0  0  0  0
    6.1330  -12.0986    3.7655 H   0  0  0  0  0  0  0  0  0  0  0  0
    5.8414  -10.6911    4.8154 H   0  0  0  0  0  0  0  0  0  0  0  0
    7.4183  -10.6661    2.2020 H   0  0  0  0  0  0  0  0  0  0  0  0
    8.1188  -10.6154    3.8375 H   0  0  0  0  0  0  0  0  0  0  0  0
    7.9675   -8.3402    2.8632 H   0  0  0  0  0  0  0  0  0  0  0  0
    6.9127   -8.4963    4.2885 H   0  0  0  0  0  0  0  0  0  0  0  0
  1  6  2  0  0  0  0
  1  2  1  0  0  0  0
  1 25  1  0  0  0  0
  2  3  2  0  0  0  0
  2 26  1  0  0  0  0
  3  4  1  0  0  0  0
  3 27  1  0  0  0  0
  4  5  2  0  0  0  0
  4  7  1  0  0  0  0
  5  6  1  0  0  0  0
  5 28  1  0  0  0  0
  6 29  1  0  0  0  0
  7  8  1  0  0  0  0
  7 30  1  0  0  0  0
  8  9  2  0  0  0  0
  8 10  1  0  0  0  0
 10 11  1  0  0  0  0
 10 31  1  0  0  0  0
 10 32  1  0  0  0  0
 11 12  1  0  0  0  0
 11 17  1  0  0  0  0
 11 13  1  0  0  0  0
 13 14  2  0  0  0  0
 13 15  1  0  0  0  0
 15 16  2  0  0  0  0
 16 17  1  0  0  0  0
 16 18  1  0  0  0  0
 18 19  1  0  0  0  0
 18 33  1  0  0  0  0
 19 24  1  0  0  0  0
 19 20  1  0  0  0  0
 19 34  1  0  0  0  0
 20 21  1  0  0  0  0
 20 35  1  0  0  0  0
 20 36  1  0  0  0  0
 21 22  1  0  0  0  0
 21 37  1  0  0  0  0
 21 38  1  0  0  0  0
 22 23  1  0  0  0  0
 22 39  1  0  0  0  0
 22 40  1  0  0  0  0
 23 24  1  0  0  0  0
 23 41  1  0  0  0  0
 23 42  1  0  0  0  0
 24 43  1  0  0  0  0
 24 44  1  0  0  0  0
M  END
$$$$
ZINC04355893
  -OEChem-08230709453D

 41 44  0     0  0  0  0  0  0999 V2000
    6.8243    7.4764    3.2845 C   0  0  0  0  0  0  0  0  0  0  0  0
    5.8027    8.0492    4.0193 C   0  0  0  0  0  0  0  0  0  0  0  0
    4.5549    8.2214    3.4508 C   0  0  0  0  0  0  0  0  0  0  0  0
    4.3295    7.8252    2.1443 C   0  0  0  0  0  0  0  0  0  0  0  0
    5.3505    7.2474    1.4115 C   0  0  0  0  0  0  0  0  0  0  0  0
    6.5984    7.0760    1.9810 C   0  0  0  0  0  0  0  0  0  0  0  0
    5.1042    6.8103   -0.0096 C   0  0  0  0  0  0  0  0  0  0  0  0
    4.4258    5.5119   -0.0106 N   0  0  0  0  0  0  0  0  0  0  0  0
    3.0760    5.2956    0.0012 C   0  0  0  0  0  0  0  0  0  0  0  0
    2.9056    3.9001   -0.0047 C   0  0  0  0  0  0  0  0  0  0  0  0
    1.5898    3.3947    0.0051 C   0  0  0  0  0  0  0  0  0  0  0  0
    0.5802    4.2572    0.0139 N   0  0  0  0  0  0  0  0  0  0  0  0
    0.7925    5.5610    0.0244 C   0  0  0  0  0  0  0  0  0  0  0  0
    2.0014    6.0797    0.0157 N   0  0  0  0  0  0  0  0  0  0  0  0
   -0.3948    6.4890    0.0408 C   0  0  0  0  0  0  0  0  0  0  0  0
   -1.7757    5.8657    0.2541 C   0  0  0  0  0  0  0  0  0  0  0  0
   -1.3805    6.3957   -1.1257 C   0  0  0  0  0  0  0  0  0  0  0  0
    1.3557    2.0329    0.0000 N   0  0  0  0  0  0  0  0  0  0  0  0
   -0.0187    1.5258    0.0104 C   0  0  0  0  0  0  0  0  0  0  0  0
    0.0021   -0.0041    0.0020 C   0  0  0  0  0  0  0  0  0  0  0  0
    0.5895   -0.4792    1.2150 O   0  0  0  0  0  0  0  0  0  0  0  0
    4.1255    3.3363   -0.0195 N   0  0  0  0  0  0  0  0  0  0  0  0
    5.0347    4.2478   -0.0232 N   0  0  0  0  0  0  0  0  0  0  0  0
    2.7642    8.0478    1.4272 Cl  0  0  0  0  0  0  0  0  0  0  0  0
    7.7993    7.3420    3.7292 H   0  0  0  0  0  0  0  0  0  0  0  0
    5.9800    8.3625    5.0375 H   0  0  0  0  0  0  0  0  0  0  0  0
    3.7569    8.6685    4.0250 H   0  0  0  0  0  0  0  0  0  0  0  0
    7.3968    6.6290    1.4074 H   0  0  0  0  0  0  0  0  0  0  0  0
    6.0563    6.7232   -0.5331 H   0  0  0  0  0  0  0  0  0  0  0  0
    4.4788    7.5474   -0.5132 H   0  0  0  0  0  0  0  0  0  0  0  0
   -0.2153    7.4745    0.4705 H   0  0  0  0  0  0  0  0  0  0  0  0
   -1.8255    4.7844    0.3826 H   0  0  0  0  0  0  0  0  0  0  0  0
   -2.5050    6.4411    0.8243 H   0  0  0  0  0  0  0  0  0  0  0  0
   -1.8497    7.3198   -1.4632 H   0  0  0  0  0  0  0  0  0  0  0  0
   -1.1702    5.6631   -1.9049 H   0  0  0  0  0  0  0  0  0  0  0  0
    2.1015    1.4126   -0.0104 H   0  0  0  0  0  0  0  0  0  0  0  0
   -0.5459    1.8868   -0.8726 H   0  0  0  0  0  0  0  0  0  0  0  0
   -0.5289    1.8773    0.9072 H   0  0  0  0  0  0  0  0  0  0  0  0
   -1.0175   -0.3808   -0.0798 H   0  0  0  0  0  0  0  0  0  0  0  0
    0.5883   -0.3548   -0.8473 H   0  0  0  0  0  0  0  0  0  0  0  0
    0.6355   -1.4430    1.2786 H   0  0  0  0  0  0  0  0  0  0  0  0
  1  6  2  0  0  0  0
  1  2  1  0  0  0  0
  1 25  1  0  0  0  0
  2  3  2  0  0  0  0
  2 26  1  0  0  0  0
  3  4  1  0  0  0  0
  3 27  1  0  0  0  0
  4  5  2  0  0  0  0
  4 24  1  0  0  0  0
  5  6  1  0  0  0  0
  5  7  1  0  0  0  0
  6 28  1  0  0  0  0
  7  8  1  0  0  0  0
  7 29  1  0  0  0  0
  7 30  1  0  0  0  0
  8 23  1  0  0  0  0
  8  9  1  0  0  0  0
  9 14  2  0  0  0  0
  9 10  1  0  0  0  0
 10 11  2  0  0  0  0
 10 22  1  0  0  0  0
 11 12  1  0  0  0  0
 11 18  1  0  0  0  0
 12 13  2  0  0  0  0
 13 14  1  0  0  0  0
 13 15  1  0  0  0  0
 15 17  1  0  0  0  0
 15 16  1  0  0  0  0
 15 31  1  0  0  0  0
 16 17  1  0  0  0  0
 16 32  1  0  0  0  0
 16 33  1  0  0  0  0
 17 34  1  0  0  0  0
 17 35  1  0  0  0  0
 18 19  1  0  0  0  0
 18 36  1  0  0  0  0
 19 20  1  0  0  0  0
 19 37  1  0  0  0  0
 19 38  1  0  0  0  0
 20 21  1  0  0  0  0
 20 39  1  0  0  0  0
 20 40  1  0  0  0  0
 21 41  1  0  0  0  0
 22 23  2  0  0  0  0
M  END
$$$$
ZINC04374976
  -OEChem-08230709453D

 41 43  0     0  0  0  0  0  0999 V2000
    7.6620    0.0038   -0.5294 C   0  0  0  0  0  0  0  0  0  0  0  0
    7.1830    1.3873   -0.4766 N   0  0  0  0  0  0  0  0  0  0  0  0
    5.8833    1.7785   -0.3489 C   0  0  0  0  0  0  0  0  0  0  0  0
    5.8866    3.1870   -0.3432 C   0  0  0  0  0  0  0  0  0  0  0  0
    7.2313    3.5975   -0.4718 C   0  0  0  0  0  0  0  0  0  0  0  0
    7.9815    2.5356   -0.5491 N   0  0  0  0  0  0  0  0  0  0  0  0
    4.6545    3.8596   -0.2212 C   0  0  0  0  0  0  0  0  0  0  0  0
    3.5460    3.1368   -0.1172 N   0  0  0  0  0  0  0  0  0  0  0  0
    3.5885    1.8095   -0.1270 C   0  0  0  0  0  0  0  0  0  0  0  0
    4.7219    1.1368   -0.2343 N   0  0  0  0  0  0  0  0  0  0  0  0
    2.4024    1.1037   -0.0149 N   0  0  0  0  0  0  0  0  0  0  0  0
    1.1795    1.7858   -0.0110 C   0  0  0  0  0  0  0  0  0  0  0  0
    1.0242    2.9379   -0.7707 C   0  0  0  0  0  0  0  0  0  0  0  0
   -0.1821    3.6102   -0.7670 C   0  0  0  0  0  0  0  0  0  0  0  0
   -1.2390    3.1353   -0.0049 C   0  0  0  0  0  0  0  0  0  0  0  0
   -1.0869    1.9810    0.7508 C   0  0  0  0  0  0  0  0  0  0  0  0
    0.1215    1.3103    0.7520 C   0  0  0  0  0  0  0  0  0  0  0  0
   -2.4124    1.3835    1.6993 Cl  0  0  0  0  0  0  0  0  0  0  0  0
   -2.4268    3.7979   -0.0023 O   0  0  0  0  0  0  0  0  0  0  0  0
   -2.5148    4.9751   -0.8075 C   0  0  0  0  0  0  0  0  0  0  0  0
    4.6013    5.2394   -0.2106 N   0  0  0  0  0  0  0  0  0  0  0  0
    3.3112    5.9218   -0.0835 C   0  0  0  0  0  0  0  0  0  0  0  0
    3.5313    7.4358   -0.0988 C   0  0  0  0  0  0  0  0  0  0  0  0
    4.0434    7.8299   -1.3733 O   0  0  0  0  0  0  0  0  0  0  0  0
    7.6817   -0.3346   -1.5653 H   0  0  0  0  0  0  0  0  0  0  0  0
    8.6670   -0.0490   -0.1107 H   0  0  0  0  0  0  0  0  0  0  0  0
    6.9936   -0.6344    0.0487 H   0  0  0  0  0  0  0  0  0  0  0  0
    7.5791    4.6196   -0.5011 H   0  0  0  0  0  0  0  0  0  0  0  0
    2.4187    0.1368    0.0609 H   0  0  0  0  0  0  0  0  0  0  0  0
    1.8471    3.3084   -1.3641 H   0  0  0  0  0  0  0  0  0  0  0  0
   -0.3026    4.5060   -1.3582 H   0  0  0  0  0  0  0  0  0  0  0  0
    0.2414    0.4141    1.3428 H   0  0  0  0  0  0  0  0  0  0  0  0
   -1.7739    5.7009   -0.4721 H   0  0  0  0  0  0  0  0  0  0  0  0
   -2.3254    4.7176   -1.8495 H   0  0  0  0  0  0  0  0  0  0  0  0
   -3.5122    5.4049   -0.7149 H   0  0  0  0  0  0  0  0  0  0  0  0
    5.4182    5.7569   -0.2873 H   0  0  0  0  0  0  0  0  0  0  0  0
    2.6674    5.6398   -0.9167 H   0  0  0  0  0  0  0  0  0  0  0  0
    2.8382    5.6328    0.8550 H   0  0  0  0  0  0  0  0  0  0  0  0
    2.5838    7.9425    0.0846 H   0  0  0  0  0  0  0  0  0  0  0  0
    4.2449    7.7070    0.6792 H   0  0  0  0  0  0  0  0  0  0  0  0
    4.2073    8.7794   -1.4549 H   0  0  0  0  0  0  0  0  0  0  0  0
  1  2  1  0  0  0  0
  1 25  1  0  0  0  0
  1 26  1  0  0  0  0
  1 27  1  0  0  0  0
  2  6  1  0  0  0  0
  2  3  1  0  0  0  0
  3 10  2  0  0  0  0
  3  4  1  0  0  0  0
  4  5  1  0  0  0  0
  4  7  2  0  0  0  0
  5  6  2  0  0  0  0
  5 28  1  0  0  0  0
  7  8  1  0  0  0  0
  7 21  1  0  0  0  0
  8  9  2  0  0  0  0
  9 10  1  0  0  0  0
  9 11  1  0  0  0  0
 11 12  1  0  0  0  0
 11 29  1  0  0  0  0
 12 17  2  0  0  0  0
 12 13  1  0  0  0  0
 13 14  2  0  0  0  0
 13 30  1  0  0  0  0
 14 15  1  0  0  0  0
 14 31  1  0  0  0  0
 15 16  2  0  0  0  0
 15 19  1  0  0  0  0
 16 17  1  0  0  0  0
 16 18  1  0  0  0  0
 17 32  1  0  0  0  0
 19 20  1  0  0  0  0
 20 33  1  0  0  0  0
 20 34  1  0  0  0  0
 20 35  1  0  0  0  0
 21 22  1  0  0  0  0
 21 36  1  0  0  0  0
 22 23  1  0  0  0  0
 22 37  1  0  0  0  0
 22 38  1  0  0  0  0
 23 24  1  0  0  0  0
 23 39  1  0  0  0  0
 23 40  1  0  0  0  0
 24 41  1  0  0  0  0
M  END
$$$$
ZINC04387002
  -OEChem-08230709453D

 41 43  0     1  0  0  0  0  0999 V2000
    2.8925   -1.4289   -5.5378 C   0  0  0  0  0  0  0  0  0  0  0  0
    1.6006   -1.8329   -5.0798 O   0  0  0  0  0  0  0  0  0  0  0  0
    1.2147   -1.3913   -3.8538 C   0  0  0  0  0  0  0  0  0  0  0  0
   -0.0272   -1.7454   -3.3469 C   0  0  0  0  0  0  0  0  0  0  0  0
   -0.4169   -1.2956   -2.1002 C   0  0  0  0  0  0  0  0  0  0  0  0
    0.4297   -0.4933   -1.3577 C   0  0  0  0  0  0  0  0  0  0  0  0
    1.6657   -0.1344   -1.8630 C   0  0  0  0  0  0  0  0  0  0  0  0
    2.0623   -0.5862   -3.1068 C   0  0  0  0  0  0  0  0  0  0  0  0
    0.0021   -0.0041    0.0020 C   0  0  2  0  0  0  0  0  0  0  0  0
   -0.9951   -0.3823    0.2273 H   0  0  0  0  0  0  0  0  0  0  0  0
   -0.0187    1.5255    0.0104 C   0  0  0  0  0  0  0  0  0  0  0  0
    1.3903    2.0547   -0.0002 C   0  0  0  0  0  0  0  0  0  0  0  0
    1.6406    3.0785   -0.5999 O   0  0  0  0  0  0  0  0  0  0  0  0
    2.3759    1.4064    0.6468 N   0  0  0  0  0  0  0  0  0  0  0  0
    2.1188    0.2255    1.3228 C   0  0  0  0  0  0  0  0  0  0  0  0
    0.9722   -0.4976    1.0407 C   0  0  0  0  0  0  0  0  0  0  0  0
    0.7304   -1.6875    1.7329 C   0  0  0  0  0  0  0  0  0  0  0  0
   -0.2713   -2.3475    1.5064 O   0  0  0  0  0  0  0  0  0  0  0  0
    1.6281   -2.0923    2.6572 N   0  0  0  0  0  0  0  0  0  0  0  0
    1.4753   -2.9406    3.1641 H   0  0  0  0  0  0  0  0  0  0  0  0
    2.7415   -1.3459    2.8994 C   0  0  0  0  0  0  0  0  0  0  0  0
    2.9726   -0.2236    2.2488 N   0  0  0  0  0  0  0  0  0  0  0  0
    3.8985   -1.8932    4.1104 S   0  0  0  0  0  0  0  0  0  0  0  0
    5.1192   -0.5611    4.0035 C   0  0  0  0  0  0  0  0  0  0  0  0
    6.2363   -0.8239    4.9802 C   0  0  0  0  0  0  0  0  0  0  0  0
    7.4482   -1.0587    4.5415 C   0  0  0  0  0  0  0  0  0  0  0  0
    2.9351   -0.3410   -5.5915 H   0  0  0  0  0  0  0  0  0  0  0  0
    3.6527   -1.7885   -4.8444 H   0  0  0  0  0  0  0  0  0  0  0  0
    3.0750   -1.8489   -6.5269 H   0  0  0  0  0  0  0  0  0  0  0  0
   -0.6887   -2.3724   -3.9263 H   0  0  0  0  0  0  0  0  0  0  0  0
   -1.3834   -1.5713   -1.7050 H   0  0  0  0  0  0  0  0  0  0  0  0
    2.3232    0.4964   -1.2832 H   0  0  0  0  0  0  0  0  0  0  0  0
    3.0297   -0.3092   -3.4992 H   0  0  0  0  0  0  0  0  0  0  0  0
   -0.5476    1.8856   -0.8720 H   0  0  0  0  0  0  0  0  0  0  0  0
   -0.5306    1.8760    0.9066 H   0  0  0  0  0  0  0  0  0  0  0  0
    3.2751    1.7701    0.6402 H   0  0  0  0  0  0  0  0  0  0  0  0
    5.5233   -0.5189    2.9920 H   0  0  0  0  0  0  0  0  0  0  0  0
    4.6422    0.3890    4.2441 H   0  0  0  0  0  0  0  0  0  0  0  0
    6.0379   -0.8186    6.0418 H   0  0  0  0  0  0  0  0  0  0  0  0
    7.6466   -1.0640    3.4799 H   0  0  0  0  0  0  0  0  0  0  0  0
    8.2488   -1.2470    5.2415 H   0  0  0  0  0  0  0  0  0  0  0  0
  1  2  1  0  0  0  0
  1 27  1  0  0  0  0
  1 28  1  0  0  0  0
  1 29  1  0  0  0  0
  2  3  1  0  0  0  0
  3  8  2  0  0  0  0
  3  4  1  0  0  0  0
  4  5  2  0  0  0  0
  4 30  1  0  0  0  0
  5  6  1  0  0  0  0
  5 31  1  0  0  0  0
  6  7  2  0  0  0  0
  6  9  1  0  0  0  0
  7  8  1  0  0  0  0
  7 32  1  0  0  0  0
  8 33  1  0  0  0  0
  9 10  1  0  0  0  0
  9 16  1  0  0  0  0
  9 11  1  0  0  0  0
 11 12  1  0  0  0  0
 11 34  1  0  0  0  0
 11 35  1  0  0  0  0
 12 13  2  0  0  0  0
 12 14  1  0  0  0  0
 14 15  1  0  0  0  0
 14 36  1  0  0  0  0
 15 22  1  0  0  0  0
 15 16  2  0  0  0  0
 16 17  1  0  0  0  0
 17 18  2  0  0  0  0
 17 19  1  0  0  0  0
 19 20  1  0  0  0  0
 19 21  1  0  0  0  0
 21 22  2  0  0  0  0
 21 23  1  0  0  0  0
 23 24  1  0  0  0  0
 24 25  1  0  0  0  0
 24 37  1  0  0  0  0
 24 38  1  0  0  0  0
 25 26  2  0  0  0  0
 25 39  1  0  0  0  0
 26 40  1  0  0  0  0
 26 41  1  0  0  0  0
M  END
$$$$
ZINC04387002
  -OEChem-08230709453D

 41 43  0     1  0  0  0  0  0999 V2000
    2.8943   -1.4316   -5.5377 C   0  0  0  0  0  0  0  0  0  0  0  0
    1.6023   -1.8353   -5.0799 O   0  0  0  0  0  0  0  0  0  0  0  0
    1.2161   -1.3933   -3.8541 C   0  0  0  0  0  0  0  0  0  0  0  0
   -0.0259   -1.7472   -3.3474 C   0  0  0  0  0  0  0  0  0  0  0  0
   -0.4158   -1.2970   -2.1009 C   0  0  0  0  0  0  0  0  0  0  0  0
    0.4307   -0.4945   -1.3585 C   0  0  0  0  0  0  0  0  0  0  0  0
    1.6668   -0.1358   -1.8636 C   0  0  0  0  0  0  0  0  0  0  0  0
    2.0636   -0.5880   -3.1072 C   0  0  0  0  0  0  0  0  0  0  0  0
    0.0028   -0.0048    0.0010 C   0  0  2  0  0  0  0  0  0  0  0  0
   -0.9945   -0.3829    0.2262 H   0  0  0  0  0  0  0  0  0  0  0  0
   -0.0179    1.5248    0.0089 C   0  0  0  0  0  0  0  0  0  0  0  0
    1.3911    2.0539   -0.0016 C   0  0  0  0  0  0  0  0  0  0  0  0
    1.6416    3.0775   -0.6015 O   0  0  0  0  0  0  0  0  0  0  0  0
    2.3766    1.4057    0.6459 N   0  0  0  0  0  0  0  0  0  0  0  0
    2.1192    0.2250    1.3222 C   0  0  0  0  0  0  0  0  0  0  0  0
    0.9727   -0.4981    1.0401 C   0  0  0  0  0  0  0  0  0  0  0  0
    0.7307   -1.6878    1.7325 C   0  0  0  0  0  0  0  0  0  0  0  0
   -0.2710   -2.3478    1.5060 O   0  0  0  0  0  0  0  0  0  0  0  0
    1.6286   -2.0929    2.6564 N   0  0  0  0  0  0  0  0  0  0  0  0
    3.8003    0.3002    2.4501 H   0  0  0  0  0  0  0  0  0  0  0  0
    2.7420   -1.3464    2.8986 C   0  0  0  0  0  0  0  0  0  0  0  0
    2.9731   -0.2241    2.2481 N   0  0  0  0  0  0  0  0  0  0  0  0
    3.8994   -1.8941    4.1092 S   0  0  0  0  0  0  0  0  0  0  0  0
    5.1199   -0.5618    4.0025 C   0  0  0  0  0  0  0  0  0  0  0  0
    6.2373   -0.8249    4.9788 C   0  0  0  0  0  0  0  0  0  0  0  0
    7.4491   -1.0594    4.5397 C   0  0  0  0  0  0  0  0  0  0  0  0
    2.9370   -0.3437   -5.5918 H   0  0  0  0  0  0  0  0  0  0  0  0
    3.6543   -1.7910   -4.8441 H   0  0  0  0  0  0  0  0  0  0  0  0
    3.0770   -1.8519   -6.5267 H   0  0  0  0  0  0  0  0  0  0  0  0
   -0.6873   -2.3743   -3.9267 H   0  0  0  0  0  0  0  0  0  0  0  0
   -1.3824   -1.5725   -1.7058 H   0  0  0  0  0  0  0  0  0  0  0  0
    2.3242    0.4951   -1.2839 H   0  0  0  0  0  0  0  0  0  0  0  0
    3.0311   -0.3112   -3.4995 H   0  0  0  0  0  0  0  0  0  0  0  0
   -0.5466    1.8846   -0.8737 H   0  0  0  0  0  0  0  0  0  0  0  0
   -0.5300    1.8756    0.9049 H   0  0  0  0  0  0  0  0  0  0  0  0
    3.2758    1.7694    0.6393 H   0  0  0  0  0  0  0  0  0  0  0  0
    5.5238   -0.5192    2.9909 H   0  0  0  0  0  0  0  0  0  0  0  0
    4.6429    0.3881    4.2436 H   0  0  0  0  0  0  0  0  0  0  0  0
    6.0391   -0.8200    6.0405 H   0  0  0  0  0  0  0  0  0  0  0  0
    7.6472   -1.0643    3.4781 H   0  0  0  0  0  0  0  0  0  0  0  0
    8.2499   -1.2479    5.2395 H   0  0  0  0  0  0  0  0  0  0  0  0
  1  2  1  0  0  0  0
  1 27  1  0  0  0  0
  1 28  1  0  0  0  0
  1 29  1  0  0  0  0
  2  3  1  0  0  0  0
  3  8  2  0  0  0  0
  3  4  1  0  0  0  0
  4  5  2  0  0  0  0
  4 30  1  0  0  0  0
  5  6  1  0  0  0  0
  5 31  1  0  0  0  0
  6  7  2  0  0  0  0
  6  9  1  0  0  0  0
  7  8  1  0  0  0  0
  7 32  1  0  0  0  0
  8 33  1  0  0  0  0
  9 10  1  0  0  0  0
  9 16  1  0  0  0  0
  9 11  1  0  0  0  0
 11 12  1  0  0  0  0
 11 34  1  0  0  0  0
 11 35  1  0  0  0  0
 12 13  2  0  0  0  0
 12 14  1  0  0  0  0
 14 15  1  0  0  0  0
 14 36  1  0  0  0  0
 15 16  2  0  0  0  0
 15 22  1  0  0  0  0
 16 17  1  0  0  0  0
 17 19  1  0  0  0  0
 17 18  2  0  0  0  0
 19 21  2  0  0  0  0
 20 22  1  0  0  0  0
 21 23  1  0  0  0  0
 21 22  1  0  0  0  0
 23 24  1  0  0  0  0
 24 25  1  0  0  0  0
 24 37  1  0  0  0  0
 24 38  1  0  0  0  0
 25 26  2  0  0  0  0
 25 39  1  0  0  0  0
 26 40  1  0  0  0  0
 26 41  1  0  0  0  0
M  END
$$$$
ZINC04387002
  -OEChem-08230709453D

 41 43  0     1  0  0  0  0  0999 V2000
    2.8988   -1.4425   -5.5372 C   0  0  0  0  0  0  0  0  0  0  0  0
    1.6063   -1.8450   -5.0796 O   0  0  0  0  0  0  0  0  0  0  0  0
    1.2197   -1.4012   -3.8546 C   0  0  0  0  0  0  0  0  0  0  0  0
   -0.0228   -1.7537   -3.3481 C   0  0  0  0  0  0  0  0  0  0  0  0
   -0.4132   -1.3017   -2.1024 C   0  0  0  0  0  0  0  0  0  0  0  0
    0.4333   -0.4987   -1.3606 C   0  0  0  0  0  0  0  0  0  0  0  0
    1.6699   -0.1413   -1.8655 C   0  0  0  0  0  0  0  0  0  0  0  0
    2.0672   -0.5954   -3.1082 C   0  0  0  0  0  0  0  0  0  0  0  0
    0.0049   -0.0070   -0.0020 C   0  0  2  0  0  0  0  0  0  0  0  0
   -0.9927   -0.3843    0.2231 H   0  0  0  0  0  0  0  0  0  0  0  0
   -0.0150    1.5229    0.0045 C   0  0  0  0  0  0  0  0  0  0  0  0
    1.3945    2.0510   -0.0064 C   0  0  0  0  0  0  0  0  0  0  0  0
    1.6458    3.0736   -0.6076 O   0  0  0  0  0  0  0  0  0  0  0  0
    2.3791    1.4031    0.6423 N   0  0  0  0  0  0  0  0  0  0  0  0
    2.1210    0.2232    1.3197 C   0  0  0  0  0  0  0  0  0  0  0  0
    0.9739   -0.4994    1.0383 C   0  0  0  0  0  0  0  0  0  0  0  0
    0.7299   -1.6870    1.7336 C   0  0  0  0  0  0  0  0  0  0  0  0
   -0.2722   -2.3466    1.5077 O   0  0  0  0  0  0  0  0  0  0  0  0
    1.6276   -2.0918    2.6579 N   0  0  0  0  0  0  0  0  0  0  0  0
   -0.8153   -1.8958    0.7993 H   0  0  0  0  0  0  0  0  0  0  0  0
    2.7420   -1.3465    2.8986 C   0  0  0  0  0  0  0  0  0  0  0  0
    2.9741   -0.2251    2.2467 N   0  0  0  0  0  0  0  0  0  0  0  0
    3.8994   -1.8941    4.1091 S   0  0  0  0  0  0  0  0  0  0  0  0
    5.1204   -0.5623    4.0019 C   0  0  0  0  0  0  0  0  0  0  0  0
    6.2378   -0.8254    4.9781 C   0  0  0  0  0  0  0  0  0  0  0  0
    7.4494   -1.0605    4.5389 C   0  0  0  0  0  0  0  0  0  0  0  0
    2.9421   -0.3547   -5.5926 H   0  0  0  0  0  0  0  0  0  0  0  0
    3.6583   -1.8014   -4.8426 H   0  0  0  0  0  0  0  0  0  0  0  0
    3.0818   -1.8642   -6.5255 H   0  0  0  0  0  0  0  0  0  0  0  0
   -0.6842   -2.3813   -3.9270 H   0  0  0  0  0  0  0  0  0  0  0  0
   -1.3802   -1.5762   -1.7075 H   0  0  0  0  0  0  0  0  0  0  0  0
    2.3273    0.4901   -1.2862 H   0  0  0  0  0  0  0  0  0  0  0  0
    3.0351   -0.3195   -3.5003 H   0  0  0  0  0  0  0  0  0  0  0  0
   -0.5432    1.8821   -0.8787 H   0  0  0  0  0  0  0  0  0  0  0  0
   -0.5269    1.8752    0.8999 H   0  0  0  0  0  0  0  0  0  0  0  0
    3.2785    1.7664    0.6357 H   0  0  0  0  0  0  0  0  0  0  0  0
    5.5241   -0.5201    2.9902 H   0  0  0  0  0  0  0  0  0  0  0  0
    4.6437    0.3879    4.2427 H   0  0  0  0  0  0  0  0  0  0  0  0
    6.0398   -0.8202    6.0398 H   0  0  0  0  0  0  0  0  0  0  0  0
    7.6474   -1.0657    3.4772 H   0  0  0  0  0  0  0  0  0  0  0  0
    8.2503   -1.2490    5.2386 H   0  0  0  0  0  0  0  0  0  0  0  0
  1  2  1  0  0  0  0
  1 27  1  0  0  0  0
  1 28  1  0  0  0  0
  1 29  1  0  0  0  0
  2  3  1  0  0  0  0
  3  8  2  0  0  0  0
  3  4  1  0  0  0  0
  4  5  2  0  0  0  0
  4 30  1  0  0  0  0
  5  6  1  0  0  0  0
  5 31  1  0  0  0  0
  6  7  2  0  0  0  0
  6  9  1  0  0  0  0
  7  8  1  0  0  0  0
  7 32  1  0  0  0  0
  8 33  1  0  0  0  0
  9 10  1  0  0  0  0
  9 16  1  0  0  0  0
  9 11  1  0  0  0  0
 11 12  1  0  0  0  0
 11 34  1  0  0  0  0
 11 35  1  0  0  0  0
 12 13  2  0  0  0  0
 12 14  1  0  0  0  0
 14 15  1  0  0  0  0
 14 36  1  0  0  0  0
 15 16  2  0  0  0  0
 15 22  1  0  0  0  0
 16 17  1  0  0  0  0
 17 19  2  0  0  0  0
 17 18  1  0  0  0  0
 18 20  1  0  0  0  0
 19 21  1  0  0  0  0
 21 23  1  0  0  0  0
 21 22  2  0  0  0  0
 23 24  1  0  0  0  0
 24 25  1  0  0  0  0
 24 37  1  0  0  0  0
 24 38  1  0  0  0  0
 25 26  2  0  0  0  0
 25 39  1  0  0  0  0
 26 40  1  0  0  0  0
 26 41  1  0  0  0  0
M  END
$$$$
ZINC04387006
  -OEChem-08230709453D

 39 41  0     1  0  0  0  0  0999 V2000
    3.0964    2.8024    6.7345 C   0  0  0  0  0  0  0  0  0  0  0  0
    3.4732    2.7511    5.3570 O   0  0  0  0  0  0  0  0  0  0  0  0
    2.5969    2.1656    4.4991 C   0  0  0  0  0  0  0  0  0  0  0  0
    1.3988    1.6509    4.9733 C   0  0  0  0  0  0  0  0  0  0  0  0
    0.5100    1.0559    4.0994 C   0  0  0  0  0  0  0  0  0  0  0  0
    0.8135    0.9725    2.7528 C   0  0  0  0  0  0  0  0  0  0  0  0
    2.0064    1.4849    2.2778 C   0  0  0  0  0  0  0  0  0  0  0  0
    2.9009    2.0767    3.1486 C   0  0  0  0  0  0  0  0  0  0  0  0
    2.3340    1.3923    0.8097 C   0  0  2  0  0  0  0  0  0  0  0  0
    3.3076    1.8462    0.6253 H   0  0  0  0  0  0  0  0  0  0  0  0
    1.2653    2.1305    0.0014 C   0  0  0  0  0  0  0  0  0  0  0  0
   -0.0162    1.3411    0.0094 C   0  0  0  0  0  0  0  0  0  0  0  0
   -1.0788    1.9251    0.0176 O   0  0  0  0  0  0  0  0  0  0  0  0
    0.0021   -0.0041    0.0020 N   0  0  0  0  0  0  0  0  0  0  0  0
    1.2029   -0.6938    0.0057 C   0  0  0  0  0  0  0  0  0  0  0  0
    2.3675   -0.0531    0.3935 C   0  0  0  0  0  0  0  0  0  0  0  0
    3.5695   -0.7663    0.3918 C   0  0  0  0  0  0  0  0  0  0  0  0
    4.6128   -0.2296    0.7290 O   0  0  0  0  0  0  0  0  0  0  0  0
    3.5528   -2.0617    0.0099 N   0  0  0  0  0  0  0  0  0  0  0  0
    4.4012   -2.5910    0.0013 H   0  0  0  0  0  0  0  0  0  0  0  0
    2.3813   -2.6477   -0.3636 C   0  0  0  0  0  0  0  0  0  0  0  0
    1.2462   -1.9784   -0.3632 N   0  0  0  0  0  0  0  0  0  0  0  0
    2.3837   -4.3387   -0.8587 S   0  0  0  0  0  0  0  0  0  0  0  0
    0.6255   -4.5610   -1.2268 C   0  0  0  0  0  0  0  0  0  0  0  0
    0.3885   -5.9436   -1.6727 C   0  0  0  0  0  0  0  0  0  0  0  0
    0.1995   -7.0464   -2.0284 C   0  0  0  0  0  0  0  0  0  0  0  0
    2.1675    3.3635    6.8365 H   0  0  0  0  0  0  0  0  0  0  0  0
    2.9519    1.7892    7.1096 H   0  0  0  0  0  0  0  0  0  0  0  0
    3.8824    3.2936    7.3081 H   0  0  0  0  0  0  0  0  0  0  0  0
    1.1615    1.7152    6.0250 H   0  0  0  0  0  0  0  0  0  0  0  0
   -0.4227    0.6551    4.4681 H   0  0  0  0  0  0  0  0  0  0  0  0
    0.1174    0.5065    2.0711 H   0  0  0  0  0  0  0  0  0  0  0  0
    3.8345    2.4732    2.7776 H   0  0  0  0  0  0  0  0  0  0  0  0
    1.6088    2.2534   -1.0257 H   0  0  0  0  0  0  0  0  0  0  0  0
    1.0895    3.1112    0.4434 H   0  0  0  0  0  0  0  0  0  0  0  0
   -0.8341   -0.4957   -0.0063 H   0  0  0  0  0  0  0  0  0  0  0  0
    0.0386   -4.3628   -0.3299 H   0  0  0  0  0  0  0  0  0  0  0  0
    0.3291   -3.8691   -2.0151 H   0  0  0  0  0  0  0  0  0  0  0  0
    0.0304   -8.0326   -2.3464 H   0  0  0  0  0  0  0  0  0  0  0  0
  1  2  1  0  0  0  0
  1 27  1  0  0  0  0
  1 28  1  0  0  0  0
  1 29  1  0  0  0  0
  2  3  1  0  0  0  0
  3  8  2  0  0  0  0
  3  4  1  0  0  0  0
  4  5  2  0  0  0  0
  4 30  1  0  0  0  0
  5  6  1  0  0  0  0
  5 31  1  0  0  0  0
  6  7  2  0  0  0  0
  6 32  1  0  0  0  0
  7  8  1  0  0  0  0
  7  9  1  0  0  0  0
  8 33  1  0  0  0  0
  9 10  1  0  0  0  0
  9 16  1  0  0  0  0
  9 11  1  0  0  0  0
 11 12  1  0  0  0  0
 11 34  1  0  0  0  0
 11 35  1  0  0  0  0
 12 13  2  0  0  0  0
 12 14  1  0  0  0  0
 14 15  1  0  0  0  0
 14 36  1  0  0  0  0
 15 22  1  0  0  0  0
 15 16  2  0  0  0  0
 16 17  1  0  0  0  0
 17 18  2  0  0  0  0
 17 19  1  0  0  0  0
 19 20  1  0  0  0  0
 19 21  1  0  0  0  0
 21 22  2  0  0  0  0
 21 23  1  0  0  0  0
 23 24  1  0  0  0  0
 24 25  1  0  0  0  0
 24 37  1  0  0  0  0
 24 38  1  0  0  0  0
 25 26  3  0  0  0  0
 26 39  1  0  0  0  0
M  END
$$$$
ZINC04387006
  -OEChem-08230709453D

 39 41  0     1  0  0  0  0  0999 V2000
    3.0967    2.8014    6.7353 C   0  0  0  0  0  0  0  0  0  0  0  0
    3.4734    2.7503    5.3577 O   0  0  0  0  0  0  0  0  0  0  0  0
    2.5970    2.1649    4.4998 C   0  0  0  0  0  0  0  0  0  0  0  0
    1.3990    1.6500    4.9740 C   0  0  0  0  0  0  0  0  0  0  0  0
    0.5102    1.0551    4.1001 C   0  0  0  0  0  0  0  0  0  0  0  0
    0.8136    0.9719    2.7535 C   0  0  0  0  0  0  0  0  0  0  0  0
    2.0064    1.4845    2.2785 C   0  0  0  0  0  0  0  0  0  0  0  0
    2.9009    2.0762    3.1493 C   0  0  0  0  0  0  0  0  0  0  0  0
    2.3339    1.3921    0.8103 C   0  0  2  0  0  0  0  0  0  0  0  0
    3.3075    1.8461    0.6259 H   0  0  0  0  0  0  0  0  0  0  0  0
    1.2651    2.1304    0.0022 C   0  0  0  0  0  0  0  0  0  0  0  0
   -0.0164    1.3409    0.0102 C   0  0  0  0  0  0  0  0  0  0  0  0
   -1.0790    1.9249    0.0186 O   0  0  0  0  0  0  0  0  0  0  0  0
    0.0020   -0.0043    0.0026 N   0  0  0  0  0  0  0  0  0  0  0  0
    1.2028   -0.6939    0.0061 C   0  0  0  0  0  0  0  0  0  0  0  0
    2.3674   -0.0532    0.3939 C   0  0  0  0  0  0  0  0  0  0  0  0
    3.5694   -0.7665    0.3924 C   0  0  0  0  0  0  0  0  0  0  0  0
    4.6127   -0.2298    0.7296 O   0  0  0  0  0  0  0  0  0  0  0  0
    3.5526   -2.0620    0.0111 N   0  0  0  0  0  0  0  0  0  0  0  0
    0.4035   -2.4387   -0.6425 H   0  0  0  0  0  0  0  0  0  0  0  0
    2.3811   -2.6480   -0.3624 C   0  0  0  0  0  0  0  0  0  0  0  0
    1.2461   -1.9786   -0.3624 N   0  0  0  0  0  0  0  0  0  0  0  0
    2.3834   -4.3393   -0.8568 S   0  0  0  0  0  0  0  0  0  0  0  0
    0.6252   -4.5615   -1.2252 C   0  0  0  0  0  0  0  0  0  0  0  0
    0.3881   -5.9442   -1.6706 C   0  0  0  0  0  0  0  0  0  0  0  0
    0.1991   -7.0472   -2.0258 C   0  0  0  0  0  0  0  0  0  0  0  0
    2.1678    3.3624    6.8374 H   0  0  0  0  0  0  0  0  0  0  0  0
    2.9523    1.7881    7.1102 H   0  0  0  0  0  0  0  0  0  0  0  0
    3.8827    3.2925    7.3089 H   0  0  0  0  0  0  0  0  0  0  0  0
    1.1618    1.7142    6.0258 H   0  0  0  0  0  0  0  0  0  0  0  0
   -0.4225    0.6542    4.4688 H   0  0  0  0  0  0  0  0  0  0  0  0
    0.1174    0.5060    2.0718 H   0  0  0  0  0  0  0  0  0  0  0  0
    3.8345    2.4728    2.7783 H   0  0  0  0  0  0  0  0  0  0  0  0
    1.6085    2.2535   -1.0249 H   0  0  0  0  0  0  0  0  0  0  0  0
    1.0893    3.1110    0.4444 H   0  0  0  0  0  0  0  0  0  0  0  0
   -0.8342   -0.4959   -0.0057 H   0  0  0  0  0  0  0  0  0  0  0  0
    0.0381   -4.3628   -0.3285 H   0  0  0  0  0  0  0  0  0  0  0  0
    0.3291   -3.8699   -2.0139 H   0  0  0  0  0  0  0  0  0  0  0  0
    0.0299   -8.0335   -2.3434 H   0  0  0  0  0  0  0  0  0  0  0  0
  1  2  1  0  0  0  0
  1 27  1  0  0  0  0
  1 28  1  0  0  0  0
  1 29  1  0  0  0  0
  2  3  1  0  0  0  0
  3  8  2  0  0  0  0
  3  4  1  0  0  0  0
  4  5  2  0  0  0  0
  4 30  1  0  0  0  0
  5  6  1  0  0  0  0
  5 31  1  0  0  0  0
  6  7  2  0  0  0  0
  6 32  1  0  0  0  0
  7  8  1  0  0  0  0
  7  9  1  0  0  0  0
  8 33  1  0  0  0  0
  9 10  1  0  0  0  0
  9 16  1  0  0  0  0
  9 11  1  0  0  0  0
 11 12  1  0  0  0  0
 11 34  1  0  0  0  0
 11 35  1  0  0  0  0
 12 13  2  0  0  0  0
 12 14  1  0  0  0  0
 14 15  1  0  0  0  0
 14 36  1  0  0  0  0
 15 16  2  0  0  0  0
 15 22  1  0  0  0  0
 16 17  1  0  0  0  0
 17 19  1  0  0  0  0
 17 18  2  0  0  0  0
 19 21  2  0  0  0  0
 20 22  1  0  0  0  0
 21 23  1  0  0  0  0
 21 22  1  0  0  0  0
 23 24  1  0  0  0  0
 24 25  1  0  0  0  0
 24 37  1  0  0  0  0
 24 38  1  0  0  0  0
 25 26  3  0  0  0  0
 26 39  1  0  0  0  0
M  END
$$$$
ZINC04387006
  -OEChem-08230709453D

 39 41  0     1  0  0  0  0  0999 V2000
    3.1014    2.7932    6.7407 C   0  0  0  0  0  0  0  0  0  0  0  0
    3.4767    2.7440    5.3627 O   0  0  0  0  0  0  0  0  0  0  0  0
    2.5997    2.1592    4.5050 C   0  0  0  0  0  0  0  0  0  0  0  0
    1.4025    1.6431    4.9798 C   0  0  0  0  0  0  0  0  0  0  0  0
    0.5130    1.0488    4.1061 C   0  0  0  0  0  0  0  0  0  0  0  0
    0.8150    0.9675    2.7591 C   0  0  0  0  0  0  0  0  0  0  0  0
    2.0071    1.4812    2.2834 C   0  0  0  0  0  0  0  0  0  0  0  0
    2.9023    2.0723    3.1540 C   0  0  0  0  0  0  0  0  0  0  0  0
    2.3331    1.3908    0.8148 C   0  0  2  0  0  0  0  0  0  0  0  0
    3.3063    1.8455    0.6300 H   0  0  0  0  0  0  0  0  0  0  0  0
    1.2630    2.1293    0.0081 C   0  0  0  0  0  0  0  0  0  0  0  0
   -0.0181    1.3392    0.0171 C   0  0  0  0  0  0  0  0  0  0  0  0
   -1.0810    1.9226    0.0273 O   0  0  0  0  0  0  0  0  0  0  0  0
    0.0011   -0.0058    0.0080 N   0  0  0  0  0  0  0  0  0  0  0  0
    1.2022   -0.6950    0.0099 C   0  0  0  0  0  0  0  0  0  0  0  0
    2.3670   -0.0540    0.3966 C   0  0  0  0  0  0  0  0  0  0  0  0
    3.5697   -0.7660    0.3908 C   0  0  0  0  0  0  0  0  0  0  0  0
    4.6131   -0.2290    0.7271 O   0  0  0  0  0  0  0  0  0  0  0  0
    3.5530   -2.0614    0.0089 N   0  0  0  0  0  0  0  0  0  0  0  0
    4.4333    0.7230    0.9747 H   0  0  0  0  0  0  0  0  0  0  0  0
    2.3811   -2.6480   -0.3624 C   0  0  0  0  0  0  0  0  0  0  0  0
    1.2457   -1.9793   -0.3603 N   0  0  0  0  0  0  0  0  0  0  0  0
    2.3834   -4.3393   -0.8567 S   0  0  0  0  0  0  0  0  0  0  0  0
    0.6251   -4.5617   -1.2243 C   0  0  0  0  0  0  0  0  0  0  0  0
    0.3879   -5.9445   -1.6695 C   0  0  0  0  0  0  0  0  0  0  0  0
    0.1988   -7.0475   -2.0246 C   0  0  0  0  0  0  0  0  0  0  0  0
    2.1723    3.3536    6.8445 H   0  0  0  0  0  0  0  0  0  0  0  0
    2.9579    1.7794    7.1146 H   0  0  0  0  0  0  0  0  0  0  0  0
    3.8878    3.2840    7.3141 H   0  0  0  0  0  0  0  0  0  0  0  0
    1.1663    1.7058    6.0319 H   0  0  0  0  0  0  0  0  0  0  0  0
   -0.4190    0.6470    4.4753 H   0  0  0  0  0  0  0  0  0  0  0  0
    0.1184    0.5020    2.0775 H   0  0  0  0  0  0  0  0  0  0  0  0
    3.8352    2.4698    2.7825 H   0  0  0  0  0  0  0  0  0  0  0  0
    1.6050    2.2534   -1.0194 H   0  0  0  0  0  0  0  0  0  0  0  0
    1.0873    3.1095    0.4512 H   0  0  0  0  0  0  0  0  0  0  0  0
   -0.8349   -0.4978    0.0000 H   0  0  0  0  0  0  0  0  0  0  0  0
    0.0384   -4.3631   -0.3273 H   0  0  0  0  0  0  0  0  0  0  0  0
    0.3284   -3.8702   -2.0128 H   0  0  0  0  0  0  0  0  0  0  0  0
    0.0297   -8.0339   -2.3421 H   0  0  0  0  0  0  0  0  0  0  0  0
  1  2  1  0  0  0  0
  1 27  1  0  0  0  0
  1 28  1  0  0  0  0
  1 29  1  0  0  0  0
  2  3  1  0  0  0  0
  3  8  2  0  0  0  0
  3  4  1  0  0  0  0
  4  5  2  0  0  0  0
  4 30  1  0  0  0  0
  5  6  1  0  0  0  0
  5 31  1  0  0  0  0
  6  7  2  0  0  0  0
  6 32  1  0  0  0  0
  7  8  1  0  0  0  0
  7  9  1  0  0  0  0
  8 33  1  0  0  0  0
  9 10  1  0  0  0  0
  9 16  1  0  0  0  0
  9 11  1  0  0  0  0
 11 12  1  0  0  0  0
 11 34  1  0  0  0  0
 11 35  1  0  0  0  0
 12 13  2  0  0  0  0
 12 14  1  0  0  0  0
 14 15  1  0  0  0  0
 14 36  1  0  0  0  0
 15 16  2  0  0  0  0
 15 22  1  0  0  0  0
 16 17  1  0  0  0  0
 17 19  2  0  0  0  0
 17 18  1  0  0  0  0
 18 20  1  0  0  0  0
 19 21  1  0  0  0  0
 21 23  1  0  0  0  0
 21 22  2  0  0  0  0
 23 24  1  0  0  0  0
 24 25  1  0  0  0  0
 24 37  1  0  0  0  0
 24 38  1  0  0  0  0
 25 26  3  0  0  0  0
 26 39  1  0  0  0  0
M  END
$$$$
ZINC04400045
  -OEChem-08230709453D

 46 48  0     0  0  0  0  0  0999 V2000
    1.7416    5.0074    1.4033 C   0  0  0  0  0  0  0  0  0  0  0  0
    2.0016    3.6819    0.9369 O   0  0  0  0  0  0  0  0  0  0  0  0
    1.0050    3.0628    0.2488 C   0  0  0  0  0  0  0  0  0  0  0  0
   -0.1960    3.7167    0.0282 C   0  0  0  0  0  0  0  0  0  0  0  0
   -1.2087    3.0865   -0.6710 C   0  0  0  0  0  0  0  0  0  0  0  0
   -1.0245    1.8040   -1.1567 C   0  0  0  0  0  0  0  0  0  0  0  0
    0.1699    1.1427   -0.9358 C   0  0  0  0  0  0  0  0  0  0  0  0
    1.1898    1.7697   -0.2350 C   0  0  0  0  0  0  0  0  0  0  0  0
    2.4026    1.1043   -0.0149 N   0  0  0  0  0  0  0  0  0  0  0  0
    2.4269   -0.2731    0.0817 C   0  0  0  0  0  0  0  0  0  0  0  0
    1.2879   -0.9589    0.0946 N   0  0  0  0  0  0  0  0  0  0  0  0
    1.3115   -2.2850    0.1816 C   0  0  0  0  0  0  0  0  0  0  0  0
    2.4737   -2.9250    0.2672 N   0  0  0  0  0  0  0  0  0  0  0  0
    3.6123   -2.2391    0.2603 C   0  0  0  0  0  0  0  0  0  0  0  0
    3.5890   -0.9131    0.1674 N   0  0  0  0  0  0  0  0  0  0  0  0
    4.8187   -2.9034    0.3493 N   0  0  0  0  0  0  0  0  0  0  0  0
    5.0184   -3.8025   -0.8161 C   0  0  0  0  0  0  0  0  0  0  0  0
    6.5511   -4.0290   -0.8305 C   0  0  0  0  0  0  0  0  0  0  0  0
    7.1086   -2.6478   -0.4165 C   0  0  0  0  0  0  0  0  0  0  0  0
    5.9509   -1.9521    0.3232 C   0  0  0  0  0  0  0  0  0  0  0  0
    0.1293   -2.9972    0.1892 N   0  0  0  0  0  0  0  0  0  0  0  0
   -1.1513   -2.2921    0.0948 C   0  0  0  0  0  0  0  0  0  0  0  0
   -2.2958   -3.3070    0.1248 C   0  0  0  0  0  0  0  0  0  0  0  0
   -2.3179   -3.9626    1.3943 O   0  0  0  0  0  0  0  0  0  0  0  0
   -2.2978    1.0209   -2.0395 Cl  0  0  0  0  0  0  0  0  0  0  0  0
    1.5257    5.6556    0.5539 H   0  0  0  0  0  0  0  0  0  0  0  0
    0.8850    4.9940    2.0771 H   0  0  0  0  0  0  0  0  0  0  0  0
    2.6159    5.3837    1.9345 H   0  0  0  0  0  0  0  0  0  0  0  0
   -0.3413    4.7195    0.4022 H   0  0  0  0  0  0  0  0  0  0  0  0
   -2.1443    3.5982   -0.8423 H   0  0  0  0  0  0  0  0  0  0  0  0
    0.3102    0.1403   -1.3126 H   0  0  0  0  0  0  0  0  0  0  0  0
    3.2254    1.6110    0.0696 H   0  0  0  0  0  0  0  0  0  0  0  0
    4.4916   -4.7454   -0.6693 H   0  0  0  0  0  0  0  0  0  0  0  0
    4.6925   -3.3177   -1.7363 H   0  0  0  0  0  0  0  0  0  0  0  0
    6.8918   -4.2985   -1.8302 H   0  0  0  0  0  0  0  0  0  0  0  0
    6.8350   -4.7925   -0.1062 H   0  0  0  0  0  0  0  0  0  0  0  0
    7.3926   -2.0744   -1.2989 H   0  0  0  0  0  0  0  0  0  0  0  0
    7.9645   -2.7673    0.2479 H   0  0  0  0  0  0  0  0  0  0  0  0
    5.6620   -1.0456   -0.2085 H   0  0  0  0  0  0  0  0  0  0  0  0
    6.2519   -1.7053    1.3414 H   0  0  0  0  0  0  0  0  0  0  0  0
    0.1464   -3.9647    0.2570 H   0  0  0  0  0  0  0  0  0  0  0  0
   -1.2515   -1.6065    0.9363 H   0  0  0  0  0  0  0  0  0  0  0  0
   -1.1886   -1.7299   -0.8383 H   0  0  0  0  0  0  0  0  0  0  0  0
   -3.2429   -2.7915   -0.0344 H   0  0  0  0  0  0  0  0  0  0  0  0
   -2.1472   -4.0456   -0.6630 H   0  0  0  0  0  0  0  0  0  0  0  0
   -3.0200   -4.6214    1.4847 H   0  0  0  0  0  0  0  0  0  0  0  0
  1  2  1  0  0  0  0
  1 26  1  0  0  0  0
  1 27  1  0  0  0  0
  1 28  1  0  0  0  0
  2  3  1  0  0  0  0
  3  8  2  0  0  0  0
  3  4  1  0  0  0  0
  4  5  2  0  0  0  0
  4 29  1  0  0  0  0
  5  6  1  0  0  0  0
  5 30  1  0  0  0  0
  6  7  2  0  0  0  0
  6 25  1  0  0  0  0
  7  8  1  0  0  0  0
  7 31  1  0  0  0  0
  8  9  1  0  0  0  0
  9 10  1  0  0  0  0
  9 32  1  0  0  0  0
 10 15  2  0  0  0  0
 10 11  1  0  0  0  0
 11 12  2  0  0  0  0
 12 13  1  0  0  0  0
 12 21  1  0  0  0  0
 13 14  2  0  0  0  0
 14 15  1  0  0  0  0
 14 16  1  0  0  0  0
 16 20  1  0  0  0  0
 16 17  1  0  0  0  0
 17 18  1  0  0  0  0
 17 33  1  0  0  0  0
 17 34  1  0  0  0  0
 18 19  1  0  0  0  0
 18 35  1  0  0  0  0
 18 36  1  0  0  0  0
 19 20  1  0  0  0  0
 19 37  1  0  0  0  0
 19 38  1  0  0  0  0
 20 39  1  0  0  0  0
 20 40  1  0  0  0  0
 21 22  1  0  0  0  0
 21 41  1  0  0  0  0
 22 23  1  0  0  0  0
 22 42  1  0  0  0  0
 22 43  1  0  0  0  0
 23 24  1  0  0  0  0
 23 44  1  0  0  0  0
 23 45  1  0  0  0  0
 24 46  1  0  0  0  0
M  END
$$$$
ZINC04413452
  -OEChem-08230709453D

 42 44  0     0  0  0  0  0  0999 V2000
    1.0269    3.5357    0.0112 C   0  0  0  0  0  0  0  0  0  0  0  0
    1.2479    2.0218    0.0010 C   0  0  0  0  0  0  0  0  0  0  0  0
   -0.0164    1.3557    0.0095 O   0  0  0  0  0  0  0  0  0  0  0  0
    0.0021   -0.0041    0.0020 C   0  0  0  0  0  0  0  0  0  0  0  0
    1.2108   -0.6820   -0.0132 C   0  0  0  0  0  0  0  0  0  0  0  0
    1.2284   -2.0642   -0.0203 C   0  0  0  0  0  0  0  0  0  0  0  0
    0.0420   -2.7739   -0.0123 C   0  0  0  0  0  0  0  0  0  0  0  0
   -1.1681   -2.1037    0.0029 C   0  0  0  0  0  0  0  0  0  0  0  0
   -1.1921   -0.7173    0.0154 C   0  0  0  0  0  0  0  0  0  0  0  0
   -2.3807   -0.0563    0.0359 O   0  0  0  0  0  0  0  0  0  0  0  0
   -2.9659    0.2656   -1.2274 C   0  0  0  0  0  0  0  0  0  0  0  0
   -2.6559   -2.9981    0.0135 Cl  0  0  0  0  0  0  0  0  0  0  0  0
    2.5440   -2.7992   -0.0373 C   0  0  0  0  0  0  0  0  0  0  0  0
    2.9842   -3.0442    1.3383 N   0  0  0  0  0  0  0  0  0  0  0  0
    4.1875   -3.7163    1.5784 C   0  0  0  0  0  0  0  0  0  0  0  0
    4.9618   -4.1561    0.5104 C   0  0  0  0  0  0  0  0  0  0  0  0
    6.1527   -4.8152    0.7409 C   0  0  0  0  0  0  0  0  0  0  0  0
    6.5738   -5.0492    2.0411 C   0  0  0  0  0  0  0  0  0  0  0  0
    5.7960   -4.6139    3.1158 C   0  0  0  0  0  0  0  0  0  0  0  0
    4.6031   -3.9477    2.8813 C   0  0  0  0  0  0  0  0  0  0  0  0
    6.4678   -4.9880    4.2771 N   0  0  0  0  0  0  0  0  0  0  0  0
    6.1687   -4.8205    5.1845 H   0  0  0  0  0  0  0  0  0  0  0  0
    7.6026   -5.6219    3.9265 C   0  0  0  0  0  0  0  0  0  0  0  0
    8.4200   -6.0771    4.7047 O   0  0  0  0  0  0  0  0  0  0  0  0
    7.6962   -5.6754    2.5845 N   0  0  0  0  0  0  0  0  0  0  0  0
    8.4201   -6.0800    2.0814 H   0  0  0  0  0  0  0  0  0  0  0  0
    1.9913    4.0437    0.0048 H   0  0  0  0  0  0  0  0  0  0  0  0
    0.4575    3.8257   -0.8718 H   0  0  0  0  0  0  0  0  0  0  0  0
    0.4745    3.8162    0.9081 H   0  0  0  0  0  0  0  0  0  0  0  0
    1.8173    1.7317    0.8840 H   0  0  0  0  0  0  0  0  0  0  0  0
    1.8003    1.7413   -0.8958 H   0  0  0  0  0  0  0  0  0  0  0  0
    2.1392   -0.1303   -0.0198 H   0  0  0  0  0  0  0  0  0  0  0  0
    0.0599   -3.8538   -0.0175 H   0  0  0  0  0  0  0  0  0  0  0  0
   -2.2855    0.9040   -1.7909 H   0  0  0  0  0  0  0  0  0  0  0  0
   -3.1505   -0.6516   -1.7866 H   0  0  0  0  0  0  0  0  0  0  0  0
   -3.9082    0.7900   -1.0683 H   0  0  0  0  0  0  0  0  0  0  0  0
    2.4219   -3.7507   -0.5547 H   0  0  0  0  0  0  0  0  0  0  0  0
    3.2900   -2.1968   -0.5557 H   0  0  0  0  0  0  0  0  0  0  0  0
    2.4414   -2.7405    2.0827 H   0  0  0  0  0  0  0  0  0  0  0  0
    4.6325   -3.9779   -0.5026 H   0  0  0  0  0  0  0  0  0  0  0  0
    6.7540   -5.1516   -0.0908 H   0  0  0  0  0  0  0  0  0  0  0  0
    3.9991   -3.6101    3.7105 H   0  0  0  0  0  0  0  0  0  0  0  0
  1  2  1  0  0  0  0
  1 27  1  0  0  0  0
  1 28  1  0  0  0  0
  1 29  1  0  0  0  0
  2  3  1  0  0  0  0
  2 30  1  0  0  0  0
  2 31  1  0  0  0  0
  3  4  1  0  0  0  0
  4  9  2  0  0  0  0
  4  5  1  0  0  0  0
  5  6  2  0  0  0  0
  5 32  1  0  0  0  0
  6  7  1  0  0  0  0
  6 13  1  0  0  0  0
  7  8  2  0  0  0  0
  7 33  1  0  0  0  0
  8  9  1  0  0  0  0
  8 12  1  0  0  0  0
  9 10  1  0  0  0  0
 10 11  1  0  0  0  0
 11 34  1  0  0  0  0
 11 35  1  0  0  0  0
 11 36  1  0  0  0  0
 13 14  1  0  0  0  0
 13 37  1  0  0  0  0
 13 38  1  0  0  0  0
 14 15  1  0  0  0  0
 14 39  1  0  0  0  0
 15 20  2  0  0  0  0
 15 16  1  0  0  0  0
 16 17  2  0  0  0  0
 16 40  1  0  0  0  0
 17 18  1  0  0  0  0
 17 41  1  0  0  0  0
 18 25  1  0  0  0  0
 18 19  2  0  0  0  0
 19 20  1  0  0  0  0
 19 21  1  0  0  0  0
 20 42  1  0  0  0  0
 21 22  1  0  0  0  0
 21 23  1  0  0  0  0
 23 24  2  0  0  0  0
 23 25  1  0  0  0  0
 25 26  1  0  0  0  0
M  END
$$$$
ZINC04413510
  -OEChem-08230709453D

 43 45  0     0  0  0  0  0  0999 V2000
   -2.8739    2.7351    4.5392 C   0  0  0  0  0  0  0  0  0  0  0  0
   -2.0853    2.3541    3.4100 O   0  0  0  0  0  0  0  0  0  0  0  0
   -2.6856    1.5706    2.4733 C   0  0  0  0  0  0  0  0  0  0  0  0
   -4.0055    1.1829    2.6367 C   0  0  0  0  0  0  0  0  0  0  0  0
   -4.6144    0.3827    1.6882 C   0  0  0  0  0  0  0  0  0  0  0  0
   -3.9071   -0.0298    0.5687 C   0  0  0  0  0  0  0  0  0  0  0  0
   -2.5874    0.3604    0.3989 C   0  0  0  0  0  0  0  0  0  0  0  0
   -1.9757    1.1628    1.3483 C   0  0  0  0  0  0  0  0  0  0  0  0
   -0.6816    1.5467    1.1837 O   0  0  0  0  0  0  0  0  0  0  0  0
   -0.0127    1.0858    0.0080 C   0  0  0  0  0  0  0  0  0  0  0  0
   -4.5082   -0.8170   -0.3629 O   0  0  0  0  0  0  0  0  0  0  0  0
   -3.7208   -1.2041   -1.4908 C   0  0  0  0  0  0  0  0  0  0  0  0
   -6.0486   -0.0424    1.8710 C   0  0  0  0  0  0  0  0  0  0  0  0
   -6.0896   -1.4104    2.3938 N   0  0  0  0  0  0  0  0  0  0  0  0
   -7.3202   -2.0261    2.6464 C   0  0  0  0  0  0  0  0  0  0  0  0
   -8.5035   -1.3365    2.4061 C   0  0  0  0  0  0  0  0  0  0  0  0
   -9.7209   -1.9405    2.6484 C   0  0  0  0  0  0  0  0  0  0  0  0
   -9.7649   -3.2352    3.1429 C   0  0  0  0  0  0  0  0  0  0  0  0
   -8.5785   -3.9285    3.3907 C   0  0  0  0  0  0  0  0  0  0  0  0
   -7.3575   -3.3212    3.1414 C   0  0  0  0  0  0  0  0  0  0  0  0
   -8.9389   -5.1838    3.8746 N   0  0  0  0  0  0  0  0  0  0  0  0
   -8.3257   -5.8888    4.1352 H   0  0  0  0  0  0  0  0  0  0  0  0
  -10.2826   -5.2525    3.9197 C   0  0  0  0  0  0  0  0  0  0  0  0
  -10.9226   -6.2167    4.2961 O   0  0  0  0  0  0  0  0  0  0  0  0
  -10.8110   -4.0931    3.4848 N   0  0  0  0  0  0  0  0  0  0  0  0
  -11.7570   -3.8889    3.4203 H   0  0  0  0  0  0  0  0  0  0  0  0
   -2.2766    3.3564    5.2065 H   0  0  0  0  0  0  0  0  0  0  0  0
   -3.7444    3.2973    4.2013 H   0  0  0  0  0  0  0  0  0  0  0  0
   -3.2021    1.8421    5.0710 H   0  0  0  0  0  0  0  0  0  0  0  0
   -4.5579    1.5028    3.5078 H   0  0  0  0  0  0  0  0  0  0  0  0
   -2.0368    0.0394   -0.4731 H   0  0  0  0  0  0  0  0  0  0  0  0
    0.0021   -0.0041    0.0020 H   0  0  0  0  0  0  0  0  0  0  0  0
    1.0099    1.4631    0.0003 H   0  0  0  0  0  0  0  0  0  0  0  0
   -0.5399    1.4469   -0.8751 H   0  0  0  0  0  0  0  0  0  0  0  0
   -3.3923   -0.3140   -2.0274 H   0  0  0  0  0  0  0  0  0  0  0  0
   -2.8504   -1.7653   -1.1508 H   0  0  0  0  0  0  0  0  0  0  0  0
   -4.3190   -1.8284   -2.1546 H   0  0  0  0  0  0  0  0  0  0  0  0
   -6.5402    0.6301    2.5739 H   0  0  0  0  0  0  0  0  0  0  0  0
   -6.5639   -0.0047    0.9112 H   0  0  0  0  0  0  0  0  0  0  0  0
   -5.2635   -1.8892    2.5648 H   0  0  0  0  0  0  0  0  0  0  0  0
   -8.4701   -0.3265    2.0249 H   0  0  0  0  0  0  0  0  0  0  0  0
  -10.6383   -1.4038    2.4566 H   0  0  0  0  0  0  0  0  0  0  0  0
   -6.4381   -3.8547    3.3324 H   0  0  0  0  0  0  0  0  0  0  0  0
  1  2  1  0  0  0  0
  1 27  1  0  0  0  0
  1 28  1  0  0  0  0
  1 29  1  0  0  0  0
  2  3  1  0  0  0  0
  3  8  2  0  0  0  0
  3  4  1  0  0  0  0
  4  5  2  0  0  0  0
  4 30  1  0  0  0  0
  5  6  1  0  0  0  0
  5 13  1  0  0  0  0
  6  7  2  0  0  0  0
  6 11  1  0  0  0  0
  7  8  1  0  0  0  0
  7 31  1  0  0  0  0
  8  9  1  0  0  0  0
  9 10  1  0  0  0  0
 10 32  1  0  0  0  0
 10 33  1  0  0  0  0
 10 34  1  0  0  0  0
 11 12  1  0  0  0  0
 12 35  1  0  0  0  0
 12 36  1  0  0  0  0
 12 37  1  0  0  0  0
 13 14  1  0  0  0  0
 13 38  1  0  0  0  0
 13 39  1  0  0  0  0
 14 15  1  0  0  0  0
 14 40  1  0  0  0  0
 15 20  2  0  0  0  0
 15 16  1  0  0  0  0
 16 17  2  0  0  0  0
 16 41  1  0  0  0  0
 17 18  1  0  0  0  0
 17 42  1  0  0  0  0
 18 25  1  0  0  0  0
 18 19  2  0  0  0  0
 19 20  1  0  0  0  0
 19 21  1  0  0  0  0
 20 43  1  0  0  0  0
 21 22  1  0  0  0  0
 21 23  1  0  0  0  0
 23 24  2  0  0  0  0
 23 25  1  0  0  0  0
 25 26  1  0  0  0  0
M  END
$$$$
ZINC04413901
  -OEChem-08230709453D

 41 43  0     0  0  0  0  0  0999 V2000
    7.2329   -3.3467    0.4615 C   0  0  0  0  0  0  0  0  0  0  0  0
    6.3493   -2.1311    0.3498 C   0  0  0  0  0  0  0  0  0  0  0  0
    6.9206   -0.8706    0.2550 C   0  0  0  0  0  0  0  0  0  0  0  0
    6.1264    0.2470    0.1530 C   0  0  0  0  0  0  0  0  0  0  0  0
    4.7179    0.0907    0.1463 C   0  0  0  0  0  0  0  0  0  0  0  0
    3.6906    1.1157    0.0430 C   0  0  0  0  0  0  0  0  0  0  0  0
    2.3706    0.7223    0.0617 C   0  0  0  0  0  0  0  0  0  0  0  0
    2.4704   -1.0509    0.2078 S   0  0  0  0  0  0  0  0  0  0  0  0
    4.2362   -1.2341    0.2476 C   0  0  0  0  0  0  0  0  0  0  0  0
    5.0383   -2.2727    0.3430 N   0  0  0  0  0  0  0  0  0  0  0  0
    1.2112    1.5330   -0.0214 C   0  0  0  0  0  0  0  0  0  0  0  0
    1.3193    2.7422   -0.1188 O   0  0  0  0  0  0  0  0  0  0  0  0
   -0.0111    0.9658    0.0074 N   0  0  0  0  0  0  0  0  0  0  0  0
   -1.1568    1.7713    0.0135 C   0  0  0  0  0  0  0  0  0  0  0  0
   -1.1691    2.9685   -0.6874 C   0  0  0  0  0  0  0  0  0  0  0  0
   -2.3022    3.7597   -0.6830 C   0  0  0  0  0  0  0  0  0  0  0  0
   -3.4220    3.3657    0.0261 C   0  0  0  0  0  0  0  0  0  0  0  0
   -3.4155    2.1763    0.7308 C   0  0  0  0  0  0  0  0  0  0  0  0
   -2.2852    1.3752    0.7281 C   0  0  0  0  0  0  0  0  0  0  0  0
   -2.2771    0.2055    1.4215 O   0  0  0  0  0  0  0  0  0  0  0  0
    4.0320    2.4564   -0.0683 N   0  0  0  0  0  0  0  0  0  0  0  0
    6.7443    1.6177    0.0504 C   0  0  0  0  0  0  0  0  0  0  0  0
    8.1683    1.5016    0.0794 O   0  0  0  0  0  0  0  0  0  0  0  0
    8.8553    2.7513   -0.0125 C   0  0  0  0  0  0  0  0  0  0  0  0
    7.4314   -3.5563    1.5126 H   0  0  0  0  0  0  0  0  0  0  0  0
    6.7323   -4.2026    0.0087 H   0  0  0  0  0  0  0  0  0  0  0  0
    8.1740   -3.1607   -0.0560 H   0  0  0  0  0  0  0  0  0  0  0  0
    7.9955   -0.7666    0.2610 H   0  0  0  0  0  0  0  0  0  0  0  0
   -0.0973   -0.0003    0.0198 H   0  0  0  0  0  0  0  0  0  0  0  0
   -0.2946    3.2805   -1.2391 H   0  0  0  0  0  0  0  0  0  0  0  0
   -2.3117    4.6900   -1.2315 H   0  0  0  0  0  0  0  0  0  0  0  0
   -4.3040    3.9890    0.0298 H   0  0  0  0  0  0  0  0  0  0  0  0
   -4.2917    1.8717    1.2840 H   0  0  0  0  0  0  0  0  0  0  0  0
   -1.9722    0.2920    2.3351 H   0  0  0  0  0  0  0  0  0  0  0  0
    3.3371    3.1300   -0.1337 H   0  0  0  0  0  0  0  0  0  0  0  0
    4.9654    2.7198   -0.0807 H   0  0  0  0  0  0  0  0  0  0  0  0
    6.4369    2.0858   -0.8848 H   0  0  0  0  0  0  0  0  0  0  0  0
    6.4125    2.2296    0.8892 H   0  0  0  0  0  0  0  0  0  0  0  0
    8.5917    3.2428   -0.9489 H   0  0  0  0  0  0  0  0  0  0  0  0
    8.5673    3.3867    0.8250 H   0  0  0  0  0  0  0  0  0  0  0  0
    9.9310    2.5775    0.0164 H   0  0  0  0  0  0  0  0  0  0  0  0
  1  2  1  0  0  0  0
  1 25  1  0  0  0  0
  1 26  1  0  0  0  0
  1 27  1  0  0  0  0
  2 10  2  0  0  0  0
  2  3  1  0  0  0  0
  3  4  2  0  0  0  0
  3 28  1  0  0  0  0
  4  5  1  0  0  0  0
  4 22  1  0  0  0  0
  5  9  2  0  0  0  0
  5  6  1  0  0  0  0
  6  7  2  0  0  0  0
  6 21  1  0  0  0  0
  7  8  1  0  0  0  0
  7 11  1  0  0  0  0
  8  9  1  0  0  0  0
  9 10  1  0  0  0  0
 11 12  2  0  0  0  0
 11 13  1  0  0  0  0
 13 14  1  0  0  0  0
 13 29  1  0  0  0  0
 14 19  2  0  0  0  0
 14 15  1  0  0  0  0
 15 16  2  0  0  0  0
 15 30  1  0  0  0  0
 16 17  1  0  0  0  0
 16 31  1  0  0  0  0
 17 18  2  0  0  0  0
 17 32  1  0  0  0  0
 18 19  1  0  0  0  0
 18 33  1  0  0  0  0
 19 20  1  0  0  0  0
 20 34  1  0  0  0  0
 21 35  1  0  0  0  0
 21 36  1  0  0  0  0
 22 23  1  0  0  0  0
 22 37  1  0  0  0  0
 22 38  1  0  0  0  0
 23 24  1  0  0  0  0
 24 39  1  0  0  0  0
 24 40  1  0  0  0  0
 24 41  1  0  0  0  0
M  END
$$$$
ZINC04434623
  -OEChem-08230709453D

 45 47  0     0  0  0  0  0  0999 V2000
    2.4650   -0.4655   -0.0240 C   0  0  0  0  0  0  0  0  0  0  0  0
    3.6371   -1.1472   -0.0393 C   0  0  0  0  0  0  0  0  0  0  0  0
    4.8791   -0.4656   -0.0480 C   0  0  0  0  0  0  0  0  0  0  0  0
    4.8214    0.9500   -0.0398 C   0  0  0  0  0  0  0  0  0  0  0  0
    3.6423    1.6413   -0.0298 C   0  0  0  0  0  0  0  0  0  0  0  0
    2.4338    0.9356   -0.0162 C   0  0  0  0  0  0  0  0  0  0  0  0
    1.1468    1.6555   -0.0000 C   0  0  0  0  0  0  0  0  0  0  0  0
    1.1303    2.8714    0.0067 O   0  0  0  0  0  0  0  0  0  0  0  0
   -0.0111    0.9658    0.0074 N   0  0  0  0  0  0  0  0  0  0  0  0
   -1.2896    1.6810    0.0173 C   0  0  0  0  0  0  0  0  0  0  0  0
   -2.4389    0.6711    0.0173 C   0  0  0  0  0  0  0  0  0  0  0  0
   -2.4147   -0.0897    1.2537 O   0  0  0  0  0  0  0  0  0  0  0  0
   -3.3645   -1.0248    1.4126 C   0  0  0  0  0  0  0  0  0  0  0  0
   -4.1888   -1.2018    0.5471 O   0  0  0  0  0  0  0  0  0  0  0  0
   -3.4028   -1.8540    2.6704 C   0  0  0  0  0  0  0  0  0  0  0  0
   -2.0921   -2.6311    2.8090 C   0  0  0  0  0  0  0  0  0  0  0  0
   -2.1309   -3.4729    4.0860 C   0  0  0  0  0  0  0  0  0  0  0  0
   -3.3014   -4.4557    4.0136 C   0  0  0  0  0  0  0  0  0  0  0  0
   -4.6120   -3.6786    3.8750 C   0  0  0  0  0  0  0  0  0  0  0  0
   -4.5732   -2.8367    2.5980 C   0  0  0  0  0  0  0  0  0  0  0  0
    6.5405    1.3992   -0.0539 S   0  0  0  0  0  0  0  0  0  0  0  0
    7.2052   -0.2598   -0.0692 C   0  0  0  0  0  0  0  0  0  0  0  0
    6.1166   -0.9983   -0.0627 N   0  0  0  0  0  0  0  0  0  0  0  0
    8.5229   -0.6628   -0.0847 N   0  0  0  0  0  0  0  0  0  0  0  0
    1.5349   -1.0144   -0.0173 H   0  0  0  0  0  0  0  0  0  0  0  0
    3.6236   -2.2271   -0.0453 H   0  0  0  0  0  0  0  0  0  0  0  0
    3.6433    2.7213   -0.0285 H   0  0  0  0  0  0  0  0  0  0  0  0
    0.0021   -0.0041    0.0020 H   0  0  0  0  0  0  0  0  0  0  0  0
   -1.3516    2.3020    0.9110 H   0  0  0  0  0  0  0  0  0  0  0  0
   -1.3601    2.3116   -0.8689 H   0  0  0  0  0  0  0  0  0  0  0  0
   -3.3880    1.2007   -0.0649 H   0  0  0  0  0  0  0  0  0  0  0  0
   -2.3268   -0.0070   -0.8288 H   0  0  0  0  0  0  0  0  0  0  0  0
   -3.5303   -1.2000    3.5330 H   0  0  0  0  0  0  0  0  0  0  0  0
   -1.9646   -3.2852    1.9464 H   0  0  0  0  0  0  0  0  0  0  0  0
   -1.2583   -1.9310    2.8605 H   0  0  0  0  0  0  0  0  0  0  0  0
   -2.2585   -2.8189    4.9486 H   0  0  0  0  0  0  0  0  0  0  0  0
   -1.1972   -4.0266    4.1847 H   0  0  0  0  0  0  0  0  0  0  0  0
   -3.3290   -5.0554    4.9234 H   0  0  0  0  0  0  0  0  0  0  0  0
   -3.1738   -5.1097    3.1510 H   0  0  0  0  0  0  0  0  0  0  0  0
   -4.7395   -3.0245    4.7376 H   0  0  0  0  0  0  0  0  0  0  0  0
   -5.4458   -4.3787    3.8235 H   0  0  0  0  0  0  0  0  0  0  0  0
   -5.5069   -2.2831    2.4993 H   0  0  0  0  0  0  0  0  0  0  0  0
   -4.4456   -3.4908    1.7354 H   0  0  0  0  0  0  0  0  0  0  0  0
    8.7410   -1.6080   -0.0920 H   0  0  0  0  0  0  0  0  0  0  0  0
    9.2324   -0.0014   -0.0882 H   0  0  0  0  0  0  0  0  0  0  0  0
  1  6  2  0  0  0  0
  1  2  1  0  0  0  0
  1 25  1  0  0  0  0
  2  3  2  0  0  0  0
  2 26  1  0  0  0  0
  3 23  1  0  0  0  0
  3  4  1  0  0  0  0
  4  5  2  0  0  0  0
  4 21  1  0  0  0  0
  5  6  1  0  0  0  0
  5 27  1  0  0  0  0
  6  7  1  0  0  0  0
  7  8  2  0  0  0  0
  7  9  1  0  0  0  0
  9 10  1  0  0  0  0
  9 28  1  0  0  0  0
 10 11  1  0  0  0  0
 10 29  1  0  0  0  0
 10 30  1  0  0  0  0
 11 12  1  0  0  0  0
 11 31  1  0  0  0  0
 11 32  1  0  0  0  0
 12 13  1  0  0  0  0
 13 14  2  0  0  0  0
 13 15  1  0  0  0  0
 15 20  1  0  0  0  0
 15 16  1  0  0  0  0
 15 33  1  0  0  0  0
 16 17  1  0  0  0  0
 16 34  1  0  0  0  0
 16 35  1  0  0  0  0
 17 18  1  0  0  0  0
 17 36  1  0  0  0  0
 17 37  1  0  0  0  0
 18 19  1  0  0  0  0
 18 38  1  0  0  0  0
 18 39  1  0  0  0  0
 19 20  1  0  0  0  0
 19 40  1  0  0  0  0
 19 41  1  0  0  0  0
 20 42  1  0  0  0  0
 20 43  1  0  0  0  0
 21 22  1  0  0  0  0
 22 23  2  0  0  0  0
 22 24  1  0  0  0  0
 24 44  1  0  0  0  0
 24 45  1  0  0  0  0
M  END
$$$$
ZINC04436262
  -OEChem-08230709453D

 43 46  0     1  0  0  0  0  0999 V2000
   -4.9041   -0.5880    1.0835 C   0  0  0  0  0  0  0  0  0  0  0  0
   -4.1077   -0.6592    0.0458 C   0  0  0  0  0  0  0  0  0  0  0  0
   -2.8134    0.1126    0.0348 C   0  0  0  0  0  0  0  0  0  0  0  0
   -1.4183   -1.0466    0.0131 S   0  0  0  0  0  0  0  0  0  0  0  0
    0.0021   -0.0041    0.0020 C   0  0  0  0  0  0  0  0  0  0  0  0
   -0.0161    1.3368    0.0094 N   0  0  0  0  0  0  0  0  0  0  0  0
    1.2080    1.7893    0.0001 C   0  0  0  0  0  0  0  0  0  0  0  0
    2.0503    0.7272   -0.0187 N   0  0  0  0  0  0  0  0  0  0  0  0
    1.2518   -0.4156   -0.0140 N   0  0  0  0  0  0  0  0  0  0  0  0
    3.5020    0.8552   -0.0426 C   0  0  2  0  0  0  0  0  0  0  0  0
    3.9375    0.1702    0.6848 H   0  0  0  0  0  0  0  0  0  0  0  0
    3.9025    2.2732    0.3005 C   0  0  0  0  0  0  0  0  0  0  0  0
    3.0121    3.2881    0.3099 C   0  0  0  0  0  0  0  0  0  0  0  0
    1.6849    3.0898    0.0125 N   0  0  0  0  0  0  0  0  0  0  0  0
    3.4414    4.6940    0.6572 C   0  0  0  0  0  0  0  0  0  0  0  0
    4.8923    4.9112    0.2233 C   0  0  0  0  0  0  0  0  0  0  0  0
    5.7685    3.8739    0.9338 C   0  0  0  0  0  0  0  0  0  0  0  0
    5.2564    2.4983    0.6090 C   0  0  0  0  0  0  0  0  0  0  0  0
    6.0289    1.5602    0.6134 O   0  0  0  0  0  0  0  0  0  0  0  0
    4.0118    0.5107   -1.4183 C   0  0  0  0  0  0  0  0  0  0  0  0
    3.5873    1.2393   -2.5141 C   0  0  0  0  0  0  0  0  0  0  0  0
    4.0576    0.9291   -3.7755 C   0  0  0  0  0  0  0  0  0  0  0  0
    4.9472   -0.1221   -3.9437 C   0  0  0  0  0  0  0  0  0  0  0  0
    5.3672   -0.8552   -2.8433 C   0  0  0  0  0  0  0  0  0  0  0  0
    4.8987   -0.5371   -1.5833 C   0  0  0  0  0  0  0  0  0  0  0  0
    5.4063   -0.4333   -5.1844 O   0  0  0  0  0  0  0  0  0  0  0  0
   -4.6330    0.0238    1.9312 H   0  0  0  0  0  0  0  0  0  0  0  0
   -5.8316   -1.1411    1.0914 H   0  0  0  0  0  0  0  0  0  0  0  0
   -4.3788   -1.2710   -0.8019 H   0  0  0  0  0  0  0  0  0  0  0  0
   -2.7543    0.7356    0.9273 H   0  0  0  0  0  0  0  0  0  0  0  0
   -2.7747    0.7444   -0.8525 H   0  0  0  0  0  0  0  0  0  0  0  0
    1.0998    3.8382   -0.1832 H   0  0  0  0  0  0  0  0  0  0  0  0
    2.7980    5.4074    0.1421 H   0  0  0  0  0  0  0  0  0  0  0  0
    3.3591    4.8429    1.7339 H   0  0  0  0  0  0  0  0  0  0  0  0
    4.9756    4.7848   -0.8561 H   0  0  0  0  0  0  0  0  0  0  0  0
    5.2126    5.9151    0.5019 H   0  0  0  0  0  0  0  0  0  0  0  0
    6.7138    3.9655    0.6207 H   0  0  0  0  0  0  0  0  0  0  0  0
    5.7256    4.0362    2.0108 H   0  0  0  0  0  0  0  0  0  0  0  0
    2.8908    2.0542   -2.3833 H   0  0  0  0  0  0  0  0  0  0  0  0
    3.7289    1.5010   -4.6306 H   0  0  0  0  0  0  0  0  0  0  0  0
    6.0594   -1.6741   -2.9717 H   0  0  0  0  0  0  0  0  0  0  0  0
    5.2253   -1.1075   -0.7263 H   0  0  0  0  0  0  0  0  0  0  0  0
    4.8613   -1.0789   -5.6549 H   0  0  0  0  0  0  0  0  0  0  0  0
  1  2  2  0  0  0  0
  1 27  1  0  0  0  0
  1 28  1  0  0  0  0
  2  3  1  0  0  0  0
  2 29  1  0  0  0  0
  3  4  1  0  0  0  0
  3 30  1  0  0  0  0
  3 31  1  0  0  0  0
  4  5  1  0  0  0  0
  5  9  2  0  0  0  0
  5  6  1  0  0  0  0
  6  7  2  0  0  0  0
  7 14  1  0  0  0  0
  7  8  1  0  0  0  0
  8  9  1  0  0  0  0
  8 10  1  0  0  0  0
 10 11  1  0  0  0  0
 10 12  1  0  0  0  0
 10 20  1  0  0  0  0
 12 18  1  0  0  0  0
 12 13  2  0  0  0  0
 13 14  1  0  0  0  0
 13 15  1  0  0  0  0
 14 32  1  0  0  0  0
 15 16  1  0  0  0  0
 15 33  1  0  0  0  0
 15 34  1  0  0  0  0
 16 17  1  0  0  0  0
 16 35  1  0  0  0  0
 16 36  1  0  0  0  0
 17 18  1  0  0  0  0
 17 37  1  0  0  0  0
 17 38  1  0  0  0  0
 18 19  2  0  0  0  0
 20 25  2  0  0  0  0
 20 21  1  0  0  0  0
 21 22  2  0  0  0  0
 21 39  1  0  0  0  0
 22 23  1  0  0  0  0
 22 40  1  0  0  0  0
 23 24  2  0  0  0  0
 23 26  1  0  0  0  0
 24 25  1  0  0  0  0
 24 41  1  0  0  0  0
 25 42  1  0  0  0  0
 26 43  1  0  0  0  0
M  END
$$$$
ZINC04439822
  -OEChem-08230709453D

 44 45  0     0  0  0  0  0  0999 V2000
    5.4791    3.2405   -2.9463 C   0  0  0  0  0  0  0  0  0  0  0  0
    4.0929    3.6846   -3.1126 N   0  0  0  0  0  0  0  0  0  0  0  0
    3.7886    4.8271   -3.9776 C   0  0  0  0  0  0  0  0  0  0  0  0
    3.0645    3.0205   -2.4486 C   0  0  0  0  0  0  0  0  0  0  0  0
    3.3560    1.9351   -1.6272 C   0  0  0  0  0  0  0  0  0  0  0  0
    2.3429    1.2754   -0.9698 C   0  0  0  0  0  0  0  0  0  0  0  0
    1.0173    1.6977   -1.1277 C   0  0  0  0  0  0  0  0  0  0  0  0
    0.7282    2.7869   -1.9587 C   0  0  0  0  0  0  0  0  0  0  0  0
    1.7482    3.4438   -2.6085 C   0  0  0  0  0  0  0  0  0  0  0  0
   -0.0677    0.9963   -0.4283 C   0  0  0  0  0  0  0  0  0  0  0  0
   -1.1382    1.6891    0.0283 C   0  0  0  0  0  0  0  0  0  0  0  0
   -1.1453    3.1557   -0.0362 C   0  0  0  0  0  0  0  0  0  0  0  0
   -1.8466    3.7256   -0.8512 O   0  0  0  0  0  0  0  0  0  0  0  0
   -0.3750    3.8711    0.8073 N   0  0  0  0  0  0  0  0  0  0  0  0
   -0.4568    5.2346    0.8170 N   0  0  0  0  0  0  0  0  0  0  0  0
   -2.2376    1.0068    0.5615 N   0  0  0  0  0  0  0  0  0  0  0  0
   -3.2816    1.6973    1.0611 C   0  0  0  0  0  0  0  0  0  0  0  0
   -3.3165    2.9079    0.9549 O   0  0  0  0  0  0  0  0  0  0  0  0
   -4.3843    0.9828    1.7383 C   0  0  0  0  0  0  0  0  0  0  0  0
   -4.3499   -0.4079    1.8568 C   0  0  0  0  0  0  0  0  0  0  0  0
   -5.3787   -1.0693    2.4947 C   0  0  0  0  0  0  0  0  0  0  0  0
   -6.4498   -0.3594    3.0071 C   0  0  0  0  0  0  0  0  0  0  0  0
   -6.4941    1.0204    2.8885 C   0  0  0  0  0  0  0  0  0  0  0  0
   -5.4666    1.6949    2.2566 C   0  0  0  0  0  0  0  0  0  0  0  0
   -7.5434    1.7072    3.3909 F   0  0  0  0  0  0  0  0  0  0  0  0
    5.7156    2.4955   -3.7059 H   0  0  0  0  0  0  0  0  0  0  0  0
    6.1491    4.0936   -3.0529 H   0  0  0  0  0  0  0  0  0  0  0  0
    5.6038    2.8021   -1.9562 H   0  0  0  0  0  0  0  0  0  0  0  0
    3.3062    5.6088   -3.3907 H   0  0  0  0  0  0  0  0  0  0  0  0
    4.7126    5.2136   -4.4076 H   0  0  0  0  0  0  0  0  0  0  0  0
    3.1204    4.5091   -4.7780 H   0  0  0  0  0  0  0  0  0  0  0  0
    4.3788    1.6100   -1.5060 H   0  0  0  0  0  0  0  0  0  0  0  0
    2.5699    0.4329   -0.3333 H   0  0  0  0  0  0  0  0  0  0  0  0
   -0.2933    3.1135   -2.0866 H   0  0  0  0  0  0  0  0  0  0  0  0
    1.5265    4.2864   -3.2467 H   0  0  0  0  0  0  0  0  0  0  0  0
   -0.0138   -0.0724   -0.2822 H   0  0  0  0  0  0  0  0  0  0  0  0
    0.2374    3.4176    1.4075 H   0  0  0  0  0  0  0  0  0  0  0  0
    0.1758    5.6299    1.4964 H   0  0  0  0  0  0  0  0  0  0  0  0
   -0.2835    5.6137   -0.1019 H   0  0  0  0  0  0  0  0  0  0  0  0
   -2.2482    0.0369    0.5716 H   0  0  0  0  0  0  0  0  0  0  0  0
   -3.5170   -0.9646    1.4533 H   0  0  0  0  0  0  0  0  0  0  0  0
   -5.3502   -2.1447    2.5901 H   0  0  0  0  0  0  0  0  0  0  0  0
   -7.2549   -0.8828    3.5014 H   0  0  0  0  0  0  0  0  0  0  0  0
   -5.5011    2.7705    2.1645 H   0  0  0  0  0  0  0  0  0  0  0  0
  1  2  1  0  0  0  0
  1 26  1  0  0  0  0
  1 27  1  0  0  0  0
  1 28  1  0  0  0  0
  2  3  1  0  0  0  0
  2  4  1  0  0  0  0
  3 29  1  0  0  0  0
  3 30  1  0  0  0  0
  3 31  1  0  0  0  0
  4  9  2  0  0  0  0
  4  5  1  0  0  0  0
  5  6  2  0  0  0  0
  5 32  1  0  0  0  0
  6  7  1  0  0  0  0
  6 33  1  0  0  0  0
  7  8  2  0  0  0  0
  7 10  1  0  0  0  0
  8  9  1  0  0  0  0
  8 34  1  0  0  0  0
  9 35  1  0  0  0  0
 10 11  2  0  0  0  0
 10 36  1  0  0  0  0
 11 12  1  0  0  0  0
 11 16  1  0  0  0  0
 12 13  2  0  0  0  0
 12 14  1  0  0  0  0
 14 15  1  0  0  0  0
 14 37  1  0  0  0  0
 15 38  1  0  0  0  0
 15 39  1  0  0  0  0
 16 17  1  0  0  0  0
 16 40  1  0  0  0  0
 17 18  2  0  0  0  0
 17 19  1  0  0  0  0
 19 24  2  0  0  0  0
 19 20  1  0  0  0  0
 20 21  2  0  0  0  0
 20 41  1  0  0  0  0
 21 22  1  0  0  0  0
 21 42  1  0  0  0  0
 22 23  2  0  0  0  0
 22 43  1  0  0  0  0
 23 24  1  0  0  0  0
 23 25  1  0  0  0  0
 24 44  1  0  0  0  0
M  END
$$$$
ZINC04441466
  -OEChem-08230709453D

 40 41  0     0  0  0  0  0  0999 V2000
    1.9190   -0.7342   -0.6019 C   0  0  0  0  0  0  0  0  0  0  0  0
    0.5212   -0.1719   -0.5685 C   0  0  0  0  0  0  0  0  0  0  0  0
   -0.3966   -0.7992   -1.0537 O   0  0  0  0  0  0  0  0  0  0  0  0
    0.2909    1.0280    0.0004 N   0  0  0  0  0  0  0  0  0  0  0  0
   -0.9912    1.5895   -0.0439 C   0  0  0  0  0  0  0  0  0  0  0  0
   -1.1432    2.9651   -0.1598 C   0  0  0  0  0  0  0  0  0  0  0  0
   -2.4068    3.5182   -0.2092 C   0  0  0  0  0  0  0  0  0  0  0  0
   -3.5267    2.6997   -0.1316 C   0  0  0  0  0  0  0  0  0  0  0  0
   -3.3745    1.3242   -0.0100 C   0  0  0  0  0  0  0  0  0  0  0  0
   -2.1107    0.7710    0.0336 C   0  0  0  0  0  0  0  0  0  0  0  0
   -4.8074    3.2605   -0.1764 N   0  0  0  0  0  0  0  0  0  0  0  0
   -4.9551    4.5962   -0.2944 C   0  0  0  0  0  0  0  0  0  0  0  0
   -6.2160    5.1606   -0.2318 C   0  0  0  0  0  0  0  0  0  0  0  0
   -7.4292    4.3268   -0.1590 C   0  0  0  0  0  0  0  0  0  0  0  0
   -7.3532    3.1125   -0.1520 O   0  0  0  0  0  0  0  0  0  0  0  0
   -8.6260    4.9464   -0.0999 N   0  0  0  0  0  0  0  0  0  0  0  0
   -8.7239    6.2832   -0.1064 C   0  0  0  0  0  0  0  0  0  0  0  0
  -10.2849    6.9819   -0.0283 S   0  0  0  0  0  0  0  0  0  0  0  0
   -7.6646    7.1020   -0.1712 N   0  0  0  0  0  0  0  0  0  0  0  0
   -6.4052    6.6222   -0.2288 C   0  0  0  0  0  0  0  0  0  0  0  0
   -5.4513    7.3758   -0.2819 O   0  0  0  0  0  0  0  0  0  0  0  0
   -7.8792    8.5512   -0.1728 C   0  0  0  0  0  0  0  0  0  0  0  0
   -7.8761    9.0610    1.2453 C   0  0  0  0  0  0  0  0  0  0  0  0
   -7.0583   10.0235    1.5935 C   0  0  0  0  0  0  0  0  0  0  0  0
    2.6035   -0.0347   -0.1222 H   0  0  0  0  0  0  0  0  0  0  0  0
    1.9406   -1.6858   -0.0707 H   0  0  0  0  0  0  0  0  0  0  0  0
    2.2238   -0.8889   -1.6369 H   0  0  0  0  0  0  0  0  0  0  0  0
    1.0124    1.5009    0.4440 H   0  0  0  0  0  0  0  0  0  0  0  0
   -0.2726    3.6018   -0.2153 H   0  0  0  0  0  0  0  0  0  0  0  0
   -2.5250    4.5875   -0.3037 H   0  0  0  0  0  0  0  0  0  0  0  0
   -4.2449    0.6878    0.0507 H   0  0  0  0  0  0  0  0  0  0  0  0
   -1.9923   -0.2983    0.1278 H   0  0  0  0  0  0  0  0  0  0  0  0
   -5.5893    2.6889   -0.1225 H   0  0  0  0  0  0  0  0  0  0  0  0
   -4.0887    5.2247   -0.4378 H   0  0  0  0  0  0  0  0  0  0  0  0
   -9.4342    4.4123   -0.0512 H   0  0  0  0  0  0  0  0  0  0  0  0
   -7.0812    9.0360   -0.7351 H   0  0  0  0  0  0  0  0  0  0  0  0
   -8.8393    8.7757   -0.6375 H   0  0  0  0  0  0  0  0  0  0  0  0
   -8.5479    8.6330    1.9745 H   0  0  0  0  0  0  0  0  0  0  0  0
   -7.0561   10.3889    2.6098 H   0  0  0  0  0  0  0  0  0  0  0  0
   -6.3865   10.4515    0.8642 H   0  0  0  0  0  0  0  0  0  0  0  0
  1  2  1  0  0  0  0
  1 25  1  0  0  0  0
  1 26  1  0  0  0  0
  1 27  1  0  0  0  0
  2  3  2  0  0  0  0
  2  4  1  0  0  0  0
  4  5  1  0  0  0  0
  4 28  1  0  0  0  0
  5 10  2  0  0  0  0
  5  6  1  0  0  0  0
  6  7  2  0  0  0  0
  6 29  1  0  0  0  0
  7  8  1  0  0  0  0
  7 30  1  0  0  0  0
  8  9  2  0  0  0  0
  8 11  1  0  0  0  0
  9 10  1  0  0  0  0
  9 31  1  0  0  0  0
 10 32  1  0  0  0  0
 11 12  1  0  0  0  0
 11 33  1  0  0  0  0
 12 13  2  0  0  0  0
 12 34  1  0  0  0  0
 13 20  1  0  0  0  0
 13 14  1  0  0  0  0
 14 15  2  0  0  0  0
 14 16  1  0  0  0  0
 16 17  1  0  0  0  0
 16 35  1  0  0  0  0
 17 18  2  0  0  0  0
 17 19  1  0  0  0  0
 19 20  1  0  0  0  0
 19 22  1  0  0  0  0
 20 21  2  0  0  0  0
 22 23  1  0  0  0  0
 22 36  1  0  0  0  0
 22 37  1  0  0  0  0
 23 24  2  0  0  0  0
 23 38  1  0  0  0  0
 24 39  1  0  0  0  0
 24 40  1  0  0  0  0
M  END
$$$$
ZINC04441824
  -OEChem-08230709453D

 44 45  0     0  0  0  0  0  0999 V2000
    0.1090   10.2550    1.6758 C   0  0  0  0  0  0  0  0  0  0  0  0
    0.7713    9.9989    0.3944 N   0  0  0  0  0  0  0  0  0  0  0  0
    0.9940    8.7320   -0.0077 C   0  0  0  0  0  0  0  0  0  0  0  0
    0.5028    7.4219    0.9789 S   0  0  0  0  0  0  0  0  0  0  0  0
    1.6351    8.4840   -1.2483 C   0  0  0  0  0  0  0  0  0  0  0  0
    1.9699    7.1777   -1.6128 C   0  0  0  0  0  0  0  0  0  0  0  0
    2.7047    6.9509   -2.7397 N   0  0  0  0  0  0  0  0  0  0  0  0
    1.5620    6.1286   -0.8417 N   0  0  0  0  0  0  0  0  0  0  0  0
    2.4367    5.5745    0.2029 C   0  0  0  0  0  0  0  0  0  0  0  0
    2.5242    4.0569    0.0100 C   0  0  0  0  0  0  0  0  0  0  0  0
    1.1685    3.4924   -0.0288 N   0  0  0  0  0  0  0  0  0  0  0  0
    0.4100    4.0064   -1.1770 C   0  0  0  0  0  0  0  0  0  0  0  0
    0.2358    5.5220   -1.0328 C   0  0  0  0  0  0  0  0  0  0  0  0
    1.2078    2.0936   -0.0393 C   0  0  0  0  0  0  0  0  0  0  0  0
    0.0258    1.3657   -0.0751 C   0  0  0  0  0  0  0  0  0  0  0  0
    0.0655   -0.0148   -0.0859 C   0  0  0  0  0  0  0  0  0  0  0  0
    1.2855   -0.6741   -0.0614 C   0  0  0  0  0  0  0  0  0  0  0  0
    2.4666    0.0522   -0.0252 C   0  0  0  0  0  0  0  0  0  0  0  0
    2.4287    1.4327   -0.0134 C   0  0  0  0  0  0  0  0  0  0  0  0
    1.3237   -2.0335   -0.0725 O   0  0  0  0  0  0  0  0  0  0  0  0
    2.6143   -2.6465   -0.0459 C   0  0  0  0  0  0  0  0  0  0  0  0
    1.9394    9.5729   -2.1272 C   0  0  0  0  0  0  0  0  0  0  0  0
    2.1807   10.4366   -2.8245 N   0  0  0  0  0  0  0  0  0  0  0  0
   -0.8827    9.8027    1.6691 H   0  0  0  0  0  0  0  0  0  0  0  0
    0.7000    9.8225    2.4831 H   0  0  0  0  0  0  0  0  0  0  0  0
    0.0169   11.3303    1.8288 H   0  0  0  0  0  0  0  0  0  0  0  0
    1.0495   10.7412   -0.1646 H   0  0  0  0  0  0  0  0  0  0  0  0
    2.8744    6.0422   -3.0334 H   0  0  0  0  0  0  0  0  0  0  0  0
    3.0574    7.6985   -3.2474 H   0  0  0  0  0  0  0  0  0  0  0  0
    2.0190    5.7953    1.1852 H   0  0  0  0  0  0  0  0  0  0  0  0
    3.4317    6.0120    0.1213 H   0  0  0  0  0  0  0  0  0  0  0  0
    3.0780    3.6162    0.8390 H   0  0  0  0  0  0  0  0  0  0  0  0
    3.0362    3.8382   -0.9271 H   0  0  0  0  0  0  0  0  0  0  0  0
    0.9514    3.7884   -2.0976 H   0  0  0  0  0  0  0  0  0  0  0  0
   -0.5695    3.5291   -1.2090 H   0  0  0  0  0  0  0  0  0  0  0  0
   -0.3934    5.7377   -0.1693 H   0  0  0  0  0  0  0  0  0  0  0  0
   -0.2261    5.9277   -1.9329 H   0  0  0  0  0  0  0  0  0  0  0  0
   -0.9241    1.8790   -0.0990 H   0  0  0  0  0  0  0  0  0  0  0  0
   -0.8537   -0.5811   -0.1137 H   0  0  0  0  0  0  0  0  0  0  0  0
    3.4162   -0.4620   -0.0058 H   0  0  0  0  0  0  0  0  0  0  0  0
    3.3485    1.9981    0.0151 H   0  0  0  0  0  0  0  0  0  0  0  0
    3.1848   -2.3304   -0.9192 H   0  0  0  0  0  0  0  0  0  0  0  0
    3.1406   -2.3461    0.8601 H   0  0  0  0  0  0  0  0  0  0  0  0
    2.5019   -3.7306   -0.0583 H   0  0  0  0  0  0  0  0  0  0  0  0
  1  2  1  0  0  0  0
  1 24  1  0  0  0  0
  1 25  1  0  0  0  0
  1 26  1  0  0  0  0
  2  3  1  0  0  0  0
  2 27  1  0  0  0  0
  3  4  2  0  0  0  0
  3  5  1  0  0  0  0
  5  6  2  0  0  0  0
  5 22  1  0  0  0  0
  6  7  1  0  0  0  0
  6  8  1  0  0  0  0
  7 28  1  0  0  0  0
  7 29  1  0  0  0  0
  8 13  1  0  0  0  0
  8  9  1  0  0  0  0
  9 10  1  0  0  0  0
  9 30  1  0  0  0  0
  9 31  1  0  0  0  0
 10 11  1  0  0  0  0
 10 32  1  0  0  0  0
 10 33  1  0  0  0  0
 11 12  1  0  0  0  0
 11 14  1  0  0  0  0
 12 13  1  0  0  0  0
 12 34  1  0  0  0  0
 12 35  1  0  0  0  0
 13 36  1  0  0  0  0
 13 37  1  0  0  0  0
 14 19  2  0  0  0  0
 14 15  1  0  0  0  0
 15 16  2  0  0  0  0
 15 38  1  0  0  0  0
 16 17  1  0  0  0  0
 16 39  1  0  0  0  0
 17 18  2  0  0  0  0
 17 20  1  0  0  0  0
 18 19  1  0  0  0  0
 18 40  1  0  0  0  0
 19 41  1  0  0  0  0
 20 21  1  0  0  0  0
 21 42  1  0  0  0  0
 21 43  1  0  0  0  0
 21 44  1  0  0  0  0
 22 23  3  0  0  0  0
M  END
$$$$
ZINC04441827
  -OEChem-08230709453D

 44 45  0     0  0  0  0  0  0999 V2000
    0.9529   11.4132   -3.6566 C   0  0  0  0  0  0  0  0  0  0  0  0
    0.8656   10.4826   -2.5286 N   0  0  0  0  0  0  0  0  0  0  0  0
    1.4884    9.2889   -2.5900 C   0  0  0  0  0  0  0  0  0  0  0  0
    2.3815    8.8602   -3.9863 S   0  0  0  0  0  0  0  0  0  0  0  0
    1.4040    8.3879   -1.4980 C   0  0  0  0  0  0  0  0  0  0  0  0
    1.9194    7.0950   -1.6176 C   0  0  0  0  0  0  0  0  0  0  0  0
    2.3591    6.6453   -2.8283 N   0  0  0  0  0  0  0  0  0  0  0  0
    1.9829    6.2820   -0.5238 N   0  0  0  0  0  0  0  0  0  0  0  0
    3.1796    6.2587    0.3309 C   0  0  0  0  0  0  0  0  0  0  0  0
    3.6217    4.8025    0.5099 C   0  0  0  0  0  0  0  0  0  0  0  0
    2.4896    4.0076    1.0044 N   0  0  0  0  0  0  0  0  0  0  0  0
    1.3899    3.9833    0.0307 C   0  0  0  0  0  0  0  0  0  0  0  0
    0.8564    5.4060   -0.1679 C   0  0  0  0  0  0  0  0  0  0  0  0
    2.8948    2.7099    1.3358 C   0  0  0  0  0  0  0  0  0  0  0  0
    1.9698    1.7968    1.8246 C   0  0  0  0  0  0  0  0  0  0  0  0
    2.3705    0.5160    2.1510 C   0  0  0  0  0  0  0  0  0  0  0  0
    3.6963    0.1416    1.9903 C   0  0  0  0  0  0  0  0  0  0  0  0
    4.6210    1.0531    1.5026 C   0  0  0  0  0  0  0  0  0  0  0  0
    4.2222    2.3345    1.1765 C   0  0  0  0  0  0  0  0  0  0  0  0
    4.0899   -1.1200    2.3116 O   0  0  0  0  0  0  0  0  0  0  0  0
    5.4701   -1.4373    2.1210 C   0  0  0  0  0  0  0  0  0  0  0  0
    0.7904    8.8035   -0.2726 C   0  0  0  0  0  0  0  0  0  0  0  0
    0.3036    9.1332    0.6994 N   0  0  0  0  0  0  0  0  0  0  0  0
    1.9969   11.6699   -3.8360 H   0  0  0  0  0  0  0  0  0  0  0  0
    0.5358   10.9442   -4.5477 H   0  0  0  0  0  0  0  0  0  0  0  0
    0.3908   12.3181   -3.4254 H   0  0  0  0  0  0  0  0  0  0  0  0
    0.3596   10.7254   -1.7374 H   0  0  0  0  0  0  0  0  0  0  0  0
    1.8693    6.8679   -3.6355 H   0  0  0  0  0  0  0  0  0  0  0  0
    3.1616    6.1031   -2.8820 H   0  0  0  0  0  0  0  0  0  0  0  0
    2.9438    6.6919    1.3030 H   0  0  0  0  0  0  0  0  0  0  0  0
    3.9804    6.8293   -0.1396 H   0  0  0  0  0  0  0  0  0  0  0  0
    4.4399    4.7564    1.2286 H   0  0  0  0  0  0  0  0  0  0  0  0
    3.9555    4.4034   -0.4479 H   0  0  0  0  0  0  0  0  0  0  0  0
    1.7548    3.5956   -0.9204 H   0  0  0  0  0  0  0  0  0  0  0  0
    0.5896    3.3432    0.4019 H   0  0  0  0  0  0  0  0  0  0  0  0
    0.3972    5.7572    0.7562 H   0  0  0  0  0  0  0  0  0  0  0  0
    0.1182    5.4147   -0.9698 H   0  0  0  0  0  0  0  0  0  0  0  0
    0.9365    2.0867    1.9453 H   0  0  0  0  0  0  0  0  0  0  0  0
    1.6512   -0.1942    2.5312 H   0  0  0  0  0  0  0  0  0  0  0  0
    5.6532    0.7608    1.3781 H   0  0  0  0  0  0  0  0  0  0  0  0
    4.9424    3.0443    0.7971 H   0  0  0  0  0  0  0  0  0  0  0  0
    5.7311   -1.3076    1.0707 H   0  0  0  0  0  0  0  0  0  0  0  0
    6.0830   -0.7747    2.7321 H   0  0  0  0  0  0  0  0  0  0  0  0
    5.6491   -2.4715    2.4148 H   0  0  0  0  0  0  0  0  0  0  0  0
  1  2  1  0  0  0  0
  1 24  1  0  0  0  0
  1 25  1  0  0  0  0
  1 26  1  0  0  0  0
  2  3  1  0  0  0  0
  2 27  1  0  0  0  0
  3  4  2  0  0  0  0
  3  5  1  0  0  0  0
  5  6  2  0  0  0  0
  5 22  1  0  0  0  0
  6  7  1  0  0  0  0
  6  8  1  0  0  0  0
  7 28  1  0  0  0  0
  7 29  1  0  0  0  0
  8 13  1  0  0  0  0
  8  9  1  0  0  0  0
  9 10  1  0  0  0  0
  9 30  1  0  0  0  0
  9 31  1  0  0  0  0
 10 11  1  0  0  0  0
 10 32  1  0  0  0  0
 10 33  1  0  0  0  0
 11 12  1  0  0  0  0
 11 14  1  0  0  0  0
 12 13  1  0  0  0  0
 12 34  1  0  0  0  0
 12 35  1  0  0  0  0
 13 36  1  0  0  0  0
 13 37  1  0  0  0  0
 14 19  2  0  0  0  0
 14 15  1  0  0  0  0
 15 16  2  0  0  0  0
 15 38  1  0  0  0  0
 16 17  1  0  0  0  0
 16 39  1  0  0  0  0
 17 18  2  0  0  0  0
 17 20  1  0  0  0  0
 18 19  1  0  0  0  0
 18 40  1  0  0  0  0
 19 41  1  0  0  0  0
 20 21  1  0  0  0  0
 21 42  1  0  0  0  0
 21 43  1  0  0  0  0
 21 44  1  0  0  0  0
 22 23  3  0  0  0  0
M  END
$$$$
ZINC04442587
  -OEChem-08230709453D

 41 43  0     0  0  0  0  0  0999 V2000
   -2.2964   -5.2002   -1.8654 C   0  0  0  0  0  0  0  0  0  0  0  0
   -3.1055   -4.2305   -1.1229 N   0  0  0  0  0  0  0  0  0  0  0  0
   -4.4304   -4.3661   -0.7735 C   0  0  0  0  0  0  0  0  0  0  0  0
   -4.7755   -3.2524   -0.1054 C   0  0  0  0  0  0  0  0  0  0  0  0
   -3.6995   -2.4507   -0.0353 N   0  0  0  0  0  0  0  0  0  0  0  0
   -2.6903   -3.0244   -0.6481 C   0  0  0  0  0  0  0  0  0  0  0  0
   -1.0712   -2.3508   -0.8201 S   0  0  0  0  0  0  0  0  0  0  0  0
   -1.2933   -0.7746    0.0414 C   0  0  0  0  0  0  0  0  0  0  0  0
    0.0015   -0.0038    0.0204 C   0  0  0  0  0  0  0  0  0  0  0  0
   -0.0166    1.3487    0.0244 N   0  0  0  0  0  0  0  0  0  0  0  0
   -0.8594    1.8286    0.0364 H   0  0  0  0  0  0  0  0  0  0  0  0
    1.1797    2.0372    0.0054 C   0  0  0  0  0  0  0  0  0  0  0  0
    1.1918    3.3601    0.0083 N   0  0  0  0  0  0  0  0  0  0  0  0
    0.0165    4.0553   -0.0805 C   0  0  0  0  0  0  0  0  0  0  0  0
   -0.5420    4.3306   -1.3309 C   0  0  0  0  0  0  0  0  0  0  0  0
   -1.7302    5.0263   -1.4149 C   0  0  0  0  0  0  0  0  0  0  0  0
   -2.3644    5.4629   -0.2603 C   0  0  0  0  0  0  0  0  0  0  0  0
   -1.8103    5.1972    0.9840 C   0  0  0  0  0  0  0  0  0  0  0  0
   -0.6257    4.4968    1.0787 C   0  0  0  0  0  0  0  0  0  0  0  0
   -3.5331    6.1530   -0.3485 O   0  0  0  0  0  0  0  0  0  0  0  0
   -4.0480    6.3920   -1.6599 C   0  0  0  0  0  0  0  0  0  0  0  0
    2.3302    1.3468   -0.0170 N   0  0  0  0  0  0  0  0  0  0  0  0
    2.3063    0.0243   -0.0197 C   0  0  0  0  0  0  0  0  0  0  0  0
    1.1429   -0.6430   -0.0012 N   0  0  0  0  0  0  0  0  0  0  0  0
    3.4889   -0.6751   -0.0422 N   0  0  0  0  0  0  0  0  0  0  0  0
   -1.8168   -5.8847   -1.1657 H   0  0  0  0  0  0  0  0  0  0  0  0
   -2.9367   -5.7639   -2.5439 H   0  0  0  0  0  0  0  0  0  0  0  0
   -1.5337   -4.6735   -2.4390 H   0  0  0  0  0  0  0  0  0  0  0  0
   -5.0705   -5.2074   -0.9946 H   0  0  0  0  0  0  0  0  0  0  0  0
   -5.7501   -3.0400    0.3088 H   0  0  0  0  0  0  0  0  0  0  0  0
   -1.5872   -0.9632    1.0740 H   0  0  0  0  0  0  0  0  0  0  0  0
   -2.0697   -0.1943   -0.4571 H   0  0  0  0  0  0  0  0  0  0  0  0
   -0.0467    3.9954   -2.2302 H   0  0  0  0  0  0  0  0  0  0  0  0
   -2.1654    5.2352   -2.3810 H   0  0  0  0  0  0  0  0  0  0  0  0
   -2.3076    5.5390    1.8797 H   0  0  0  0  0  0  0  0  0  0  0  0
   -0.1957    4.2899    2.0475 H   0  0  0  0  0  0  0  0  0  0  0  0
   -4.9813    6.9505   -1.5876 H   0  0  0  0  0  0  0  0  0  0  0  0
   -3.3235    6.9682   -2.2353 H   0  0  0  0  0  0  0  0  0  0  0  0
   -4.2321    5.4396   -2.1571 H   0  0  0  0  0  0  0  0  0  0  0  0
    3.4787   -1.6450   -0.0446 H   0  0  0  0  0  0  0  0  0  0  0  0
    4.3338   -0.1989   -0.0556 H   0  0  0  0  0  0  0  0  0  0  0  0
  1  2  1  0  0  0  0
  1 26  1  0  0  0  0
  1 27  1  0  0  0  0
  1 28  1  0  0  0  0
  2  6  1  0  0  0  0
  2  3  1  0  0  0  0
  3  4  2  0  0  0  0
  3 29  1  0  0  0  0
  4  5  1  0  0  0  0
  4 30  1  0  0  0  0
  5  6  2  0  0  0  0
  6  7  1  0  0  0  0
  7  8  1  0  0  0  0
  8  9  1  0  0  0  0
  8 31  1  0  0  0  0
  8 32  1  0  0  0  0
  9 24  2  0  0  0  0
  9 10  1  0  0  0  0
 10 11  1  0  0  0  0
 10 12  1  0  0  0  0
 12 13  2  0  0  0  0
 12 22  1  0  0  0  0
 13 14  1  0  0  0  0
 14 19  2  0  0  0  0
 14 15  1  0  0  0  0
 15 16  2  0  0  0  0
 15 33  1  0  0  0  0
 16 17  1  0  0  0  0
 16 34  1  0  0  0  0
 17 18  2  0  0  0  0
 17 20  1  0  0  0  0
 18 19  1  0  0  0  0
 18 35  1  0  0  0  0
 19 36  1  0  0  0  0
 20 21  1  0  0  0  0
 21 37  1  0  0  0  0
 21 38  1  0  0  0  0
 21 39  1  0  0  0  0
 22 23  2  0  0  0  0
 23 24  1  0  0  0  0
 23 25  1  0  0  0  0
 25 40  1  0  0  0  0
 25 41  1  0  0  0  0
M  END
$$$$
ZINC04451074
  -OEChem-08230709453D

 39 42  0     0  0  0  0  0  0999 V2000
    7.1678    5.2760   -0.1523 C   0  0  0  0  0  0  0  0  0  0  0  0
    5.9655    6.0379   -0.0251 O   0  0  0  0  0  0  0  0  0  0  0  0
    4.7951    5.3469   -0.0165 C   0  0  0  0  0  0  0  0  0  0  0  0
    4.8064    3.9643   -0.1282 C   0  0  0  0  0  0  0  0  0  0  0  0
    3.6208    3.2592   -0.1202 C   0  0  0  0  0  0  0  0  0  0  0  0
    2.4073    3.9360    0.0003 C   0  0  0  0  0  0  0  0  0  0  0  0
    2.3947    5.3266    0.1073 C   0  0  0  0  0  0  0  0  0  0  0  0
    3.5862    6.0283    0.1042 C   0  0  0  0  0  0  0  0  0  0  0  0
    3.5775    7.3839    0.2135 O   0  0  0  0  0  0  0  0  0  0  0  0
    2.3020    8.0168    0.3339 C   0  0  0  0  0  0  0  0  0  0  0  0
    1.1333    3.1795    0.0084 C   0  0  0  0  0  0  0  0  0  0  0  0
    1.1530    1.7818    0.0006 C   0  0  0  0  0  0  0  0  0  0  0  0
   -0.0126    1.0758    0.0080 C   0  0  0  0  0  0  0  0  0  0  0  0
   -1.2449    1.7772    0.0176 C   0  0  0  0  0  0  0  0  0  0  0  0
   -2.5990    1.2058    0.0338 C   0  0  0  0  0  0  0  0  0  0  0  0
   -3.6460    2.1125    0.0486 C   0  0  0  0  0  0  0  0  0  0  0  0
   -4.9854    1.7026    0.0600 C   0  0  0  0  0  0  0  0  0  0  0  0
   -5.2689    0.3476    0.0563 C   0  0  0  0  0  0  0  0  0  0  0  0
   -4.2049   -0.5613    0.0413 C   0  0  0  0  0  0  0  0  0  0  0  0
   -4.4433   -1.7589    0.0379 O   0  0  0  0  0  0  0  0  0  0  0  0
   -2.9311   -0.1477    0.0310 N   0  0  0  0  0  0  0  0  0  0  0  0
   -2.1986   -0.8284    0.0210 H   0  0  0  0  0  0  0  0  0  0  0  0
   -5.9858    2.6161    0.0740 O   0  0  0  0  0  0  0  0  0  0  0  0
   -2.8653    3.7060    0.0491 S   0  0  0  0  0  0  0  0  0  0  0  0
   -1.1681    3.1845    0.0300 C   0  0  0  0  0  0  0  0  0  0  0  0
   -0.0235    3.8316    0.0225 N   0  0  0  0  0  0  0  0  0  0  0  0
    7.1485    4.7206   -1.0901 H   0  0  0  0  0  0  0  0  0  0  0  0
    8.0261    5.9477   -0.1454 H   0  0  0  0  0  0  0  0  0  0  0  0
    7.2457    4.5783    0.6815 H   0  0  0  0  0  0  0  0  0  0  0  0
    5.7453    3.4388   -0.2219 H   0  0  0  0  0  0  0  0  0  0  0  0
    3.6322    2.1828   -0.2077 H   0  0  0  0  0  0  0  0  0  0  0  0
    1.4564    5.8539    0.1963 H   0  0  0  0  0  0  0  0  0  0  0  0
    2.4377    9.0954    0.4131 H   0  0  0  0  0  0  0  0  0  0  0  0
    1.6994    7.7901   -0.5457 H   0  0  0  0  0  0  0  0  0  0  0  0
    1.7959    7.6478    1.2260 H   0  0  0  0  0  0  0  0  0  0  0  0
    2.0976    1.2583   -0.0116 H   0  0  0  0  0  0  0  0  0  0  0  0
    0.0021   -0.0041    0.0020 H   0  0  0  0  0  0  0  0  0  0  0  0
   -6.2910   -0.0013    0.0644 H   0  0  0  0  0  0  0  0  0  0  0  0
   -6.8719    2.2289    0.0810 H   0  0  0  0  0  0  0  0  0  0  0  0
  1  2  1  0  0  0  0
  1 27  1  0  0  0  0
  1 28  1  0  0  0  0
  1 29  1  0  0  0  0
  2  3  1  0  0  0  0
  3  8  2  0  0  0  0
  3  4  1  0  0  0  0
  4  5  2  0  0  0  0
  4 30  1  0  0  0  0
  5  6  1  0  0  0  0
  5 31  1  0  0  0  0
  6  7  2  0  0  0  0
  6 11  1  0  0  0  0
  7  8  1  0  0  0  0
  7 32  1  0  0  0  0
  8  9  1  0  0  0  0
  9 10  1  0  0  0  0
 10 33  1  0  0  0  0
 10 34  1  0  0  0  0
 10 35  1  0  0  0  0
 11 26  2  0  0  0  0
 11 12  1  0  0  0  0
 12 13  2  0  0  0  0
 12 36  1  0  0  0  0
 13 14  1  0  0  0  0
 13 37  1  0  0  0  0
 14 25  2  0  0  0  0
 14 15  1  0  0  0  0
 15 21  1  0  0  0  0
 15 16  2  0  0  0  0
 16 17  1  0  0  0  0
 16 24  1  0  0  0  0
 17 18  2  0  0  0  0
 17 23  1  0  0  0  0
 18 19  1  0  0  0  0
 18 38  1  0  0  0  0
 19 20  2  0  0  0  0
 19 21  1  0  0  0  0
 21 22  1  0  0  0  0
 23 39  1  0  0  0  0
 24 25  1  0  0  0  0
 25 26  1  0  0  0  0
M  END
$$$$
ZINC04451074
  -OEChem-08230709453D

 39 42  0     0  0  0  0  0  0999 V2000
    7.1669    5.2762   -0.1885 C   0  0  0  0  0  0  0  0  0  0  0  0
    5.9652    6.0380   -0.0559 O   0  0  0  0  0  0  0  0  0  0  0  0
    4.7948    5.3470   -0.0431 C   0  0  0  0  0  0  0  0  0  0  0  0
    4.8057    3.9645   -0.1558 C   0  0  0  0  0  0  0  0  0  0  0  0
    3.6201    3.2594   -0.1435 C   0  0  0  0  0  0  0  0  0  0  0  0
    2.4071    3.9361   -0.0176 C   0  0  0  0  0  0  0  0  0  0  0  0
    2.3949    5.3266    0.0904 C   0  0  0  0  0  0  0  0  0  0  0  0
    3.5864    6.0283    0.0830 C   0  0  0  0  0  0  0  0  0  0  0  0
    3.5781    7.3838    0.1932 O   0  0  0  0  0  0  0  0  0  0  0  0
    2.3031    8.0166    0.3192 C   0  0  0  0  0  0  0  0  0  0  0  0
    1.1332    3.1796   -0.0049 C   0  0  0  0  0  0  0  0  0  0  0  0
    1.1528    1.7819   -0.0138 C   0  0  0  0  0  0  0  0  0  0  0  0
   -0.0127    1.0758   -0.0021 C   0  0  0  0  0  0  0  0  0  0  0  0
   -1.2449    1.7772    0.0179 C   0  0  0  0  0  0  0  0  0  0  0  0
   -2.5990    1.2058    0.0342 C   0  0  0  0  0  0  0  0  0  0  0  0
   -3.6459    2.1125    0.0539 C   0  0  0  0  0  0  0  0  0  0  0  0
   -4.9853    1.7026    0.0704 C   0  0  0  0  0  0  0  0  0  0  0  0
   -5.2688    0.3476    0.0669 C   0  0  0  0  0  0  0  0  0  0  0  0
   -4.2049   -0.5613    0.0421 C   0  0  0  0  0  0  0  0  0  0  0  0
   -4.4433   -1.7589    0.0387 O   0  0  0  0  0  0  0  0  0  0  0  0
   -2.9311   -0.1477    0.0318 N   0  0  0  0  0  0  0  0  0  0  0  0
   -5.4330   -1.9018    0.0475 H   0  0  0  0  0  0  0  0  0  0  0  0
   -5.9856    2.6160    0.0894 O   0  0  0  0  0  0  0  0  0  0  0  0
   -2.8652    3.7060    0.0527 S   0  0  0  0  0  0  0  0  0  0  0  0
   -1.1681    3.1845    0.0260 C   0  0  0  0  0  0  0  0  0  0  0  0
   -0.0236    3.8316    0.0143 N   0  0  0  0  0  0  0  0  0  0  0  0
    7.1439    4.7215   -1.1266 H   0  0  0  0  0  0  0  0  0  0  0  0
    8.0252    5.9479   -0.1846 H   0  0  0  0  0  0  0  0  0  0  0  0
    7.2482    4.5780    0.6445 H   0  0  0  0  0  0  0  0  0  0  0  0
    5.7442    3.4391   -0.2537 H   0  0  0  0  0  0  0  0  0  0  0  0
    3.6312    2.1830   -0.2318 H   0  0  0  0  0  0  0  0  0  0  0  0
    1.4570    5.8538    0.1835 H   0  0  0  0  0  0  0  0  0  0  0  0
    2.4391    9.0952    0.3986 H   0  0  0  0  0  0  0  0  0  0  0  0
    1.6970    7.7905   -0.5581 H   0  0  0  0  0  0  0  0  0  0  0  0
    1.8006    7.6470    1.2131 H   0  0  0  0  0  0  0  0  0  0  0  0
    2.0974    1.2584   -0.0301 H   0  0  0  0  0  0  0  0  0  0  0  0
    0.0020   -0.0040   -0.0089 H   0  0  0  0  0  0  0  0  0  0  0  0
   -6.2908   -0.0014    0.0793 H   0  0  0  0  0  0  0  0  0  0  0  0
   -6.8717    2.2288    0.0997 H   0  0  0  0  0  0  0  0  0  0  0  0
  1  2  1  0  0  0  0
  1 27  1  0  0  0  0
  1 28  1  0  0  0  0
  1 29  1  0  0  0  0
  2  3  1  0  0  0  0
  3  8  2  0  0  0  0
  3  4  1  0  0  0  0
  4  5  2  0  0  0  0
  4 30  1  0  0  0  0
  5  6  1  0  0  0  0
  5 31  1  0  0  0  0
  6  7  2  0  0  0  0
  6 11  1  0  0  0  0
  7  8  1  0  0  0  0
  7 32  1  0  0  0  0
  8  9  1  0  0  0  0
  9 10  1  0  0  0  0
 10 33  1  0  0  0  0
 10 34  1  0  0  0  0
 10 35  1  0  0  0  0
 11 26  2  0  0  0  0
 11 12  1  0  0  0  0
 12 13  2  0  0  0  0
 12 36  1  0  0  0  0
 13 14  1  0  0  0  0
 13 37  1  0  0  0  0
 14 25  2  0  0  0  0
 14 15  1  0  0  0  0
 15 16  2  0  0  0  0
 15 21  1  0  0  0  0
 16 24  1  0  0  0  0
 16 17  1  0  0  0  0
 17 23  1  0  0  0  0
 17 18  2  0  0  0  0
 18 38  1  0  0  0  0
 18 19  1  0  0  0  0
 19 21  2  0  0  0  0
 19 20  1  0  0  0  0
 20 22  1  0  0  0  0
 23 39  1  0  0  0  0
 24 25  1  0  0  0  0
 25 26  1  0  0  0  0
M  END
$$$$
ZINC04454698
  -OEChem-08230709453D

 43 46  0     0  0  0  0  0  0999 V2000
    1.2010   -0.6822   -0.0155 C   0  0  0  0  0  0  0  0  0  0  0  0
    0.0021   -0.0041    0.0020 C   0  0  0  0  0  0  0  0  0  0  0  0
   -0.0168    1.3855    0.0097 C   0  0  0  0  0  0  0  0  0  0  0  0
    1.1794    2.0995    0.0021 C   0  0  0  0  0  0  0  0  0  0  0  0
    2.3859    1.4250   -0.0171 C   0  0  0  0  0  0  0  0  0  0  0  0
    2.4041    0.0277   -0.0259 C   0  0  0  0  0  0  0  0  0  0  0  0
    3.6900   -0.6956   -0.0457 C   0  0  0  0  0  0  0  0  0  0  0  0
    4.7361   -0.0758   -0.0547 O   0  0  0  0  0  0  0  0  0  0  0  0
    3.7051   -2.0432   -0.0538 N   0  0  0  0  0  0  0  0  0  0  0  0
    4.9125   -2.7224   -0.0723 C   0  0  0  0  0  0  0  0  0  0  0  0
    5.1311   -4.0931   -0.0774 C   0  0  0  0  0  0  0  0  0  0  0  0
    6.5092   -4.5531   -0.1029 C   0  0  0  0  0  0  0  0  0  0  0  0
    7.4418   -3.5760   -0.1076 C   0  0  0  0  0  0  0  0  0  0  0  0
    6.5163   -2.0669   -0.0873 S   0  0  0  0  0  0  0  0  0  0  0  0
    8.9294   -3.7474   -0.1261 C   0  0  0  0  0  0  0  0  0  0  0  0
    9.2531   -5.2035    0.2388 C   0  0  0  0  0  0  0  0  0  0  0  0
    8.3621   -6.1304   -0.5933 C   0  0  0  0  0  0  0  0  0  0  0  0
    6.9121   -6.0225   -0.1181 C   0  0  0  0  0  0  0  0  0  0  0  0
    4.0132   -5.0414   -0.0617 C   0  0  0  0  0  0  0  0  0  0  0  0
    3.5335   -5.4340   -1.1091 O   0  0  0  0  0  0  0  0  0  0  0  0
    3.5166   -5.4783    1.1126 N   0  0  0  0  0  0  0  0  0  0  0  0
    1.1777    3.4608    0.0180 O   0  0  0  0  0  0  0  0  0  0  0  0
   -0.0490    4.1069   -0.3390 C   0  0  0  0  0  0  0  0  0  0  0  0
   -1.1940    3.4112    0.4095 C   0  0  0  0  0  0  0  0  0  0  0  0
   -1.2120    2.0335    0.0189 O   0  0  0  0  0  0  0  0  0  0  0  0
    1.2109   -1.7621   -0.0209 H   0  0  0  0  0  0  0  0  0  0  0  0
   -0.9271   -0.5546    0.0095 H   0  0  0  0  0  0  0  0  0  0  0  0
    3.3139    1.9775   -0.0256 H   0  0  0  0  0  0  0  0  0  0  0  0
    2.8706   -2.5377   -0.0466 H   0  0  0  0  0  0  0  0  0  0  0  0
    9.3124   -3.5246   -1.1220 H   0  0  0  0  0  0  0  0  0  0  0  0
    9.3855   -3.0760    0.6014 H   0  0  0  0  0  0  0  0  0  0  0  0
   10.3007   -5.4107    0.0203 H   0  0  0  0  0  0  0  0  0  0  0  0
    9.0623   -5.3654    1.2997 H   0  0  0  0  0  0  0  0  0  0  0  0
    8.4214   -5.8432   -1.6431 H   0  0  0  0  0  0  0  0  0  0  0  0
    8.7037   -7.1592   -0.4795 H   0  0  0  0  0  0  0  0  0  0  0  0
    6.2625   -6.5725   -0.7990 H   0  0  0  0  0  0  0  0  0  0  0  0
    6.8247   -6.4380    0.8858 H   0  0  0  0  0  0  0  0  0  0  0  0
    3.8989   -5.1654    1.9474 H   0  0  0  0  0  0  0  0  0  0  0  0
    2.7769   -6.1057    1.1230 H   0  0  0  0  0  0  0  0  0  0  0  0
   -0.0078    5.1579   -0.0527 H   0  0  0  0  0  0  0  0  0  0  0  0
   -0.2084    4.0248   -1.4141 H   0  0  0  0  0  0  0  0  0  0  0  0
   -1.0305    3.4878    1.4844 H   0  0  0  0  0  0  0  0  0  0  0  0
   -2.1426    3.8796    0.1472 H   0  0  0  0  0  0  0  0  0  0  0  0
  1  6  2  0  0  0  0
  1  2  1  0  0  0  0
  1 26  1  0  0  0  0
  2  3  2  0  0  0  0
  2 27  1  0  0  0  0
  3 25  1  0  0  0  0
  3  4  1  0  0  0  0
  4  5  2  0  0  0  0
  4 22  1  0  0  0  0
  5  6  1  0  0  0  0
  5 28  1  0  0  0  0
  6  7  1  0  0  0  0
  7  8  2  0  0  0  0
  7  9  1  0  0  0  0
  9 10  1  0  0  0  0
  9 29  1  0  0  0  0
 10 14  1  0  0  0  0
 10 11  2  0  0  0  0
 11 12  1  0  0  0  0
 11 19  1  0  0  0  0
 12 18  1  0  0  0  0
 12 13  2  0  0  0  0
 13 14  1  0  0  0  0
 13 15  1  0  0  0  0
 15 16  1  0  0  0  0
 15 30  1  0  0  0  0
 15 31  1  0  0  0  0
 16 17  1  0  0  0  0
 16 32  1  0  0  0  0
 16 33  1  0  0  0  0
 17 18  1  0  0  0  0
 17 34  1  0  0  0  0
 17 35  1  0  0  0  0
 18 36  1  0  0  0  0
 18 37  1  0  0  0  0
 19 20  2  0  0  0  0
 19 21  1  0  0  0  0
 21 38  1  0  0  0  0
 21 39  1  0  0  0  0
 22 23  1  0  0  0  0
 23 24  1  0  0  0  0
 23 40  1  0  0  0  0
 23 41  1  0  0  0  0
 24 25  1  0  0  0  0
 24 42  1  0  0  0  0
 24 43  1  0  0  0  0
M  END
$$$$
ZINC04454767
  -OEChem-08230709453D

 46 48  0     1  0  0  0  0  0999 V2000
    0.4990    5.6809   -3.4636 C   0  0  0  0  0  0  0  0  0  0  0  0
    1.9358    6.1837   -3.6170 C   0  0  0  0  0  0  0  0  0  0  0  0
    2.3300    6.9980   -2.3833 C   0  0  0  0  0  0  0  0  0  0  0  0
    2.2584    6.1239   -1.1531 C   0  0  0  0  0  0  0  0  0  0  0  0
    2.5104    4.8045   -1.2330 C   0  0  0  0  0  0  0  0  0  0  0  0
    2.4517    3.9351   -0.0002 C   0  0  1  0  0  0  0  0  0  0  0  0
    3.2873    3.2354   -0.0112 H   0  0  0  0  0  0  0  0  0  0  0  0
    2.5322    4.7884    1.2347 C   0  0  0  0  0  0  0  0  0  0  0  0
    2.2731    6.1145    1.1729 C   0  0  0  0  0  0  0  0  0  0  0  0
    1.9337    6.7056    0.0167 O   0  0  0  0  0  0  0  0  0  0  0  0
    2.3577    6.8712    2.3151 N   0  0  0  0  0  0  0  0  0  0  0  0
    2.8861    4.1941    2.4886 C   0  0  0  0  0  0  0  0  0  0  0  0
    3.1669    3.7226    3.4833 N   0  0  0  0  0  0  0  0  0  0  0  0
    1.1558    3.1658    0.0075 C   0  0  0  0  0  0  0  0  0  0  0  0
    1.1739    1.7833    0.0004 C   0  0  0  0  0  0  0  0  0  0  0  0
   -0.0126    1.0758    0.0080 C   0  0  0  0  0  0  0  0  0  0  0  0
   -1.2230    1.7537    0.0174 C   0  0  0  0  0  0  0  0  0  0  0  0
   -1.2384    3.1409    0.0293 C   0  0  0  0  0  0  0  0  0  0  0  0
   -0.0492    3.8437    0.0222 C   0  0  0  0  0  0  0  0  0  0  0  0
   -2.3916    1.0599    0.0196 O   0  0  0  0  0  0  0  0  0  0  0  0
   -3.5994    1.8236    0.0294 C   0  0  0  0  0  0  0  0  0  0  0  0
   -4.7558    0.9129    0.0304 C   0  0  0  0  0  0  0  0  0  0  0  0
   -5.6781    0.1865    0.0313 C   0  0  0  0  0  0  0  0  0  0  0  0
    2.8330    4.1939   -2.4602 C   0  0  0  0  0  0  0  0  0  0  0  0
    3.0702    3.0029   -2.4896 O   0  0  0  0  0  0  0  0  0  0  0  0
    2.8894    4.9899   -3.7356 C   0  0  0  0  0  0  0  0  0  0  0  0
    2.0434    7.0594   -4.8670 C   0  0  0  0  0  0  0  0  0  0  0  0
   -0.1747    6.5317   -3.3612 H   0  0  0  0  0  0  0  0  0  0  0  0
    0.2210    5.1012   -4.3439 H   0  0  0  0  0  0  0  0  0  0  0  0
    0.4270    5.0516   -2.5766 H   0  0  0  0  0  0  0  0  0  0  0  0
    1.6466    7.8396   -2.2706 H   0  0  0  0  0  0  0  0  0  0  0  0
    3.3470    7.3710   -2.5046 H   0  0  0  0  0  0  0  0  0  0  0  0
    2.1731    7.8229    2.2812 H   0  0  0  0  0  0  0  0  0  0  0  0
    2.6022    6.4543    3.1561 H   0  0  0  0  0  0  0  0  0  0  0  0
    2.1164    1.2561   -0.0114 H   0  0  0  0  0  0  0  0  0  0  0  0
    0.0021   -0.0041    0.0020 H   0  0  0  0  0  0  0  0  0  0  0  0
   -2.1794    3.6708    0.0400 H   0  0  0  0  0  0  0  0  0  0  0  0
   -0.0606    4.9237    0.0277 H   0  0  0  0  0  0  0  0  0  0  0  0
   -3.6275    2.4476    0.9227 H   0  0  0  0  0  0  0  0  0  0  0  0
   -3.6362    2.4566   -0.8572 H   0  0  0  0  0  0  0  0  0  0  0  0
   -6.5030   -0.4632    0.0320 H   0  0  0  0  0  0  0  0  0  0  0  0
    2.6114    4.4165   -4.5063 H   0  0  0  0  0  0  0  0  0  0  0  0
    3.9057    5.3490   -3.8974 H   0  0  0  0  0  0  0  0  0  0  0  0
    3.0695    7.4102   -4.9777 H   0  0  0  0  0  0  0  0  0  0  0  0
    1.7620    6.4767   -5.7441 H   0  0  0  0  0  0  0  0  0  0  0  0
    1.3754    7.9152   -4.7697 H   0  0  0  0  0  0  0  0  0  0  0  0
  1  2  1  0  0  0  0
  1 28  1  0  0  0  0
  1 29  1  0  0  0  0
  1 30  1  0  0  0  0
  2 26  1  0  0  0  0
  2  3  1  0  0  0  0
  2 27  1  0  0  0  0
  3  4  1  0  0  0  0
  3 31  1  0  0  0  0
  3 32  1  0  0  0  0
  4 10  1  0  0  0  0
  4  5  2  0  0  0  0
  5  6  1  0  0  0  0
  5 24  1  0  0  0  0
  6  7  1  0  0  0  0
  6  8  1  0  0  0  0
  6 14  1  0  0  0  0
  8  9  2  0  0  0  0
  8 12  1  0  0  0  0
  9 10  1  0  0  0  0
  9 11  1  0  0  0  0
 11 33  1  0  0  0  0
 11 34  1  0  0  0  0
 12 13  3  0  0  0  0
 14 19  2  0  0  0  0
 14 15  1  0  0  0  0
 15 16  2  0  0  0  0
 15 35  1  0  0  0  0
 16 17  1  0  0  0  0
 16 36  1  0  0  0  0
 17 18  2  0  0  0  0
 17 20  1  0  0  0  0
 18 19  1  0  0  0  0
 18 37  1  0  0  0  0
 19 38  1  0  0  0  0
 20 21  1  0  0  0  0
 21 22  1  0  0  0  0
 21 39  1  0  0  0  0
 21 40  1  0  0  0  0
 22 23  3  0  0  0  0
 23 41  1  0  0  0  0
 24 25  2  0  0  0  0
 24 26  1  0  0  0  0
 26 42  1  0  0  0  0
 26 43  1  0  0  0  0
 27 44  1  0  0  0  0
 27 45  1  0  0  0  0
 27 46  1  0  0  0  0
M  END
$$$$
ZINC04454771
  -OEChem-08230709453D

 46 48  0     1  0  0  0  0  0999 V2000
    4.0296    0.9823    1.5767 C   0  0  0  0  0  0  0  0  0  0  0  0
    4.1437    2.0337    0.4710 C   0  0  0  0  0  0  0  0  0  0  0  0
    3.1709    3.1809    0.7500 C   0  0  0  0  0  0  0  0  0  0  0  0
    1.7544    2.6557    0.7629 C   0  0  0  0  0  0  0  0  0  0  0  0
    1.4045    1.6059   -0.0027 C   0  0  0  0  0  0  0  0  0  0  0  0
   -0.0127    1.0858    0.0080 C   0  0  1  0  0  0  0  0  0  0  0  0
    0.0021   -0.0041    0.0020 H   0  0  0  0  0  0  0  0  0  0  0  0
   -0.7298    1.5680    1.2381 C   0  0  0  0  0  0  0  0  0  0  0  0
   -0.2528    2.6252    1.9391 C   0  0  0  0  0  0  0  0  0  0  0  0
    0.8601    3.2715    1.5587 O   0  0  0  0  0  0  0  0  0  0  0  0
   -0.9221    3.0436    3.0622 N   0  0  0  0  0  0  0  0  0  0  0  0
   -1.9238    0.9067    1.6712 C   0  0  0  0  0  0  0  0  0  0  0  0
   -2.8710    0.3821    2.0149 N   0  0  0  0  0  0  0  0  0  0  0  0
   -0.7368    1.5826   -1.2167 C   0  0  0  0  0  0  0  0  0  0  0  0
   -0.8881    2.9412   -1.4253 C   0  0  0  0  0  0  0  0  0  0  0  0
   -1.5472    3.3998   -2.5496 C   0  0  0  0  0  0  0  0  0  0  0  0
   -2.0668    2.4962   -3.4647 C   0  0  0  0  0  0  0  0  0  0  0  0
   -1.9184    1.1327   -3.2508 C   0  0  0  0  0  0  0  0  0  0  0  0
   -1.2534    0.6792   -2.1267 C   0  0  0  0  0  0  0  0  0  0  0  0
   -2.5667   -0.0018   -4.3938 Cl  0  0  0  0  0  0  0  0  0  0  0  0
   -2.7205    2.9450   -4.5687 O   0  0  0  0  0  0  0  0  0  0  0  0
   -2.8354    4.3609   -4.7237 C   0  0  0  0  0  0  0  0  0  0  0  0
   -3.5671    4.6608   -5.9653 C   0  0  0  0  0  0  0  0  0  0  0  0
   -4.1507    4.9000   -6.9555 C   0  0  0  0  0  0  0  0  0  0  0  0
    2.3413    0.9604   -0.8328 C   0  0  0  0  0  0  0  0  0  0  0  0
    1.9828    0.0289   -1.5251 O   0  0  0  0  0  0  0  0  0  0  0  0
    3.7781    1.4045   -0.8777 C   0  0  0  0  0  0  0  0  0  0  0  0
    5.5757    2.5697    0.4171 C   0  0  0  0  0  0  0  0  0  0  0  0
    4.7104    0.1577    1.3657 H   0  0  0  0  0  0  0  0  0  0  0  0
    4.2901    1.4326    2.5345 H   0  0  0  0  0  0  0  0  0  0  0  0
    3.0068    0.6076    1.6176 H   0  0  0  0  0  0  0  0  0  0  0  0
    3.4020    3.6251    1.7182 H   0  0  0  0  0  0  0  0  0  0  0  0
    3.2691    3.9372   -0.0287 H   0  0  0  0  0  0  0  0  0  0  0  0
   -0.5896    3.7991    3.5717 H   0  0  0  0  0  0  0  0  0  0  0  0
   -1.7275    2.5838    3.3464 H   0  0  0  0  0  0  0  0  0  0  0  0
   -0.4874    3.6446   -0.7105 H   0  0  0  0  0  0  0  0  0  0  0  0
   -1.6613    4.4611   -2.7137 H   0  0  0  0  0  0  0  0  0  0  0  0
   -1.1371   -0.3814   -1.9596 H   0  0  0  0  0  0  0  0  0  0  0  0
   -3.3763    4.7768   -3.8737 H   0  0  0  0  0  0  0  0  0  0  0  0
   -1.8403    4.8030   -4.7727 H   0  0  0  0  0  0  0  0  0  0  0  0
   -4.6726    5.1139   -7.8411 H   0  0  0  0  0  0  0  0  0  0  0  0
    4.3716    0.6185   -1.0506 H   0  0  0  0  0  0  0  0  0  0  0  0
    3.9083    2.1403   -1.6713 H   0  0  0  0  0  0  0  0  0  0  0  0
    5.6522    3.3236   -0.3665 H   0  0  0  0  0  0  0  0  0  0  0  0
    5.8329    3.0165    1.3775 H   0  0  0  0  0  0  0  0  0  0  0  0
    6.2623    1.7509    0.2018 H   0  0  0  0  0  0  0  0  0  0  0  0
  1  2  1  0  0  0  0
  1 29  1  0  0  0  0
  1 30  1  0  0  0  0
  1 31  1  0  0  0  0
  2 27  1  0  0  0  0
  2  3  1  0  0  0  0
  2 28  1  0  0  0  0
  3  4  1  0  0  0  0
  3 32  1  0  0  0  0
  3 33  1  0  0  0  0
  4 10  1  0  0  0  0
  4  5  2  0  0  0  0
  5  6  1  0  0  0  0
  5 25  1  0  0  0  0
  6  7  1  0  0  0  0
  6  8  1  0  0  0  0
  6 14  1  0  0  0  0
  8  9  2  0  0  0  0
  8 12  1  0  0  0  0
  9 10  1  0  0  0  0
  9 11  1  0  0  0  0
 11 34  1  0  0  0  0
 11 35  1  0  0  0  0
 12 13  3  0  0  0  0
 14 19  2  0  0  0  0
 14 15  1  0  0  0  0
 15 16  2  0  0  0  0
 15 36  1  0  0  0  0
 16 17  1  0  0  0  0
 16 37  1  0  0  0  0
 17 18  2  0  0  0  0
 17 21  1  0  0  0  0
 18 19  1  0  0  0  0
 18 20  1  0  0  0  0
 19 38  1  0  0  0  0
 21 22  1  0  0  0  0
 22 23  1  0  0  0  0
 22 39  1  0  0  0  0
 22 40  1  0  0  0  0
 23 24  3  0  0  0  0
 24 41  1  0  0  0  0
 25 26  2  0  0  0  0
 25 27  1  0  0  0  0
 27 42  1  0  0  0  0
 27 43  1  0  0  0  0
 28 44  1  0  0  0  0
 28 45  1  0  0  0  0
 28 46  1  0  0  0  0
M  END
$$$$
ZINC04455842
  -OEChem-08230709453D

 40 41  0     0  0  0  0  0  0999 V2000
    9.1702   10.2576   -0.1427 C   0  0  0  0  0  0  0  0  0  0  0  0
    9.2556    8.7986   -0.0408 N   0  0  0  0  0  0  0  0  0  0  0  0
   10.5639    8.1464    0.0550 C   0  0  0  0  0  0  0  0  0  0  0  0
    8.0917    8.0308   -0.0350 C   0  0  0  0  0  0  0  0  0  0  0  0
    6.8489    8.6550   -0.0053 C   0  0  0  0  0  0  0  0  0  0  0  0
    5.6971    7.9000    0.0005 C   0  0  0  0  0  0  0  0  0  0  0  0
    5.7780    6.5045   -0.0234 C   0  0  0  0  0  0  0  0  0  0  0  0
    7.0289    5.8807   -0.0478 C   0  0  0  0  0  0  0  0  0  0  0  0
    8.1762    6.6425   -0.0583 C   0  0  0  0  0  0  0  0  0  0  0  0
    4.5481    5.6932   -0.0167 C   0  0  0  0  0  0  0  0  0  0  0  0
    4.6252    4.3968   -0.0389 N   0  0  0  0  0  0  0  0  0  0  0  0
    3.4557    3.6254   -0.0326 N   0  0  0  0  0  0  0  0  0  0  0  0
    3.5357    2.2802   -0.0556 C   0  0  0  0  0  0  0  0  0  0  0  0
    4.6222    1.7364   -0.0819 O   0  0  0  0  0  0  0  0  0  0  0  0
    2.2964    1.4626   -0.0489 C   0  0  0  0  0  0  0  0  0  0  0  0
    2.3758    0.0819   -0.0725 C   0  0  0  0  0  0  0  0  0  0  0  0
    1.1792   -0.6646   -0.0658 C   0  0  0  0  0  0  0  0  0  0  0  0
    1.2073   -1.8836   -0.0864 O   0  0  0  0  0  0  0  0  0  0  0  0
    0.0023   -0.0044   -0.0366 N   0  0  0  0  0  0  0  0  0  0  0  0
   -0.8571   -0.5156   -0.0313 H   0  0  0  0  0  0  0  0  0  0  0  0
   -0.0161    1.3572   -0.0143 C   0  0  0  0  0  0  0  0  0  0  0  0
    1.0982    2.0594   -0.0204 N   0  0  0  0  0  0  0  0  0  0  0  0
   -1.5644    2.1977    0.0162 S   0  0  0  0  0  0  0  0  0  0  0  0
   -0.9898    3.9140    0.0379 C   0  0  0  0  0  0  0  0  0  0  0  0
    8.1243   10.5632   -0.1139 H   0  0  0  0  0  0  0  0  0  0  0  0
    9.7047   10.7120    0.6915 H   0  0  0  0  0  0  0  0  0  0  0  0
    9.6181   10.5831   -1.0817 H   0  0  0  0  0  0  0  0  0  0  0  0
   10.9289    7.9154   -0.9458 H   0  0  0  0  0  0  0  0  0  0  0  0
   11.2671    8.8139    0.5531 H   0  0  0  0  0  0  0  0  0  0  0  0
   10.4692    7.2246    0.6289 H   0  0  0  0  0  0  0  0  0  0  0  0
    6.7871    9.7331    0.0135 H   0  0  0  0  0  0  0  0  0  0  0  0
    4.7325    8.3853    0.0239 H   0  0  0  0  0  0  0  0  0  0  0  0
    7.0954    4.8028   -0.0621 H   0  0  0  0  0  0  0  0  0  0  0  0
    9.1429    6.1614   -0.0813 H   0  0  0  0  0  0  0  0  0  0  0  0
    3.5825    6.1764    0.0067 H   0  0  0  0  0  0  0  0  0  0  0  0
    2.5885    4.0594   -0.0116 H   0  0  0  0  0  0  0  0  0  0  0  0
    3.3347   -0.4145   -0.0960 H   0  0  0  0  0  0  0  0  0  0  0  0
   -0.3776    4.0810    0.9241 H   0  0  0  0  0  0  0  0  0  0  0  0
   -0.3969    4.1100   -0.8555 H   0  0  0  0  0  0  0  0  0  0  0  0
   -1.8490    4.5845    0.0581 H   0  0  0  0  0  0  0  0  0  0  0  0
  1  2  1  0  0  0  0
  1 25  1  0  0  0  0
  1 26  1  0  0  0  0
  1 27  1  0  0  0  0
  2  3  1  0  0  0  0
  2  4  1  0  0  0  0
  3 28  1  0  0  0  0
  3 29  1  0  0  0  0
  3 30  1  0  0  0  0
  4  9  2  0  0  0  0
  4  5  1  0  0  0  0
  5  6  2  0  0  0  0
  5 31  1  0  0  0  0
  6  7  1  0  0  0  0
  6 32  1  0  0  0  0
  7  8  2  0  0  0  0
  7 10  1  0  0  0  0
  8  9  1  0  0  0  0
  8 33  1  0  0  0  0
  9 34  1  0  0  0  0
 10 11  2  0  0  0  0
 10 35  1  0  0  0  0
 11 12  1  0  0  0  0
 12 13  1  0  0  0  0
 12 36  1  0  0  0  0
 13 14  2  0  0  0  0
 13 15  1  0  0  0  0
 15 22  1  0  0  0  0
 15 16  2  0  0  0  0
 16 17  1  0  0  0  0
 16 37  1  0  0  0  0
 17 18  2  0  0  0  0
 17 19  1  0  0  0  0
 19 20  1  0  0  0  0
 19 21  1  0  0  0  0
 21 22  2  0  0  0  0
 21 23  1  0  0  0  0
 23 24  1  0  0  0  0
 24 38  1  0  0  0  0
 24 39  1  0  0  0  0
 24 40  1  0  0  0  0
M  END
$$$$
ZINC04455842
  -OEChem-08230709453D

 40 41  0     0  0  0  0  0  0999 V2000
   -2.6386   12.5273   -0.0189 C   0  0  0  0  0  0  0  0  0  0  0  0
   -1.3600   11.8185    0.0762 N   0  0  0  0  0  0  0  0  0  0  0  0
   -0.1095   12.5744    0.1810 C   0  0  0  0  0  0  0  0  0  0  0  0
   -1.3333   10.4242    0.0669 C   0  0  0  0  0  0  0  0  0  0  0  0
   -2.5252    9.7073    0.0879 C   0  0  0  0  0  0  0  0  0  0  0  0
   -2.5028    8.3302    0.0794 C   0  0  0  0  0  0  0  0  0  0  0  0
   -1.2802    7.6530    0.0489 C   0  0  0  0  0  0  0  0  0  0  0  0
   -0.0844    8.3769    0.0326 C   0  0  0  0  0  0  0  0  0  0  0  0
   -0.1149    9.7538    0.0370 C   0  0  0  0  0  0  0  0  0  0  0  0
   -1.2520    6.1797    0.0401 C   0  0  0  0  0  0  0  0  0  0  0  0
   -0.1154    5.5523    0.0118 N   0  0  0  0  0  0  0  0  0  0  0  0
   -0.0886    4.1516    0.0033 N   0  0  0  0  0  0  0  0  0  0  0  0
    1.0911    3.5003   -0.0260 C   0  0  0  0  0  0  0  0  0  0  0  0
    2.1315    4.1282   -0.0452 O   0  0  0  0  0  0  0  0  0  0  0  0
    1.1195    2.0171   -0.0349 C   0  0  0  0  0  0  0  0  0  0  0  0
    2.3325    1.3342   -0.0666 C   0  0  0  0  0  0  0  0  0  0  0  0
    2.3082   -0.0614   -0.0737 C   0  0  0  0  0  0  0  0  0  0  0  0
    1.1390   -0.6866   -0.0484 N   0  0  0  0  0  0  0  0  0  0  0  0
    0.0027   -0.0038   -0.0194 C   0  0  0  0  0  0  0  0  0  0  0  0
   -0.0153    1.3194   -0.0126 N   0  0  0  0  0  0  0  0  0  0  0  0
   -1.5244   -0.8821    0.0107 S   0  0  0  0  0  0  0  0  0  0  0  0
   -0.9087   -2.5840   -0.0115 C   0  0  0  0  0  0  0  0  0  0  0  0
    3.4641   -0.7681   -0.1028 O   0  0  0  0  0  0  0  0  0  0  0  0
   -3.4560   11.8065    0.0016 H   0  0  0  0  0  0  0  0  0  0  0  0
   -2.7376   13.2128    0.8228 H   0  0  0  0  0  0  0  0  0  0  0  0
   -2.6737   13.0899   -0.9518 H   0  0  0  0  0  0  0  0  0  0  0  0
    0.2814   12.7702   -0.8175 H   0  0  0  0  0  0  0  0  0  0  0  0
   -0.2981   13.5200    0.6892 H   0  0  0  0  0  0  0  0  0  0  0  0
    0.6185   11.9954    0.7491 H   0  0  0  0  0  0  0  0  0  0  0  0
   -3.4693   10.2312    0.1114 H   0  0  0  0  0  0  0  0  0  0  0  0
   -3.4286    7.7743    0.0965 H   0  0  0  0  0  0  0  0  0  0  0  0
    0.8620    7.8570    0.0136 H   0  0  0  0  0  0  0  0  0  0  0  0
    0.8085   10.3138    0.0211 H   0  0  0  0  0  0  0  0  0  0  0  0
   -2.1766    5.6218    0.0571 H   0  0  0  0  0  0  0  0  0  0  0  0
   -0.9190    3.6505    0.0187 H   0  0  0  0  0  0  0  0  0  0  0  0
    3.2694    1.8713   -0.0851 H   0  0  0  0  0  0  0  0  0  0  0  0
   -0.3222   -2.7464   -0.9158 H   0  0  0  0  0  0  0  0  0  0  0  0
   -0.2820   -2.7552    0.8637 H   0  0  0  0  0  0  0  0  0  0  0  0
   -1.7513   -3.2754    0.0041 H   0  0  0  0  0  0  0  0  0  0  0  0
   -0.8912    1.8014    0.0096 H   0  0  0  0  0  0  0  0  0  0  0  0
  1  2  1  0  0  0  0
  1 24  1  0  0  0  0
  1 25  1  0  0  0  0
  1 26  1  0  0  0  0
  2  3  1  0  0  0  0
  2  4  1  0  0  0  0
  3 27  1  0  0  0  0
  3 28  1  0  0  0  0
  3 29  1  0  0  0  0
  4  9  2  0  0  0  0
  4  5  1  0  0  0  0
  5  6  2  0  0  0  0
  5 30  1  0  0  0  0
  6  7  1  0  0  0  0
  6 31  1  0  0  0  0
  7  8  2  0  0  0  0
  7 10  1  0  0  0  0
  8  9  1  0  0  0  0
  8 32  1  0  0  0  0
  9 33  1  0  0  0  0
 10 11  2  0  0  0  0
 10 34  1  0  0  0  0
 11 12  1  0  0  0  0
 12 13  1  0  0  0  0
 12 35  1  0  0  0  0
 13 14  2  0  0  0  0
 13 15  1  0  0  0  0
 15 16  2  0  0  0  0
 15 20  1  0  0  0  0
 16 36  1  0  0  0  0
 16 17  1  0  0  0  0
 17 18  1  0  0  0  0
 17 23  2  0  0  0  0
 18 19  2  0  0  0  0
 19 21  1  0  0  0  0
 19 20  1  0  0  0  0
 20 40  1  0  0  0  0
 21 22  1  0  0  0  0
 22 37  1  0  0  0  0
 22 38  1  0  0  0  0
 22 39  1  0  0  0  0
M  END
$$$$
ZINC04455842
  -OEChem-08230709453D

 40 41  0     0  0  0  0  0  0999 V2000
   -2.6390   12.5272   -0.0327 C   0  0  0  0  0  0  0  0  0  0  0  0
   -1.3603   11.8186    0.0623 N   0  0  0  0  0  0  0  0  0  0  0  0
   -0.1098   12.5747    0.1653 C   0  0  0  0  0  0  0  0  0  0  0  0
   -1.3336   10.4243    0.0548 C   0  0  0  0  0  0  0  0  0  0  0  0
   -2.5254    9.7074    0.0776 C   0  0  0  0  0  0  0  0  0  0  0  0
   -2.5030    8.3302    0.0708 C   0  0  0  0  0  0  0  0  0  0  0  0
   -1.2804    7.6530    0.0402 C   0  0  0  0  0  0  0  0  0  0  0  0
   -0.0846    8.3770    0.0221 C   0  0  0  0  0  0  0  0  0  0  0  0
   -0.1152    9.7539    0.0248 C   0  0  0  0  0  0  0  0  0  0  0  0
   -1.2522    6.1797    0.0333 C   0  0  0  0  0  0  0  0  0  0  0  0
   -0.1156    5.5523    0.0049 N   0  0  0  0  0  0  0  0  0  0  0  0
   -0.0887    4.1516   -0.0018 N   0  0  0  0  0  0  0  0  0  0  0  0
    1.0910    3.5003   -0.0312 C   0  0  0  0  0  0  0  0  0  0  0  0
    2.1313    4.1282   -0.0520 O   0  0  0  0  0  0  0  0  0  0  0  0
    1.1194    2.0171   -0.0382 C   0  0  0  0  0  0  0  0  0  0  0  0
    2.3324    1.3342   -0.0691 C   0  0  0  0  0  0  0  0  0  0  0  0
    2.3082   -0.0614   -0.0720 C   0  0  0  0  0  0  0  0  0  0  0  0
    1.1390   -0.6866   -0.0484 N   0  0  0  0  0  0  0  0  0  0  0  0
    0.0027   -0.0038   -0.0211 C   0  0  0  0  0  0  0  0  0  0  0  0
   -0.0153    1.3194   -0.0151 N   0  0  0  0  0  0  0  0  0  0  0  0
   -1.5245   -0.8821    0.0080 S   0  0  0  0  0  0  0  0  0  0  0  0
   -0.9088   -2.5840   -0.0151 C   0  0  0  0  0  0  0  0  0  0  0  0
    3.4641   -0.7681   -0.1020 O   0  0  0  0  0  0  0  0  0  0  0  0
   -3.4564   11.8064   -0.0107 H   0  0  0  0  0  0  0  0  0  0  0  0
   -2.7374   13.2137    0.8082 H   0  0  0  0  0  0  0  0  0  0  0  0
   -2.6748   13.0886   -0.9662 H   0  0  0  0  0  0  0  0  0  0  0  0
    0.2804   12.7692   -0.8338 H   0  0  0  0  0  0  0  0  0  0  0  0
   -0.2980   13.5208    0.6724 H   0  0  0  0  0  0  0  0  0  0  0  0
    0.6187   11.9964    0.7336 H   0  0  0  0  0  0  0  0  0  0  0  0
   -3.4695   10.2313    0.1012 H   0  0  0  0  0  0  0  0  0  0  0  0
   -3.4288    7.7743    0.0893 H   0  0  0  0  0  0  0  0  0  0  0  0
    0.8618    7.8571    0.0031 H   0  0  0  0  0  0  0  0  0  0  0  0
    0.8082   10.3139    0.0075 H   0  0  0  0  0  0  0  0  0  0  0  0
   -2.1767    5.6218    0.0517 H   0  0  0  0  0  0  0  0  0  0  0  0
   -0.9191    3.6505    0.0148 H   0  0  0  0  0  0  0  0  0  0  0  0
    3.2693    1.8713   -0.0890 H   0  0  0  0  0  0  0  0  0  0  0  0
   -0.3220   -2.7458   -0.9193 H   0  0  0  0  0  0  0  0  0  0  0  0
   -0.2824   -2.7557    0.8602 H   0  0  0  0  0  0  0  0  0  0  0  0
   -1.7514   -3.2754   -0.0002 H   0  0  0  0  0  0  0  0  0  0  0  0
    4.2401   -0.1375   -0.1165 H   0  0  0  0  0  0  0  0  0  0  0  0
  1  2  1  0  0  0  0
  1 24  1  0  0  0  0
  1 25  1  0  0  0  0
  1 26  1  0  0  0  0
  2  3  1  0  0  0  0
  2  4  1  0  0  0  0
  3 27  1  0  0  0  0
  3 28  1  0  0  0  0
  3 29  1  0  0  0  0
  4  9  2  0  0  0  0
  4  5  1  0  0  0  0
  5  6  2  0  0  0  0
  5 30  1  0  0  0  0
  6  7  1  0  0  0  0
  6 31  1  0  0  0  0
  7  8  2  0  0  0  0
  7 10  1  0  0  0  0
  8  9  1  0  0  0  0
  8 32  1  0  0  0  0
  9 33  1  0  0  0  0
 10 11  2  0  0  0  0
 10 34  1  0  0  0  0
 11 12  1  0  0  0  0
 12 13  1  0  0  0  0
 12 35  1  0  0  0  0
 13 14  2  0  0  0  0
 13 15  1  0  0  0  0
 15 16  2  0  0  0  0
 15 20  1  0  0  0  0
 16 36  1  0  0  0  0
 16 17  1  0  0  0  0
 17 18  2  0  0  0  0
 17 23  1  0  0  0  0
 18 19  1  0  0  0  0
 19 21  1  0  0  0  0
 19 20  2  0  0  0  0
 21 22  1  0  0  0  0
 22 37  1  0  0  0  0
 22 38  1  0  0  0  0
 22 39  1  0  0  0  0
 23 40  1  0  0  0  0
M  END
$$$$
ZINC04460249
  -OEChem-08230709453D

 47 50  0     0  0  0  0  0  0999 V2000
   -0.5066    1.0294   -0.5331 C   0  0  0  0  0  0  0  0  0  0  0  0
   -1.2684    1.7455    0.4410 O   0  0  0  0  0  0  0  0  0  0  0  0
   -2.2101    1.0433    1.1265 C   0  0  0  0  0  0  0  0  0  0  0  0
   -2.3948   -0.3046    0.8656 C   0  0  0  0  0  0  0  0  0  0  0  0
   -3.3514   -1.0294    1.5589 C   0  0  0  0  0  0  0  0  0  0  0  0
   -4.1303   -0.4184    2.5153 C   0  0  0  0  0  0  0  0  0  0  0  0
   -3.9573    0.9454    2.7927 C   0  0  0  0  0  0  0  0  0  0  0  0
   -2.9829    1.6773    2.0929 C   0  0  0  0  0  0  0  0  0  0  0  0
   -2.8012    2.9965    2.3548 O   0  0  0  0  0  0  0  0  0  0  0  0
   -4.7827    1.6011    3.8090 C   0  0  0  0  0  0  0  0  0  0  0  0
   -6.1202    1.2922    3.9137 C   0  0  0  0  0  0  0  0  0  0  0  0
   -6.9535    1.8003    5.0380 C   0  0  0  0  0  0  0  0  0  0  0  0
   -6.7229    2.9371    5.6384 N   0  0  0  0  0  0  0  0  0  0  0  0
   -8.0135    0.9433    5.3960 N   0  0  0  0  0  0  0  0  0  0  0  0
   -8.6790    0.9839    6.6057 N   0  0  0  0  0  0  0  0  0  0  0  0
   -8.4008    1.5987    7.3025 H   0  0  0  0  0  0  0  0  0  0  0  0
   -9.7593    0.1230    6.8066 C   0  0  0  0  0  0  0  0  0  0  0  0
  -10.5541    0.0106    7.8674 C   0  0  0  0  0  0  0  0  0  0  0  0
  -10.3487    0.8824    9.0864 C   0  0  0  0  0  0  0  0  0  0  0  0
  -11.6912    1.5406    9.4410 C   0  0  0  0  0  0  0  0  0  0  0  0
  -12.7563    0.4565    9.6143 C   0  0  0  0  0  0  0  0  0  0  0  0
  -12.9732   -0.2742    8.2881 C   0  0  0  0  0  0  0  0  0  0  0  0
  -11.6825   -0.9966    7.8879 C   0  0  0  0  0  0  0  0  0  0  0  0
   -9.7983   -0.7892    5.2711 S   0  0  0  0  0  0  0  0  0  0  0  0
   -8.4262    0.0027    4.4736 C   0  0  0  0  0  0  0  0  0  0  0  0
   -7.9065   -0.2359    3.2974 N   0  0  0  0  0  0  0  0  0  0  0  0
   -6.8034    0.4422    2.9091 C   0  0  0  0  0  0  0  0  0  0  0  0
   -6.3796    0.3553    1.7688 O   0  0  0  0  0  0  0  0  0  0  0  0
    0.0312    0.2154   -0.0471 H   0  0  0  0  0  0  0  0  0  0  0  0
    0.2065    1.7052   -1.0052 H   0  0  0  0  0  0  0  0  0  0  0  0
   -1.1764    0.6215   -1.2901 H   0  0  0  0  0  0  0  0  0  0  0  0
   -1.7896   -0.7939    0.1167 H   0  0  0  0  0  0  0  0  0  0  0  0
   -3.4867   -2.0798    1.3472 H   0  0  0  0  0  0  0  0  0  0  0  0
   -4.8739   -0.9889    3.0519 H   0  0  0  0  0  0  0  0  0  0  0  0
   -3.3490    3.5837    1.8161 H   0  0  0  0  0  0  0  0  0  0  0  0
   -4.3422    2.3270    4.4764 H   0  0  0  0  0  0  0  0  0  0  0  0
   -5.9798    3.4928    5.3558 H   0  0  0  0  0  0  0  0  0  0  0  0
  -10.0061    0.2703    9.9207 H   0  0  0  0  0  0  0  0  0  0  0  0
   -9.6092    1.6521    8.8656 H   0  0  0  0  0  0  0  0  0  0  0  0
  -11.9892    2.2184    8.6411 H   0  0  0  0  0  0  0  0  0  0  0  0
  -11.5866    2.0994   10.3709 H   0  0  0  0  0  0  0  0  0  0  0  0
  -13.6923    0.9157    9.9323 H   0  0  0  0  0  0  0  0  0  0  0  0
  -12.4269   -0.2559   10.3708 H   0  0  0  0  0  0  0  0  0  0  0  0
  -13.2409    0.4466    7.5155 H   0  0  0  0  0  0  0  0  0  0  0  0
  -13.7770   -1.0017    8.4011 H   0  0  0  0  0  0  0  0  0  0  0  0
  -11.8004   -1.4347    6.8968 H   0  0  0  0  0  0  0  0  0  0  0  0
  -11.4596   -1.7814    8.6108 H   0  0  0  0  0  0  0  0  0  0  0  0
  1  2  1  0  0  0  0
  1 29  1  0  0  0  0
  1 30  1  0  0  0  0
  1 31  1  0  0  0  0
  2  3  1  0  0  0  0
  3  8  2  0  0  0  0
  3  4  1  0  0  0  0
  4  5  2  0  0  0  0
  4 32  1  0  0  0  0
  5  6  1  0  0  0  0
  5 33  1  0  0  0  0
  6  7  2  0  0  0  0
  6 34  1  0  0  0  0
  7  8  1  0  0  0  0
  7 10  1  0  0  0  0
  8  9  1  0  0  0  0
  9 35  1  0  0  0  0
 10 11  2  0  0  0  0
 10 36  1  0  0  0  0
 11 27  1  0  0  0  0
 11 12  1  0  0  0  0
 12 13  2  0  0  0  0
 12 14  1  0  0  0  0
 13 37  1  0  0  0  0
 14 25  1  0  0  0  0
 14 15  1  0  0  0  0
 15 16  1  0  0  0  0
 15 17  1  0  0  0  0
 17 18  2  0  0  0  0
 17 24  1  0  0  0  0
 18 23  1  0  0  0  0
 18 19  1  0  0  0  0
 19 20  1  0  0  0  0
 19 38  1  0  0  0  0
 19 39  1  0  0  0  0
 20 21  1  0  0  0  0
 20 40  1  0  0  0  0
 20 41  1  0  0  0  0
 21 22  1  0  0  0  0
 21 42  1  0  0  0  0
 21 43  1  0  0  0  0
 22 23  1  0  0  0  0
 22 44  1  0  0  0  0
 22 45  1  0  0  0  0
 23 46  1  0  0  0  0
 23 47  1  0  0  0  0
 24 25  1  0  0  0  0
 25 26  2  0  0  0  0
 26 27  1  0  0  0  0
 27 28  2  0  0  0  0
M  END
$$$$
ZINC04461458
  -OEChem-08230709453D

 42 43  0     0  0  0  0  0  0999 V2000
    3.0247    4.9186   -4.8716 C   0  0  0  0  0  0  0  0  0  0  0  0
    2.5364    4.7860   -3.4277 C   0  0  0  0  0  0  0  0  0  0  0  0
    2.1664    3.4296   -3.1726 O   0  0  0  0  0  0  0  0  0  0  0  0
    1.7109    3.1411   -1.9358 C   0  0  0  0  0  0  0  0  0  0  0  0
    1.6306    4.0188   -1.0970 O   0  0  0  0  0  0  0  0  0  0  0  0
    1.3140    1.7741   -1.6035 C   0  0  0  0  0  0  0  0  0  0  0  0
    2.2611    0.8202   -1.0635 C   0  0  0  0  0  0  0  0  0  0  0  0
    1.7634   -0.4440   -0.7891 C   0  0  0  0  0  0  0  0  0  0  0  0
    0.0510   -0.3173   -1.2602 S   0  0  0  0  0  0  0  0  0  0  0  0
    0.0092    1.3291   -1.7913 C   0  0  0  0  0  0  0  0  0  0  0  0
   -1.0656    2.0340   -2.2901 N   0  0  0  0  0  0  0  0  0  0  0  0
    2.4734   -1.6022   -0.2437 C   0  0  0  0  0  0  0  0  0  0  0  0
    1.8155   -2.6807    0.0689 N   0  0  0  0  0  0  0  0  0  0  0  0
    0.4146   -2.6677    0.0821 N   0  0  0  0  0  0  0  0  0  0  0  0
   -0.3275   -3.9114    0.3027 C   0  0  0  0  0  0  0  0  0  0  0  0
   -1.8295   -3.6218    0.2698 C   0  0  0  0  0  0  0  0  0  0  0  0
   -2.2020   -3.1864   -1.0393 O   0  0  0  0  0  0  0  0  0  0  0  0
    3.6758    1.1745   -0.8189 C   0  0  0  0  0  0  0  0  0  0  0  0
    4.0018    2.1393    0.1360 C   0  0  0  0  0  0  0  0  0  0  0  0
    5.3239    2.4606    0.3637 C   0  0  0  0  0  0  0  0  0  0  0  0
    6.3251    1.8380   -0.3607 C   0  0  0  0  0  0  0  0  0  0  0  0
    6.0084    0.8850   -1.3126 C   0  0  0  0  0  0  0  0  0  0  0  0
    4.6908    0.5498   -1.5458 C   0  0  0  0  0  0  0  0  0  0  0  0
    3.8885    4.2716   -5.0239 H   0  0  0  0  0  0  0  0  0  0  0  0
    2.2264    4.6255   -5.5534 H   0  0  0  0  0  0  0  0  0  0  0  0
    3.3069    5.9533   -5.0661 H   0  0  0  0  0  0  0  0  0  0  0  0
    1.6726    5.4331   -3.2753 H   0  0  0  0  0  0  0  0  0  0  0  0
    3.3347    5.0792   -2.7458 H   0  0  0  0  0  0  0  0  0  0  0  0
   -1.9305    1.6034   -2.3758 H   0  0  0  0  0  0  0  0  0  0  0  0
   -0.9569    2.9607   -2.5555 H   0  0  0  0  0  0  0  0  0  0  0  0
    3.5431   -1.5617   -0.1008 H   0  0  0  0  0  0  0  0  0  0  0  0
   -0.0640   -1.8351   -0.0549 H   0  0  0  0  0  0  0  0  0  0  0  0
   -0.0782   -4.6271   -0.4806 H   0  0  0  0  0  0  0  0  0  0  0  0
   -0.0589   -4.3273    1.2738 H   0  0  0  0  0  0  0  0  0  0  0  0
   -2.3799   -4.5282    0.5216 H   0  0  0  0  0  0  0  0  0  0  0  0
   -2.0649   -2.8410    0.9930 H   0  0  0  0  0  0  0  0  0  0  0  0
   -3.1430   -2.9844   -1.1337 H   0  0  0  0  0  0  0  0  0  0  0  0
    3.2210    2.6297    0.6984 H   0  0  0  0  0  0  0  0  0  0  0  0
    5.5778    3.2033    1.1055 H   0  0  0  0  0  0  0  0  0  0  0  0
    7.3583    2.0967   -0.1820 H   0  0  0  0  0  0  0  0  0  0  0  0
    6.7946    0.4028   -1.8745 H   0  0  0  0  0  0  0  0  0  0  0  0
    4.4450   -0.1944   -2.2888 H   0  0  0  0  0  0  0  0  0  0  0  0
  1  2  1  0  0  0  0
  1 24  1  0  0  0  0
  1 25  1  0  0  0  0
  1 26  1  0  0  0  0
  2  3  1  0  0  0  0
  2 27  1  0  0  0  0
  2 28  1  0  0  0  0
  3  4  1  0  0  0  0
  4  5  2  0  0  0  0
  4  6  1  0  0  0  0
  6 10  2  0  0  0  0
  6  7  1  0  0  0  0
  7  8  2  0  0  0  0
  7 18  1  0  0  0  0
  8  9  1  0  0  0  0
  8 12  1  0  0  0  0
  9 10  1  0  0  0  0
 10 11  1  0  0  0  0
 11 29  1  0  0  0  0
 11 30  1  0  0  0  0
 12 13  2  0  0  0  0
 12 31  1  0  0  0  0
 13 14  1  0  0  0  0
 14 15  1  0  0  0  0
 14 32  1  0  0  0  0
 15 16  1  0  0  0  0
 15 33  1  0  0  0  0
 15 34  1  0  0  0  0
 16 17  1  0  0  0  0
 16 35  1  0  0  0  0
 16 36  1  0  0  0  0
 17 37  1  0  0  0  0
 18 23  2  0  0  0  0
 18 19  1  0  0  0  0
 19 20  2  0  0  0  0
 19 38  1  0  0  0  0
 20 21  1  0  0  0  0
 20 39  1  0  0  0  0
 21 22  2  0  0  0  0
 21 40  1  0  0  0  0
 22 23  1  0  0  0  0
 22 41  1  0  0  0  0
 23 42  1  0  0  0  0
M  END
$$$$
ZINC04462052
  -OEChem-08230709453D

 43 45  0     0  0  0  0  0  0999 V2000
   -1.8678   13.2239    0.4059 C   0  0  0  0  0  0  0  0  0  0  0  0
   -1.1609   12.2721   -0.3113 C   0  0  0  0  0  0  0  0  0  0  0  0
   -1.6404   10.9825   -0.4220 C   0  0  0  0  0  0  0  0  0  0  0  0
   -2.8426   10.6333    0.1785 C   0  0  0  0  0  0  0  0  0  0  0  0
   -3.5604   11.5942    0.9057 C   0  0  0  0  0  0  0  0  0  0  0  0
   -3.0601   12.8940    1.0130 C   0  0  0  0  0  0  0  0  0  0  0  0
   -4.8359   11.2342    1.5536 C   0  0  0  0  0  0  0  0  0  0  0  0
   -5.2190   10.0803    1.5425 O   0  0  0  0  0  0  0  0  0  0  0  0
   -5.5766   12.1844    2.1577 N   0  0  0  0  0  0  0  0  0  0  0  0
   -3.3304    9.3336    0.0644 N   0  0  0  0  0  0  0  0  0  0  0  0
   -2.4754    8.2919    0.0473 C   0  0  0  0  0  0  0  0  0  0  0  0
   -1.2788    8.4895    0.0500 O   0  0  0  0  0  0  0  0  0  0  0  0
   -3.0062    6.8817    0.0248 C   0  0  0  0  0  0  0  0  0  0  0  0
   -1.8954    5.9467    0.0094 O   0  0  0  0  0  0  0  0  0  0  0  0
   -2.2010    4.6329   -0.0116 C   0  0  0  0  0  0  0  0  0  0  0  0
   -3.3647    4.2793   -0.0168 O   0  0  0  0  0  0  0  0  0  0  0  0
   -1.1320    3.6329   -0.0281 C   0  0  0  0  0  0  0  0  0  0  0  0
   -1.2284    2.2529   -0.0555 C   0  0  0  0  0  0  0  0  0  0  0  0
   -0.0561    1.5157   -0.0621 C   0  0  0  0  0  0  0  0  0  0  0  0
    1.1143    2.2207   -0.0505 C   0  0  0  0  0  0  0  0  0  0  0  0
    0.6363    3.8752   -0.0243 S   0  0  0  0  0  0  0  0  0  0  0  0
    2.5042    1.6632   -0.0587 C   0  0  0  0  0  0  0  0  0  0  0  0
    2.4292    0.1705    0.2935 C   0  0  0  0  0  0  0  0  0  0  0  0
    1.3358   -0.4817   -0.5572 C   0  0  0  0  0  0  0  0  0  0  0  0
   -0.0409   -0.0105   -0.0875 C   0  0  0  0  0  0  0  0  0  0  0  0
   -1.4823   14.2292    0.4898 H   0  0  0  0  0  0  0  0  0  0  0  0
   -0.2272   12.5399   -0.7834 H   0  0  0  0  0  0  0  0  0  0  0  0
   -1.0817   10.2453   -0.9796 H   0  0  0  0  0  0  0  0  0  0  0  0
   -3.6068   13.6393    1.5715 H   0  0  0  0  0  0  0  0  0  0  0  0
   -5.2709   13.1050    2.1666 H   0  0  0  0  0  0  0  0  0  0  0  0
   -6.4153   11.9477    2.5838 H   0  0  0  0  0  0  0  0  0  0  0  0
   -4.2855    9.1782   -0.0029 H   0  0  0  0  0  0  0  0  0  0  0  0
   -3.6154    6.7369   -0.8673 H   0  0  0  0  0  0  0  0  0  0  0  0
   -3.6147    6.7084    0.9124 H   0  0  0  0  0  0  0  0  0  0  0  0
   -2.1913    1.7640   -0.0680 H   0  0  0  0  0  0  0  0  0  0  0  0
    3.1133    2.1844    0.6799 H   0  0  0  0  0  0  0  0  0  0  0  0
    2.9429    1.7851   -1.0490 H   0  0  0  0  0  0  0  0  0  0  0  0
    2.1872    0.0560    1.3501 H   0  0  0  0  0  0  0  0  0  0  0  0
    3.3874   -0.3052    0.0843 H   0  0  0  0  0  0  0  0  0  0  0  0
    1.3999   -1.5655   -0.4602 H   0  0  0  0  0  0  0  0  0  0  0  0
    1.4769   -0.2029   -1.6015 H   0  0  0  0  0  0  0  0  0  0  0  0
   -0.2366   -0.3946    0.9136 H   0  0  0  0  0  0  0  0  0  0  0  0
   -0.8052   -0.3720   -0.7755 H   0  0  0  0  0  0  0  0  0  0  0  0
  1  6  2  0  0  0  0
  1  2  1  0  0  0  0
  1 26  1  0  0  0  0
  2  3  2  0  0  0  0
  2 27  1  0  0  0  0
  3  4  1  0  0  0  0
  3 28  1  0  0  0  0
  4  5  2  0  0  0  0
  4 10  1  0  0  0  0
  5  6  1  0  0  0  0
  5  7  1  0  0  0  0
  6 29  1  0  0  0  0
  7  8  2  0  0  0  0
  7  9  1  0  0  0  0
  9 30  1  0  0  0  0
  9 31  1  0  0  0  0
 10 11  1  0  0  0  0
 10 32  1  0  0  0  0
 11 12  2  0  0  0  0
 11 13  1  0  0  0  0
 13 14  1  0  0  0  0
 13 33  1  0  0  0  0
 13 34  1  0  0  0  0
 14 15  1  0  0  0  0
 15 16  2  0  0  0  0
 15 17  1  0  0  0  0
 17 21  1  0  0  0  0
 17 18  2  0  0  0  0
 18 19  1  0  0  0  0
 18 35  1  0  0  0  0
 19 25  1  0  0  0  0
 19 20  2  0  0  0  0
 20 21  1  0  0  0  0
 20 22  1  0  0  0  0
 22 23  1  0  0  0  0
 22 36  1  0  0  0  0
 22 37  1  0  0  0  0
 23 24  1  0  0  0  0
 23 38  1  0  0  0  0
 23 39  1  0  0  0  0
 24 25  1  0  0  0  0
 24 40  1  0  0  0  0
 24 41  1  0  0  0  0
 25 42  1  0  0  0  0
 25 43  1  0  0  0  0
M  END
$$$$
ZINC04464814
  -OEChem-08230709453D

 41 44  0     0  0  0  0  0  0999 V2000
   -1.4948    8.1534   -1.9809 C   0  0  0  0  0  0  0  0  0  0  0  0
   -0.2401    7.7881   -1.4927 C   0  0  0  0  0  0  0  0  0  0  0  0
   -0.2486    6.4084   -1.3413 C   0  0  0  0  0  0  0  0  0  0  0  0
   -1.4896    5.9578   -1.7397 N   0  0  0  0  0  0  0  0  0  0  0  0
   -1.7807    5.0325   -1.7458 H   0  0  0  0  0  0  0  0  0  0  0  0
   -2.2357    7.0246   -2.1187 C   0  0  0  0  0  0  0  0  0  0  0  0
    0.8158    5.6145   -0.8729 C   0  0  0  0  0  0  0  0  0  0  0  0
    0.5596    4.3771   -0.3066 C   0  0  0  0  0  0  0  0  0  0  0  0
    1.6522    3.4172    0.0093 C   0  0  0  0  0  0  0  0  0  0  0  0
    2.8490    3.7903    0.3813 N   0  0  0  0  0  0  0  0  0  0  0  0
    1.2720    2.0668   -0.1309 N   0  0  0  0  0  0  0  0  0  0  0  0
    2.1456    1.0135   -0.3085 N   0  0  0  0  0  0  0  0  0  0  0  0
    3.0925    1.1777   -0.4397 H   0  0  0  0  0  0  0  0  0  0  0  0
    1.6559   -0.2740   -0.2974 C   0  0  0  0  0  0  0  0  0  0  0  0
    2.3366   -1.4515   -0.4028 C   0  0  0  0  0  0  0  0  0  0  0  0
    1.6404   -2.6703   -0.3685 C   0  0  0  0  0  0  0  0  0  0  0  0
    0.4277   -2.6763   -0.2446 O   0  0  0  0  0  0  0  0  0  0  0  0
    2.3129   -3.8337   -0.4726 N   0  0  0  0  0  0  0  0  0  0  0  0
    3.7680   -3.9709   -0.6321 C   0  0  0  0  0  0  0  0  0  0  0  0
    4.0778   -5.4794   -0.7319 C   0  0  0  0  0  0  0  0  0  0  0  0
    2.7255   -6.0795   -1.1994 C   0  0  0  0  0  0  0  0  0  0  0  0
    1.7106   -5.1791   -0.4517 C   0  0  0  0  0  0  0  0  0  0  0  0
   -0.1003   -0.0045   -0.1089 S   0  0  0  0  0  0  0  0  0  0  0  0
   -0.0742    1.7674   -0.0477 C   0  0  0  0  0  0  0  0  0  0  0  0
   -1.0661    2.6090    0.0561 N   0  0  0  0  0  0  0  0  0  0  0  0
   -0.8162    3.9369    0.0182 C   0  0  0  0  0  0  0  0  0  0  0  0
   -1.6981    4.7486    0.2457 O   0  0  0  0  0  0  0  0  0  0  0  0
   -1.8193    9.1578   -2.2096 H   0  0  0  0  0  0  0  0  0  0  0  0
    0.5823    8.4531   -1.2740 H   0  0  0  0  0  0  0  0  0  0  0  0
   -3.2537    6.9824   -2.4769 H   0  0  0  0  0  0  0  0  0  0  0  0
    1.8320    5.9707   -0.9554 H   0  0  0  0  0  0  0  0  0  0  0  0
    3.0596    4.7336    0.4624 H   0  0  0  0  0  0  0  0  0  0  0  0
    3.4110   -1.4462   -0.5126 H   0  0  0  0  0  0  0  0  0  0  0  0
    4.0908   -3.4633   -1.5411 H   0  0  0  0  0  0  0  0  0  0  0  0
    4.2775   -3.5463    0.2329 H   0  0  0  0  0  0  0  0  0  0  0  0
    4.3638   -5.8832    0.2393 H   0  0  0  0  0  0  0  0  0  0  0  0
    4.8572   -5.6625   -1.4716 H   0  0  0  0  0  0  0  0  0  0  0  0
    2.6303   -7.1192   -0.8860 H   0  0  0  0  0  0  0  0  0  0  0  0
    2.6091   -5.9863   -2.2791 H   0  0  0  0  0  0  0  0  0  0  0  0
    1.5838   -5.5221    0.5751 H   0  0  0  0  0  0  0  0  0  0  0  0
    0.7519   -5.1736   -0.9703 H   0  0  0  0  0  0  0  0  0  0  0  0
  1  6  2  0  0  0  0
  1  2  1  0  0  0  0
  1 28  1  0  0  0  0
  2  3  2  0  0  0  0
  2 29  1  0  0  0  0
  3  4  1  0  0  0  0
  3  7  1  0  0  0  0
  4  5  1  0  0  0  0
  4  6  1  0  0  0  0
  6 30  1  0  0  0  0
  7  8  2  0  0  0  0
  7 31  1  0  0  0  0
  8 26  1  0  0  0  0
  8  9  1  0  0  0  0
  9 10  2  0  0  0  0
  9 11  1  0  0  0  0
 10 32  1  0  0  0  0
 11 24  1  0  0  0  0
 11 12  1  0  0  0  0
 12 13  1  0  0  0  0
 12 14  1  0  0  0  0
 14 15  2  0  0  0  0
 14 23  1  0  0  0  0
 15 16  1  0  0  0  0
 15 33  1  0  0  0  0
 16 17  2  0  0  0  0
 16 18  1  0  0  0  0
 18 22  1  0  0  0  0
 18 19  1  0  0  0  0
 19 20  1  0  0  0  0
 19 34  1  0  0  0  0
 19 35  1  0  0  0  0
 20 21  1  0  0  0  0
 20 36  1  0  0  0  0
 20 37  1  0  0  0  0
 21 22  1  0  0  0  0
 21 38  1  0  0  0  0
 21 39  1  0  0  0  0
 22 40  1  0  0  0  0
 22 41  1  0  0  0  0
 23 24  1  0  0  0  0
 24 25  2  0  0  0  0
 25 26  1  0  0  0  0
 26 27  2  0  0  0  0
M  END
$$$$
ZINC04464867
  -OEChem-08230709453D

 41 43  0     0  0  0  0  0  0999 V2000
   -2.3106   -6.9890    0.6385 C   0  0  0  0  0  0  0  0  0  0  0  0
   -2.8287   -5.6332    0.4394 N   0  0  0  0  0  0  0  0  0  0  0  0
   -4.2101   -5.4121    0.3893 C   0  0  0  0  0  0  0  0  0  0  0  0
   -5.0870   -6.4891    0.4005 C   0  0  0  0  0  0  0  0  0  0  0  0
   -6.4496   -6.2699    0.3564 C   0  0  0  0  0  0  0  0  0  0  0  0
   -6.9424   -4.9749    0.2899 C   0  0  0  0  0  0  0  0  0  0  0  0
   -6.0671   -3.8988    0.2733 C   0  0  0  0  0  0  0  0  0  0  0  0
   -4.7044   -4.1160    0.3226 C   0  0  0  0  0  0  0  0  0  0  0  0
   -8.2842   -4.7602    0.2404 O   0  0  0  0  0  0  0  0  0  0  0  0
   -1.9610   -4.5814    0.3022 C   0  0  0  0  0  0  0  0  0  0  0  0
   -2.2420   -3.2910    0.2101 N   0  0  0  0  0  0  0  0  0  0  0  0
   -1.3095   -2.3737    0.0798 C   0  0  0  0  0  0  0  0  0  0  0  0
   -1.5812   -1.1865   -0.0038 O   0  0  0  0  0  0  0  0  0  0  0  0
    0.0896   -2.8598    0.0406 C   0  0  0  0  0  0  0  0  0  0  0  0
    1.2485   -2.1645   -0.0840 C   0  0  0  0  0  0  0  0  0  0  0  0
    1.2341   -0.6975   -0.0275 C   0  0  0  0  0  0  0  0  0  0  0  0
    0.3529   -0.0365    0.8372 C   0  0  0  0  0  0  0  0  0  0  0  0
    0.3421    1.3399    0.8883 C   0  0  0  0  0  0  0  0  0  0  0  0
    1.2031    2.0752    0.0843 C   0  0  0  0  0  0  0  0  0  0  0  0
    2.0836    1.4247   -0.7795 C   0  0  0  0  0  0  0  0  0  0  0  0
    2.1018    0.0453   -0.8378 C   0  0  0  0  0  0  0  0  0  0  0  0
    2.9248    2.1493   -1.5649 O   0  0  0  0  0  0  0  0  0  0  0  0
    3.7999    1.4179   -2.4258 C   0  0  0  0  0  0  0  0  0  0  0  0
    1.1875    3.4323    0.1394 O   0  0  0  0  0  0  0  0  0  0  0  0
   -0.1786   -4.6213    0.1956 S   0  0  0  0  0  0  0  0  0  0  0  0
   -2.1959   -7.1811    1.7052 H   0  0  0  0  0  0  0  0  0  0  0  0
   -3.0075   -7.7105    0.2122 H   0  0  0  0  0  0  0  0  0  0  0  0
   -1.3428   -7.0841    0.1461 H   0  0  0  0  0  0  0  0  0  0  0  0
   -4.7033   -7.4975    0.4475 H   0  0  0  0  0  0  0  0  0  0  0  0
   -7.1317   -7.1072    0.3693 H   0  0  0  0  0  0  0  0  0  0  0  0
   -6.4516   -2.8909    0.2215 H   0  0  0  0  0  0  0  0  0  0  0  0
   -4.0230   -3.2781    0.3090 H   0  0  0  0  0  0  0  0  0  0  0  0
   -8.6454   -4.7335   -0.6562 H   0  0  0  0  0  0  0  0  0  0  0  0
    2.1813   -2.6903   -0.2248 H   0  0  0  0  0  0  0  0  0  0  0  0
   -0.3181   -0.6057    1.4635 H   0  0  0  0  0  0  0  0  0  0  0  0
   -0.3410    1.8487    1.5523 H   0  0  0  0  0  0  0  0  0  0  0  0
    2.7832   -0.4595   -1.5067 H   0  0  0  0  0  0  0  0  0  0  0  0
    4.4419    0.7716   -1.8273 H   0  0  0  0  0  0  0  0  0  0  0  0
    3.2101    0.8096   -3.1116 H   0  0  0  0  0  0  0  0  0  0  0  0
    4.4152    2.1144   -2.9953 H   0  0  0  0  0  0  0  0  0  0  0  0
    1.7944    3.8064    0.7928 H   0  0  0  0  0  0  0  0  0  0  0  0
  1  2  1  0  0  0  0
  1 26  1  0  0  0  0
  1 27  1  0  0  0  0
  1 28  1  0  0  0  0
  2  3  1  0  0  0  0
  2 10  1  0  0  0  0
  3  8  2  0  0  0  0
  3  4  1  0  0  0  0
  4  5  2  0  0  0  0
  4 29  1  0  0  0  0
  5  6  1  0  0  0  0
  5 30  1  0  0  0  0
  6  7  2  0  0  0  0
  6  9  1  0  0  0  0
  7  8  1  0  0  0  0
  7 31  1  0  0  0  0
  8 32  1  0  0  0  0
  9 33  1  0  0  0  0
 10 25  1  0  0  0  0
 10 11  2  0  0  0  0
 11 12  1  0  0  0  0
 12 13  2  0  0  0  0
 12 14  1  0  0  0  0
 14 15  2  0  0  0  0
 14 25  1  0  0  0  0
 15 16  1  0  0  0  0
 15 34  1  0  0  0  0
 16 21  2  0  0  0  0
 16 17  1  0  0  0  0
 17 18  2  0  0  0  0
 17 35  1  0  0  0  0
 18 19  1  0  0  0  0
 18 36  1  0  0  0  0
 19 20  2  0  0  0  0
 19 24  1  0  0  0  0
 20 21  1  0  0  0  0
 20 22  1  0  0  0  0
 21 37  1  0  0  0  0
 22 23  1  0  0  0  0
 23 38  1  0  0  0  0
 23 39  1  0  0  0  0
 23 40  1  0  0  0  0
 24 41  1  0  0  0  0
M  END
$$$$
ZINC04465411
  -OEChem-08230709453D

 45 47  0     0  0  0  0  0  0999 V2000
   -2.4498   -0.3812    2.5645 C   0  0  0  0  0  0  0  0  0  0  0  0
   -1.6980   -0.0359    3.8241 C   0  0  0  0  0  0  0  0  0  0  0  0
   -2.2004   -0.3755    5.0125 C   0  0  0  0  0  0  0  0  0  0  0  0
   -0.9632    0.2510    6.1373 S   0  0  0  0  0  0  0  0  0  0  0  0
    0.1560    0.9247    4.9188 C   0  0  0  0  0  0  0  0  0  0  0  0
    1.2971    1.5444    5.0920 N   0  0  0  0  0  0  0  0  0  0  0  0
    1.8135    1.7635    6.4453 C   0  0  0  0  0  0  0  0  0  0  0  0
    1.9702    3.2649    6.6945 C   0  0  0  0  0  0  0  0  0  0  0  0
    2.5096    3.4938    8.1078 C   0  0  0  0  0  0  0  0  0  0  0  0
    3.8699    2.8083    8.2518 C   0  0  0  0  0  0  0  0  0  0  0  0
    3.7132    1.3069    8.0027 C   0  0  0  0  0  0  0  0  0  0  0  0
    3.1738    1.0780    6.5893 C   0  0  0  0  0  0  0  0  0  0  0  0
   -0.5043    0.6178    3.7453 N   0  0  0  0  0  0  0  0  0  0  0  0
    0.0370    0.9748    2.5035 N   0  0  0  0  0  0  0  0  0  0  0  0
    0.8666    1.9708    2.4187 C   0  0  0  0  0  0  0  0  0  0  0  0
    1.5355    2.2653    1.1400 C   0  0  0  0  0  0  0  0  0  0  0  0
    2.4328    3.3333    1.0474 C   0  0  0  0  0  0  0  0  0  0  0  0
    3.0529    3.6108   -0.1517 C   0  0  0  0  0  0  0  0  0  0  0  0
    2.7949    2.8293   -1.2704 C   0  0  0  0  0  0  0  0  0  0  0  0
    1.9087    1.7608   -1.1889 C   0  0  0  0  0  0  0  0  0  0  0  0
    1.2789    1.4726    0.0132 C   0  0  0  0  0  0  0  0  0  0  0  0
    0.4123    0.4290    0.0963 O   0  0  0  0  0  0  0  0  0  0  0  0
    1.6595    0.9977   -2.2880 O   0  0  0  0  0  0  0  0  0  0  0  0
    3.4112    3.1097   -2.4492 O   0  0  0  0  0  0  0  0  0  0  0  0
   -2.1403   -1.3661    2.2150 H   0  0  0  0  0  0  0  0  0  0  0  0
   -3.5201   -0.3886    2.7706 H   0  0  0  0  0  0  0  0  0  0  0  0
   -2.2328    0.3615    1.7967 H   0  0  0  0  0  0  0  0  0  0  0  0
   -3.1217   -0.8924    5.2369 H   0  0  0  0  0  0  0  0  0  0  0  0
    1.1172    1.3453    7.1722 H   0  0  0  0  0  0  0  0  0  0  0  0
    2.6666    3.6831    5.9677 H   0  0  0  0  0  0  0  0  0  0  0  0
    1.0012    3.7533    6.5919 H   0  0  0  0  0  0  0  0  0  0  0  0
    1.8133    3.0757    8.8346 H   0  0  0  0  0  0  0  0  0  0  0  0
    2.6213    4.5635    8.2853 H   0  0  0  0  0  0  0  0  0  0  0  0
    4.2541    2.9714    9.2587 H   0  0  0  0  0  0  0  0  0  0  0  0
    4.5662    3.2265    7.5250 H   0  0  0  0  0  0  0  0  0  0  0  0
    3.0168    0.8887    8.7295 H   0  0  0  0  0  0  0  0  0  0  0  0
    4.6822    0.8185    8.1053 H   0  0  0  0  0  0  0  0  0  0  0  0
    3.0621    0.0083    6.4118 H   0  0  0  0  0  0  0  0  0  0  0  0
    3.8701    1.4961    5.8625 H   0  0  0  0  0  0  0  0  0  0  0  0
    1.0657    2.5830    3.2859 H   0  0  0  0  0  0  0  0  0  0  0  0
    2.6363    3.9441    1.9145 H   0  0  0  0  0  0  0  0  0  0  0  0
    3.7420    4.4395   -0.2217 H   0  0  0  0  0  0  0  0  0  0  0  0
    0.8281   -0.4090    0.3411 H   0  0  0  0  0  0  0  0  0  0  0  0
    0.9208    1.3129   -2.8265 H   0  0  0  0  0  0  0  0  0  0  0  0
    2.9230    3.7267   -3.0113 H   0  0  0  0  0  0  0  0  0  0  0  0
  1  2  1  0  0  0  0
  1 25  1  0  0  0  0
  1 26  1  0  0  0  0
  1 27  1  0  0  0  0
  2 13  1  0  0  0  0
  2  3  2  0  0  0  0
  3  4  1  0  0  0  0
  3 28  1  0  0  0  0
  4  5  1  0  0  0  0
  5  6  2  0  0  0  0
  5 13  1  0  0  0  0
  6  7  1  0  0  0  0
  7 12  1  0  0  0  0
  7  8  1  0  0  0  0
  7 29  1  0  0  0  0
  8  9  1  0  0  0  0
  8 30  1  0  0  0  0
  8 31  1  0  0  0  0
  9 10  1  0  0  0  0
  9 32  1  0  0  0  0
  9 33  1  0  0  0  0
 10 11  1  0  0  0  0
 10 34  1  0  0  0  0
 10 35  1  0  0  0  0
 11 12  1  0  0  0  0
 11 36  1  0  0  0  0
 11 37  1  0  0  0  0
 12 38  1  0  0  0  0
 12 39  1  0  0  0  0
 13 14  1  0  0  0  0
 14 15  2  0  0  0  0
 15 16  1  0  0  0  0
 15 40  1  0  0  0  0
 16 21  2  0  0  0  0
 16 17  1  0  0  0  0
 17 18  2  0  0  0  0
 17 41  1  0  0  0  0
 18 19  1  0  0  0  0
 18 42  1  0  0  0  0
 19 20  2  0  0  0  0
 19 24  1  0  0  0  0
 20 21  1  0  0  0  0
 20 23  1  0  0  0  0
 21 22  1  0  0  0  0
 22 43  1  0  0  0  0
 23 44  1  0  0  0  0
 24 45  1  0  0  0  0
M  END
$$$$
ZINC04465475
  -OEChem-08230709453D

 42 44  0     0  0  0  0  0  0999 V2000
   -2.4016    6.2713    6.0260 C   0  0  0  0  0  0  0  0  0  0  0  0
   -1.8604    6.0602    4.6355 C   0  0  0  0  0  0  0  0  0  0  0  0
   -0.5932    6.5399    4.3103 C   0  0  0  0  0  0  0  0  0  0  0  0
   -0.0754    6.3659    3.0640 C   0  0  0  0  0  0  0  0  0  0  0  0
   -0.8267    5.6917    2.0838 C   0  0  0  0  0  0  0  0  0  0  0  0
   -2.1145    5.2053    2.4192 C   0  0  0  0  0  0  0  0  0  0  0  0
   -2.6163    5.4022    3.7122 C   0  0  0  0  0  0  0  0  0  0  0  0
   -2.8700    4.5260    1.4296 C   0  0  0  0  0  0  0  0  0  0  0  0
   -2.3029    4.3792    0.1696 C   0  0  0  0  0  0  0  0  0  0  0  0
   -1.0283    4.8840   -0.0732 C   0  0  0  0  0  0  0  0  0  0  0  0
   -0.3431    5.5084    0.8525 N   0  0  0  0  0  0  0  0  0  0  0  0
   -0.4220    4.7128   -1.4422 C   0  0  0  0  0  0  0  0  0  0  0  0
   -4.2187    3.9990    1.7263 C   0  0  0  0  0  0  0  0  0  0  0  0
   -4.6526    4.0433    2.8615 O   0  0  0  0  0  0  0  0  0  0  0  0
   -4.9676    3.4695    0.7388 N   0  0  0  0  0  0  0  0  0  0  0  0
   -6.2842    3.0665    0.9973 N   0  0  0  0  0  0  0  0  0  0  0  0
   -6.9675    2.4522    0.0793 C   0  0  0  0  0  0  0  0  0  0  0  0
   -6.2990    1.9834   -1.1464 C   0  0  0  0  0  0  0  0  0  0  0  0
   -4.9393    1.6610   -1.1246 C   0  0  0  0  0  0  0  0  0  0  0  0
   -4.3180    1.2225   -2.2731 C   0  0  0  0  0  0  0  0  0  0  0  0
   -5.0388    1.0992   -3.4553 C   0  0  0  0  0  0  0  0  0  0  0  0
   -6.3889    1.4167   -3.4874 C   0  0  0  0  0  0  0  0  0  0  0  0
   -7.0256    1.8533   -2.3389 C   0  0  0  0  0  0  0  0  0  0  0  0
   -8.3484    2.1591   -2.3676 O   0  0  0  0  0  0  0  0  0  0  0  0
   -4.4189    0.6657   -4.5835 O   0  0  0  0  0  0  0  0  0  0  0  0
   -2.1177    5.4298    6.6580 H   0  0  0  0  0  0  0  0  0  0  0  0
   -1.9901    7.1918    6.4401 H   0  0  0  0  0  0  0  0  0  0  0  0
   -3.4884    6.3450    5.9857 H   0  0  0  0  0  0  0  0  0  0  0  0
   -0.0128    7.0580    5.0593 H   0  0  0  0  0  0  0  0  0  0  0  0
    0.9084    6.7439    2.8282 H   0  0  0  0  0  0  0  0  0  0  0  0
   -3.5968    5.0342    3.9759 H   0  0  0  0  0  0  0  0  0  0  0  0
   -2.8453    3.8725   -0.6148 H   0  0  0  0  0  0  0  0  0  0  0  0
    0.1387    3.7787   -1.4769 H   0  0  0  0  0  0  0  0  0  0  0  0
    0.2484    5.5468   -1.6496 H   0  0  0  0  0  0  0  0  0  0  0  0
   -1.2144    4.6889   -2.1902 H   0  0  0  0  0  0  0  0  0  0  0  0
   -4.5949    3.3674   -0.1509 H   0  0  0  0  0  0  0  0  0  0  0  0
   -8.0259    2.2851    0.2147 H   0  0  0  0  0  0  0  0  0  0  0  0
   -4.3761    1.7559   -0.2080 H   0  0  0  0  0  0  0  0  0  0  0  0
   -3.2673    0.9733   -2.2550 H   0  0  0  0  0  0  0  0  0  0  0  0
   -6.9445    1.3189   -4.4084 H   0  0  0  0  0  0  0  0  0  0  0  0
   -8.5373    3.0608   -2.6613 H   0  0  0  0  0  0  0  0  0  0  0  0
   -4.4409   -0.2940   -4.7003 H   0  0  0  0  0  0  0  0  0  0  0  0
  1  2  1  0  0  0  0
  1 26  1  0  0  0  0
  1 27  1  0  0  0  0
  1 28  1  0  0  0  0
  2  7  2  0  0  0  0
  2  3  1  0  0  0  0
  3  4  2  0  0  0  0
  3 29  1  0  0  0  0
  4  5  1  0  0  0  0
  4 30  1  0  0  0  0
  5 11  2  0  0  0  0
  5  6  1  0  0  0  0
  6  7  1  0  0  0  0
  6  8  2  0  0  0  0
  7 31  1  0  0  0  0
  8  9  1  0  0  0  0
  8 13  1  0  0  0  0
  9 10  2  0  0  0  0
  9 32  1  0  0  0  0
 10 11  1  0  0  0  0
 10 12  1  0  0  0  0
 12 33  1  0  0  0  0
 12 34  1  0  0  0  0
 12 35  1  0  0  0  0
 13 14  2  0  0  0  0
 13 15  1  0  0  0  0
 15 16  1  0  0  0  0
 15 36  1  0  0  0  0
 16 17  2  0  0  0  0
 17 18  1  0  0  0  0
 17 37  1  0  0  0  0
 18 23  2  0  0  0  0
 18 19  1  0  0  0  0
 19 20  2  0  0  0  0
 19 38  1  0  0  0  0
 20 21  1  0  0  0  0
 20 39  1  0  0  0  0
 21 22  2  0  0  0  0
 21 25  1  0  0  0  0
 22 23  1  0  0  0  0
 22 40  1  0  0  0  0
 23 24  1  0  0  0  0
 24 41  1  0  0  0  0
 25 42  1  0  0  0  0
M  END
$$$$
ZINC04465480
  -OEChem-08230709453D

 43 45  0     0  0  0  0  0  0999 V2000
    1.0303    8.7983    5.7011 C   0  0  0  0  0  0  0  0  0  0  0  0
    0.9006    7.3488    5.3097 C   0  0  0  0  0  0  0  0  0  0  0  0
   -0.1997    6.6235    5.7584 C   0  0  0  0  0  0  0  0  0  0  0  0
   -0.3302    5.2863    5.4034 C   0  0  0  0  0  0  0  0  0  0  0  0
    0.6818    4.7171    4.5874 C   0  0  0  0  0  0  0  0  0  0  0  0
    0.6239    3.3778    4.1860 C   0  0  0  0  0  0  0  0  0  0  0  0
    1.6261    2.8630    3.3933 C   0  0  0  0  0  0  0  0  0  0  0  0
    2.6996    3.6659    2.9932 C   0  0  0  0  0  0  0  0  0  0  0  0
    2.7748    4.9705    3.3665 C   0  0  0  0  0  0  0  0  0  0  0  0
    1.7678    5.5293    4.1760 C   0  0  0  0  0  0  0  0  0  0  0  0
    1.8263    6.8080    4.5567 N   0  0  0  0  0  0  0  0  0  0  0  0
    1.5744    1.5634    3.0015 O   0  0  0  0  0  0  0  0  0  0  0  0
    2.6440    1.0904    2.1804 C   0  0  0  0  0  0  0  0  0  0  0  0
   -1.4834    4.4841    5.8606 C   0  0  0  0  0  0  0  0  0  0  0  0
   -1.6340    3.3483    5.4528 O   0  0  0  0  0  0  0  0  0  0  0  0
   -2.3686    5.0109    6.7297 N   0  0  0  0  0  0  0  0  0  0  0  0
   -3.4021    4.2174    7.2444 N   0  0  0  0  0  0  0  0  0  0  0  0
   -4.3212    4.7517    7.9905 C   0  0  0  0  0  0  0  0  0  0  0  0
   -4.4075    6.2165    8.1170 C   0  0  0  0  0  0  0  0  0  0  0  0
   -3.9523    7.0381    7.0822 C   0  0  0  0  0  0  0  0  0  0  0  0
   -4.0348    8.4077    7.2045 C   0  0  0  0  0  0  0  0  0  0  0  0
   -4.5700    8.9765    8.3545 C   0  0  0  0  0  0  0  0  0  0  0  0
   -5.0249    8.1697    9.3872 C   0  0  0  0  0  0  0  0  0  0  0  0
   -4.9519    6.7924    9.2741 C   0  0  0  0  0  0  0  0  0  0  0  0
   -5.4017    6.0013   10.2820 O   0  0  0  0  0  0  0  0  0  0  0  0
   -4.6482   10.3280    8.4672 O   0  0  0  0  0  0  0  0  0  0  0  0
    1.5851    8.8738    6.6363 H   0  0  0  0  0  0  0  0  0  0  0  0
    1.5619    9.3398    4.9185 H   0  0  0  0  0  0  0  0  0  0  0  0
    0.0379    9.2297    5.8315 H   0  0  0  0  0  0  0  0  0  0  0  0
   -0.9470    7.0970    6.3778 H   0  0  0  0  0  0  0  0  0  0  0  0
   -0.2003    2.7522    4.4957 H   0  0  0  0  0  0  0  0  0  0  0  0
    3.4783    3.2436    2.3755 H   0  0  0  0  0  0  0  0  0  0  0  0
    3.6085    5.5772    3.0452 H   0  0  0  0  0  0  0  0  0  0  0  0
    2.4802    0.0400    1.9399 H   0  0  0  0  0  0  0  0  0  0  0  0
    3.5876    1.1977    2.7154 H   0  0  0  0  0  0  0  0  0  0  0  0
    2.6802    1.6726    1.2597 H   0  0  0  0  0  0  0  0  0  0  0  0
   -2.2902    5.9396    6.9987 H   0  0  0  0  0  0  0  0  0  0  0  0
   -5.0222    4.1219    8.5181 H   0  0  0  0  0  0  0  0  0  0  0  0
   -3.5360    6.5996    6.1873 H   0  0  0  0  0  0  0  0  0  0  0  0
   -3.6828    9.0417    6.4042 H   0  0  0  0  0  0  0  0  0  0  0  0
   -5.4402    8.6167   10.2784 H   0  0  0  0  0  0  0  0  0  0  0  0
   -4.7526    5.8499   10.9827 H   0  0  0  0  0  0  0  0  0  0  0  0
   -5.4746   10.7033    8.1337 H   0  0  0  0  0  0  0  0  0  0  0  0
  1  2  1  0  0  0  0
  1 27  1  0  0  0  0
  1 28  1  0  0  0  0
  1 29  1  0  0  0  0
  2 11  2  0  0  0  0
  2  3  1  0  0  0  0
  3  4  2  0  0  0  0
  3 30  1  0  0  0  0
  4  5  1  0  0  0  0
  4 14  1  0  0  0  0
  5 10  2  0  0  0  0
  5  6  1  0  0  0  0
  6  7  2  0  0  0  0
  6 31  1  0  0  0  0
  7  8  1  0  0  0  0
  7 12  1  0  0  0  0
  8  9  2  0  0  0  0
  8 32  1  0  0  0  0
  9 10  1  0  0  0  0
  9 33  1  0  0  0  0
 10 11  1  0  0  0  0
 12 13  1  0  0  0  0
 13 34  1  0  0  0  0
 13 35  1  0  0  0  0
 13 36  1  0  0  0  0
 14 15  2  0  0  0  0
 14 16  1  0  0  0  0
 16 17  1  0  0  0  0
 16 37  1  0  0  0  0
 17 18  2  0  0  0  0
 18 19  1  0  0  0  0
 18 38  1  0  0  0  0
 19 24  2  0  0  0  0
 19 20  1  0  0  0  0
 20 21  2  0  0  0  0
 20 39  1  0  0  0  0
 21 22  1  0  0  0  0
 21 40  1  0  0  0  0
 22 23  2  0  0  0  0
 22 26  1  0  0  0  0
 23 24  1  0  0  0  0
 23 41  1  0  0  0  0
 24 25  1  0  0  0  0
 25 42  1  0  0  0  0
 26 43  1  0  0  0  0
M  END
$$$$
ZINC04465568
  -OEChem-08230709453D

 41 43  0     1  0  0  0  0  0999 V2000
    1.2686   -2.3678   -2.7179 C   0  0  0  0  0  0  0  0  0  0  0  0
    1.3465   -0.8516   -2.5288 C   0  0  2  0  0  0  0  0  0  0  0  0
    0.7944   -0.5698   -1.6323 H   0  0  0  0  0  0  0  0  0  0  0  0
    0.7303   -0.1551   -3.7454 C   0  0  0  0  0  0  0  0  0  0  0  0
    0.5676    1.3386   -3.4292 C   0  0  0  0  0  0  0  0  0  0  0  0
    1.8532    1.8411   -2.8479 C   0  0  0  0  0  0  0  0  0  0  0  0
    2.8866    1.0909   -2.3633 C   0  0  0  0  0  0  0  0  0  0  0  0
    3.9830    1.7818   -1.8734 C   0  0  0  0  0  0  0  0  0  0  0  0
    3.9529    3.1640   -1.9089 C   0  0  0  0  0  0  0  0  0  0  0  0
    2.3562    3.4755   -2.6432 S   0  0  0  0  0  0  0  0  0  0  0  0
    4.9670    4.1223   -1.4611 C   0  0  0  0  0  0  0  0  0  0  0  0
    6.0109    3.7228   -0.9784 O   0  0  0  0  0  0  0  0  0  0  0  0
    4.7442    5.4458   -1.5836 N   0  0  0  0  0  0  0  0  0  0  0  0
    5.7138    6.3620   -1.1555 N   0  0  0  0  0  0  0  0  0  0  0  0
    5.4572    7.6344   -1.1733 C   0  0  0  0  0  0  0  0  0  0  0  0
    4.0784    8.1051   -1.3956 C   0  0  0  0  0  0  0  0  0  0  0  0
    2.9948    7.2882   -1.0602 C   0  0  0  0  0  0  0  0  0  0  0  0
    1.7064    7.7340   -1.2652 C   0  0  0  0  0  0  0  0  0  0  0  0
    1.4786    8.9851   -1.8125 C   0  0  0  0  0  0  0  0  0  0  0  0
    2.5433    9.8037   -2.1547 C   0  0  0  0  0  0  0  0  0  0  0  0
    3.8476    9.3700   -1.9489 C   0  0  0  0  0  0  0  0  0  0  0  0
    4.8939   10.1704   -2.2829 O   0  0  0  0  0  0  0  0  0  0  0  0
    2.3117   11.0317   -2.6915 O   0  0  0  0  0  0  0  0  0  0  0  0
    2.8092   -0.4336   -2.3744 C   0  0  0  0  0  0  0  0  0  0  0  0
    1.8176   -2.6507   -3.6161 H   0  0  0  0  0  0  0  0  0  0  0  0
    1.7070   -2.8649   -1.8525 H   0  0  0  0  0  0  0  0  0  0  0  0
    0.2258   -2.6682   -2.8198 H   0  0  0  0  0  0  0  0  0  0  0  0
   -0.2450   -0.5914   -3.9611 H   0  0  0  0  0  0  0  0  0  0  0  0
    1.3842   -0.2768   -4.6090 H   0  0  0  0  0  0  0  0  0  0  0  0
    0.3404    1.8850   -4.3446 H   0  0  0  0  0  0  0  0  0  0  0  0
   -0.2392    1.4757   -2.7093 H   0  0  0  0  0  0  0  0  0  0  0  0
    4.8379    1.2555   -1.4752 H   0  0  0  0  0  0  0  0  0  0  0  0
    3.9125    5.7641   -1.9682 H   0  0  0  0  0  0  0  0  0  0  0  0
    6.2542    8.3481   -1.0253 H   0  0  0  0  0  0  0  0  0  0  0  0
    3.1668    6.3097   -0.6368 H   0  0  0  0  0  0  0  0  0  0  0  0
    0.8709    7.1024   -1.0018 H   0  0  0  0  0  0  0  0  0  0  0  0
    0.4661    9.3250   -1.9732 H   0  0  0  0  0  0  0  0  0  0  0  0
    5.2565    9.9972   -3.1625 H   0  0  0  0  0  0  0  0  0  0  0  0
    2.2555   11.0347   -3.6568 H   0  0  0  0  0  0  0  0  0  0  0  0
    3.2043   -0.8263   -1.4375 H   0  0  0  0  0  0  0  0  0  0  0  0
    3.3906   -0.8229   -3.2101 H   0  0  0  0  0  0  0  0  0  0  0  0
  1  2  1  0  0  0  0
  1 25  1  0  0  0  0
  1 26  1  0  0  0  0
  1 27  1  0  0  0  0
  2  3  1  0  0  0  0
  2 24  1  0  0  0  0
  2  4  1  0  0  0  0
  4  5  1  0  0  0  0
  4 28  1  0  0  0  0
  4 29  1  0  0  0  0
  5  6  1  0  0  0  0
  5 30  1  0  0  0  0
  5 31  1  0  0  0  0
  6 10  1  0  0  0  0
  6  7  2  0  0  0  0
  7  8  1  0  0  0  0
  7 24  1  0  0  0  0
  8  9  2  0  0  0  0
  8 32  1  0  0  0  0
  9 10  1  0  0  0  0
  9 11  1  0  0  0  0
 11 12  2  0  0  0  0
 11 13  1  0  0  0  0
 13 14  1  0  0  0  0
 13 33  1  0  0  0  0
 14 15  2  0  0  0  0
 15 16  1  0  0  0  0
 15 34  1  0  0  0  0
 16 21  2  0  0  0  0
 16 17  1  0  0  0  0
 17 18  2  0  0  0  0
 17 35  1  0  0  0  0
 18 19  1  0  0  0  0
 18 36  1  0  0  0  0
 19 20  2  0  0  0  0
 19 37  1  0  0  0  0
 20 21  1  0  0  0  0
 20 23  1  0  0  0  0
 21 22  1  0  0  0  0
 22 38  1  0  0  0  0
 23 39  1  0  0  0  0
 24 40  1  0  0  0  0
 24 41  1  0  0  0  0
M  END
$$$$
ZINC04465805
  -OEChem-08230709453D

 41 43  0     0  0  0  0  0  0999 V2000
    2.1038    5.6800   -0.1567 C   0  0  0  0  0  0  0  0  0  0  0  0
    2.3982    7.0231   -0.2145 C   0  0  0  0  0  0  0  0  0  0  0  0
    3.7236    7.4447   -0.2743 C   0  0  0  0  0  0  0  0  0  0  0  0
    4.7554    6.5102   -0.2705 C   0  0  0  0  0  0  0  0  0  0  0  0
    4.4679    5.1658   -0.2080 C   0  0  0  0  0  0  0  0  0  0  0  0
    3.1379    4.7390   -0.1478 C   0  0  0  0  0  0  0  0  0  0  0  0
    2.8261    3.2991   -0.0812 C   0  0  0  0  0  0  0  0  0  0  0  0
    3.7269    2.4811   -0.0786 O   0  0  0  0  0  0  0  0  0  0  0  0
    1.5435    2.8892   -0.0232 N   0  0  0  0  0  0  0  0  0  0  0  0
    1.2474    1.5213    0.0400 N   0  0  0  0  0  0  0  0  0  0  0  0
    0.0097    1.1198   -0.0149 C   0  0  0  0  0  0  0  0  0  0  0  0
   -1.0779    2.0992   -0.0167 C   0  0  0  0  0  0  0  0  0  0  0  0
   -2.4444    1.8847    0.0490 C   0  0  0  0  0  0  0  0  0  0  0  0
   -3.2800    2.9753    0.0325 C   0  0  0  0  0  0  0  0  0  0  0  0
   -2.7368    4.2280   -0.0477 C   0  0  0  0  0  0  0  0  0  0  0  0
   -0.9866    3.8804   -0.0962 S   0  0  0  0  0  0  0  0  0  0  0  0
   -3.3831    5.4591   -0.0785 N   0  0  0  0  0  0  0  0  0  0  0  0
   -4.3469    5.5205   -1.1869 C   0  0  0  0  0  0  0  0  0  0  0  0
   -5.0764    6.8660   -1.1476 C   0  0  0  0  0  0  0  0  0  0  0  0
   -4.1168    7.9248   -1.2053 O   0  0  0  0  0  0  0  0  0  0  0  0
   -3.1629    7.8958   -0.1401 C   0  0  0  0  0  0  0  0  0  0  0  0
   -2.4139    6.5608   -0.1692 C   0  0  0  0  0  0  0  0  0  0  0  0
    4.0176    8.8027   -0.3376 N   0  0  0  0  0  0  0  0  0  0  0  0
    1.0753    5.3534   -0.1144 H   0  0  0  0  0  0  0  0  0  0  0  0
    1.6001    7.7506   -0.2172 H   0  0  0  0  0  0  0  0  0  0  0  0
    5.7826    6.8405   -0.3170 H   0  0  0  0  0  0  0  0  0  0  0  0
    5.2688    4.4413   -0.2050 H   0  0  0  0  0  0  0  0  0  0  0  0
    0.8254    3.5413   -0.0253 H   0  0  0  0  0  0  0  0  0  0  0  0
   -0.2139    0.0644   -0.0637 H   0  0  0  0  0  0  0  0  0  0  0  0
   -2.8440    0.8834    0.1122 H   0  0  0  0  0  0  0  0  0  0  0  0
   -4.3510    2.8452    0.0819 H   0  0  0  0  0  0  0  0  0  0  0  0
   -3.8183    5.4207   -2.1349 H   0  0  0  0  0  0  0  0  0  0  0  0
   -5.0701    4.7113   -1.0857 H   0  0  0  0  0  0  0  0  0  0  0  0
   -5.6484    6.9430   -0.2229 H   0  0  0  0  0  0  0  0  0  0  0  0
   -5.7514    6.9397   -2.0003 H   0  0  0  0  0  0  0  0  0  0  0  0
   -3.6791    8.0028    0.8139 H   0  0  0  0  0  0  0  0  0  0  0  0
   -2.4533    8.7139   -0.2637 H   0  0  0  0  0  0  0  0  0  0  0  0
   -1.7261    6.5109    0.6749 H   0  0  0  0  0  0  0  0  0  0  0  0
   -1.8544    6.4776   -1.1009 H   0  0  0  0  0  0  0  0  0  0  0  0
    4.9407    9.0977   -0.3790 H   0  0  0  0  0  0  0  0  0  0  0  0
    3.2995    9.4548   -0.3403 H   0  0  0  0  0  0  0  0  0  0  0  0
  1  6  2  0  0  0  0
  1  2  1  0  0  0  0
  1 24  1  0  0  0  0
  2  3  2  0  0  0  0
  2 25  1  0  0  0  0
  3  4  1  0  0  0  0
  3 23  1  0  0  0  0
  4  5  2  0  0  0  0
  4 26  1  0  0  0  0
  5  6  1  0  0  0  0
  5 27  1  0  0  0  0
  6  7  1  0  0  0  0
  7  8  2  0  0  0  0
  7  9  1  0  0  0  0
  9 10  1  0  0  0  0
  9 28  1  0  0  0  0
 10 11  2  0  0  0  0
 11 12  1  0  0  0  0
 11 29  1  0  0  0  0
 12 16  1  0  0  0  0
 12 13  2  0  0  0  0
 13 14  1  0  0  0  0
 13 30  1  0  0  0  0
 14 15  2  0  0  0  0
 14 31  1  0  0  0  0
 15 16  1  0  0  0  0
 15 17  1  0  0  0  0
 17 22  1  0  0  0  0
 17 18  1  0  0  0  0
 18 19  1  0  0  0  0
 18 32  1  0  0  0  0
 18 33  1  0  0  0  0
 19 20  1  0  0  0  0
 19 34  1  0  0  0  0
 19 35  1  0  0  0  0
 20 21  1  0  0  0  0
 21 22  1  0  0  0  0
 21 36  1  0  0  0  0
 21 37  1  0  0  0  0
 22 38  1  0  0  0  0
 22 39  1  0  0  0  0
 23 40  1  0  0  0  0
 23 41  1  0  0  0  0
M  END
$$$$
ZINC04466141
  -OEChem-08230709453D

 39 42  0     0  0  0  0  0  0999 V2000
   -1.4426    2.6895    0.4243 C   0  0  0  0  0  0  0  0  0  0  0  0
   -1.6428    1.1748    0.5056 C   0  0  0  0  0  0  0  0  0  0  0  0
   -0.3007    0.4894    0.4930 C   0  0  0  0  0  0  0  0  0  0  0  0
    0.8866    1.0188    0.4208 N   0  0  0  0  0  0  0  0  0  0  0  0
    2.0215    0.2357    0.4265 N   0  0  0  0  0  0  0  0  0  0  0  0
    3.3494    0.7126    0.4228 C   0  0  0  0  0  0  0  0  0  0  0  0
    3.6765    1.9246    0.7901 N   0  0  0  0  0  0  0  0  0  0  0  0
    4.3419   -0.2946   -0.0393 C   0  0  0  0  0  0  0  0  0  0  0  0
    5.4835    0.0710   -0.7291 C   0  0  0  0  0  0  0  0  0  0  0  0
    6.3339   -0.9225   -1.2651 C   0  0  0  0  0  0  0  0  0  0  0  0
    7.6764   -1.1020   -0.9916 C   0  0  0  0  0  0  0  0  0  0  0  0
    8.1432   -2.1532   -1.6935 N   0  0  0  0  0  0  0  0  0  0  0  0
    9.0590   -2.4718   -1.6657 H   0  0  0  0  0  0  0  0  0  0  0  0
    7.1400   -2.7144   -2.4582 C   0  0  0  0  0  0  0  0  0  0  0  0
    5.9653   -1.9821   -2.2253 C   0  0  0  0  0  0  0  0  0  0  0  0
    4.7826   -2.3347   -2.8675 C   0  0  0  0  0  0  0  0  0  0  0  0
    4.7689   -3.4093   -3.7311 C   0  0  0  0  0  0  0  0  0  0  0  0
    5.9271   -4.1368   -3.9598 C   0  0  0  0  0  0  0  0  0  0  0  0
    7.1075   -3.7921   -3.3370 C   0  0  0  0  0  0  0  0  0  0  0  0
    8.4931   -0.2526   -0.0520 C   0  0  0  0  0  0  0  0  0  0  0  0
    4.0424   -1.7101    0.2795 C   0  0  0  0  0  0  0  0  0  0  0  0
    4.9375   -2.5324    0.3941 O   0  0  0  0  0  0  0  0  0  0  0  0
    2.7507   -2.0621    0.4385 N   0  0  0  0  0  0  0  0  0  0  0  0
    1.8325   -1.1294    0.4633 C   0  0  0  0  0  0  0  0  0  0  0  0
    0.0671   -1.2584    0.5656 S   0  0  0  0  0  0  0  0  0  0  0  0
   -2.4133    3.1853    0.4334 H   0  0  0  0  0  0  0  0  0  0  0  0
   -0.8554    3.0248    1.2792 H   0  0  0  0  0  0  0  0  0  0  0  0
   -0.9166    2.9375   -0.4976 H   0  0  0  0  0  0  0  0  0  0  0  0
   -2.2300    0.8395   -0.3493 H   0  0  0  0  0  0  0  0  0  0  0  0
   -2.1688    0.9268    1.4274 H   0  0  0  0  0  0  0  0  0  0  0  0
    2.9903    2.5441    1.0838 H   0  0  0  0  0  0  0  0  0  0  0  0
    5.7251    1.1156   -0.8583 H   0  0  0  0  0  0  0  0  0  0  0  0
    3.8796   -1.7693   -2.6906 H   0  0  0  0  0  0  0  0  0  0  0  0
    3.8525   -3.6857   -4.2312 H   0  0  0  0  0  0  0  0  0  0  0  0
    5.9058   -4.9769   -4.6382 H   0  0  0  0  0  0  0  0  0  0  0  0
    8.0034   -4.3664   -3.5213 H   0  0  0  0  0  0  0  0  0  0  0  0
    8.3742   -0.6209    0.9670 H   0  0  0  0  0  0  0  0  0  0  0  0
    9.5441   -0.3038   -0.3366 H   0  0  0  0  0  0  0  0  0  0  0  0
    8.1517    0.7811   -0.1070 H   0  0  0  0  0  0  0  0  0  0  0  0
  1  2  1  0  0  0  0
  1 26  1  0  0  0  0
  1 27  1  0  0  0  0
  1 28  1  0  0  0  0
  2  3  1  0  0  0  0
  2 29  1  0  0  0  0
  2 30  1  0  0  0  0
  3 25  1  0  0  0  0
  3  4  2  0  0  0  0
  4  5  1  0  0  0  0
  5 24  1  0  0  0  0
  5  6  1  0  0  0  0
  6  7  2  0  0  0  0
  6  8  1  0  0  0  0
  7 31  1  0  0  0  0
  8  9  2  0  0  0  0
  8 21  1  0  0  0  0
  9 10  1  0  0  0  0
  9 32  1  0  0  0  0
 10 15  1  0  0  0  0
 10 11  2  0  0  0  0
 11 12  1  0  0  0  0
 11 20  1  0  0  0  0
 12 13  1  0  0  0  0
 12 14  1  0  0  0  0
 14 19  2  0  0  0  0
 14 15  1  0  0  0  0
 15 16  2  0  0  0  0
 16 17  1  0  0  0  0
 16 33  1  0  0  0  0
 17 18  2  0  0  0  0
 17 34  1  0  0  0  0
 18 19  1  0  0  0  0
 18 35  1  0  0  0  0
 19 36  1  0  0  0  0
 20 37  1  0  0  0  0
 20 38  1  0  0  0  0
 20 39  1  0  0  0  0
 21 22  2  0  0  0  0
 21 23  1  0  0  0  0
 23 24  2  0  0  0  0
 24 25  1  0  0  0  0
M  END
$$$$
ZINC04466203
  -OEChem-08230709453D

 42 44  0     0  0  0  0  0  0999 V2000
   -3.9422    0.4529   -0.4404 C   0  0  0  0  0  0  0  0  0  0  0  0
   -2.7391    1.0563    0.2375 C   0  0  0  0  0  0  0  0  0  0  0  0
   -1.9500    0.2782    1.0651 C   0  0  0  0  0  0  0  0  0  0  0  0
   -0.8484    0.8294    1.6931 C   0  0  0  0  0  0  0  0  0  0  0  0
   -0.5266    2.1569    1.4873 C   0  0  0  0  0  0  0  0  0  0  0  0
   -1.3165    2.9405    0.6568 C   0  0  0  0  0  0  0  0  0  0  0  0
   -2.4255    2.3852    0.0315 C   0  0  0  0  0  0  0  0  0  0  0  0
   -0.9963    4.2869    0.4505 N   0  0  0  0  0  0  0  0  0  0  0  0
   -1.9780    5.1954    0.2854 C   0  0  0  0  0  0  0  0  0  0  0  0
   -3.1380    4.8648    0.4128 O   0  0  0  0  0  0  0  0  0  0  0  0
   -1.6345    6.6222   -0.0574 C   0  0  0  0  0  0  0  0  0  0  0  0
   -2.8667    7.4046   -0.1824 N   0  0  0  0  0  0  0  0  0  0  0  0
   -3.5645    7.5777   -1.3218 C   0  0  0  0  0  0  0  0  0  0  0  0
   -3.2895    7.1193   -2.4161 O   0  0  0  0  0  0  0  0  0  0  0  0
   -4.6840    8.3942   -1.0046 C   0  0  0  0  0  0  0  0  0  0  0  0
   -5.6583    8.8186   -1.8580 C   0  0  0  0  0  0  0  0  0  0  0  0
   -5.5340    8.5824   -3.2469 C   0  0  0  0  0  0  0  0  0  0  0  0
   -6.5047    8.1813   -4.1583 C   0  0  0  0  0  0  0  0  0  0  0  0
   -6.1073    8.0256   -5.4630 C   0  0  0  0  0  0  0  0  0  0  0  0
   -4.8118    8.2655   -5.7958 C   0  0  0  0  0  0  0  0  0  0  0  0
   -4.0927    8.7290   -4.2881 S   0  0  0  0  0  0  0  0  0  0  0  0
   -4.1591    8.1600   -7.1501 C   0  0  0  0  0  0  0  0  0  0  0  0
   -4.5778    8.6786    0.3640 N   0  0  0  0  0  0  0  0  0  0  0  0
   -3.4704    8.0641    0.8203 C   0  0  0  0  0  0  0  0  0  0  0  0
   -3.0754    8.0999    1.9701 O   0  0  0  0  0  0  0  0  0  0  0  0
   -4.8166    0.5696    0.1998 H   0  0  0  0  0  0  0  0  0  0  0  0
   -4.1166    0.9597   -1.3896 H   0  0  0  0  0  0  0  0  0  0  0  0
   -3.7635   -0.6069   -0.6219 H   0  0  0  0  0  0  0  0  0  0  0  0
   -2.1974   -0.7609    1.2246 H   0  0  0  0  0  0  0  0  0  0  0  0
   -0.2366    0.2203    2.3419 H   0  0  0  0  0  0  0  0  0  0  0  0
    0.3364    2.5857    1.9749 H   0  0  0  0  0  0  0  0  0  0  0  0
   -3.0421    2.9922   -0.6148 H   0  0  0  0  0  0  0  0  0  0  0  0
   -0.0678    4.5664    0.4263 H   0  0  0  0  0  0  0  0  0  0  0  0
   -1.0134    7.0460    0.7318 H   0  0  0  0  0  0  0  0  0  0  0  0
   -1.0903    6.6481   -1.0014 H   0  0  0  0  0  0  0  0  0  0  0  0
   -6.5253    9.3353   -1.4736 H   0  0  0  0  0  0  0  0  0  0  0  0
   -7.5248    8.0002   -3.8535 H   0  0  0  0  0  0  0  0  0  0  0  0
   -6.8164    7.7162   -6.2165 H   0  0  0  0  0  0  0  0  0  0  0  0
   -4.2321    9.1184   -7.6642 H   0  0  0  0  0  0  0  0  0  0  0  0
   -3.1096    7.8924   -7.0277 H   0  0  0  0  0  0  0  0  0  0  0  0
   -4.6635    7.3931   -7.7378 H   0  0  0  0  0  0  0  0  0  0  0  0
   -5.1905    9.2193    0.8867 H   0  0  0  0  0  0  0  0  0  0  0  0
  1  2  1  0  0  0  0
  1 26  1  0  0  0  0
  1 27  1  0  0  0  0
  1 28  1  0  0  0  0
  2  7  2  0  0  0  0
  2  3  1  0  0  0  0
  3  4  2  0  0  0  0
  3 29  1  0  0  0  0
  4  5  1  0  0  0  0
  4 30  1  0  0  0  0
  5  6  2  0  0  0  0
  5 31  1  0  0  0  0
  6  7  1  0  0  0  0
  6  8  1  0  0  0  0
  7 32  1  0  0  0  0
  8  9  1  0  0  0  0
  8 33  1  0  0  0  0
  9 10  2  0  0  0  0
  9 11  1  0  0  0  0
 11 12  1  0  0  0  0
 11 34  1  0  0  0  0
 11 35  1  0  0  0  0
 12 24  1  0  0  0  0
 12 13  1  0  0  0  0
 13 14  2  0  0  0  0
 13 15  1  0  0  0  0
 15 16  2  0  0  0  0
 15 23  1  0  0  0  0
 16 17  1  0  0  0  0
 16 36  1  0  0  0  0
 17 21  1  0  0  0  0
 17 18  2  0  0  0  0
 18 19  1  0  0  0  0
 18 37  1  0  0  0  0
 19 20  2  0  0  0  0
 19 38  1  0  0  0  0
 20 21  1  0  0  0  0
 20 22  1  0  0  0  0
 22 39  1  0  0  0  0
 22 40  1  0  0  0  0
 22 41  1  0  0  0  0
 23 24  1  0  0  0  0
 23 42  1  0  0  0  0
 24 25  2  0  0  0  0
M  END
$$$$
ZINC04467877
  -OEChem-08230709453D

 47 49  0     0  0  0  0  0  0999 V2000
   -6.3992   10.0981    2.7197 C   0  0  0  0  0  0  0  0  0  0  0  0
   -5.2268    9.1690    2.3985 C   0  0  0  0  0  0  0  0  0  0  0  0
   -4.0587    9.1676    3.7863 S   0  0  0  0  0  0  0  0  0  0  0  0
   -4.6032    8.4475    4.8836 O   0  0  0  0  0  0  0  0  0  0  0  0
   -3.5161   10.4679    3.9707 O   0  0  0  0  0  0  0  0  0  0  0  0
   -2.7833    8.2472    3.2680 N   0  0  0  0  0  0  0  0  0  0  0  0
   -2.9806    6.9053    2.9335 C   0  0  0  0  0  0  0  0  0  0  0  0
   -3.7205    6.0809    3.7734 C   0  0  0  0  0  0  0  0  0  0  0  0
   -3.9185    4.7534    3.4454 C   0  0  0  0  0  0  0  0  0  0  0  0
   -3.3869    4.2392    2.2793 C   0  0  0  0  0  0  0  0  0  0  0  0
   -2.6389    5.0569    1.4340 C   0  0  0  0  0  0  0  0  0  0  0  0
   -2.4390    6.3952    1.7633 C   0  0  0  0  0  0  0  0  0  0  0  0
   -2.0622    4.5045    0.1836 C   0  0  0  0  0  0  0  0  0  0  0  0
   -1.1155    3.5566    0.2434 C   0  0  0  0  0  0  0  0  0  0  0  0
   -0.5144    2.9800   -1.0193 C   0  0  0  0  0  0  0  0  0  0  0  0
   -0.5916    1.4516   -0.9416 C   0  0  0  0  0  0  0  0  0  0  0  0
    0.0756    0.9740    0.3493 C   0  0  0  0  0  0  0  0  0  0  0  0
   -0.6959    1.5067    1.5579 C   0  0  0  0  0  0  0  0  0  0  0  0
   -0.6210    3.0371    1.5752 C   0  0  0  0  0  0  0  0  0  0  0  0
   -2.5311    4.9987   -1.1277 C   0  0  0  0  0  0  0  0  0  0  0  0
   -1.8011    5.6881   -2.0473 C   0  0  0  0  0  0  0  0  0  0  0  0
   -2.5942    5.9428   -3.0939 N   0  0  0  0  0  0  0  0  0  0  0  0
   -3.7847    5.4550   -2.8694 C   0  0  0  0  0  0  0  0  0  0  0  0
   -3.7941    4.8579   -1.6579 N   0  0  0  0  0  0  0  0  0  0  0  0
   -4.5717    4.3999   -1.2272 H   0  0  0  0  0  0  0  0  0  0  0  0
   -7.1012   10.0990    1.8858 H   0  0  0  0  0  0  0  0  0  0  0  0
   -6.9046    9.7476    3.6196 H   0  0  0  0  0  0  0  0  0  0  0  0
   -6.0272   11.1096    2.8825 H   0  0  0  0  0  0  0  0  0  0  0  0
   -4.7215    9.5195    1.4985 H   0  0  0  0  0  0  0  0  0  0  0  0
   -5.5989    8.1575    2.2357 H   0  0  0  0  0  0  0  0  0  0  0  0
   -1.8992    8.6398    3.1967 H   0  0  0  0  0  0  0  0  0  0  0  0
   -4.1419    6.4792    4.6846 H   0  0  0  0  0  0  0  0  0  0  0  0
   -4.4943    4.1170    4.1010 H   0  0  0  0  0  0  0  0  0  0  0  0
   -3.5476    3.2022    2.0241 H   0  0  0  0  0  0  0  0  0  0  0  0
   -1.8641    7.0339    1.1091 H   0  0  0  0  0  0  0  0  0  0  0  0
    0.5272    3.2901   -1.1036 H   0  0  0  0  0  0  0  0  0  0  0  0
   -1.0723    3.3311   -1.8873 H   0  0  0  0  0  0  0  0  0  0  0  0
   -0.0771    1.0175   -1.7989 H   0  0  0  0  0  0  0  0  0  0  0  0
   -1.6360    1.1396   -0.9480 H   0  0  0  0  0  0  0  0  0  0  0  0
    0.0793   -0.1158    0.3734 H   0  0  0  0  0  0  0  0  0  0  0  0
    1.1015    1.3406    0.3840 H   0  0  0  0  0  0  0  0  0  0  0  0
   -1.7377    1.1933    1.4910 H   0  0  0  0  0  0  0  0  0  0  0  0
   -0.2553    1.1117    2.4733 H   0  0  0  0  0  0  0  0  0  0  0  0
    0.4107    3.3525    1.7310 H   0  0  0  0  0  0  0  0  0  0  0  0
   -1.2483    3.4280    2.3764 H   0  0  0  0  0  0  0  0  0  0  0  0
   -0.7648    5.9762   -1.9499 H   0  0  0  0  0  0  0  0  0  0  0  0
   -4.6261    5.5190   -3.5435 H   0  0  0  0  0  0  0  0  0  0  0  0
  1  2  1  0  0  0  0
  1 26  1  0  0  0  0
  1 27  1  0  0  0  0
  1 28  1  0  0  0  0
  2  3  1  0  0  0  0
  2 29  1  0  0  0  0
  2 30  1  0  0  0  0
  3  4  2  0  0  0  0
  3  5  2  0  0  0  0
  3  6  1  0  0  0  0
  6  7  1  0  0  0  0
  6 31  1  0  0  0  0
  7 12  2  0  0  0  0
  7  8  1  0  0  0  0
  8  9  2  0  0  0  0
  8 32  1  0  0  0  0
  9 10  1  0  0  0  0
  9 33  1  0  0  0  0
 10 11  2  0  0  0  0
 10 34  1  0  0  0  0
 11 12  1  0  0  0  0
 11 13  1  0  0  0  0
 12 35  1  0  0  0  0
 13 14  2  0  0  0  0
 13 20  1  0  0  0  0
 14 19  1  0  0  0  0
 14 15  1  0  0  0  0
 15 16  1  0  0  0  0
 15 36  1  0  0  0  0
 15 37  1  0  0  0  0
 16 17  1  0  0  0  0
 16 38  1  0  0  0  0
 16 39  1  0  0  0  0
 17 18  1  0  0  0  0
 17 40  1  0  0  0  0
 17 41  1  0  0  0  0
 18 19  1  0  0  0  0
 18 42  1  0  0  0  0
 18 43  1  0  0  0  0
 19 44  1  0  0  0  0
 19 45  1  0  0  0  0
 20 24  1  0  0  0  0
 20 21  2  0  0  0  0
 21 22  1  0  0  0  0
 21 46  1  0  0  0  0
 22 23  2  0  0  0  0
 23 24  1  0  0  0  0
 23 47  1  0  0  0  0
 24 25  1  0  0  0  0
M  END
$$$$
ZINC04467883
  -OEChem-08230709453D

 45 47  0     0  0  0  0  0  0999 V2000
    3.9011   -7.7005    0.3119 C   0  0  0  0  0  0  0  0  0  0  0  0
    5.0612   -7.3215   -0.6107 C   0  0  0  0  0  0  0  0  0  0  0  0
    6.3765   -7.7892   -0.0312 C   0  0  0  0  0  0  0  0  0  0  0  0
    6.8667   -9.0377    0.2816 C   0  0  0  0  0  0  0  0  0  0  0  0
    8.1352   -9.1668    0.8192 C   0  0  0  0  0  0  0  0  0  0  0  0
    8.9068   -8.0405    1.0407 C   0  0  0  0  0  0  0  0  0  0  0  0
    8.4188   -6.7888    0.7287 C   0  0  0  0  0  0  0  0  0  0  0  0
    7.1416   -6.6505    0.1866 C   0  0  0  0  0  0  0  0  0  0  0  0
    6.4392   -5.5118   -0.2046 N   0  0  0  0  0  0  0  0  0  0  0  0
    5.2057   -5.8166   -0.6897 C   0  0  0  0  0  0  0  0  0  0  0  0
    4.2802   -4.9398   -1.1506 C   0  0  0  0  0  0  0  0  0  0  0  0
    4.4895   -3.5608   -1.0094 C   0  0  0  0  0  0  0  0  0  0  0  0
    4.7009   -3.0876    0.0899 O   0  0  0  0  0  0  0  0  0  0  0  0
    4.4525   -2.6651   -2.2208 C   0  0  0  0  0  0  0  0  0  0  0  0
    4.7561   -0.9538   -1.7155 S   0  0  0  0  0  0  0  0  0  0  0  0
    4.6593   -0.1508   -3.2808 C   0  0  0  0  0  0  0  0  0  0  0  0
    4.8360    1.1982   -3.3509 N   0  0  0  0  0  0  0  0  0  0  0  0
    5.0182    1.7215   -2.5185 H   0  0  0  0  0  0  0  0  0  0  0  0
    4.7657    1.8296   -4.5413 C   0  0  0  0  0  0  0  0  0  0  0  0
    4.9236    3.0382   -4.6132 O   0  0  0  0  0  0  0  0  0  0  0  0
    4.5089    1.0766   -5.6911 C   0  0  0  0  0  0  0  0  0  0  0  0
    4.3359   -0.2948   -5.5660 C   0  0  0  0  0  0  0  0  0  0  0  0
    4.4171   -0.8668   -4.3596 N   0  0  0  0  0  0  0  0  0  0  0  0
    4.0816   -1.0658   -6.6826 N   0  0  0  0  0  0  0  0  0  0  0  0
    6.9671   -4.1488   -0.1054 C   0  0  0  0  0  0  0  0  0  0  0  0
    4.8532   -7.9137   -2.0060 C   0  0  0  0  0  0  0  0  0  0  0  0
    2.9750   -7.2757   -0.0756 H   0  0  0  0  0  0  0  0  0  0  0  0
    3.8121   -8.7860    0.3567 H   0  0  0  0  0  0  0  0  0  0  0  0
    4.0895   -7.3099    1.3119 H   0  0  0  0  0  0  0  0  0  0  0  0
    6.2615   -9.9151    0.1077 H   0  0  0  0  0  0  0  0  0  0  0  0
    8.5220  -10.1448    1.0650 H   0  0  0  0  0  0  0  0  0  0  0  0
    9.8969   -8.1417    1.4600 H   0  0  0  0  0  0  0  0  0  0  0  0
    9.0274   -5.9141    0.9042 H   0  0  0  0  0  0  0  0  0  0  0  0
    3.3815   -5.3036   -1.6264 H   0  0  0  0  0  0  0  0  0  0  0  0
    3.5544   -2.7298   -2.6559 H   0  0  0  0  0  0  0  0  0  0  0  0
    5.2217   -2.9773   -2.9272 H   0  0  0  0  0  0  0  0  0  0  0  0
    4.4507    1.5525   -6.6589 H   0  0  0  0  0  0  0  0  0  0  0  0
    4.0234   -0.6492   -7.5566 H   0  0  0  0  0  0  0  0  0  0  0  0
    3.9610   -2.0241   -6.5931 H   0  0  0  0  0  0  0  0  0  0  0  0
    6.7290   -3.7374    0.8755 H   0  0  0  0  0  0  0  0  0  0  0  0
    8.0488   -4.1675   -0.2387 H   0  0  0  0  0  0  0  0  0  0  0  0
    6.5163   -3.5274   -0.8791 H   0  0  0  0  0  0  0  0  0  0  0  0
    5.7106   -7.6728   -2.6345 H   0  0  0  0  0  0  0  0  0  0  0  0
    4.7514   -8.9962   -1.9298 H   0  0  0  0  0  0  0  0  0  0  0  0
    3.9495   -7.4939   -2.4479 H   0  0  0  0  0  0  0  0  0  0  0  0
  1  2  1  0  0  0  0
  1 27  1  0  0  0  0
  1 28  1  0  0  0  0
  1 29  1  0  0  0  0
  2 10  1  0  0  0  0
  2  3  1  0  0  0  0
  2 26  1  0  0  0  0
  3  8  2  0  0  0  0
  3  4  1  0  0  0  0
  4  5  2  0  0  0  0
  4 30  1  0  0  0  0
  5  6  1  0  0  0  0
  5 31  1  0  0  0  0
  6  7  2  0  0  0  0
  6 32  1  0  0  0  0
  7  8  1  0  0  0  0
  7 33  1  0  0  0  0
  8  9  1  0  0  0  0
  9 10  1  0  0  0  0
  9 25  1  0  0  0  0
 10 11  2  0  0  0  0
 11 12  1  0  0  0  0
 11 34  1  0  0  0  0
 12 13  2  0  0  0  0
 12 14  1  0  0  0  0
 14 15  1  0  0  0  0
 14 35  1  0  0  0  0
 14 36  1  0  0  0  0
 15 16  1  0  0  0  0
 16 23  2  0  0  0  0
 16 17  1  0  0  0  0
 17 18  1  0  0  0  0
 17 19  1  0  0  0  0
 19 20  2  0  0  0  0
 19 21  1  0  0  0  0
 21 22  2  0  0  0  0
 21 37  1  0  0  0  0
 22 23  1  0  0  0  0
 22 24  1  0  0  0  0
 24 38  1  0  0  0  0
 24 39  1  0  0  0  0
 25 40  1  0  0  0  0
 25 41  1  0  0  0  0
 25 42  1  0  0  0  0
 26 43  1  0  0  0  0
 26 44  1  0  0  0  0
 26 45  1  0  0  0  0
M  END
$$$$
ZINC04467883
  -OEChem-08230709453D

 45 47  0     0  0  0  0  0  0999 V2000
    3.8983   -7.7001    0.3122 C   0  0  0  0  0  0  0  0  0  0  0  0
    5.0589   -7.3211   -0.6098 C   0  0  0  0  0  0  0  0  0  0  0  0
    6.3739   -7.7887   -0.0296 C   0  0  0  0  0  0  0  0  0  0  0  0
    6.8640   -9.0372    0.2836 C   0  0  0  0  0  0  0  0  0  0  0  0
    8.1322   -9.1662    0.8219 C   0  0  0  0  0  0  0  0  0  0  0  0
    8.9036   -8.0398    1.0437 C   0  0  0  0  0  0  0  0  0  0  0  0
    8.4157   -6.7882    0.7313 C   0  0  0  0  0  0  0  0  0  0  0  0
    7.1388   -6.6500    0.1885 C   0  0  0  0  0  0  0  0  0  0  0  0
    6.4366   -5.5113   -0.2031 N   0  0  0  0  0  0  0  0  0  0  0  0
    5.2033   -5.8162   -0.6889 C   0  0  0  0  0  0  0  0  0  0  0  0
    4.2780   -4.9395   -1.1503 C   0  0  0  0  0  0  0  0  0  0  0  0
    4.4872   -3.5605   -1.0091 C   0  0  0  0  0  0  0  0  0  0  0  0
    4.6980   -3.0872    0.0903 O   0  0  0  0  0  0  0  0  0  0  0  0
    4.4508   -2.6649   -2.2206 C   0  0  0  0  0  0  0  0  0  0  0  0
    4.7541   -0.9535   -1.7152 S   0  0  0  0  0  0  0  0  0  0  0  0
    4.6581   -0.1506   -3.2806 C   0  0  0  0  0  0  0  0  0  0  0  0
    4.8347    1.1984   -3.3507 N   0  0  0  0  0  0  0  0  0  0  0  0
    4.2916   -1.8553   -4.2752 H   0  0  0  0  0  0  0  0  0  0  0  0
    4.7657    1.8296   -4.5413 C   0  0  0  0  0  0  0  0  0  0  0  0
    4.9236    3.0382   -4.6132 O   0  0  0  0  0  0  0  0  0  0  0  0
    4.5098    1.0765   -5.6912 C   0  0  0  0  0  0  0  0  0  0  0  0
    4.3368   -0.2949   -5.5661 C   0  0  0  0  0  0  0  0  0  0  0  0
    4.4169   -0.8668   -4.3596 N   0  0  0  0  0  0  0  0  0  0  0  0
    4.0830   -1.0660   -6.6828 N   0  0  0  0  0  0  0  0  0  0  0  0
    6.9643   -4.1483   -0.1037 C   0  0  0  0  0  0  0  0  0  0  0  0
    4.8517   -7.9134   -2.0052 C   0  0  0  0  0  0  0  0  0  0  0  0
    2.9724   -7.2754   -0.0759 H   0  0  0  0  0  0  0  0  0  0  0  0
    3.8093   -8.7856    0.3570 H   0  0  0  0  0  0  0  0  0  0  0  0
    4.0861   -7.3094    1.3122 H   0  0  0  0  0  0  0  0  0  0  0  0
    6.2589   -9.9146    0.1094 H   0  0  0  0  0  0  0  0  0  0  0  0
    8.5189  -10.1441    1.0679 H   0  0  0  0  0  0  0  0  0  0  0  0
    9.8935   -8.1409    1.4635 H   0  0  0  0  0  0  0  0  0  0  0  0
    9.0242   -5.9134    0.9071 H   0  0  0  0  0  0  0  0  0  0  0  0
    3.3796   -5.3034   -1.6266 H   0  0  0  0  0  0  0  0  0  0  0  0
    3.5530   -2.7296   -2.6561 H   0  0  0  0  0  0  0  0  0  0  0  0
    5.2204   -2.9771   -2.9265 H   0  0  0  0  0  0  0  0  0  0  0  0
    4.4477    1.5529   -6.6585 H   0  0  0  0  0  0  0  0  0  0  0  0
    4.0251   -0.6494   -7.5568 H   0  0  0  0  0  0  0  0  0  0  0  0
    3.9624   -2.0243   -6.5933 H   0  0  0  0  0  0  0  0  0  0  0  0
    6.7257   -3.7368    0.8770 H   0  0  0  0  0  0  0  0  0  0  0  0
    8.0461   -4.1670   -0.2364 H   0  0  0  0  0  0  0  0  0  0  0  0
    6.5139   -3.5270   -0.8777 H   0  0  0  0  0  0  0  0  0  0  0  0
    5.7094   -7.6725   -2.6333 H   0  0  0  0  0  0  0  0  0  0  0  0
    4.7499   -8.9959   -1.9290 H   0  0  0  0  0  0  0  0  0  0  0  0
    3.9482   -7.4937   -2.4476 H   0  0  0  0  0  0  0  0  0  0  0  0
  1  2  1  0  0  0  0
  1 27  1  0  0  0  0
  1 28  1  0  0  0  0
  1 29  1  0  0  0  0
  2 10  1  0  0  0  0
  2  3  1  0  0  0  0
  2 26  1  0  0  0  0
  3  8  2  0  0  0  0
  3  4  1  0  0  0  0
  4  5  2  0  0  0  0
  4 30  1  0  0  0  0
  5  6  1  0  0  0  0
  5 31  1  0  0  0  0
  6  7  2  0  0  0  0
  6 32  1  0  0  0  0
  7  8  1  0  0  0  0
  7 33  1  0  0  0  0
  8  9  1  0  0  0  0
  9 10  1  0  0  0  0
  9 25  1  0  0  0  0
 10 11  2  0  0  0  0
 11 12  1  0  0  0  0
 11 34  1  0  0  0  0
 12 13  2  0  0  0  0
 12 14  1  0  0  0  0
 14 15  1  0  0  0  0
 14 35  1  0  0  0  0
 14 36  1  0  0  0  0
 15 16  1  0  0  0  0
 16 23  1  0  0  0  0
 16 17  2  0  0  0  0
 17 19  1  0  0  0  0
 18 23  1  0  0  0  0
 19 20  2  0  0  0  0
 19 21  1  0  0  0  0
 21 37  1  0  0  0  0
 21 22  2  0  0  0  0
 22 24  1  0  0  0  0
 22 23  1  0  0  0  0
 24 38  1  0  0  0  0
 24 39  1  0  0  0  0
 25 40  1  0  0  0  0
 25 41  1  0  0  0  0
 25 42  1  0  0  0  0
 26 43  1  0  0  0  0
 26 44  1  0  0  0  0
 26 45  1  0  0  0  0
M  END
$$$$
ZINC04467883
  -OEChem-08230709453D

 45 47  0     0  0  0  0  0  0999 V2000
    3.9011   -7.7005    0.3119 C   0  0  0  0  0  0  0  0  0  0  0  0
    5.0612   -7.3215   -0.6107 C   0  0  0  0  0  0  0  0  0  0  0  0
    6.3765   -7.7892   -0.0312 C   0  0  0  0  0  0  0  0  0  0  0  0
    6.8667   -9.0377    0.2816 C   0  0  0  0  0  0  0  0  0  0  0  0
    8.1352   -9.1668    0.8192 C   0  0  0  0  0  0  0  0  0  0  0  0
    8.9068   -8.0405    1.0407 C   0  0  0  0  0  0  0  0  0  0  0  0
    8.4188   -6.7888    0.7287 C   0  0  0  0  0  0  0  0  0  0  0  0
    7.1416   -6.6505    0.1866 C   0  0  0  0  0  0  0  0  0  0  0  0
    6.4392   -5.5118   -0.2046 N   0  0  0  0  0  0  0  0  0  0  0  0
    5.2057   -5.8166   -0.6897 C   0  0  0  0  0  0  0  0  0  0  0  0
    4.2802   -4.9398   -1.1506 C   0  0  0  0  0  0  0  0  0  0  0  0
    4.4895   -3.5608   -1.0094 C   0  0  0  0  0  0  0  0  0  0  0  0
    4.7009   -3.0876    0.0899 O   0  0  0  0  0  0  0  0  0  0  0  0
    4.4525   -2.6651   -2.2208 C   0  0  0  0  0  0  0  0  0  0  0  0
    4.7561   -0.9538   -1.7155 S   0  0  0  0  0  0  0  0  0  0  0  0
    4.6593   -0.1508   -3.2808 C   0  0  0  0  0  0  0  0  0  0  0  0
    4.8347    1.1984   -3.3507 N   0  0  0  0  0  0  0  0  0  0  0  0
    4.8360    3.3297   -5.5657 H   0  0  0  0  0  0  0  0  0  0  0  0
    4.7644    1.8298   -4.5411 C   0  0  0  0  0  0  0  0  0  0  0  0
    4.9218    3.0384   -4.6130 O   0  0  0  0  0  0  0  0  0  0  0  0
    4.5117    1.0762   -5.6915 C   0  0  0  0  0  0  0  0  0  0  0  0
    4.3393   -0.2953   -5.5664 C   0  0  0  0  0  0  0  0  0  0  0  0
    4.4188   -0.8670   -4.3598 N   0  0  0  0  0  0  0  0  0  0  0  0
    4.0867   -1.0665   -6.6833 N   0  0  0  0  0  0  0  0  0  0  0  0
    6.9671   -4.1488   -0.1054 C   0  0  0  0  0  0  0  0  0  0  0  0
    4.8532   -7.9137   -2.0060 C   0  0  0  0  0  0  0  0  0  0  0  0
    2.9750   -7.2757   -0.0756 H   0  0  0  0  0  0  0  0  0  0  0  0
    3.8121   -8.7860    0.3567 H   0  0  0  0  0  0  0  0  0  0  0  0
    4.0895   -7.3099    1.3119 H   0  0  0  0  0  0  0  0  0  0  0  0
    6.2615   -9.9151    0.1077 H   0  0  0  0  0  0  0  0  0  0  0  0
    8.5220  -10.1448    1.0650 H   0  0  0  0  0  0  0  0  0  0  0  0
    9.8969   -8.1417    1.4600 H   0  0  0  0  0  0  0  0  0  0  0  0
    9.0274   -5.9141    0.9042 H   0  0  0  0  0  0  0  0  0  0  0  0
    3.3815   -5.3036   -1.6264 H   0  0  0  0  0  0  0  0  0  0  0  0
    3.5544   -2.7298   -2.6559 H   0  0  0  0  0  0  0  0  0  0  0  0
    5.2217   -2.9773   -2.9272 H   0  0  0  0  0  0  0  0  0  0  0  0
    4.4506    1.5525   -6.6589 H   0  0  0  0  0  0  0  0  0  0  0  0
    4.0298   -0.6501   -7.5574 H   0  0  0  0  0  0  0  0  0  0  0  0
    3.9661   -2.0248   -6.5938 H   0  0  0  0  0  0  0  0  0  0  0  0
    6.7290   -3.7374    0.8755 H   0  0  0  0  0  0  0  0  0  0  0  0
    8.0488   -4.1675   -0.2387 H   0  0  0  0  0  0  0  0  0  0  0  0
    6.5163   -3.5274   -0.8791 H   0  0  0  0  0  0  0  0  0  0  0  0
    5.7106   -7.6728   -2.6345 H   0  0  0  0  0  0  0  0  0  0  0  0
    4.7514   -8.9962   -1.9298 H   0  0  0  0  0  0  0  0  0  0  0  0
    3.9495   -7.4939   -2.4479 H   0  0  0  0  0  0  0  0  0  0  0  0
  1  2  1  0  0  0  0
  1 27  1  0  0  0  0
  1 28  1  0  0  0  0
  1 29  1  0  0  0  0
  2 10  1  0  0  0  0
  2  3  1  0  0  0  0
  2 26  1  0  0  0  0
  3  8  2  0  0  0  0
  3  4  1  0  0  0  0
  4  5  2  0  0  0  0
  4 30  1  0  0  0  0
  5  6  1  0  0  0  0
  5 31  1  0  0  0  0
  6  7  2  0  0  0  0
  6 32  1  0  0  0  0
  7  8  1  0  0  0  0
  7 33  1  0  0  0  0
  8  9  1  0  0  0  0
  9 10  1  0  0  0  0
  9 25  1  0  0  0  0
 10 11  2  0  0  0  0
 11 12  1  0  0  0  0
 11 34  1  0  0  0  0
 12 13  2  0  0  0  0
 12 14  1  0  0  0  0
 14 15  1  0  0  0  0
 14 35  1  0  0  0  0
 14 36  1  0  0  0  0
 15 16  1  0  0  0  0
 16 23  2  0  0  0  0
 16 17  1  0  0  0  0
 17 19  2  0  0  0  0
 18 20  1  0  0  0  0
 19 20  1  0  0  0  0
 19 21  1  0  0  0  0
 21 37  1  0  0  0  0
 21 22  2  0  0  0  0
 22 24  1  0  0  0  0
 22 23  1  0  0  0  0
 24 38  1  0  0  0  0
 24 39  1  0  0  0  0
 25 40  1  0  0  0  0
 25 41  1  0  0  0  0
 25 42  1  0  0  0  0
 26 43  1  0  0  0  0
 26 44  1  0  0  0  0
 26 45  1  0  0  0  0
M  END
$$$$
ZINC04468217
  -OEChem-08230709453D

 43 44  0     0  0  0  0  0  0999 V2000
    5.2234    7.5993    3.3221 C   0  0  0  0  0  0  0  0  0  0  0  0
    3.7507    7.9152    3.3701 C   0  0  0  0  0  0  0  0  0  0  0  0
    2.8129    7.0467    2.8295 C   0  0  0  0  0  0  0  0  0  0  0  0
    1.3016    7.9311    3.1868 S   0  0  0  0  0  0  0  0  0  0  0  0
    2.0209    9.3023    3.9725 C   0  0  0  0  0  0  0  0  0  0  0  0
    3.3139    9.0189    3.9192 N   0  0  0  0  0  0  0  0  0  0  0  0
    1.4020   10.4080    4.5154 N   0  0  0  0  0  0  0  0  0  0  0  0
    3.0071    5.7620    2.1596 C   0  0  0  0  0  0  0  0  0  0  0  0
    4.1212    5.2753    2.0869 O   0  0  0  0  0  0  0  0  0  0  0  0
    1.9532    5.1161    1.6222 N   0  0  0  0  0  0  0  0  0  0  0  0
    2.1525    3.9388    0.8894 N   0  0  0  0  0  0  0  0  0  0  0  0
    1.1544    3.3791    0.2764 C   0  0  0  0  0  0  0  0  0  0  0  0
   -0.1348    4.0852    0.1702 C   0  0  0  0  0  0  0  0  0  0  0  0
   -0.1740    5.4813    0.1831 C   0  0  0  0  0  0  0  0  0  0  0  0
   -1.3832    6.1359    0.0780 C   0  0  0  0  0  0  0  0  0  0  0  0
   -2.5602    5.4149   -0.0299 C   0  0  0  0  0  0  0  0  0  0  0  0
   -2.5352    4.0330   -0.0381 C   0  0  0  0  0  0  0  0  0  0  0  0
   -1.3289    3.3595    0.0613 C   0  0  0  0  0  0  0  0  0  0  0  0
   -1.3033    2.0016    0.0528 O   0  0  0  0  0  0  0  0  0  0  0  0
   -2.5450    1.3307   -0.1712 C   0  0  0  0  0  0  0  0  0  0  0  0
   -2.3392   -0.1798   -0.0414 C   0  0  0  0  0  0  0  0  0  0  0  0
   -3.6901   -0.8898   -0.1503 C   0  0  0  0  0  0  0  0  0  0  0  0
   -1.4155   -0.6667   -1.1597 C   0  0  0  0  0  0  0  0  0  0  0  0
    5.6526    8.0058    2.4064 H   0  0  0  0  0  0  0  0  0  0  0  0
    5.7189    8.0449    4.1847 H   0  0  0  0  0  0  0  0  0  0  0  0
    5.3639    6.5185    3.3406 H   0  0  0  0  0  0  0  0  0  0  0  0
    0.4358   10.4872    4.4841 H   0  0  0  0  0  0  0  0  0  0  0  0
    1.9328   11.1068    4.9287 H   0  0  0  0  0  0  0  0  0  0  0  0
    1.0564    5.4643    1.7463 H   0  0  0  0  0  0  0  0  0  0  0  0
    1.2689    2.3959   -0.1557 H   0  0  0  0  0  0  0  0  0  0  0  0
    0.7416    6.0473    0.2713 H   0  0  0  0  0  0  0  0  0  0  0  0
   -1.4126    7.2155    0.0843 H   0  0  0  0  0  0  0  0  0  0  0  0
   -3.5034    5.9353   -0.1076 H   0  0  0  0  0  0  0  0  0  0  0  0
   -3.4576    3.4776   -0.1219 H   0  0  0  0  0  0  0  0  0  0  0  0
   -3.2755    1.6627    0.5665 H   0  0  0  0  0  0  0  0  0  0  0  0
   -2.9081    1.5632   -1.1723 H   0  0  0  0  0  0  0  0  0  0  0  0
   -1.8882   -0.4032    0.9255 H   0  0  0  0  0  0  0  0  0  0  0  0
   -4.1007   -0.7383   -1.1486 H   0  0  0  0  0  0  0  0  0  0  0  0
   -3.5555   -1.9564    0.0293 H   0  0  0  0  0  0  0  0  0  0  0  0
   -4.3765   -0.4803    0.5909 H   0  0  0  0  0  0  0  0  0  0  0  0
   -1.8227   -0.3646   -2.1246 H   0  0  0  0  0  0  0  0  0  0  0  0
   -0.4257   -0.2290   -1.0298 H   0  0  0  0  0  0  0  0  0  0  0  0
   -1.3401   -1.7534   -1.1213 H   0  0  0  0  0  0  0  0  0  0  0  0
  1  2  1  0  0  0  0
  1 24  1  0  0  0  0
  1 25  1  0  0  0  0
  1 26  1  0  0  0  0
  2  6  1  0  0  0  0
  2  3  2  0  0  0  0
  3  4  1  0  0  0  0
  3  8  1  0  0  0  0
  4  5  1  0  0  0  0
  5  6  2  0  0  0  0
  5  7  1  0  0  0  0
  7 27  1  0  0  0  0
  7 28  1  0  0  0  0
  8  9  2  0  0  0  0
  8 10  1  0  0  0  0
 10 11  1  0  0  0  0
 10 29  1  0  0  0  0
 11 12  2  0  0  0  0
 12 13  1  0  0  0  0
 12 30  1  0  0  0  0
 13 18  2  0  0  0  0
 13 14  1  0  0  0  0
 14 15  2  0  0  0  0
 14 31  1  0  0  0  0
 15 16  1  0  0  0  0
 15 32  1  0  0  0  0
 16 17  2  0  0  0  0
 16 33  1  0  0  0  0
 17 18  1  0  0  0  0
 17 34  1  0  0  0  0
 18 19  1  0  0  0  0
 19 20  1  0  0  0  0
 20 21  1  0  0  0  0
 20 35  1  0  0  0  0
 20 36  1  0  0  0  0
 21 22  1  0  0  0  0
 21 23  1  0  0  0  0
 21 37  1  0  0  0  0
 22 38  1  0  0  0  0
 22 39  1  0  0  0  0
 22 40  1  0  0  0  0
 23 41  1  0  0  0  0
 23 42  1  0  0  0  0
 23 43  1  0  0  0  0
M  END
$$$$
ZINC04468250
  -OEChem-08230709453D

 43 45  0     0  0  0  0  0  0999 V2000
   -0.1390   12.3662    2.7527 C   0  0  0  0  0  0  0  0  0  0  0  0
    0.1704   12.3750    1.2543 C   0  0  0  0  0  0  0  0  0  0  0  0
    1.3125   11.4333    0.9717 C   0  0  0  0  0  0  0  0  0  0  0  0
    1.0835   10.0977    0.6726 C   0  0  0  0  0  0  0  0  0  0  0  0
    2.7589    9.5215    0.4382 S   0  0  0  0  0  0  0  0  0  0  0  0
    3.5633   11.0283    0.7503 C   0  0  0  0  0  0  0  0  0  0  0  0
    2.5529   11.8467    1.0037 N   0  0  0  0  0  0  0  0  0  0  0  0
    4.9139   11.3038    0.7372 N   0  0  0  0  0  0  0  0  0  0  0  0
   -0.1784    9.3665    0.5709 C   0  0  0  0  0  0  0  0  0  0  0  0
   -1.2365    9.9602    0.6779 O   0  0  0  0  0  0  0  0  0  0  0  0
   -0.1708    8.0356    0.3589 N   0  0  0  0  0  0  0  0  0  0  0  0
   -1.3766    7.3517    0.1562 N   0  0  0  0  0  0  0  0  0  0  0  0
   -1.3795    6.0559    0.0531 C   0  0  0  0  0  0  0  0  0  0  0  0
   -0.1169    5.3088    0.1420 C   0  0  0  0  0  0  0  0  0  0  0  0
    0.3005    4.4167   -0.9381 C   0  0  0  0  0  0  0  0  0  0  0  0
   -0.4823    4.2433   -2.0859 C   0  0  0  0  0  0  0  0  0  0  0  0
   -0.0542    3.4065   -3.0732 C   0  0  0  0  0  0  0  0  0  0  0  0
    1.1464    2.7113   -2.9507 C   0  0  0  0  0  0  0  0  0  0  0  0
    1.9317    2.8565   -1.8478 C   0  0  0  0  0  0  0  0  0  0  0  0
    1.5246    3.7158   -0.8129 C   0  0  0  0  0  0  0  0  0  0  0  0
    2.3087    3.8907    0.3410 C   0  0  0  0  0  0  0  0  0  0  0  0
    1.9057    4.7247    1.3359 C   0  0  0  0  0  0  0  0  0  0  0  0
    0.7092    5.4359    1.2584 C   0  0  0  0  0  0  0  0  0  0  0  0
    0.3455    6.2574    2.2766 O   0  0  0  0  0  0  0  0  0  0  0  0
    1.2840    6.4259    3.3410 C   0  0  0  0  0  0  0  0  0  0  0  0
   -0.4149   11.3577    3.0608 H   0  0  0  0  0  0  0  0  0  0  0  0
    0.7424   12.6874    3.3076 H   0  0  0  0  0  0  0  0  0  0  0  0
   -0.9652   13.0473    2.9571 H   0  0  0  0  0  0  0  0  0  0  0  0
    0.4462   13.3835    0.9462 H   0  0  0  0  0  0  0  0  0  0  0  0
   -0.7111   12.0538    0.6994 H   0  0  0  0  0  0  0  0  0  0  0  0
    5.5503   10.6008    0.5330 H   0  0  0  0  0  0  0  0  0  0  0  0
    5.2279   12.2007    0.9321 H   0  0  0  0  0  0  0  0  0  0  0  0
    0.6695    7.5511    0.3468 H   0  0  0  0  0  0  0  0  0  0  0  0
   -2.3097    5.5282   -0.0978 H   0  0  0  0  0  0  0  0  0  0  0  0
   -1.4175    4.7731   -2.1906 H   0  0  0  0  0  0  0  0  0  0  0  0
   -0.6564    3.2774   -3.9604 H   0  0  0  0  0  0  0  0  0  0  0  0
    1.4616    2.0503   -3.7445 H   0  0  0  0  0  0  0  0  0  0  0  0
    2.8625    2.3145   -1.7689 H   0  0  0  0  0  0  0  0  0  0  0  0
    3.2423    3.3565    0.4379 H   0  0  0  0  0  0  0  0  0  0  0  0
    2.5291    4.8392    2.2103 H   0  0  0  0  0  0  0  0  0  0  0  0
    1.5517    5.4504    3.7472 H   0  0  0  0  0  0  0  0  0  0  0  0
    2.1788    6.9195    2.9617 H   0  0  0  0  0  0  0  0  0  0  0  0
    0.8374    7.0362    4.1259 H   0  0  0  0  0  0  0  0  0  0  0  0
  1  2  1  0  0  0  0
  1 26  1  0  0  0  0
  1 27  1  0  0  0  0
  1 28  1  0  0  0  0
  2  3  1  0  0  0  0
  2 29  1  0  0  0  0
  2 30  1  0  0  0  0
  3  7  1  0  0  0  0
  3  4  2  0  0  0  0
  4  5  1  0  0  0  0
  4  9  1  0  0  0  0
  5  6  1  0  0  0  0
  6  7  2  0  0  0  0
  6  8  1  0  0  0  0
  8 31  1  0  0  0  0
  8 32  1  0  0  0  0
  9 10  2  0  0  0  0
  9 11  1  0  0  0  0
 11 12  1  0  0  0  0
 11 33  1  0  0  0  0
 12 13  2  0  0  0  0
 13 14  1  0  0  0  0
 13 34  1  0  0  0  0
 14 23  2  0  0  0  0
 14 15  1  0  0  0  0
 15 20  2  0  0  0  0
 15 16  1  0  0  0  0
 16 17  2  0  0  0  0
 16 35  1  0  0  0  0
 17 18  1  0  0  0  0
 17 36  1  0  0  0  0
 18 19  2  0  0  0  0
 18 37  1  0  0  0  0
 19 20  1  0  0  0  0
 19 38  1  0  0  0  0
 20 21  1  0  0  0  0
 21 22  2  0  0  0  0
 21 39  1  0  0  0  0
 22 23  1  0  0  0  0
 22 40  1  0  0  0  0
 23 24  1  0  0  0  0
 24 25  1  0  0  0  0
 25 41  1  0  0  0  0
 25 42  1  0  0  0  0
 25 43  1  0  0  0  0
M  END
$$$$
ZINC04468440
  -OEChem-08230709453D

 42 45  0     0  0  0  0  0  0999 V2000
    0.5215   -0.1496   -1.4764 C   0  0  0  0  0  0  0  0  0  0  0  0
   -0.4720    0.3470   -0.5774 O   0  0  0  0  0  0  0  0  0  0  0  0
   -0.2326    1.5540    0.0018 C   0  0  0  0  0  0  0  0  0  0  0  0
    0.9295    2.2401   -0.2898 C   0  0  0  0  0  0  0  0  0  0  0  0
    1.1750    3.4846    0.3076 C   0  0  0  0  0  0  0  0  0  0  0  0
    0.2382    4.0266    1.1989 C   0  0  0  0  0  0  0  0  0  0  0  0
   -0.9212    3.3334    1.4846 C   0  0  0  0  0  0  0  0  0  0  0  0
   -1.1634    2.0991    0.8843 C   0  0  0  0  0  0  0  0  0  0  0  0
   -2.3079    1.4228    1.1643 O   0  0  0  0  0  0  0  0  0  0  0  0
   -1.8305    3.8581    2.3490 O   0  0  0  0  0  0  0  0  0  0  0  0
   -1.5209    5.1293    2.9236 C   0  0  0  0  0  0  0  0  0  0  0  0
    2.4065    4.2160    0.0017 C   0  0  0  0  0  0  0  0  0  0  0  0
    2.3856    5.5892   -0.0951 C   0  0  0  0  0  0  0  0  0  0  0  0
    3.6380    6.3882   -0.2102 C   0  0  0  0  0  0  0  0  0  0  0  0
    4.7055    5.9621   -0.8303 N   0  0  0  0  0  0  0  0  0  0  0  0
    3.5610    7.6525    0.4117 N   0  0  0  0  0  0  0  0  0  0  0  0
    4.6566    8.3810    0.8228 C   0  0  0  0  0  0  0  0  0  0  0  0
    5.9978    7.9539    0.7636 C   0  0  0  0  0  0  0  0  0  0  0  0
    6.9716    8.8259    1.2093 C   0  0  0  0  0  0  0  0  0  0  0  0
    6.6882   10.0853    1.7021 C   0  0  0  0  0  0  0  0  0  0  0  0
    5.3744   10.5384    1.7766 C   0  0  0  0  0  0  0  0  0  0  0  0
    4.4038    9.6695    1.3389 C   0  0  0  0  0  0  0  0  0  0  0  0
    2.6427    9.8044    1.2726 S   0  0  0  0  0  0  0  0  0  0  0  0
    2.3057    8.1959    0.5986 C   0  0  0  0  0  0  0  0  0  0  0  0
    1.1504    7.6350    0.3394 N   0  0  0  0  0  0  0  0  0  0  0  0
    1.1149    6.3556   -0.0842 C   0  0  0  0  0  0  0  0  0  0  0  0
    0.0691    5.8429   -0.4473 O   0  0  0  0  0  0  0  0  0  0  0  0
    1.4676   -0.2614   -0.9467 H   0  0  0  0  0  0  0  0  0  0  0  0
    0.2071   -1.1175   -1.8668 H   0  0  0  0  0  0  0  0  0  0  0  0
    0.6478    0.5513   -2.3016 H   0  0  0  0  0  0  0  0  0  0  0  0
    1.6482    1.8190   -0.9772 H   0  0  0  0  0  0  0  0  0  0  0  0
    0.4234    4.9847    1.6616 H   0  0  0  0  0  0  0  0  0  0  0  0
   -2.2359    0.8237    1.9200 H   0  0  0  0  0  0  0  0  0  0  0  0
   -2.3269    5.4318    3.5922 H   0  0  0  0  0  0  0  0  0  0  0  0
   -0.5901    5.0568    3.4861 H   0  0  0  0  0  0  0  0  0  0  0  0
   -1.4097    5.8690    2.1308 H   0  0  0  0  0  0  0  0  0  0  0  0
    3.3310    3.6781   -0.1478 H   0  0  0  0  0  0  0  0  0  0  0  0
    4.7081    5.0851   -1.2447 H   0  0  0  0  0  0  0  0  0  0  0  0
    6.2560    6.9771    0.3819 H   0  0  0  0  0  0  0  0  0  0  0  0
    8.0032    8.5087    1.1706 H   0  0  0  0  0  0  0  0  0  0  0  0
    7.4939   10.7243    2.0322 H   0  0  0  0  0  0  0  0  0  0  0  0
    5.1310   11.5191    2.1579 H   0  0  0  0  0  0  0  0  0  0  0  0
  1  2  1  0  0  0  0
  1 28  1  0  0  0  0
  1 29  1  0  0  0  0
  1 30  1  0  0  0  0
  2  3  1  0  0  0  0
  3  8  2  0  0  0  0
  3  4  1  0  0  0  0
  4  5  2  0  0  0  0
  4 31  1  0  0  0  0
  5  6  1  0  0  0  0
  5 12  1  0  0  0  0
  6  7  2  0  0  0  0
  6 32  1  0  0  0  0
  7  8  1  0  0  0  0
  7 10  1  0  0  0  0
  8  9  1  0  0  0  0
  9 33  1  0  0  0  0
 10 11  1  0  0  0  0
 11 34  1  0  0  0  0
 11 35  1  0  0  0  0
 11 36  1  0  0  0  0
 12 13  2  0  0  0  0
 12 37  1  0  0  0  0
 13 26  1  0  0  0  0
 13 14  1  0  0  0  0
 14 15  2  0  0  0  0
 14 16  1  0  0  0  0
 15 38  1  0  0  0  0
 16 24  1  0  0  0  0
 16 17  1  0  0  0  0
 17 22  2  0  0  0  0
 17 18  1  0  0  0  0
 18 19  2  0  0  0  0
 18 39  1  0  0  0  0
 19 20  1  0  0  0  0
 19 40  1  0  0  0  0
 20 21  2  0  0  0  0
 20 41  1  0  0  0  0
 21 22  1  0  0  0  0
 21 42  1  0  0  0  0
 22 23  1  0  0  0  0
 23 24  1  0  0  0  0
 24 25  2  0  0  0  0
 25 26  1  0  0  0  0
 26 27  2  0  0  0  0
M  END
$$$$
ZINC04468463
  -OEChem-08230709453D

 41 44  0     0  0  0  0  0  0999 V2000
    6.7857   -2.1715   -1.3405 C   0  0  0  0  0  0  0  0  0  0  0  0
    6.3261   -0.7363   -1.3275 C   0  0  0  0  0  0  0  0  0  0  0  0
    5.0665   -0.4530   -0.8357 C   0  0  0  0  0  0  0  0  0  0  0  0
    4.6511    0.8928   -0.8303 C   0  0  0  0  0  0  0  0  0  0  0  0
    5.5517    1.8563   -1.3323 C   0  0  0  0  0  0  0  0  0  0  0  0
    6.8050    1.5732   -1.8190 C   0  0  0  0  0  0  0  0  0  0  0  0
    7.1839    0.2338   -1.8081 C   0  0  0  0  0  0  0  0  0  0  0  0
    8.5431   -0.1616   -2.3252 C   0  0  0  0  0  0  0  0  0  0  0  0
    4.6669    3.3773   -1.1655 S   0  0  0  0  0  0  0  0  0  0  0  0
    3.1732    2.7095   -0.4738 C   0  0  0  0  0  0  0  0  0  0  0  0
    2.0634    3.3292   -0.1553 N   0  0  0  0  0  0  0  0  0  0  0  0
    0.9930    2.6107    0.2315 C   0  0  0  0  0  0  0  0  0  0  0  0
   -0.0132    3.1613    0.6473 O   0  0  0  0  0  0  0  0  0  0  0  0
    1.0739    1.1316    0.1425 C   0  0  0  0  0  0  0  0  0  0  0  0
   -0.0506    0.3497    0.0029 C   0  0  0  0  0  0  0  0  0  0  0  0
   -1.3507    0.9752   -0.2502 C   0  0  0  0  0  0  0  0  0  0  0  0
   -1.4530    2.0461   -1.1495 C   0  0  0  0  0  0  0  0  0  0  0  0
   -2.6764    2.6311   -1.3851 C   0  0  0  0  0  0  0  0  0  0  0  0
   -3.8116    2.1633   -0.7346 C   0  0  0  0  0  0  0  0  0  0  0  0
   -3.7190    1.0979    0.1616 C   0  0  0  0  0  0  0  0  0  0  0  0
   -2.4982    0.5014    0.4017 C   0  0  0  0  0  0  0  0  0  0  0  0
   -4.8335    0.6439    0.7951 O   0  0  0  0  0  0  0  0  0  0  0  0
   -5.0153    2.7448   -0.9721 O   0  0  0  0  0  0  0  0  0  0  0  0
    2.4398    0.5398    0.2063 C   0  0  0  0  0  0  0  0  0  0  0  0
    2.6926   -0.6218    0.7469 N   0  0  0  0  0  0  0  0  0  0  0  0
    3.4359    1.3579   -0.3748 N   0  0  0  0  0  0  0  0  0  0  0  0
    7.3796   -2.3709   -0.4485 H   0  0  0  0  0  0  0  0  0  0  0  0
    5.9178   -2.8308   -1.3540 H   0  0  0  0  0  0  0  0  0  0  0  0
    7.3921   -2.3508   -2.2283 H   0  0  0  0  0  0  0  0  0  0  0  0
    4.4218   -1.2374   -0.4677 H   0  0  0  0  0  0  0  0  0  0  0  0
    7.4604    2.3476   -2.1894 H   0  0  0  0  0  0  0  0  0  0  0  0
    9.2409   -0.2382   -1.4913 H   0  0  0  0  0  0  0  0  0  0  0  0
    8.4735   -1.1249   -2.8304 H   0  0  0  0  0  0  0  0  0  0  0  0
    8.8980    0.5924   -3.0277 H   0  0  0  0  0  0  0  0  0  0  0  0
    0.0265   -0.7251    0.0755 H   0  0  0  0  0  0  0  0  0  0  0  0
   -0.5725    2.4119   -1.6566 H   0  0  0  0  0  0  0  0  0  0  0  0
   -2.7542    3.4559   -2.0780 H   0  0  0  0  0  0  0  0  0  0  0  0
   -2.4261   -0.3261    1.0921 H   0  0  0  0  0  0  0  0  0  0  0  0
   -5.2999   -0.0557    0.3175 H   0  0  0  0  0  0  0  0  0  0  0  0
   -5.5083    2.3447   -1.7015 H   0  0  0  0  0  0  0  0  0  0  0  0
    1.9721   -1.1443    1.1327 H   0  0  0  0  0  0  0  0  0  0  0  0
  1  2  1  0  0  0  0
  1 27  1  0  0  0  0
  1 28  1  0  0  0  0
  1 29  1  0  0  0  0
  2  7  2  0  0  0  0
  2  3  1  0  0  0  0
  3  4  2  0  0  0  0
  3 30  1  0  0  0  0
  4 26  1  0  0  0  0
  4  5  1  0  0  0  0
  5  6  2  0  0  0  0
  5  9  1  0  0  0  0
  6  7  1  0  0  0  0
  6 31  1  0  0  0  0
  7  8  1  0  0  0  0
  8 32  1  0  0  0  0
  8 33  1  0  0  0  0
  8 34  1  0  0  0  0
  9 10  1  0  0  0  0
 10 26  1  0  0  0  0
 10 11  2  0  0  0  0
 11 12  1  0  0  0  0
 12 13  2  0  0  0  0
 12 14  1  0  0  0  0
 14 15  2  0  0  0  0
 14 24  1  0  0  0  0
 15 16  1  0  0  0  0
 15 35  1  0  0  0  0
 16 21  2  0  0  0  0
 16 17  1  0  0  0  0
 17 18  2  0  0  0  0
 17 36  1  0  0  0  0
 18 19  1  0  0  0  0
 18 37  1  0  0  0  0
 19 20  2  0  0  0  0
 19 23  1  0  0  0  0
 20 21  1  0  0  0  0
 20 22  1  0  0  0  0
 21 38  1  0  0  0  0
 22 39  1  0  0  0  0
 23 40  1  0  0  0  0
 24 25  2  0  0  0  0
 24 26  1  0  0  0  0
 25 41  1  0  0  0  0
M  END
$$$$
ZINC04469593
  -OEChem-08230709453D

 48 50  0     0  0  0  0  0  0999 V2000
   -0.2829   -4.1106    2.3286 C   0  0  0  0  0  0  0  0  0  0  0  0
    0.2446   -2.5568    1.5554 S   0  0  0  0  0  0  0  0  0  0  0  0
   -1.2253   -1.9293    0.8135 C   0  0  0  0  0  0  0  0  0  0  0  0
   -2.4157   -2.6345    0.9223 C   0  0  0  0  0  0  0  0  0  0  0  0
   -3.5672   -2.1399    0.3399 C   0  0  0  0  0  0  0  0  0  0  0  0
   -3.5380   -0.9428   -0.3521 C   0  0  0  0  0  0  0  0  0  0  0  0
   -2.3579   -0.2310   -0.4610 C   0  0  0  0  0  0  0  0  0  0  0  0
   -1.1963   -0.7217    0.1154 C   0  0  0  0  0  0  0  0  0  0  0  0
    0.0021   -0.0041    0.0020 N   0  0  0  0  0  0  0  0  0  0  0  0
   -0.0166    1.3436    0.0051 C   0  0  0  0  0  0  0  0  0  0  0  0
   -1.0753    1.9354    0.0181 O   0  0  0  0  0  0  0  0  0  0  0  0
    1.2777    2.1151   -0.0138 C   0  0  0  0  0  0  0  0  0  0  0  0
    0.9901    3.5516   -0.0063 N   0  0  0  0  0  0  0  0  0  0  0  0
    0.8594    4.2908    1.1117 C   0  0  0  0  0  0  0  0  0  0  0  0
    0.9514    3.9057    2.2576 O   0  0  0  0  0  0  0  0  0  0  0  0
    0.5723    5.7065    0.6416 C   0  0  0  0  0  0  0  0  0  0  0  0
    1.7751    6.5915    1.0389 C   0  0  0  0  0  0  0  0  0  0  0  0
    1.8193    7.7858    0.1270 C   0  0  0  0  0  0  0  0  0  0  0  0
    1.0909    9.0102    0.7155 C   0  0  0  0  0  0  0  0  0  0  0  0
   -0.2402    8.6425    1.3979 C   0  0  0  0  0  0  0  0  0  0  0  0
   -1.0234    7.6251    0.6126 C   0  0  0  0  0  0  0  0  0  0  0  0
   -0.6879    6.2242    1.1589 C   0  0  0  0  0  0  0  0  0  0  0  0
    0.5720    5.5805   -0.8302 N   0  0  0  0  0  0  0  0  0  0  0  0
    0.8308    4.2914   -1.1089 C   0  0  0  0  0  0  0  0  0  0  0  0
    0.9079    3.8468   -2.2374 O   0  0  0  0  0  0  0  0  0  0  0  0
    0.5695   -4.5795    2.8202 H   0  0  0  0  0  0  0  0  0  0  0  0
   -1.0592   -3.9045    3.0655 H   0  0  0  0  0  0  0  0  0  0  0  0
   -0.6760   -4.7815    1.5647 H   0  0  0  0  0  0  0  0  0  0  0  0
   -2.4421   -3.5695    1.4622 H   0  0  0  0  0  0  0  0  0  0  0  0
   -4.4928   -2.6897    0.4257 H   0  0  0  0  0  0  0  0  0  0  0  0
   -4.4408   -0.5609   -0.8053 H   0  0  0  0  0  0  0  0  0  0  0  0
   -2.3399    0.7057   -0.9984 H   0  0  0  0  0  0  0  0  0  0  0  0
    0.8450   -0.4772   -0.0787 H   0  0  0  0  0  0  0  0  0  0  0  0
    1.8670    1.8579    0.8664 H   0  0  0  0  0  0  0  0  0  0  0  0
    1.8387    1.8616   -0.9134 H   0  0  0  0  0  0  0  0  0  0  0  0
    1.6594    6.9236    2.0706 H   0  0  0  0  0  0  0  0  0  0  0  0
    2.6981    6.0205    0.9380 H   0  0  0  0  0  0  0  0  0  0  0  0
    1.3530    7.5215   -0.8221 H   0  0  0  0  0  0  0  0  0  0  0  0
    2.8607    8.0503   -0.0564 H   0  0  0  0  0  0  0  0  0  0  0  0
    0.8901    9.7193   -0.0876 H   0  0  0  0  0  0  0  0  0  0  0  0
    1.7422    9.4858    1.4488 H   0  0  0  0  0  0  0  0  0  0  0  0
   -0.8423    9.5445    1.5069 H   0  0  0  0  0  0  0  0  0  0  0  0
   -0.0283    8.2380    2.3877 H   0  0  0  0  0  0  0  0  0  0  0  0
   -0.7475    7.6835   -0.4403 H   0  0  0  0  0  0  0  0  0  0  0  0
   -2.0910    7.8153    0.7227 H   0  0  0  0  0  0  0  0  0  0  0  0
   -1.4894    5.5382    0.8848 H   0  0  0  0  0  0  0  0  0  0  0  0
   -0.6270    6.2773    2.2460 H   0  0  0  0  0  0  0  0  0  0  0  0
    0.4185    6.2916   -1.4717 H   0  0  0  0  0  0  0  0  0  0  0  0
  1  2  1  0  0  0  0
  1 26  1  0  0  0  0
  1 27  1  0  0  0  0
  1 28  1  0  0  0  0
  2  3  1  0  0  0  0
  3  8  2  0  0  0  0
  3  4  1  0  0  0  0
  4  5  2  0  0  0  0
  4 29  1  0  0  0  0
  5  6  1  0  0  0  0
  5 30  1  0  0  0  0
  6  7  2  0  0  0  0
  6 31  1  0  0  0  0
  7  8  1  0  0  0  0
  7 32  1  0  0  0  0
  8  9  1  0  0  0  0
  9 10  1  0  0  0  0
  9 33  1  0  0  0  0
 10 11  2  0  0  0  0
 10 12  1  0  0  0  0
 12 13  1  0  0  0  0
 12 34  1  0  0  0  0
 12 35  1  0  0  0  0
 13 24  1  0  0  0  0
 13 14  1  0  0  0  0
 14 15  2  0  0  0  0
 14 16  1  0  0  0  0
 16 22  1  0  0  0  0
 16 17  1  0  0  0  0
 16 23  1  0  0  0  0
 17 18  1  0  0  0  0
 17 36  1  0  0  0  0
 17 37  1  0  0  0  0
 18 19  1  0  0  0  0
 18 38  1  0  0  0  0
 18 39  1  0  0  0  0
 19 20  1  0  0  0  0
 19 40  1  0  0  0  0
 19 41  1  0  0  0  0
 20 21  1  0  0  0  0
 20 42  1  0  0  0  0
 20 43  1  0  0  0  0
 21 22  1  0  0  0  0
 21 44  1  0  0  0  0
 21 45  1  0  0  0  0
 22 46  1  0  0  0  0
 22 47  1  0  0  0  0
 23 24  1  0  0  0  0
 23 48  1  0  0  0  0
 24 25  2  0  0  0  0
M  END
$$$$
ZINC04469720
  -OEChem-08230709453D

 41 43  0     0  0  0  0  0  0999 V2000
   -2.2964   -5.2002   -1.8654 C   0  0  0  0  0  0  0  0  0  0  0  0
   -3.1055   -4.2305   -1.1229 N   0  0  0  0  0  0  0  0  0  0  0  0
   -4.4304   -4.3661   -0.7735 C   0  0  0  0  0  0  0  0  0  0  0  0
   -4.7755   -3.2524   -0.1054 C   0  0  0  0  0  0  0  0  0  0  0  0
   -3.6995   -2.4507   -0.0353 N   0  0  0  0  0  0  0  0  0  0  0  0
   -2.6903   -3.0244   -0.6481 C   0  0  0  0  0  0  0  0  0  0  0  0
   -1.0712   -2.3508   -0.8201 S   0  0  0  0  0  0  0  0  0  0  0  0
   -1.2933   -0.7746    0.0414 C   0  0  0  0  0  0  0  0  0  0  0  0
    0.0015   -0.0038    0.0204 C   0  0  0  0  0  0  0  0  0  0  0  0
   -0.0166    1.3487    0.0244 N   0  0  0  0  0  0  0  0  0  0  0  0
   -0.8594    1.8286    0.0364 H   0  0  0  0  0  0  0  0  0  0  0  0
    1.1797    2.0372    0.0054 C   0  0  0  0  0  0  0  0  0  0  0  0
    1.1918    3.3601    0.0083 N   0  0  0  0  0  0  0  0  0  0  0  0
    0.0165    4.0553   -0.0805 C   0  0  0  0  0  0  0  0  0  0  0  0
   -0.5420    4.3306   -1.3309 C   0  0  0  0  0  0  0  0  0  0  0  0
   -1.7302    5.0263   -1.4149 C   0  0  0  0  0  0  0  0  0  0  0  0
   -2.3644    5.4629   -0.2603 C   0  0  0  0  0  0  0  0  0  0  0  0
   -1.8103    5.1972    0.9840 C   0  0  0  0  0  0  0  0  0  0  0  0
   -0.6257    4.4968    1.0787 C   0  0  0  0  0  0  0  0  0  0  0  0
   -3.5331    6.1530   -0.3485 O   0  0  0  0  0  0  0  0  0  0  0  0
   -4.0480    6.3920   -1.6599 C   0  0  0  0  0  0  0  0  0  0  0  0
    2.3302    1.3468   -0.0170 N   0  0  0  0  0  0  0  0  0  0  0  0
    2.3063    0.0243   -0.0197 C   0  0  0  0  0  0  0  0  0  0  0  0
    1.1429   -0.6430   -0.0012 N   0  0  0  0  0  0  0  0  0  0  0  0
    3.4889   -0.6751   -0.0422 N   0  0  0  0  0  0  0  0  0  0  0  0
   -1.8168   -5.8847   -1.1657 H   0  0  0  0  0  0  0  0  0  0  0  0
   -2.9367   -5.7639   -2.5439 H   0  0  0  0  0  0  0  0  0  0  0  0
   -1.5337   -4.6735   -2.4390 H   0  0  0  0  0  0  0  0  0  0  0  0
   -5.0705   -5.2074   -0.9946 H   0  0  0  0  0  0  0  0  0  0  0  0
   -5.7501   -3.0400    0.3088 H   0  0  0  0  0  0  0  0  0  0  0  0
   -1.5872   -0.9632    1.0740 H   0  0  0  0  0  0  0  0  0  0  0  0
   -2.0697   -0.1943   -0.4571 H   0  0  0  0  0  0  0  0  0  0  0  0
   -0.0467    3.9954   -2.2302 H   0  0  0  0  0  0  0  0  0  0  0  0
   -2.1654    5.2352   -2.3810 H   0  0  0  0  0  0  0  0  0  0  0  0
   -2.3076    5.5390    1.8797 H   0  0  0  0  0  0  0  0  0  0  0  0
   -0.1957    4.2899    2.0475 H   0  0  0  0  0  0  0  0  0  0  0  0
   -4.9813    6.9505   -1.5876 H   0  0  0  0  0  0  0  0  0  0  0  0
   -3.3235    6.9682   -2.2353 H   0  0  0  0  0  0  0  0  0  0  0  0
   -4.2321    5.4396   -2.1571 H   0  0  0  0  0  0  0  0  0  0  0  0
    3.4787   -1.6450   -0.0446 H   0  0  0  0  0  0  0  0  0  0  0  0
    4.3338   -0.1989   -0.0556 H   0  0  0  0  0  0  0  0  0  0  0  0
  1  2  1  0  0  0  0
  1 26  1  0  0  0  0
  1 27  1  0  0  0  0
  1 28  1  0  0  0  0
  2  6  1  0  0  0  0
  2  3  1  0  0  0  0
  3  4  2  0  0  0  0
  3 29  1  0  0  0  0
  4  5  1  0  0  0  0
  4 30  1  0  0  0  0
  5  6  2  0  0  0  0
  6  7  1  0  0  0  0
  7  8  1  0  0  0  0
  8  9  1  0  0  0  0
  8 31  1  0  0  0  0
  8 32  1  0  0  0  0
  9 24  2  0  0  0  0
  9 10  1  0  0  0  0
 10 11  1  0  0  0  0
 10 12  1  0  0  0  0
 12 13  2  0  0  0  0
 12 22  1  0  0  0  0
 13 14  1  0  0  0  0
 14 19  2  0  0  0  0
 14 15  1  0  0  0  0
 15 16  2  0  0  0  0
 15 33  1  0  0  0  0
 16 17  1  0  0  0  0
 16 34  1  0  0  0  0
 17 18  2  0  0  0  0
 17 20  1  0  0  0  0
 18 19  1  0  0  0  0
 18 35  1  0  0  0  0
 19 36  1  0  0  0  0
 20 21  1  0  0  0  0
 21 37  1  0  0  0  0
 21 38  1  0  0  0  0
 21 39  1  0  0  0  0
 22 23  2  0  0  0  0
 23 24  1  0  0  0  0
 23 25  1  0  0  0  0
 25 40  1  0  0  0  0
 25 41  1  0  0  0  0
M  END
$$$$
ZINC04469812
  -OEChem-08230709453D

 41 42  0     0  0  0  0  0  0999 V2000
    1.5166    4.2912    0.5483 C   0  0  0  0  0  0  0  0  0  0  0  0
    1.5850    2.9743    1.3242 C   0  0  0  0  0  0  0  0  0  0  0  0
    0.3742    2.7921    2.0609 O   0  0  0  0  0  0  0  0  0  0  0  0
    0.2718    1.6642    2.8085 C   0  0  0  0  0  0  0  0  0  0  0  0
    1.3105    0.7469    2.8306 C   0  0  0  0  0  0  0  0  0  0  0  0
    1.2081   -0.3979    3.5966 C   0  0  0  0  0  0  0  0  0  0  0  0
    0.0637   -0.6460    4.3390 C   0  0  0  0  0  0  0  0  0  0  0  0
   -0.9822    0.2516    4.3254 C   0  0  0  0  0  0  0  0  0  0  0  0
   -0.8892    1.4185    3.5586 C   0  0  0  0  0  0  0  0  0  0  0  0
   -1.9999    2.3801    3.5382 C   0  0  0  0  0  0  0  0  0  0  0  0
   -2.6079    2.7339    4.6909 C   0  0  0  0  0  0  0  0  0  0  0  0
   -2.0338    2.3313    5.9736 C   0  0  0  0  0  0  0  0  0  0  0  0
   -0.9503    1.7775    6.0085 O   0  0  0  0  0  0  0  0  0  0  0  0
   -2.7041    2.5732    7.1176 N   0  0  0  0  0  0  0  0  0  0  0  0
   -2.2036    2.1051    8.3304 C   0  0  0  0  0  0  0  0  0  0  0  0
   -3.0785    1.6633    9.3184 C   0  0  0  0  0  0  0  0  0  0  0  0
   -2.5869    1.1949   10.5158 C   0  0  0  0  0  0  0  0  0  0  0  0
   -1.2080    1.1736   10.7429 C   0  0  0  0  0  0  0  0  0  0  0  0
   -0.3323    1.6233    9.7508 C   0  0  0  0  0  0  0  0  0  0  0  0
   -0.8301    2.0856    8.5536 C   0  0  0  0  0  0  0  0  0  0  0  0
   -0.6777    0.6768   12.0275 C   0  0  0  0  0  0  0  0  0  0  0  0
    0.5221    0.6584   12.2235 O   0  0  0  0  0  0  0  0  0  0  0  0
   -1.5234    0.2434   12.9832 N   0  0  0  0  0  0  0  0  0  0  0  0
   -0.0625   -2.2226    5.3754 Br  0  0  0  0  0  0  0  0  0  0  0  0
    2.4402    4.4302   -0.0136 H   0  0  0  0  0  0  0  0  0  0  0  0
    0.6727    4.2634   -0.1410 H   0  0  0  0  0  0  0  0  0  0  0  0
    1.3882    5.1182    1.2467 H   0  0  0  0  0  0  0  0  0  0  0  0
    1.7134    2.1474    0.6258 H   0  0  0  0  0  0  0  0  0  0  0  0
    2.4290    3.0022    2.0135 H   0  0  0  0  0  0  0  0  0  0  0  0
    2.2035    0.9297    2.2512 H   0  0  0  0  0  0  0  0  0  0  0  0
    2.0228   -1.1067    3.6137 H   0  0  0  0  0  0  0  0  0  0  0  0
   -1.8715    0.0549    4.9056 H   0  0  0  0  0  0  0  0  0  0  0  0
   -2.3300    2.8041    2.6014 H   0  0  0  0  0  0  0  0  0  0  0  0
   -3.5184    3.3143    4.6652 H   0  0  0  0  0  0  0  0  0  0  0  0
   -3.5350    3.0732    7.0964 H   0  0  0  0  0  0  0  0  0  0  0  0
   -4.1441    1.6842    9.1440 H   0  0  0  0  0  0  0  0  0  0  0  0
   -3.2661    0.8477   11.2804 H   0  0  0  0  0  0  0  0  0  0  0  0
    0.7337    1.6077    9.9231 H   0  0  0  0  0  0  0  0  0  0  0  0
   -0.1539    2.4332    7.7865 H   0  0  0  0  0  0  0  0  0  0  0  0
   -2.4806    0.2581   12.8268 H   0  0  0  0  0  0  0  0  0  0  0  0
   -1.1749   -0.0831   13.8275 H   0  0  0  0  0  0  0  0  0  0  0  0
  1  2  1  0  0  0  0
  1 25  1  0  0  0  0
  1 26  1  0  0  0  0
  1 27  1  0  0  0  0
  2  3  1  0  0  0  0
  2 28  1  0  0  0  0
  2 29  1  0  0  0  0
  3  4  1  0  0  0  0
  4  9  2  0  0  0  0
  4  5  1  0  0  0  0
  5  6  2  0  0  0  0
  5 30  1  0  0  0  0
  6  7  1  0  0  0  0
  6 31  1  0  0  0  0
  7  8  2  0  0  0  0
  7 24  1  0  0  0  0
  8  9  1  0  0  0  0
  8 32  1  0  0  0  0
  9 10  1  0  0  0  0
 10 11  2  0  0  0  0
 10 33  1  0  0  0  0
 11 12  1  0  0  0  0
 11 34  1  0  0  0  0
 12 13  2  0  0  0  0
 12 14  1  0  0  0  0
 14 15  1  0  0  0  0
 14 35  1  0  0  0  0
 15 20  2  0  0  0  0
 15 16  1  0  0  0  0
 16 17  2  0  0  0  0
 16 36  1  0  0  0  0
 17 18  1  0  0  0  0
 17 37  1  0  0  0  0
 18 19  2  0  0  0  0
 18 21  1  0  0  0  0
 19 20  1  0  0  0  0
 19 38  1  0  0  0  0
 20 39  1  0  0  0  0
 21 22  2  0  0  0  0
 21 23  1  0  0  0  0
 23 40  1  0  0  0  0
 23 41  1  0  0  0  0
M  END
$$$$
ZINC04470083
  -OEChem-08230709453D

 42 43  0     0  0  0  0  0  0999 V2000
    4.9225   -0.3085   -1.7749 C   0  0  0  0  0  0  0  0  0  0  0  0
    6.1441   -0.8620   -1.2815 O   0  0  0  0  0  0  0  0  0  0  0  0
    6.0939   -2.1291   -0.7902 C   0  0  0  0  0  0  0  0  0  0  0  0
    4.8993   -2.8223   -0.7896 C   0  0  0  0  0  0  0  0  0  0  0  0
    4.8500   -4.1245   -0.2789 C   0  0  0  0  0  0  0  0  0  0  0  0
    6.0142   -4.7214    0.2184 C   0  0  0  0  0  0  0  0  0  0  0  0
    7.2031   -4.0245    0.2091 C   0  0  0  0  0  0  0  0  0  0  0  0
    7.2494   -2.7298   -0.2929 C   0  0  0  0  0  0  0  0  0  0  0  0
    8.4240   -2.0476   -0.2996 O   0  0  0  0  0  0  0  0  0  0  0  0
    9.2449   -2.1804   -1.4617 C   0  0  0  0  0  0  0  0  0  0  0  0
    8.7751   -4.8321    0.8819 Br  0  0  0  0  0  0  0  0  0  0  0  0
    3.5804   -4.8652   -0.2703 C   0  0  0  0  0  0  0  0  0  0  0  0
    2.4379   -4.2423    0.0896 C   0  0  0  0  0  0  0  0  0  0  0  0
    2.4927   -2.9414    0.7544 C   0  0  0  0  0  0  0  0  0  0  0  0
    3.5644   -2.4794    1.1004 O   0  0  0  0  0  0  0  0  0  0  0  0
    1.3566   -2.2536    0.9841 N   0  0  0  0  0  0  0  0  0  0  0  0
    1.4159   -0.9721    1.5272 C   0  0  0  0  0  0  0  0  0  0  0  0
    0.5011   -0.0040    1.1238 C   0  0  0  0  0  0  0  0  0  0  0  0
    0.5571    1.2631    1.6586 C   0  0  0  0  0  0  0  0  0  0  0  0
    1.5338    1.5770    2.6077 C   0  0  0  0  0  0  0  0  0  0  0  0
    2.4510    0.6024    3.0107 C   0  0  0  0  0  0  0  0  0  0  0  0
    2.3900   -0.6627    2.4717 C   0  0  0  0  0  0  0  0  0  0  0  0
    1.5970    2.9347    3.1827 C   0  0  0  0  0  0  0  0  0  0  0  0
    0.7987    3.7816    2.8309 O   0  0  0  0  0  0  0  0  0  0  0  0
    2.5395    3.2358    4.0978 N   0  0  0  0  0  0  0  0  0  0  0  0
    5.1021    0.7040   -2.1362 H   0  0  0  0  0  0  0  0  0  0  0  0
    4.5484   -0.9249   -2.5923 H   0  0  0  0  0  0  0  0  0  0  0  0
    4.1852   -0.2826   -0.9725 H   0  0  0  0  0  0  0  0  0  0  0  0
    4.0045   -2.3591   -1.1785 H   0  0  0  0  0  0  0  0  0  0  0  0
    5.9807   -5.7276    0.6095 H   0  0  0  0  0  0  0  0  0  0  0  0
    9.5137   -3.2278   -1.5988 H   0  0  0  0  0  0  0  0  0  0  0  0
    8.6969   -1.8286   -2.3358 H   0  0  0  0  0  0  0  0  0  0  0  0
   10.1501   -1.5863   -1.3370 H   0  0  0  0  0  0  0  0  0  0  0  0
    3.5615   -5.9076   -0.5520 H   0  0  0  0  0  0  0  0  0  0  0  0
    1.4834   -4.7051   -0.1135 H   0  0  0  0  0  0  0  0  0  0  0  0
    0.4977   -2.6509    0.7713 H   0  0  0  0  0  0  0  0  0  0  0  0
   -0.2536   -0.2473    0.3907 H   0  0  0  0  0  0  0  0  0  0  0  0
   -0.1503    2.0153    1.3418 H   0  0  0  0  0  0  0  0  0  0  0  0
    3.2068    0.8417    3.7441 H   0  0  0  0  0  0  0  0  0  0  0  0
    3.0987   -1.4161    2.7825 H   0  0  0  0  0  0  0  0  0  0  0  0
    3.1764    2.5601    4.3785 H   0  0  0  0  0  0  0  0  0  0  0  0
    2.5810    4.1282    4.4758 H   0  0  0  0  0  0  0  0  0  0  0  0
  1  2  1  0  0  0  0
  1 26  1  0  0  0  0
  1 27  1  0  0  0  0
  1 28  1  0  0  0  0
  2  3  1  0  0  0  0
  3  8  2  0  0  0  0
  3  4  1  0  0  0  0
  4  5  2  0  0  0  0
  4 29  1  0  0  0  0
  5  6  1  0  0  0  0
  5 12  1  0  0  0  0
  6  7  2  0  0  0  0
  6 30  1  0  0  0  0
  7  8  1  0  0  0  0
  7 11  1  0  0  0  0
  8  9  1  0  0  0  0
  9 10  1  0  0  0  0
 10 31  1  0  0  0  0
 10 32  1  0  0  0  0
 10 33  1  0  0  0  0
 12 13  2  0  0  0  0
 12 34  1  0  0  0  0
 13 14  1  0  0  0  0
 13 35  1  0  0  0  0
 14 15  2  0  0  0  0
 14 16  1  0  0  0  0
 16 17  1  0  0  0  0
 16 36  1  0  0  0  0
 17 22  2  0  0  0  0
 17 18  1  0  0  0  0
 18 19  2  0  0  0  0
 18 37  1  0  0  0  0
 19 20  1  0  0  0  0
 19 38  1  0  0  0  0
 20 21  2  0  0  0  0
 20 23  1  0  0  0  0
 21 22  1  0  0  0  0
 21 39  1  0  0  0  0
 22 40  1  0  0  0  0
 23 24  2  0  0  0  0
 23 25  1  0  0  0  0
 25 41  1  0  0  0  0
 25 42  1  0  0  0  0
M  END
$$$$
ZINC04470216
  -OEChem-08230709453D

 43 44  0     1  0  0  0  0  0999 V2000
  -12.1642    2.2686    3.8792 C   0  0  0  0  0  0  0  0  0  0  0  0
  -10.8852    2.5257    3.1247 C   0  0  0  0  0  0  0  0  0  0  0  0
  -10.6905    3.7378    2.4883 C   0  0  0  0  0  0  0  0  0  0  0  0
   -9.5183    3.9776    1.7949 C   0  0  0  0  0  0  0  0  0  0  0  0
   -8.5378    3.0067    1.7367 C   0  0  0  0  0  0  0  0  0  0  0  0
   -8.7301    1.7885    2.3751 C   0  0  0  0  0  0  0  0  0  0  0  0
   -9.9109    1.5486    3.0654 C   0  0  0  0  0  0  0  0  0  0  0  0
   -7.7386    0.8029    2.3180 N   0  0  0  0  0  0  0  0  0  0  0  0
   -6.9709    0.6822    1.2169 C   0  0  0  0  0  0  0  0  0  0  0  0
   -7.2010    1.3627    0.2396 O   0  0  0  0  0  0  0  0  0  0  0  0
   -5.8265   -0.2982    1.1999 C   0  0  0  0  0  0  0  0  0  0  0  0
   -5.1229   -0.2373   -0.1573 C   0  0  2  0  0  0  0  0  0  0  0  0
   -5.8141   -0.4607   -0.9700 H   0  0  0  0  0  0  0  0  0  0  0  0
   -3.9070   -1.1534   -0.1951 C   0  0  0  0  0  0  0  0  0  0  0  0
   -2.7804   -0.5858   -0.3787 N   0  0  0  0  0  0  0  0  0  0  0  0
   -2.6197    0.7607   -0.5262 C   0  0  0  0  0  0  0  0  0  0  0  0
   -1.5138    1.4298   -0.7126 N   0  0  0  0  0  0  0  0  0  0  0  0
   -0.2883    0.7540   -0.7756 N   0  0  0  0  0  0  0  0  0  0  0  0
    0.8837    1.4629   -0.9789 C   0  0  0  0  0  0  0  0  0  0  0  0
    0.8467    2.7787   -1.1083 C   0  0  0  0  0  0  0  0  0  0  0  0
    2.2013    0.7352   -1.0529 C   0  0  0  0  0  0  0  0  0  0  0  0
   -4.2910    1.3873   -0.4104 S   0  0  0  0  0  0  0  0  0  0  0  0
   -4.0164   -2.4893   -0.0486 O   0  0  0  0  0  0  0  0  0  0  0  0
   -9.3105    5.2999    1.1024 C   0  0  0  0  0  0  0  0  0  0  0  0
  -12.9000    1.8270    3.2072 H   0  0  0  0  0  0  0  0  0  0  0  0
  -11.9680    1.5835    4.7039 H   0  0  0  0  0  0  0  0  0  0  0  0
  -12.5495    3.2094    4.2723 H   0  0  0  0  0  0  0  0  0  0  0  0
  -11.4556    4.4988    2.5327 H   0  0  0  0  0  0  0  0  0  0  0  0
   -7.6225    3.1946    1.1950 H   0  0  0  0  0  0  0  0  0  0  0  0
  -10.0655    0.6004    3.5588 H   0  0  0  0  0  0  0  0  0  0  0  0
   -7.6038    0.2064    3.0710 H   0  0  0  0  0  0  0  0  0  0  0  0
   -6.2085   -1.3054    1.3663 H   0  0  0  0  0  0  0  0  0  0  0  0
   -5.1181   -0.0434    1.9882 H   0  0  0  0  0  0  0  0  0  0  0  0
   -0.2611   -0.2110   -0.6808 H   0  0  0  0  0  0  0  0  0  0  0  0
    1.7607    3.3317   -1.2669 H   0  0  0  0  0  0  0  0  0  0  0  0
   -0.0976    3.3002   -1.0553 H   0  0  0  0  0  0  0  0  0  0  0  0
    2.0334   -0.3342   -0.9256 H   0  0  0  0  0  0  0  0  0  0  0  0
    2.6630    0.9175   -2.0233 H   0  0  0  0  0  0  0  0  0  0  0  0
    2.8604    1.0960   -0.2633 H   0  0  0  0  0  0  0  0  0  0  0  0
   -3.1981   -3.0033   -0.0844 H   0  0  0  0  0  0  0  0  0  0  0  0
   -9.6874    5.2386    0.0815 H   0  0  0  0  0  0  0  0  0  0  0  0
   -9.8470    6.0806    1.6416 H   0  0  0  0  0  0  0  0  0  0  0  0
   -8.2467    5.5367    1.0834 H   0  0  0  0  0  0  0  0  0  0  0  0
  1  2  1  0  0  0  0
  1 25  1  0  0  0  0
  1 26  1  0  0  0  0
  1 27  1  0  0  0  0
  2  7  2  0  0  0  0
  2  3  1  0  0  0  0
  3  4  2  0  0  0  0
  3 28  1  0  0  0  0
  4  5  1  0  0  0  0
  4 24  1  0  0  0  0
  5  6  2  0  0  0  0
  5 29  1  0  0  0  0
  6  7  1  0  0  0  0
  6  8  1  0  0  0  0
  7 30  1  0  0  0  0
  8  9  1  0  0  0  0
  8 31  1  0  0  0  0
  9 10  2  0  0  0  0
  9 11  1  0  0  0  0
 11 12  1  0  0  0  0
 11 32  1  0  0  0  0
 11 33  1  0  0  0  0
 12 13  1  0  0  0  0
 12 22  1  0  0  0  0
 12 14  1  0  0  0  0
 14 15  2  0  0  0  0
 14 23  1  0  0  0  0
 15 16  1  0  0  0  0
 16 17  2  0  0  0  0
 16 22  1  0  0  0  0
 17 18  1  0  0  0  0
 18 19  1  0  0  0  0
 18 34  1  0  0  0  0
 19 20  2  0  0  0  0
 19 21  1  0  0  0  0
 20 35  1  0  0  0  0
 20 36  1  0  0  0  0
 21 37  1  0  0  0  0
 21 38  1  0  0  0  0
 21 39  1  0  0  0  0
 23 40  1  0  0  0  0
 24 41  1  0  0  0  0
 24 42  1  0  0  0  0
 24 43  1  0  0  0  0
M  END
$$$$
ZINC04470435
  -OEChem-08230709453D

 42 45  0     0  0  0  0  0  0999 V2000
   -0.5430   -0.2916    1.4404 C   0  0  0  0  0  0  0  0  0  0  0  0
    0.2757    0.3358    0.3417 C   0  0  0  0  0  0  0  0  0  0  0  0
   -0.1231    1.4043   -0.4385 C   0  0  0  0  0  0  0  0  0  0  0  0
    0.9912    1.6708   -1.3700 C   0  0  0  0  0  0  0  0  0  0  0  0
    1.2004    2.5993   -2.3854 C   0  0  0  0  0  0  0  0  0  0  0  0
    2.3847    2.5845   -3.0902 C   0  0  0  0  0  0  0  0  0  0  0  0
    3.3649    1.6499   -2.7904 C   0  0  0  0  0  0  0  0  0  0  0  0
    3.1704    0.7256   -1.7872 C   0  0  0  0  0  0  0  0  0  0  0  0
    1.9811    0.7241   -1.0651 C   0  0  0  0  0  0  0  0  0  0  0  0
    1.5094   -0.0583   -0.0301 N   0  0  0  0  0  0  0  0  0  0  0  0
    1.9990   -0.7918    0.3740 H   0  0  0  0  0  0  0  0  0  0  0  0
   -1.3481    2.1047   -0.3572 C   0  0  0  0  0  0  0  0  0  0  0  0
   -1.3569    3.4872   -0.3814 C   0  0  0  0  0  0  0  0  0  0  0  0
   -2.6248    4.2570   -0.4814 C   0  0  0  0  0  0  0  0  0  0  0  0
   -3.7611    3.8248   -0.0002 N   0  0  0  0  0  0  0  0  0  0  0  0
   -2.4947    5.4948   -1.1360 N   0  0  0  0  0  0  0  0  0  0  0  0
   -3.5449    6.2070   -1.6818 N   0  0  0  0  0  0  0  0  0  0  0  0
   -4.4406    5.8349   -1.6952 H   0  0  0  0  0  0  0  0  0  0  0  0
   -3.2920    7.4726   -2.2140 C   0  0  0  0  0  0  0  0  0  0  0  0
   -4.1457    8.3423   -2.7472 C   0  0  0  0  0  0  0  0  0  0  0  0
   -3.6469    9.6662   -3.2663 C   0  0  0  0  0  0  0  0  0  0  0  0
   -5.6117    8.0036   -2.8324 C   0  0  0  0  0  0  0  0  0  0  0  0
   -1.5253    7.6218   -1.9946 S   0  0  0  0  0  0  0  0  0  0  0  0
   -1.2326    6.0462   -1.2353 C   0  0  0  0  0  0  0  0  0  0  0  0
   -0.1052    5.5187   -0.8360 N   0  0  0  0  0  0  0  0  0  0  0  0
   -0.1044    4.2725   -0.3154 C   0  0  0  0  0  0  0  0  0  0  0  0
    0.9010    3.8073    0.1956 O   0  0  0  0  0  0  0  0  0  0  0  0
   -1.2225   -1.0283    1.0117 H   0  0  0  0  0  0  0  0  0  0  0  0
    0.1203   -0.7809    2.1536 H   0  0  0  0  0  0  0  0  0  0  0  0
   -1.1191    0.4804    1.9504 H   0  0  0  0  0  0  0  0  0  0  0  0
    0.4383    3.3276   -2.6202 H   0  0  0  0  0  0  0  0  0  0  0  0
    2.5503    3.3035   -3.8788 H   0  0  0  0  0  0  0  0  0  0  0  0
    4.2896    1.6470   -3.3485 H   0  0  0  0  0  0  0  0  0  0  0  0
    3.9406    0.0029   -1.5616 H   0  0  0  0  0  0  0  0  0  0  0  0
   -2.2772    1.5600   -0.2761 H   0  0  0  0  0  0  0  0  0  0  0  0
   -3.8028    2.9649    0.4468 H   0  0  0  0  0  0  0  0  0  0  0  0
   -2.9171    9.4946   -4.0575 H   0  0  0  0  0  0  0  0  0  0  0  0
   -4.4845   10.2400   -3.6628 H   0  0  0  0  0  0  0  0  0  0  0  0
   -3.1782   10.2217   -2.4539 H   0  0  0  0  0  0  0  0  0  0  0  0
   -6.1159    8.3417   -1.9270 H   0  0  0  0  0  0  0  0  0  0  0  0
   -6.0495    8.4994   -3.6988 H   0  0  0  0  0  0  0  0  0  0  0  0
   -5.7301    6.9247   -2.9328 H   0  0  0  0  0  0  0  0  0  0  0  0
  1  2  1  0  0  0  0
  1 28  1  0  0  0  0
  1 29  1  0  0  0  0
  1 30  1  0  0  0  0
  2 10  1  0  0  0  0
  2  3  2  0  0  0  0
  3  4  1  0  0  0  0
  3 12  1  0  0  0  0
  4  9  2  0  0  0  0
  4  5  1  0  0  0  0
  5  6  2  0  0  0  0
  5 31  1  0  0  0  0
  6  7  1  0  0  0  0
  6 32  1  0  0  0  0
  7  8  2  0  0  0  0
  7 33  1  0  0  0  0
  8  9  1  0  0  0  0
  8 34  1  0  0  0  0
  9 10  1  0  0  0  0
 10 11  1  0  0  0  0
 12 13  2  0  0  0  0
 12 35  1  0  0  0  0
 13 26  1  0  0  0  0
 13 14  1  0  0  0  0
 14 15  2  0  0  0  0
 14 16  1  0  0  0  0
 15 36  1  0  0  0  0
 16 24  1  0  0  0  0
 16 17  1  0  0  0  0
 17 18  1  0  0  0  0
 17 19  1  0  0  0  0
 19 20  2  0  0  0  0
 19 23  1  0  0  0  0
 20 21  1  0  0  0  0
 20 22  1  0  0  0  0
 21 37  1  0  0  0  0
 21 38  1  0  0  0  0
 21 39  1  0  0  0  0
 22 40  1  0  0  0  0
 22 41  1  0  0  0  0
 22 42  1  0  0  0  0
 23 24  1  0  0  0  0
 24 25  2  0  0  0  0
 25 26  1  0  0  0  0
 26 27  2  0  0  0  0
M  END
$$$$
ZINC04485562
  -OEChem-08230709453D

 42 44  0     0  0  0  0  0  0999 V2000
    0.9497   -7.6831   -8.5266 C   0  0  0  0  0  0  0  0  0  0  0  0
    0.7531   -7.0744   -7.1621 C   0  0  0  0  0  0  0  0  0  0  0  0
    1.2429   -5.8913   -6.7267 C   0  0  0  0  0  0  0  0  0  0  0  0
    0.7714   -5.7963   -5.3904 C   0  0  0  0  0  0  0  0  0  0  0  0
    0.0826   -6.8849   -5.1682 N   0  0  0  0  0  0  0  0  0  0  0  0
    0.0591   -7.6005   -6.1425 O   0  0  0  0  0  0  0  0  0  0  0  0
    1.0020   -4.7534   -4.4931 N   0  0  0  0  0  0  0  0  0  0  0  0
    1.7429   -3.6922   -4.8693 C   0  0  0  0  0  0  0  0  0  0  0  0
    2.2090   -3.6440   -5.9879 O   0  0  0  0  0  0  0  0  0  0  0  0
    1.9921   -2.5656   -3.8999 C   0  0  0  0  0  0  0  0  0  0  0  0
    3.0121   -1.2996   -4.6956 S   0  0  0  0  0  0  0  0  0  0  0  0
    3.1431   -0.1387   -3.3765 C   0  0  0  0  0  0  0  0  0  0  0  0
    3.8196    1.0416   -3.4189 N   0  0  0  0  0  0  0  0  0  0  0  0
    4.3293    1.4075   -4.1976 H   0  0  0  0  0  0  0  0  0  0  0  0
    3.6690    1.6362   -2.1863 C   0  0  0  0  0  0  0  0  0  0  0  0
    2.9152    0.8095   -1.4417 C   0  0  0  0  0  0  0  0  0  0  0  0
    2.6101   -0.2681   -2.1839 N   0  0  0  0  0  0  0  0  0  0  0  0
    2.4902    1.0476   -0.0156 C   0  0  0  0  0  0  0  0  0  0  0  0
    1.1750    1.7832    0.0004 C   0  0  0  0  0  0  0  0  0  0  0  0
   -0.0126    1.0758    0.0080 C   0  0  0  0  0  0  0  0  0  0  0  0
   -1.2190    1.7507    0.0173 C   0  0  0  0  0  0  0  0  0  0  0  0
   -1.2377    3.1328    0.0290 C   0  0  0  0  0  0  0  0  0  0  0  0
   -0.0501    3.8402    0.0223 C   0  0  0  0  0  0  0  0  0  0  0  0
    1.1563    3.1654    0.0081 C   0  0  0  0  0  0  0  0  0  0  0  0
    4.2408    2.9619   -1.7542 C   0  0  0  0  0  0  0  0  0  0  0  0
    1.8456   -8.3040   -8.5219 H   0  0  0  0  0  0  0  0  0  0  0  0
    0.0844   -8.2959   -8.7792 H   0  0  0  0  0  0  0  0  0  0  0  0
    1.0614   -6.8898   -9.2657 H   0  0  0  0  0  0  0  0  0  0  0  0
    1.8517   -5.1832   -7.2693 H   0  0  0  0  0  0  0  0  0  0  0  0
    0.6293   -4.7920   -3.5984 H   0  0  0  0  0  0  0  0  0  0  0  0
    2.5100   -2.9501   -3.0213 H   0  0  0  0  0  0  0  0  0  0  0  0
    1.0402   -2.1285   -3.5983 H   0  0  0  0  0  0  0  0  0  0  0  0
    3.2465    1.6443    0.4942 H   0  0  0  0  0  0  0  0  0  0  0  0
    2.3776    0.0909    0.4944 H   0  0  0  0  0  0  0  0  0  0  0  0
    0.0021   -0.0041    0.0020 H   0  0  0  0  0  0  0  0  0  0  0  0
   -2.1469    1.1980    0.0188 H   0  0  0  0  0  0  0  0  0  0  0  0
   -2.1802    3.6600    0.0398 H   0  0  0  0  0  0  0  0  0  0  0  0
   -0.0647    4.9201    0.0280 H   0  0  0  0  0  0  0  0  0  0  0  0
    2.0841    3.7181    0.0025 H   0  0  0  0  0  0  0  0  0  0  0  0
    5.2274    2.8071   -1.3175 H   0  0  0  0  0  0  0  0  0  0  0  0
    4.3254    3.6202   -2.6188 H   0  0  0  0  0  0  0  0  0  0  0  0
    3.5832    3.4173   -1.0138 H   0  0  0  0  0  0  0  0  0  0  0  0
  1  2  1  0  0  0  0
  1 26  1  0  0  0  0
  1 27  1  0  0  0  0
  1 28  1  0  0  0  0
  2  6  1  0  0  0  0
  2  3  2  0  0  0  0
  3  4  1  0  0  0  0
  3 29  1  0  0  0  0
  4  5  2  0  0  0  0
  4  7  1  0  0  0  0
  5  6  1  0  0  0  0
  7  8  1  0  0  0  0
  7 30  1  0  0  0  0
  8  9  2  0  0  0  0
  8 10  1  0  0  0  0
 10 11  1  0  0  0  0
 10 31  1  0  0  0  0
 10 32  1  0  0  0  0
 11 12  1  0  0  0  0
 12 17  2  0  0  0  0
 12 13  1  0  0  0  0
 13 14  1  0  0  0  0
 13 15  1  0  0  0  0
 15 16  2  0  0  0  0
 15 25  1  0  0  0  0
 16 17  1  0  0  0  0
 16 18  1  0  0  0  0
 18 19  1  0  0  0  0
 18 33  1  0  0  0  0
 18 34  1  0  0  0  0
 19 24  2  0  0  0  0
 19 20  1  0  0  0  0
 20 21  2  0  0  0  0
 20 35  1  0  0  0  0
 21 22  1  0  0  0  0
 21 36  1  0  0  0  0
 22 23  2  0  0  0  0
 22 37  1  0  0  0  0
 23 24  1  0  0  0  0
 23 38  1  0  0  0  0
 24 39  1  0  0  0  0
 25 40  1  0  0  0  0
 25 41  1  0  0  0  0
 25 42  1  0  0  0  0
M  END
$$$$
ZINC04502764
  -OEChem-08230709453D

 44 45  0     1  0  0  0  0  0999 V2000
    6.0944    1.2014   -0.9932 C   0  0  0  0  0  0  0  0  0  0  0  0
    4.6577    0.7608   -0.8807 C   0  0  0  0  0  0  0  0  0  0  0  0
    4.3065   -0.5295   -1.0268 C   0  0  0  0  0  0  0  0  0  0  0  0
    2.5408   -0.5021   -0.7966 S   0  0  0  0  0  0  0  0  0  0  0  0
    2.3108    1.1928   -0.5268 C   0  0  0  0  0  0  0  0  0  0  0  0
    3.6000    1.7053   -0.6110 C   0  0  0  0  0  0  0  0  0  0  0  0
    3.8722    3.1352   -0.4351 C   0  0  0  0  0  0  0  0  0  0  0  0
    4.1135    3.5769    0.6731 O   0  0  0  0  0  0  0  0  0  0  0  0
    3.8551    3.9606   -1.5004 N   0  0  0  0  0  0  0  0  0  0  0  0
    1.1278    1.8731   -0.2805 N   0  0  0  0  0  0  0  0  0  0  0  0
   -0.0393    1.2006   -0.2349 C   0  0  0  0  0  0  0  0  0  0  0  0
   -0.0549    0.0005   -0.4093 O   0  0  0  0  0  0  0  0  0  0  0  0
   -1.3257    1.9408    0.0267 C   0  0  1  0  0  0  0  0  0  0  0  0
   -1.2383    2.5041    0.9557 H   0  0  0  0  0  0  0  0  0  0  0  0
   -1.6041    2.9036   -1.1293 C   0  0  0  0  0  0  0  0  0  0  0  0
   -2.3999    1.0049    0.1363 O   0  0  0  0  0  0  0  0  0  0  0  0
   -3.4855    1.3927    0.8579 C   0  0  0  0  0  0  0  0  0  0  0  0
   -3.5650    2.6847    1.3524 C   0  0  0  0  0  0  0  0  0  0  0  0
   -4.6691    3.0773    2.0858 C   0  0  0  0  0  0  0  0  0  0  0  0
   -5.6958    2.1834    2.3275 C   0  0  0  0  0  0  0  0  0  0  0  0
   -5.6227    0.8931    1.8369 C   0  0  0  0  0  0  0  0  0  0  0  0
   -4.5214    0.4948    1.0963 C   0  0  0  0  0  0  0  0  0  0  0  0
   -4.4506   -0.7726    0.6082 O   0  0  0  0  0  0  0  0  0  0  0  0
   -5.5505   -1.6396    0.8921 C   0  0  0  0  0  0  0  0  0  0  0  0
    5.1941   -1.7139   -1.3103 C   0  0  0  0  0  0  0  0  0  0  0  0
    6.5655    1.1590   -0.0112 H   0  0  0  0  0  0  0  0  0  0  0  0
    6.6244    0.5406   -1.6792 H   0  0  0  0  0  0  0  0  0  0  0  0
    6.1326    2.2232   -1.3707 H   0  0  0  0  0  0  0  0  0  0  0  0
    3.6628    3.6086   -2.3836 H   0  0  0  0  0  0  0  0  0  0  0  0
    4.0352    4.9066   -1.3840 H   0  0  0  0  0  0  0  0  0  0  0  0
    1.1403    2.8329   -0.1410 H   0  0  0  0  0  0  0  0  0  0  0  0
   -0.7847    3.6175   -1.2130 H   0  0  0  0  0  0  0  0  0  0  0  0
   -1.6915    2.3403   -2.0584 H   0  0  0  0  0  0  0  0  0  0  0  0
   -2.5346    3.4390   -0.9401 H   0  0  0  0  0  0  0  0  0  0  0  0
   -2.7642    3.3847    1.1653 H   0  0  0  0  0  0  0  0  0  0  0  0
   -4.7301    4.0847    2.4704 H   0  0  0  0  0  0  0  0  0  0  0  0
   -6.5569    2.4941    2.9005 H   0  0  0  0  0  0  0  0  0  0  0  0
   -6.4261    0.1967    2.0271 H   0  0  0  0  0  0  0  0  0  0  0  0
   -5.6594   -1.7470    1.9713 H   0  0  0  0  0  0  0  0  0  0  0  0
   -6.4641   -1.2158    0.4751 H   0  0  0  0  0  0  0  0  0  0  0  0
   -5.3670   -2.6172    0.4463 H   0  0  0  0  0  0  0  0  0  0  0  0
    5.5327   -2.1476   -0.3694 H   0  0  0  0  0  0  0  0  0  0  0  0
    4.6348   -2.4604   -1.8741 H   0  0  0  0  0  0  0  0  0  0  0  0
    6.0570   -1.3902   -1.8924 H   0  0  0  0  0  0  0  0  0  0  0  0
  1  2  1  0  0  0  0
  1 26  1  0  0  0  0
  1 27  1  0  0  0  0
  1 28  1  0  0  0  0
  2  6  1  0  0  0  0
  2  3  2  0  0  0  0
  3  4  1  0  0  0  0
  3 25  1  0  0  0  0
  4  5  1  0  0  0  0
  5  6  2  0  0  0  0
  5 10  1  0  0  0  0
  6  7  1  0  0  0  0
  7  8  2  0  0  0  0
  7  9  1  0  0  0  0
  9 29  1  0  0  0  0
  9 30  1  0  0  0  0
 10 11  1  0  0  0  0
 10 31  1  0  0  0  0
 11 12  2  0  0  0  0
 11 13  1  0  0  0  0
 13 14  1  0  0  0  0
 13 15  1  0  0  0  0
 13 16  1  0  0  0  0
 15 32  1  0  0  0  0
 15 33  1  0  0  0  0
 15 34  1  0  0  0  0
 16 17  1  0  0  0  0
 17 22  2  0  0  0  0
 17 18  1  0  0  0  0
 18 19  2  0  0  0  0
 18 35  1  0  0  0  0
 19 20  1  0  0  0  0
 19 36  1  0  0  0  0
 20 21  2  0  0  0  0
 20 37  1  0  0  0  0
 21 22  1  0  0  0  0
 21 38  1  0  0  0  0
 22 23  1  0  0  0  0
 23 24  1  0  0  0  0
 24 39  1  0  0  0  0
 24 40  1  0  0  0  0
 24 41  1  0  0  0  0
 25 42  1  0  0  0  0
 25 43  1  0  0  0  0
 25 44  1  0  0  0  0
M  END
$$$$
ZINC04502843
  -OEChem-08230709453D

 44 46  0     1  0  0  0  0  0999 V2000
   -0.5941    2.3492   -0.5440 C   0  0  0  0  0  0  0  0  0  0  0  0
   -1.1381    2.4660    0.8813 C   0  0  0  0  0  0  0  0  0  0  0  0
   -2.3969    1.7951    0.9672 O   0  0  0  0  0  0  0  0  0  0  0  0
   -3.0163    1.8045    2.1680 C   0  0  0  0  0  0  0  0  0  0  0  0
   -2.4987    2.3684    3.1162 O   0  0  0  0  0  0  0  0  0  0  0  0
   -4.2540    1.1655    2.3231 C   0  0  0  0  0  0  0  0  0  0  0  0
   -4.9439    1.2310    3.5163 C   0  0  0  0  0  0  0  0  0  0  0  0
   -6.1153    0.6261    3.6482 N   0  0  0  0  0  0  0  0  0  0  0  0
   -6.7063   -0.0720    2.7064 C   0  0  0  0  0  0  0  0  0  0  0  0
   -6.1882   -0.2652    1.4508 N   0  0  0  0  0  0  0  0  0  0  0  0
   -4.8721    0.3776    1.1900 C   0  0  2  0  0  0  0  0  0  0  0  0
   -4.9894    1.0491    0.3394 H   0  0  0  0  0  0  0  0  0  0  0  0
   -3.8998   -0.7027    0.7919 C   0  0  0  0  0  0  0  0  0  0  0  0
   -3.8132   -1.8628    1.5392 C   0  0  0  0  0  0  0  0  0  0  0  0
   -2.9267   -2.8571    1.1731 C   0  0  0  0  0  0  0  0  0  0  0  0
   -2.1146   -2.6858    0.0614 C   0  0  0  0  0  0  0  0  0  0  0  0
   -2.1994   -1.5185   -0.6834 C   0  0  0  0  0  0  0  0  0  0  0  0
   -3.0918   -0.5298   -0.3167 C   0  0  0  0  0  0  0  0  0  0  0  0
   -1.2372   -3.6597   -0.2970 O   0  0  0  0  0  0  0  0  0  0  0  0
   -1.2041   -4.8344    0.5160 C   0  0  0  0  0  0  0  0  0  0  0  0
   -6.9198   -1.0165    0.5794 C   0  0  0  0  0  0  0  0  0  0  0  0
   -8.1166   -1.5321    0.9935 C   0  0  0  0  0  0  0  0  0  0  0  0
   -8.2074   -0.9338    2.6717 S   0  0  0  0  0  0  0  0  0  0  0  0
   -9.0516   -2.3401    0.2700 C   0  0  0  0  0  0  0  0  0  0  0  0
   -9.7934   -2.9811   -0.3039 N   0  0  0  0  0  0  0  0  0  0  0  0
   -6.4605   -1.2517   -0.7001 N   0  0  0  0  0  0  0  0  0  0  0  0
   -4.3636    1.9998    4.6753 C   0  0  0  0  0  0  0  0  0  0  0  0
   -0.4633    1.2972   -0.7979 H   0  0  0  0  0  0  0  0  0  0  0  0
    0.3661    2.8608   -0.6095 H   0  0  0  0  0  0  0  0  0  0  0  0
   -1.2976    2.8062   -1.2399 H   0  0  0  0  0  0  0  0  0  0  0  0
   -0.4346    2.0090    1.5772 H   0  0  0  0  0  0  0  0  0  0  0  0
   -1.2688    3.5179    1.1352 H   0  0  0  0  0  0  0  0  0  0  0  0
   -4.4420   -1.9935    2.4075 H   0  0  0  0  0  0  0  0  0  0  0  0
   -2.8623   -3.7648    1.7548 H   0  0  0  0  0  0  0  0  0  0  0  0
   -1.5680   -1.3826   -1.5490 H   0  0  0  0  0  0  0  0  0  0  0  0
   -3.1582    0.3791   -0.8962 H   0  0  0  0  0  0  0  0  0  0  0  0
   -0.4631   -5.5292    0.1205 H   0  0  0  0  0  0  0  0  0  0  0  0
   -0.9381   -4.5620    1.5373 H   0  0  0  0  0  0  0  0  0  0  0  0
   -2.1858   -5.3081    0.5102 H   0  0  0  0  0  0  0  0  0  0  0  0
   -5.6108   -0.8814   -0.9861 H   0  0  0  0  0  0  0  0  0  0  0  0
   -6.9873   -1.7873   -1.3137 H   0  0  0  0  0  0  0  0  0  0  0  0
   -4.1391    3.0186    4.3595 H   0  0  0  0  0  0  0  0  0  0  0  0
   -5.0841    2.0233    5.4929 H   0  0  0  0  0  0  0  0  0  0  0  0
   -3.4480    1.5136    5.0118 H   0  0  0  0  0  0  0  0  0  0  0  0
  1  2  1  0  0  0  0
  1 28  1  0  0  0  0
  1 29  1  0  0  0  0
  1 30  1  0  0  0  0
  2  3  1  0  0  0  0
  2 31  1  0  0  0  0
  2 32  1  0  0  0  0
  3  4  1  0  0  0  0
  4  5  2  0  0  0  0
  4  6  1  0  0  0  0
  6 11  1  0  0  0  0
  6  7  2  0  0  0  0
  7  8  1  0  0  0  0
  7 27  1  0  0  0  0
  8  9  2  0  0  0  0
  9 23  1  0  0  0  0
  9 10  1  0  0  0  0
 10 11  1  0  0  0  0
 10 21  1  0  0  0  0
 11 12  1  0  0  0  0
 11 13  1  0  0  0  0
 13 18  2  0  0  0  0
 13 14  1  0  0  0  0
 14 15  2  0  0  0  0
 14 33  1  0  0  0  0
 15 16  1  0  0  0  0
 15 34  1  0  0  0  0
 16 17  2  0  0  0  0
 16 19  1  0  0  0  0
 17 18  1  0  0  0  0
 17 35  1  0  0  0  0
 18 36  1  0  0  0  0
 19 20  1  0  0  0  0
 20 37  1  0  0  0  0
 20 38  1  0  0  0  0
 20 39  1  0  0  0  0
 21 22  2  0  0  0  0
 21 26  1  0  0  0  0
 22 23  1  0  0  0  0
 22 24  1  0  0  0  0
 24 25  3  0  0  0  0
 26 40  1  0  0  0  0
 26 41  1  0  0  0  0
 27 42  1  0  0  0  0
 27 43  1  0  0  0  0
 27 44  1  0  0  0  0
M  END
$$$$
ZINC04502865
  -OEChem-08230709453D

 47 49  0     1  0  0  0  0  0999 V2000
    3.2716    2.8173    1.2074 C   0  0  0  0  0  0  0  0  0  0  0  0
    1.8434    2.3484    1.1006 C   0  0  0  0  0  0  0  0  0  0  0  0
    1.3995    1.7635   -0.0676 C   0  0  0  0  0  0  0  0  0  0  0  0
   -0.0413    1.3085   -0.1289 C   0  0  1  0  0  0  0  0  0  0  0  0
   -0.0470    0.2412   -0.3501 H   0  0  0  0  0  0  0  0  0  0  0  0
   -0.8735    1.5290    1.0844 N   0  0  0  0  0  0  0  0  0  0  0  0
   -2.1862    1.1991    1.2483 C   0  0  0  0  0  0  0  0  0  0  0  0
   -2.7947    1.4780    2.4406 C   0  0  0  0  0  0  0  0  0  0  0  0
   -1.4638    2.2320    3.3586 S   0  0  0  0  0  0  0  0  0  0  0  0
   -0.2368    2.1283    2.1418 C   0  0  0  0  0  0  0  0  0  0  0  0
    1.0222    2.5003    2.1292 N   0  0  0  0  0  0  0  0  0  0  0  0
   -4.1453    1.2292    2.8462 C   0  0  0  0  0  0  0  0  0  0  0  0
   -5.2168    1.0318    3.1679 N   0  0  0  0  0  0  0  0  0  0  0  0
   -2.8895    0.5939    0.2272 N   0  0  0  0  0  0  0  0  0  0  0  0
   -0.7038    2.0200   -1.2804 C   0  0  0  0  0  0  0  0  0  0  0  0
   -1.2111    3.2945   -1.1051 C   0  0  0  0  0  0  0  0  0  0  0  0
   -1.8151    3.9517   -2.1608 C   0  0  0  0  0  0  0  0  0  0  0  0
   -1.9227    3.3323   -3.3911 C   0  0  0  0  0  0  0  0  0  0  0  0
   -1.4193    2.0519   -3.5680 C   0  0  0  0  0  0  0  0  0  0  0  0
   -0.8088    1.3964   -2.5083 C   0  0  0  0  0  0  0  0  0  0  0  0
   -1.5235    1.4406   -4.7773 O   0  0  0  0  0  0  0  0  0  0  0  0
   -2.1640    2.1751   -5.8224 C   0  0  0  0  0  0  0  0  0  0  0  0
    2.2572    1.5966   -1.1635 C   0  0  0  0  0  0  0  0  0  0  0  0
    3.3758    2.0793   -1.1407 O   0  0  0  0  0  0  0  0  0  0  0  0
    1.8437    0.9005   -2.2452 O   0  0  0  0  0  0  0  0  0  0  0  0
    2.7699    0.7699   -3.3256 C   0  0  0  0  0  0  0  0  0  0  0  0
    2.5149   -0.5482   -4.0595 C   0  0  0  0  0  0  0  0  0  0  0  0
    2.5882    1.9379   -4.2970 C   0  0  0  0  0  0  0  0  0  0  0  0
    3.3582    3.8178    0.7838 H   0  0  0  0  0  0  0  0  0  0  0  0
    3.5693    2.8395    2.2557 H   0  0  0  0  0  0  0  0  0  0  0  0
    3.9203    2.1335    0.6599 H   0  0  0  0  0  0  0  0  0  0  0  0
   -2.4503    0.3999   -0.6156 H   0  0  0  0  0  0  0  0  0  0  0  0
   -3.8232    0.3625    0.3521 H   0  0  0  0  0  0  0  0  0  0  0  0
   -1.1316    3.7788   -0.1431 H   0  0  0  0  0  0  0  0  0  0  0  0
   -2.2069    4.9486   -2.0226 H   0  0  0  0  0  0  0  0  0  0  0  0
   -2.3986    3.8444   -4.2143 H   0  0  0  0  0  0  0  0  0  0  0  0
   -0.4158    0.3996   -2.6436 H   0  0  0  0  0  0  0  0  0  0  0  0
   -3.1854    2.4134   -5.5258 H   0  0  0  0  0  0  0  0  0  0  0  0
   -1.6146    3.0981   -6.0072 H   0  0  0  0  0  0  0  0  0  0  0  0
   -2.1806    1.5739   -6.7315 H   0  0  0  0  0  0  0  0  0  0  0  0
    3.7874    0.7772   -2.9348 H   0  0  0  0  0  0  0  0  0  0  0  0
    1.4974   -0.5555   -4.4503 H   0  0  0  0  0  0  0  0  0  0  0  0
    3.2213   -0.6478   -4.8835 H   0  0  0  0  0  0  0  0  0  0  0  0
    2.6443   -1.3803   -3.3674 H   0  0  0  0  0  0  0  0  0  0  0  0
    2.7699    2.8769   -3.7742 H   0  0  0  0  0  0  0  0  0  0  0  0
    3.2946    1.8383   -5.1211 H   0  0  0  0  0  0  0  0  0  0  0  0
    1.5707    1.9306   -4.6878 H   0  0  0  0  0  0  0  0  0  0  0  0
  1  2  1  0  0  0  0
  1 29  1  0  0  0  0
  1 30  1  0  0  0  0
  1 31  1  0  0  0  0
  2 11  1  0  0  0  0
  2  3  2  0  0  0  0
  3  4  1  0  0  0  0
  3 23  1  0  0  0  0
  4  5  1  0  0  0  0
  4  6  1  0  0  0  0
  4 15  1  0  0  0  0
  6 10  1  0  0  0  0
  6  7  1  0  0  0  0
  7  8  2  0  0  0  0
  7 14  1  0  0  0  0
  8  9  1  0  0  0  0
  8 12  1  0  0  0  0
  9 10  1  0  0  0  0
 10 11  2  0  0  0  0
 12 13  3  0  0  0  0
 14 32  1  0  0  0  0
 14 33  1  0  0  0  0
 15 20  2  0  0  0  0
 15 16  1  0  0  0  0
 16 17  2  0  0  0  0
 16 34  1  0  0  0  0
 17 18  1  0  0  0  0
 17 35  1  0  0  0  0
 18 19  2  0  0  0  0
 18 36  1  0  0  0  0
 19 20  1  0  0  0  0
 19 21  1  0  0  0  0
 20 37  1  0  0  0  0
 21 22  1  0  0  0  0
 22 38  1  0  0  0  0
 22 39  1  0  0  0  0
 22 40  1  0  0  0  0
 23 24  2  0  0  0  0
 23 25  1  0  0  0  0
 25 26  1  0  0  0  0
 26 27  1  0  0  0  0
 26 28  1  0  0  0  0
 26 41  1  0  0  0  0
 27 42  1  0  0  0  0
 27 43  1  0  0  0  0
 27 44  1  0  0  0  0
 28 45  1  0  0  0  0
 28 46  1  0  0  0  0
 28 47  1  0  0  0  0
M  END
$$$$
ZINC04517021
  -OEChem-08230709453D

 41 42  0     1  0  0  0  0  0999 V2000
   -6.5215   -4.6435   -0.9142 C   0  0  0  0  0  0  0  0  0  0  0  0
   -5.2517   -5.4244   -1.1353 C   0  0  0  0  0  0  0  0  0  0  0  0
   -5.3040   -6.7434   -1.5585 C   0  0  0  0  0  0  0  0  0  0  0  0
   -4.1128   -7.4259   -1.7499 C   0  0  0  0  0  0  0  0  0  0  0  0
   -2.9684   -6.8024   -1.5246 N   0  0  0  0  0  0  0  0  0  0  0  0
   -2.9528   -5.5400   -1.1204 C   0  0  0  0  0  0  0  0  0  0  0  0
   -4.0741   -4.8611   -0.9228 N   0  0  0  0  0  0  0  0  0  0  0  0
   -1.4055   -4.7481   -0.8321 S   0  0  0  0  0  0  0  0  0  0  0  0
   -1.9812   -3.1099   -0.3211 C   0  0  1  0  0  0  0  0  0  0  0  0
   -2.6373   -2.6996   -1.0887 H   0  0  0  0  0  0  0  0  0  0  0  0
   -2.7494   -3.2276    0.9969 C   0  0  0  0  0  0  0  0  0  0  0  0
   -0.7968   -2.1975   -0.1324 C   0  0  0  0  0  0  0  0  0  0  0  0
    0.3090   -2.6662    0.0360 O   0  0  0  0  0  0  0  0  0  0  0  0
   -0.9664   -0.8606   -0.1509 N   0  0  0  0  0  0  0  0  0  0  0  0
    0.1398   -0.0171   -0.0789 C   0  0  0  0  0  0  0  0  0  0  0  0
    1.1709   -0.2930    0.8092 C   0  0  0  0  0  0  0  0  0  0  0  0
    2.2665    0.5436    0.8782 C   0  0  0  0  0  0  0  0  0  0  0  0
    2.3470    1.6623    0.0646 C   0  0  0  0  0  0  0  0  0  0  0  0
    1.3329    1.9523   -0.8221 C   0  0  0  0  0  0  0  0  0  0  0  0
    0.2179    1.1148   -0.9036 C   0  0  0  0  0  0  0  0  0  0  0  0
   -0.8680    1.4155   -1.8557 C   0  0  0  0  0  0  0  0  0  0  0  0
   -1.8327    0.6791   -1.9301 O   0  0  0  0  0  0  0  0  0  0  0  0
   -0.7909    2.5066   -2.6432 N   0  0  0  0  0  0  0  0  0  0  0  0
   -4.1216   -8.8610   -2.2098 C   0  0  0  0  0  0  0  0  0  0  0  0
   -6.8498   -4.7683    0.1177 H   0  0  0  0  0  0  0  0  0  0  0  0
   -6.3377   -3.5874   -1.1118 H   0  0  0  0  0  0  0  0  0  0  0  0
   -7.2955   -5.0100   -1.5886 H   0  0  0  0  0  0  0  0  0  0  0  0
   -6.2525   -7.2287   -1.7356 H   0  0  0  0  0  0  0  0  0  0  0  0
   -3.6060   -3.8875    0.8605 H   0  0  0  0  0  0  0  0  0  0  0  0
   -2.0932   -3.6379    1.7645 H   0  0  0  0  0  0  0  0  0  0  0  0
   -3.0961   -2.2411    1.3047 H   0  0  0  0  0  0  0  0  0  0  0  0
   -1.8588   -0.4857   -0.2143 H   0  0  0  0  0  0  0  0  0  0  0  0
    1.1156   -1.1632    1.4464 H   0  0  0  0  0  0  0  0  0  0  0  0
    3.0661    0.3247    1.5704 H   0  0  0  0  0  0  0  0  0  0  0  0
    3.2087    2.3105    0.1260 H   0  0  0  0  0  0  0  0  0  0  0  0
    1.4005    2.8255   -1.4540 H   0  0  0  0  0  0  0  0  0  0  0  0
   -0.0213    3.0941   -2.5839 H   0  0  0  0  0  0  0  0  0  0  0  0
   -1.5049    2.7043   -3.2693 H   0  0  0  0  0  0  0  0  0  0  0  0
   -4.1456   -9.5204   -1.3422 H   0  0  0  0  0  0  0  0  0  0  0  0
   -5.0025   -9.0396   -2.8264 H   0  0  0  0  0  0  0  0  0  0  0  0
   -3.2230   -9.0611   -2.7934 H   0  0  0  0  0  0  0  0  0  0  0  0
  1  2  1  0  0  0  0
  1 25  1  0  0  0  0
  1 26  1  0  0  0  0
  1 27  1  0  0  0  0
  2  7  2  0  0  0  0
  2  3  1  0  0  0  0
  3  4  2  0  0  0  0
  3 28  1  0  0  0  0
  4  5  1  0  0  0  0
  4 24  1  0  0  0  0
  5  6  2  0  0  0  0
  6  7  1  0  0  0  0
  6  8  1  0  0  0  0
  8  9  1  0  0  0  0
  9 10  1  0  0  0  0
  9 11  1  0  0  0  0
  9 12  1  0  0  0  0
 11 29  1  0  0  0  0
 11 30  1  0  0  0  0
 11 31  1  0  0  0  0
 12 13  2  0  0  0  0
 12 14  1  0  0  0  0
 14 15  1  0  0  0  0
 14 32  1  0  0  0  0
 15 20  2  0  0  0  0
 15 16  1  0  0  0  0
 16 17  2  0  0  0  0
 16 33  1  0  0  0  0
 17 18  1  0  0  0  0
 17 34  1  0  0  0  0
 18 19  2  0  0  0  0
 18 35  1  0  0  0  0
 19 20  1  0  0  0  0
 19 36  1  0  0  0  0
 20 21  1  0  0  0  0
 21 22  2  0  0  0  0
 21 23  1  0  0  0  0
 23 37  1  0  0  0  0
 23 38  1  0  0  0  0
 24 39  1  0  0  0  0
 24 40  1  0  0  0  0
 24 41  1  0  0  0  0
M  END
$$$$
ZINC04620257
  -OEChem-08230709453D

 46 49  0     1  0  0  0  0  0999 V2000
    1.0570   -2.1069    0.6715 C   0  0  0  0  0  0  0  0  0  0  0  0
    1.1093   -0.6429    0.3179 C   0  0  0  0  0  0  0  0  0  0  0  0
    2.3380    0.0305    0.3153 C   0  0  0  0  0  0  0  0  0  0  0  0
    2.3872    1.3922   -0.0131 C   0  0  0  0  0  0  0  0  0  0  0  0
    1.1737    2.0591   -0.3378 C   0  0  0  0  0  0  0  0  0  0  0  0
    0.9929    3.4663   -0.7070 C   0  0  0  0  0  0  0  0  0  0  0  0
   -0.2640    3.8727   -0.9728 C   0  0  0  0  0  0  0  0  0  0  0  0
   -1.2727    2.4333   -0.7462 S   0  0  0  0  0  0  0  0  0  0  0  0
    0.0029    1.2788   -0.3012 C   0  0  0  0  0  0  0  0  0  0  0  0
   -0.7083    5.2481   -1.3690 C   0  0  0  0  0  0  0  0  0  0  0  0
    0.5283    6.0538   -1.7921 C   0  0  2  0  0  0  0  0  0  0  0  0
    0.8883    5.6921   -2.7553 H   0  0  0  0  0  0  0  0  0  0  0  0
    1.6200    5.8702   -0.7338 C   0  0  0  0  0  0  0  0  0  0  0  0
    2.1635    4.4421   -0.7912 C   0  0  0  0  0  0  0  0  0  0  0  0
    0.1895    7.4381   -1.8962 O   0  0  0  0  0  0  0  0  0  0  0  0
    3.5895    2.0725   -0.0212 N   0  0  0  0  0  0  0  0  0  0  0  0
    3.5733   -0.6899    0.6570 C   0  0  0  0  0  0  0  0  0  0  0  0
    4.2188   -1.2373   -0.2155 O   0  0  0  0  0  0  0  0  0  0  0  0
    3.9902   -0.7432    1.9378 O   0  0  0  0  0  0  0  0  0  0  0  0
    5.2182   -1.4716    2.2016 C   0  0  0  0  0  0  0  0  0  0  0  0
    5.5239   -1.4235    3.6764 C   0  0  0  0  0  0  0  0  0  0  0  0
    6.3003   -0.4048    4.2075 C   0  0  0  0  0  0  0  0  0  0  0  0
    6.5562   -0.3912    5.5656 C   0  0  0  0  0  0  0  0  0  0  0  0
    6.0795   -1.3369    6.3513 N   0  0  0  0  0  0  0  0  0  0  0  0
    5.3416   -2.3232    5.8803 C   0  0  0  0  0  0  0  0  0  0  0  0
    5.0403   -2.3999    4.5337 C   0  0  0  0  0  0  0  0  0  0  0  0
    1.1755   -2.7036   -0.2329 H   0  0  0  0  0  0  0  0  0  0  0  0
    1.8609   -2.3411    1.3693 H   0  0  0  0  0  0  0  0  0  0  0  0
    0.0966   -2.3348    1.1339 H   0  0  0  0  0  0  0  0  0  0  0  0
   -1.1921    5.7356   -0.5227 H   0  0  0  0  0  0  0  0  0  0  0  0
   -1.4068    5.1827   -2.2033 H   0  0  0  0  0  0  0  0  0  0  0  0
    1.2015    6.0591    0.2548 H   0  0  0  0  0  0  0  0  0  0  0  0
    2.4303    6.5741   -0.9234 H   0  0  0  0  0  0  0  0  0  0  0  0
    2.8397    4.2746    0.0471 H   0  0  0  0  0  0  0  0  0  0  0  0
    2.6975    4.2919   -1.7295 H   0  0  0  0  0  0  0  0  0  0  0  0
   -0.4976    7.6269   -2.5499 H   0  0  0  0  0  0  0  0  0  0  0  0
    3.6682    2.9127   -0.4995 H   0  0  0  0  0  0  0  0  0  0  0  0
    4.3550    1.7100    0.4515 H   0  0  0  0  0  0  0  0  0  0  0  0
    5.0997   -2.5090    1.8887 H   0  0  0  0  0  0  0  0  0  0  0  0
    6.0376   -1.0158    1.6456 H   0  0  0  0  0  0  0  0  0  0  0  0
    6.6973    0.3700    3.5684 H   0  0  0  0  0  0  0  0  0  0  0  0
    7.1573    0.4007    5.9875 H   0  0  0  0  0  0  0  0  0  0  0  0
    4.9687   -3.0798    6.5547 H   0  0  0  0  0  0  0  0  0  0  0  0
    4.4361   -3.2105    4.1540 H   0  0  0  0  0  0  0  0  0  0  0  0
   -0.0678   -0.0428    0.0140 N   0  3  0  0  0  0  0  0  0  0  0  0
   -0.9580   -0.5543    0.0212 H   0  0  0  0  0  0  0  0  0  0  0  0
  1  2  1  0  0  0  0
  1 27  1  0  0  0  0
  1 28  1  0  0  0  0
  1 29  1  0  0  0  0
  2  3  2  0  0  0  0
  2 45  1  0  0  0  0
  3  4  1  0  0  0  0
  3 17  1  0  0  0  0
  4  5  2  0  0  0  0
  4 16  1  0  0  0  0
  5  9  1  0  0  0  0
  5  6  1  0  0  0  0
  6 14  1  0  0  0  0
  6  7  2  0  0  0  0
  7  8  1  0  0  0  0
  7 10  1  0  0  0  0
  8  9  1  0  0  0  0
  9 45  2  0  0  0  0
 10 11  1  0  0  0  0
 10 30  1  0  0  0  0
 10 31  1  0  0  0  0
 11 12  1  0  0  0  0
 11 13  1  0  0  0  0
 11 15  1  0  0  0  0
 13 14  1  0  0  0  0
 13 32  1  0  0  0  0
 13 33  1  0  0  0  0
 14 34  1  0  0  0  0
 14 35  1  0  0  0  0
 15 36  1  0  0  0  0
 16 37  1  0  0  0  0
 16 38  1  0  0  0  0
 17 18  2  0  0  0  0
 17 19  1  0  0  0  0
 19 20  1  0  0  0  0
 20 21  1  0  0  0  0
 20 39  1  0  0  0  0
 20 40  1  0  0  0  0
 21 26  2  0  0  0  0
 21 22  1  0  0  0  0
 22 23  2  0  0  0  0
 22 41  1  0  0  0  0
 23 24  1  0  0  0  0
 23 42  1  0  0  0  0
 24 25  2  0  0  0  0
 25 26  1  0  0  0  0
 25 43  1  0  0  0  0
 26 44  1  0  0  0  0
 45 46  1  0  0  0  0
M  CHG  1  45   1
M  END
$$$$
ZINC04623049
  -OEChem-08230709453D

 39 41  0     0  0  0  0  0  0999 V2000
    5.9240   -4.3245   -0.0805 C   0  0  0  0  0  0  0  0  0  0  0  0
    5.4044   -2.8855   -0.0668 C   0  0  0  0  0  0  0  0  0  0  0  0
    3.9755   -2.8951   -0.0528 O   0  0  0  0  0  0  0  0  0  0  0  0
    3.3501   -1.6877   -0.0395 C   0  0  0  0  0  0  0  0  0  0  0  0
    4.1032   -0.5179   -0.0399 C   0  0  0  0  0  0  0  0  0  0  0  0
    3.4829    0.7110   -0.0274 C   0  0  0  0  0  0  0  0  0  0  0  0
    2.0879    0.7857   -0.0137 C   0  0  0  0  0  0  0  0  0  0  0  0
    1.3305   -0.3967   -0.0128 C   0  0  0  0  0  0  0  0  0  0  0  0
    1.9676   -1.6284   -0.0255 C   0  0  0  0  0  0  0  0  0  0  0  0
    0.0021   -0.0041    0.0020 N   0  0  0  0  0  0  0  0  0  0  0  0
   -0.7949   -0.6081    0.0064 H   0  0  0  0  0  0  0  0  0  0  0  0
   -0.0165    1.3628    0.0095 C   0  0  0  0  0  0  0  0  0  0  0  0
    1.2094    1.8242    0.0003 N   0  0  0  0  0  0  0  0  0  0  0  0
   -1.4720    2.3557    0.0221 S   0  0  0  0  0  0  0  0  0  0  0  0
   -0.7271    4.0054    0.0274 C   0  0  0  0  0  0  0  0  0  0  0  0
   -1.8153    5.0479    0.0384 C   0  0  0  0  0  0  0  0  0  0  0  0
   -2.9797    4.7089    0.0423 O   0  0  0  0  0  0  0  0  0  0  0  0
   -1.4945    6.3569    0.0440 N   0  0  0  0  0  0  0  0  0  0  0  0
   -2.5018    7.3219    0.0542 C   0  0  0  0  0  0  0  0  0  0  0  0
   -3.9032    7.0915    0.0598 C   0  0  0  0  0  0  0  0  0  0  0  0
   -4.4379    8.3338    0.0697 C   0  0  0  0  0  0  0  0  0  0  0  0
   -3.4093    9.1939    0.0696 O   0  0  0  0  0  0  0  0  0  0  0  0
   -2.3452    8.6196    0.0662 N   0  0  0  0  0  0  0  0  0  0  0  0
   -5.9038    8.6831    0.0798 C   0  0  0  0  0  0  0  0  0  0  0  0
    7.0139   -4.3172   -0.0912 H   0  0  0  0  0  0  0  0  0  0  0  0
    5.5728   -4.8461    0.8099 H   0  0  0  0  0  0  0  0  0  0  0  0
    5.5553   -4.8355   -0.9700 H   0  0  0  0  0  0  0  0  0  0  0  0
    5.7555   -2.3640   -0.9572 H   0  0  0  0  0  0  0  0  0  0  0  0
    5.7730   -2.3746    0.8226 H   0  0  0  0  0  0  0  0  0  0  0  0
    5.1817   -0.5743   -0.0505 H   0  0  0  0  0  0  0  0  0  0  0  0
    4.0734    1.6153   -0.0285 H   0  0  0  0  0  0  0  0  0  0  0  0
    1.3864   -2.5387   -0.0245 H   0  0  0  0  0  0  0  0  0  0  0  0
   -0.1049    4.1202    0.9150 H   0  0  0  0  0  0  0  0  0  0  0  0
   -0.1137    4.1299   -0.8650 H   0  0  0  0  0  0  0  0  0  0  0  0
   -0.5631    6.6279    0.0408 H   0  0  0  0  0  0  0  0  0  0  0  0
   -4.4216    6.1441    0.0572 H   0  0  0  0  0  0  0  0  0  0  0  0
   -6.2516    8.7616    1.1099 H   0  0  0  0  0  0  0  0  0  0  0  0
   -6.0538    9.6359   -0.4279 H   0  0  0  0  0  0  0  0  0  0  0  0
   -6.4665    7.9044   -0.4352 H   0  0  0  0  0  0  0  0  0  0  0  0
  1  2  1  0  0  0  0
  1 25  1  0  0  0  0
  1 26  1  0  0  0  0
  1 27  1  0  0  0  0
  2  3  1  0  0  0  0
  2 28  1  0  0  0  0
  2 29  1  0  0  0  0
  3  4  1  0  0  0  0
  4  9  2  0  0  0  0
  4  5  1  0  0  0  0
  5  6  2  0  0  0  0
  5 30  1  0  0  0  0
  6  7  1  0  0  0  0
  6 31  1  0  0  0  0
  7 13  1  0  0  0  0
  7  8  2  0  0  0  0
  8  9  1  0  0  0  0
  8 10  1  0  0  0  0
  9 32  1  0  0  0  0
 10 11  1  0  0  0  0
 10 12  1  0  0  0  0
 12 13  2  0  0  0  0
 12 14  1  0  0  0  0
 14 15  1  0  0  0  0
 15 16  1  0  0  0  0
 15 33  1  0  0  0  0
 15 34  1  0  0  0  0
 16 17  2  0  0  0  0
 16 18  1  0  0  0  0
 18 19  1  0  0  0  0
 18 35  1  0  0  0  0
 19 23  2  0  0  0  0
 19 20  1  0  0  0  0
 20 21  2  0  0  0  0
 20 36  1  0  0  0  0
 21 22  1  0  0  0  0
 21 24  1  0  0  0  0
 22 23  1  0  0  0  0
 24 37  1  0  0  0  0
 24 38  1  0  0  0  0
 24 39  1  0  0  0  0
M  END
$$$$
ZINC04628691
  -OEChem-08230709453D

 44 45  0     0  0  0  0  0  0999 V2000
   -2.7048    8.4508    2.0975 C   0  0  0  0  0  0  0  0  0  0  0  0
   -3.8515    7.4743    2.0457 C   0  0  0  0  0  0  0  0  0  0  0  0
   -3.6345    6.1259    1.7995 C   0  0  0  0  0  0  0  0  0  0  0  0
   -5.3092    5.5058    1.8671 S   0  0  0  0  0  0  0  0  0  0  0  0
   -6.0987    7.0181    2.1909 C   0  0  0  0  0  0  0  0  0  0  0  0
   -5.0848    7.8699    2.2271 N   0  0  0  0  0  0  0  0  0  0  0  0
   -7.4426    7.2691    2.3670 N   0  0  0  0  0  0  0  0  0  0  0  0
   -2.3828    5.4103    1.5582 C   0  0  0  0  0  0  0  0  0  0  0  0
   -1.3265    6.0164    1.5508 O   0  0  0  0  0  0  0  0  0  0  0  0
   -2.3977    4.0797    1.3439 N   0  0  0  0  0  0  0  0  0  0  0  0
   -1.1982    3.3939    1.1126 N   0  0  0  0  0  0  0  0  0  0  0  0
   -1.2125    2.1125    0.9062 C   0  0  0  0  0  0  0  0  0  0  0  0
    0.0497    1.3909    0.6629 C   0  0  0  0  0  0  0  0  0  0  0  0
    1.2620    2.0854    0.6483 C   0  0  0  0  0  0  0  0  0  0  0  0
    2.4410    1.4093    0.4153 C   0  0  0  0  0  0  0  0  0  0  0  0
    2.4272    0.0398    0.1945 C   0  0  0  0  0  0  0  0  0  0  0  0
    1.2222   -0.6593    0.2072 C   0  0  0  0  0  0  0  0  0  0  0  0
    0.0363    0.0115    0.4405 C   0  0  0  0  0  0  0  0  0  0  0  0
    1.2127   -2.0018   -0.0096 O   0  0  0  0  0  0  0  0  0  0  0  0
   -0.0582   -2.6544    0.0179 C   0  0  0  0  0  0  0  0  0  0  0  0
    3.5924   -0.6218   -0.0351 O   0  0  0  0  0  0  0  0  0  0  0  0
    4.7758    0.1705   -0.1531 C   0  0  0  0  0  0  0  0  0  0  0  0
    5.3430    0.4507    1.2399 C   0  0  0  0  0  0  0  0  0  0  0  0
    5.8146   -0.5852   -0.9843 C   0  0  0  0  0  0  0  0  0  0  0  0
   -2.5263    8.8547    1.1010 H   0  0  0  0  0  0  0  0  0  0  0  0
   -2.9507    9.2640    2.7804 H   0  0  0  0  0  0  0  0  0  0  0  0
   -1.8082    7.9400    2.4486 H   0  0  0  0  0  0  0  0  0  0  0  0
   -8.0828    6.5423    2.3138 H   0  0  0  0  0  0  0  0  0  0  0  0
   -7.7482    8.1725    2.5441 H   0  0  0  0  0  0  0  0  0  0  0  0
   -3.2390    3.5970    1.3498 H   0  0  0  0  0  0  0  0  0  0  0  0
   -2.1493    1.5750    0.9128 H   0  0  0  0  0  0  0  0  0  0  0  0
    1.2756    3.1517    0.8195 H   0  0  0  0  0  0  0  0  0  0  0  0
    3.3775    1.9473    0.4046 H   0  0  0  0  0  0  0  0  0  0  0  0
   -0.8985   -0.5294    0.4513 H   0  0  0  0  0  0  0  0  0  0  0  0
   -0.5185   -2.5124    0.9957 H   0  0  0  0  0  0  0  0  0  0  0  0
   -0.7020   -2.2289   -0.7519 H   0  0  0  0  0  0  0  0  0  0  0  0
    0.0763   -3.7198   -0.1690 H   0  0  0  0  0  0  0  0  0  0  0  0
    4.5343    1.1135   -0.6435 H   0  0  0  0  0  0  0  0  0  0  0  0
    6.2457    1.0550    1.1499 H   0  0  0  0  0  0  0  0  0  0  0  0
    4.6029    0.9890    1.8320 H   0  0  0  0  0  0  0  0  0  0  0  0
    5.5845   -0.4924    1.7303 H   0  0  0  0  0  0  0  0  0  0  0  0
    5.4105   -0.7848   -1.9767 H   0  0  0  0  0  0  0  0  0  0  0  0
    6.7173    0.0191   -1.0743 H   0  0  0  0  0  0  0  0  0  0  0  0
    6.0561   -1.5282   -0.4939 H   0  0  0  0  0  0  0  0  0  0  0  0
  1  2  1  0  0  0  0
  1 25  1  0  0  0  0
  1 26  1  0  0  0  0
  1 27  1  0  0  0  0
  2  6  1  0  0  0  0
  2  3  2  0  0  0  0
  3  4  1  0  0  0  0
  3  8  1  0  0  0  0
  4  5  1  0  0  0  0
  5  6  2  0  0  0  0
  5  7  1  0  0  0  0
  7 28  1  0  0  0  0
  7 29  1  0  0  0  0
  8  9  2  0  0  0  0
  8 10  1  0  0  0  0
 10 11  1  0  0  0  0
 10 30  1  0  0  0  0
 11 12  2  0  0  0  0
 12 13  1  0  0  0  0
 12 31  1  0  0  0  0
 13 18  2  0  0  0  0
 13 14  1  0  0  0  0
 14 15  2  0  0  0  0
 14 32  1  0  0  0  0
 15 16  1  0  0  0  0
 15 33  1  0  0  0  0
 16 17  2  0  0  0  0
 16 21  1  0  0  0  0
 17 18  1  0  0  0  0
 17 19  1  0  0  0  0
 18 34  1  0  0  0  0
 19 20  1  0  0  0  0
 20 35  1  0  0  0  0
 20 36  1  0  0  0  0
 20 37  1  0  0  0  0
 21 22  1  0  0  0  0
 22 23  1  0  0  0  0
 22 24  1  0  0  0  0
 22 38  1  0  0  0  0
 23 39  1  0  0  0  0
 23 40  1  0  0  0  0
 23 41  1  0  0  0  0
 24 42  1  0  0  0  0
 24 43  1  0  0  0  0
 24 44  1  0  0  0  0
M  END
$$$$
ZINC04628692
  -OEChem-08230709453D

 43 45  0     0  0  0  0  0  0999 V2000
    2.2436    9.4869    0.0306 C   0  0  0  0  0  0  0  0  0  0  0  0
    2.4206    7.9672    0.0207 C   0  0  0  0  0  0  0  0  0  0  0  0
    1.1375    7.3382    0.0295 O   0  0  0  0  0  0  0  0  0  0  0  0
    1.1164    5.9806    0.0223 C   0  0  0  0  0  0  0  0  0  0  0  0
    2.3154    5.2694    0.0075 C   0  0  0  0  0  0  0  0  0  0  0  0
    2.3417    3.9104    0.0007 C   0  0  0  0  0  0  0  0  0  0  0  0
    1.1480    3.1676    0.0077 C   0  0  0  0  0  0  0  0  0  0  0  0
    1.1633    1.7623    0.0004 C   0  0  0  0  0  0  0  0  0  0  0  0
   -0.0126    1.0758    0.0080 C   0  0  0  0  0  0  0  0  0  0  0  0
   -1.2340    1.7451    0.0174 C   0  0  0  0  0  0  0  0  0  0  0  0
   -1.2857    3.1072    0.0305 C   0  0  0  0  0  0  0  0  0  0  0  0
   -0.0957    3.8449    0.0227 C   0  0  0  0  0  0  0  0  0  0  0  0
   -0.1045    5.3065    0.0302 C   0  0  0  0  0  0  0  0  0  0  0  0
   -1.3724    6.0497    0.0463 C   0  0  0  0  0  0  0  0  0  0  0  0
   -1.3638    7.3495    0.0528 N   0  0  0  0  0  0  0  0  0  0  0  0
   -2.5725    8.0579    0.0682 N   0  0  0  0  0  0  0  0  0  0  0  0
   -2.5636    9.4057    0.0749 C   0  0  0  0  0  0  0  0  0  0  0  0
   -1.5048   10.0077    0.0677 O   0  0  0  0  0  0  0  0  0  0  0  0
   -3.8247   10.1448    0.0909 C   0  0  0  0  0  0  0  0  0  0  0  0
   -4.0496   11.5142    0.1057 C   0  0  0  0  0  0  0  0  0  0  0  0
   -5.2902   11.9281    0.1138 N   0  0  0  0  0  0  0  0  0  0  0  0
   -6.3051   11.0768    0.1199 C   0  0  0  0  0  0  0  0  0  0  0  0
   -5.5049    9.5359    0.1047 S   0  0  0  0  0  0  0  0  0  0  0  0
   -7.6569   11.3465    0.1350 N   0  0  0  0  0  0  0  0  0  0  0  0
   -2.9026   12.4917    0.1077 C   0  0  0  0  0  0  0  0  0  0  0  0
    1.6828    9.7932   -0.8524 H   0  0  0  0  0  0  0  0  0  0  0  0
    1.6997    9.7835    0.9274 H   0  0  0  0  0  0  0  0  0  0  0  0
    3.2224    9.9667    0.0239 H   0  0  0  0  0  0  0  0  0  0  0  0
    2.9814    7.6609    0.9037 H   0  0  0  0  0  0  0  0  0  0  0  0
    2.9645    7.6706   -0.8762 H   0  0  0  0  0  0  0  0  0  0  0  0
    3.2486    5.8130    0.0015 H   0  0  0  0  0  0  0  0  0  0  0  0
    3.2908    3.3951   -0.0108 H   0  0  0  0  0  0  0  0  0  0  0  0
    2.1028    1.2297   -0.0114 H   0  0  0  0  0  0  0  0  0  0  0  0
    0.0021   -0.0041    0.0020 H   0  0  0  0  0  0  0  0  0  0  0  0
   -2.1526    1.1771    0.0187 H   0  0  0  0  0  0  0  0  0  0  0  0
   -2.2390    3.6145    0.0424 H   0  0  0  0  0  0  0  0  0  0  0  0
   -2.3112    5.5158    0.0527 H   0  0  0  0  0  0  0  0  0  0  0  0
   -3.4156    7.5784    0.0739 H   0  0  0  0  0  0  0  0  0  0  0  0
   -8.2969   10.6176    0.1378 H   0  0  0  0  0  0  0  0  0  0  0  0
   -7.9681   12.2652    0.1427 H   0  0  0  0  0  0  0  0  0  0  0  0
   -2.6328   12.7373   -0.9194 H   0  0  0  0  0  0  0  0  0  0  0  0
   -3.1998   13.3996    0.6324 H   0  0  0  0  0  0  0  0  0  0  0  0
   -2.0454   12.0450    0.6116 H   0  0  0  0  0  0  0  0  0  0  0  0
  1  2  1  0  0  0  0
  1 26  1  0  0  0  0
  1 27  1  0  0  0  0
  1 28  1  0  0  0  0
  2  3  1  0  0  0  0
  2 29  1  0  0  0  0
  2 30  1  0  0  0  0
  3  4  1  0  0  0  0
  4 13  2  0  0  0  0
  4  5  1  0  0  0  0
  5  6  2  0  0  0  0
  5 31  1  0  0  0  0
  6  7  1  0  0  0  0
  6 32  1  0  0  0  0
  7 12  2  0  0  0  0
  7  8  1  0  0  0  0
  8  9  2  0  0  0  0
  8 33  1  0  0  0  0
  9 10  1  0  0  0  0
  9 34  1  0  0  0  0
 10 11  2  0  0  0  0
 10 35  1  0  0  0  0
 11 12  1  0  0  0  0
 11 36  1  0  0  0  0
 12 13  1  0  0  0  0
 13 14  1  0  0  0  0
 14 15  2  0  0  0  0
 14 37  1  0  0  0  0
 15 16  1  0  0  0  0
 16 17  1  0  0  0  0
 16 38  1  0  0  0  0
 17 18  2  0  0  0  0
 17 19  1  0  0  0  0
 19 23  1  0  0  0  0
 19 20  2  0  0  0  0
 20 21  1  0  0  0  0
 20 25  1  0  0  0  0
 21 22  2  0  0  0  0
 22 23  1  0  0  0  0
 22 24  1  0  0  0  0
 24 39  1  0  0  0  0
 24 40  1  0  0  0  0
 25 41  1  0  0  0  0
 25 42  1  0  0  0  0
 25 43  1  0  0  0  0
M  END
$$$$
