ZINC00006468
  -OEChem-08230709403D

 21 22  0     0  0  0  0  0  0999 V2000
   -0.0127    1.0858    0.0080 C   0  0  0  0  0  0  0  0  0  0  0  0
   -0.7181    1.5718    1.2479 C   0  0  0  0  0  0  0  0  0  0  0  0
    0.0218    1.7908    2.3671 N   0  0  0  0  0  0  0  0  0  0  0  0
    1.0082    1.6276    2.3489 H   0  0  0  0  0  0  0  0  0  0  0  0
   -0.5648    2.2278    3.5058 C   0  0  0  0  0  0  0  0  0  0  0  0
    0.0853    2.4285    4.5153 O   0  0  0  0  0  0  0  0  0  0  0  0
   -2.0180    2.4514    3.4761 C   0  0  0  0  0  0  0  0  0  0  0  0
   -2.7173    2.9010    4.5950 C   0  0  0  0  0  0  0  0  0  0  0  0
   -4.0787    3.0955    4.5143 C   0  0  0  0  0  0  0  0  0  0  0  0
   -4.7598    2.8472    3.3305 C   0  0  0  0  0  0  0  0  0  0  0  0
   -4.0878    2.4012    2.2091 C   0  0  0  0  0  0  0  0  0  0  0  0
   -2.7028    2.1969    2.2683 C   0  0  0  0  0  0  0  0  0  0  0  0
   -2.0006    1.7651    1.1913 N   0  0  0  0  0  0  0  0  0  0  0  0
   -4.7655    2.1624    1.0556 O   0  0  0  0  0  0  0  0  0  0  0  0
    0.0021   -0.0041    0.0020 H   0  0  0  0  0  0  0  0  0  0  0  0
    1.0099    1.4631    0.0003 H   0  0  0  0  0  0  0  0  0  0  0  0
   -0.5399    1.4469   -0.8751 H   0  0  0  0  0  0  0  0  0  0  0  0
   -2.1948    3.0958    5.5198 H   0  0  0  0  0  0  0  0  0  0  0  0
   -4.6214    3.4442    5.3806 H   0  0  0  0  0  0  0  0  0  0  0  0
   -5.8273    3.0049    3.2856 H   0  0  0  0  0  0  0  0  0  0  0  0
   -5.0957    1.2572    0.9736 H   0  0  0  0  0  0  0  0  0  0  0  0
  1  2  1  0  0  0  0
  1 15  1  0  0  0  0
  1 16  1  0  0  0  0
  1 17  1  0  0  0  0
  2 13  2  0  0  0  0
  2  3  1  0  0  0  0
  3  4  1  0  0  0  0
  3  5  1  0  0  0  0
  5  6  2  0  0  0  0
  5  7  1  0  0  0  0
  7 12  2  0  0  0  0
  7  8  1  0  0  0  0
  8  9  2  0  0  0  0
  8 18  1  0  0  0  0
  9 10  1  0  0  0  0
  9 19  1  0  0  0  0
 10 11  2  0  0  0  0
 10 20  1  0  0  0  0
 11 12  1  0  0  0  0
 11 14  1  0  0  0  0
 12 13  1  0  0  0  0
 14 21  1  0  0  0  0
M  END
$$$$
ZINC00006468
  -OEChem-08230709403D

 21 22  0     0  0  0  0  0  0999 V2000
   -0.0129    1.0847    0.0083 C   0  0  0  0  0  0  0  0  0  0  0  0
   -0.7182    1.5711    1.2481 C   0  0  0  0  0  0  0  0  0  0  0  0
    0.0217    1.7901    2.3673 N   0  0  0  0  0  0  0  0  0  0  0  0
   -2.4834    1.5863    0.3341 H   0  0  0  0  0  0  0  0  0  0  0  0
   -0.5649    2.2274    3.5059 C   0  0  0  0  0  0  0  0  0  0  0  0
    0.0852    2.4281    4.5154 O   0  0  0  0  0  0  0  0  0  0  0  0
   -2.0198    2.4401    3.4795 C   0  0  0  0  0  0  0  0  0  0  0  0
   -2.7200    2.8838    4.6002 C   0  0  0  0  0  0  0  0  0  0  0  0
   -4.0823    3.0730    4.5211 C   0  0  0  0  0  0  0  0  0  0  0  0
   -4.7633    2.8251    3.3371 C   0  0  0  0  0  0  0  0  0  0  0  0
   -4.0904    2.3848    2.2140 C   0  0  0  0  0  0  0  0  0  0  0  0
   -2.7045    2.1860    2.2716 C   0  0  0  0  0  0  0  0  0  0  0  0
   -2.0015    1.7597    1.1929 N   0  0  0  0  0  0  0  0  0  0  0  0
   -4.7680    2.1464    1.0604 O   0  0  0  0  0  0  0  0  0  0  0  0
    0.0016   -0.0052    0.0025 H   0  0  0  0  0  0  0  0  0  0  0  0
    1.0098    1.4617    0.0006 H   0  0  0  0  0  0  0  0  0  0  0  0
   -0.5399    1.4458   -0.8749 H   0  0  0  0  0  0  0  0  0  0  0  0
   -2.1976    3.0782    5.5251 H   0  0  0  0  0  0  0  0  0  0  0  0
   -4.6257    3.4171    5.3887 H   0  0  0  0  0  0  0  0  0  0  0  0
   -5.8315    2.9785    3.2935 H   0  0  0  0  0  0  0  0  0  0  0  0
   -5.0946    1.2401    0.9762 H   0  0  0  0  0  0  0  0  0  0  0  0
  1  2  1  0  0  0  0
  1 15  1  0  0  0  0
  1 16  1  0  0  0  0
  1 17  1  0  0  0  0
  2 13  1  0  0  0  0
  2  3  2  0  0  0  0
  3  5  1  0  0  0  0
  4 13  1  0  0  0  0
  5  6  2  0  0  0  0
  5  7  1  0  0  0  0
  7  8  2  0  0  0  0
  7 12  1  0  0  0  0
  8  9  1  0  0  0  0
  8 18  1  0  0  0  0
  9 10  2  0  0  0  0
  9 19  1  0  0  0  0
 10 11  1  0  0  0  0
 10 20  1  0  0  0  0
 11 12  2  0  0  0  0
 11 14  1  0  0  0  0
 12 13  1  0  0  0  0
 14 21  1  0  0  0  0
M  END
$$$$
ZINC00006468
  -OEChem-08230709403D

 21 22  0     0  0  0  0  0  0999 V2000
   -0.0129    1.0847    0.0083 C   0  0  0  0  0  0  0  0  0  0  0  0
   -0.7182    1.5711    1.2481 C   0  0  0  0  0  0  0  0  0  0  0  0
    0.0201    1.7804    2.3702 N   0  0  0  0  0  0  0  0  0  0  0  0
   -0.5235    2.7295    5.2494 H   0  0  0  0  0  0  0  0  0  0  0  0
   -0.5666    2.2169    3.5090 C   0  0  0  0  0  0  0  0  0  0  0  0
    0.0827    2.4122    4.5201 O   0  0  0  0  0  0  0  0  0  0  0  0
   -2.0172    2.4558    3.4748 C   0  0  0  0  0  0  0  0  0  0  0  0
   -2.7156    2.9104    4.5922 C   0  0  0  0  0  0  0  0  0  0  0  0
   -4.0753    3.1152    4.5085 C   0  0  0  0  0  0  0  0  0  0  0  0
   -4.7557    2.8716    3.3233 C   0  0  0  0  0  0  0  0  0  0  0  0
   -4.0855    2.4151    2.2050 C   0  0  0  0  0  0  0  0  0  0  0  0
   -2.7013    2.2060    2.2656 C   0  0  0  0  0  0  0  0  0  0  0  0
   -2.0000    1.7688    1.1902 N   0  0  0  0  0  0  0  0  0  0  0  0
   -4.7634    2.1757    1.0517 O   0  0  0  0  0  0  0  0  0  0  0  0
    0.0019   -0.0052    0.0027 H   0  0  0  0  0  0  0  0  0  0  0  0
    1.0097    1.4620    0.0005 H   0  0  0  0  0  0  0  0  0  0  0  0
   -0.5401    1.4455   -0.8749 H   0  0  0  0  0  0  0  0  0  0  0  0
   -2.1937    3.1014    5.5182 H   0  0  0  0  0  0  0  0  0  0  0  0
   -4.6173    3.4681    5.3735 H   0  0  0  0  0  0  0  0  0  0  0  0
   -5.8220    3.0370    3.2761 H   0  0  0  0  0  0  0  0  0  0  0  0
   -5.0967    1.2714    0.9719 H   0  0  0  0  0  0  0  0  0  0  0  0
  1  2  1  0  0  0  0
  1 15  1  0  0  0  0
  1 16  1  0  0  0  0
  1 17  1  0  0  0  0
  2 13  2  0  0  0  0
  2  3  1  0  0  0  0
  3  5  2  0  0  0  0
  4  6  1  0  0  0  0
  5  6  1  0  0  0  0
  5  7  1  0  0  0  0
  7  8  2  0  0  0  0
  7 12  1  0  0  0  0
  8  9  1  0  0  0  0
  8 18  1  0  0  0  0
  9 10  2  0  0  0  0
  9 19  1  0  0  0  0
 10 11  1  0  0  0  0
 10 20  1  0  0  0  0
 11 12  2  0  0  0  0
 11 14  1  0  0  0  0
 12 13  1  0  0  0  0
 14 21  1  0  0  0  0
M  END
$$$$
ZINC00008558
  -OEChem-08230709403D

 24 26  0     0  0  0  0  0  0999 V2000
    2.3356    5.2101    0.0087 C   0  0  0  0  0  0  0  0  0  0  0  0
    1.1447    5.9020    0.0233 C   0  0  0  0  0  0  0  0  0  0  0  0
   -0.0708    5.2039    0.0306 C   0  0  0  0  0  0  0  0  0  0  0  0
   -1.3190    5.8705    0.0460 C   0  0  0  0  0  0  0  0  0  0  0  0
   -2.4931    5.1318    0.0532 C   0  0  0  0  0  0  0  0  0  0  0  0
   -2.4728    3.7490    0.0452 C   0  0  0  0  0  0  0  0  0  0  0  0
   -1.2619    3.0631    0.0296 C   0  0  0  0  0  0  0  0  0  0  0  0
   -0.0511    3.7949    0.0224 C   0  0  0  0  0  0  0  0  0  0  0  0
    1.1794    3.0999    0.0075 C   0  0  0  0  0  0  0  0  0  0  0  0
    2.3650    3.8225    0.0010 C   0  0  0  0  0  0  0  0  0  0  0  0
    1.1599    1.6304   -0.0003 C   0  0  0  0  0  0  0  0  0  0  0  0
    2.2069    1.0114   -0.0132 O   0  0  0  0  0  0  0  0  0  0  0  0
   -0.0111    0.9658    0.0074 N   0  0  0  0  0  0  0  0  0  0  0  0
   -1.1994    1.5981    0.0165 C   0  0  0  0  0  0  0  0  0  0  0  0
   -2.2289    0.9494    0.0184 O   0  0  0  0  0  0  0  0  0  0  0  0
   -1.3680    7.2519    0.0533 N   0  0  0  0  0  0  0  0  0  0  0  0
    3.2658    5.7587    0.0028 H   0  0  0  0  0  0  0  0  0  0  0  0
    1.1475    6.9820    0.0294 H   0  0  0  0  0  0  0  0  0  0  0  0
   -3.4422    5.6470    0.0650 H   0  0  0  0  0  0  0  0  0  0  0  0
   -3.4019    3.1984    0.0508 H   0  0  0  0  0  0  0  0  0  0  0  0
    3.3121    3.3037   -0.0104 H   0  0  0  0  0  0  0  0  0  0  0  0
    0.0021   -0.0041    0.0020 H   0  0  0  0  0  0  0  0  0  0  0  0
   -0.5457    7.7664    0.0479 H   0  0  0  0  0  0  0  0  0  0  0  0
   -2.2247    7.7067    0.0639 H   0  0  0  0  0  0  0  0  0  0  0  0
  1 10  2  0  0  0  0
  1  2  1  0  0  0  0
  1 17  1  0  0  0  0
  2  3  2  0  0  0  0
  2 18  1  0  0  0  0
  3  8  1  0  0  0  0
  3  4  1  0  0  0  0
  4  5  2  0  0  0  0
  4 16  1  0  0  0  0
  5  6  1  0  0  0  0
  5 19  1  0  0  0  0
  6  7  2  0  0  0  0
  6 20  1  0  0  0  0
  7 14  1  0  0  0  0
  7  8  1  0  0  0  0
  8  9  2  0  0  0  0
  9 10  1  0  0  0  0
  9 11  1  0  0  0  0
 10 21  1  0  0  0  0
 11 12  2  0  0  0  0
 11 13  1  0  0  0  0
 13 14  1  0  0  0  0
 13 22  1  0  0  0  0
 14 15  2  0  0  0  0
 16 23  1  0  0  0  0
 16 24  1  0  0  0  0
M  END
$$$$
ZINC00026019
  -OEChem-08230709403D

 30 32  0     0  0  0  0  0  0999 V2000
    0.0021   -0.0041    0.0020 C   0  0  0  0  0  0  0  0  0  0  0  0
   -0.0167    1.3781    0.0096 C   0  0  0  0  0  0  0  0  0  0  0  0
    1.1756    2.0983    0.0021 C   0  0  0  0  0  0  0  0  0  0  0  0
    2.4055    1.4044   -0.0139 C   0  0  0  0  0  0  0  0  0  0  0  0
    2.4021   -0.0016   -0.0214 C   0  0  0  0  0  0  0  0  0  0  0  0
    1.2000   -0.6928   -0.0132 C   0  0  0  0  0  0  0  0  0  0  0  0
    3.7293   -0.3890   -0.0367 N   0  0  0  0  0  0  0  0  0  0  0  0
    4.0747   -1.3274   -0.0451 H   0  0  0  0  0  0  0  0  0  0  0  0
    4.4803    0.7540   -0.0381 C   0  0  0  0  0  0  0  0  0  0  0  0
    3.6900    1.8026   -0.0246 N   0  0  0  0  0  0  0  0  0  0  0  0
    5.9568    0.8018   -0.0526 C   0  0  0  0  0  0  0  0  0  0  0  0
    6.6955   -0.3834   -0.0600 C   0  0  0  0  0  0  0  0  0  0  0  0
    8.0724   -0.3346   -0.0789 C   0  0  0  0  0  0  0  0  0  0  0  0
    8.7259    0.8913   -0.0798 C   0  0  0  0  0  0  0  0  0  0  0  0
    7.9946    2.0725   -0.0667 C   0  0  0  0  0  0  0  0  0  0  0  0
    6.6175    2.0322   -0.0531 C   0  0  0  0  0  0  0  0  0  0  0  0
   10.0831    0.9352   -0.0932 O   0  0  0  0  0  0  0  0  0  0  0  0
    1.1537    3.5715    0.0108 C   0  0  0  0  0  0  0  0  0  0  0  0
    2.1978    4.1951    0.0041 O   0  0  0  0  0  0  0  0  0  0  0  0
   -0.0232    4.2279    0.0260 N   0  0  0  0  0  0  0  0  0  0  0  0
   -0.9290   -0.5513    0.0076 H   0  0  0  0  0  0  0  0  0  0  0  0
   -0.9608    1.9025    0.0169 H   0  0  0  0  0  0  0  0  0  0  0  0
    1.2000   -1.7728   -0.0190 H   0  0  0  0  0  0  0  0  0  0  0  0
    6.1882   -1.3368   -0.0548 H   0  0  0  0  0  0  0  0  0  0  0  0
    8.6443   -1.2507   -0.0888 H   0  0  0  0  0  0  0  0  0  0  0  0
    8.5063    3.0236   -0.0674 H   0  0  0  0  0  0  0  0  0  0  0  0
    6.0497    2.9508   -0.0425 H   0  0  0  0  0  0  0  0  0  0  0  0
   10.4850    0.9436    0.7863 H   0  0  0  0  0  0  0  0  0  0  0  0
   -0.8560    3.7305    0.0313 H   0  0  0  0  0  0  0  0  0  0  0  0
   -0.0376    5.1978    0.0317 H   0  0  0  0  0  0  0  0  0  0  0  0
  1  6  2  0  0  0  0
  1  2  1  0  0  0  0
  1 21  1  0  0  0  0
  2  3  2  0  0  0  0
  2 22  1  0  0  0  0
  3  4  1  0  0  0  0
  3 18  1  0  0  0  0
  4 10  1  0  0  0  0
  4  5  2  0  0  0  0
  5  6  1  0  0  0  0
  5  7  1  0  0  0  0
  6 23  1  0  0  0  0
  7  8  1  0  0  0  0
  7  9  1  0  0  0  0
  9 10  2  0  0  0  0
  9 11  1  0  0  0  0
 11 16  2  0  0  0  0
 11 12  1  0  0  0  0
 12 13  2  0  0  0  0
 12 24  1  0  0  0  0
 13 14  1  0  0  0  0
 13 25  1  0  0  0  0
 14 15  2  0  0  0  0
 14 17  1  0  0  0  0
 15 16  1  0  0  0  0
 15 26  1  0  0  0  0
 16 27  1  0  0  0  0
 17 28  1  0  0  0  0
 18 19  2  0  0  0  0
 18 20  1  0  0  0  0
 20 29  1  0  0  0  0
 20 30  1  0  0  0  0
M  END
$$$$
ZINC00157165
  -OEChem-08230709403D

 18 18  0     0  0  0  0  0  0999 V2000
    1.1761    1.7808    0.0004 C   0  0  0  0  0  0  0  0  0  0  0  0
    1.1655    3.1610    0.0074 C   0  0  0  0  0  0  0  0  0  0  0  0
   -0.0484    3.8496    0.0223 C   0  0  0  0  0  0  0  0  0  0  0  0
   -1.2484    3.1383    0.0299 C   0  0  0  0  0  0  0  0  0  0  0  0
   -1.2272    1.7522    0.0174 C   0  0  0  0  0  0  0  0  0  0  0  0
   -0.0126    1.0758    0.0080 C   0  0  0  0  0  0  0  0  0  0  0  0
   -2.4262    1.0350    0.0197 N   0  0  0  0  0  0  0  0  0  0  0  0
   -0.0625    5.3281    0.0303 C   0  0  0  0  0  0  0  0  0  0  0  0
   -1.1208    5.9258    0.0433 O   0  0  0  0  0  0  0  0  0  0  0  0
    1.0982    6.0131    0.0234 N   0  0  0  0  0  0  0  0  0  0  0  0
    2.1166    1.2499   -0.0114 H   0  0  0  0  0  0  0  0  0  0  0  0
    2.0967    3.7081    0.0011 H   0  0  0  0  0  0  0  0  0  0  0  0
   -2.1908    3.6657    0.0417 H   0  0  0  0  0  0  0  0  0  0  0  0
    0.0021   -0.0041    0.0020 H   0  0  0  0  0  0  0  0  0  0  0  0
   -2.4112    0.0652    0.0147 H   0  0  0  0  0  0  0  0  0  0  0  0
   -3.2736    1.5070    0.0262 H   0  0  0  0  0  0  0  0  0  0  0  0
    1.9428    5.5361    0.0131 H   0  0  0  0  0  0  0  0  0  0  0  0
    1.0890    6.9830    0.0287 H   0  0  0  0  0  0  0  0  0  0  0  0
  1  6  2  0  0  0  0
  1  2  1  0  0  0  0
  1 11  1  0  0  0  0
  2  3  2  0  0  0  0
  2 12  1  0  0  0  0
  3  4  1  0  0  0  0
  3  8  1  0  0  0  0
  4  5  2  0  0  0  0
  4 13  1  0  0  0  0
  5  6  1  0  0  0  0
  5  7  1  0  0  0  0
  6 14  1  0  0  0  0
  7 15  1  0  0  0  0
  7 16  1  0  0  0  0
  8  9  2  0  0  0  0
  8 10  1  0  0  0  0
 10 17  1  0  0  0  0
 10 18  1  0  0  0  0
M  END
$$$$
ZINC03628257
  -OEChem-08230709403D

 24 26  0     0  0  0  0  0  0999 V2000
   -4.4649   -1.4732   -0.6689 C   0  0  0  0  0  0  0  0  0  0  0  0
   -4.4958   -1.4233    0.7089 C   0  0  0  0  0  0  0  0  0  0  0  0
   -3.6197   -0.5770    1.3907 C   0  0  0  0  0  0  0  0  0  0  0  0
   -3.3892   -0.2908    2.8092 C   0  0  0  0  0  0  0  0  0  0  0  0
   -2.3341    0.5327    2.8721 C   0  0  0  0  0  0  0  0  0  0  0  0
   -1.8651    0.7959    1.6103 N   0  0  0  0  0  0  0  0  0  0  0  0
   -2.6945    0.2052    0.6774 C   0  0  0  0  0  0  0  0  0  0  0  0
   -2.7368    0.2165   -0.7247 C   0  0  0  0  0  0  0  0  0  0  0  0
   -3.6053   -0.6613   -1.3820 C   0  0  0  0  0  0  0  0  0  0  0  0
   -1.9097    1.1236   -1.5245 C   0  0  0  0  0  0  0  0  0  0  0  0
   -2.3738    1.5266   -2.5737 O   0  0  0  0  0  0  0  0  0  0  0  0
   -0.6759    1.5467   -1.1888 N   0  0  0  0  0  0  0  0  0  0  0  0
   -0.0127    1.0858    0.0080 C   0  0  0  0  0  0  0  0  0  0  0  0
   -0.6806    1.5531    1.2747 C   0  0  0  0  0  0  0  0  0  0  0  0
   -5.1187   -2.1533   -1.1947 H   0  0  0  0  0  0  0  0  0  0  0  0
   -5.1948   -2.0366    1.2581 H   0  0  0  0  0  0  0  0  0  0  0  0
   -3.9603   -0.6703    3.6436 H   0  0  0  0  0  0  0  0  0  0  0  0
   -1.9141    0.9313    3.7837 H   0  0  0  0  0  0  0  0  0  0  0  0
   -3.6037   -0.7042   -2.4612 H   0  0  0  0  0  0  0  0  0  0  0  0
   -0.2202    2.1781   -1.7672 H   0  0  0  0  0  0  0  0  0  0  0  0
    0.0021   -0.0041    0.0020 H   0  0  0  0  0  0  0  0  0  0  0  0
    1.0150    1.4488    0.0001 H   0  0  0  0  0  0  0  0  0  0  0  0
    0.0300    1.4684    2.0969 H   0  0  0  0  0  0  0  0  0  0  0  0
   -0.9553    2.6016    1.1593 H   0  0  0  0  0  0  0  0  0  0  0  0
  1  9  2  0  0  0  0
  1  2  1  0  0  0  0
  1 15  1  0  0  0  0
  2  3  2  0  0  0  0
  2 16  1  0  0  0  0
  3  7  1  0  0  0  0
  3  4  1  0  0  0  0
  4  5  2  0  0  0  0
  4 17  1  0  0  0  0
  5  6  1  0  0  0  0
  5 18  1  0  0  0  0
  6 14  1  0  0  0  0
  6  7  1  0  0  0  0
  7  8  2  0  0  0  0
  8  9  1  0  0  0  0
  8 10  1  0  0  0  0
  9 19  1  0  0  0  0
 10 11  2  0  0  0  0
 10 12  1  0  0  0  0
 12 13  1  0  0  0  0
 12 20  1  0  0  0  0
 13 14  1  0  0  0  0
 13 21  1  0  0  0  0
 13 22  1  0  0  0  0
 14 23  1  0  0  0  0
 14 24  1  0  0  0  0
M  END
$$$$
ZINC03832178
  -OEChem-08230709403D

 26 28  0     0  0  0  0  0  0999 V2000
    0.6575   -2.7030   -0.2588 C   0  0  0  0  0  0  0  0  0  0  0  0
    1.6630   -1.7577   -0.2272 C   0  0  0  0  0  0  0  0  0  0  0  0
    1.3411   -0.4096   -0.0973 C   0  0  0  0  0  0  0  0  0  0  0  0
    2.1480    0.8263   -0.0724 C   0  0  0  0  0  0  0  0  0  0  0  0
    1.2510    1.8656    0.0001 C   0  0  0  0  0  0  0  0  0  0  0  0
   -0.0167    1.3800    0.0096 N   0  0  0  0  0  0  0  0  0  0  0  0
    0.0021   -0.0041    0.0020 C   0  0  0  0  0  0  0  0  0  0  0  0
   -1.0048   -0.9794    0.0656 C   0  0  0  0  0  0  0  0  0  0  0  0
   -0.6613   -2.3239   -0.1148 C   0  0  0  0  0  0  0  0  0  0  0  0
   -2.3958   -0.6501    0.3889 C   0  0  0  0  0  0  0  0  0  0  0  0
   -3.0369   -1.4795    1.0050 O   0  0  0  0  0  0  0  0  0  0  0  0
   -3.0218    0.4947    0.0596 N   0  0  0  0  0  0  0  0  0  0  0  0
   -2.3705    1.5194   -0.7222 C   0  0  0  0  0  0  0  0  0  0  0  0
   -1.2249    2.1792   -0.0016 C   0  0  0  0  0  0  0  0  0  0  0  0
    3.5618    0.9220   -0.1147 C   0  0  0  0  0  0  0  0  0  0  0  0
    4.2367   -0.0850   -0.1787 O   0  0  0  0  0  0  0  0  0  0  0  0
    0.9045   -3.7452   -0.3973 H   0  0  0  0  0  0  0  0  0  0  0  0
    2.6962   -2.0630   -0.3034 H   0  0  0  0  0  0  0  0  0  0  0  0
    1.5153    2.9119    0.0428 H   0  0  0  0  0  0  0  0  0  0  0  0
   -1.4379   -3.0740   -0.1409 H   0  0  0  0  0  0  0  0  0  0  0  0
   -3.9350    0.6352    0.3550 H   0  0  0  0  0  0  0  0  0  0  0  0
   -1.9940    1.0716   -1.6419 H   0  0  0  0  0  0  0  0  0  0  0  0
   -3.1050    2.2823   -0.9804 H   0  0  0  0  0  0  0  0  0  0  0  0
   -1.5250    2.3735    1.0281 H   0  0  0  0  0  0  0  0  0  0  0  0
   -1.0094    3.1317   -0.4858 H   0  0  0  0  0  0  0  0  0  0  0  0
    4.0384    1.8908   -0.0901 H   0  0  0  0  0  0  0  0  0  0  0  0
  1  9  2  0  0  0  0
  1  2  1  0  0  0  0
  1 17  1  0  0  0  0
  2  3  2  0  0  0  0
  2 18  1  0  0  0  0
  3  7  1  0  0  0  0
  3  4  1  0  0  0  0
  4  5  2  0  0  0  0
  4 15  1  0  0  0  0
  5  6  1  0  0  0  0
  5 19  1  0  0  0  0
  6 14  1  0  0  0  0
  6  7  1  0  0  0  0
  7  8  2  0  0  0  0
  8  9  1  0  0  0  0
  8 10  1  0  0  0  0
  9 20  1  0  0  0  0
 10 11  2  0  0  0  0
 10 12  1  0  0  0  0
 12 13  1  0  0  0  0
 12 21  1  0  0  0  0
 13 14  1  0  0  0  0
 13 22  1  0  0  0  0
 13 23  1  0  0  0  0
 14 24  1  0  0  0  0
 14 25  1  0  0  0  0
 15 16  2  0  0  0  0
 15 26  1  0  0  0  0
M  END
$$$$
ZINC03832180
  -OEChem-08230709403D

 28 30  0     0  0  0  0  0  0999 V2000
    0.6722   -2.6932   -0.2974 C   0  0  0  0  0  0  0  0  0  0  0  0
    1.6729   -1.7448   -0.2759 C   0  0  0  0  0  0  0  0  0  0  0  0
    1.3465   -0.3964   -0.1212 C   0  0  0  0  0  0  0  0  0  0  0  0
    2.1383    0.8357   -0.0774 C   0  0  0  0  0  0  0  0  0  0  0  0
    1.2698    1.8527   -0.0001 C   0  0  0  0  0  0  0  0  0  0  0  0
   -0.0166    1.3764    0.0096 N   0  0  0  0  0  0  0  0  0  0  0  0
    0.0021   -0.0041    0.0020 C   0  0  0  0  0  0  0  0  0  0  0  0
   -0.9978   -0.9855    0.0721 C   0  0  0  0  0  0  0  0  0  0  0  0
   -0.6475   -2.3255   -0.1234 C   0  0  0  0  0  0  0  0  0  0  0  0
   -2.3870   -0.6628    0.4094 C   0  0  0  0  0  0  0  0  0  0  0  0
   -3.0214   -1.4958    1.0277 O   0  0  0  0  0  0  0  0  0  0  0  0
   -3.0160    0.4831    0.0882 N   0  0  0  0  0  0  0  0  0  0  0  0
   -2.3760    1.5101   -0.6997 C   0  0  0  0  0  0  0  0  0  0  0  0
   -1.2248    2.1744    0.0092 C   0  0  0  0  0  0  0  0  0  0  0  0
    3.6413    0.9390   -0.1129 C   0  0  0  0  0  0  0  0  0  0  0  0
    4.0259    2.3139   -0.0504 O   0  0  0  0  0  0  0  0  0  0  0  0
    0.9225   -3.7323   -0.4521 H   0  0  0  0  0  0  0  0  0  0  0  0
    2.7055   -2.0441   -0.3787 H   0  0  0  0  0  0  0  0  0  0  0  0
    1.5428    2.8966    0.0476 H   0  0  0  0  0  0  0  0  0  0  0  0
   -1.4185   -3.0817   -0.1384 H   0  0  0  0  0  0  0  0  0  0  0  0
   -3.9256    0.6229    0.3947 H   0  0  0  0  0  0  0  0  0  0  0  0
   -2.0074    1.0636   -1.6232 H   0  0  0  0  0  0  0  0  0  0  0  0
   -3.1156    2.2704   -0.9505 H   0  0  0  0  0  0  0  0  0  0  0  0
   -1.5153    2.3700    1.0414 H   0  0  0  0  0  0  0  0  0  0  0  0
   -1.0154    3.1261   -0.4791 H   0  0  0  0  0  0  0  0  0  0  0  0
    4.0625    0.4049    0.7388 H   0  0  0  0  0  0  0  0  0  0  0  0
    4.0140    0.4992   -1.0380 H   0  0  0  0  0  0  0  0  0  0  0  0
    4.9822    2.4560   -0.0690 H   0  0  0  0  0  0  0  0  0  0  0  0
  1  9  2  0  0  0  0
  1  2  1  0  0  0  0
  1 17  1  0  0  0  0
  2  3  2  0  0  0  0
  2 18  1  0  0  0  0
  3  7  1  0  0  0  0
  3  4  1  0  0  0  0
  4  5  2  0  0  0  0
  4 15  1  0  0  0  0
  5  6  1  0  0  0  0
  5 19  1  0  0  0  0
  6 14  1  0  0  0  0
  6  7  1  0  0  0  0
  7  8  2  0  0  0  0
  8  9  1  0  0  0  0
  8 10  1  0  0  0  0
  9 20  1  0  0  0  0
 10 11  2  0  0  0  0
 10 12  1  0  0  0  0
 12 13  1  0  0  0  0
 12 21  1  0  0  0  0
 13 14  1  0  0  0  0
 13 22  1  0  0  0  0
 13 23  1  0  0  0  0
 14 24  1  0  0  0  0
 14 25  1  0  0  0  0
 15 16  1  0  0  0  0
 15 26  1  0  0  0  0
 15 27  1  0  0  0  0
 16 28  1  0  0  0  0
M  END
$$$$
ZINC03832181
  -OEChem-08230709403D

 27 29  0     0  0  0  0  0  0999 V2000
   -0.7332    2.7155   -4.6874 C   0  0  0  0  0  0  0  0  0  0  0  0
   -0.9866    2.2990   -3.2614 C   0  0  0  0  0  0  0  0  0  0  0  0
   -0.0844    1.8102   -2.4001 C   0  0  0  0  0  0  0  0  0  0  0  0
   -0.6785    1.5483   -1.1915 N   0  0  0  0  0  0  0  0  0  0  0  0
   -2.0347    1.7906   -1.2825 C   0  0  0  0  0  0  0  0  0  0  0  0
   -2.2671    2.3510   -2.5509 C   0  0  0  0  0  0  0  0  0  0  0  0
   -3.5371    2.8211   -2.8890 C   0  0  0  0  0  0  0  0  0  0  0  0
   -4.5683    2.7217   -1.9788 C   0  0  0  0  0  0  0  0  0  0  0  0
   -4.3653    2.1247   -0.7502 C   0  0  0  0  0  0  0  0  0  0  0  0
   -3.1105    1.6158   -0.3996 C   0  0  0  0  0  0  0  0  0  0  0  0
   -2.9800    0.8628    0.8510 C   0  0  0  0  0  0  0  0  0  0  0  0
   -3.9527    0.2430    1.2362 O   0  0  0  0  0  0  0  0  0  0  0  0
   -1.8677    0.8040    1.6067 N   0  0  0  0  0  0  0  0  0  0  0  0
   -0.6815    1.5535    1.2742 C   0  0  0  0  0  0  0  0  0  0  0  0
   -0.0127    1.0858    0.0080 C   0  0  0  0  0  0  0  0  0  0  0  0
   -0.4576    3.7698   -4.7144 H   0  0  0  0  0  0  0  0  0  0  0  0
    0.0782    2.1172   -5.1019 H   0  0  0  0  0  0  0  0  0  0  0  0
   -1.6367    2.5609   -5.2771 H   0  0  0  0  0  0  0  0  0  0  0  0
    0.9591    1.6461   -2.6245 H   0  0  0  0  0  0  0  0  0  0  0  0
   -3.7114    3.2614   -3.8596 H   0  0  0  0  0  0  0  0  0  0  0  0
   -5.5428    3.1144   -2.2288 H   0  0  0  0  0  0  0  0  0  0  0  0
   -5.1853    2.0502   -0.0514 H   0  0  0  0  0  0  0  0  0  0  0  0
   -1.8646    0.2413    2.3968 H   0  0  0  0  0  0  0  0  0  0  0  0
    0.0271    1.4640    2.0976 H   0  0  0  0  0  0  0  0  0  0  0  0
   -0.9505    2.6037    1.1603 H   0  0  0  0  0  0  0  0  0  0  0  0
    0.0021   -0.0041    0.0020 H   0  0  0  0  0  0  0  0  0  0  0  0
    1.0149    1.4492    0.0002 H   0  0  0  0  0  0  0  0  0  0  0  0
  1  2  1  0  0  0  0
  1 16  1  0  0  0  0
  1 17  1  0  0  0  0
  1 18  1  0  0  0  0
  2  6  1  0  0  0  0
  2  3  2  0  0  0  0
  3  4  1  0  0  0  0
  3 19  1  0  0  0  0
  4 15  1  0  0  0  0
  4  5  1  0  0  0  0
  5 10  2  0  0  0  0
  5  6  1  0  0  0  0
  6  7  2  0  0  0  0
  7  8  1  0  0  0  0
  7 20  1  0  0  0  0
  8  9  2  0  0  0  0
  8 21  1  0  0  0  0
  9 10  1  0  0  0  0
  9 22  1  0  0  0  0
 10 11  1  0  0  0  0
 11 12  2  0  0  0  0
 11 13  1  0  0  0  0
 13 14  1  0  0  0  0
 13 23  1  0  0  0  0
 14 15  1  0  0  0  0
 14 24  1  0  0  0  0
 14 25  1  0  0  0  0
 15 26  1  0  0  0  0
 15 27  1  0  0  0  0
M  END
$$$$
ZINC03832182
  -OEChem-08230709403D

 24 26  0     0  0  0  0  0  0999 V2000
    0.6718   -2.6934   -0.2973 C   0  0  0  0  0  0  0  0  0  0  0  0
    1.6726   -1.7451   -0.2759 C   0  0  0  0  0  0  0  0  0  0  0  0
    1.3464   -0.3966   -0.1212 C   0  0  0  0  0  0  0  0  0  0  0  0
    2.1388    0.8354   -0.0774 C   0  0  0  0  0  0  0  0  0  0  0  0
    1.2704    1.8529   -0.0001 C   0  0  0  0  0  0  0  0  0  0  0  0
   -0.0166    1.3763    0.0096 N   0  0  0  0  0  0  0  0  0  0  0  0
    0.0021   -0.0041    0.0020 C   0  0  0  0  0  0  0  0  0  0  0  0
   -0.9980   -0.9855    0.0722 C   0  0  0  0  0  0  0  0  0  0  0  0
   -0.6479   -2.3255   -0.1233 C   0  0  0  0  0  0  0  0  0  0  0  0
   -2.3872   -0.6627    0.4094 C   0  0  0  0  0  0  0  0  0  0  0  0
   -3.0216   -1.4955    1.0278 O   0  0  0  0  0  0  0  0  0  0  0  0
   -3.0161    0.4832    0.0881 N   0  0  0  0  0  0  0  0  0  0  0  0
   -2.3761    1.5100   -0.7003 C   0  0  0  0  0  0  0  0  0  0  0  0
   -1.2247    2.1743    0.0091 C   0  0  0  0  0  0  0  0  0  0  0  0
    4.2283    0.9783   -0.1262 I   0  0  0  0  0  0  0  0  0  0  0  0
    0.9220   -3.7325   -0.4519 H   0  0  0  0  0  0  0  0  0  0  0  0
    2.7052   -2.0445   -0.3788 H   0  0  0  0  0  0  0  0  0  0  0  0
    1.5436    2.8967    0.0476 H   0  0  0  0  0  0  0  0  0  0  0  0
   -1.4189   -3.0816   -0.1382 H   0  0  0  0  0  0  0  0  0  0  0  0
   -3.9256    0.6232    0.3946 H   0  0  0  0  0  0  0  0  0  0  0  0
   -2.0075    1.0632   -1.6236 H   0  0  0  0  0  0  0  0  0  0  0  0
   -3.1158    2.2702   -0.9513 H   0  0  0  0  0  0  0  0  0  0  0  0
   -1.5154    2.3699    1.0413 H   0  0  0  0  0  0  0  0  0  0  0  0
   -1.0152    3.1261   -0.4791 H   0  0  0  0  0  0  0  0  0  0  0  0
  1  9  2  0  0  0  0
  1  2  1  0  0  0  0
  1 16  1  0  0  0  0
  2  3  2  0  0  0  0
  2 17  1  0  0  0  0
  3  7  1  0  0  0  0
  3  4  1  0  0  0  0
  4  5  2  0  0  0  0
  4 15  1  0  0  0  0
  5  6  1  0  0  0  0
  5 18  1  0  0  0  0
  6 14  1  0  0  0  0
  6  7  1  0  0  0  0
  7  8  2  0  0  0  0
  8  9  1  0  0  0  0
  8 10  1  0  0  0  0
  9 19  1  0  0  0  0
 10 11  2  0  0  0  0
 10 12  1  0  0  0  0
 12 13  1  0  0  0  0
 12 20  1  0  0  0  0
 13 14  1  0  0  0  0
 13 21  1  0  0  0  0
 13 22  1  0  0  0  0
 14 23  1  0  0  0  0
 14 24  1  0  0  0  0
M  END
$$$$
ZINC03832184
  -OEChem-08230709403D

 30 32  0     0  0  0  0  0  0999 V2000
    0.6964    3.0855   -6.5312 C   0  0  0  0  0  0  0  0  0  0  0  0
    0.5172    2.6512   -5.1574 O   0  0  0  0  0  0  0  0  0  0  0  0
   -0.7301    2.7234   -4.6503 C   0  0  0  0  0  0  0  0  0  0  0  0
   -1.6429    3.1383   -5.3381 O   0  0  0  0  0  0  0  0  0  0  0  0
   -0.9859    2.3014   -3.2681 C   0  0  0  0  0  0  0  0  0  0  0  0
   -0.0742    1.8187   -2.3799 C   0  0  0  0  0  0  0  0  0  0  0  0
   -0.6783    1.5483   -1.1925 N   0  0  0  0  0  0  0  0  0  0  0  0
   -2.0372    1.7890   -1.2873 C   0  0  0  0  0  0  0  0  0  0  0  0
   -2.2819    2.3160   -2.5644 C   0  0  0  0  0  0  0  0  0  0  0  0
   -3.5562    2.7558   -2.9132 C   0  0  0  0  0  0  0  0  0  0  0  0
   -4.5853    2.6714   -1.9971 C   0  0  0  0  0  0  0  0  0  0  0  0
   -4.3712    2.1082   -0.7555 C   0  0  0  0  0  0  0  0  0  0  0  0
   -3.1110    1.6146   -0.4012 C   0  0  0  0  0  0  0  0  0  0  0  0
   -2.9781    0.8633    0.8503 C   0  0  0  0  0  0  0  0  0  0  0  0
   -3.9509    0.2442    1.2361 O   0  0  0  0  0  0  0  0  0  0  0  0
   -1.8671    0.8035    1.6071 N   0  0  0  0  0  0  0  0  0  0  0  0
   -0.6807    1.5531    1.2743 C   0  0  0  0  0  0  0  0  0  0  0  0
   -0.0127    1.0858    0.0080 C   0  0  0  0  0  0  0  0  0  0  0  0
    0.0771    2.4756   -7.1889 H   0  0  0  0  0  0  0  0  0  0  0  0
    0.4031    4.1313   -6.6229 H   0  0  0  0  0  0  0  0  0  0  0  0
    1.7435    2.9758   -6.8133 H   0  0  0  0  0  0  0  0  0  0  0  0
    0.9754    1.6722   -2.5881 H   0  0  0  0  0  0  0  0  0  0  0  0
   -3.7387    3.1619   -3.8971 H   0  0  0  0  0  0  0  0  0  0  0  0
   -5.5642    3.0489   -2.2536 H   0  0  0  0  0  0  0  0  0  0  0  0
   -5.1861    2.0474   -0.0494 H   0  0  0  0  0  0  0  0  0  0  0  0
   -1.8648    0.2413    2.3976 H   0  0  0  0  0  0  0  0  0  0  0  0
    0.0282    1.4631    2.0974 H   0  0  0  0  0  0  0  0  0  0  0  0
   -0.9494    2.6034    1.1609 H   0  0  0  0  0  0  0  0  0  0  0  0
    0.0021   -0.0041    0.0020 H   0  0  0  0  0  0  0  0  0  0  0  0
    1.0150    1.4489    0.0001 H   0  0  0  0  0  0  0  0  0  0  0  0
  1  2  1  0  0  0  0
  1 19  1  0  0  0  0
  1 20  1  0  0  0  0
  1 21  1  0  0  0  0
  2  3  1  0  0  0  0
  3  4  2  0  0  0  0
  3  5  1  0  0  0  0
  5  9  1  0  0  0  0
  5  6  2  0  0  0  0
  6  7  1  0  0  0  0
  6 22  1  0  0  0  0
  7 18  1  0  0  0  0
  7  8  1  0  0  0  0
  8 13  2  0  0  0  0
  8  9  1  0  0  0  0
  9 10  2  0  0  0  0
 10 11  1  0  0  0  0
 10 23  1  0  0  0  0
 11 12  2  0  0  0  0
 11 24  1  0  0  0  0
 12 13  1  0  0  0  0
 12 25  1  0  0  0  0
 13 14  1  0  0  0  0
 14 15  2  0  0  0  0
 14 16  1  0  0  0  0
 16 17  1  0  0  0  0
 16 26  1  0  0  0  0
 17 18  1  0  0  0  0
 17 27  1  0  0  0  0
 17 28  1  0  0  0  0
 18 29  1  0  0  0  0
 18 30  1  0  0  0  0
M  END
$$$$
ZINC03832185
  -OEChem-08230709403D

 28 30  0     0  0  0  0  0  0999 V2000
    4.8296    1.9301    0.3642 C   0  0  0  0  0  0  0  0  0  0  0  0
    5.1346    0.8226   -0.4006 C   0  0  0  0  0  0  0  0  0  0  0  0
    4.1091    0.0715   -0.9697 C   0  0  0  0  0  0  0  0  0  0  0  0
    4.0863   -1.1335   -1.8186 C   0  0  0  0  0  0  0  0  0  0  0  0
    2.7781   -1.4346   -2.0222 C   0  0  0  0  0  0  0  0  0  0  0  0
    1.9854   -0.5381   -1.3653 N   0  0  0  0  0  0  0  0  0  0  0  0
    2.7678    0.4373   -0.7753 C   0  0  0  0  0  0  0  0  0  0  0  0
    2.4731    1.6127   -0.0678 C   0  0  0  0  0  0  0  0  0  0  0  0
    3.5175    2.3239    0.5328 C   0  0  0  0  0  0  0  0  0  0  0  0
    1.1171    2.1643    0.0030 C   0  0  0  0  0  0  0  0  0  0  0  0
    1.0080    3.3740    0.0598 O   0  0  0  0  0  0  0  0  0  0  0  0
   -0.0175    1.4397    0.0100 N   0  0  0  0  0  0  0  0  0  0  0  0
    0.0021   -0.0041    0.0020 C   0  0  0  0  0  0  0  0  0  0  0  0
    0.5408   -0.5854   -1.2785 C   0  0  0  0  0  0  0  0  0  0  0  0
    5.2509   -1.8655   -2.3415 C   0  0  0  0  0  0  0  0  0  0  0  0
    6.4496   -1.4598   -2.0630 N   0  0  0  0  0  0  0  0  0  0  0  0
    7.5702   -2.1641   -2.5661 O   0  0  0  0  0  0  0  0  0  0  0  0
    5.6229    2.4927    0.8336 H   0  0  0  0  0  0  0  0  0  0  0  0
    6.1650    0.5394   -0.5575 H   0  0  0  0  0  0  0  0  0  0  0  0
    2.4178   -2.2616   -2.6159 H   0  0  0  0  0  0  0  0  0  0  0  0
    3.2943    3.1915    1.1360 H   0  0  0  0  0  0  0  0  0  0  0  0
   -0.8713    1.9000    0.0165 H   0  0  0  0  0  0  0  0  0  0  0  0
    0.6201   -0.3501    0.8305 H   0  0  0  0  0  0  0  0  0  0  0  0
   -1.0146   -0.3685    0.1490 H   0  0  0  0  0  0  0  0  0  0  0  0
    0.2197   -1.6244   -1.3533 H   0  0  0  0  0  0  0  0  0  0  0  0
    0.1232   -0.0296   -2.1180 H   0  0  0  0  0  0  0  0  0  0  0  0
    5.1065   -2.7409   -2.9573 H   0  0  0  0  0  0  0  0  0  0  0  0
    8.4215   -1.7867   -2.3053 H   0  0  0  0  0  0  0  0  0  0  0  0
  1  9  2  0  0  0  0
  1  2  1  0  0  0  0
  1 18  1  0  0  0  0
  2  3  2  0  0  0  0
  2 19  1  0  0  0  0
  3  7  1  0  0  0  0
  3  4  1  0  0  0  0
  4  5  2  0  0  0  0
  4 15  1  0  0  0  0
  5  6  1  0  0  0  0
  5 20  1  0  0  0  0
  6 14  1  0  0  0  0
  6  7  1  0  0  0  0
  7  8  2  0  0  0  0
  8  9  1  0  0  0  0
  8 10  1  0  0  0  0
  9 21  1  0  0  0  0
 10 11  2  0  0  0  0
 10 12  1  0  0  0  0
 12 13  1  0  0  0  0
 12 22  1  0  0  0  0
 13 14  1  0  0  0  0
 13 23  1  0  0  0  0
 13 24  1  0  0  0  0
 14 25  1  0  0  0  0
 14 26  1  0  0  0  0
 15 16  2  0  0  0  0
 15 27  1  0  0  0  0
 16 17  1  0  0  0  0
 17 28  1  0  0  0  0
M  END
$$$$
ZINC03832187
  -OEChem-08230709403D

 31 33  0     0  0  0  0  0  0999 V2000
    8.8282   -1.6063   -2.1808 C   0  0  0  0  0  0  0  0  0  0  0  0
    7.5702   -2.1641   -2.5661 O   0  0  0  0  0  0  0  0  0  0  0  0
    6.4496   -1.4598   -2.0630 N   0  0  0  0  0  0  0  0  0  0  0  0
    5.2509   -1.8655   -2.3415 C   0  0  0  0  0  0  0  0  0  0  0  0
    4.0863   -1.1335   -1.8186 C   0  0  0  0  0  0  0  0  0  0  0  0
    2.7781   -1.4346   -2.0222 C   0  0  0  0  0  0  0  0  0  0  0  0
    1.9854   -0.5381   -1.3653 N   0  0  0  0  0  0  0  0  0  0  0  0
    2.7678    0.4373   -0.7753 C   0  0  0  0  0  0  0  0  0  0  0  0
    4.1091    0.0715   -0.9697 C   0  0  0  0  0  0  0  0  0  0  0  0
    5.1346    0.8226   -0.4006 C   0  0  0  0  0  0  0  0  0  0  0  0
    4.8296    1.9301    0.3642 C   0  0  0  0  0  0  0  0  0  0  0  0
    3.5175    2.3239    0.5328 C   0  0  0  0  0  0  0  0  0  0  0  0
    2.4731    1.6127   -0.0678 C   0  0  0  0  0  0  0  0  0  0  0  0
    1.1171    2.1643    0.0030 C   0  0  0  0  0  0  0  0  0  0  0  0
    1.0080    3.3740    0.0598 O   0  0  0  0  0  0  0  0  0  0  0  0
   -0.0175    1.4397    0.0100 N   0  0  0  0  0  0  0  0  0  0  0  0
    0.0021   -0.0041    0.0020 C   0  0  0  0  0  0  0  0  0  0  0  0
    0.5408   -0.5854   -1.2785 C   0  0  0  0  0  0  0  0  0  0  0  0
    8.9088   -1.6080   -1.0938 H   0  0  0  0  0  0  0  0  0  0  0  0
    9.6355   -2.2026   -2.6059 H   0  0  0  0  0  0  0  0  0  0  0  0
    8.8998   -0.5828   -2.5488 H   0  0  0  0  0  0  0  0  0  0  0  0
    5.1065   -2.7409   -2.9573 H   0  0  0  0  0  0  0  0  0  0  0  0
    2.4178   -2.2616   -2.6159 H   0  0  0  0  0  0  0  0  0  0  0  0
    6.1650    0.5394   -0.5575 H   0  0  0  0  0  0  0  0  0  0  0  0
    5.6229    2.4927    0.8336 H   0  0  0  0  0  0  0  0  0  0  0  0
    3.2943    3.1915    1.1360 H   0  0  0  0  0  0  0  0  0  0  0  0
   -0.8713    1.9000    0.0165 H   0  0  0  0  0  0  0  0  0  0  0  0
    0.6201   -0.3501    0.8305 H   0  0  0  0  0  0  0  0  0  0  0  0
   -1.0146   -0.3685    0.1490 H   0  0  0  0  0  0  0  0  0  0  0  0
    0.2197   -1.6244   -1.3533 H   0  0  0  0  0  0  0  0  0  0  0  0
    0.1232   -0.0296   -2.1180 H   0  0  0  0  0  0  0  0  0  0  0  0
  1  2  1  0  0  0  0
  1 19  1  0  0  0  0
  1 20  1  0  0  0  0
  1 21  1  0  0  0  0
  2  3  1  0  0  0  0
  3  4  2  0  0  0  0
  4  5  1  0  0  0  0
  4 22  1  0  0  0  0
  5  9  1  0  0  0  0
  5  6  2  0  0  0  0
  6  7  1  0  0  0  0
  6 23  1  0  0  0  0
  7 18  1  0  0  0  0
  7  8  1  0  0  0  0
  8 13  2  0  0  0  0
  8  9  1  0  0  0  0
  9 10  2  0  0  0  0
 10 11  1  0  0  0  0
 10 24  1  0  0  0  0
 11 12  2  0  0  0  0
 11 25  1  0  0  0  0
 12 13  1  0  0  0  0
 12 26  1  0  0  0  0
 13 14  1  0  0  0  0
 14 15  2  0  0  0  0
 14 16  1  0  0  0  0
 16 17  1  0  0  0  0
 16 27  1  0  0  0  0
 17 18  1  0  0  0  0
 17 28  1  0  0  0  0
 17 29  1  0  0  0  0
 18 30  1  0  0  0  0
 18 31  1  0  0  0  0
M  END
$$$$
ZINC03832188
  -OEChem-08230709403D

 31 33  0     1  0  0  0  0  0999 V2000
    5.7714   -2.8555   -1.3885 C   0  0  0  0  0  0  0  0  0  0  0  0
    5.2617   -1.8450   -2.4181 C   0  0  2  0  0  0  0  0  0  0  0  0
    6.0521   -1.1305   -2.6480 H   0  0  0  0  0  0  0  0  0  0  0  0
    4.0705   -1.1127   -1.8561 C   0  0  0  0  0  0  0  0  0  0  0  0
    2.7808   -1.4205   -2.0477 C   0  0  0  0  0  0  0  0  0  0  0  0
    1.9784   -0.5327   -1.3767 N   0  0  0  0  0  0  0  0  0  0  0  0
    2.7597    0.4445   -0.7930 C   0  0  0  0  0  0  0  0  0  0  0  0
    4.1006    0.0733   -0.9959 C   0  0  0  0  0  0  0  0  0  0  0  0
    5.1299    0.8081   -0.4053 C   0  0  0  0  0  0  0  0  0  0  0  0
    4.8280    1.9088    0.3685 C   0  0  0  0  0  0  0  0  0  0  0  0
    3.5180    2.3149    0.5311 C   0  0  0  0  0  0  0  0  0  0  0  0
    2.4705    1.6156   -0.0773 C   0  0  0  0  0  0  0  0  0  0  0  0
    1.1150    2.1672    0.0031 C   0  0  0  0  0  0  0  0  0  0  0  0
    1.0049    3.3763    0.0685 O   0  0  0  0  0  0  0  0  0  0  0  0
   -0.0175    1.4398    0.0100 N   0  0  0  0  0  0  0  0  0  0  0  0
    0.0021   -0.0041    0.0020 C   0  0  0  0  0  0  0  0  0  0  0  0
    0.5348   -0.5858   -1.2813 C   0  0  0  0  0  0  0  0  0  0  0  0
    4.8790   -2.5323   -3.6111 O   0  0  0  0  0  0  0  0  0  0  0  0
    6.0633   -2.3313   -0.4786 H   0  0  0  0  0  0  0  0  0  0  0  0
    4.9810   -3.5700   -1.1586 H   0  0  0  0  0  0  0  0  0  0  0  0
    6.6330   -3.3852   -1.7950 H   0  0  0  0  0  0  0  0  0  0  0  0
    2.4245   -2.2478   -2.6435 H   0  0  0  0  0  0  0  0  0  0  0  0
    6.1589    0.5156   -0.5536 H   0  0  0  0  0  0  0  0  0  0  0  0
    5.6227    2.4582    0.8512 H   0  0  0  0  0  0  0  0  0  0  0  0
    3.2998    3.1827    1.1357 H   0  0  0  0  0  0  0  0  0  0  0  0
   -0.8719    1.8989    0.0164 H   0  0  0  0  0  0  0  0  0  0  0  0
    0.6241   -0.3500    0.8276 H   0  0  0  0  0  0  0  0  0  0  0  0
   -1.0139   -0.3685    0.1540 H   0  0  0  0  0  0  0  0  0  0  0  0
    0.2173   -1.6262   -1.3523 H   0  0  0  0  0  0  0  0  0  0  0  0
    0.1098   -0.0330   -2.1191 H   0  0  0  0  0  0  0  0  0  0  0  0
    5.5979   -3.0265   -4.0281 H   0  0  0  0  0  0  0  0  0  0  0  0
  1  2  1  0  0  0  0
  1 19  1  0  0  0  0
  1 20  1  0  0  0  0
  1 21  1  0  0  0  0
  2  3  1  0  0  0  0
  2  4  1  0  0  0  0
  2 18  1  0  0  0  0
  4  8  1  0  0  0  0
  4  5  2  0  0  0  0
  5  6  1  0  0  0  0
  5 22  1  0  0  0  0
  6 17  1  0  0  0  0
  6  7  1  0  0  0  0
  7 12  2  0  0  0  0
  7  8  1  0  0  0  0
  8  9  2  0  0  0  0
  9 10  1  0  0  0  0
  9 23  1  0  0  0  0
 10 11  2  0  0  0  0
 10 24  1  0  0  0  0
 11 12  1  0  0  0  0
 11 25  1  0  0  0  0
 12 13  1  0  0  0  0
 13 14  2  0  0  0  0
 13 15  1  0  0  0  0
 15 16  1  0  0  0  0
 15 26  1  0  0  0  0
 16 17  1  0  0  0  0
 16 27  1  0  0  0  0
 16 28  1  0  0  0  0
 17 29  1  0  0  0  0
 17 30  1  0  0  0  0
 18 31  1  0  0  0  0
M  END
$$$$
ZINC03832191
  -OEChem-08230709403D

 29 31  0     0  0  0  0  0  0999 V2000
    0.6457    2.6333   -5.1789 C   0  0  0  0  0  0  0  0  0  0  0  0
   -0.7473    2.7123   -4.6095 C   0  0  0  0  0  0  0  0  0  0  0  0
   -1.6605    3.1254   -5.2944 O   0  0  0  0  0  0  0  0  0  0  0  0
   -0.9914    2.3041   -3.2740 C   0  0  0  0  0  0  0  0  0  0  0  0
   -0.0702    1.8171   -2.3771 C   0  0  0  0  0  0  0  0  0  0  0  0
   -0.6779    1.5481   -1.1930 N   0  0  0  0  0  0  0  0  0  0  0  0
   -2.0374    1.7887   -1.2892 C   0  0  0  0  0  0  0  0  0  0  0  0
   -2.2860    2.3160   -2.5649 C   0  0  0  0  0  0  0  0  0  0  0  0
   -3.5609    2.7545   -2.9115 C   0  0  0  0  0  0  0  0  0  0  0  0
   -4.5889    2.6684   -1.9942 C   0  0  0  0  0  0  0  0  0  0  0  0
   -4.3717    2.1044   -0.7538 C   0  0  0  0  0  0  0  0  0  0  0  0
   -3.1101    1.6123   -0.4018 C   0  0  0  0  0  0  0  0  0  0  0  0
   -2.9760    0.8609    0.8494 C   0  0  0  0  0  0  0  0  0  0  0  0
   -3.9478    0.2396    1.2341 O   0  0  0  0  0  0  0  0  0  0  0  0
   -1.8660    0.8025    1.6075 N   0  0  0  0  0  0  0  0  0  0  0  0
   -0.6801    1.5528    1.2745 C   0  0  0  0  0  0  0  0  0  0  0  0
   -0.0127    1.0858    0.0080 C   0  0  0  0  0  0  0  0  0  0  0  0
    1.2696    2.2738   -4.4849 H   0  0  0  0  0  0  0  0  0  0  0  0
    0.6470    1.9726   -6.0458 H   0  0  0  0  0  0  0  0  0  0  0  0
    0.9720    3.6287   -5.4802 H   0  0  0  0  0  0  0  0  0  0  0  0
    0.9797    1.6703   -2.5835 H   0  0  0  0  0  0  0  0  0  0  0  0
   -3.7451    3.1612   -3.8950 H   0  0  0  0  0  0  0  0  0  0  0  0
   -5.5686    3.0449   -2.2488 H   0  0  0  0  0  0  0  0  0  0  0  0
   -5.1853    2.0418   -0.0463 H   0  0  0  0  0  0  0  0  0  0  0  0
   -1.8639    0.2410    2.3985 H   0  0  0  0  0  0  0  0  0  0  0  0
    0.0291    1.4630    2.0973 H   0  0  0  0  0  0  0  0  0  0  0  0
   -0.9495    2.6029    1.1613 H   0  0  0  0  0  0  0  0  0  0  0  0
    0.0021   -0.0041    0.0020 H   0  0  0  0  0  0  0  0  0  0  0  0
    1.0151    1.4487    0.0001 H   0  0  0  0  0  0  0  0  0  0  0  0
  1  2  1  0  0  0  0
  1 18  1  0  0  0  0
  1 19  1  0  0  0  0
  1 20  1  0  0  0  0
  2  3  2  0  0  0  0
  2  4  1  0  0  0  0
  4  8  1  0  0  0  0
  4  5  2  0  0  0  0
  5  6  1  0  0  0  0
  5 21  1  0  0  0  0
  6 17  1  0  0  0  0
  6  7  1  0  0  0  0
  7 12  2  0  0  0  0
  7  8  1  0  0  0  0
  8  9  2  0  0  0  0
  9 10  1  0  0  0  0
  9 22  1  0  0  0  0
 10 11  2  0  0  0  0
 10 23  1  0  0  0  0
 11 12  1  0  0  0  0
 11 24  1  0  0  0  0
 12 13  1  0  0  0  0
 13 14  2  0  0  0  0
 13 15  1  0  0  0  0
 15 16  1  0  0  0  0
 15 25  1  0  0  0  0
 16 17  1  0  0  0  0
 16 26  1  0  0  0  0
 16 27  1  0  0  0  0
 17 28  1  0  0  0  0
 17 29  1  0  0  0  0
M  END
$$$$
ZINC03832192
  -OEChem-08230709403D

 31 33  0     0  0  0  0  0  0999 V2000
    6.2116   -1.1320   -3.2791 C   0  0  0  0  0  0  0  0  0  0  0  0
    5.2463   -1.8513   -2.3725 C   0  0  0  0  0  0  0  0  0  0  0  0
    5.5447   -3.0235   -1.9078 N   0  0  0  0  0  0  0  0  0  0  0  0
    4.6914   -3.6507   -0.9679 O   0  0  0  0  0  0  0  0  0  0  0  0
    3.9648   -1.2224   -2.0150 C   0  0  0  0  0  0  0  0  0  0  0  0
    2.7236   -1.6569   -2.3528 C   0  0  0  0  0  0  0  0  0  0  0  0
    1.7782   -0.8220   -1.8299 N   0  0  0  0  0  0  0  0  0  0  0  0
    2.3906    0.2351   -1.1828 C   0  0  0  0  0  0  0  0  0  0  0  0
    3.7746    0.0039   -1.2200 C   0  0  0  0  0  0  0  0  0  0  0  0
    4.6494    0.8578   -0.5520 C   0  0  0  0  0  0  0  0  0  0  0  0
    4.1529    1.9428    0.1411 C   0  0  0  0  0  0  0  0  0  0  0  0
    2.7989    2.2110    0.1444 C   0  0  0  0  0  0  0  0  0  0  0  0
    1.9053    1.3920   -0.5541 C   0  0  0  0  0  0  0  0  0  0  0  0
    0.5073    1.8167   -0.6686 C   0  0  0  0  0  0  0  0  0  0  0  0
    0.2843    3.0120   -0.6630 O   0  0  0  0  0  0  0  0  0  0  0  0
   -0.5499    0.9909   -0.7793 N   0  0  0  0  0  0  0  0  0  0  0  0
   -0.4016   -0.4448   -0.7367 C   0  0  0  0  0  0  0  0  0  0  0  0
    0.3443   -1.0021   -1.9203 C   0  0  0  0  0  0  0  0  0  0  0  0
    6.8869   -0.5215   -2.6796 H   0  0  0  0  0  0  0  0  0  0  0  0
    6.7888   -1.8614   -3.8472 H   0  0  0  0  0  0  0  0  0  0  0  0
    5.6572   -0.4927   -3.9661 H   0  0  0  0  0  0  0  0  0  0  0  0
    5.0329   -4.4873   -0.6236 H   0  0  0  0  0  0  0  0  0  0  0  0
    2.5148   -2.5337   -2.9478 H   0  0  0  0  0  0  0  0  0  0  0  0
    5.7128    0.6709   -0.5761 H   0  0  0  0  0  0  0  0  0  0  0  0
    4.8283    2.5865    0.6851 H   0  0  0  0  0  0  0  0  0  0  0  0
    2.4250    3.0633    0.6922 H   0  0  0  0  0  0  0  0  0  0  0  0
   -1.4350    1.3706   -0.8949 H   0  0  0  0  0  0  0  0  0  0  0  0
    0.1347   -0.7142    0.1732 H   0  0  0  0  0  0  0  0  0  0  0  0
   -1.3925   -0.8980   -0.7050 H   0  0  0  0  0  0  0  0  0  0  0  0
    0.1299   -2.0680   -1.9987 H   0  0  0  0  0  0  0  0  0  0  0  0
   -0.0124   -0.5069   -2.8234 H   0  0  0  0  0  0  0  0  0  0  0  0
  1  2  1  0  0  0  0
  1 19  1  0  0  0  0
  1 20  1  0  0  0  0
  1 21  1  0  0  0  0
  2  3  2  0  0  0  0
  2  5  1  0  0  0  0
  3  4  1  0  0  0  0
  4 22  1  0  0  0  0
  5  9  1  0  0  0  0
  5  6  2  0  0  0  0
  6  7  1  0  0  0  0
  6 23  1  0  0  0  0
  7 18  1  0  0  0  0
  7  8  1  0  0  0  0
  8 13  2  0  0  0  0
  8  9  1  0  0  0  0
  9 10  2  0  0  0  0
 10 11  1  0  0  0  0
 10 24  1  0  0  0  0
 11 12  2  0  0  0  0
 11 25  1  0  0  0  0
 12 13  1  0  0  0  0
 12 26  1  0  0  0  0
 13 14  1  0  0  0  0
 14 15  2  0  0  0  0
 14 16  1  0  0  0  0
 16 17  1  0  0  0  0
 16 27  1  0  0  0  0
 17 18  1  0  0  0  0
 17 28  1  0  0  0  0
 17 29  1  0  0  0  0
 18 30  1  0  0  0  0
 18 31  1  0  0  0  0
M  END
$$$$
ZINC03832194
  -OEChem-08230709403D

 38 41  0     1  0  0  0  0  0999 V2000
    6.6842   -4.6660    0.4569 C   0  0  0  0  0  0  0  0  0  0  0  0
    7.2549   -3.4093    0.3808 C   0  0  0  0  0  0  0  0  0  0  0  0
    6.7943   -2.4963   -0.5494 C   0  0  0  0  0  0  0  0  0  0  0  0
    5.7637   -2.8403   -1.4040 C   0  0  0  0  0  0  0  0  0  0  0  0
    5.1898   -4.0954   -1.3246 C   0  0  0  0  0  0  0  0  0  0  0  0
    5.6532   -5.0099   -0.3974 C   0  0  0  0  0  0  0  0  0  0  0  0
    5.2617   -1.8450   -2.4181 C   0  0  2  0  0  0  0  0  0  0  0  0
    6.0521   -1.1305   -2.6480 H   0  0  0  0  0  0  0  0  0  0  0  0
    4.0705   -1.1127   -1.8561 C   0  0  0  0  0  0  0  0  0  0  0  0
    2.7808   -1.4205   -2.0477 C   0  0  0  0  0  0  0  0  0  0  0  0
    1.9784   -0.5327   -1.3767 N   0  0  0  0  0  0  0  0  0  0  0  0
    2.7597    0.4445   -0.7930 C   0  0  0  0  0  0  0  0  0  0  0  0
    4.1006    0.0733   -0.9959 C   0  0  0  0  0  0  0  0  0  0  0  0
    5.1299    0.8081   -0.4053 C   0  0  0  0  0  0  0  0  0  0  0  0
    4.8280    1.9088    0.3685 C   0  0  0  0  0  0  0  0  0  0  0  0
    3.5180    2.3149    0.5311 C   0  0  0  0  0  0  0  0  0  0  0  0
    2.4705    1.6156   -0.0773 C   0  0  0  0  0  0  0  0  0  0  0  0
    1.1150    2.1672    0.0031 C   0  0  0  0  0  0  0  0  0  0  0  0
    1.0049    3.3763    0.0685 O   0  0  0  0  0  0  0  0  0  0  0  0
   -0.0175    1.4398    0.0100 N   0  0  0  0  0  0  0  0  0  0  0  0
    0.0021   -0.0041    0.0020 C   0  0  0  0  0  0  0  0  0  0  0  0
    0.5348   -0.5858   -1.2813 C   0  0  0  0  0  0  0  0  0  0  0  0
    4.8790   -2.5323   -3.6111 O   0  0  0  0  0  0  0  0  0  0  0  0
    7.0440   -5.3793    1.1837 H   0  0  0  0  0  0  0  0  0  0  0  0
    8.0603   -3.1406    1.0482 H   0  0  0  0  0  0  0  0  0  0  0  0
    7.2400   -1.5143   -0.6086 H   0  0  0  0  0  0  0  0  0  0  0  0
    4.3817   -4.3627   -1.9894 H   0  0  0  0  0  0  0  0  0  0  0  0
    5.2076   -5.9919   -0.3381 H   0  0  0  0  0  0  0  0  0  0  0  0
    2.4245   -2.2478   -2.6435 H   0  0  0  0  0  0  0  0  0  0  0  0
    6.1589    0.5156   -0.5536 H   0  0  0  0  0  0  0  0  0  0  0  0
    5.6227    2.4582    0.8512 H   0  0  0  0  0  0  0  0  0  0  0  0
    3.2998    3.1827    1.1357 H   0  0  0  0  0  0  0  0  0  0  0  0
   -0.8719    1.8989    0.0164 H   0  0  0  0  0  0  0  0  0  0  0  0
    0.6241   -0.3500    0.8276 H   0  0  0  0  0  0  0  0  0  0  0  0
   -1.0139   -0.3685    0.1540 H   0  0  0  0  0  0  0  0  0  0  0  0
    0.2173   -1.6262   -1.3523 H   0  0  0  0  0  0  0  0  0  0  0  0
    0.1098   -0.0330   -2.1191 H   0  0  0  0  0  0  0  0  0  0  0  0
    4.1779   -3.1854   -3.4810 H   0  0  0  0  0  0  0  0  0  0  0  0
  1  6  2  0  0  0  0
  1  2  1  0  0  0  0
  1 24  1  0  0  0  0
  2  3  2  0  0  0  0
  2 25  1  0  0  0  0
  3  4  1  0  0  0  0
  3 26  1  0  0  0  0
  4  5  2  0  0  0  0
  4  7  1  0  0  0  0
  5  6  1  0  0  0  0
  5 27  1  0  0  0  0
  6 28  1  0  0  0  0
  7  8  1  0  0  0  0
  7  9  1  0  0  0  0
  7 23  1  0  0  0  0
  9 13  1  0  0  0  0
  9 10  2  0  0  0  0
 10 11  1  0  0  0  0
 10 29  1  0  0  0  0
 11 22  1  0  0  0  0
 11 12  1  0  0  0  0
 12 17  2  0  0  0  0
 12 13  1  0  0  0  0
 13 14  2  0  0  0  0
 14 15  1  0  0  0  0
 14 30  1  0  0  0  0
 15 16  2  0  0  0  0
 15 31  1  0  0  0  0
 16 17  1  0  0  0  0
 16 32  1  0  0  0  0
 17 18  1  0  0  0  0
 18 19  2  0  0  0  0
 18 20  1  0  0  0  0
 20 21  1  0  0  0  0
 20 33  1  0  0  0  0
 21 22  1  0  0  0  0
 21 34  1  0  0  0  0
 21 35  1  0  0  0  0
 22 36  1  0  0  0  0
 22 37  1  0  0  0  0
 23 38  1  0  0  0  0
M  END
$$$$
ZINC03832196
  -OEChem-08230709403D

 36 39  0     0  0  0  0  0  0999 V2000
    7.2450   -0.4185   -5.8316 C   0  0  0  0  0  0  0  0  0  0  0  0
    7.6220   -1.6242   -5.2669 C   0  0  0  0  0  0  0  0  0  0  0  0
    6.9762   -2.0946   -4.1424 C   0  0  0  0  0  0  0  0  0  0  0  0
    5.9403   -1.3511   -3.5740 C   0  0  0  0  0  0  0  0  0  0  0  0
    5.5614   -0.1381   -4.1518 C   0  0  0  0  0  0  0  0  0  0  0  0
    6.2190    0.3233   -5.2732 C   0  0  0  0  0  0  0  0  0  0  0  0
    5.2432   -1.8494   -2.3687 C   0  0  0  0  0  0  0  0  0  0  0  0
    5.5042   -2.9530   -1.9274 O   0  0  0  0  0  0  0  0  0  0  0  0
    4.2364   -1.0128   -1.7046 C   0  0  0  0  0  0  0  0  0  0  0  0
    2.8831   -1.1648   -1.7581 C   0  0  0  0  0  0  0  0  0  0  0  0
    2.2775   -0.2085   -1.0060 N   0  0  0  0  0  0  0  0  0  0  0  0
    3.2254    0.6537   -0.4833 C   0  0  0  0  0  0  0  0  0  0  0  0
    4.4874    0.1603   -0.8468 C   0  0  0  0  0  0  0  0  0  0  0  0
    5.6459    0.7696   -0.3722 C   0  0  0  0  0  0  0  0  0  0  0  0
    5.5521    1.8725    0.4526 C   0  0  0  0  0  0  0  0  0  0  0  0
    4.3188    2.3992    0.7775 C   0  0  0  0  0  0  0  0  0  0  0  0
    3.1426    1.8288    0.2784 C   0  0  0  0  0  0  0  0  0  0  0  0
    1.8739    2.5273    0.5045 C   0  0  0  0  0  0  0  0  0  0  0  0
    1.9125    3.7389    0.6000 O   0  0  0  0  0  0  0  0  0  0  0  0
    0.6696    1.9365    0.6147 N   0  0  0  0  0  0  0  0  0  0  0  0
    0.5200    0.5008    0.5746 C   0  0  0  0  0  0  0  0  0  0  0  0
    0.8535   -0.0957   -0.7673 C   0  0  0  0  0  0  0  0  0  0  0  0
    7.7536   -0.0550   -6.7123 H   0  0  0  0  0  0  0  0  0  0  0  0
    8.4233   -2.1985   -5.7079 H   0  0  0  0  0  0  0  0  0  0  0  0
    7.2712   -3.0359   -3.7028 H   0  0  0  0  0  0  0  0  0  0  0  0
    4.7580    0.4399   -3.7194 H   0  0  0  0  0  0  0  0  0  0  0  0
    5.9296    1.2635   -5.7189 H   0  0  0  0  0  0  0  0  0  0  0  0
    2.3677   -1.9324   -2.3162 H   0  0  0  0  0  0  0  0  0  0  0  0
    6.6148    0.3807   -0.6486 H   0  0  0  0  0  0  0  0  0  0  0  0
    6.4498    2.3259    0.8463 H   0  0  0  0  0  0  0  0  0  0  0  0
    4.2606    3.2621    1.4245 H   0  0  0  0  0  0  0  0  0  0  0  0
   -0.1198    2.4903    0.7200 H   0  0  0  0  0  0  0  0  0  0  0  0
    1.1751    0.0598    1.3260 H   0  0  0  0  0  0  0  0  0  0  0  0
   -0.5118    0.2496    0.8203 H   0  0  0  0  0  0  0  0  0  0  0  0
    0.4087   -1.0889   -0.8289 H   0  0  0  0  0  0  0  0  0  0  0  0
    0.4186    0.5305   -1.5463 H   0  0  0  0  0  0  0  0  0  0  0  0
  1  6  2  0  0  0  0
  1  2  1  0  0  0  0
  1 23  1  0  0  0  0
  2  3  2  0  0  0  0
  2 24  1  0  0  0  0
  3  4  1  0  0  0  0
  3 25  1  0  0  0  0
  4  5  2  0  0  0  0
  4  7  1  0  0  0  0
  5  6  1  0  0  0  0
  5 26  1  0  0  0  0
  6 27  1  0  0  0  0
  7  8  2  0  0  0  0
  7  9  1  0  0  0  0
  9 13  1  0  0  0  0
  9 10  2  0  0  0  0
 10 11  1  0  0  0  0
 10 28  1  0  0  0  0
 11 22  1  0  0  0  0
 11 12  1  0  0  0  0
 12 17  2  0  0  0  0
 12 13  1  0  0  0  0
 13 14  2  0  0  0  0
 14 15  1  0  0  0  0
 14 29  1  0  0  0  0
 15 16  2  0  0  0  0
 15 30  1  0  0  0  0
 16 17  1  0  0  0  0
 16 31  1  0  0  0  0
 17 18  1  0  0  0  0
 18 19  2  0  0  0  0
 18 20  1  0  0  0  0
 20 21  1  0  0  0  0
 20 32  1  0  0  0  0
 21 22  1  0  0  0  0
 21 33  1  0  0  0  0
 21 34  1  0  0  0  0
 22 35  1  0  0  0  0
 22 36  1  0  0  0  0
M  END
$$$$
ZINC03832197
  -OEChem-08230709403D

 38 41  0     0  0  0  0  0  0999 V2000
    6.0014   -0.8906    2.8933 C   0  0  0  0  0  0  0  0  0  0  0  0
    6.6075   -0.2887    1.8051 C   0  0  0  0  0  0  0  0  0  0  0  0
    5.8388    0.3050    0.8249 C   0  0  0  0  0  0  0  0  0  0  0  0
    4.4487    0.2975    0.9328 C   0  0  0  0  0  0  0  0  0  0  0  0
    3.8438   -0.3057    2.0348 C   0  0  0  0  0  0  0  0  0  0  0  0
    4.6227   -0.9016    3.0057 C   0  0  0  0  0  0  0  0  0  0  0  0
    3.6175    0.9334   -0.1166 C   0  0  0  0  0  0  0  0  0  0  0  0
    4.1843    1.6132   -1.0745 N   0  0  0  0  0  0  0  0  0  0  0  0
    3.4020    2.1256   -2.1377 O   0  0  0  0  0  0  0  0  0  0  0  0
    2.1470    0.7972   -0.0776 C   0  0  0  0  0  0  0  0  0  0  0  0
    1.2448    1.7907    0.1152 C   0  0  0  0  0  0  0  0  0  0  0  0
   -0.0234    1.2848    0.0754 N   0  0  0  0  0  0  0  0  0  0  0  0
    0.0226   -0.0866   -0.0907 C   0  0  0  0  0  0  0  0  0  0  0  0
    1.3718   -0.4446   -0.2410 C   0  0  0  0  0  0  0  0  0  0  0  0
    1.7232   -1.7623   -0.5269 C   0  0  0  0  0  0  0  0  0  0  0  0
    0.7391   -2.7199   -0.6634 C   0  0  0  0  0  0  0  0  0  0  0  0
   -0.5879   -2.3919   -0.4716 C   0  0  0  0  0  0  0  0  0  0  0  0
   -0.9615   -1.0860   -0.1366 C   0  0  0  0  0  0  0  0  0  0  0  0
   -2.3570   -0.8271    0.2285 C   0  0  0  0  0  0  0  0  0  0  0  0
   -2.9770   -1.7359    0.7464 O   0  0  0  0  0  0  0  0  0  0  0  0
   -3.0077    0.3355    0.0373 N   0  0  0  0  0  0  0  0  0  0  0  0
   -2.3835    1.4573   -0.6239 C   0  0  0  0  0  0  0  0  0  0  0  0
   -1.2468    2.0550    0.1618 C   0  0  0  0  0  0  0  0  0  0  0  0
    6.6071   -1.3540    3.6580 H   0  0  0  0  0  0  0  0  0  0  0  0
    7.6843   -0.2838    1.7224 H   0  0  0  0  0  0  0  0  0  0  0  0
    6.3130    0.7750   -0.0241 H   0  0  0  0  0  0  0  0  0  0  0  0
    2.7677   -0.3107    2.1260 H   0  0  0  0  0  0  0  0  0  0  0  0
    4.1551   -1.3731    3.8575 H   0  0  0  0  0  0  0  0  0  0  0  0
    3.8962    2.6774   -2.7592 H   0  0  0  0  0  0  0  0  0  0  0  0
    1.4924    2.8294    0.2765 H   0  0  0  0  0  0  0  0  0  0  0  0
    2.7623   -2.0332   -0.6417 H   0  0  0  0  0  0  0  0  0  0  0  0
    1.0090   -3.7330   -0.9224 H   0  0  0  0  0  0  0  0  0  0  0  0
   -1.3468   -3.1525   -0.5811 H   0  0  0  0  0  0  0  0  0  0  0  0
   -3.9211    0.4221    0.3520 H   0  0  0  0  0  0  0  0  0  0  0  0
   -2.0046    1.1268   -1.5910 H   0  0  0  0  0  0  0  0  0  0  0  0
   -3.1357    2.2288   -0.7889 H   0  0  0  0  0  0  0  0  0  0  0  0
   -1.5435    2.1241    1.2084 H   0  0  0  0  0  0  0  0  0  0  0  0
   -1.0541    3.0607   -0.2116 H   0  0  0  0  0  0  0  0  0  0  0  0
  1  6  2  0  0  0  0
  1  2  1  0  0  0  0
  1 24  1  0  0  0  0
  2  3  2  0  0  0  0
  2 25  1  0  0  0  0
  3  4  1  0  0  0  0
  3 26  1  0  0  0  0
  4  5  2  0  0  0  0
  4  7  1  0  0  0  0
  5  6  1  0  0  0  0
  5 27  1  0  0  0  0
  6 28  1  0  0  0  0
  7  8  2  0  0  0  0
  7 10  1  0  0  0  0
  8  9  1  0  0  0  0
  9 29  1  0  0  0  0
 10 14  1  0  0  0  0
 10 11  2  0  0  0  0
 11 12  1  0  0  0  0
 11 30  1  0  0  0  0
 12 23  1  0  0  0  0
 12 13  1  0  0  0  0
 13 18  2  0  0  0  0
 13 14  1  0  0  0  0
 14 15  2  0  0  0  0
 15 16  1  0  0  0  0
 15 31  1  0  0  0  0
 16 17  2  0  0  0  0
 16 32  1  0  0  0  0
 17 18  1  0  0  0  0
 17 33  1  0  0  0  0
 18 19  1  0  0  0  0
 19 20  2  0  0  0  0
 19 21  1  0  0  0  0
 21 22  1  0  0  0  0
 21 34  1  0  0  0  0
 22 23  1  0  0  0  0
 22 35  1  0  0  0  0
 22 36  1  0  0  0  0
 23 37  1  0  0  0  0
 23 38  1  0  0  0  0
M  END
$$$$
ZINC03832199
  -OEChem-08230709403D

 34 37  0     0  0  0  0  0  0999 V2000
   -7.6295    2.5151    0.2515 C   0  0  0  0  0  0  0  0  0  0  0  0
   -6.9344    3.6270   -0.1895 C   0  0  0  0  0  0  0  0  0  0  0  0
   -5.5555    3.6099   -0.2329 C   0  0  0  0  0  0  0  0  0  0  0  0
   -4.8620    2.4677    0.1693 C   0  0  0  0  0  0  0  0  0  0  0  0
   -5.5693    1.3474    0.6077 C   0  0  0  0  0  0  0  0  0  0  0  0
   -6.9478    1.3797    0.6521 C   0  0  0  0  0  0  0  0  0  0  0  0
   -3.3840    2.4425    0.1254 C   0  0  0  0  0  0  0  0  0  0  0  0
   -2.6252    1.3224    0.0853 C   0  0  0  0  0  0  0  0  0  0  0  0
   -1.2299    1.7593    0.0579 C   0  0  0  0  0  0  0  0  0  0  0  0
   -0.0101    1.0773    0.0899 C   0  0  0  0  0  0  0  0  0  0  0  0
    1.1710    1.7853    0.0368 C   0  0  0  0  0  0  0  0  0  0  0  0
    1.1601    3.1619   -0.0776 C   0  0  0  0  0  0  0  0  0  0  0  0
   -0.0464    3.8674   -0.1380 C   0  0  0  0  0  0  0  0  0  0  0  0
   -1.2535    3.1647   -0.0075 C   0  0  0  0  0  0  0  0  0  0  0  0
   -2.5702    3.5576    0.1319 N   0  0  0  0  0  0  0  0  0  0  0  0
   -3.0046    4.9331    0.2560 C   0  0  0  0  0  0  0  0  0  0  0  0
   -1.9903    5.8208    0.9287 C   0  0  0  0  0  0  0  0  0  0  0  0
   -0.9026    6.2032    0.0588 N   0  0  0  0  0  0  0  0  0  0  0  0
   -0.0050    5.3097   -0.3944 C   0  0  0  0  0  0  0  0  0  0  0  0
    0.9134    5.7321   -1.0700 O   0  0  0  0  0  0  0  0  0  0  0  0
   -8.7088    2.5335    0.2836 H   0  0  0  0  0  0  0  0  0  0  0  0
   -7.4724    4.5102   -0.5009 H   0  0  0  0  0  0  0  0  0  0  0  0
   -5.0141    4.4787   -0.5771 H   0  0  0  0  0  0  0  0  0  0  0  0
   -5.0385    0.4587    0.9158 H   0  0  0  0  0  0  0  0  0  0  0  0
   -7.4962    0.5151    0.9957 H   0  0  0  0  0  0  0  0  0  0  0  0
   -2.9815    0.3029    0.0750 H   0  0  0  0  0  0  0  0  0  0  0  0
    0.0066   -0.0008    0.1515 H   0  0  0  0  0  0  0  0  0  0  0  0
    2.1132    1.2595    0.0854 H   0  0  0  0  0  0  0  0  0  0  0  0
    2.0952    3.7006   -0.1213 H   0  0  0  0  0  0  0  0  0  0  0  0
   -3.2080    5.3268   -0.7398 H   0  0  0  0  0  0  0  0  0  0  0  0
   -3.9284    4.9572    0.8341 H   0  0  0  0  0  0  0  0  0  0  0  0
   -2.4921    6.7227    1.2790 H   0  0  0  0  0  0  0  0  0  0  0  0
   -1.5807    5.2938    1.7905 H   0  0  0  0  0  0  0  0  0  0  0  0
   -0.8167    7.1323   -0.2064 H   0  0  0  0  0  0  0  0  0  0  0  0
  1  6  2  0  0  0  0
  1  2  1  0  0  0  0
  1 21  1  0  0  0  0
  2  3  2  0  0  0  0
  2 22  1  0  0  0  0
  3  4  1  0  0  0  0
  3 23  1  0  0  0  0
  4  5  2  0  0  0  0
  4  7  1  0  0  0  0
  5  6  1  0  0  0  0
  5 24  1  0  0  0  0
  6 25  1  0  0  0  0
  7 15  1  0  0  0  0
  7  8  2  0  0  0  0
  8  9  1  0  0  0  0
  8 26  1  0  0  0  0
  9 14  2  0  0  0  0
  9 10  1  0  0  0  0
 10 11  2  0  0  0  0
 10 27  1  0  0  0  0
 11 12  1  0  0  0  0
 11 28  1  0  0  0  0
 12 13  2  0  0  0  0
 12 29  1  0  0  0  0
 13 19  1  0  0  0  0
 13 14  1  0  0  0  0
 14 15  1  0  0  0  0
 15 16  1  0  0  0  0
 16 17  1  0  0  0  0
 16 30  1  0  0  0  0
 16 31  1  0  0  0  0
 17 18  1  0  0  0  0
 17 32  1  0  0  0  0
 17 33  1  0  0  0  0
 18 19  1  0  0  0  0
 18 34  1  0  0  0  0
 19 20  2  0  0  0  0
M  END
$$$$
ZINC03832201
  -OEChem-08230709403D

 34 37  0     0  0  0  0  0  0999 V2000
    1.1714    1.7855    0.0367 C   0  0  0  0  0  0  0  0  0  0  0  0
   -0.0101    1.0773    0.0897 C   0  0  0  0  0  0  0  0  0  0  0  0
   -1.2295    1.7591    0.0578 C   0  0  0  0  0  0  0  0  0  0  0  0
   -2.6250    1.3223    0.0852 C   0  0  0  0  0  0  0  0  0  0  0  0
   -3.3836    2.4424    0.1255 C   0  0  0  0  0  0  0  0  0  0  0  0
   -2.5699    3.5576    0.1322 N   0  0  0  0  0  0  0  0  0  0  0  0
   -1.2531    3.1649   -0.0074 C   0  0  0  0  0  0  0  0  0  0  0  0
   -0.0464    3.8674   -0.1383 C   0  0  0  0  0  0  0  0  0  0  0  0
    1.1604    3.1617   -0.0779 C   0  0  0  0  0  0  0  0  0  0  0  0
   -0.0051    5.3095   -0.3951 C   0  0  0  0  0  0  0  0  0  0  0  0
    0.9133    5.7317   -1.0711 O   0  0  0  0  0  0  0  0  0  0  0  0
   -0.9024    6.2033    0.0581 N   0  0  0  0  0  0  0  0  0  0  0  0
   -1.9900    5.8211    0.9283 C   0  0  0  0  0  0  0  0  0  0  0  0
   -3.0045    4.9332    0.2561 C   0  0  0  0  0  0  0  0  0  0  0  0
   -4.8616    2.4676    0.1695 C   0  0  0  0  0  0  0  0  0  0  0  0
   -5.5686    1.3471    0.6080 C   0  0  0  0  0  0  0  0  0  0  0  0
   -6.9470    1.3782    0.6514 C   0  0  0  0  0  0  0  0  0  0  0  0
   -7.6295    2.5147    0.2514 C   0  0  0  0  0  0  0  0  0  0  0  0
   -6.9336    3.6277   -0.1897 C   0  0  0  0  0  0  0  0  0  0  0  0
   -5.5550    3.6100   -0.2329 C   0  0  0  0  0  0  0  0  0  0  0  0
   -9.3645    2.5442    0.3024 Cl  0  0  0  0  0  0  0  0  0  0  0  0
    2.1135    1.2598    0.0856 H   0  0  0  0  0  0  0  0  0  0  0  0
    0.0066   -0.0008    0.1512 H   0  0  0  0  0  0  0  0  0  0  0  0
   -2.9813    0.3029    0.0748 H   0  0  0  0  0  0  0  0  0  0  0  0
    2.0955    3.7003   -0.1220 H   0  0  0  0  0  0  0  0  0  0  0  0
   -0.8167    7.1322   -0.2077 H   0  0  0  0  0  0  0  0  0  0  0  0
   -2.4918    6.7232    1.2785 H   0  0  0  0  0  0  0  0  0  0  0  0
   -1.5803    5.2944    1.7902 H   0  0  0  0  0  0  0  0  0  0  0  0
   -3.2081    5.3266   -0.7399 H   0  0  0  0  0  0  0  0  0  0  0  0
   -3.9281    4.9574    0.8343 H   0  0  0  0  0  0  0  0  0  0  0  0
   -5.0375    0.4586    0.9159 H   0  0  0  0  0  0  0  0  0  0  0  0
   -7.4951    0.5129    0.9937 H   0  0  0  0  0  0  0  0  0  0  0  0
   -7.4712    4.5112   -0.5008 H   0  0  0  0  0  0  0  0  0  0  0  0
   -5.0133    4.4784   -0.5777 H   0  0  0  0  0  0  0  0  0  0  0  0
  1  9  2  0  0  0  0
  1  2  1  0  0  0  0
  1 22  1  0  0  0  0
  2  3  2  0  0  0  0
  2 23  1  0  0  0  0
  3  7  1  0  0  0  0
  3  4  1  0  0  0  0
  4  5  2  0  0  0  0
  4 24  1  0  0  0  0
  5  6  1  0  0  0  0
  5 15  1  0  0  0  0
  6 14  1  0  0  0  0
  6  7  1  0  0  0  0
  7  8  2  0  0  0  0
  8  9  1  0  0  0  0
  8 10  1  0  0  0  0
  9 25  1  0  0  0  0
 10 11  2  0  0  0  0
 10 12  1  0  0  0  0
 12 13  1  0  0  0  0
 12 26  1  0  0  0  0
 13 14  1  0  0  0  0
 13 27  1  0  0  0  0
 13 28  1  0  0  0  0
 14 29  1  0  0  0  0
 14 30  1  0  0  0  0
 15 20  2  0  0  0  0
 15 16  1  0  0  0  0
 16 17  2  0  0  0  0
 16 31  1  0  0  0  0
 17 18  1  0  0  0  0
 17 32  1  0  0  0  0
 18 19  2  0  0  0  0
 18 21  1  0  0  0  0
 19 20  1  0  0  0  0
 19 33  1  0  0  0  0
 20 34  1  0  0  0  0
M  END
$$$$
ZINC03832202
  -OEChem-08230709403D

 38 41  0     0  0  0  0  0  0999 V2000
   -9.6445    1.3567    0.7554 C   0  0  0  0  0  0  0  0  0  0  0  0
   -8.9890    2.5380    0.2898 O   0  0  0  0  0  0  0  0  0  0  0  0
   -7.6310    2.5149    0.2502 C   0  0  0  0  0  0  0  0  0  0  0  0
   -6.9321    3.6303   -0.1922 C   0  0  0  0  0  0  0  0  0  0  0  0
   -5.5544    3.6109   -0.2338 C   0  0  0  0  0  0  0  0  0  0  0  0
   -4.8619    2.4678    0.1690 C   0  0  0  0  0  0  0  0  0  0  0  0
   -5.5682    1.3466    0.6077 C   0  0  0  0  0  0  0  0  0  0  0  0
   -6.9458    1.3759    0.6518 C   0  0  0  0  0  0  0  0  0  0  0  0
   -3.3841    2.4426    0.1254 C   0  0  0  0  0  0  0  0  0  0  0  0
   -2.6253    1.3224    0.0843 C   0  0  0  0  0  0  0  0  0  0  0  0
   -1.2299    1.7592    0.0571 C   0  0  0  0  0  0  0  0  0  0  0  0
   -0.0102    1.0772    0.0884 C   0  0  0  0  0  0  0  0  0  0  0  0
    1.1711    1.7853    0.0361 C   0  0  0  0  0  0  0  0  0  0  0  0
    1.1601    3.1619   -0.0771 C   0  0  0  0  0  0  0  0  0  0  0  0
   -0.0465    3.8674   -0.1373 C   0  0  0  0  0  0  0  0  0  0  0  0
   -1.2534    3.1647   -0.0075 C   0  0  0  0  0  0  0  0  0  0  0  0
   -2.5704    3.5576    0.1319 N   0  0  0  0  0  0  0  0  0  0  0  0
   -3.0050    4.9330    0.2566 C   0  0  0  0  0  0  0  0  0  0  0  0
   -1.9907    5.8204    0.9297 C   0  0  0  0  0  0  0  0  0  0  0  0
   -0.9028    6.2032    0.0603 N   0  0  0  0  0  0  0  0  0  0  0  0
   -0.0051    5.3097   -0.3931 C   0  0  0  0  0  0  0  0  0  0  0  0
    0.9136    5.7324   -1.0683 O   0  0  0  0  0  0  0  0  0  0  0  0
   -9.3254    1.1420    1.7753 H   0  0  0  0  0  0  0  0  0  0  0  0
  -10.7237    1.5087    0.7368 H   0  0  0  0  0  0  0  0  0  0  0  0
   -9.3846    0.5182    0.1092 H   0  0  0  0  0  0  0  0  0  0  0  0
   -7.4687    4.5144   -0.5037 H   0  0  0  0  0  0  0  0  0  0  0  0
   -5.0115    4.4788   -0.5780 H   0  0  0  0  0  0  0  0  0  0  0  0
   -5.0361    0.4589    0.9163 H   0  0  0  0  0  0  0  0  0  0  0  0
   -7.4928    0.5104    0.9953 H   0  0  0  0  0  0  0  0  0  0  0  0
   -2.9815    0.3029    0.0730 H   0  0  0  0  0  0  0  0  0  0  0  0
    0.0065   -0.0010    0.1488 H   0  0  0  0  0  0  0  0  0  0  0  0
    2.1132    1.2594    0.0845 H   0  0  0  0  0  0  0  0  0  0  0  0
    2.0952    3.7006   -0.1200 H   0  0  0  0  0  0  0  0  0  0  0  0
   -3.2083    5.3271   -0.7391 H   0  0  0  0  0  0  0  0  0  0  0  0
   -3.9287    4.9569    0.8346 H   0  0  0  0  0  0  0  0  0  0  0  0
   -2.4925    6.7222    1.2803 H   0  0  0  0  0  0  0  0  0  0  0  0
   -1.5813    5.2931    1.7913 H   0  0  0  0  0  0  0  0  0  0  0  0
   -0.8168    7.1323   -0.2047 H   0  0  0  0  0  0  0  0  0  0  0  0
  1  2  1  0  0  0  0
  1 23  1  0  0  0  0
  1 24  1  0  0  0  0
  1 25  1  0  0  0  0
  2  3  1  0  0  0  0
  3  8  2  0  0  0  0
  3  4  1  0  0  0  0
  4  5  2  0  0  0  0
  4 26  1  0  0  0  0
  5  6  1  0  0  0  0
  5 27  1  0  0  0  0
  6  7  2  0  0  0  0
  6  9  1  0  0  0  0
  7  8  1  0  0  0  0
  7 28  1  0  0  0  0
  8 29  1  0  0  0  0
  9 17  1  0  0  0  0
  9 10  2  0  0  0  0
 10 11  1  0  0  0  0
 10 30  1  0  0  0  0
 11 16  2  0  0  0  0
 11 12  1  0  0  0  0
 12 13  2  0  0  0  0
 12 31  1  0  0  0  0
 13 14  1  0  0  0  0
 13 32  1  0  0  0  0
 14 15  2  0  0  0  0
 14 33  1  0  0  0  0
 15 21  1  0  0  0  0
 15 16  1  0  0  0  0
 16 17  1  0  0  0  0
 17 18  1  0  0  0  0
 18 19  1  0  0  0  0
 18 34  1  0  0  0  0
 18 35  1  0  0  0  0
 19 20  1  0  0  0  0
 19 36  1  0  0  0  0
 19 37  1  0  0  0  0
 20 21  1  0  0  0  0
 20 38  1  0  0  0  0
 21 22  2  0  0  0  0
M  END
$$$$
ZINC03832203
  -OEChem-08230709403D

 34 37  0     0  0  0  0  0  0999 V2000
    1.1714    1.7854    0.0364 C   0  0  0  0  0  0  0  0  0  0  0  0
   -0.0102    1.0772    0.0890 C   0  0  0  0  0  0  0  0  0  0  0  0
   -1.2295    1.7590    0.0574 C   0  0  0  0  0  0  0  0  0  0  0  0
   -2.6250    1.3223    0.0845 C   0  0  0  0  0  0  0  0  0  0  0  0
   -3.3837    2.4424    0.1255 C   0  0  0  0  0  0  0  0  0  0  0  0
   -2.5701    3.5575    0.1319 N   0  0  0  0  0  0  0  0  0  0  0  0
   -1.2531    3.1648   -0.0074 C   0  0  0  0  0  0  0  0  0  0  0  0
   -0.0464    3.8674   -0.1374 C   0  0  0  0  0  0  0  0  0  0  0  0
    1.1605    3.1617   -0.0770 C   0  0  0  0  0  0  0  0  0  0  0  0
   -0.0050    5.3097   -0.3933 C   0  0  0  0  0  0  0  0  0  0  0  0
    0.9134    5.7323   -1.0690 O   0  0  0  0  0  0  0  0  0  0  0  0
   -0.9025    6.2032    0.0601 N   0  0  0  0  0  0  0  0  0  0  0  0
   -1.9905    5.8205    0.9297 C   0  0  0  0  0  0  0  0  0  0  0  0
   -3.0046    4.9330    0.2565 C   0  0  0  0  0  0  0  0  0  0  0  0
   -4.8616    2.4676    0.1689 C   0  0  0  0  0  0  0  0  0  0  0  0
   -5.5685    1.3468    0.6069 C   0  0  0  0  0  0  0  0  0  0  0  0
   -6.9468    1.3771    0.6491 C   0  0  0  0  0  0  0  0  0  0  0  0
   -7.6300    2.5144    0.2489 C   0  0  0  0  0  0  0  0  0  0  0  0
   -6.9330    3.6284   -0.1914 C   0  0  0  0  0  0  0  0  0  0  0  0
   -5.5546    3.6103   -0.2334 C   0  0  0  0  0  0  0  0  0  0  0  0
   -8.9802    2.5371    0.2877 F   0  0  0  0  0  0  0  0  0  0  0  0
    2.1135    1.2596    0.0846 H   0  0  0  0  0  0  0  0  0  0  0  0
    0.0065   -0.0010    0.1498 H   0  0  0  0  0  0  0  0  0  0  0  0
   -2.9814    0.3028    0.0739 H   0  0  0  0  0  0  0  0  0  0  0  0
    2.0956    3.7003   -0.1200 H   0  0  0  0  0  0  0  0  0  0  0  0
   -0.8166    7.1323   -0.2049 H   0  0  0  0  0  0  0  0  0  0  0  0
   -2.4923    6.7223    1.2802 H   0  0  0  0  0  0  0  0  0  0  0  0
   -1.5811    5.2932    1.7913 H   0  0  0  0  0  0  0  0  0  0  0  0
   -3.2079    5.3271   -0.7393 H   0  0  0  0  0  0  0  0  0  0  0  0
   -3.9285    4.9569    0.8344 H   0  0  0  0  0  0  0  0  0  0  0  0
   -5.0372    0.4585    0.9151 H   0  0  0  0  0  0  0  0  0  0  0  0
   -7.4947    0.5113    0.9908 H   0  0  0  0  0  0  0  0  0  0  0  0
   -7.4703    4.5121   -0.5025 H   0  0  0  0  0  0  0  0  0  0  0  0
   -5.0124    4.4787   -0.5774 H   0  0  0  0  0  0  0  0  0  0  0  0
  1  9  2  0  0  0  0
  1  2  1  0  0  0  0
  1 22  1  0  0  0  0
  2  3  2  0  0  0  0
  2 23  1  0  0  0  0
  3  7  1  0  0  0  0
  3  4  1  0  0  0  0
  4  5  2  0  0  0  0
  4 24  1  0  0  0  0
  5  6  1  0  0  0  0
  5 15  1  0  0  0  0
  6 14  1  0  0  0  0
  6  7  1  0  0  0  0
  7  8  2  0  0  0  0
  8  9  1  0  0  0  0
  8 10  1  0  0  0  0
  9 25  1  0  0  0  0
 10 11  2  0  0  0  0
 10 12  1  0  0  0  0
 12 13  1  0  0  0  0
 12 26  1  0  0  0  0
 13 14  1  0  0  0  0
 13 27  1  0  0  0  0
 13 28  1  0  0  0  0
 14 29  1  0  0  0  0
 14 30  1  0  0  0  0
 15 20  2  0  0  0  0
 15 16  1  0  0  0  0
 16 17  2  0  0  0  0
 16 31  1  0  0  0  0
 17 18  1  0  0  0  0
 17 32  1  0  0  0  0
 18 19  2  0  0  0  0
 18 21  1  0  0  0  0
 19 20  1  0  0  0  0
 19 33  1  0  0  0  0
 20 34  1  0  0  0  0
M  END
$$$$
ZINC03832204
  -OEChem-08230709403D

 50 54  0     0  0  0  0  0  0999 V2000
   -7.1085   14.3544   -1.8397 C   0  0  0  0  0  0  0  0  0  0  0  0
   -5.7319   14.3939   -1.7197 C   0  0  0  0  0  0  0  0  0  0  0  0
   -5.0074   13.2172   -1.6815 C   0  0  0  0  0  0  0  0  0  0  0  0
   -5.6594   12.0011   -1.7638 C   0  0  0  0  0  0  0  0  0  0  0  0
   -7.0355   11.9618   -1.8895 C   0  0  0  0  0  0  0  0  0  0  0  0
   -7.7605   13.1383   -1.9219 C   0  0  0  0  0  0  0  0  0  0  0  0
   -4.8696   10.7183   -1.7226 C   0  0  0  0  0  0  0  0  0  0  0  0
   -4.7267   10.2537   -0.2719 C   0  0  0  0  0  0  0  0  0  0  0  0
   -3.9368    8.9710   -0.2307 C   0  0  0  0  0  0  0  0  0  0  0  0
   -2.5592    9.0139   -0.1105 C   0  0  0  0  0  0  0  0  0  0  0  0
   -1.8302    7.8432   -0.0723 C   0  0  0  0  0  0  0  0  0  0  0  0
   -2.4854    6.6139   -0.1551 C   0  0  0  0  0  0  0  0  0  0  0  0
   -3.8747    6.5776   -0.2820 C   0  0  0  0  0  0  0  0  0  0  0  0
   -4.5924    7.7554   -0.3138 C   0  0  0  0  0  0  0  0  0  0  0  0
   -1.7103    5.3551   -0.1147 C   0  0  0  0  0  0  0  0  0  0  0  0
   -2.1382    4.1618   -0.5888 C   0  0  0  0  0  0  0  0  0  0  0  0
   -1.0659    3.1994   -0.3386 C   0  0  0  0  0  0  0  0  0  0  0  0
   -0.9486    1.8207   -0.5375 C   0  0  0  0  0  0  0  0  0  0  0  0
    0.2218    1.1777   -0.1967 C   0  0  0  0  0  0  0  0  0  0  0  0
    1.2933    1.8895    0.3066 C   0  0  0  0  0  0  0  0  0  0  0  0
    1.2127    3.2740    0.4897 C   0  0  0  0  0  0  0  0  0  0  0  0
    0.0020    3.9277    0.2167 C   0  0  0  0  0  0  0  0  0  0  0  0
   -0.4428    5.2204    0.4124 N   0  0  0  0  0  0  0  0  0  0  0  0
    0.3167    6.2515    1.0869 C   0  0  0  0  0  0  0  0  0  0  0  0
    1.2282    5.7062    2.1663 C   0  0  0  0  0  0  0  0  0  0  0  0
    2.4379    5.1247    1.6333 N   0  0  0  0  0  0  0  0  0  0  0  0
    2.4196    4.0005    0.8936 C   0  0  0  0  0  0  0  0  0  0  0  0
    3.4901    3.5515    0.5317 O   0  0  0  0  0  0  0  0  0  0  0  0
   -7.6745   15.2737   -1.8688 H   0  0  0  0  0  0  0  0  0  0  0  0
   -5.2225   15.3440   -1.6554 H   0  0  0  0  0  0  0  0  0  0  0  0
   -3.9319   13.2481   -1.5877 H   0  0  0  0  0  0  0  0  0  0  0  0
   -7.5445   11.0117   -1.9582 H   0  0  0  0  0  0  0  0  0  0  0  0
   -8.8360   13.1074   -2.0154 H   0  0  0  0  0  0  0  0  0  0  0  0
   -3.8808   10.8867   -2.1493 H   0  0  0  0  0  0  0  0  0  0  0  0
   -5.3889    9.9532   -2.2997 H   0  0  0  0  0  0  0  0  0  0  0  0
   -5.7155   10.0854    0.1548 H   0  0  0  0  0  0  0  0  0  0  0  0
   -4.2074   11.0188    0.3052 H   0  0  0  0  0  0  0  0  0  0  0  0
   -2.0534    9.9660   -0.0461 H   0  0  0  0  0  0  0  0  0  0  0  0
   -0.7548    7.8781    0.0213 H   0  0  0  0  0  0  0  0  0  0  0  0
   -4.3872    5.6295   -0.3514 H   0  0  0  0  0  0  0  0  0  0  0  0
   -5.6680    7.7287   -0.4078 H   0  0  0  0  0  0  0  0  0  0  0  0
   -3.0882    3.9594   -1.0609 H   0  0  0  0  0  0  0  0  0  0  0  0
   -1.7721    1.2615   -0.9564 H   0  0  0  0  0  0  0  0  0  0  0  0
    0.3017    0.1082   -0.3239 H   0  0  0  0  0  0  0  0  0  0  0  0
    2.2037    1.3697    0.5662 H   0  0  0  0  0  0  0  0  0  0  0  0
    0.9123    6.7873    0.3478 H   0  0  0  0  0  0  0  0  0  0  0  0
   -0.3785    6.9534    1.5475 H   0  0  0  0  0  0  0  0  0  0  0  0
    0.6945    4.9444    2.7346 H   0  0  0  0  0  0  0  0  0  0  0  0
    1.4981    6.5195    2.8399 H   0  0  0  0  0  0  0  0  0  0  0  0
    3.2876    5.5563    1.8139 H   0  0  0  0  0  0  0  0  0  0  0  0
  1  6  2  0  0  0  0
  1  2  1  0  0  0  0
  1 29  1  0  0  0  0
  2  3  2  0  0  0  0
  2 30  1  0  0  0  0
  3  4  1  0  0  0  0
  3 31  1  0  0  0  0
  4  5  2  0  0  0  0
  4  7  1  0  0  0  0
  5  6  1  0  0  0  0
  5 32  1  0  0  0  0
  6 33  1  0  0  0  0
  7  8  1  0  0  0  0
  7 34  1  0  0  0  0
  7 35  1  0  0  0  0
  8  9  1  0  0  0  0
  8 36  1  0  0  0  0
  8 37  1  0  0  0  0
  9 14  2  0  0  0  0
  9 10  1  0  0  0  0
 10 11  2  0  0  0  0
 10 38  1  0  0  0  0
 11 12  1  0  0  0  0
 11 39  1  0  0  0  0
 12 13  2  0  0  0  0
 12 15  1  0  0  0  0
 13 14  1  0  0  0  0
 13 40  1  0  0  0  0
 14 41  1  0  0  0  0
 15 23  1  0  0  0  0
 15 16  2  0  0  0  0
 16 17  1  0  0  0  0
 16 42  1  0  0  0  0
 17 22  2  0  0  0  0
 17 18  1  0  0  0  0
 18 19  2  0  0  0  0
 18 43  1  0  0  0  0
 19 20  1  0  0  0  0
 19 44  1  0  0  0  0
 20 21  2  0  0  0  0
 20 45  1  0  0  0  0
 21 27  1  0  0  0  0
 21 22  1  0  0  0  0
 22 23  1  0  0  0  0
 23 24  1  0  0  0  0
 24 25  1  0  0  0  0
 24 46  1  0  0  0  0
 24 47  1  0  0  0  0
 25 26  1  0  0  0  0
 25 48  1  0  0  0  0
 25 49  1  0  0  0  0
 26 27  1  0  0  0  0
 26 50  1  0  0  0  0
 27 28  2  0  0  0  0
M  END
$$$$
ZINC03832205
  -OEChem-08230709403D

 46 49  0     0  0  0  0  0  0999 V2000
   -1.8960   -3.0255   -6.9382 C   0  0  0  0  0  0  0  0  0  0  0  0
   -0.2454   -1.4724   -6.0861 C   0  0  0  0  0  0  0  0  0  0  0  0
   -0.7443   -3.5012   -4.8623 C   0  0  0  0  0  0  0  0  0  0  0  0
    0.6201   -3.5562   -4.2246 C   0  0  0  0  0  0  0  0  0  0  0  0
    1.4296   -4.6613   -4.4202 C   0  0  0  0  0  0  0  0  0  0  0  0
    2.6834   -4.7193   -3.8388 C   0  0  0  0  0  0  0  0  0  0  0  0
    3.1370   -3.6717   -3.0637 C   0  0  0  0  0  0  0  0  0  0  0  0
    2.3235   -2.5568   -2.8582 C   0  0  0  0  0  0  0  0  0  0  0  0
    1.0595   -2.5045   -3.4476 C   0  0  0  0  0  0  0  0  0  0  0  0
    2.8012   -1.4327   -2.0244 C   0  0  0  0  0  0  0  0  0  0  0  0
    4.0989   -1.1652   -1.7467 C   0  0  0  0  0  0  0  0  0  0  0  0
    4.1123    0.0274   -0.9011 C   0  0  0  0  0  0  0  0  0  0  0  0
    5.1256    0.7199   -0.2317 C   0  0  0  0  0  0  0  0  0  0  0  0
    4.8170    1.8500    0.4944 C   0  0  0  0  0  0  0  0  0  0  0  0
    3.5210    2.3261    0.5356 C   0  0  0  0  0  0  0  0  0  0  0  0
    2.4902    1.6617   -0.1369 C   0  0  0  0  0  0  0  0  0  0  0  0
    2.7766    0.4571   -0.7977 C   0  0  0  0  0  0  0  0  0  0  0  0
    1.9917   -0.4988   -1.4119 N   0  0  0  0  0  0  0  0  0  0  0  0
    0.5449   -0.4913   -1.4025 C   0  0  0  0  0  0  0  0  0  0  0  0
   -0.0376    0.1348   -0.1625 C   0  0  0  0  0  0  0  0  0  0  0  0
   -0.0059    1.5781   -0.1835 N   0  0  0  0  0  0  0  0  0  0  0  0
    1.1539    2.2622   -0.1500 C   0  0  0  0  0  0  0  0  0  0  0  0
    1.0864    3.4761   -0.1295 O   0  0  0  0  0  0  0  0  0  0  0  0
   -2.7020   -2.5384   -6.3893 H   0  0  0  0  0  0  0  0  0  0  0  0
   -1.7907   -2.5598   -7.9181 H   0  0  0  0  0  0  0  0  0  0  0  0
   -2.1280   -4.0833   -7.0617 H   0  0  0  0  0  0  0  0  0  0  0  0
    0.7226   -1.4012   -5.5902 H   0  0  0  0  0  0  0  0  0  0  0  0
   -0.1750   -1.0397   -7.0841 H   0  0  0  0  0  0  0  0  0  0  0  0
   -0.9915   -0.9291   -5.5063 H   0  0  0  0  0  0  0  0  0  0  0  0
   -1.1399   -4.5120   -4.9615 H   0  0  0  0  0  0  0  0  0  0  0  0
   -1.4134   -2.9088   -4.2382 H   0  0  0  0  0  0  0  0  0  0  0  0
    1.0810   -5.4819   -5.0297 H   0  0  0  0  0  0  0  0  0  0  0  0
    3.3104   -5.5847   -3.9953 H   0  0  0  0  0  0  0  0  0  0  0  0
    4.1178   -3.7163   -2.6139 H   0  0  0  0  0  0  0  0  0  0  0  0
    0.4269   -1.6423   -3.2960 H   0  0  0  0  0  0  0  0  0  0  0  0
    4.9585   -1.7251   -2.0843 H   0  0  0  0  0  0  0  0  0  0  0  0
    6.1463    0.3709   -0.2837 H   0  0  0  0  0  0  0  0  0  0  0  0
    5.5950    2.3674    1.0361 H   0  0  0  0  0  0  0  0  0  0  0  0
    3.3008    3.2237    1.0943 H   0  0  0  0  0  0  0  0  0  0  0  0
    0.1891   -1.5190   -1.4760 H   0  0  0  0  0  0  0  0  0  0  0  0
    0.1937    0.0632   -2.2727 H   0  0  0  0  0  0  0  0  0  0  0  0
    0.5247   -0.2150    0.7033 H   0  0  0  0  0  0  0  0  0  0  0  0
   -1.0728   -0.1910   -0.0614 H   0  0  0  0  0  0  0  0  0  0  0  0
   -0.8419    2.0681   -0.2268 H   0  0  0  0  0  0  0  0  0  0  0  0
   -0.6187   -2.8976   -6.2056 N   0  3  0  0  0  0  0  0  0  0  0  0
    0.1153   -3.3921   -6.7261 H   0  0  0  0  0  0  0  0  0  0  0  0
  1 24  1  0  0  0  0
  1 25  1  0  0  0  0
  1 26  1  0  0  0  0
  1 45  1  0  0  0  0
  2 27  1  0  0  0  0
  2 28  1  0  0  0  0
  2 29  1  0  0  0  0
  2 45  1  0  0  0  0
  3  4  1  0  0  0  0
  3 30  1  0  0  0  0
  3 31  1  0  0  0  0
  3 45  1  0  0  0  0
  4  9  2  0  0  0  0
  4  5  1  0  0  0  0
  5  6  2  0  0  0  0
  5 32  1  0  0  0  0
  6  7  1  0  0  0  0
  6 33  1  0  0  0  0
  7  8  2  0  0  0  0
  7 34  1  0  0  0  0
  8  9  1  0  0  0  0
  8 10  1  0  0  0  0
  9 35  1  0  0  0  0
 10 18  1  0  0  0  0
 10 11  2  0  0  0  0
 11 12  1  0  0  0  0
 11 36  1  0  0  0  0
 12 17  2  0  0  0  0
 12 13  1  0  0  0  0
 13 14  2  0  0  0  0
 13 37  1  0  0  0  0
 14 15  1  0  0  0  0
 14 38  1  0  0  0  0
 15 16  2  0  0  0  0
 15 39  1  0  0  0  0
 16 22  1  0  0  0  0
 16 17  1  0  0  0  0
 17 18  1  0  0  0  0
 18 19  1  0  0  0  0
 19 20  1  0  0  0  0
 19 40  1  0  0  0  0
 19 41  1  0  0  0  0
 20 21  1  0  0  0  0
 20 42  1  0  0  0  0
 20 43  1  0  0  0  0
 21 22  1  0  0  0  0
 21 44  1  0  0  0  0
 22 23  2  0  0  0  0
 45 46  1  0  0  0  0
M  CHG  1  45   1
M  END
$$$$
ZINC03832206
  -OEChem-08230709403D

 43 46  0     0  0  0  0  0  0999 V2000
   -1.9532   -2.8132   -6.8442 C   0  0  0  0  0  0  0  0  0  0  0  0
   -0.7443   -3.5012   -4.8623 C   0  0  0  0  0  0  0  0  0  0  0  0
    0.6201   -3.5562   -4.2246 C   0  0  0  0  0  0  0  0  0  0  0  0
    1.4296   -4.6613   -4.4202 C   0  0  0  0  0  0  0  0  0  0  0  0
    2.6834   -4.7193   -3.8388 C   0  0  0  0  0  0  0  0  0  0  0  0
    3.1370   -3.6717   -3.0637 C   0  0  0  0  0  0  0  0  0  0  0  0
    2.3235   -2.5568   -2.8582 C   0  0  0  0  0  0  0  0  0  0  0  0
    1.0595   -2.5045   -3.4476 C   0  0  0  0  0  0  0  0  0  0  0  0
    2.8012   -1.4327   -2.0244 C   0  0  0  0  0  0  0  0  0  0  0  0
    4.0989   -1.1652   -1.7467 C   0  0  0  0  0  0  0  0  0  0  0  0
    4.1123    0.0274   -0.9011 C   0  0  0  0  0  0  0  0  0  0  0  0
    5.1256    0.7199   -0.2317 C   0  0  0  0  0  0  0  0  0  0  0  0
    4.8170    1.8500    0.4944 C   0  0  0  0  0  0  0  0  0  0  0  0
    3.5210    2.3261    0.5356 C   0  0  0  0  0  0  0  0  0  0  0  0
    2.4902    1.6617   -0.1369 C   0  0  0  0  0  0  0  0  0  0  0  0
    2.7766    0.4571   -0.7977 C   0  0  0  0  0  0  0  0  0  0  0  0
    1.9917   -0.4988   -1.4119 N   0  0  0  0  0  0  0  0  0  0  0  0
    0.5449   -0.4913   -1.4025 C   0  0  0  0  0  0  0  0  0  0  0  0
   -0.0376    0.1348   -0.1625 C   0  0  0  0  0  0  0  0  0  0  0  0
   -0.0059    1.5781   -0.1835 N   0  0  0  0  0  0  0  0  0  0  0  0
    1.1539    2.2622   -0.1500 C   0  0  0  0  0  0  0  0  0  0  0  0
    1.0864    3.4761   -0.1295 O   0  0  0  0  0  0  0  0  0  0  0  0
   -1.8466   -2.3521   -7.8260 H   0  0  0  0  0  0  0  0  0  0  0  0
   -2.3572   -3.8193   -6.9572 H   0  0  0  0  0  0  0  0  0  0  0  0
   -2.6307   -2.2161   -6.2339 H   0  0  0  0  0  0  0  0  0  0  0  0
   -1.1399   -4.5120   -4.9615 H   0  0  0  0  0  0  0  0  0  0  0  0
   -1.4134   -2.9088   -4.2382 H   0  0  0  0  0  0  0  0  0  0  0  0
    1.0810   -5.4819   -5.0297 H   0  0  0  0  0  0  0  0  0  0  0  0
    3.3104   -5.5847   -3.9953 H   0  0  0  0  0  0  0  0  0  0  0  0
    4.1178   -3.7163   -2.6139 H   0  0  0  0  0  0  0  0  0  0  0  0
    0.4269   -1.6423   -3.2960 H   0  0  0  0  0  0  0  0  0  0  0  0
    4.9585   -1.7252   -2.0843 H   0  0  0  0  0  0  0  0  0  0  0  0
    6.1463    0.3709   -0.2836 H   0  0  0  0  0  0  0  0  0  0  0  0
    5.5950    2.3674    1.0361 H   0  0  0  0  0  0  0  0  0  0  0  0
    3.3008    3.2237    1.0943 H   0  0  0  0  0  0  0  0  0  0  0  0
    0.1891   -1.5190   -1.4760 H   0  0  0  0  0  0  0  0  0  0  0  0
    0.1938    0.0632   -2.2727 H   0  0  0  0  0  0  0  0  0  0  0  0
    0.5247   -0.2150    0.7033 H   0  0  0  0  0  0  0  0  0  0  0  0
   -1.0728   -0.1910   -0.0614 H   0  0  0  0  0  0  0  0  0  0  0  0
   -0.8419    2.0681   -0.2268 H   0  0  0  0  0  0  0  0  0  0  0  0
   -0.6301   -2.8803   -6.1954 N   0  3  0  0  0  0  0  0  0  0  0  0
   -0.2533   -1.9304   -6.0955 H   0  0  0  0  0  0  0  0  0  0  0  0
    0.0042   -3.4406   -6.7768 H   0  0  0  0  0  0  0  0  0  0  0  0
  1 23  1  0  0  0  0
  1 24  1  0  0  0  0
  1 25  1  0  0  0  0
  1 41  1  0  0  0  0
  2  3  1  0  0  0  0
  2 26  1  0  0  0  0
  2 27  1  0  0  0  0
  2 41  1  0  0  0  0
  3  8  2  0  0  0  0
  3  4  1  0  0  0  0
  4  5  2  0  0  0  0
  4 28  1  0  0  0  0
  5  6  1  0  0  0  0
  5 29  1  0  0  0  0
  6  7  2  0  0  0  0
  6 30  1  0  0  0  0
  7  8  1  0  0  0  0
  7  9  1  0  0  0  0
  8 31  1  0  0  0  0
  9 17  1  0  0  0  0
  9 10  2  0  0  0  0
 10 11  1  0  0  0  0
 10 32  1  0  0  0  0
 11 16  2  0  0  0  0
 11 12  1  0  0  0  0
 12 13  2  0  0  0  0
 12 33  1  0  0  0  0
 13 14  1  0  0  0  0
 13 34  1  0  0  0  0
 14 15  2  0  0  0  0
 14 35  1  0  0  0  0
 15 21  1  0  0  0  0
 15 16  1  0  0  0  0
 16 17  1  0  0  0  0
 17 18  1  0  0  0  0
 18 19  1  0  0  0  0
 18 36  1  0  0  0  0
 18 37  1  0  0  0  0
 19 20  1  0  0  0  0
 19 38  1  0  0  0  0
 19 39  1  0  0  0  0
 20 21  1  0  0  0  0
 20 40  1  0  0  0  0
 21 22  2  0  0  0  0
 41 42  1  0  0  0  0
 41 43  1  0  0  0  0
M  CHG  1  41   1
M  END
$$$$
ZINC03832207
  -OEChem-08230709403D

 46 49  0     0  0  0  0  0  0999 V2000
   -9.3526    0.6457   -1.1950 C   0  0  0  0  0  0  0  0  0  0  0  0
  -11.1200    2.2959   -1.0693 C   0  0  0  0  0  0  0  0  0  0  0  0
   -9.1356    2.5408    0.2963 C   0  0  0  0  0  0  0  0  0  0  0  0
   -7.6295    2.5151    0.2515 C   0  0  0  0  0  0  0  0  0  0  0  0
   -6.9344    3.6270   -0.1895 C   0  0  0  0  0  0  0  0  0  0  0  0
   -5.5555    3.6099   -0.2329 C   0  0  0  0  0  0  0  0  0  0  0  0
   -4.8620    2.4677    0.1693 C   0  0  0  0  0  0  0  0  0  0  0  0
   -5.5693    1.3474    0.6077 C   0  0  0  0  0  0  0  0  0  0  0  0
   -6.9479    1.3794    0.6512 C   0  0  0  0  0  0  0  0  0  0  0  0
   -3.3840    2.4425    0.1254 C   0  0  0  0  0  0  0  0  0  0  0  0
   -2.6252    1.3224    0.0854 C   0  0  0  0  0  0  0  0  0  0  0  0
   -1.2299    1.7593    0.0579 C   0  0  0  0  0  0  0  0  0  0  0  0
   -0.0101    1.0773    0.0900 C   0  0  0  0  0  0  0  0  0  0  0  0
    1.1711    1.7853    0.0369 C   0  0  0  0  0  0  0  0  0  0  0  0
    1.1601    3.1619   -0.0777 C   0  0  0  0  0  0  0  0  0  0  0  0
   -0.0464    3.8674   -0.1381 C   0  0  0  0  0  0  0  0  0  0  0  0
   -1.2535    3.1647   -0.0075 C   0  0  0  0  0  0  0  0  0  0  0  0
   -2.5702    3.5576    0.1318 N   0  0  0  0  0  0  0  0  0  0  0  0
   -3.0046    4.9331    0.2558 C   0  0  0  0  0  0  0  0  0  0  0  0
   -1.9903    5.8209    0.9283 C   0  0  0  0  0  0  0  0  0  0  0  0
   -0.9026    6.2032    0.0584 N   0  0  0  0  0  0  0  0  0  0  0  0
   -0.0050    5.3096   -0.3947 C   0  0  0  0  0  0  0  0  0  0  0  0
    0.9134    5.7320   -1.0704 O   0  0  0  0  0  0  0  0  0  0  0  0
   -9.7891    0.0526   -0.3914 H   0  0  0  0  0  0  0  0  0  0  0  0
   -9.7611    0.3186   -2.1512 H   0  0  0  0  0  0  0  0  0  0  0  0
   -8.2707    0.5133   -1.1979 H   0  0  0  0  0  0  0  0  0  0  0  0
  -11.3229    3.3631   -0.9807 H   0  0  0  0  0  0  0  0  0  0  0  0
  -11.4911    1.9338   -2.0281 H   0  0  0  0  0  0  0  0  0  0  0  0
  -11.6205    1.7625   -0.2611 H   0  0  0  0  0  0  0  0  0  0  0  0
   -9.4863    1.8935    1.1000 H   0  0  0  0  0  0  0  0  0  0  0  0
   -9.4763    3.5604    0.4761 H   0  0  0  0  0  0  0  0  0  0  0  0
   -7.4724    4.5102   -0.5009 H   0  0  0  0  0  0  0  0  0  0  0  0
   -5.0141    4.4785   -0.5778 H   0  0  0  0  0  0  0  0  0  0  0  0
   -5.0385    0.4587    0.9158 H   0  0  0  0  0  0  0  0  0  0  0  0
   -7.4963    0.5145    0.9942 H   0  0  0  0  0  0  0  0  0  0  0  0
   -2.9815    0.3029    0.0753 H   0  0  0  0  0  0  0  0  0  0  0  0
    0.0066   -0.0008    0.1517 H   0  0  0  0  0  0  0  0  0  0  0  0
    2.1132    1.2595    0.0855 H   0  0  0  0  0  0  0  0  0  0  0  0
    2.0952    3.7005   -0.1214 H   0  0  0  0  0  0  0  0  0  0  0  0
   -3.2080    5.3267   -0.7402 H   0  0  0  0  0  0  0  0  0  0  0  0
   -3.9284    4.9573    0.8338 H   0  0  0  0  0  0  0  0  0  0  0  0
   -2.4921    6.7229    1.2786 H   0  0  0  0  0  0  0  0  0  0  0  0
   -1.5808    5.2940    1.7901 H   0  0  0  0  0  0  0  0  0  0  0  0
   -0.8167    7.1322   -0.2069 H   0  0  0  0  0  0  0  0  0  0  0  0
   -9.6592    2.0793   -1.0066 N   0  3  0  0  0  0  0  0  0  0  0  0
   -9.2097    2.6178   -1.7563 H   0  0  0  0  0  0  0  0  0  0  0  0
  1 24  1  0  0  0  0
  1 25  1  0  0  0  0
  1 26  1  0  0  0  0
  1 45  1  0  0  0  0
  2 27  1  0  0  0  0
  2 28  1  0  0  0  0
  2 29  1  0  0  0  0
  2 45  1  0  0  0  0
  3  4  1  0  0  0  0
  3 30  1  0  0  0  0
  3 31  1  0  0  0  0
  3 45  1  0  0  0  0
  4  9  2  0  0  0  0
  4  5  1  0  0  0  0
  5  6  2  0  0  0  0
  5 32  1  0  0  0  0
  6  7  1  0  0  0  0
  6 33  1  0  0  0  0
  7  8  2  0  0  0  0
  7 10  1  0  0  0  0
  8  9  1  0  0  0  0
  8 34  1  0  0  0  0
  9 35  1  0  0  0  0
 10 18  1  0  0  0  0
 10 11  2  0  0  0  0
 11 12  1  0  0  0  0
 11 36  1  0  0  0  0
 12 17  2  0  0  0  0
 12 13  1  0  0  0  0
 13 14  2  0  0  0  0
 13 37  1  0  0  0  0
 14 15  1  0  0  0  0
 14 38  1  0  0  0  0
 15 16  2  0  0  0  0
 15 39  1  0  0  0  0
 16 22  1  0  0  0  0
 16 17  1  0  0  0  0
 17 18  1  0  0  0  0
 18 19  1  0  0  0  0
 19 20  1  0  0  0  0
 19 40  1  0  0  0  0
 19 41  1  0  0  0  0
 20 21  1  0  0  0  0
 20 42  1  0  0  0  0
 20 43  1  0  0  0  0
 21 22  1  0  0  0  0
 21 44  1  0  0  0  0
 22 23  2  0  0  0  0
 45 46  1  0  0  0  0
M  CHG  1  45   1
M  END
$$$$
ZINC03832208
  -OEChem-08230709403D

 43 46  0     0  0  0  0  0  0999 V2000
    0.3035    1.5032   -2.3558 C   0  0  0  0  0  0  0  0  0  0  0  0
   -0.0134    1.0850    0.0079 C   0  0  0  0  0  0  0  0  0  0  0  0
   -0.7184    1.5714    1.2478 C   0  0  0  0  0  0  0  0  0  0  0  0
   -0.1055    2.5014    2.0686 C   0  0  0  0  0  0  0  0  0  0  0  0
   -0.7476    2.9544    3.2026 C   0  0  0  0  0  0  0  0  0  0  0  0
   -2.0133    2.4642    3.5270 C   0  0  0  0  0  0  0  0  0  0  0  0
   -2.6237    1.5223    2.6977 C   0  0  0  0  0  0  0  0  0  0  0  0
   -1.9733    1.0818    1.5635 C   0  0  0  0  0  0  0  0  0  0  0  0
   -2.7045    2.9405    4.7445 C   0  0  0  0  0  0  0  0  0  0  0  0
   -3.6947    2.2783    5.3869 C   0  0  0  0  0  0  0  0  0  0  0  0
   -4.0856    3.1069    6.5266 C   0  0  0  0  0  0  0  0  0  0  0  0
   -5.0936    2.9996    7.4895 C   0  0  0  0  0  0  0  0  0  0  0  0
   -5.2177    3.9694    8.4607 C   0  0  0  0  0  0  0  0  0  0  0  0
   -4.3368    5.0324    8.5085 C   0  0  0  0  0  0  0  0  0  0  0  0
   -3.3043    5.1513    7.5722 C   0  0  0  0  0  0  0  0  0  0  0  0
   -3.2157    4.2125    6.5334 C   0  0  0  0  0  0  0  0  0  0  0  0
   -2.4329    4.1236    5.3997 N   0  0  0  0  0  0  0  0  0  0  0  0
   -1.5022    5.1457    4.9656 C   0  0  0  0  0  0  0  0  0  0  0  0
   -1.9139    6.5387    5.3646 C   0  0  0  0  0  0  0  0  0  0  0  0
   -1.6523    6.8343    6.7539 N   0  0  0  0  0  0  0  0  0  0  0  0
   -2.3144    6.2173    7.7494 C   0  0  0  0  0  0  0  0  0  0  0  0
   -2.0724    6.5727    8.8868 O   0  0  0  0  0  0  0  0  0  0  0  0
    1.3836    1.5380   -2.2135 H   0  0  0  0  0  0  0  0  0  0  0  0
    0.0000    0.4819   -2.5858 H   0  0  0  0  0  0  0  0  0  0  0  0
    0.0244    2.1596   -3.1801 H   0  0  0  0  0  0  0  0  0  0  0  0
   -0.3191    0.0608   -0.2057 H   0  0  0  0  0  0  0  0  0  0  0  0
    1.0645    1.1169    0.1667 H   0  0  0  0  0  0  0  0  0  0  0  0
    0.8759    2.8767    1.8188 H   0  0  0  0  0  0  0  0  0  0  0  0
   -0.2697    3.6832    3.8405 H   0  0  0  0  0  0  0  0  0  0  0  0
   -3.6030    1.1388    2.9434 H   0  0  0  0  0  0  0  0  0  0  0  0
   -2.4447    0.3529    0.9209 H   0  0  0  0  0  0  0  0  0  0  0  0
   -4.1150    1.3224    5.1111 H   0  0  0  0  0  0  0  0  0  0  0  0
   -5.7726    2.1599    7.4720 H   0  0  0  0  0  0  0  0  0  0  0  0
   -6.0106    3.8978    9.1904 H   0  0  0  0  0  0  0  0  0  0  0  0
   -4.4469    5.7816    9.2786 H   0  0  0  0  0  0  0  0  0  0  0  0
   -1.4148    5.1043    3.8799 H   0  0  0  0  0  0  0  0  0  0  0  0
   -0.5272    4.9304    5.4027 H   0  0  0  0  0  0  0  0  0  0  0  0
   -2.9812    6.6555    5.1768 H   0  0  0  0  0  0  0  0  0  0  0  0
   -1.3701    7.2530    4.7464 H   0  0  0  0  0  0  0  0  0  0  0  0
   -0.9799    7.4972    6.9757 H   0  0  0  0  0  0  0  0  0  0  0  0
   -0.3736    1.9567   -1.1263 N   0  3  0  0  0  0  0  0  0  0  0  0
   -1.3900    1.9253   -1.2681 H   0  0  0  0  0  0  0  0  0  0  0  0
   -0.0867    2.9202   -0.9174 H   0  0  0  0  0  0  0  0  0  0  0  0
  1 23  1  0  0  0  0
  1 24  1  0  0  0  0
  1 25  1  0  0  0  0
  1 41  1  0  0  0  0
  2  3  1  0  0  0  0
  2 26  1  0  0  0  0
  2 27  1  0  0  0  0
  2 41  1  0  0  0  0
  3  8  2  0  0  0  0
  3  4  1  0  0  0  0
  4  5  2  0  0  0  0
  4 28  1  0  0  0  0
  5  6  1  0  0  0  0
  5 29  1  0  0  0  0
  6  7  2  0  0  0  0
  6  9  1  0  0  0  0
  7  8  1  0  0  0  0
  7 30  1  0  0  0  0
  8 31  1  0  0  0  0
  9 17  1  0  0  0  0
  9 10  2  0  0  0  0
 10 11  1  0  0  0  0
 10 32  1  0  0  0  0
 11 16  2  0  0  0  0
 11 12  1  0  0  0  0
 12 13  2  0  0  0  0
 12 33  1  0  0  0  0
 13 14  1  0  0  0  0
 13 34  1  0  0  0  0
 14 15  2  0  0  0  0
 14 35  1  0  0  0  0
 15 21  1  0  0  0  0
 15 16  1  0  0  0  0
 16 17  1  0  0  0  0
 17 18  1  0  0  0  0
 18 19  1  0  0  0  0
 18 36  1  0  0  0  0
 18 37  1  0  0  0  0
 19 20  1  0  0  0  0
 19 38  1  0  0  0  0
 19 39  1  0  0  0  0
 20 21  1  0  0  0  0
 20 40  1  0  0  0  0
 21 22  2  0  0  0  0
 41 42  1  0  0  0  0
 41 43  1  0  0  0  0
M  CHG  1  41   1
M  END
$$$$
ZINC03832209
  -OEChem-08230709403D

 37 40  0     0  0  0  0  0  0999 V2000
    5.3026   -1.8528   -2.3466 C   0  0  0  0  0  0  0  0  0  0  0  0
    4.1006   -1.1244   -1.8027 C   0  0  0  0  0  0  0  0  0  0  0  0
    4.1131    0.0513   -0.9337 C   0  0  0  0  0  0  0  0  0  0  0  0
    5.1325    0.7665   -0.2985 C   0  0  0  0  0  0  0  0  0  0  0  0
    4.8199    1.8705    0.4650 C   0  0  0  0  0  0  0  0  0  0  0  0
    3.5116    2.2989    0.5776 C   0  0  0  0  0  0  0  0  0  0  0  0
    2.4735    1.6112   -0.0593 C   0  0  0  0  0  0  0  0  0  0  0  0
    2.7697    0.4309   -0.7584 C   0  0  0  0  0  0  0  0  0  0  0  0
    1.9899   -0.5404   -1.3549 N   0  0  0  0  0  0  0  0  0  0  0  0
    2.8012   -1.4327   -2.0244 C   0  0  0  0  0  0  0  0  0  0  0  0
    2.3235   -2.5563   -2.8589 C   0  0  0  0  0  0  0  0  0  0  0  0
    1.2974   -3.3832   -2.3999 C   0  0  0  0  0  0  0  0  0  0  0  0
    0.8524   -4.4262   -3.1858 C   0  0  0  0  0  0  0  0  0  0  0  0
    1.4294   -4.6604   -4.4213 C   0  0  0  0  0  0  0  0  0  0  0  0
    2.4507   -3.8474   -4.8799 C   0  0  0  0  0  0  0  0  0  0  0  0
    2.9009   -2.7976   -4.1062 C   0  0  0  0  0  0  0  0  0  0  0  0
    0.5459   -0.5848   -1.2770 C   0  0  0  0  0  0  0  0  0  0  0  0
    0.0021   -0.0041    0.0020 C   0  0  0  0  0  0  0  0  0  0  0  0
   -0.0175    1.4396    0.0100 N   0  0  0  0  0  0  0  0  0  0  0  0
    1.1181    2.1639    0.0030 C   0  0  0  0  0  0  0  0  0  0  0  0
    1.0094    3.3740    0.0523 O   0  0  0  0  0  0  0  0  0  0  0  0
    5.5885   -1.4176   -3.3042 H   0  0  0  0  0  0  0  0  0  0  0  0
    6.1311   -1.7617   -1.6443 H   0  0  0  0  0  0  0  0  0  0  0  0
    5.0575   -2.9058   -2.4848 H   0  0  0  0  0  0  0  0  0  0  0  0
    6.1611    0.4553   -0.4059 H   0  0  0  0  0  0  0  0  0  0  0  0
    5.6045    2.4051    0.9798 H   0  0  0  0  0  0  0  0  0  0  0  0
    3.2872    3.1768    1.1652 H   0  0  0  0  0  0  0  0  0  0  0  0
    0.8495   -3.2044   -1.4336 H   0  0  0  0  0  0  0  0  0  0  0  0
    0.0556   -5.0644   -2.8336 H   0  0  0  0  0  0  0  0  0  0  0  0
    1.0808   -5.4811   -5.0306 H   0  0  0  0  0  0  0  0  0  0  0  0
    2.8967   -4.0353   -5.8454 H   0  0  0  0  0  0  0  0  0  0  0  0
    3.6982   -2.1637   -4.4653 H   0  0  0  0  0  0  0  0  0  0  0  0
    0.2229   -1.6229   -1.3553 H   0  0  0  0  0  0  0  0  0  0  0  0
    0.1344   -0.0265   -2.1178 H   0  0  0  0  0  0  0  0  0  0  0  0
    0.6170   -0.3502    0.8327 H   0  0  0  0  0  0  0  0  0  0  0  0
   -1.0149   -0.3686    0.1472 H   0  0  0  0  0  0  0  0  0  0  0  0
   -0.8712    1.9001    0.0165 H   0  0  0  0  0  0  0  0  0  0  0  0
  1  2  1  0  0  0  0
  1 22  1  0  0  0  0
  1 23  1  0  0  0  0
  1 24  1  0  0  0  0
  2 10  2  0  0  0  0
  2  3  1  0  0  0  0
  3  8  2  0  0  0  0
  3  4  1  0  0  0  0
  4  5  2  0  0  0  0
  4 25  1  0  0  0  0
  5  6  1  0  0  0  0
  5 26  1  0  0  0  0
  6  7  2  0  0  0  0
  6 27  1  0  0  0  0
  7 20  1  0  0  0  0
  7  8  1  0  0  0  0
  8  9  1  0  0  0  0
  9 10  1  0  0  0  0
  9 17  1  0  0  0  0
 10 11  1  0  0  0  0
 11 16  2  0  0  0  0
 11 12  1  0  0  0  0
 12 13  2  0  0  0  0
 12 28  1  0  0  0  0
 13 14  1  0  0  0  0
 13 29  1  0  0  0  0
 14 15  2  0  0  0  0
 14 30  1  0  0  0  0
 15 16  1  0  0  0  0
 15 31  1  0  0  0  0
 16 32  1  0  0  0  0
 17 18  1  0  0  0  0
 17 33  1  0  0  0  0
 17 34  1  0  0  0  0
 18 19  1  0  0  0  0
 18 35  1  0  0  0  0
 18 36  1  0  0  0  0
 19 20  1  0  0  0  0
 19 37  1  0  0  0  0
 20 21  2  0  0  0  0
M  END
$$$$
ZINC03832211
  -OEChem-08230709403D

 37 40  0     0  0  0  0  0  0999 V2000
    4.0862    3.4657   -3.9924 C   0  0  0  0  0  0  0  0  0  0  0  0
    3.1542    2.6964   -3.0921 C   0  0  0  0  0  0  0  0  0  0  0  0
    2.3734    1.5130   -3.4509 C   0  0  0  0  0  0  0  0  0  0  0  0
    2.1733    0.8204   -4.6483 C   0  0  0  0  0  0  0  0  0  0  0  0
    1.3772   -0.3046   -4.6624 C   0  0  0  0  0  0  0  0  0  0  0  0
    0.8069   -0.7764   -3.4962 C   0  0  0  0  0  0  0  0  0  0  0  0
    1.0099   -0.1167   -2.2792 C   0  0  0  0  0  0  0  0  0  0  0  0
    1.7481    1.0761   -2.2686 C   0  0  0  0  0  0  0  0  0  0  0  0
    1.9804    2.0404   -1.3068 N   0  0  0  0  0  0  0  0  0  0  0  0
    2.8771    2.9677   -1.7948 C   0  0  0  0  0  0  0  0  0  0  0  0
    3.4505    4.0879   -1.0182 C   0  0  0  0  0  0  0  0  0  0  0  0
    2.6269    4.8749   -0.2119 C   0  0  0  0  0  0  0  0  0  0  0  0
    3.1677    5.9152    0.5144 C   0  0  0  0  0  0  0  0  0  0  0  0
    4.5245    6.1864    0.4361 C   0  0  0  0  0  0  0  0  0  0  0  0
    5.3459    5.4113   -0.3671 C   0  0  0  0  0  0  0  0  0  0  0  0
    4.8162    4.3654   -1.0935 C   0  0  0  0  0  0  0  0  0  0  0  0
    5.0482    7.2104    1.1450 F   0  0  0  0  0  0  0  0  0  0  0  0
    1.3582    2.0531    0.0001 C   0  0  0  0  0  0  0  0  0  0  0  0
   -0.0175    1.4398    0.0100 C   0  0  0  0  0  0  0  0  0  0  0  0
    0.0021   -0.0041    0.0020 N   0  0  0  0  0  0  0  0  0  0  0  0
    0.4504   -0.7021   -1.0582 C   0  0  0  0  0  0  0  0  0  0  0  0
    0.3855   -1.9148   -0.9979 O   0  0  0  0  0  0  0  0  0  0  0  0
    3.5315    4.2543   -4.5010 H   0  0  0  0  0  0  0  0  0  0  0  0
    4.8838    3.9090   -3.3962 H   0  0  0  0  0  0  0  0  0  0  0  0
    4.5174    2.7903   -4.7313 H   0  0  0  0  0  0  0  0  0  0  0  0
    2.6410    1.1652   -5.5587 H   0  0  0  0  0  0  0  0  0  0  0  0
    1.1981   -0.8220   -5.5934 H   0  0  0  0  0  0  0  0  0  0  0  0
    0.1956   -1.6663   -3.5243 H   0  0  0  0  0  0  0  0  0  0  0  0
    1.5686    4.6673   -0.1540 H   0  0  0  0  0  0  0  0  0  0  0  0
    2.5320    6.5220    1.1421 H   0  0  0  0  0  0  0  0  0  0  0  0
    6.4026    5.6269   -0.4246 H   0  0  0  0  0  0  0  0  0  0  0  0
    5.4570    3.7624   -1.7197 H   0  0  0  0  0  0  0  0  0  0  0  0
    1.2836    3.0853    0.3421 H   0  0  0  0  0  0  0  0  0  0  0  0
    1.9920    1.5019    0.6949 H   0  0  0  0  0  0  0  0  0  0  0  0
   -0.5619    1.7872   -0.8681 H   0  0  0  0  0  0  0  0  0  0  0  0
   -0.5450    1.7777    0.9020 H   0  0  0  0  0  0  0  0  0  0  0  0
   -0.3169   -0.4843    0.7821 H   0  0  0  0  0  0  0  0  0  0  0  0
  1  2  1  0  0  0  0
  1 23  1  0  0  0  0
  1 24  1  0  0  0  0
  1 25  1  0  0  0  0
  2 10  2  0  0  0  0
  2  3  1  0  0  0  0
  3  8  2  0  0  0  0
  3  4  1  0  0  0  0
  4  5  2  0  0  0  0
  4 26  1  0  0  0  0
  5  6  1  0  0  0  0
  5 27  1  0  0  0  0
  6  7  2  0  0  0  0
  6 28  1  0  0  0  0
  7 21  1  0  0  0  0
  7  8  1  0  0  0  0
  8  9  1  0  0  0  0
  9 10  1  0  0  0  0
  9 18  1  0  0  0  0
 10 11  1  0  0  0  0
 11 16  2  0  0  0  0
 11 12  1  0  0  0  0
 12 13  2  0  0  0  0
 12 29  1  0  0  0  0
 13 14  1  0  0  0  0
 13 30  1  0  0  0  0
 14 15  2  0  0  0  0
 14 17  1  0  0  0  0
 15 16  1  0  0  0  0
 15 31  1  0  0  0  0
 16 32  1  0  0  0  0
 18 19  1  0  0  0  0
 18 33  1  0  0  0  0
 18 34  1  0  0  0  0
 19 20  1  0  0  0  0
 19 35  1  0  0  0  0
 19 36  1  0  0  0  0
 20 21  1  0  0  0  0
 20 37  1  0  0  0  0
 21 22  2  0  0  0  0
M  END
$$$$
ZINC03832212
  -OEChem-08230709403D

 40 43  0     0  0  0  0  0  0999 V2000
    1.7260    5.6453    1.8215 C   0  0  0  0  0  0  0  0  0  0  0  0
    0.7050    6.1088    0.8145 C   0  0  0  0  0  0  0  0  0  0  0  0
    0.3628    7.4940    0.4934 C   0  0  0  0  0  0  0  0  0  0  0  0
    0.7643    8.7277    1.0131 C   0  0  0  0  0  0  0  0  0  0  0  0
    0.2662    9.8926    0.4703 C   0  0  0  0  0  0  0  0  0  0  0  0
   -0.5924    9.8528   -0.6108 C   0  0  0  0  0  0  0  0  0  0  0  0
   -0.9894    8.6327   -1.1684 C   0  0  0  0  0  0  0  0  0  0  0  0
   -0.5632    7.4400   -0.5646 C   0  0  0  0  0  0  0  0  0  0  0  0
   -0.8855    6.1103   -0.7552 N   0  0  0  0  0  0  0  0  0  0  0  0
   -0.0702    5.3234    0.0304 C   0  0  0  0  0  0  0  0  0  0  0  0
   -0.0502    3.8447    0.0223 C   0  0  0  0  0  0  0  0  0  0  0  0
   -1.2475    3.1274    0.0298 C   0  0  0  0  0  0  0  0  0  0  0  0
   -1.2219    1.7483    0.0173 C   0  0  0  0  0  0  0  0  0  0  0  0
   -0.0126    1.0758    0.0080 C   0  0  0  0  0  0  0  0  0  0  0  0
    1.1777    1.7807    0.0004 C   0  0  0  0  0  0  0  0  0  0  0  0
    1.1658    3.1605    0.0074 C   0  0  0  0  0  0  0  0  0  0  0  0
    2.4900    1.0401   -0.0161 C   0  0  0  0  0  0  0  0  0  0  0  0
    2.2479   -0.3377   -0.0212 F   0  0  0  0  0  0  0  0  0  0  0  0
    3.2093    1.3914   -1.1635 F   0  0  0  0  0  0  0  0  0  0  0  0
    3.2311    1.3792    1.1210 F   0  0  0  0  0  0  0  0  0  0  0  0
   -1.9283    5.6492   -1.6457 C   0  0  0  0  0  0  0  0  0  0  0  0
   -3.0646    6.6275   -1.7868 C   0  0  0  0  0  0  0  0  0  0  0  0
   -2.7643    7.7265   -2.6736 N   0  0  0  0  0  0  0  0  0  0  0  0
   -1.8278    8.6459   -2.3698 C   0  0  0  0  0  0  0  0  0  0  0  0
   -1.6656    9.5599   -3.1551 O   0  0  0  0  0  0  0  0  0  0  0  0
    2.6966    5.5461    1.3354 H   0  0  0  0  0  0  0  0  0  0  0  0
    1.7967    6.3741    2.6289 H   0  0  0  0  0  0  0  0  0  0  0  0
    1.4230    4.6806    2.2283 H   0  0  0  0  0  0  0  0  0  0  0  0
    1.4623    8.7681    1.8362 H   0  0  0  0  0  0  0  0  0  0  0  0
    0.5500   10.8447    0.8938 H   0  0  0  0  0  0  0  0  0  0  0  0
   -0.9627   10.7761   -1.0313 H   0  0  0  0  0  0  0  0  0  0  0  0
   -2.1919    3.6511    0.0413 H   0  0  0  0  0  0  0  0  0  0  0  0
   -2.1477    1.1922    0.0187 H   0  0  0  0  0  0  0  0  0  0  0  0
    0.0021   -0.0041    0.0020 H   0  0  0  0  0  0  0  0  0  0  0  0
    2.0958    3.7097    0.0019 H   0  0  0  0  0  0  0  0  0  0  0  0
   -1.4949    5.4717   -2.6300 H   0  0  0  0  0  0  0  0  0  0  0  0
   -2.3227    4.7072   -1.2647 H   0  0  0  0  0  0  0  0  0  0  0  0
   -3.9370    6.0977   -2.1693 H   0  0  0  0  0  0  0  0  0  0  0  0
   -3.3057    7.0282   -0.8022 H   0  0  0  0  0  0  0  0  0  0  0  0
   -3.2492    7.8047   -3.5100 H   0  0  0  0  0  0  0  0  0  0  0  0
  1  2  1  0  0  0  0
  1 26  1  0  0  0  0
  1 27  1  0  0  0  0
  1 28  1  0  0  0  0
  2 10  2  0  0  0  0
  2  3  1  0  0  0  0
  3  8  2  0  0  0  0
  3  4  1  0  0  0  0
  4  5  2  0  0  0  0
  4 29  1  0  0  0  0
  5  6  1  0  0  0  0
  5 30  1  0  0  0  0
  6  7  2  0  0  0  0
  6 31  1  0  0  0  0
  7 24  1  0  0  0  0
  7  8  1  0  0  0  0
  8  9  1  0  0  0  0
  9 10  1  0  0  0  0
  9 21  1  0  0  0  0
 10 11  1  0  0  0  0
 11 16  2  0  0  0  0
 11 12  1  0  0  0  0
 12 13  2  0  0  0  0
 12 32  1  0  0  0  0
 13 14  1  0  0  0  0
 13 33  1  0  0  0  0
 14 15  2  0  0  0  0
 14 34  1  0  0  0  0
 15 16  1  0  0  0  0
 15 17  1  0  0  0  0
 16 35  1  0  0  0  0
 17 18  1  0  0  0  0
 17 19  1  0  0  0  0
 17 20  1  0  0  0  0
 21 22  1  0  0  0  0
 21 36  1  0  0  0  0
 21 37  1  0  0  0  0
 22 23  1  0  0  0  0
 22 38  1  0  0  0  0
 22 39  1  0  0  0  0
 23 24  1  0  0  0  0
 23 40  1  0  0  0  0
 24 25  2  0  0  0  0
M  END
$$$$
ZINC03832214
  -OEChem-08230709403D

 38 41  0     0  0  0  0  0  0999 V2000
   -4.5360   -1.3886   -0.6841 C   0  0  0  0  0  0  0  0  0  0  0  0
   -4.6358   -1.2487    0.6850 C   0  0  0  0  0  0  0  0  0  0  0  0
   -3.6907   -0.4901    1.3742 C   0  0  0  0  0  0  0  0  0  0  0  0
   -3.5015   -0.1730    2.7999 C   0  0  0  0  0  0  0  0  0  0  0  0
   -2.3194    0.5380    2.8823 C   0  0  0  0  0  0  0  0  0  0  0  0
   -1.7728    0.6598    1.6269 N   0  0  0  0  0  0  0  0  0  0  0  0
   -2.6321    0.1241    0.6849 C   0  0  0  0  0  0  0  0  0  0  0  0
   -2.5933    0.0506   -0.7163 C   0  0  0  0  0  0  0  0  0  0  0  0
   -3.5339   -0.7449   -1.3807 C   0  0  0  0  0  0  0  0  0  0  0  0
   -1.6121    0.7904   -1.5137 C   0  0  0  0  0  0  0  0  0  0  0  0
   -1.9652    1.1810   -2.6097 O   0  0  0  0  0  0  0  0  0  0  0  0
   -0.3524    1.0740   -1.1340 N   0  0  0  0  0  0  0  0  0  0  0  0
    0.1842    0.6097    0.1238 C   0  0  0  0  0  0  0  0  0  0  0  0
   -0.4833    1.2365    1.3193 C   0  0  0  0  0  0  0  0  0  0  0  0
   -1.7353    1.0814    4.1235 C   0  0  0  0  0  0  0  0  0  0  0  0
   -1.5225    0.2458    5.2229 C   0  0  0  0  0  0  0  0  0  0  0  0
   -0.9724    0.7583    6.3785 C   0  0  0  0  0  0  0  0  0  0  0  0
   -0.6396    2.1018    6.4543 C   0  0  0  0  0  0  0  0  0  0  0  0
   -0.8534    2.9369    5.3687 C   0  0  0  0  0  0  0  0  0  0  0  0
   -1.3983    2.4349    4.2061 C   0  0  0  0  0  0  0  0  0  0  0  0
   -0.1053    2.5995    7.5910 F   0  0  0  0  0  0  0  0  0  0  0  0
   -4.3899   -0.5386    3.9101 C   0  0  0  0  0  0  0  0  0  0  0  0
   -5.4738   -1.2130    3.6785 N   0  0  0  0  0  0  0  0  0  0  0  0
   -6.3306   -1.5656    4.7492 O   0  0  0  0  0  0  0  0  0  0  0  0
   -5.2464   -2.0061   -1.2136 H   0  0  0  0  0  0  0  0  0  0  0  0
   -5.4432   -1.7254    1.2209 H   0  0  0  0  0  0  0  0  0  0  0  0
   -3.4745   -0.8565   -2.4532 H   0  0  0  0  0  0  0  0  0  0  0  0
    0.2098    1.6039   -1.7207 H   0  0  0  0  0  0  0  0  0  0  0  0
    0.0590   -0.4716    0.1799 H   0  0  0  0  0  0  0  0  0  0  0  0
    1.2490    0.8403    0.1566 H   0  0  0  0  0  0  0  0  0  0  0  0
    0.1662    1.1147    2.1861 H   0  0  0  0  0  0  0  0  0  0  0  0
   -0.6120    2.3020    1.1291 H   0  0  0  0  0  0  0  0  0  0  0  0
   -1.7848   -0.8004    5.1662 H   0  0  0  0  0  0  0  0  0  0  0  0
   -0.8042    0.1126    7.2277 H   0  0  0  0  0  0  0  0  0  0  0  0
   -0.5928    3.9830    5.4339 H   0  0  0  0  0  0  0  0  0  0  0  0
   -1.5647    3.0865    3.3611 H   0  0  0  0  0  0  0  0  0  0  0  0
   -4.1412   -0.2462    4.9195 H   0  0  0  0  0  0  0  0  0  0  0  0
   -7.1122   -2.0668    4.4789 H   0  0  0  0  0  0  0  0  0  0  0  0
  1  9  2  0  0  0  0
  1  2  1  0  0  0  0
  1 25  1  0  0  0  0
  2  3  2  0  0  0  0
  2 26  1  0  0  0  0
  3  7  1  0  0  0  0
  3  4  1  0  0  0  0
  4  5  2  0  0  0  0
  4 22  1  0  0  0  0
  5  6  1  0  0  0  0
  5 15  1  0  0  0  0
  6 14  1  0  0  0  0
  6  7  1  0  0  0  0
  7  8  2  0  0  0  0
  8  9  1  0  0  0  0
  8 10  1  0  0  0  0
  9 27  1  0  0  0  0
 10 11  2  0  0  0  0
 10 12  1  0  0  0  0
 12 13  1  0  0  0  0
 12 28  1  0  0  0  0
 13 14  1  0  0  0  0
 13 29  1  0  0  0  0
 13 30  1  0  0  0  0
 14 31  1  0  0  0  0
 14 32  1  0  0  0  0
 15 20  2  0  0  0  0
 15 16  1  0  0  0  0
 16 17  2  0  0  0  0
 16 33  1  0  0  0  0
 17 18  1  0  0  0  0
 17 34  1  0  0  0  0
 18 19  2  0  0  0  0
 18 21  1  0  0  0  0
 19 20  1  0  0  0  0
 19 35  1  0  0  0  0
 20 36  1  0  0  0  0
 22 23  2  0  0  0  0
 22 37  1  0  0  0  0
 23 24  1  0  0  0  0
 24 38  1  0  0  0  0
M  END
$$$$
ZINC03832215
  -OEChem-08230709403D

 35 38  0     0  0  0  0  0  0999 V2000
    1.4470   -0.3701   -4.6334 C   0  0  0  0  0  0  0  0  0  0  0  0
    2.3259    0.6930   -4.5896 C   0  0  0  0  0  0  0  0  0  0  0  0
    2.4410    1.4478   -3.4238 C   0  0  0  0  0  0  0  0  0  0  0  0
    3.2719    2.6065   -3.0519 C   0  0  0  0  0  0  0  0  0  0  0  0
    2.8714    2.9726   -1.7785 C   0  0  0  0  0  0  0  0  0  0  0  0
    1.8656    2.1384   -1.3611 N   0  0  0  0  0  0  0  0  0  0  0  0
    1.6667    1.1361   -2.2946 C   0  0  0  0  0  0  0  0  0  0  0  0
    0.8364    0.0052   -2.3239 C   0  0  0  0  0  0  0  0  0  0  0  0
    0.7138   -0.7164   -3.5172 C   0  0  0  0  0  0  0  0  0  0  0  0
    0.1010   -0.4597   -1.1453 C   0  0  0  0  0  0  0  0  0  0  0  0
   -0.0678   -1.6583   -1.0303 O   0  0  0  0  0  0  0  0  0  0  0  0
   -0.4035    0.3301   -0.1796 N   0  0  0  0  0  0  0  0  0  0  0  0
   -0.3074    1.7695   -0.2484 C   0  0  0  0  0  0  0  0  0  0  0  0
    1.1063    2.2756   -0.1356 C   0  0  0  0  0  0  0  0  0  0  0  0
    3.4372    4.0862   -0.9933 C   0  0  0  0  0  0  0  0  0  0  0  0
    3.9072    3.8623    0.3034 C   0  0  0  0  0  0  0  0  0  0  0  0
    4.4389    4.9058    1.0306 C   0  0  0  0  0  0  0  0  0  0  0  0
    4.4985    6.1774    0.4816 C   0  0  0  0  0  0  0  0  0  0  0  0
    4.0293    6.4066   -0.8026 C   0  0  0  0  0  0  0  0  0  0  0  0
    3.5000    5.3700   -1.5413 C   0  0  0  0  0  0  0  0  0  0  0  0
    5.0154    7.1973    1.2011 F   0  0  0  0  0  0  0  0  0  0  0  0
    4.2878    3.2282   -3.8470 C   0  0  0  0  0  0  0  0  0  0  0  0
    5.0936    3.7213   -4.4778 N   0  0  0  0  0  0  0  0  0  0  0  0
    1.3327   -0.9347   -5.5469 H   0  0  0  0  0  0  0  0  0  0  0  0
    2.9226    0.9388   -5.4556 H   0  0  0  0  0  0  0  0  0  0  0  0
    0.0356   -1.5556   -3.5648 H   0  0  0  0  0  0  0  0  0  0  0  0
   -0.8434   -0.0780    0.5824 H   0  0  0  0  0  0  0  0  0  0  0  0
   -0.7240    2.1032   -1.1987 H   0  0  0  0  0  0  0  0  0  0  0  0
   -0.8987    2.1989    0.5603 H   0  0  0  0  0  0  0  0  0  0  0  0
    1.0791    3.3291    0.1426 H   0  0  0  0  0  0  0  0  0  0  0  0
    1.6138    1.7215    0.6540 H   0  0  0  0  0  0  0  0  0  0  0  0
    3.8572    2.8730    0.7337 H   0  0  0  0  0  0  0  0  0  0  0  0
    4.8062    4.7331    2.0314 H   0  0  0  0  0  0  0  0  0  0  0  0
    4.0783    7.3993   -1.2251 H   0  0  0  0  0  0  0  0  0  0  0  0
    3.1341    5.5499   -2.5414 H   0  0  0  0  0  0  0  0  0  0  0  0
  1  9  2  0  0  0  0
  1  2  1  0  0  0  0
  1 24  1  0  0  0  0
  2  3  2  0  0  0  0
  2 25  1  0  0  0  0
  3  7  1  0  0  0  0
  3  4  1  0  0  0  0
  4  5  2  0  0  0  0
  4 22  1  0  0  0  0
  5  6  1  0  0  0  0
  5 15  1  0  0  0  0
  6 14  1  0  0  0  0
  6  7  1  0  0  0  0
  7  8  2  0  0  0  0
  8  9  1  0  0  0  0
  8 10  1  0  0  0  0
  9 26  1  0  0  0  0
 10 11  2  0  0  0  0
 10 12  1  0  0  0  0
 12 13  1  0  0  0  0
 12 27  1  0  0  0  0
 13 14  1  0  0  0  0
 13 28  1  0  0  0  0
 13 29  1  0  0  0  0
 14 30  1  0  0  0  0
 14 31  1  0  0  0  0
 15 20  2  0  0  0  0
 15 16  1  0  0  0  0
 16 17  2  0  0  0  0
 16 32  1  0  0  0  0
 17 18  1  0  0  0  0
 17 33  1  0  0  0  0
 18 19  2  0  0  0  0
 18 21  1  0  0  0  0
 19 20  1  0  0  0  0
 19 34  1  0  0  0  0
 20 35  1  0  0  0  0
 22 23  3  0  0  0  0
M  END
$$$$
ZINC03832216
  -OEChem-08230709403D

 41 44  0     0  0  0  0  0  0999 V2000
   -5.5360    0.4227    4.2757 C   0  0  0  0  0  0  0  0  0  0  0  0
   -4.4137   -0.5100    3.8992 C   0  0  0  0  0  0  0  0  0  0  0  0
   -4.2461   -1.6193    4.5507 N   0  0  0  0  0  0  0  0  0  0  0  0
   -3.1916   -2.4957    4.1970 O   0  0  0  0  0  0  0  0  0  0  0  0
   -3.5101   -0.1633    2.7952 C   0  0  0  0  0  0  0  0  0  0  0  0
   -3.6785   -0.5061    1.3727 C   0  0  0  0  0  0  0  0  0  0  0  0
   -4.6206   -1.2662    0.6807 C   0  0  0  0  0  0  0  0  0  0  0  0
   -4.5216   -1.3981   -0.6889 C   0  0  0  0  0  0  0  0  0  0  0  0
   -3.5217   -0.7477   -1.3832 C   0  0  0  0  0  0  0  0  0  0  0  0
   -2.5842    0.0487   -0.7161 C   0  0  0  0  0  0  0  0  0  0  0  0
   -2.6286    0.1236    0.6850 C   0  0  0  0  0  0  0  0  0  0  0  0
   -1.7708    0.6576    1.6301 N   0  0  0  0  0  0  0  0  0  0  0  0
   -2.3300    0.5511    2.8810 C   0  0  0  0  0  0  0  0  0  0  0  0
   -1.7600    1.1115    4.1212 C   0  0  0  0  0  0  0  0  0  0  0  0
   -1.5535    0.2896    5.2321 C   0  0  0  0  0  0  0  0  0  0  0  0
   -1.0165    0.8180    6.3867 C   0  0  0  0  0  0  0  0  0  0  0  0
   -0.6906    2.1639    6.4501 C   0  0  0  0  0  0  0  0  0  0  0  0
   -0.8981    2.9854    5.3529 C   0  0  0  0  0  0  0  0  0  0  0  0
   -1.4299    2.4674    4.1912 C   0  0  0  0  0  0  0  0  0  0  0  0
   -0.1691    2.6772    7.5858 F   0  0  0  0  0  0  0  0  0  0  0  0
   -0.4789    1.2308    1.3261 C   0  0  0  0  0  0  0  0  0  0  0  0
    0.1910    0.6023    0.1329 C   0  0  0  0  0  0  0  0  0  0  0  0
   -0.3409    1.0682   -1.1264 N   0  0  0  0  0  0  0  0  0  0  0  0
   -1.5993    0.7865   -1.5108 C   0  0  0  0  0  0  0  0  0  0  0  0
   -1.9478    1.1770   -2.6083 O   0  0  0  0  0  0  0  0  0  0  0  0
   -6.4288    0.1655    3.7057 H   0  0  0  0  0  0  0  0  0  0  0  0
   -5.7453    0.3278    5.3412 H   0  0  0  0  0  0  0  0  0  0  0  0
   -5.2456    1.4493    4.0524 H   0  0  0  0  0  0  0  0  0  0  0  0
   -3.1467   -3.2957    4.7384 H   0  0  0  0  0  0  0  0  0  0  0  0
   -5.4250   -1.7497    1.2150 H   0  0  0  0  0  0  0  0  0  0  0  0
   -5.2313   -2.0140   -1.2212 H   0  0  0  0  0  0  0  0  0  0  0  0
   -3.4622   -0.8546   -2.4562 H   0  0  0  0  0  0  0  0  0  0  0  0
   -1.8106   -0.7583    5.1852 H   0  0  0  0  0  0  0  0  0  0  0  0
   -0.8527    0.1829    7.2447 H   0  0  0  0  0  0  0  0  0  0  0  0
   -0.6429    4.0333    5.4083 H   0  0  0  0  0  0  0  0  0  0  0  0
   -1.5914    3.1084    3.3372 H   0  0  0  0  0  0  0  0  0  0  0  0
    0.1676    1.1077    2.1949 H   0  0  0  0  0  0  0  0  0  0  0  0
   -0.6041    2.2967    1.1353 H   0  0  0  0  0  0  0  0  0  0  0  0
    0.0628   -0.4788    0.1886 H   0  0  0  0  0  0  0  0  0  0  0  0
    1.2562    0.8302    0.1690 H   0  0  0  0  0  0  0  0  0  0  0  0
    0.2240    1.5979   -1.7106 H   0  0  0  0  0  0  0  0  0  0  0  0
  1  2  1  0  0  0  0
  1 26  1  0  0  0  0
  1 27  1  0  0  0  0
  1 28  1  0  0  0  0
  2  3  2  0  0  0  0
  2  5  1  0  0  0  0
  3  4  1  0  0  0  0
  4 29  1  0  0  0  0
  5 13  2  0  0  0  0
  5  6  1  0  0  0  0
  6 11  2  0  0  0  0
  6  7  1  0  0  0  0
  7  8  2  0  0  0  0
  7 30  1  0  0  0  0
  8  9  1  0  0  0  0
  8 31  1  0  0  0  0
  9 10  2  0  0  0  0
  9 32  1  0  0  0  0
 10 24  1  0  0  0  0
 10 11  1  0  0  0  0
 11 12  1  0  0  0  0
 12 13  1  0  0  0  0
 12 21  1  0  0  0  0
 13 14  1  0  0  0  0
 14 19  2  0  0  0  0
 14 15  1  0  0  0  0
 15 16  2  0  0  0  0
 15 33  1  0  0  0  0
 16 17  1  0  0  0  0
 16 34  1  0  0  0  0
 17 18  2  0  0  0  0
 17 20  1  0  0  0  0
 18 19  1  0  0  0  0
 18 35  1  0  0  0  0
 19 36  1  0  0  0  0
 21 22  1  0  0  0  0
 21 37  1  0  0  0  0
 21 38  1  0  0  0  0
 22 23  1  0  0  0  0
 22 39  1  0  0  0  0
 22 40  1  0  0  0  0
 23 24  1  0  0  0  0
 23 41  1  0  0  0  0
 24 25  2  0  0  0  0
M  END
$$$$
