ZINC00538404
  -OEChem-08230709403D

 48 53  0     1  0  0  0  0  0999 V2000
    0.9328   -7.7506    3.0095 C   0  0  0  0  0  0  0  0  0  0  0  0
    0.1900   -6.6503    2.3900 N   0  0  0  0  0  0  0  0  0  0  0  0
   -0.6290   -5.8092    3.2468 C   0  0  0  0  0  0  0  0  0  0  0  0
   -1.2660   -4.6891    2.4904 C   0  0  0  0  0  0  0  0  0  0  0  0
   -1.9507   -3.9044    3.1120 O   0  0  0  0  0  0  0  0  0  0  0  0
   -1.1329   -4.4941    1.1770 N   0  0  0  0  0  0  0  0  0  0  0  0
   -0.3995   -5.4090    0.3031 C   0  0  1  0  0  0  0  0  0  0  0  0
    0.3466   -4.8424   -0.2541 H   0  0  0  0  0  0  0  0  0  0  0  0
    0.3039   -6.4789    1.0745 C   0  0  0  0  0  0  0  0  0  0  0  0
    1.0240   -7.2396    0.4631 O   0  0  0  0  0  0  0  0  0  0  0  0
   -1.3789   -6.0504   -0.6901 C   0  0  0  0  0  0  0  0  0  0  0  0
   -2.2785   -4.9780   -1.2489 C   0  0  0  0  0  0  0  0  0  0  0  0
   -3.1074   -5.0304   -2.4361 C   0  0  0  0  0  0  0  0  0  0  0  0
   -3.3284   -6.0248   -3.3939 C   0  0  0  0  0  0  0  0  0  0  0  0
   -4.2028   -5.7246   -4.4091 C   0  0  0  0  0  0  0  0  0  0  0  0
   -4.8414   -4.4980   -4.4918 C   0  0  0  0  0  0  0  0  0  0  0  0
   -4.6399   -3.4958   -3.5587 C   0  0  0  0  0  0  0  0  0  0  0  0
   -3.7571   -3.7720   -2.5166 C   0  0  0  0  0  0  0  0  0  0  0  0
   -3.3370   -3.0292   -1.4510 N   0  0  0  0  0  0  0  0  0  0  0  0
   -3.6217   -2.1227   -1.2557 H   0  0  0  0  0  0  0  0  0  0  0  0
   -2.4542   -3.7553   -0.6991 C   0  0  0  0  0  0  0  0  0  0  0  0
   -1.7543   -3.3018    0.5619 C   0  0  2  0  0  0  0  0  0  0  0  0
   -2.4773   -2.8640    1.2502 H   0  0  0  0  0  0  0  0  0  0  0  0
   -0.6921   -2.2882    0.2221 C   0  0  0  0  0  0  0  0  0  0  0  0
   -0.6708   -1.0674    0.8707 C   0  0  0  0  0  0  0  0  0  0  0  0
    0.3015   -0.1344    0.5624 C   0  0  0  0  0  0  0  0  0  0  0  0
    1.2580   -0.4212   -0.3980 C   0  0  0  0  0  0  0  0  0  0  0  0
    1.2363   -1.6508   -1.0516 C   0  0  0  0  0  0  0  0  0  0  0  0
    0.2586   -2.5808   -0.7379 C   0  0  0  0  0  0  0  0  0  0  0  0
    2.2702   -1.6898   -1.9421 O   0  0  0  0  0  0  0  0  0  0  0  0
    2.6768   -0.3199   -2.1192 C   0  0  0  0  0  0  0  0  0  0  0  0
    2.3054    0.3102   -0.8789 O   0  0  0  0  0  0  0  0  0  0  0  0
    1.9181   -7.3978    3.3141 H   0  0  0  0  0  0  0  0  0  0  0  0
    0.3891   -8.1093    3.8835 H   0  0  0  0  0  0  0  0  0  0  0  0
    1.0438   -8.5635    2.2919 H   0  0  0  0  0  0  0  0  0  0  0  0
   -1.4100   -6.4195    3.7004 H   0  0  0  0  0  0  0  0  0  0  0  0
   -0.0038   -5.3927    4.0365 H   0  0  0  0  0  0  0  0  0  0  0  0
   -0.8218   -6.5190   -1.5014 H   0  0  0  0  0  0  0  0  0  0  0  0
   -1.9789   -6.8023   -0.1773 H   0  0  0  0  0  0  0  0  0  0  0  0
   -2.8345   -6.9836   -3.3381 H   0  0  0  0  0  0  0  0  0  0  0  0
   -4.3985   -6.4681   -5.1676 H   0  0  0  0  0  0  0  0  0  0  0  0
   -5.5201   -4.3177   -5.3123 H   0  0  0  0  0  0  0  0  0  0  0  0
   -5.1439   -2.5436   -3.6347 H   0  0  0  0  0  0  0  0  0  0  0  0
   -1.4152   -0.8424    1.6201 H   0  0  0  0  0  0  0  0  0  0  0  0
    0.3159    0.8183    1.0709 H   0  0  0  0  0  0  0  0  0  0  0  0
    0.2393   -3.5351   -1.2433 H   0  0  0  0  0  0  0  0  0  0  0  0
    3.7541   -0.2570   -2.2731 H   0  0  0  0  0  0  0  0  0  0  0  0
    2.1425    0.1333   -2.9541 H   0  0  0  0  0  0  0  0  0  0  0  0
  1  2  1  0  0  0  0
  1 33  1  0  0  0  0
  1 34  1  0  0  0  0
  1 35  1  0  0  0  0
  2  9  1  0  0  0  0
  2  3  1  0  0  0  0
  3  4  1  0  0  0  0
  3 36  1  0  0  0  0
  3 37  1  0  0  0  0
  4  5  2  0  0  0  0
  4  6  1  0  0  0  0
  6 22  1  0  0  0  0
  6  7  1  0  0  0  0
  7  8  1  0  0  0  0
  7  9  1  0  0  0  0
  7 11  1  0  0  0  0
  9 10  2  0  0  0  0
 11 12  1  0  0  0  0
 11 38  1  0  0  0  0
 11 39  1  0  0  0  0
 12 21  2  0  0  0  0
 12 13  1  0  0  0  0
 13 18  2  0  0  0  0
 13 14  1  0  0  0  0
 14 15  2  0  0  0  0
 14 40  1  0  0  0  0
 15 16  1  0  0  0  0
 15 41  1  0  0  0  0
 16 17  2  0  0  0  0
 16 42  1  0  0  0  0
 17 18  1  0  0  0  0
 17 43  1  0  0  0  0
 18 19  1  0  0  0  0
 19 20  1  0  0  0  0
 19 21  1  0  0  0  0
 21 22  1  0  0  0  0
 22 23  1  0  0  0  0
 22 24  1  0  0  0  0
 24 29  2  0  0  0  0
 24 25  1  0  0  0  0
 25 26  2  0  0  0  0
 25 44  1  0  0  0  0
 26 27  1  0  0  0  0
 26 45  1  0  0  0  0
 27 32  1  0  0  0  0
 27 28  2  0  0  0  0
 28 29  1  0  0  0  0
 28 30  1  0  0  0  0
 29 46  1  0  0  0  0
 30 31  1  0  0  0  0
 31 32  1  0  0  0  0
 31 47  1  0  0  0  0
 31 48  1  0  0  0  0
M  END
$$$$
ZINC00588020
  -OEChem-08230709403D

 56 59  0     0  0  0  0  0  0999 V2000
    0.9693   -2.5013    8.5380 C   0  0  0  0  0  0  0  0  0  0  0  0
   -0.4173   -2.4195    7.8965 C   0  0  0  0  0  0  0  0  0  0  0  0
   -0.4256   -3.1912    6.6513 N   0  0  0  0  0  0  0  0  0  0  0  0
   -0.1177   -2.7103    5.4095 C   0  0  0  0  0  0  0  0  0  0  0  0
   -0.2572   -3.7900    4.5191 C   0  0  0  0  0  0  0  0  0  0  0  0
   -0.6554   -4.9111    5.2834 C   0  0  0  0  0  0  0  0  0  0  0  0
   -0.7503   -4.5471    6.5296 N   0  0  0  0  0  0  0  0  0  0  0  0
   -0.0006   -3.5879    3.1495 C   0  0  0  0  0  0  0  0  0  0  0  0
    0.3869   -2.3004    2.7376 C   0  0  0  0  0  0  0  0  0  0  0  0
    0.5056   -1.2864    3.6964 C   0  0  0  0  0  0  0  0  0  0  0  0
    0.6695   -2.0238    1.3196 C   0  0  0  0  0  0  0  0  0  0  0  0
    0.6537   -2.9299    0.5083 O   0  0  0  0  0  0  0  0  0  0  0  0
    0.9457   -0.7666    0.9203 N   0  0  0  0  0  0  0  0  0  0  0  0
    1.2270   -0.4913   -0.4909 C   0  0  0  0  0  0  0  0  0  0  0  0
    1.5022    0.9794   -0.6706 C   0  0  0  0  0  0  0  0  0  0  0  0
    0.4733    1.8645   -0.9544 C   0  0  0  0  0  0  0  0  0  0  0  0
    0.7632    3.2070   -1.1085 C   0  0  0  0  0  0  0  0  0  0  0  0
    2.0015    3.6467   -0.9980 N   0  0  0  0  0  0  0  0  0  0  0  0
    3.0052    2.8333   -0.7336 C   0  0  0  0  0  0  0  0  0  0  0  0
    2.7911    1.4788   -0.5619 C   0  0  0  0  0  0  0  0  0  0  0  0
   -0.1248   -4.6193    2.2415 N   0  0  0  0  0  0  0  0  0  0  0  0
   -1.5229   -4.7865    1.8228 C   0  0  0  0  0  0  0  0  0  0  0  0
   -1.6104   -5.8799    0.7894 C   0  0  0  0  0  0  0  0  0  0  0  0
   -1.4925   -5.5715   -0.5534 C   0  0  0  0  0  0  0  0  0  0  0  0
   -1.5675   -6.5723   -1.5028 C   0  0  0  0  0  0  0  0  0  0  0  0
   -1.7718   -7.8865   -1.1092 C   0  0  0  0  0  0  0  0  0  0  0  0
   -1.8951   -8.1935    0.2390 C   0  0  0  0  0  0  0  0  0  0  0  0
   -1.8140   -7.1887    1.1853 C   0  0  0  0  0  0  0  0  0  0  0  0
   -2.1502   -9.8370    0.7362 Cl  0  0  0  0  0  0  0  0  0  0  0  0
   -1.8506   -8.8722   -2.0418 O   0  0  0  0  0  0  0  0  0  0  0  0
   -1.7148   -8.4830   -3.4101 C   0  0  0  0  0  0  0  0  0  0  0  0
    1.7115   -2.0927    7.8523 H   0  0  0  0  0  0  0  0  0  0  0  0
    0.9755   -1.9271    9.4644 H   0  0  0  0  0  0  0  0  0  0  0  0
    1.2087   -3.5425    8.7542 H   0  0  0  0  0  0  0  0  0  0  0  0
   -0.6567   -1.3783    7.6803 H   0  0  0  0  0  0  0  0  0  0  0  0
   -1.1596   -2.8281    8.5822 H   0  0  0  0  0  0  0  0  0  0  0  0
   -0.8478   -5.9016    4.8984 H   0  0  0  0  0  0  0  0  0  0  0  0
    0.8076   -0.2973    3.3851 H   0  0  0  0  0  0  0  0  0  0  0  0
    0.9583   -0.0439    1.5673 H   0  0  0  0  0  0  0  0  0  0  0  0
    0.3659   -0.7764   -1.0953 H   0  0  0  0  0  0  0  0  0  0  0  0
    2.0983   -1.0652   -0.8063 H   0  0  0  0  0  0  0  0  0  0  0  0
   -0.5422    1.5098   -1.0505 H   0  0  0  0  0  0  0  0  0  0  0  0
   -0.0331    3.9034   -1.3263 H   0  0  0  0  0  0  0  0  0  0  0  0
    4.0062    3.2302   -0.6505 H   0  0  0  0  0  0  0  0  0  0  0  0
    3.6173    0.8176   -0.3462 H   0  0  0  0  0  0  0  0  0  0  0  0
    0.2452   -5.4791    2.6181 H   0  0  0  0  0  0  0  0  0  0  0  0
   -2.1314   -5.0536    2.6867 H   0  0  0  0  0  0  0  0  0  0  0  0
   -1.8884   -3.8527    1.3955 H   0  0  0  0  0  0  0  0  0  0  0  0
   -1.3380   -4.5475   -0.8601 H   0  0  0  0  0  0  0  0  0  0  0  0
   -1.4712   -6.3309   -2.5511 H   0  0  0  0  0  0  0  0  0  0  0  0
   -1.9102   -7.4265    2.2344 H   0  0  0  0  0  0  0  0  0  0  0  0
   -0.7418   -8.0152   -3.5599 H   0  0  0  0  0  0  0  0  0  0  0  0
   -1.7969   -9.3630   -4.0480 H   0  0  0  0  0  0  0  0  0  0  0  0
   -2.5021   -7.7740   -3.6660 H   0  0  0  0  0  0  0  0  0  0  0  0
    0.2590   -1.4492    5.0172 N   0  3  0  0  0  0  0  0  0  0  0  0
    0.3483   -0.6756    5.6864 H   0  0  0  0  0  0  0  0  0  0  0  0
  1  2  1  0  0  0  0
  1 32  1  0  0  0  0
  1 33  1  0  0  0  0
  1 34  1  0  0  0  0
  2  3  1  0  0  0  0
  2 35  1  0  0  0  0
  2 36  1  0  0  0  0
  3  7  1  0  0  0  0
  3  4  1  0  0  0  0
  4  5  2  0  0  0  0
  4 55  1  0  0  0  0
  5  6  1  0  0  0  0
  5  8  1  0  0  0  0
  6  7  2  0  0  0  0
  6 37  1  0  0  0  0
  8  9  2  0  0  0  0
  8 21  1  0  0  0  0
  9 10  1  0  0  0  0
  9 11  1  0  0  0  0
 10 38  1  0  0  0  0
 10 55  2  0  0  0  0
 11 12  2  0  0  0  0
 11 13  1  0  0  0  0
 13 14  1  0  0  0  0
 13 39  1  0  0  0  0
 14 15  1  0  0  0  0
 14 40  1  0  0  0  0
 14 41  1  0  0  0  0
 15 20  2  0  0  0  0
 15 16  1  0  0  0  0
 16 17  2  0  0  0  0
 16 42  1  0  0  0  0
 17 18  1  0  0  0  0
 17 43  1  0  0  0  0
 18 19  2  0  0  0  0
 19 20  1  0  0  0  0
 19 44  1  0  0  0  0
 20 45  1  0  0  0  0
 21 22  1  0  0  0  0
 21 46  1  0  0  0  0
 22 23  1  0  0  0  0
 22 47  1  0  0  0  0
 22 48  1  0  0  0  0
 23 28  2  0  0  0  0
 23 24  1  0  0  0  0
 24 25  2  0  0  0  0
 24 49  1  0  0  0  0
 25 26  1  0  0  0  0
 25 50  1  0  0  0  0
 26 27  2  0  0  0  0
 26 30  1  0  0  0  0
 27 28  1  0  0  0  0
 27 29  1  0  0  0  0
 28 51  1  0  0  0  0
 30 31  1  0  0  0  0
 31 52  1  0  0  0  0
 31 53  1  0  0  0  0
 31 54  1  0  0  0  0
 55 56  1  0  0  0  0
M  CHG  1  55   1
M  END
$$$$
ZINC00593368
  -OEChem-08230709403D

 61 67  0     1  0  0  0  0  0999 V2000
   -1.6428   -4.3595   11.6278 C   0  0  0  0  0  0  0  0  0  0  0  0
   -2.1703   -3.3282   10.7910 O   0  0  0  0  0  0  0  0  0  0  0  0
   -2.0244   -3.4873    9.4493 C   0  0  0  0  0  0  0  0  0  0  0  0
   -2.5142   -2.5222    8.5800 C   0  0  0  0  0  0  0  0  0  0  0  0
   -2.3676   -2.6809    7.2178 C   0  0  0  0  0  0  0  0  0  0  0  0
   -1.7266   -3.8115    6.7144 C   0  0  0  0  0  0  0  0  0  0  0  0
   -1.2402   -4.7810    7.5895 C   0  0  0  0  0  0  0  0  0  0  0  0
   -1.3855   -4.6144    8.9509 C   0  0  0  0  0  0  0  0  0  0  0  0
   -1.5678   -3.9854    5.2495 C   0  0  0  0  0  0  0  0  0  0  0  0
   -0.9279   -5.1124    4.7272 C   0  0  0  0  0  0  0  0  0  0  0  0
   -0.8056   -5.2310    3.4169 N   0  0  0  0  0  0  0  0  0  0  0  0
   -1.2800   -4.2994    2.6026 C   0  0  0  0  0  0  0  0  0  0  0  0
   -1.8883   -3.2145    3.0600 N   0  0  0  0  0  0  0  0  0  0  0  0
   -2.0539   -3.0263    4.3574 C   0  0  0  0  0  0  0  0  0  0  0  0
   -1.1311   -4.4612    1.2363 N   0  0  0  0  0  0  0  0  0  0  0  0
   -1.9104   -5.6230    0.7515 C   0  0  0  0  0  0  0  0  0  0  0  0
   -2.3749   -5.2462   -0.6378 C   0  0  0  0  0  0  0  0  0  0  0  0
   -2.8616   -6.0483   -1.6962 C   0  0  0  0  0  0  0  0  0  0  0  0
   -2.9652   -7.2577   -1.5722 O   0  0  0  0  0  0  0  0  0  0  0  0
   -3.2383   -5.3794   -2.9530 C   0  0  0  0  0  0  0  0  0  0  0  0
   -3.7239   -6.0971   -4.0457 C   0  0  0  0  0  0  0  0  0  0  0  0
   -4.0617   -5.4357   -5.1934 C   0  0  0  0  0  0  0  0  0  0  0  0
   -3.9258   -4.0569   -5.2785 C   0  0  0  0  0  0  0  0  0  0  0  0
   -3.4476   -3.3296   -4.2108 C   0  0  0  0  0  0  0  0  0  0  0  0
   -3.0974   -3.9829   -3.0322 C   0  0  0  0  0  0  0  0  0  0  0  0
   -2.6169   -3.2873   -1.9478 N   0  0  0  0  0  0  0  0  0  0  0  0
   -2.5217   -2.2940   -2.0135 H   0  0  0  0  0  0  0  0  0  0  0  0
   -2.2671   -3.9067   -0.7892 C   0  0  0  0  0  0  0  0  0  0  0  0
   -1.7227   -3.3219    0.4996 C   0  0  2  0  0  0  0  0  0  0  0  0
   -2.5285   -2.8747    1.0816 H   0  0  0  0  0  0  0  0  0  0  0  0
   -0.6653   -2.2914    0.1979 C   0  0  0  0  0  0  0  0  0  0  0  0
    0.6098   -2.6897   -0.1594 C   0  0  0  0  0  0  0  0  0  0  0  0
    1.5807   -1.7507   -0.4390 C   0  0  0  0  0  0  0  0  0  0  0  0
    1.2843   -0.3917   -0.3646 C   0  0  0  0  0  0  0  0  0  0  0  0
    0.0021   -0.0041    0.0020 C   0  0  0  0  0  0  0  0  0  0  0  0
   -0.9667   -0.9435    0.2779 C   0  0  0  0  0  0  0  0  0  0  0  0
   -0.0185    1.5122    0.0104 C   0  0  0  0  0  0  0  0  0  0  0  0
    1.4907    1.8524   -0.0022 C   0  0  0  0  0  0  0  0  0  0  0  0
    2.0741    0.6889   -0.6129 O   0  0  0  0  0  0  0  0  0  0  0  0
   -0.5699   -4.4515   11.4587 H   0  0  0  0  0  0  0  0  0  0  0  0
   -1.8258   -4.1088   12.6726 H   0  0  0  0  0  0  0  0  0  0  0  0
   -2.1304   -5.3050   11.3902 H   0  0  0  0  0  0  0  0  0  0  0  0
   -3.0109   -1.6464    8.9707 H   0  0  0  0  0  0  0  0  0  0  0  0
   -2.7495   -1.9301    6.5420 H   0  0  0  0  0  0  0  0  0  0  0  0
   -0.7466   -5.6601    7.2021 H   0  0  0  0  0  0  0  0  0  0  0  0
   -1.0051   -5.3634    9.6296 H   0  0  0  0  0  0  0  0  0  0  0  0
   -0.5386   -5.8753    5.3850 H   0  0  0  0  0  0  0  0  0  0  0  0
   -2.5545   -2.1419    4.7231 H   0  0  0  0  0  0  0  0  0  0  0  0
   -1.2786   -6.5103    0.7102 H   0  0  0  0  0  0  0  0  0  0  0  0
   -2.7670   -5.8005    1.4018 H   0  0  0  0  0  0  0  0  0  0  0  0
   -3.8327   -7.1699   -3.9853 H   0  0  0  0  0  0  0  0  0  0  0  0
   -4.4377   -5.9903   -6.0404 H   0  0  0  0  0  0  0  0  0  0  0  0
   -4.1975   -3.5488   -6.1919 H   0  0  0  0  0  0  0  0  0  0  0  0
   -3.3453   -2.2572   -4.2874 H   0  0  0  0  0  0  0  0  0  0  0  0
    0.8469   -3.7417   -0.2195 H   0  0  0  0  0  0  0  0  0  0  0  0
    2.5741   -2.0703   -0.7173 H   0  0  0  0  0  0  0  0  0  0  0  0
   -1.9612   -0.6280    0.5570 H   0  0  0  0  0  0  0  0  0  0  0  0
   -0.5127    1.9000   -0.8804 H   0  0  0  0  0  0  0  0  0  0  0  0
   -0.4955    1.8904    0.9145 H   0  0  0  0  0  0  0  0  0  0  0  0
    1.6812    2.7410   -0.6041 H   0  0  0  0  0  0  0  0  0  0  0  0
    1.8652    1.9846    1.0128 H   0  0  0  0  0  0  0  0  0  0  0  0
  1  2  1  0  0  0  0
  1 40  1  0  0  0  0
  1 41  1  0  0  0  0
  1 42  1  0  0  0  0
  2  3  1  0  0  0  0
  3  8  2  0  0  0  0
  3  4  1  0  0  0  0
  4  5  2  0  0  0  0
  4 43  1  0  0  0  0
  5  6  1  0  0  0  0
  5 44  1  0  0  0  0
  6  7  2  0  0  0  0
  6  9  1  0  0  0  0
  7  8  1  0  0  0  0
  7 45  1  0  0  0  0
  8 46  1  0  0  0  0
  9 14  2  0  0  0  0
  9 10  1  0  0  0  0
 10 11  2  0  0  0  0
 10 47  1  0  0  0  0
 11 12  1  0  0  0  0
 12 13  2  0  0  0  0
 12 15  1  0  0  0  0
 13 14  1  0  0  0  0
 14 48  1  0  0  0  0
 15 29  1  0  0  0  0
 15 16  1  0  0  0  0
 16 17  1  0  0  0  0
 16 49  1  0  0  0  0
 16 50  1  0  0  0  0
 17 28  2  0  0  0  0
 17 18  1  0  0  0  0
 18 19  2  0  0  0  0
 18 20  1  0  0  0  0
 20 25  2  0  0  0  0
 20 21  1  0  0  0  0
 21 22  2  0  0  0  0
 21 51  1  0  0  0  0
 22 23  1  0  0  0  0
 22 52  1  0  0  0  0
 23 24  2  0  0  0  0
 23 53  1  0  0  0  0
 24 25  1  0  0  0  0
 24 54  1  0  0  0  0
 25 26  1  0  0  0  0
 26 27  1  0  0  0  0
 26 28  1  0  0  0  0
 28 29  1  0  0  0  0
 29 30  1  0  0  0  0
 29 31  1  0  0  0  0
 31 36  2  0  0  0  0
 31 32  1  0  0  0  0
 32 33  2  0  0  0  0
 32 55  1  0  0  0  0
 33 34  1  0  0  0  0
 33 56  1  0  0  0  0
 34 39  1  0  0  0  0
 34 35  2  0  0  0  0
 35 36  1  0  0  0  0
 35 37  1  0  0  0  0
 36 57  1  0  0  0  0
 37 38  1  0  0  0  0
 37 58  1  0  0  0  0
 37 59  1  0  0  0  0
 38 39  1  0  0  0  0
 38 60  1  0  0  0  0
 38 61  1  0  0  0  0
M  END
$$$$
ZINC00593368
  -OEChem-08230709403D

 61 67  0     1  0  0  0  0  0999 V2000
   -1.6503   -4.3591   11.6286 C   0  0  0  0  0  0  0  0  0  0  0  0
   -2.1774   -3.3278   10.7915 O   0  0  0  0  0  0  0  0  0  0  0  0
   -2.0308   -3.4869    9.4499 C   0  0  0  0  0  0  0  0  0  0  0  0
   -2.5203   -2.5219    8.5803 C   0  0  0  0  0  0  0  0  0  0  0  0
   -2.3730   -2.6806    7.2182 C   0  0  0  0  0  0  0  0  0  0  0  0
   -1.7316   -3.8112    6.7151 C   0  0  0  0  0  0  0  0  0  0  0  0
   -1.2455   -4.7806    7.5905 C   0  0  0  0  0  0  0  0  0  0  0  0
   -1.3916   -4.6140    8.9518 C   0  0  0  0  0  0  0  0  0  0  0  0
   -1.5721   -3.9851    5.2503 C   0  0  0  0  0  0  0  0  0  0  0  0
   -0.9318   -5.1120    4.7283 C   0  0  0  0  0  0  0  0  0  0  0  0
   -0.8088   -5.2306    3.4181 N   0  0  0  0  0  0  0  0  0  0  0  0
   -1.2829   -4.2991    2.6035 C   0  0  0  0  0  0  0  0  0  0  0  0
   -1.8915   -3.2142    3.0606 N   0  0  0  0  0  0  0  0  0  0  0  0
   -2.0578   -3.0260    4.3579 C   0  0  0  0  0  0  0  0  0  0  0  0
   -1.1333   -4.4609    1.2373 N   0  0  0  0  0  0  0  0  0  0  0  0
   -1.9122   -5.6228    0.7522 C   0  0  0  0  0  0  0  0  0  0  0  0
   -2.3760   -5.2461   -0.6374 C   0  0  0  0  0  0  0  0  0  0  0  0
   -2.8621   -6.0482   -1.6960 C   0  0  0  0  0  0  0  0  0  0  0  0
   -2.9666   -7.2575   -1.5717 O   0  0  0  0  0  0  0  0  0  0  0  0
   -3.2382   -5.3794   -2.9531 C   0  0  0  0  0  0  0  0  0  0  0  0
   -3.7238   -6.0971   -4.0458 C   0  0  0  0  0  0  0  0  0  0  0  0
   -4.0616   -5.4357   -5.1934 C   0  0  0  0  0  0  0  0  0  0  0  0
   -3.9258   -4.0569   -5.2785 C   0  0  0  0  0  0  0  0  0  0  0  0
   -3.4477   -3.3296   -4.2108 C   0  0  0  0  0  0  0  0  0  0  0  0
   -3.0975   -3.9829   -3.0322 C   0  0  0  0  0  0  0  0  0  0  0  0
   -2.6176   -3.2872   -1.9476 N   0  0  0  0  0  0  0  0  0  0  0  0
   -2.6657   -7.5257   -0.6565 H   0  0  0  0  0  0  0  0  0  0  0  0
   -2.2683   -3.9066   -0.7888 C   0  0  0  0  0  0  0  0  0  0  0  0
   -1.7246   -3.3217    0.5003 C   0  0  2  0  0  0  0  0  0  0  0  0
   -2.5307   -2.8745    1.0819 H   0  0  0  0  0  0  0  0  0  0  0  0
   -0.6671   -2.2911    0.1990 C   0  0  0  0  0  0  0  0  0  0  0  0
    0.6082   -2.6893   -0.1576 C   0  0  0  0  0  0  0  0  0  0  0  0
    1.5792   -1.7503   -0.4368 C   0  0  0  0  0  0  0  0  0  0  0  0
    1.2827   -0.3913   -0.3626 C   0  0  0  0  0  0  0  0  0  0  0  0
    0.0003   -0.0038    0.0034 C   0  0  0  0  0  0  0  0  0  0  0  0
   -0.9686   -0.9432    0.2789 C   0  0  0  0  0  0  0  0  0  0  0  0
   -0.0204    1.5125    0.0117 C   0  0  0  0  0  0  0  0  0  0  0  0
    1.4888    1.8528   -0.0002 C   0  0  0  0  0  0  0  0  0  0  0  0
    2.0725    0.6893   -0.6105 O   0  0  0  0  0  0  0  0  0  0  0  0
   -0.5773   -4.4509   11.4600 H   0  0  0  0  0  0  0  0  0  0  0  0
   -1.8338   -4.1084   12.6733 H   0  0  0  0  0  0  0  0  0  0  0  0
   -2.1376   -5.3046   11.3907 H   0  0  0  0  0  0  0  0  0  0  0  0
   -3.0173   -1.6462    8.9707 H   0  0  0  0  0  0  0  0  0  0  0  0
   -2.7547   -1.9299    6.5422 H   0  0  0  0  0  0  0  0  0  0  0  0
   -0.7516   -5.6596    7.2033 H   0  0  0  0  0  0  0  0  0  0  0  0
   -1.0114   -5.3629    9.6307 H   0  0  0  0  0  0  0  0  0  0  0  0
   -0.5427   -5.8748    5.3864 H   0  0  0  0  0  0  0  0  0  0  0  0
   -2.5587   -2.1417    4.7234 H   0  0  0  0  0  0  0  0  0  0  0  0
   -1.2803   -6.5100    0.7112 H   0  0  0  0  0  0  0  0  0  0  0  0
   -2.7692   -5.8003    1.4020 H   0  0  0  0  0  0  0  0  0  0  0  0
   -3.8325   -7.1699   -3.9854 H   0  0  0  0  0  0  0  0  0  0  0  0
   -4.4376   -5.9903   -6.0405 H   0  0  0  0  0  0  0  0  0  0  0  0
   -4.1976   -3.5488   -6.1919 H   0  0  0  0  0  0  0  0  0  0  0  0
   -3.3455   -2.2572   -4.2873 H   0  0  0  0  0  0  0  0  0  0  0  0
    0.8454   -3.7413   -0.2176 H   0  0  0  0  0  0  0  0  0  0  0  0
    2.5728   -2.0698   -0.7146 H   0  0  0  0  0  0  0  0  0  0  0  0
   -1.9633   -0.6278    0.5575 H   0  0  0  0  0  0  0  0  0  0  0  0
   -0.5142    1.9003   -0.8793 H   0  0  0  0  0  0  0  0  0  0  0  0
   -0.4979    1.8907    0.9156 H   0  0  0  0  0  0  0  0  0  0  0  0
    1.6795    2.7414   -0.6020 H   0  0  0  0  0  0  0  0  0  0  0  0
    1.8628    1.9851    1.0150 H   0  0  0  0  0  0  0  0  0  0  0  0
  1  2  1  0  0  0  0
  1 40  1  0  0  0  0
  1 41  1  0  0  0  0
  1 42  1  0  0  0  0
  2  3  1  0  0  0  0
  3  8  2  0  0  0  0
  3  4  1  0  0  0  0
  4  5  2  0  0  0  0
  4 43  1  0  0  0  0
  5  6  1  0  0  0  0
  5 44  1  0  0  0  0
  6  7  2  0  0  0  0
  6  9  1  0  0  0  0
  7  8  1  0  0  0  0
  7 45  1  0  0  0  0
  8 46  1  0  0  0  0
  9 14  2  0  0  0  0
  9 10  1  0  0  0  0
 10 11  2  0  0  0  0
 10 47  1  0  0  0  0
 11 12  1  0  0  0  0
 12 13  2  0  0  0  0
 12 15  1  0  0  0  0
 13 14  1  0  0  0  0
 14 48  1  0  0  0  0
 15 29  1  0  0  0  0
 15 16  1  0  0  0  0
 16 17  1  0  0  0  0
 16 49  1  0  0  0  0
 16 50  1  0  0  0  0
 17 18  2  0  0  0  0
 17 28  1  0  0  0  0
 18 20  1  0  0  0  0
 18 19  1  0  0  0  0
 19 27  1  0  0  0  0
 20 21  2  0  0  0  0
 20 25  1  0  0  0  0
 21 22  1  0  0  0  0
 21 51  1  0  0  0  0
 22 23  2  0  0  0  0
 22 52  1  0  0  0  0
 23 24  1  0  0  0  0
 23 53  1  0  0  0  0
 24 25  2  0  0  0  0
 24 54  1  0  0  0  0
 25 26  1  0  0  0  0
 26 28  2  0  0  0  0
 28 29  1  0  0  0  0
 29 30  1  0  0  0  0
 29 31  1  0  0  0  0
 31 36  2  0  0  0  0
 31 32  1  0  0  0  0
 32 33  2  0  0  0  0
 32 55  1  0  0  0  0
 33 34  1  0  0  0  0
 33 56  1  0  0  0  0
 34 39  1  0  0  0  0
 34 35  2  0  0  0  0
 35 36  1  0  0  0  0
 35 37  1  0  0  0  0
 36 57  1  0  0  0  0
 37 38  1  0  0  0  0
 37 58  1  0  0  0  0
 37 59  1  0  0  0  0
 38 39  1  0  0  0  0
 38 60  1  0  0  0  0
 38 61  1  0  0  0  0
M  END
$$$$
ZINC01487393
  -OEChem-08230709403D

 52 55  0     0  0  0  0  0  0999 V2000
  -11.7615   -3.4651   -2.2911 C   0  0  0  0  0  0  0  0  0  0  0  0
  -11.2605   -3.2882   -0.9645 O   0  0  0  0  0  0  0  0  0  0  0  0
  -10.0505   -2.6820   -0.8376 C   0  0  0  0  0  0  0  0  0  0  0  0
   -9.3601   -2.2659   -1.9663 C   0  0  0  0  0  0  0  0  0  0  0  0
   -8.1330   -1.6449   -1.8345 C   0  0  0  0  0  0  0  0  0  0  0  0
   -7.5876   -1.4473   -0.5793 C   0  0  0  0  0  0  0  0  0  0  0  0
   -8.2730   -1.8608    0.5478 C   0  0  0  0  0  0  0  0  0  0  0  0
   -9.5038   -2.4780    0.4219 C   0  0  0  0  0  0  0  0  0  0  0  0
  -10.3641   -2.9978    1.8373 Cl  0  0  0  0  0  0  0  0  0  0  0  0
   -6.2465   -0.7743   -0.4395 C   0  0  0  0  0  0  0  0  0  0  0  0
   -5.1874   -1.7861   -0.4655 N   0  0  0  0  0  0  0  0  0  0  0  0
   -3.8581   -1.4025   -0.3520 C   0  0  0  0  0  0  0  0  0  0  0  0
   -2.8255   -2.3706   -0.3758 C   0  0  0  0  0  0  0  0  0  0  0  0
   -3.0790   -3.7368   -0.5110 C   0  0  0  0  0  0  0  0  0  0  0  0
   -2.0123   -4.6253   -0.5253 C   0  0  0  0  0  0  0  0  0  0  0  0
   -0.6918   -4.1578   -0.4058 C   0  0  0  0  0  0  0  0  0  0  0  0
   -0.4310   -2.8293   -0.2730 C   0  0  0  0  0  0  0  0  0  0  0  0
   -1.4885   -1.9116   -0.2556 C   0  0  0  0  0  0  0  0  0  0  0  0
   -1.2831   -0.5190   -0.1205 C   0  0  0  0  0  0  0  0  0  0  0  0
   -2.3296    0.2832   -0.1070 N   0  0  0  0  0  0  0  0  0  0  0  0
   -3.5366   -0.1298   -0.2205 N   0  0  0  0  0  0  0  0  0  0  0  0
    0.0021   -0.0041    0.0020 N   0  0  0  0  0  0  0  0  0  0  0  0
    0.3181    0.8938   -1.1162 C   0  0  0  0  0  0  0  0  0  0  0  0
    1.7836    1.3254   -1.0271 C   0  0  0  0  0  0  0  0  0  0  0  0
    2.0203    2.0385    0.3071 C   0  0  0  0  0  0  0  0  0  0  0  0
    1.6378    1.0989    1.4540 C   0  0  0  0  0  0  0  0  0  0  0  0
    0.1765    0.6738    1.2929 C   0  0  0  0  0  0  0  0  0  0  0  0
    3.3998    2.3937    0.4205 O   0  0  0  0  0  0  0  0  0  0  0  0
   -2.2590   -6.0291   -0.6633 C   0  0  0  0  0  0  0  0  0  0  0  0
   -2.4547   -7.1428   -0.7728 N   0  0  0  0  0  0  0  0  0  0  0  0
  -11.8692   -2.4926   -2.7715 H   0  0  0  0  0  0  0  0  0  0  0  0
  -11.0654   -4.0780   -2.8636 H   0  0  0  0  0  0  0  0  0  0  0  0
  -12.7320   -3.9595   -2.2500 H   0  0  0  0  0  0  0  0  0  0  0  0
   -9.7834   -2.4235   -2.9474 H   0  0  0  0  0  0  0  0  0  0  0  0
   -7.5974   -1.3168   -2.7131 H   0  0  0  0  0  0  0  0  0  0  0  0
   -7.8469   -1.7013    1.5273 H   0  0  0  0  0  0  0  0  0  0  0  0
   -6.2085   -0.2329    0.5058 H   0  0  0  0  0  0  0  0  0  0  0  0
   -6.1025   -0.0763   -1.2641 H   0  0  0  0  0  0  0  0  0  0  0  0
   -5.4149   -2.7241   -0.5622 H   0  0  0  0  0  0  0  0  0  0  0  0
   -4.0926   -4.0981   -0.6036 H   0  0  0  0  0  0  0  0  0  0  0  0
    0.1263   -4.8628   -0.4188 H   0  0  0  0  0  0  0  0  0  0  0  0
    0.5881   -2.4836   -0.1819 H   0  0  0  0  0  0  0  0  0  0  0  0
    0.1496    0.3730   -2.0588 H   0  0  0  0  0  0  0  0  0  0  0  0
   -0.3233    1.7737   -1.0679 H   0  0  0  0  0  0  0  0  0  0  0  0
    2.4261    0.4471   -1.0893 H   0  0  0  0  0  0  0  0  0  0  0  0
    2.0137    2.0042   -1.8484 H   0  0  0  0  0  0  0  0  0  0  0  0
    1.4074    2.9387    0.3538 H   0  0  0  0  0  0  0  0  0  0  0  0
    1.7637    1.6159    2.4053 H   0  0  0  0  0  0  0  0  0  0  0  0
    2.2780    0.2171    1.4308 H   0  0  0  0  0  0  0  0  0  0  0  0
   -0.4642    1.5549    1.3300 H   0  0  0  0  0  0  0  0  0  0  0  0
   -0.0946   -0.0067    2.1001 H   0  0  0  0  0  0  0  0  0  0  0  0
    3.7113    2.9888   -0.2751 H   0  0  0  0  0  0  0  0  0  0  0  0
  1  2  1  0  0  0  0
  1 31  1  0  0  0  0
  1 32  1  0  0  0  0
  1 33  1  0  0  0  0
  2  3  1  0  0  0  0
  3  8  2  0  0  0  0
  3  4  1  0  0  0  0
  4  5  2  0  0  0  0
  4 34  1  0  0  0  0
  5  6  1  0  0  0  0
  5 35  1  0  0  0  0
  6  7  2  0  0  0  0
  6 10  1  0  0  0  0
  7  8  1  0  0  0  0
  7 36  1  0  0  0  0
  8  9  1  0  0  0  0
 10 11  1  0  0  0  0
 10 37  1  0  0  0  0
 10 38  1  0  0  0  0
 11 12  1  0  0  0  0
 11 39  1  0  0  0  0
 12 21  2  0  0  0  0
 12 13  1  0  0  0  0
 13 18  2  0  0  0  0
 13 14  1  0  0  0  0
 14 15  2  0  0  0  0
 14 40  1  0  0  0  0
 15 16  1  0  0  0  0
 15 29  1  0  0  0  0
 16 17  2  0  0  0  0
 16 41  1  0  0  0  0
 17 18  1  0  0  0  0
 17 42  1  0  0  0  0
 18 19  1  0  0  0  0
 19 20  2  0  0  0  0
 19 22  1  0  0  0  0
 20 21  1  0  0  0  0
 22 27  1  0  0  0  0
 22 23  1  0  0  0  0
 23 24  1  0  0  0  0
 23 43  1  0  0  0  0
 23 44  1  0  0  0  0
 24 25  1  0  0  0  0
 24 45  1  0  0  0  0
 24 46  1  0  0  0  0
 25 26  1  0  0  0  0
 25 28  1  0  0  0  0
 25 47  1  0  0  0  0
 26 27  1  0  0  0  0
 26 48  1  0  0  0  0
 26 49  1  0  0  0  0
 27 50  1  0  0  0  0
 27 51  1  0  0  0  0
 28 52  1  0  0  0  0
 29 30  3  0  0  0  0
M  END
$$$$
ZINC01659942
  -OEChem-08230709403D

 44 45  0     0  0  0  0  0  0999 V2000
   -5.0198    2.8628   -0.8337 C   0  0  0  0  0  0  0  0  0  0  0  0
   -4.3354    2.3805    0.4468 C   0  0  0  0  0  0  0  0  0  0  0  0
   -2.8371    2.2073    0.1901 C   0  0  0  0  0  0  0  0  0  0  0  0
   -2.1527    1.7250    1.4707 C   0  0  0  0  0  0  0  0  0  0  0  0
   -0.7141    1.5586    1.2242 N   0  0  0  0  0  0  0  0  0  0  0  0
   -0.0486    1.2271    2.3859 C   0  0  0  0  0  0  0  0  0  0  0  0
    0.3749    2.2201    3.2903 C   0  0  0  0  0  0  0  0  0  0  0  0
    0.2780    3.6307    3.3077 C   0  0  0  0  0  0  0  0  0  0  0  0
    0.8443    4.0688    4.3949 N   0  0  0  0  0  0  0  0  0  0  0  0
    1.3358    2.9899    5.1385 N   0  0  0  0  0  0  0  0  0  0  0  0
    1.0502    1.8369    4.4627 C   0  0  0  0  0  0  0  0  0  0  0  0
    0.9076   -0.4021    3.8987 C   0  0  0  0  0  0  0  0  0  0  0  0
    0.2242   -0.1143    2.7093 C   0  0  0  0  0  0  0  0  0  0  0  0
   -0.1970   -1.1989    1.8099 C   0  0  0  0  0  0  0  0  0  0  0  0
   -0.6975   -0.9362    0.7338 O   0  0  0  0  0  0  0  0  0  0  0  0
   -0.0280   -2.4843    2.1789 O   0  0  0  0  0  0  0  0  0  0  0  0
   -0.4668   -3.5024    1.2413 C   0  0  0  0  0  0  0  0  0  0  0  0
   -0.1959   -4.8885    1.8297 C   0  0  0  0  0  0  0  0  0  0  0  0
    2.0369    3.0808    6.4217 C   0  0  0  0  0  0  0  0  0  0  0  0
    1.0207    3.0170    7.5637 C   0  0  0  0  0  0  0  0  0  0  0  0
   -6.0873    2.9862   -0.6508 H   0  0  0  0  0  0  0  0  0  0  0  0
   -4.5905    3.8174   -1.1378 H   0  0  0  0  0  0  0  0  0  0  0  0
   -4.8693    2.1283   -1.6249 H   0  0  0  0  0  0  0  0  0  0  0  0
   -4.7647    1.4259    0.7509 H   0  0  0  0  0  0  0  0  0  0  0  0
   -4.4859    3.1150    1.2380 H   0  0  0  0  0  0  0  0  0  0  0  0
   -2.4078    3.1619   -0.1139 H   0  0  0  0  0  0  0  0  0  0  0  0
   -2.6866    1.4728   -0.6011 H   0  0  0  0  0  0  0  0  0  0  0  0
   -2.3032    2.4595    2.2619 H   0  0  0  0  0  0  0  0  0  0  0  0
   -2.5820    0.7703    1.7747 H   0  0  0  0  0  0  0  0  0  0  0  0
   -0.3205    2.3884    0.8063 H   0  0  0  0  0  0  0  0  0  0  0  0
   -0.1874    4.2412    2.5480 H   0  0  0  0  0  0  0  0  0  0  0  0
    1.1227   -1.4303    4.1495 H   0  0  0  0  0  0  0  0  0  0  0  0
   -1.5349   -3.3890    1.0554 H   0  0  0  0  0  0  0  0  0  0  0  0
    0.0787   -3.3926    0.3040 H   0  0  0  0  0  0  0  0  0  0  0  0
   -0.5253   -5.6528    1.1258 H   0  0  0  0  0  0  0  0  0  0  0  0
    0.8722   -5.0018    2.0156 H   0  0  0  0  0  0  0  0  0  0  0  0
   -0.7414   -4.9983    2.7669 H   0  0  0  0  0  0  0  0  0  0  0  0
    2.7379    2.2511    6.5123 H   0  0  0  0  0  0  0  0  0  0  0  0
    2.5814    4.0237    6.4721 H   0  0  0  0  0  0  0  0  0  0  0  0
    1.5423    3.0847    8.5184 H   0  0  0  0  0  0  0  0  0  0  0  0
    0.3197    3.8468    7.4731 H   0  0  0  0  0  0  0  0  0  0  0  0
    0.4762    2.0741    7.5132 H   0  0  0  0  0  0  0  0  0  0  0  0
    1.3263    0.5304    4.7853 N   0  3  0  0  0  0  0  0  0  0  0  0
    1.8212    0.2764    5.6483 H   0  0  0  0  0  0  0  0  0  0  0  0
  1  2  1  0  0  0  0
  1 21  1  0  0  0  0
  1 22  1  0  0  0  0
  1 23  1  0  0  0  0
  2  3  1  0  0  0  0
  2 24  1  0  0  0  0
  2 25  1  0  0  0  0
  3  4  1  0  0  0  0
  3 26  1  0  0  0  0
  3 27  1  0  0  0  0
  4  5  1  0  0  0  0
  4 28  1  0  0  0  0
  4 29  1  0  0  0  0
  5  6  1  0  0  0  0
  5 30  1  0  0  0  0
  6 13  2  0  0  0  0
  6  7  1  0  0  0  0
  7 11  2  0  0  0  0
  7  8  1  0  0  0  0
  8  9  2  0  0  0  0
  8 31  1  0  0  0  0
  9 10  1  0  0  0  0
 10 11  1  0  0  0  0
 10 19  1  0  0  0  0
 11 43  1  0  0  0  0
 12 13  1  0  0  0  0
 12 32  1  0  0  0  0
 12 43  2  0  0  0  0
 13 14  1  0  0  0  0
 14 15  2  0  0  0  0
 14 16  1  0  0  0  0
 16 17  1  0  0  0  0
 17 18  1  0  0  0  0
 17 33  1  0  0  0  0
 17 34  1  0  0  0  0
 18 35  1  0  0  0  0
 18 36  1  0  0  0  0
 18 37  1  0  0  0  0
 19 20  1  0  0  0  0
 19 38  1  0  0  0  0
 19 39  1  0  0  0  0
 20 40  1  0  0  0  0
 20 41  1  0  0  0  0
 20 42  1  0  0  0  0
 43 44  1  0  0  0  0
M  CHG  1  43   1
M  END
$$$$
ZINC03792330
  -OEChem-08230709403D

 51 55  0     0  0  0  0  0  0999 V2000
    1.1689    2.0888    0.0021 C   0  0  0  0  0  0  0  0  0  0  0  0
    2.3791    1.4199   -0.0126 C   0  0  0  0  0  0  0  0  0  0  0  0
    2.4055    0.0351   -0.0202 C   0  0  0  0  0  0  0  0  0  0  0  0
    1.2104   -0.6808   -0.0127 C   0  0  0  0  0  0  0  0  0  0  0  0
    0.0021   -0.0041    0.0020 C   0  0  0  0  0  0  0  0  0  0  0  0
   -0.0167    1.3786    0.0096 C   0  0  0  0  0  0  0  0  0  0  0  0
   -1.3328    2.1126    0.0198 C   0  0  0  0  0  0  0  0  0  0  0  0
   -1.7527    2.3430    1.4043 N   0  0  0  0  0  0  0  0  0  0  0  0
   -2.9352    3.0017    1.6654 C   0  0  0  0  0  0  0  0  0  0  0  0
   -3.3616    3.2291    2.9981 C   0  0  0  0  0  0  0  0  0  0  0  0
   -2.6128    2.8009    4.0994 C   0  0  0  0  0  0  0  0  0  0  0  0
   -3.0718    3.0465    5.3614 C   0  0  0  0  0  0  0  0  0  0  0  0
   -4.2753    3.7171    5.5660 C   0  0  0  0  0  0  0  0  0  0  0  0
   -5.0218    4.1567    4.5132 C   0  0  0  0  0  0  0  0  0  0  0  0
   -4.5824    3.9158    3.2044 C   0  0  0  0  0  0  0  0  0  0  0  0
   -5.2889    4.3129    2.1351 N   0  0  0  0  0  0  0  0  0  0  0  0
   -4.8478    4.0706    0.9158 C   0  0  0  0  0  0  0  0  0  0  0  0
   -3.7045    3.4336    0.6773 N   0  0  0  0  0  0  0  0  0  0  0  0
   -5.6060    4.4965   -0.1599 N   0  0  0  0  0  0  0  0  0  0  0  0
   -4.8181    5.3577   -1.0510 C   0  0  0  0  0  0  0  0  0  0  0  0
   -5.6393    5.6900   -2.2989 C   0  0  0  0  0  0  0  0  0  0  0  0
   -6.9293    6.4010   -1.8806 C   0  0  0  0  0  0  0  0  0  0  0  0
   -7.7077    5.5030   -0.9151 C   0  0  0  0  0  0  0  0  0  0  0  0
   -6.8265    5.1761    0.2927 C   0  0  0  0  0  0  0  0  0  0  0  0
   -7.7708    6.6786   -3.0995 C   0  0  0  0  0  0  0  0  0  0  0  0
   -8.8798    6.2071   -3.1882 O   0  0  0  0  0  0  0  0  0  0  0  0
   -2.1437    2.5157    6.7290 Cl  0  0  0  0  0  0  0  0  0  0  0  0
    1.5010   -2.0145   -0.0221 O   0  0  0  0  0  0  0  0  0  0  0  0
    2.8735   -2.1060   -0.4476 C   0  0  0  0  0  0  0  0  0  0  0  0
    3.4442   -0.8503   -0.0342 O   0  0  0  0  0  0  0  0  0  0  0  0
    1.1502    3.1687    0.0081 H   0  0  0  0  0  0  0  0  0  0  0  0
    3.3040    1.9774   -0.0184 H   0  0  0  0  0  0  0  0  0  0  0  0
   -0.9259   -0.5565    0.0079 H   0  0  0  0  0  0  0  0  0  0  0  0
   -1.2190    3.0696   -0.4894 H   0  0  0  0  0  0  0  0  0  0  0  0
   -2.0860    1.5151   -0.4937 H   0  0  0  0  0  0  0  0  0  0  0  0
   -1.1988    2.0319    2.1373 H   0  0  0  0  0  0  0  0  0  0  0  0
   -1.6782    2.2800    3.9524 H   0  0  0  0  0  0  0  0  0  0  0  0
   -4.6177    3.8998    6.5738 H   0  0  0  0  0  0  0  0  0  0  0  0
   -5.9529    4.6757    4.6868 H   0  0  0  0  0  0  0  0  0  0  0  0
   -4.5598    6.2797   -0.5301 H   0  0  0  0  0  0  0  0  0  0  0  0
   -3.9056    4.8386   -1.3443 H   0  0  0  0  0  0  0  0  0  0  0  0
   -5.8862    4.7694   -2.8278 H   0  0  0  0  0  0  0  0  0  0  0  0
   -5.0601    6.3419   -2.9528 H   0  0  0  0  0  0  0  0  0  0  0  0
   -6.6834    7.3406   -1.3860 H   0  0  0  0  0  0  0  0  0  0  0  0
   -7.9872    4.5795   -1.4222 H   0  0  0  0  0  0  0  0  0  0  0  0
   -8.6066    6.0206   -0.5802 H   0  0  0  0  0  0  0  0  0  0  0  0
   -7.3728    4.5252    0.9753 H   0  0  0  0  0  0  0  0  0  0  0  0
   -6.5588    6.0990    0.8071 H   0  0  0  0  0  0  0  0  0  0  0  0
    2.9323   -2.2154   -1.5305 H   0  0  0  0  0  0  0  0  0  0  0  0
    3.3742   -2.9365    0.0501 H   0  0  0  0  0  0  0  0  0  0  0  0
   -7.2885    7.4496   -4.0867 O   0  5  0  0  0  0  0  0  0  0  0  0
  1  6  2  0  0  0  0
  1  2  1  0  0  0  0
  1 31  1  0  0  0  0
  2  3  2  0  0  0  0
  2 32  1  0  0  0  0
  3 30  1  0  0  0  0
  3  4  1  0  0  0  0
  4  5  2  0  0  0  0
  4 28  1  0  0  0  0
  5  6  1  0  0  0  0
  5 33  1  0  0  0  0
  6  7  1  0  0  0  0
  7  8  1  0  0  0  0
  7 34  1  0  0  0  0
  7 35  1  0  0  0  0
  8  9  1  0  0  0  0
  8 36  1  0  0  0  0
  9 18  2  0  0  0  0
  9 10  1  0  0  0  0
 10 15  2  0  0  0  0
 10 11  1  0  0  0  0
 11 12  2  0  0  0  0
 11 37  1  0  0  0  0
 12 13  1  0  0  0  0
 12 27  1  0  0  0  0
 13 14  2  0  0  0  0
 13 38  1  0  0  0  0
 14 15  1  0  0  0  0
 14 39  1  0  0  0  0
 15 16  1  0  0  0  0
 16 17  2  0  0  0  0
 17 18  1  0  0  0  0
 17 19  1  0  0  0  0
 19 24  1  0  0  0  0
 19 20  1  0  0  0  0
 20 21  1  0  0  0  0
 20 40  1  0  0  0  0
 20 41  1  0  0  0  0
 21 22  1  0  0  0  0
 21 42  1  0  0  0  0
 21 43  1  0  0  0  0
 22 23  1  0  0  0  0
 22 25  1  0  0  0  0
 22 44  1  0  0  0  0
 23 24  1  0  0  0  0
 23 45  1  0  0  0  0
 23 46  1  0  0  0  0
 24 47  1  0  0  0  0
 24 48  1  0  0  0  0
 25 26  2  0  0  0  0
 25 51  1  0  0  0  0
 28 29  1  0  0  0  0
 29 30  1  0  0  0  0
 29 49  1  0  0  0  0
 29 50  1  0  0  0  0
M  CHG  1  51  -1
M  END
$$$$
ZINC03802172
  -OEChem-08230709403D

 47 51  0     1  0  0  0  0  0999 V2000
    5.5449   -1.8152   -4.5433 C   0  0  0  0  0  0  0  0  0  0  0  0
    4.8082   -0.5942   -4.0558 C   0  0  0  0  0  0  0  0  0  0  0  0
    4.1160   -0.5246   -2.9474 N   0  0  0  0  0  0  0  0  0  0  0  0
    3.5941    0.6988   -2.8158 C   0  0  0  0  0  0  0  0  0  0  0  0
    3.9914    1.4367   -3.9210 C   0  0  0  0  0  0  0  0  0  0  0  0
    4.7630    0.5907   -4.6947 N   0  0  0  0  0  0  0  0  0  0  0  0
    5.4090    0.9200   -5.9677 C   0  0  0  0  0  0  0  0  0  0  0  0
    6.7934    1.4543   -5.7050 C   0  0  0  0  0  0  0  0  0  0  0  0
    6.9883    2.8111   -5.5265 C   0  0  0  0  0  0  0  0  0  0  0  0
    8.2576    3.3008   -5.2816 C   0  0  0  0  0  0  0  0  0  0  0  0
    9.3333    2.4345   -5.2235 C   0  0  0  0  0  0  0  0  0  0  0  0
    9.1392    1.0782   -5.4073 C   0  0  0  0  0  0  0  0  0  0  0  0
    7.8693    0.5882   -5.6483 C   0  0  0  0  0  0  0  0  0  0  0  0
    3.5781    2.7801   -4.0409 C   0  0  0  0  0  0  0  0  0  0  0  0
    3.9153    3.4382   -5.0087 O   0  0  0  0  0  0  0  0  0  0  0  0
    2.8108    3.3326   -3.0848 N   0  0  0  0  0  0  0  0  0  0  0  0
    2.4107    2.6050   -1.9740 C   0  0  0  0  0  0  0  0  0  0  0  0
    1.4697    1.9467   -0.0015 C   0  0  1  0  0  0  0  0  0  0  0  0
    1.8283    2.2088    0.9939 H   0  0  0  0  0  0  0  0  0  0  0  0
   -0.0189    1.5442    0.0105 C   0  0  0  0  0  0  0  0  0  0  0  0
    0.0021   -0.0041    0.0020 C   0  0  0  0  0  0  0  0  0  0  0  0
    1.1889   -0.3243   -0.9399 C   0  0  0  0  0  0  0  0  0  0  0  0
    2.2427    0.7483   -0.6001 C   0  0  1  0  0  0  0  0  0  0  0  0
    3.0175    0.3687    0.0660 H   0  0  0  0  0  0  0  0  0  0  0  0
    2.7984    1.2957   -1.8485 N   0  0  0  0  0  0  0  0  0  0  0  0
    2.3903    4.7295   -3.2187 C   0  0  0  0  0  0  0  0  0  0  0  0
    6.5632   -1.8045   -4.1545 H   0  0  0  0  0  0  0  0  0  0  0  0
    5.0325   -2.7119   -4.1950 H   0  0  0  0  0  0  0  0  0  0  0  0
    5.5720   -1.8122   -5.6329 H   0  0  0  0  0  0  0  0  0  0  0  0
    5.4764    0.0233   -6.5836 H   0  0  0  0  0  0  0  0  0  0  0  0
    4.8209    1.6754   -6.4888 H   0  0  0  0  0  0  0  0  0  0  0  0
    6.1484    3.4883   -5.5752 H   0  0  0  0  0  0  0  0  0  0  0  0
    8.4093    4.3604   -5.1384 H   0  0  0  0  0  0  0  0  0  0  0  0
   10.3254    2.8173   -5.0349 H   0  0  0  0  0  0  0  0  0  0  0  0
    9.9796    0.4015   -5.3623 H   0  0  0  0  0  0  0  0  0  0  0  0
    7.7176   -0.4715   -5.7918 H   0  0  0  0  0  0  0  0  0  0  0  0
   -0.5233    1.9232   -0.8783 H   0  0  0  0  0  0  0  0  0  0  0  0
   -0.5062    1.9136    0.9129 H   0  0  0  0  0  0  0  0  0  0  0  0
    0.1874   -0.3934    1.0031 H   0  0  0  0  0  0  0  0  0  0  0  0
   -0.9307   -0.4009   -0.3986 H   0  0  0  0  0  0  0  0  0  0  0  0
    1.5797   -1.3211   -0.7355 H   0  0  0  0  0  0  0  0  0  0  0  0
    0.8811   -0.2427   -1.9824 H   0  0  0  0  0  0  0  0  0  0  0  0
    2.7928    5.1431   -4.1434 H   0  0  0  0  0  0  0  0  0  0  0  0
    1.3017    4.7806   -3.2415 H   0  0  0  0  0  0  0  0  0  0  0  0
    2.7633    5.3041   -2.3709 H   0  0  0  0  0  0  0  0  0  0  0  0
    1.6726    3.0274   -0.9782 N   0  3  0  0  0  0  0  0  0  0  0  0
    1.2905    3.9765   -0.8917 H   0  0  0  0  0  0  0  0  0  0  0  0
  1  2  1  0  0  0  0
  1 27  1  0  0  0  0
  1 28  1  0  0  0  0
  1 29  1  0  0  0  0
  2  6  1  0  0  0  0
  2  3  2  0  0  0  0
  3  4  1  0  0  0  0
  4 25  1  0  0  0  0
  4  5  2  0  0  0  0
  5  6  1  0  0  0  0
  5 14  1  0  0  0  0
  6  7  1  0  0  0  0
  7  8  1  0  0  0  0
  7 30  1  0  0  0  0
  7 31  1  0  0  0  0
  8 13  2  0  0  0  0
  8  9  1  0  0  0  0
  9 10  2  0  0  0  0
  9 32  1  0  0  0  0
 10 11  1  0  0  0  0
 10 33  1  0  0  0  0
 11 12  2  0  0  0  0
 11 34  1  0  0  0  0
 12 13  1  0  0  0  0
 12 35  1  0  0  0  0
 13 36  1  0  0  0  0
 14 15  2  0  0  0  0
 14 16  1  0  0  0  0
 16 17  1  0  0  0  0
 16 26  1  0  0  0  0
 17 25  1  0  0  0  0
 17 46  2  0  0  0  0
 18 19  1  0  0  0  0
 18 23  1  0  0  0  0
 18 20  1  0  0  0  0
 18 46  1  0  0  0  0
 20 21  1  0  0  0  0
 20 37  1  0  0  0  0
 20 38  1  0  0  0  0
 21 22  1  0  0  0  0
 21 39  1  0  0  0  0
 21 40  1  0  0  0  0
 22 23  1  0  0  0  0
 22 41  1  0  0  0  0
 22 42  1  0  0  0  0
 23 24  1  0  0  0  0
 23 25  1  0  0  0  0
 26 43  1  0  0  0  0
 26 44  1  0  0  0  0
 26 45  1  0  0  0  0
 46 47  1  0  0  0  0
M  CHG  1  46   1
M  END
$$$$
ZINC03802172
  -OEChem-08230709403D

 48 52  0     1  0  0  0  0  0999 V2000
    5.5449   -1.8152   -4.5433 C   0  0  0  0  0  0  0  0  0  0  0  0
    4.8082   -0.5942   -4.0558 C   0  0  0  0  0  0  0  0  0  0  0  0
    3.5941    0.6988   -2.8158 C   0  0  0  0  0  0  0  0  0  0  0  0
    3.9914    1.4367   -3.9210 C   0  0  0  0  0  0  0  0  0  0  0  0
    4.7630    0.5907   -4.6947 N   0  0  0  0  0  0  0  0  0  0  0  0
    5.4090    0.9200   -5.9677 C   0  0  0  0  0  0  0  0  0  0  0  0
    6.7934    1.4543   -5.7050 C   0  0  0  0  0  0  0  0  0  0  0  0
    6.9883    2.8111   -5.5265 C   0  0  0  0  0  0  0  0  0  0  0  0
    8.2576    3.3008   -5.2816 C   0  0  0  0  0  0  0  0  0  0  0  0
    9.3333    2.4345   -5.2235 C   0  0  0  0  0  0  0  0  0  0  0  0
    9.1392    1.0782   -5.4073 C   0  0  0  0  0  0  0  0  0  0  0  0
    7.8693    0.5882   -5.6483 C   0  0  0  0  0  0  0  0  0  0  0  0
    3.5781    2.7801   -4.0409 C   0  0  0  0  0  0  0  0  0  0  0  0
    3.9153    3.4382   -5.0087 O   0  0  0  0  0  0  0  0  0  0  0  0
    2.8108    3.3326   -3.0848 N   0  0  0  0  0  0  0  0  0  0  0  0
    2.4107    2.6050   -1.9740 C   0  0  0  0  0  0  0  0  0  0  0  0
    1.4697    1.9467   -0.0015 C   0  0  1  0  0  0  0  0  0  0  0  0
    1.8283    2.2088    0.9939 H   0  0  0  0  0  0  0  0  0  0  0  0
   -0.0189    1.5442    0.0105 C   0  0  0  0  0  0  0  0  0  0  0  0
    0.0021   -0.0041    0.0020 C   0  0  0  0  0  0  0  0  0  0  0  0
    1.1889   -0.3243   -0.9399 C   0  0  0  0  0  0  0  0  0  0  0  0
    2.2427    0.7483   -0.6001 C   0  0  1  0  0  0  0  0  0  0  0  0
    3.0175    0.3687    0.0660 H   0  0  0  0  0  0  0  0  0  0  0  0
    2.7984    1.2957   -1.8485 N   0  0  0  0  0  0  0  0  0  0  0  0
    2.3903    4.7295   -3.2187 C   0  0  0  0  0  0  0  0  0  0  0  0
    6.5632   -1.8045   -4.1545 H   0  0  0  0  0  0  0  0  0  0  0  0
    5.0325   -2.7119   -4.1950 H   0  0  0  0  0  0  0  0  0  0  0  0
    5.5720   -1.8122   -5.6329 H   0  0  0  0  0  0  0  0  0  0  0  0
    5.4764    0.0233   -6.5836 H   0  0  0  0  0  0  0  0  0  0  0  0
    4.8209    1.6754   -6.4888 H   0  0  0  0  0  0  0  0  0  0  0  0
    6.1484    3.4883   -5.5752 H   0  0  0  0  0  0  0  0  0  0  0  0
    8.4093    4.3604   -5.1384 H   0  0  0  0  0  0  0  0  0  0  0  0
   10.3254    2.8173   -5.0349 H   0  0  0  0  0  0  0  0  0  0  0  0
    9.9796    0.4015   -5.3623 H   0  0  0  0  0  0  0  0  0  0  0  0
    7.7176   -0.4715   -5.7918 H   0  0  0  0  0  0  0  0  0  0  0  0
   -0.5233    1.9232   -0.8783 H   0  0  0  0  0  0  0  0  0  0  0  0
   -0.5062    1.9136    0.9129 H   0  0  0  0  0  0  0  0  0  0  0  0
    0.1874   -0.3934    1.0031 H   0  0  0  0  0  0  0  0  0  0  0  0
   -0.9307   -0.4009   -0.3986 H   0  0  0  0  0  0  0  0  0  0  0  0
    1.5797   -1.3211   -0.7355 H   0  0  0  0  0  0  0  0  0  0  0  0
    0.8811   -0.2427   -1.9824 H   0  0  0  0  0  0  0  0  0  0  0  0
    2.7928    5.1431   -4.1434 H   0  0  0  0  0  0  0  0  0  0  0  0
    1.3017    4.7806   -3.2415 H   0  0  0  0  0  0  0  0  0  0  0  0
    2.7633    5.3041   -2.3709 H   0  0  0  0  0  0  0  0  0  0  0  0
    1.6726    3.0274   -0.9782 N   0  3  0  0  0  0  0  0  0  0  0  0
    1.2905    3.9765   -0.8917 H   0  0  0  0  0  0  0  0  0  0  0  0
    4.1158   -0.5261   -2.9461 N   0  3  0  0  0  0  0  0  0  0  0  0
    3.9922   -1.2958   -2.2779 H   0  0  0  0  0  0  0  0  0  0  0  0
  1  2  1  0  0  0  0
  1 26  1  0  0  0  0
  1 27  1  0  0  0  0
  1 28  1  0  0  0  0
  2  5  1  0  0  0  0
  2 47  2  0  0  0  0
  3 24  1  0  0  0  0
  3  4  2  0  0  0  0
  3 47  1  0  0  0  0
  4  5  1  0  0  0  0
  4 13  1  0  0  0  0
  5  6  1  0  0  0  0
  6  7  1  0  0  0  0
  6 29  1  0  0  0  0
  6 30  1  0  0  0  0
  7 12  2  0  0  0  0
  7  8  1  0  0  0  0
  8  9  2  0  0  0  0
  8 31  1  0  0  0  0
  9 10  1  0  0  0  0
  9 32  1  0  0  0  0
 10 11  2  0  0  0  0
 10 33  1  0  0  0  0
 11 12  1  0  0  0  0
 11 34  1  0  0  0  0
 12 35  1  0  0  0  0
 13 14  2  0  0  0  0
 13 15  1  0  0  0  0
 15 16  1  0  0  0  0
 15 25  1  0  0  0  0
 16 24  1  0  0  0  0
 16 45  2  0  0  0  0
 17 18  1  0  0  0  0
 17 22  1  0  0  0  0
 17 19  1  0  0  0  0
 17 45  1  0  0  0  0
 19 20  1  0  0  0  0
 19 36  1  0  0  0  0
 19 37  1  0  0  0  0
 20 21  1  0  0  0  0
 20 38  1  0  0  0  0
 20 39  1  0  0  0  0
 21 22  1  0  0  0  0
 21 40  1  0  0  0  0
 21 41  1  0  0  0  0
 22 23  1  0  0  0  0
 22 24  1  0  0  0  0
 25 42  1  0  0  0  0
 25 43  1  0  0  0  0
 25 44  1  0  0  0  0
 45 46  1  0  0  0  0
 47 48  1  0  0  0  0
M  CHG  2  45   1  47   1
M  END
$$$$
ZINC03824369
  -OEChem-08230709403D

 52 55  0     1  0  0  0  0  0999 V2000
   -1.8725    0.6341   -6.4515 C   0  0  0  0  0  0  0  0  0  0  0  0
   -0.9459    1.7431   -5.9489 C   0  0  0  0  0  0  0  0  0  0  0  0
   -0.4908    1.4224   -4.5938 N   0  0  0  0  0  0  0  0  0  0  0  0
   -1.1241    1.7922   -3.4365 C   0  0  0  0  0  0  0  0  0  0  0  0
   -0.3475    1.2763   -2.3749 C   0  0  0  0  0  0  0  0  0  0  0  0
    0.7806    0.5812   -2.9874 C   0  0  0  0  0  0  0  0  0  0  0  0
    0.6577    0.6910   -4.2784 N   0  0  0  0  0  0  0  0  0  0  0  0
   -0.7478    1.4951   -1.0512 C   0  0  0  0  0  0  0  0  0  0  0  0
   -1.9361    2.2312   -0.8375 C   0  0  0  0  0  0  0  0  0  0  0  0
   -2.3953    2.4945    0.4583 C   0  0  0  0  0  0  0  0  0  0  0  0
   -3.5614    3.2251    0.6333 C   0  0  0  0  0  0  0  0  0  0  0  0
   -4.2743    3.7034   -0.4826 C   0  0  0  0  0  0  0  0  0  0  0  0
   -3.8393    3.4613   -1.7436 C   0  0  0  0  0  0  0  0  0  0  0  0
   -2.6577    2.7218   -1.9568 C   0  0  0  0  0  0  0  0  0  0  0  0
   -4.0426    3.4937    1.9550 C   0  0  0  0  0  0  0  0  0  0  0  0
   -4.4244    3.7068    3.0035 N   0  0  0  0  0  0  0  0  0  0  0  0
   -0.0116    1.0048    0.0076 N   0  0  0  0  0  0  0  0  0  0  0  0
    1.3525    1.5499   -0.0025 C   0  0  1  0  0  0  0  0  0  0  0  0
    1.6870    1.6728   -1.0326 H   0  0  0  0  0  0  0  0  0  0  0  0
    1.3645    2.9074    0.7030 C   0  0  0  0  0  0  0  0  0  0  0  0
    2.2917    0.5875    0.7273 C   0  0  0  0  0  0  0  0  0  0  0  0
    1.8221    0.4150    2.1732 C   0  0  0  0  0  0  0  0  0  0  0  0
    2.7612   -0.5474    2.9031 C   0  0  0  0  0  0  0  0  0  0  0  0
    4.1820    0.0203    2.8925 C   0  0  0  0  0  0  0  0  0  0  0  0
    4.6516    0.1928    1.4466 C   0  0  0  0  0  0  0  0  0  0  0  0
    3.7124    1.1552    0.7168 C   0  0  0  0  0  0  0  0  0  0  0  0
   -2.7340    0.5522   -5.7887 H   0  0  0  0  0  0  0  0  0  0  0  0
   -2.2111    0.8728   -7.4597 H   0  0  0  0  0  0  0  0  0  0  0  0
   -1.3325   -0.3126   -6.4641 H   0  0  0  0  0  0  0  0  0  0  0  0
   -1.4859    2.6898   -5.9362 H   0  0  0  0  0  0  0  0  0  0  0  0
   -0.0845    1.8250   -6.6116 H   0  0  0  0  0  0  0  0  0  0  0  0
    1.5737    0.0682   -2.4638 H   0  0  0  0  0  0  0  0  0  0  0  0
   -1.8488    2.1279    1.3147 H   0  0  0  0  0  0  0  0  0  0  0  0
   -5.1807    4.2710   -0.3319 H   0  0  0  0  0  0  0  0  0  0  0  0
   -4.3997    3.8356   -2.5876 H   0  0  0  0  0  0  0  0  0  0  0  0
    0.0021   -0.0041    0.0020 H   0  0  0  0  0  0  0  0  0  0  0  0
    0.6954    3.5931    0.1831 H   0  0  0  0  0  0  0  0  0  0  0  0
    1.0300    2.7845    1.7331 H   0  0  0  0  0  0  0  0  0  0  0  0
    2.3767    3.3119    0.6955 H   0  0  0  0  0  0  0  0  0  0  0  0
    2.2831   -0.3797    0.2247 H   0  0  0  0  0  0  0  0  0  0  0  0
    1.8306    1.3821    2.6759 H   0  0  0  0  0  0  0  0  0  0  0  0
    0.8099    0.0105    2.1807 H   0  0  0  0  0  0  0  0  0  0  0  0
    2.7527   -1.5146    2.4004 H   0  0  0  0  0  0  0  0  0  0  0  0
    2.4267   -0.6703    3.9331 H   0  0  0  0  0  0  0  0  0  0  0  0
    4.8511   -0.6654    3.4125 H   0  0  0  0  0  0  0  0  0  0  0  0
    4.1905    0.9874    3.3952 H   0  0  0  0  0  0  0  0  0  0  0  0
    4.6430   -0.7744    0.9440 H   0  0  0  0  0  0  0  0  0  0  0  0
    5.6637    0.5972    1.4391 H   0  0  0  0  0  0  0  0  0  0  0  0
    4.0469    1.2781   -0.3133 H   0  0  0  0  0  0  0  0  0  0  0  0
    3.7210    2.1223    1.2194 H   0  0  0  0  0  0  0  0  0  0  0  0
   -2.2717    2.5111   -3.2606 N   0  3  0  0  0  0  0  0  0  0  0  0
   -2.8141    2.8727   -4.0538 H   0  0  0  0  0  0  0  0  0  0  0  0
  1  2  1  0  0  0  0
  1 27  1  0  0  0  0
  1 28  1  0  0  0  0
  1 29  1  0  0  0  0
  2  3  1  0  0  0  0
  2 30  1  0  0  0  0
  2 31  1  0  0  0  0
  3  7  1  0  0  0  0
  3  4  1  0  0  0  0
  4  5  2  0  0  0  0
  4 51  1  0  0  0  0
  5  6  1  0  0  0  0
  5  8  1  0  0  0  0
  6  7  2  0  0  0  0
  6 32  1  0  0  0  0
  8  9  2  0  0  0  0
  8 17  1  0  0  0  0
  9 14  1  0  0  0  0
  9 10  1  0  0  0  0
 10 11  2  0  0  0  0
 10 33  1  0  0  0  0
 11 12  1  0  0  0  0
 11 15  1  0  0  0  0
 12 13  2  0  0  0  0
 12 34  1  0  0  0  0
 13 14  1  0  0  0  0
 13 35  1  0  0  0  0
 14 51  2  0  0  0  0
 15 16  3  0  0  0  0
 17 18  1  0  0  0  0
 17 36  1  0  0  0  0
 18 19  1  0  0  0  0
 18 20  1  0  0  0  0
 18 21  1  0  0  0  0
 20 37  1  0  0  0  0
 20 38  1  0  0  0  0
 20 39  1  0  0  0  0
 21 26  1  0  0  0  0
 21 22  1  0  0  0  0
 21 40  1  0  0  0  0
 22 23  1  0  0  0  0
 22 41  1  0  0  0  0
 22 42  1  0  0  0  0
 23 24  1  0  0  0  0
 23 43  1  0  0  0  0
 23 44  1  0  0  0  0
 24 25  1  0  0  0  0
 24 45  1  0  0  0  0
 24 46  1  0  0  0  0
 25 26  1  0  0  0  0
 25 47  1  0  0  0  0
 25 48  1  0  0  0  0
 26 49  1  0  0  0  0
 26 50  1  0  0  0  0
 51 52  1  0  0  0  0
M  CHG  1  51   1
M  END
$$$$
ZINC03831447
  -OEChem-08230709403D

 64 67  0     0  0  0  0  0  0999 V2000
    6.8303   -1.9001    9.2885 C   0  0  0  0  0  0  0  0  0  0  0  0
    6.3870   -2.6509    8.0312 C   0  0  0  0  0  0  0  0  0  0  0  0
    6.9674   -1.9620    6.7945 C   0  0  0  0  0  0  0  0  0  0  0  0
    6.5308   -2.7015    5.5562 C   0  0  0  0  0  0  0  0  0  0  0  0
    5.3622   -2.4413    4.8143 C   0  0  0  0  0  0  0  0  0  0  0  0
    5.3430   -3.3518    3.7498 C   0  0  0  0  0  0  0  0  0  0  0  0
    4.2641   -3.3101    2.8365 C   0  0  0  0  0  0  0  0  0  0  0  0
    4.2109   -4.0853    1.8975 O   0  0  0  0  0  0  0  0  0  0  0  0
    3.2915   -2.3924    3.0325 N   0  0  0  0  0  0  0  0  0  0  0  0
    2.5151   -2.3480    2.4038 H   0  0  0  0  0  0  0  0  0  0  0  0
    3.3642   -1.5235    4.0874 C   0  0  0  0  0  0  0  0  0  0  0  0
    4.3577   -1.5510    4.9423 N   0  0  0  0  0  0  0  0  0  0  0  0
    2.2882   -0.5295    4.2718 C   0  0  0  0  0  0  0  0  0  0  0  0
    1.2159   -0.4818    3.3786 C   0  0  0  0  0  0  0  0  0  0  0  0
    0.2170    0.4521    3.5532 C   0  0  0  0  0  0  0  0  0  0  0  0
    0.2666    1.3373    4.6172 C   0  0  0  0  0  0  0  0  0  0  0  0
    1.3194    1.2973    5.5104 C   0  0  0  0  0  0  0  0  0  0  0  0
    2.3349    0.3679    5.3465 C   0  0  0  0  0  0  0  0  0  0  0  0
    3.3702    0.3278    6.2233 O   0  0  0  0  0  0  0  0  0  0  0  0
    3.3505    1.2740    7.2940 C   0  0  0  0  0  0  0  0  0  0  0  0
    4.5885    1.0772    8.1713 C   0  0  0  0  0  0  0  0  0  0  0  0
   -1.1323    0.5151    2.4218 S   0  0  0  0  0  0  0  0  0  0  0  0
   -2.2175    1.1139    3.1169 O   0  0  0  0  0  0  0  0  0  0  0  0
   -1.2254   -0.7728    1.8286 O   0  0  0  0  0  0  0  0  0  0  0  0
   -0.7086    1.5639    1.2123 N   0  0  0  0  0  0  0  0  0  0  0  0
   -0.0127    1.0858    0.0080 C   0  0  0  0  0  0  0  0  0  0  0  0
   -0.7616    1.5973   -1.2272 C   0  0  0  0  0  0  0  0  0  0  0  0
   -1.7318    3.4342    0.0240 C   0  0  0  0  0  0  0  0  0  0  0  0
   -1.0227    2.9981    1.3105 C   0  0  0  0  0  0  0  0  0  0  0  0
   -1.4718    3.6062   -2.3771 C   0  0  0  0  0  0  0  0  0  0  0  0
    6.4665   -4.1226    3.8643 N   0  0  0  0  0  0  0  0  0  0  0  0
    7.1735   -3.6887    4.9933 N   0  0  0  0  0  0  0  0  0  0  0  0
    6.8612   -5.2099    2.9653 C   0  0  0  0  0  0  0  0  0  0  0  0
    7.9187   -1.9026    9.3484 H   0  0  0  0  0  0  0  0  0  0  0  0
    6.4713   -0.8719    9.2432 H   0  0  0  0  0  0  0  0  0  0  0  0
    6.4168   -2.3909   10.1695 H   0  0  0  0  0  0  0  0  0  0  0  0
    5.2987   -2.6484    7.9714 H   0  0  0  0  0  0  0  0  0  0  0  0
    6.7460   -3.6791    8.0765 H   0  0  0  0  0  0  0  0  0  0  0  0
    8.0558   -1.9645    6.8544 H   0  0  0  0  0  0  0  0  0  0  0  0
    6.6084   -0.9338    6.7493 H   0  0  0  0  0  0  0  0  0  0  0  0
    1.1713   -1.1729    2.5499 H   0  0  0  0  0  0  0  0  0  0  0  0
   -0.5221    2.0631    4.7490 H   0  0  0  0  0  0  0  0  0  0  0  0
    1.3513    1.9907    6.3377 H   0  0  0  0  0  0  0  0  0  0  0  0
    3.3513    2.2847    6.8859 H   0  0  0  0  0  0  0  0  0  0  0  0
    2.4527    1.1251    7.8939 H   0  0  0  0  0  0  0  0  0  0  0  0
    4.5878    0.0666    8.5794 H   0  0  0  0  0  0  0  0  0  0  0  0
    5.4863    1.2261    7.5713 H   0  0  0  0  0  0  0  0  0  0  0  0
    4.5735    1.7989    8.9880 H   0  0  0  0  0  0  0  0  0  0  0  0
    0.0021   -0.0041    0.0020 H   0  0  0  0  0  0  0  0  0  0  0  0
    1.0089    1.4659    0.0003 H   0  0  0  0  0  0  0  0  0  0  0  0
   -0.1966    1.3461   -2.1249 H   0  0  0  0  0  0  0  0  0  0  0  0
   -1.7458    1.1314   -1.2747 H   0  0  0  0  0  0  0  0  0  0  0  0
   -1.8705    4.5153    0.0337 H   0  0  0  0  0  0  0  0  0  0  0  0
   -2.7029    2.9435   -0.0408 H   0  0  0  0  0  0  0  0  0  0  0  0
   -0.0993    3.5648    1.4298 H   0  0  0  0  0  0  0  0  0  0  0  0
   -1.6744    3.1757    2.1660 H   0  0  0  0  0  0  0  0  0  0  0  0
   -2.4508    3.1643   -2.5622 H   0  0  0  0  0  0  0  0  0  0  0  0
   -1.5733    4.6873   -2.2819 H   0  0  0  0  0  0  0  0  0  0  0  0
   -0.8060    3.3757   -3.2088 H   0  0  0  0  0  0  0  0  0  0  0  0
    7.4777   -4.8100    2.1603 H   0  0  0  0  0  0  0  0  0  0  0  0
    7.4297   -5.9541    3.5230 H   0  0  0  0  0  0  0  0  0  0  0  0
    5.9698   -5.6745    2.5438 H   0  0  0  0  0  0  0  0  0  0  0  0
   -0.8852    3.0681   -1.1323 N   0  3  0  0  0  0  0  0  0  0  0  0
    0.0493    3.4729   -1.0019 H   0  0  0  0  0  0  0  0  0  0  0  0
  1  2  1  0  0  0  0
  1 34  1  0  0  0  0
  1 35  1  0  0  0  0
  1 36  1  0  0  0  0
  2  3  1  0  0  0  0
  2 37  1  0  0  0  0
  2 38  1  0  0  0  0
  3  4  1  0  0  0  0
  3 39  1  0  0  0  0
  3 40  1  0  0  0  0
  4 32  2  0  0  0  0
  4  5  1  0  0  0  0
  5 12  1  0  0  0  0
  5  6  2  0  0  0  0
  6  7  1  0  0  0  0
  6 31  1  0  0  0  0
  7  8  2  0  0  0  0
  7  9  1  0  0  0  0
  9 10  1  0  0  0  0
  9 11  1  0  0  0  0
 11 12  2  0  0  0  0
 11 13  1  0  0  0  0
 13 18  2  0  0  0  0
 13 14  1  0  0  0  0
 14 15  2  0  0  0  0
 14 41  1  0  0  0  0
 15 16  1  0  0  0  0
 15 22  1  0  0  0  0
 16 17  2  0  0  0  0
 16 42  1  0  0  0  0
 17 18  1  0  0  0  0
 17 43  1  0  0  0  0
 18 19  1  0  0  0  0
 19 20  1  0  0  0  0
 20 21  1  0  0  0  0
 20 44  1  0  0  0  0
 20 45  1  0  0  0  0
 21 46  1  0  0  0  0
 21 47  1  0  0  0  0
 21 48  1  0  0  0  0
 22 23  2  0  0  0  0
 22 24  2  0  0  0  0
 22 25  1  0  0  0  0
 25 29  1  0  0  0  0
 25 26  1  0  0  0  0
 26 27  1  0  0  0  0
 26 49  1  0  0  0  0
 26 50  1  0  0  0  0
 27 51  1  0  0  0  0
 27 52  1  0  0  0  0
 27 63  1  0  0  0  0
 28 29  1  0  0  0  0
 28 53  1  0  0  0  0
 28 54  1  0  0  0  0
 28 63  1  0  0  0  0
 29 55  1  0  0  0  0
 29 56  1  0  0  0  0
 30 57  1  0  0  0  0
 30 58  1  0  0  0  0
 30 59  1  0  0  0  0
 30 63  1  0  0  0  0
 31 32  1  0  0  0  0
 31 33  1  0  0  0  0
 33 60  1  0  0  0  0
 33 61  1  0  0  0  0
 33 62  1  0  0  0  0
 63 64  1  0  0  0  0
M  CHG  1  63   1
M  END
$$$$
ZINC03831447
  -OEChem-08230709403D

 64 67  0     0  0  0  0  0  0999 V2000
    6.8303   -1.9001    9.2885 C   0  0  0  0  0  0  0  0  0  0  0  0
    6.3870   -2.6509    8.0312 C   0  0  0  0  0  0  0  0  0  0  0  0
    6.9674   -1.9620    6.7945 C   0  0  0  0  0  0  0  0  0  0  0  0
    6.5308   -2.7015    5.5562 C   0  0  0  0  0  0  0  0  0  0  0  0
    5.3622   -2.4413    4.8143 C   0  0  0  0  0  0  0  0  0  0  0  0
    5.3430   -3.3518    3.7498 C   0  0  0  0  0  0  0  0  0  0  0  0
    4.2641   -3.3101    2.8365 C   0  0  0  0  0  0  0  0  0  0  0  0
    4.2109   -4.0853    1.8975 O   0  0  0  0  0  0  0  0  0  0  0  0
    3.2915   -2.3924    3.0325 N   0  0  0  0  0  0  0  0  0  0  0  0
    2.5151   -2.3480    2.4038 H   0  0  0  0  0  0  0  0  0  0  0  0
    3.3642   -1.5235    4.0874 C   0  0  0  0  0  0  0  0  0  0  0  0
    4.3577   -1.5510    4.9423 N   0  0  0  0  0  0  0  0  0  0  0  0
    2.2882   -0.5295    4.2718 C   0  0  0  0  0  0  0  0  0  0  0  0
    1.2159   -0.4818    3.3786 C   0  0  0  0  0  0  0  0  0  0  0  0
    0.2170    0.4521    3.5532 C   0  0  0  0  0  0  0  0  0  0  0  0
    0.2666    1.3373    4.6172 C   0  0  0  0  0  0  0  0  0  0  0  0
    1.3194    1.2973    5.5104 C   0  0  0  0  0  0  0  0  0  0  0  0
    2.3349    0.3679    5.3465 C   0  0  0  0  0  0  0  0  0  0  0  0
    3.3702    0.3278    6.2233 O   0  0  0  0  0  0  0  0  0  0  0  0
    3.3505    1.2740    7.2940 C   0  0  0  0  0  0  0  0  0  0  0  0
    4.5885    1.0772    8.1713 C   0  0  0  0  0  0  0  0  0  0  0  0
   -1.1323    0.5151    2.4218 S   0  0  0  0  0  0  0  0  0  0  0  0
   -2.2175    1.1139    3.1169 O   0  0  0  0  0  0  0  0  0  0  0  0
   -1.2254   -0.7728    1.8286 O   0  0  0  0  0  0  0  0  0  0  0  0
   -0.7086    1.5639    1.2123 N   0  0  0  0  0  0  0  0  0  0  0  0
   -0.0127    1.0858    0.0080 C   0  0  0  0  0  0  0  0  0  0  0  0
   -0.7616    1.5973   -1.2272 C   0  0  0  0  0  0  0  0  0  0  0  0
   -1.7318    3.4342    0.0240 C   0  0  0  0  0  0  0  0  0  0  0  0
   -1.0227    2.9981    1.3105 C   0  0  0  0  0  0  0  0  0  0  0  0
   -1.4718    3.6062   -2.3771 C   0  0  0  0  0  0  0  0  0  0  0  0
    6.4665   -4.1226    3.8643 N   0  0  0  0  0  0  0  0  0  0  0  0
    7.1735   -3.6887    4.9933 N   0  0  0  0  0  0  0  0  0  0  0  0
    6.8612   -5.2099    2.9653 C   0  0  0  0  0  0  0  0  0  0  0  0
    7.9187   -1.9026    9.3484 H   0  0  0  0  0  0  0  0  0  0  0  0
    6.4713   -0.8719    9.2432 H   0  0  0  0  0  0  0  0  0  0  0  0
    6.4168   -2.3909   10.1695 H   0  0  0  0  0  0  0  0  0  0  0  0
    5.2987   -2.6484    7.9714 H   0  0  0  0  0  0  0  0  0  0  0  0
    6.7460   -3.6791    8.0765 H   0  0  0  0  0  0  0  0  0  0  0  0
    8.0558   -1.9645    6.8544 H   0  0  0  0  0  0  0  0  0  0  0  0
    6.6084   -0.9338    6.7493 H   0  0  0  0  0  0  0  0  0  0  0  0
    1.1713   -1.1729    2.5499 H   0  0  0  0  0  0  0  0  0  0  0  0
   -0.5221    2.0631    4.7490 H   0  0  0  0  0  0  0  0  0  0  0  0
    1.3513    1.9907    6.3377 H   0  0  0  0  0  0  0  0  0  0  0  0
    3.3513    2.2847    6.8859 H   0  0  0  0  0  0  0  0  0  0  0  0
    2.4527    1.1251    7.8939 H   0  0  0  0  0  0  0  0  0  0  0  0
    4.5878    0.0666    8.5794 H   0  0  0  0  0  0  0  0  0  0  0  0
    5.4863    1.2261    7.5713 H   0  0  0  0  0  0  0  0  0  0  0  0
    4.5735    1.7989    8.9880 H   0  0  0  0  0  0  0  0  0  0  0  0
    0.0021   -0.0041    0.0020 H   0  0  0  0  0  0  0  0  0  0  0  0
    1.0089    1.4659    0.0003 H   0  0  0  0  0  0  0  0  0  0  0  0
   -0.1966    1.3461   -2.1249 H   0  0  0  0  0  0  0  0  0  0  0  0
   -1.7458    1.1314   -1.2747 H   0  0  0  0  0  0  0  0  0  0  0  0
   -1.8705    4.5153    0.0337 H   0  0  0  0  0  0  0  0  0  0  0  0
   -2.7029    2.9435   -0.0408 H   0  0  0  0  0  0  0  0  0  0  0  0
   -0.0993    3.5648    1.4298 H   0  0  0  0  0  0  0  0  0  0  0  0
   -1.6744    3.1757    2.1660 H   0  0  0  0  0  0  0  0  0  0  0  0
   -2.4508    3.1643   -2.5622 H   0  0  0  0  0  0  0  0  0  0  0  0
   -1.5733    4.6873   -2.2819 H   0  0  0  0  0  0  0  0  0  0  0  0
   -0.8060    3.3757   -3.2088 H   0  0  0  0  0  0  0  0  0  0  0  0
    7.4777   -4.8100    2.1603 H   0  0  0  0  0  0  0  0  0  0  0  0
    7.4297   -5.9541    3.5230 H   0  0  0  0  0  0  0  0  0  0  0  0
    5.9698   -5.6745    2.5438 H   0  0  0  0  0  0  0  0  0  0  0  0
   -0.8852    3.0681   -1.1323 N   0  3  0  0  0  0  0  0  0  0  0  0
    0.0493    3.4729   -1.0019 H   0  0  0  0  0  0  0  0  0  0  0  0
  1  2  1  0  0  0  0
  1 34  1  0  0  0  0
  1 35  1  0  0  0  0
  1 36  1  0  0  0  0
  2  3  1  0  0  0  0
  2 37  1  0  0  0  0
  2 38  1  0  0  0  0
  3  4  1  0  0  0  0
  3 39  1  0  0  0  0
  3 40  1  0  0  0  0
  4 32  2  0  0  0  0
  4  5  1  0  0  0  0
  5 12  1  0  0  0  0
  5  6  2  0  0  0  0
  6  7  1  0  0  0  0
  6 31  1  0  0  0  0
  7  8  2  0  0  0  0
  7  9  1  0  0  0  0
  9 10  1  0  0  0  0
  9 11  1  0  0  0  0
 11 12  2  0  0  0  0
 11 13  1  0  0  0  0
 13 18  2  0  0  0  0
 13 14  1  0  0  0  0
 14 15  2  0  0  0  0
 14 41  1  0  0  0  0
 15 16  1  0  0  0  0
 15 22  1  0  0  0  0
 16 17  2  0  0  0  0
 16 42  1  0  0  0  0
 17 18  1  0  0  0  0
 17 43  1  0  0  0  0
 18 19  1  0  0  0  0
 19 20  1  0  0  0  0
 20 21  1  0  0  0  0
 20 44  1  0  0  0  0
 20 45  1  0  0  0  0
 21 46  1  0  0  0  0
 21 47  1  0  0  0  0
 21 48  1  0  0  0  0
 22 23  2  0  0  0  0
 22 24  2  0  0  0  0
 22 25  1  0  0  0  0
 25 29  1  0  0  0  0
 25 26  1  0  0  0  0
 26 27  1  0  0  0  0
 26 49  1  0  0  0  0
 26 50  1  0  0  0  0
 27 51  1  0  0  0  0
 27 52  1  0  0  0  0
 27 63  1  0  0  0  0
 28 29  1  0  0  0  0
 28 53  1  0  0  0  0
 28 54  1  0  0  0  0
 28 63  1  0  0  0  0
 29 55  1  0  0  0  0
 29 56  1  0  0  0  0
 30 57  1  0  0  0  0
 30 58  1  0  0  0  0
 30 59  1  0  0  0  0
 30 63  1  0  0  0  0
 31 32  1  0  0  0  0
 31 33  1  0  0  0  0
 33 60  1  0  0  0  0
 33 61  1  0  0  0  0
 33 62  1  0  0  0  0
 63 64  1  0  0  0  0
M  CHG  1  63   1
M  END
$$$$
ZINC03940657
  -OEChem-08230709403D

 66 69  0     0  0  0  0  0  0999 V2000
   -0.8785   -0.9267    3.8215 C   0  0  0  0  0  0  0  0  0  0  0  0
    0.3698   -1.4047    4.3266 O   0  0  0  0  0  0  0  0  0  0  0  0
    1.4984   -0.9187    3.7438 C   0  0  0  0  0  0  0  0  0  0  0  0
    1.4045    0.0001    2.7153 C   0  0  0  0  0  0  0  0  0  0  0  0
    2.5650    0.4920    2.1140 C   0  0  0  0  0  0  0  0  0  0  0  0
    3.8161    0.0632    2.5627 C   0  0  0  0  0  0  0  0  0  0  0  0
    3.9034   -0.8488    3.5940 C   0  0  0  0  0  0  0  0  0  0  0  0
    2.7493   -1.3424    4.1874 C   0  0  0  0  0  0  0  0  0  0  0  0
    2.8400   -2.2412    5.2029 O   0  0  0  0  0  0  0  0  0  0  0  0
    2.9083   -1.7158    6.5300 C   0  0  0  0  0  0  0  0  0  0  0  0
    5.5983   -1.4284    4.2002 Br  0  0  0  0  0  0  0  0  0  0  0  0
    2.4695    1.4690    1.0094 C   0  0  0  0  0  0  0  0  0  0  0  0
    2.9663    2.7852    1.1775 C   0  0  0  0  0  0  0  0  0  0  0  0
    3.5526    3.1739    2.3913 C   0  0  0  0  0  0  0  0  0  0  0  0
    4.0224    4.4445    2.5420 C   0  0  0  0  0  0  0  0  0  0  0  0
    3.9296    5.3684    1.5053 C   0  0  0  0  0  0  0  0  0  0  0  0
    3.3662    5.0264    0.3120 C   0  0  0  0  0  0  0  0  0  0  0  0
    2.8705    3.7228    0.1210 C   0  0  0  0  0  0  0  0  0  0  0  0
    2.2865    3.3566   -1.1048 C   0  0  0  0  0  0  0  0  0  0  0  0
    1.8010    2.0774   -1.2893 C   0  0  0  0  0  0  0  0  0  0  0  0
    1.8939    1.0988   -0.2068 C   0  0  0  0  0  0  0  0  0  0  0  0
    1.3777   -0.2668   -0.3967 C   0  0  0  0  0  0  0  0  0  0  0  0
    2.1060   -1.1366   -0.8326 O   0  0  0  0  0  0  0  0  0  0  0  0
    0.0956   -0.5512   -0.0923 O   0  0  0  0  0  0  0  0  0  0  0  0
   -0.3464   -1.9169   -0.3106 C   0  0  0  0  0  0  0  0  0  0  0  0
    1.1880    1.6978   -2.5788 C   0  0  0  0  0  0  0  0  0  0  0  0
    0.2368    0.9410   -2.6003 O   0  0  0  0  0  0  0  0  0  0  0  0
    1.6832    2.1906   -3.7314 N   0  0  0  0  0  0  0  0  0  0  0  0
    2.8839    3.0401   -3.7350 C   0  0  0  0  0  0  0  0  0  0  0  0
    3.8763    2.4676   -4.7595 C   0  0  0  0  0  0  0  0  0  0  0  0
    2.0957    1.3754   -5.9916 C   0  0  0  0  0  0  0  0  0  0  0  0
    1.0338    1.8981   -5.0183 C   0  0  0  0  0  0  0  0  0  0  0  0
    4.1639    1.9563   -7.1087 C   0  0  0  0  0  0  0  0  0  0  0  0
    3.5843    2.3101   -8.4797 C   0  0  0  0  0  0  0  0  0  0  0  0
    3.4215    3.7265   -8.5770 O   0  0  0  0  0  0  0  0  0  0  0  0
    3.2610    6.1943   -0.9681 Cl  0  0  0  0  0  0  0  0  0  0  0  0
   -0.9291    0.1554    3.9426 H   0  0  0  0  0  0  0  0  0  0  0  0
   -0.9631   -1.1784    2.7643 H   0  0  0  0  0  0  0  0  0  0  0  0
   -1.6957   -1.3925    4.3724 H   0  0  0  0  0  0  0  0  0  0  0  0
    0.4354    0.3328    2.3739 H   0  0  0  0  0  0  0  0  0  0  0  0
    4.7152    0.4458    2.1026 H   0  0  0  0  0  0  0  0  0  0  0  0
    3.7875   -1.0784    6.6237 H   0  0  0  0  0  0  0  0  0  0  0  0
    2.0119   -1.1309    6.7359 H   0  0  0  0  0  0  0  0  0  0  0  0
    2.9776   -2.5375    7.2429 H   0  0  0  0  0  0  0  0  0  0  0  0
    3.6319    2.4677    3.2045 H   0  0  0  0  0  0  0  0  0  0  0  0
    4.4725    4.7384    3.4787 H   0  0  0  0  0  0  0  0  0  0  0  0
    4.3091    6.3694    1.6480 H   0  0  0  0  0  0  0  0  0  0  0  0
    2.2178    4.0786   -1.9049 H   0  0  0  0  0  0  0  0  0  0  0  0
   -0.2321   -2.1718   -1.3642 H   0  0  0  0  0  0  0  0  0  0  0  0
    0.2556   -2.5948    0.2946 H   0  0  0  0  0  0  0  0  0  0  0  0
   -1.3945   -2.0094   -0.0261 H   0  0  0  0  0  0  0  0  0  0  0  0
    2.6114    4.0580   -4.0139 H   0  0  0  0  0  0  0  0  0  0  0  0
    3.3369    3.0379   -2.7436 H   0  0  0  0  0  0  0  0  0  0  0  0
    4.2231    1.4893   -4.4267 H   0  0  0  0  0  0  0  0  0  0  0  0
    4.7274    3.1417   -4.8561 H   0  0  0  0  0  0  0  0  0  0  0  0
    2.4673    0.4123   -5.6417 H   0  0  0  0  0  0  0  0  0  0  0  0
    1.6550    1.2573   -6.9816 H   0  0  0  0  0  0  0  0  0  0  0  0
    0.2632    1.1405   -4.8757 H   0  0  0  0  0  0  0  0  0  0  0  0
    0.5840    2.8076   -5.4165 H   0  0  0  0  0  0  0  0  0  0  0  0
    5.0987    2.4966   -6.9589 H   0  0  0  0  0  0  0  0  0  0  0  0
    4.3522    0.8838   -7.0595 H   0  0  0  0  0  0  0  0  0  0  0  0
    4.2636    1.9680   -9.2606 H   0  0  0  0  0  0  0  0  0  0  0  0
    2.6164    1.8239   -8.6015 H   0  0  0  0  0  0  0  0  0  0  0  0
    3.0574    4.0234   -9.4222 H   0  0  0  0  0  0  0  0  0  0  0  0
    3.1957    2.3612   -6.0684 N   0  3  0  0  0  0  0  0  0  0  0  0
    2.8046    3.2777   -6.3157 H   0  0  0  0  0  0  0  0  0  0  0  0
  1  2  1  0  0  0  0
  1 37  1  0  0  0  0
  1 38  1  0  0  0  0
  1 39  1  0  0  0  0
  2  3  1  0  0  0  0
  3  8  2  0  0  0  0
  3  4  1  0  0  0  0
  4  5  2  0  0  0  0
  4 40  1  0  0  0  0
  5  6  1  0  0  0  0
  5 12  1  0  0  0  0
  6  7  2  0  0  0  0
  6 41  1  0  0  0  0
  7  8  1  0  0  0  0
  7 11  1  0  0  0  0
  8  9  1  0  0  0  0
  9 10  1  0  0  0  0
 10 42  1  0  0  0  0
 10 43  1  0  0  0  0
 10 44  1  0  0  0  0
 12 21  2  0  0  0  0
 12 13  1  0  0  0  0
 13 18  2  0  0  0  0
 13 14  1  0  0  0  0
 14 15  2  0  0  0  0
 14 45  1  0  0  0  0
 15 16  1  0  0  0  0
 15 46  1  0  0  0  0
 16 17  2  0  0  0  0
 16 47  1  0  0  0  0
 17 18  1  0  0  0  0
 17 36  1  0  0  0  0
 18 19  1  0  0  0  0
 19 20  2  0  0  0  0
 19 48  1  0  0  0  0
 20 21  1  0  0  0  0
 20 26  1  0  0  0  0
 21 22  1  0  0  0  0
 22 23  2  0  0  0  0
 22 24  1  0  0  0  0
 24 25  1  0  0  0  0
 25 49  1  0  0  0  0
 25 50  1  0  0  0  0
 25 51  1  0  0  0  0
 26 27  2  0  0  0  0
 26 28  1  0  0  0  0
 28 32  1  0  0  0  0
 28 29  1  0  0  0  0
 29 30  1  0  0  0  0
 29 52  1  0  0  0  0
 29 53  1  0  0  0  0
 30 54  1  0  0  0  0
 30 55  1  0  0  0  0
 30 65  1  0  0  0  0
 31 32  1  0  0  0  0
 31 56  1  0  0  0  0
 31 57  1  0  0  0  0
 31 65  1  0  0  0  0
 32 58  1  0  0  0  0
 32 59  1  0  0  0  0
 33 34  1  0  0  0  0
 33 60  1  0  0  0  0
 33 61  1  0  0  0  0
 33 65  1  0  0  0  0
 34 35  1  0  0  0  0
 34 62  1  0  0  0  0
 34 63  1  0  0  0  0
 35 64  1  0  0  0  0
 65 66  1  0  0  0  0
M  CHG  1  65   1
M  END
$$$$
ZINC03973126
  -OEChem-08230709403D

 46 51  0     1  0  0  0  0  0999 V2000
   -1.2236    2.2988    0.0206 C   0  0  0  0  0  0  0  0  0  0  0  0
   -0.0179    1.4667    0.0101 N   0  0  0  0  0  0  0  0  0  0  0  0
    0.0021   -0.0041    0.0020 C   0  0  0  0  0  0  0  0  0  0  0  0
    1.5006   -0.3565   -0.0339 C   0  0  2  0  0  0  0  0  0  0  0  0
    1.7613   -0.9076   -0.9375 H   0  0  0  0  0  0  0  0  0  0  0  0
    1.8757   -1.1217    1.2408 C   0  0  0  0  0  0  0  0  0  0  0  0
    3.3473   -0.9413    1.5163 C   0  0  0  0  0  0  0  0  0  0  0  0
    4.1942   -1.7604    2.3636 C   0  0  0  0  0  0  0  0  0  0  0  0
    3.9424   -2.9018    3.1307 C   0  0  0  0  0  0  0  0  0  0  0  0
    5.0030   -3.4271    3.8268 C   0  0  0  0  0  0  0  0  0  0  0  0
    6.2670   -2.8621    3.7791 C   0  0  0  0  0  0  0  0  0  0  0  0
    6.5439   -1.7332    3.0277 C   0  0  0  0  0  0  0  0  0  0  0  0
    5.4861   -1.1783    2.3101 C   0  0  0  0  0  0  0  0  0  0  0  0
    5.4080   -0.0927    1.4866 N   0  0  0  0  0  0  0  0  0  0  0  0
    6.1467    0.4970    1.2683 H   0  0  0  0  0  0  0  0  0  0  0  0
    4.1286    0.0387    1.0155 C   0  0  0  0  0  0  0  0  0  0  0  0
    3.6291    1.1123    0.0701 C   0  0  1  0  0  0  0  0  0  0  0  0
    4.0607    0.9707   -0.9207 H   0  0  0  0  0  0  0  0  0  0  0  0
    2.1650    0.9636    0.0095 N   0  0  0  0  0  0  0  0  0  0  0  0
    1.2421    1.9252    0.0005 C   0  0  0  0  0  0  0  0  0  0  0  0
    1.5174    3.1094   -0.0149 O   0  0  0  0  0  0  0  0  0  0  0  0
    3.9889    2.4763    0.6002 C   0  0  0  0  0  0  0  0  0  0  0  0
    3.2608    3.0269    1.6386 C   0  0  0  0  0  0  0  0  0  0  0  0
    3.5873    4.2776    2.1285 C   0  0  0  0  0  0  0  0  0  0  0  0
    4.6462    4.9826    1.5797 C   0  0  0  0  0  0  0  0  0  0  0  0
    5.3796    4.4280    0.5337 C   0  0  0  0  0  0  0  0  0  0  0  0
    5.0497    3.1719    0.0509 C   0  0  0  0  0  0  0  0  0  0  0  0
    6.3583    5.3082    0.1724 O   0  0  0  0  0  0  0  0  0  0  0  0
    5.9616    6.5747    0.7307 C   0  0  0  0  0  0  0  0  0  0  0  0
    5.1655    6.2102    1.8738 O   0  0  0  0  0  0  0  0  0  0  0  0
   -1.5175    2.4996    1.0508 H   0  0  0  0  0  0  0  0  0  0  0  0
   -1.0196    3.2404   -0.4891 H   0  0  0  0  0  0  0  0  0  0  0  0
   -2.0307    1.7755   -0.4921 H   0  0  0  0  0  0  0  0  0  0  0  0
   -0.4614   -0.3975    0.9068 H   0  0  0  0  0  0  0  0  0  0  0  0
   -0.5021   -0.3882   -0.8847 H   0  0  0  0  0  0  0  0  0  0  0  0
    1.2983   -0.7349    2.0805 H   0  0  0  0  0  0  0  0  0  0  0  0
    1.6580   -2.1813    1.1064 H   0  0  0  0  0  0  0  0  0  0  0  0
    2.9603   -3.3490    3.1737 H   0  0  0  0  0  0  0  0  0  0  0  0
    4.8470   -4.3090    4.4304 H   0  0  0  0  0  0  0  0  0  0  0  0
    7.0639   -3.3185    4.3476 H   0  0  0  0  0  0  0  0  0  0  0  0
    7.5338   -1.3023    2.9991 H   0  0  0  0  0  0  0  0  0  0  0  0
    2.4351    2.4788    2.0676 H   0  0  0  0  0  0  0  0  0  0  0  0
    3.0168    4.7052    2.9398 H   0  0  0  0  0  0  0  0  0  0  0  0
    5.6195    2.7375   -0.7572 H   0  0  0  0  0  0  0  0  0  0  0  0
    5.3660    7.1396    0.0136 H   0  0  0  0  0  0  0  0  0  0  0  0
    6.8358    7.1477    1.0398 H   0  0  0  0  0  0  0  0  0  0  0  0
  1  2  1  0  0  0  0
  1 31  1  0  0  0  0
  1 32  1  0  0  0  0
  1 33  1  0  0  0  0
  2 20  1  0  0  0  0
  2  3  1  0  0  0  0
  3  4  1  0  0  0  0
  3 34  1  0  0  0  0
  3 35  1  0  0  0  0
  4  5  1  0  0  0  0
  4 19  1  0  0  0  0
  4  6  1  0  0  0  0
  6  7  1  0  0  0  0
  6 36  1  0  0  0  0
  6 37  1  0  0  0  0
  7 16  2  0  0  0  0
  7  8  1  0  0  0  0
  8 13  2  0  0  0  0
  8  9  1  0  0  0  0
  9 10  2  0  0  0  0
  9 38  1  0  0  0  0
 10 11  1  0  0  0  0
 10 39  1  0  0  0  0
 11 12  2  0  0  0  0
 11 40  1  0  0  0  0
 12 13  1  0  0  0  0
 12 41  1  0  0  0  0
 13 14  1  0  0  0  0
 14 15  1  0  0  0  0
 14 16  1  0  0  0  0
 16 17  1  0  0  0  0
 17 18  1  0  0  0  0
 17 19  1  0  0  0  0
 17 22  1  0  0  0  0
 19 20  1  0  0  0  0
 20 21  2  0  0  0  0
 22 27  2  0  0  0  0
 22 23  1  0  0  0  0
 23 24  2  0  0  0  0
 23 42  1  0  0  0  0
 24 25  1  0  0  0  0
 24 43  1  0  0  0  0
 25 30  1  0  0  0  0
 25 26  2  0  0  0  0
 26 27  1  0  0  0  0
 26 28  1  0  0  0  0
 27 44  1  0  0  0  0
 28 29  1  0  0  0  0
 29 30  1  0  0  0  0
 29 45  1  0  0  0  0
 29 46  1  0  0  0  0
M  END
$$$$
ZINC03977827
  -OEChem-08230709403D

 33 35  0     0  0  0  0  0  0999 V2000
    7.2719    1.4056   -0.0633 C   0  0  0  0  0  0  0  0  0  0  0  0
    5.9865    2.2353   -0.0455 C   0  0  0  0  0  0  0  0  0  0  0  0
    4.7758    1.2998   -0.0385 C   0  0  0  0  0  0  0  0  0  0  0  0
    3.5752    2.0747   -0.0219 O   0  0  0  0  0  0  0  0  0  0  0  0
    2.4019    1.3928   -0.0137 C   0  0  0  0  0  0  0  0  0  0  0  0
    2.4022    0.0064   -0.0216 C   0  0  0  0  0  0  0  0  0  0  0  0
    1.2074   -0.6864   -0.0135 C   0  0  0  0  0  0  0  0  0  0  0  0
    0.0021   -0.0041    0.0023 C   0  0  0  0  0  0  0  0  0  0  0  0
   -0.0166    1.3741    0.0099 C   0  0  0  0  0  0  0  0  0  0  0  0
    1.1846    2.0869    0.0017 C   0  0  0  0  0  0  0  0  0  0  0  0
    1.1719    3.5623    0.0092 C   0  0  0  0  0  0  0  0  0  0  0  0
   -0.0319    4.2084    0.0187 N   0  0  0  0  0  0  0  0  0  0  0  0
   -0.8809    3.6801    0.0172 H   0  0  0  0  0  0  0  0  0  0  0  0
   -0.0794    5.5603    0.0301 C   0  0  0  0  0  0  0  0  0  0  0  0
   -1.1437    6.1532    0.0423 O   0  0  0  0  0  0  0  0  0  0  0  0
    1.1922    6.2870    0.0218 C   0  0  0  0  0  0  0  0  0  0  0  0
    2.3777    5.5386    0.0070 C   0  0  0  0  0  0  0  0  0  0  0  0
    2.3174    4.2028    0.0010 N   0  0  0  0  0  0  0  0  0  0  0  0
    3.3962    6.4459    0.0017 N   0  0  0  0  0  0  0  0  0  0  0  0
    0.8682    8.3436    0.0345 H   0  0  0  0  0  0  0  0  0  0  0  0
    2.8025    7.7170    0.0146 N   0  0  0  0  0  0  0  0  0  0  0  0
    1.5215    7.5866    0.0252 N   0  0  0  0  0  0  0  0  0  0  0  0
    8.1344    2.0721   -0.0683 H   0  0  0  0  0  0  0  0  0  0  0  0
    7.3076    0.7718    0.8227 H   0  0  0  0  0  0  0  0  0  0  0  0
    7.2895    0.7820   -0.9571 H   0  0  0  0  0  0  0  0  0  0  0  0
    5.9508    2.8691   -0.9315 H   0  0  0  0  0  0  0  0  0  0  0  0
    5.9689    2.8589    0.8483 H   0  0  0  0  0  0  0  0  0  0  0  0
    4.8115    0.6660    0.8476 H   0  0  0  0  0  0  0  0  0  0  0  0
    4.7933    0.6762   -0.9323 H   0  0  0  0  0  0  0  0  0  0  0  0
    3.3380   -0.5326   -0.0339 H   0  0  0  0  0  0  0  0  0  0  0  0
    1.2129   -1.7663   -0.0197 H   0  0  0  0  0  0  0  0  0  0  0  0
   -0.9272   -0.5544    0.0083 H   0  0  0  0  0  0  0  0  0  0  0  0
   -0.9587    1.9021    0.0176 H   0  0  0  0  0  0  0  0  0  0  0  0
  1  2  1  0  0  0  0
  1 23  1  0  0  0  0
  1 24  1  0  0  0  0
  1 25  1  0  0  0  0
  2  3  1  0  0  0  0
  2 26  1  0  0  0  0
  2 27  1  0  0  0  0
  3  4  1  0  0  0  0
  3 28  1  0  0  0  0
  3 29  1  0  0  0  0
  4  5  1  0  0  0  0
  5 10  2  0  0  0  0
  5  6  1  0  0  0  0
  6  7  2  0  0  0  0
  6 30  1  0  0  0  0
  7  8  1  0  0  0  0
  7 31  1  0  0  0  0
  8  9  2  0  0  0  0
  8 32  1  0  0  0  0
  9 10  1  0  0  0  0
  9 33  1  0  0  0  0
 10 11  1  0  0  0  0
 11 18  2  0  0  0  0
 11 12  1  0  0  0  0
 12 13  1  0  0  0  0
 12 14  1  0  0  0  0
 14 15  2  0  0  0  0
 14 16  1  0  0  0  0
 16 17  2  0  0  0  0
 16 22  1  0  0  0  0
 17 18  1  0  0  0  0
 17 19  1  0  0  0  0
 19 21  2  0  0  0  0
 20 22  1  0  0  0  0
 21 22  1  0  0  0  0
M  END
$$$$
ZINC03977827
  -OEChem-08230709403D

 33 35  0     0  0  0  0  0  0999 V2000
    7.2719    1.4056   -0.0633 C   0  0  0  0  0  0  0  0  0  0  0  0
    5.9865    2.2353   -0.0455 C   0  0  0  0  0  0  0  0  0  0  0  0
    4.7758    1.2998   -0.0385 C   0  0  0  0  0  0  0  0  0  0  0  0
    3.5752    2.0747   -0.0219 O   0  0  0  0  0  0  0  0  0  0  0  0
    2.4019    1.3928   -0.0137 C   0  0  0  0  0  0  0  0  0  0  0  0
    2.4022    0.0064   -0.0216 C   0  0  0  0  0  0  0  0  0  0  0  0
    1.2074   -0.6864   -0.0135 C   0  0  0  0  0  0  0  0  0  0  0  0
    0.0021   -0.0041    0.0023 C   0  0  0  0  0  0  0  0  0  0  0  0
   -0.0166    1.3741    0.0099 C   0  0  0  0  0  0  0  0  0  0  0  0
    1.1846    2.0869    0.0017 C   0  0  0  0  0  0  0  0  0  0  0  0
    1.1719    3.5623    0.0092 C   0  0  0  0  0  0  0  0  0  0  0  0
   -0.0319    4.2084    0.0187 N   0  0  0  0  0  0  0  0  0  0  0  0
   -0.8809    3.6801    0.0172 H   0  0  0  0  0  0  0  0  0  0  0  0
   -0.0794    5.5603    0.0301 C   0  0  0  0  0  0  0  0  0  0  0  0
   -1.1437    6.1532    0.0423 O   0  0  0  0  0  0  0  0  0  0  0  0
    1.1922    6.2870    0.0218 C   0  0  0  0  0  0  0  0  0  0  0  0
    2.3777    5.5386    0.0070 C   0  0  0  0  0  0  0  0  0  0  0  0
    2.3174    4.2028    0.0010 N   0  0  0  0  0  0  0  0  0  0  0  0
    3.3962    6.4459    0.0017 N   0  0  0  0  0  0  0  0  0  0  0  0
    4.3756    6.2443   -0.0093 H   0  0  0  0  0  0  0  0  0  0  0  0
    2.8025    7.7170    0.0146 N   0  0  0  0  0  0  0  0  0  0  0  0
    1.5215    7.5866    0.0252 N   0  0  0  0  0  0  0  0  0  0  0  0
    8.1344    2.0721   -0.0683 H   0  0  0  0  0  0  0  0  0  0  0  0
    7.3076    0.7718    0.8227 H   0  0  0  0  0  0  0  0  0  0  0  0
    7.2895    0.7820   -0.9571 H   0  0  0  0  0  0  0  0  0  0  0  0
    5.9508    2.8691   -0.9315 H   0  0  0  0  0  0  0  0  0  0  0  0
    5.9689    2.8589    0.8483 H   0  0  0  0  0  0  0  0  0  0  0  0
    4.8115    0.6660    0.8476 H   0  0  0  0  0  0  0  0  0  0  0  0
    4.7933    0.6762   -0.9323 H   0  0  0  0  0  0  0  0  0  0  0  0
    3.3380   -0.5326   -0.0339 H   0  0  0  0  0  0  0  0  0  0  0  0
    1.2129   -1.7663   -0.0197 H   0  0  0  0  0  0  0  0  0  0  0  0
   -0.9272   -0.5544    0.0083 H   0  0  0  0  0  0  0  0  0  0  0  0
   -0.9587    1.9021    0.0176 H   0  0  0  0  0  0  0  0  0  0  0  0
  1  2  1  0  0  0  0
  1 23  1  0  0  0  0
  1 24  1  0  0  0  0
  1 25  1  0  0  0  0
  2  3  1  0  0  0  0
  2 26  1  0  0  0  0
  2 27  1  0  0  0  0
  3  4  1  0  0  0  0
  3 28  1  0  0  0  0
  3 29  1  0  0  0  0
  4  5  1  0  0  0  0
  5 10  2  0  0  0  0
  5  6  1  0  0  0  0
  6  7  2  0  0  0  0
  6 30  1  0  0  0  0
  7  8  1  0  0  0  0
  7 31  1  0  0  0  0
  8  9  2  0  0  0  0
  8 32  1  0  0  0  0
  9 10  1  0  0  0  0
  9 33  1  0  0  0  0
 10 11  1  0  0  0  0
 11 18  2  0  0  0  0
 11 12  1  0  0  0  0
 12 13  1  0  0  0  0
 12 14  1  0  0  0  0
 14 15  2  0  0  0  0
 14 16  1  0  0  0  0
 16 17  2  0  0  0  0
 16 22  1  0  0  0  0
 17 18  1  0  0  0  0
 17 19  1  0  0  0  0
 19 20  1  0  0  0  0
 19 21  1  0  0  0  0
 21 22  2  0  0  0  0
M  END
$$$$
ZINC03977827
  -OEChem-08230709403D

 33 35  0     0  0  0  0  0  0999 V2000
    7.2719    1.4056   -0.0633 C   0  0  0  0  0  0  0  0  0  0  0  0
    5.9865    2.2353   -0.0455 C   0  0  0  0  0  0  0  0  0  0  0  0
    4.7758    1.2998   -0.0385 C   0  0  0  0  0  0  0  0  0  0  0  0
    3.5752    2.0747   -0.0219 O   0  0  0  0  0  0  0  0  0  0  0  0
    2.4019    1.3928   -0.0137 C   0  0  0  0  0  0  0  0  0  0  0  0
    2.4022    0.0064   -0.0216 C   0  0  0  0  0  0  0  0  0  0  0  0
    1.2074   -0.6864   -0.0135 C   0  0  0  0  0  0  0  0  0  0  0  0
    0.0021   -0.0041    0.0023 C   0  0  0  0  0  0  0  0  0  0  0  0
   -0.0166    1.3741    0.0099 C   0  0  0  0  0  0  0  0  0  0  0  0
    1.1846    2.0869    0.0017 C   0  0  0  0  0  0  0  0  0  0  0  0
    1.1719    3.5623    0.0092 C   0  0  0  0  0  0  0  0  0  0  0  0
   -0.0319    4.2084    0.0187 N   0  0  0  0  0  0  0  0  0  0  0  0
   -0.8809    3.6801    0.0172 H   0  0  0  0  0  0  0  0  0  0  0  0
   -0.0794    5.5603    0.0301 C   0  0  0  0  0  0  0  0  0  0  0  0
   -1.1437    6.1532    0.0423 O   0  0  0  0  0  0  0  0  0  0  0  0
    1.1922    6.2870    0.0218 C   0  0  0  0  0  0  0  0  0  0  0  0
    2.3777    5.5386    0.0070 C   0  0  0  0  0  0  0  0  0  0  0  0
    2.3174    4.2028    0.0010 N   0  0  0  0  0  0  0  0  0  0  0  0
    3.3962    6.4459    0.0017 N   0  0  0  0  0  0  0  0  0  0  0  0
    0.8682    8.3436    0.0345 H   0  0  0  0  0  0  0  0  0  0  0  0
    2.8025    7.7170    0.0146 N   0  0  0  0  0  0  0  0  0  0  0  0
    1.5215    7.5866    0.0252 N   0  0  0  0  0  0  0  0  0  0  0  0
    8.1344    2.0721   -0.0683 H   0  0  0  0  0  0  0  0  0  0  0  0
    7.3076    0.7718    0.8227 H   0  0  0  0  0  0  0  0  0  0  0  0
    7.2895    0.7820   -0.9571 H   0  0  0  0  0  0  0  0  0  0  0  0
    5.9508    2.8691   -0.9315 H   0  0  0  0  0  0  0  0  0  0  0  0
    5.9689    2.8589    0.8483 H   0  0  0  0  0  0  0  0  0  0  0  0
    4.8115    0.6660    0.8476 H   0  0  0  0  0  0  0  0  0  0  0  0
    4.7933    0.6762   -0.9323 H   0  0  0  0  0  0  0  0  0  0  0  0
    3.3380   -0.5326   -0.0339 H   0  0  0  0  0  0  0  0  0  0  0  0
    1.2129   -1.7663   -0.0197 H   0  0  0  0  0  0  0  0  0  0  0  0
   -0.9272   -0.5544    0.0083 H   0  0  0  0  0  0  0  0  0  0  0  0
   -0.9587    1.9021    0.0176 H   0  0  0  0  0  0  0  0  0  0  0  0
  1  2  1  0  0  0  0
  1 23  1  0  0  0  0
  1 24  1  0  0  0  0
  1 25  1  0  0  0  0
  2  3  1  0  0  0  0
  2 26  1  0  0  0  0
  2 27  1  0  0  0  0
  3  4  1  0  0  0  0
  3 28  1  0  0  0  0
  3 29  1  0  0  0  0
  4  5  1  0  0  0  0
  5 10  2  0  0  0  0
  5  6  1  0  0  0  0
  6  7  2  0  0  0  0
  6 30  1  0  0  0  0
  7  8  1  0  0  0  0
  7 31  1  0  0  0  0
  8  9  2  0  0  0  0
  8 32  1  0  0  0  0
  9 10  1  0  0  0  0
  9 33  1  0  0  0  0
 10 11  1  0  0  0  0
 11 18  2  0  0  0  0
 11 12  1  0  0  0  0
 12 13  1  0  0  0  0
 12 14  1  0  0  0  0
 14 15  2  0  0  0  0
 14 16  1  0  0  0  0
 16 17  2  0  0  0  0
 16 22  1  0  0  0  0
 17 18  1  0  0  0  0
 17 19  1  0  0  0  0
 19 21  2  0  0  0  0
 20 22  1  0  0  0  0
 21 22  1  0  0  0  0
M  END
$$$$
ZINC03998803
  -OEChem-08230709403D

 50 54  0     1  0  0  0  0  0999 V2000
    2.2719   -3.9420   -7.2837 C   0  0  0  0  0  0  0  0  0  0  0  0
    1.6512   -4.2614   -5.9222 C   0  0  0  0  0  0  0  0  0  0  0  0
    2.5349   -3.6892   -4.8120 C   0  0  0  0  0  0  0  0  0  0  0  0
    1.9143   -4.0087   -3.4505 C   0  0  0  0  0  0  0  0  0  0  0  0
    2.7604   -3.4608   -2.3875 N   0  0  0  0  0  0  0  0  0  0  0  0
    3.7932   -4.1502   -1.7974 C   0  0  0  0  0  0  0  0  0  0  0  0
    4.1696   -5.2798   -2.0255 O   0  0  0  0  0  0  0  0  0  0  0  0
    4.3702   -3.1819   -0.7849 C   0  0  2  0  0  0  0  0  0  0  0  0
    5.4110   -2.9427   -1.0034 H   0  0  0  0  0  0  0  0  0  0  0  0
    4.2076   -3.7559    0.6276 C   0  0  0  0  0  0  0  0  0  0  0  0
    4.2025   -2.6271    1.6278 C   0  0  0  0  0  0  0  0  0  0  0  0
    4.4558   -2.7113    3.0544 C   0  0  0  0  0  0  0  0  0  0  0  0
    4.7730   -3.7817    3.8960 C   0  0  0  0  0  0  0  0  0  0  0  0
    4.9504   -3.4924    5.2266 C   0  0  0  0  0  0  0  0  0  0  0  0
    4.8232   -2.2055    5.7232 C   0  0  0  0  0  0  0  0  0  0  0  0
    4.5094   -1.1283    4.9127 C   0  0  0  0  0  0  0  0  0  0  0  0
    4.3242   -1.3920    3.5569 C   0  0  0  0  0  0  0  0  0  0  0  0
    4.0140   -0.5848    2.5009 N   0  0  0  0  0  0  0  0  0  0  0  0
    3.8636    0.3720    2.5546 H   0  0  0  0  0  0  0  0  0  0  0  0
    3.9473   -1.3302    1.3542 C   0  0  0  0  0  0  0  0  0  0  0  0
    3.6375   -0.8102   -0.0357 C   0  0  1  0  0  0  0  0  0  0  0  0
    4.4536   -0.1804   -0.3901 H   0  0  0  0  0  0  0  0  0  0  0  0
    3.4999   -1.9898   -0.8986 N   0  0  0  0  0  0  0  0  0  0  0  0
    2.6257   -2.2279   -1.8781 C   0  0  0  0  0  0  0  0  0  0  0  0
    1.8031   -1.4207   -2.2641 O   0  0  0  0  0  0  0  0  0  0  0  0
    2.3499   -0.0274   -0.0202 C   0  0  0  0  0  0  0  0  0  0  0  0
    2.3711    1.3591   -0.0129 C   0  0  0  0  0  0  0  0  0  0  0  0
    1.1622    2.0375    0.0019 C   0  0  0  0  0  0  0  0  0  0  0  0
   -0.0158    1.3143    0.0093 C   0  0  0  0  0  0  0  0  0  0  0  0
    0.0021   -0.0041    0.0020 N   0  0  0  0  0  0  0  0  0  0  0  0
    1.1331   -0.6822   -0.0125 C   0  0  0  0  0  0  0  0  0  0  0  0
    2.3506   -2.8613   -7.4026 H   0  0  0  0  0  0  0  0  0  0  0  0
    3.2649   -4.3874   -7.3439 H   0  0  0  0  0  0  0  0  0  0  0  0
    1.6423   -4.3496   -8.0747 H   0  0  0  0  0  0  0  0  0  0  0  0
    1.5725   -5.3420   -5.8034 H   0  0  0  0  0  0  0  0  0  0  0  0
    0.6582   -3.8160   -5.8621 H   0  0  0  0  0  0  0  0  0  0  0  0
    2.6137   -2.6086   -4.9309 H   0  0  0  0  0  0  0  0  0  0  0  0
    3.5279   -4.1347   -4.8721 H   0  0  0  0  0  0  0  0  0  0  0  0
    1.8356   -5.0893   -3.3317 H   0  0  0  0  0  0  0  0  0  0  0  0
    0.9213   -3.5632   -3.3904 H   0  0  0  0  0  0  0  0  0  0  0  0
    5.0365   -4.4298    0.8441 H   0  0  0  0  0  0  0  0  0  0  0  0
    3.2671   -4.3031    0.6919 H   0  0  0  0  0  0  0  0  0  0  0  0
    4.8741   -4.7882    3.5175 H   0  0  0  0  0  0  0  0  0  0  0  0
    5.1966   -4.2937    5.9076 H   0  0  0  0  0  0  0  0  0  0  0  0
    4.9739   -2.0369    6.7792 H   0  0  0  0  0  0  0  0  0  0  0  0
    4.4132   -0.1295    5.3123 H   0  0  0  0  0  0  0  0  0  0  0  0
    3.3072    1.8978   -0.0190 H   0  0  0  0  0  0  0  0  0  0  0  0
    1.1411    3.1172    0.0076 H   0  0  0  0  0  0  0  0  0  0  0  0
   -0.9618    1.8353    0.0166 H   0  0  0  0  0  0  0  0  0  0  0  0
    1.1080   -1.7619   -0.0180 H   0  0  0  0  0  0  0  0  0  0  0  0
  1  2  1  0  0  0  0
  1 32  1  0  0  0  0
  1 33  1  0  0  0  0
  1 34  1  0  0  0  0
  2  3  1  0  0  0  0
  2 35  1  0  0  0  0
  2 36  1  0  0  0  0
  3  4  1  0  0  0  0
  3 37  1  0  0  0  0
  3 38  1  0  0  0  0
  4  5  1  0  0  0  0
  4 39  1  0  0  0  0
  4 40  1  0  0  0  0
  5 24  1  0  0  0  0
  5  6  1  0  0  0  0
  6  7  2  0  0  0  0
  6  8  1  0  0  0  0
  8  9  1  0  0  0  0
  8 23  1  0  0  0  0
  8 10  1  0  0  0  0
 10 11  1  0  0  0  0
 10 41  1  0  0  0  0
 10 42  1  0  0  0  0
 11 20  2  0  0  0  0
 11 12  1  0  0  0  0
 12 17  2  0  0  0  0
 12 13  1  0  0  0  0
 13 14  2  0  0  0  0
 13 43  1  0  0  0  0
 14 15  1  0  0  0  0
 14 44  1  0  0  0  0
 15 16  2  0  0  0  0
 15 45  1  0  0  0  0
 16 17  1  0  0  0  0
 16 46  1  0  0  0  0
 17 18  1  0  0  0  0
 18 19  1  0  0  0  0
 18 20  1  0  0  0  0
 20 21  1  0  0  0  0
 21 22  1  0  0  0  0
 21 23  1  0  0  0  0
 21 26  1  0  0  0  0
 23 24  1  0  0  0  0
 24 25  2  0  0  0  0
 26 31  2  0  0  0  0
 26 27  1  0  0  0  0
 27 28  2  0  0  0  0
 27 47  1  0  0  0  0
 28 29  1  0  0  0  0
 28 48  1  0  0  0  0
 29 30  2  0  0  0  0
 29 49  1  0  0  0  0
 30 31  1  0  0  0  0
 31 50  1  0  0  0  0
M  END
$$$$
ZINC04199919
  -OEChem-08230709403D

 63 67  0     0  0  0  0  0  0999 V2000
   -7.2500    4.8413   -1.3787 C   0  0  0  0  0  0  0  0  0  0  0  0
   -6.7822    3.3846   -1.3893 C   0  0  0  0  0  0  0  0  0  0  0  0
   -6.6192    2.8908    0.0496 C   0  0  0  0  0  0  0  0  0  0  0  0
   -6.1584    1.4560    0.0391 C   0  0  0  0  0  0  0  0  0  0  0  0
   -4.8176    1.0247    0.0301 C   0  0  0  0  0  0  0  0  0  0  0  0
   -4.8391   -0.3759    0.0222 C   0  0  0  0  0  0  0  0  0  0  0  0
   -3.6107   -1.0764    0.0122 C   0  0  0  0  0  0  0  0  0  0  0  0
   -3.5871   -2.2950    0.0055 O   0  0  0  0  0  0  0  0  0  0  0  0
   -2.4636   -0.3618    0.0063 N   0  0  0  0  0  0  0  0  0  0  0  0
   -1.5827   -0.8348   -0.0077 H   0  0  0  0  0  0  0  0  0  0  0  0
   -2.5020    1.0062    0.0194 C   0  0  0  0  0  0  0  0  0  0  0  0
   -3.6331    1.6689    0.0284 N   0  0  0  0  0  0  0  0  0  0  0  0
   -1.2314    1.7583    0.0174 C   0  0  0  0  0  0  0  0  0  0  0  0
   -0.0126    1.0758    0.0080 C   0  0  0  0  0  0  0  0  0  0  0  0
    1.1712    1.7816    0.0004 C   0  0  0  0  0  0  0  0  0  0  0  0
    1.1593    3.1659    0.0088 C   0  0  0  0  0  0  0  0  0  0  0  0
   -0.0426    3.8571    0.0256 C   0  0  0  0  0  0  0  0  0  0  0  0
   -1.2433    3.1585    0.0307 C   0  0  0  0  0  0  0  0  0  0  0  0
   -2.4326    3.8161    0.0426 O   0  0  0  0  0  0  0  0  0  0  0  0
   -2.4023    5.1938    0.4310 C   0  0  0  0  0  0  0  0  0  0  0  0
   -1.2492    5.8778   -0.3159 C   0  0  0  0  0  0  0  0  0  0  0  0
   -0.0297    5.2183    0.0418 O   0  0  0  0  0  0  0  0  0  0  0  0
    2.7069    0.9179   -0.0193 S   0  0  0  0  0  0  0  0  0  0  0  0
    3.6766    1.8013    0.5272 O   0  0  0  0  0  0  0  0  0  0  0  0
    2.4557   -0.3697    0.5268 O   0  0  0  0  0  0  0  0  0  0  0  0
    3.1183    0.6868   -1.6066 N   0  0  0  0  0  0  0  0  0  0  0  0
    2.6922   -0.5217   -2.3286 C   0  0  0  0  0  0  0  0  0  0  0  0
    2.0218   -0.0874   -3.6417 C   0  0  0  0  0  0  0  0  0  0  0  0
    3.2106    2.0264   -3.6414 C   0  0  0  0  0  0  0  0  0  0  0  0
    3.9246    1.6817   -2.3300 C   0  0  0  0  0  0  0  0  0  0  0  0
    2.4079    1.0869   -5.7236 C   0  0  0  0  0  0  0  0  0  0  0  0
   -6.1529   -0.7544    0.0265 N   0  0  0  0  0  0  0  0  0  0  0  0
   -6.9361    0.4073    0.0370 N   0  0  0  0  0  0  0  0  0  0  0  0
   -6.6534   -2.1313    0.0211 C   0  0  0  0  0  0  0  0  0  0  0  0
   -6.5112    5.4564   -0.8650 H   0  0  0  0  0  0  0  0  0  0  0  0
   -7.3661    5.1931   -2.4039 H   0  0  0  0  0  0  0  0  0  0  0  0
   -8.2059    4.9121   -0.8598 H   0  0  0  0  0  0  0  0  0  0  0  0
   -5.8263    3.3137   -1.9083 H   0  0  0  0  0  0  0  0  0  0  0  0
   -7.5210    2.7694   -1.9031 H   0  0  0  0  0  0  0  0  0  0  0  0
   -7.5751    2.9616    0.5685 H   0  0  0  0  0  0  0  0  0  0  0  0
   -5.8804    3.5059    0.5633 H   0  0  0  0  0  0  0  0  0  0  0  0
    0.0021   -0.0041    0.0020 H   0  0  0  0  0  0  0  0  0  0  0  0
    2.0918    3.7107    0.0025 H   0  0  0  0  0  0  0  0  0  0  0  0
   -3.3460    5.6711    0.1667 H   0  0  0  0  0  0  0  0  0  0  0  0
   -2.2408    5.2692    1.5063 H   0  0  0  0  0  0  0  0  0  0  0  0
   -1.4089    5.7977   -1.3911 H   0  0  0  0  0  0  0  0  0  0  0  0
   -1.1974    6.9282   -0.0293 H   0  0  0  0  0  0  0  0  0  0  0  0
    3.5605   -1.1438   -2.5456 H   0  0  0  0  0  0  0  0  0  0  0  0
    1.9810   -1.0801   -1.7200 H   0  0  0  0  0  0  0  0  0  0  0  0
    1.0996    0.4506   -3.4219 H   0  0  0  0  0  0  0  0  0  0  0  0
    1.7947   -0.9685   -4.2418 H   0  0  0  0  0  0  0  0  0  0  0  0
    2.2719    2.5349   -3.4216 H   0  0  0  0  0  0  0  0  0  0  0  0
    3.8458    2.6784   -4.2409 H   0  0  0  0  0  0  0  0  0  0  0  0
    4.0285    2.5806   -1.7224 H   0  0  0  0  0  0  0  0  0  0  0  0
    4.9103    1.2685   -2.5441 H   0  0  0  0  0  0  0  0  0  0  0  0
    3.1381    1.6746   -6.2800 H   0  0  0  0  0  0  0  0  0  0  0  0
    2.2132    0.1541   -6.2527 H   0  0  0  0  0  0  0  0  0  0  0  0
    1.4808    1.6526   -5.6312 H   0  0  0  0  0  0  0  0  0  0  0  0
   -6.7724   -2.4786    1.0474 H   0  0  0  0  0  0  0  0  0  0  0  0
   -7.6164   -2.1658   -0.4882 H   0  0  0  0  0  0  0  0  0  0  0  0
   -5.9435   -2.7738   -0.4999 H   0  0  0  0  0  0  0  0  0  0  0  0
    2.9620    0.7751   -4.3898 N   0  3  0  0  0  0  0  0  0  0  0  0
    3.8512    0.2751   -4.5068 H   0  0  0  0  0  0  0  0  0  0  0  0
  1  2  1  0  0  0  0
  1 35  1  0  0  0  0
  1 36  1  0  0  0  0
  1 37  1  0  0  0  0
  2  3  1  0  0  0  0
  2 38  1  0  0  0  0
  2 39  1  0  0  0  0
  3  4  1  0  0  0  0
  3 40  1  0  0  0  0
  3 41  1  0  0  0  0
  4 33  2  0  0  0  0
  4  5  1  0  0  0  0
  5 12  1  0  0  0  0
  5  6  2  0  0  0  0
  6  7  1  0  0  0  0
  6 32  1  0  0  0  0
  7  8  2  0  0  0  0
  7  9  1  0  0  0  0
  9 10  1  0  0  0  0
  9 11  1  0  0  0  0
 11 12  2  0  0  0  0
 11 13  1  0  0  0  0
 13 18  2  0  0  0  0
 13 14  1  0  0  0  0
 14 15  2  0  0  0  0
 14 42  1  0  0  0  0
 15 16  1  0  0  0  0
 15 23  1  0  0  0  0
 16 17  2  0  0  0  0
 16 43  1  0  0  0  0
 17 22  1  0  0  0  0
 17 18  1  0  0  0  0
 18 19  1  0  0  0  0
 19 20  1  0  0  0  0
 20 21  1  0  0  0  0
 20 44  1  0  0  0  0
 20 45  1  0  0  0  0
 21 22  1  0  0  0  0
 21 46  1  0  0  0  0
 21 47  1  0  0  0  0
 23 24  2  0  0  0  0
 23 25  2  0  0  0  0
 23 26  1  0  0  0  0
 26 30  1  0  0  0  0
 26 27  1  0  0  0  0
 27 28  1  0  0  0  0
 27 48  1  0  0  0  0
 27 49  1  0  0  0  0
 28 50  1  0  0  0  0
 28 51  1  0  0  0  0
 28 62  1  0  0  0  0
 29 30  1  0  0  0  0
 29 52  1  0  0  0  0
 29 53  1  0  0  0  0
 29 62  1  0  0  0  0
 30 54  1  0  0  0  0
 30 55  1  0  0  0  0
 31 56  1  0  0  0  0
 31 57  1  0  0  0  0
 31 58  1  0  0  0  0
 31 62  1  0  0  0  0
 32 33  1  0  0  0  0
 32 34  1  0  0  0  0
 34 59  1  0  0  0  0
 34 60  1  0  0  0  0
 34 61  1  0  0  0  0
 62 63  1  0  0  0  0
M  CHG  1  62   1
M  END
$$$$
ZINC04199919
  -OEChem-08230709403D

 63 67  0     0  0  0  0  0  0999 V2000
   -7.2567    4.8409   -1.3567 C   0  0  0  0  0  0  0  0  0  0  0  0
   -6.7889    3.3842   -1.3693 C   0  0  0  0  0  0  0  0  0  0  0  0
   -6.6191    2.8906    0.0689 C   0  0  0  0  0  0  0  0  0  0  0  0
   -6.1583    1.4558    0.0564 C   0  0  0  0  0  0  0  0  0  0  0  0
   -4.8175    1.0246    0.0411 C   0  0  0  0  0  0  0  0  0  0  0  0
   -4.8390   -0.3760    0.0335 C   0  0  0  0  0  0  0  0  0  0  0  0
   -3.6107   -1.0764    0.0122 C   0  0  0  0  0  0  0  0  0  0  0  0
   -3.5871   -2.2950    0.0055 O   0  0  0  0  0  0  0  0  0  0  0  0
   -2.4636   -0.3618    0.0062 N   0  0  0  0  0  0  0  0  0  0  0  0
   -3.6171    2.6687    0.0391 H   0  0  0  0  0  0  0  0  0  0  0  0
   -2.5020    1.0062    0.0193 C   0  0  0  0  0  0  0  0  0  0  0  0
   -3.6331    1.6688    0.0336 N   0  0  0  0  0  0  0  0  0  0  0  0
   -1.2314    1.7583    0.0173 C   0  0  0  0  0  0  0  0  0  0  0  0
   -0.0126    1.0758    0.0078 C   0  0  0  0  0  0  0  0  0  0  0  0
    1.1712    1.7816    0.0002 C   0  0  0  0  0  0  0  0  0  0  0  0
    1.1593    3.1659    0.0086 C   0  0  0  0  0  0  0  0  0  0  0  0
   -0.0426    3.8571    0.0254 C   0  0  0  0  0  0  0  0  0  0  0  0
   -1.2433    3.1585    0.0306 C   0  0  0  0  0  0  0  0  0  0  0  0
   -2.4326    3.8161    0.0425 O   0  0  0  0  0  0  0  0  0  0  0  0
   -2.4023    5.1938    0.4309 C   0  0  0  0  0  0  0  0  0  0  0  0
   -1.2492    5.8778   -0.3160 C   0  0  0  0  0  0  0  0  0  0  0  0
   -0.0297    5.2183    0.0416 O   0  0  0  0  0  0  0  0  0  0  0  0
    2.7069    0.9179   -0.0196 S   0  0  0  0  0  0  0  0  0  0  0  0
    3.6766    1.8013    0.5269 O   0  0  0  0  0  0  0  0  0  0  0  0
    2.4557   -0.3697    0.5265 O   0  0  0  0  0  0  0  0  0  0  0  0
    3.1182    0.6868   -1.6069 N   0  0  0  0  0  0  0  0  0  0  0  0
    2.6921   -0.5217   -2.3289 C   0  0  0  0  0  0  0  0  0  0  0  0
    2.0217   -0.0874   -3.6420 C   0  0  0  0  0  0  0  0  0  0  0  0
    3.2105    2.0264   -3.6417 C   0  0  0  0  0  0  0  0  0  0  0  0
    3.9245    1.6817   -2.3303 C   0  0  0  0  0  0  0  0  0  0  0  0
    2.4077    1.0869   -5.7239 C   0  0  0  0  0  0  0  0  0  0  0  0
   -6.1527   -0.7546    0.0440 N   0  0  0  0  0  0  0  0  0  0  0  0
   -6.9359    0.4071    0.0581 N   0  0  0  0  0  0  0  0  0  0  0  0
   -6.6532   -2.1315    0.0412 C   0  0  0  0  0  0  0  0  0  0  0  0
   -6.5155    5.4561   -0.8466 H   0  0  0  0  0  0  0  0  0  0  0  0
   -7.3777    5.1926   -2.3814 H   0  0  0  0  0  0  0  0  0  0  0  0
   -8.2102    4.9117   -0.8333 H   0  0  0  0  0  0  0  0  0  0  0  0
   -5.8355    3.3133   -1.8928 H   0  0  0  0  0  0  0  0  0  0  0  0
   -7.5301    2.7689   -1.8795 H   0  0  0  0  0  0  0  0  0  0  0  0
   -7.5725    2.9614    0.5923 H   0  0  0  0  0  0  0  0  0  0  0  0
   -5.8779    3.5058    0.5790 H   0  0  0  0  0  0  0  0  0  0  0  0
    0.0021   -0.0041    0.0018 H   0  0  0  0  0  0  0  0  0  0  0  0
    2.0918    3.7107    0.0022 H   0  0  0  0  0  0  0  0  0  0  0  0
   -3.3460    5.6711    0.1666 H   0  0  0  0  0  0  0  0  0  0  0  0
   -2.2407    5.2692    1.5062 H   0  0  0  0  0  0  0  0  0  0  0  0
   -1.4090    5.7977   -1.3912 H   0  0  0  0  0  0  0  0  0  0  0  0
   -1.1974    6.9282   -0.0294 H   0  0  0  0  0  0  0  0  0  0  0  0
    3.5604   -1.1438   -2.5459 H   0  0  0  0  0  0  0  0  0  0  0  0
    1.9809   -1.0801   -1.7203 H   0  0  0  0  0  0  0  0  0  0  0  0
    1.0995    0.4506   -3.4221 H   0  0  0  0  0  0  0  0  0  0  0  0
    1.7945   -0.9685   -4.2421 H   0  0  0  0  0  0  0  0  0  0  0  0
    2.2718    2.5349   -3.4219 H   0  0  0  0  0  0  0  0  0  0  0  0
    3.8456    2.6784   -4.2412 H   0  0  0  0  0  0  0  0  0  0  0  0
    4.0284    2.5806   -1.7227 H   0  0  0  0  0  0  0  0  0  0  0  0
    4.9102    1.2685   -2.5445 H   0  0  0  0  0  0  0  0  0  0  0  0
    3.1379    1.6746   -6.2803 H   0  0  0  0  0  0  0  0  0  0  0  0
    2.2130    0.1541   -6.2530 H   0  0  0  0  0  0  0  0  0  0  0  0
    1.4806    1.6526   -5.6314 H   0  0  0  0  0  0  0  0  0  0  0  0
   -6.7673   -2.4787    1.0681 H   0  0  0  0  0  0  0  0  0  0  0  0
   -7.6186   -2.1661   -0.4635 H   0  0  0  0  0  0  0  0  0  0  0  0
   -5.9457   -2.7740   -0.4831 H   0  0  0  0  0  0  0  0  0  0  0  0
    2.9618    0.7751   -4.3901 N   0  3  0  0  0  0  0  0  0  0  0  0
    3.8510    0.2751   -4.5071 H   0  0  0  0  0  0  0  0  0  0  0  0
  1  2  1  0  0  0  0
  1 35  1  0  0  0  0
  1 36  1  0  0  0  0
  1 37  1  0  0  0  0
  2  3  1  0  0  0  0
  2 38  1  0  0  0  0
  2 39  1  0  0  0  0
  3  4  1  0  0  0  0
  3 40  1  0  0  0  0
  3 41  1  0  0  0  0
  4 33  2  0  0  0  0
  4  5  1  0  0  0  0
  5  6  2  0  0  0  0
  5 12  1  0  0  0  0
  6 32  1  0  0  0  0
  6  7  1  0  0  0  0
  7  9  1  0  0  0  0
  7  8  2  0  0  0  0
  9 11  2  0  0  0  0
 10 12  1  0  0  0  0
 11 13  1  0  0  0  0
 11 12  1  0  0  0  0
 13 18  2  0  0  0  0
 13 14  1  0  0  0  0
 14 15  2  0  0  0  0
 14 42  1  0  0  0  0
 15 16  1  0  0  0  0
 15 23  1  0  0  0  0
 16 17  2  0  0  0  0
 16 43  1  0  0  0  0
 17 22  1  0  0  0  0
 17 18  1  0  0  0  0
 18 19  1  0  0  0  0
 19 20  1  0  0  0  0
 20 21  1  0  0  0  0
 20 44  1  0  0  0  0
 20 45  1  0  0  0  0
 21 22  1  0  0  0  0
 21 46  1  0  0  0  0
 21 47  1  0  0  0  0
 23 24  2  0  0  0  0
 23 25  2  0  0  0  0
 23 26  1  0  0  0  0
 26 30  1  0  0  0  0
 26 27  1  0  0  0  0
 27 28  1  0  0  0  0
 27 48  1  0  0  0  0
 27 49  1  0  0  0  0
 28 50  1  0  0  0  0
 28 51  1  0  0  0  0
 28 62  1  0  0  0  0
 29 30  1  0  0  0  0
 29 52  1  0  0  0  0
 29 53  1  0  0  0  0
 29 62  1  0  0  0  0
 30 54  1  0  0  0  0
 30 55  1  0  0  0  0
 31 56  1  0  0  0  0
 31 57  1  0  0  0  0
 31 58  1  0  0  0  0
 31 62  1  0  0  0  0
 32 33  1  0  0  0  0
 32 34  1  0  0  0  0
 34 59  1  0  0  0  0
 34 60  1  0  0  0  0
 34 61  1  0  0  0  0
 62 63  1  0  0  0  0
M  CHG  1  62   1
M  END
$$$$
ZINC04199919
  -OEChem-08230709403D

 63 67  0     0  0  0  0  0  0999 V2000
   -7.2580    4.8407   -1.3530 C   0  0  0  0  0  0  0  0  0  0  0  0
   -6.7902    3.3841   -1.3659 C   0  0  0  0  0  0  0  0  0  0  0  0
   -6.6191    2.8906    0.0722 C   0  0  0  0  0  0  0  0  0  0  0  0
   -6.1583    1.4558    0.0594 C   0  0  0  0  0  0  0  0  0  0  0  0
   -4.8175    1.0246    0.0429 C   0  0  0  0  0  0  0  0  0  0  0  0
   -4.8390   -0.3760    0.0349 C   0  0  0  0  0  0  0  0  0  0  0  0
   -3.6107   -1.0764    0.0111 C   0  0  0  0  0  0  0  0  0  0  0  0
   -3.5871   -2.2950    0.0074 O   0  0  0  0  0  0  0  0  0  0  0  0
   -2.4636   -0.3618    0.0053 N   0  0  0  0  0  0  0  0  0  0  0  0
   -4.5232   -2.6465    0.0129 H   0  0  0  0  0  0  0  0  0  0  0  0
   -2.5020    1.0062    0.0193 C   0  0  0  0  0  0  0  0  0  0  0  0
   -3.6331    1.6688    0.0345 N   0  0  0  0  0  0  0  0  0  0  0  0
   -1.2314    1.7583    0.0172 C   0  0  0  0  0  0  0  0  0  0  0  0
   -0.0126    1.0758    0.0078 C   0  0  0  0  0  0  0  0  0  0  0  0
    1.1712    1.7816    0.0002 C   0  0  0  0  0  0  0  0  0  0  0  0
    1.1593    3.1659    0.0085 C   0  0  0  0  0  0  0  0  0  0  0  0
   -0.0426    3.8571    0.0253 C   0  0  0  0  0  0  0  0  0  0  0  0
   -1.2433    3.1585    0.0305 C   0  0  0  0  0  0  0  0  0  0  0  0
   -2.4326    3.8161    0.0424 O   0  0  0  0  0  0  0  0  0  0  0  0
   -2.4023    5.1938    0.4307 C   0  0  0  0  0  0  0  0  0  0  0  0
   -1.2492    5.8778   -0.3163 C   0  0  0  0  0  0  0  0  0  0  0  0
   -0.0297    5.2183    0.0414 O   0  0  0  0  0  0  0  0  0  0  0  0
    2.7069    0.9179   -0.0195 S   0  0  0  0  0  0  0  0  0  0  0  0
    3.6766    1.8013    0.5269 O   0  0  0  0  0  0  0  0  0  0  0  0
    2.4557   -0.3697    0.5266 O   0  0  0  0  0  0  0  0  0  0  0  0
    3.1183    0.6867   -1.6068 N   0  0  0  0  0  0  0  0  0  0  0  0
    2.6921   -0.5218   -2.3288 C   0  0  0  0  0  0  0  0  0  0  0  0
    2.0217   -0.0876   -3.6419 C   0  0  0  0  0  0  0  0  0  0  0  0
    3.2105    2.0262   -3.6417 C   0  0  0  0  0  0  0  0  0  0  0  0
    3.9245    1.6816   -2.3303 C   0  0  0  0  0  0  0  0  0  0  0  0
    2.4078    1.0866   -5.7238 C   0  0  0  0  0  0  0  0  0  0  0  0
   -6.1527   -0.7546    0.0467 N   0  0  0  0  0  0  0  0  0  0  0  0
   -6.9359    0.4071    0.0620 N   0  0  0  0  0  0  0  0  0  0  0  0
   -6.6532   -2.1315    0.0439 C   0  0  0  0  0  0  0  0  0  0  0  0
   -6.5163    5.4560   -0.8436 H   0  0  0  0  0  0  0  0  0  0  0  0
   -7.3798    5.1923   -2.3776 H   0  0  0  0  0  0  0  0  0  0  0  0
   -8.2110    4.9116   -0.8288 H   0  0  0  0  0  0  0  0  0  0  0  0
   -5.8372    3.3131   -1.8902 H   0  0  0  0  0  0  0  0  0  0  0  0
   -7.5318    2.7687   -1.8754 H   0  0  0  0  0  0  0  0  0  0  0  0
   -7.5721    2.9614    0.5964 H   0  0  0  0  0  0  0  0  0  0  0  0
   -5.8774    3.5058    0.5816 H   0  0  0  0  0  0  0  0  0  0  0  0
    0.0021   -0.0041    0.0019 H   0  0  0  0  0  0  0  0  0  0  0  0
    2.0918    3.7107    0.0021 H   0  0  0  0  0  0  0  0  0  0  0  0
   -3.3460    5.6711    0.1664 H   0  0  0  0  0  0  0  0  0  0  0  0
   -2.2408    5.2693    1.5060 H   0  0  0  0  0  0  0  0  0  0  0  0
   -1.4089    5.7976   -1.3915 H   0  0  0  0  0  0  0  0  0  0  0  0
   -1.1974    6.9282   -0.0297 H   0  0  0  0  0  0  0  0  0  0  0  0
    3.5604   -1.1439   -2.5458 H   0  0  0  0  0  0  0  0  0  0  0  0
    1.9810   -1.0802   -1.7201 H   0  0  0  0  0  0  0  0  0  0  0  0
    1.0995    0.4504   -3.4221 H   0  0  0  0  0  0  0  0  0  0  0  0
    1.7946   -0.9687   -4.2419 H   0  0  0  0  0  0  0  0  0  0  0  0
    2.2718    2.5347   -3.4219 H   0  0  0  0  0  0  0  0  0  0  0  0
    3.8457    2.6782   -4.2413 H   0  0  0  0  0  0  0  0  0  0  0  0
    4.0285    2.5805   -1.7228 H   0  0  0  0  0  0  0  0  0  0  0  0
    4.9102    1.2684   -2.5444 H   0  0  0  0  0  0  0  0  0  0  0  0
    3.1379    1.6743   -6.2803 H   0  0  0  0  0  0  0  0  0  0  0  0
    2.2130    0.1538   -6.2529 H   0  0  0  0  0  0  0  0  0  0  0  0
    1.4807    1.6524   -5.6315 H   0  0  0  0  0  0  0  0  0  0  0  0
   -6.7662   -2.4791    1.0708 H   0  0  0  0  0  0  0  0  0  0  0  0
   -7.6191   -2.1660   -0.4598 H   0  0  0  0  0  0  0  0  0  0  0  0
   -5.9462   -2.7739   -0.4814 H   0  0  0  0  0  0  0  0  0  0  0  0
    2.9619    0.7749   -4.3900 N   0  3  0  0  0  0  0  0  0  0  0  0
    3.8511    0.2749   -4.5070 H   0  0  0  0  0  0  0  0  0  0  0  0
  1  2  1  0  0  0  0
  1 35  1  0  0  0  0
  1 36  1  0  0  0  0
  1 37  1  0  0  0  0
  2  3  1  0  0  0  0
  2 38  1  0  0  0  0
  2 39  1  0  0  0  0
  3  4  1  0  0  0  0
  3 40  1  0  0  0  0
  3 41  1  0  0  0  0
  4 33  2  0  0  0  0
  4  5  1  0  0  0  0
  5  6  2  0  0  0  0
  5 12  1  0  0  0  0
  6 32  1  0  0  0  0
  6  7  1  0  0  0  0
  7  9  2  0  0  0  0
  7  8  1  0  0  0  0
  8 10  1  0  0  0  0
  9 11  1  0  0  0  0
 11 13  1  0  0  0  0
 11 12  2  0  0  0  0
 13 18  2  0  0  0  0
 13 14  1  0  0  0  0
 14 15  2  0  0  0  0
 14 42  1  0  0  0  0
 15 16  1  0  0  0  0
 15 23  1  0  0  0  0
 16 17  2  0  0  0  0
 16 43  1  0  0  0  0
 17 22  1  0  0  0  0
 17 18  1  0  0  0  0
 18 19  1  0  0  0  0
 19 20  1  0  0  0  0
 20 21  1  0  0  0  0
 20 44  1  0  0  0  0
 20 45  1  0  0  0  0
 21 22  1  0  0  0  0
 21 46  1  0  0  0  0
 21 47  1  0  0  0  0
 23 24  2  0  0  0  0
 23 25  2  0  0  0  0
 23 26  1  0  0  0  0
 26 30  1  0  0  0  0
 26 27  1  0  0  0  0
 27 28  1  0  0  0  0
 27 48  1  0  0  0  0
 27 49  1  0  0  0  0
 28 50  1  0  0  0  0
 28 51  1  0  0  0  0
 28 62  1  0  0  0  0
 29 30  1  0  0  0  0
 29 52  1  0  0  0  0
 29 53  1  0  0  0  0
 29 62  1  0  0  0  0
 30 54  1  0  0  0  0
 30 55  1  0  0  0  0
 31 56  1  0  0  0  0
 31 57  1  0  0  0  0
 31 58  1  0  0  0  0
 31 62  1  0  0  0  0
 32 33  1  0  0  0  0
 32 34  1  0  0  0  0
 34 59  1  0  0  0  0
 34 60  1  0  0  0  0
 34 61  1  0  0  0  0
 62 63  1  0  0  0  0
M  CHG  1  62   1
M  END
$$$$
ZINC04199920
  -OEChem-08230709403D

 53 55  0     0  0  0  0  0  0999 V2000
   -0.0411    1.2947   -2.7363 C   0  0  0  0  0  0  0  0  0  0  0  0
   -0.8486    1.8644   -1.5683 C   0  0  0  0  0  0  0  0  0  0  0  0
   -0.3052    1.3053   -0.2518 C   0  0  0  0  0  0  0  0  0  0  0  0
   -1.1006    1.8664    0.8986 C   0  0  0  0  0  0  0  0  0  0  0  0
   -0.8030    3.0496    1.6023 C   0  0  0  0  0  0  0  0  0  0  0  0
   -1.7920    3.2016    2.5827 C   0  0  0  0  0  0  0  0  0  0  0  0
   -1.7350    4.3248    3.4400 C   0  0  0  0  0  0  0  0  0  0  0  0
   -2.5738    4.4903    4.3086 O   0  0  0  0  0  0  0  0  0  0  0  0
   -0.7280    5.2105    3.2725 N   0  0  0  0  0  0  0  0  0  0  0  0
   -0.6667    6.0125    3.8666 H   0  0  0  0  0  0  0  0  0  0  0  0
    0.2083    5.0149    2.2936 C   0  0  0  0  0  0  0  0  0  0  0  0
    0.1681    3.9786    1.4917 N   0  0  0  0  0  0  0  0  0  0  0  0
    1.2959    6.0009    2.1356 C   0  0  0  0  0  0  0  0  0  0  0  0
    1.3580    7.1164    2.9724 C   0  0  0  0  0  0  0  0  0  0  0  0
    2.3832    8.0346    2.8214 C   0  0  0  0  0  0  0  0  0  0  0  0
    3.3437    7.8523    1.8325 C   0  0  0  0  0  0  0  0  0  0  0  0
    3.2849    6.7539    0.9983 C   0  0  0  0  0  0  0  0  0  0  0  0
    2.2667    5.8242    1.1416 C   0  0  0  0  0  0  0  0  0  0  0  0
    2.2108    4.7442    0.3203 O   0  0  0  0  0  0  0  0  0  0  0  0
    3.2342    4.6289   -0.6704 C   0  0  0  0  0  0  0  0  0  0  0  0
    3.0065    3.3595   -1.4936 C   0  0  0  0  0  0  0  0  0  0  0  0
    4.1023    3.2360   -2.5542 C   0  0  0  0  0  0  0  0  0  0  0  0
    2.4504    9.1524    3.6638 N   0  0  0  0  0  0  0  0  0  0  0  0
    2.0394    9.0572    4.9438 C   0  0  0  0  0  0  0  0  0  0  0  0
    1.7015    7.9827    5.3940 O   0  0  0  0  0  0  0  0  0  0  0  0
    1.9996   10.2856    5.8158 C   0  0  0  0  0  0  0  0  0  0  0  0
   -2.6385    2.1345    2.4636 N   0  0  0  0  0  0  0  0  0  0  0  0
   -2.1763    1.3331    1.4115 N   0  0  0  0  0  0  0  0  0  0  0  0
   -3.8199    1.8750    3.2902 C   0  0  0  0  0  0  0  0  0  0  0  0
    1.0059    1.5774   -2.6262 H   0  0  0  0  0  0  0  0  0  0  0  0
   -0.1255    0.2080   -2.7406 H   0  0  0  0  0  0  0  0  0  0  0  0
   -0.4283    1.6930   -3.6741 H   0  0  0  0  0  0  0  0  0  0  0  0
   -1.8956    1.5817   -1.6783 H   0  0  0  0  0  0  0  0  0  0  0  0
   -0.7642    2.9511   -1.5639 H   0  0  0  0  0  0  0  0  0  0  0  0
   -0.3896    0.2186   -0.2561 H   0  0  0  0  0  0  0  0  0  0  0  0
    0.7418    1.5880   -0.1417 H   0  0  0  0  0  0  0  0  0  0  0  0
    0.6101    7.2611    3.7380 H   0  0  0  0  0  0  0  0  0  0  0  0
    4.1392    8.5735    1.7164 H   0  0  0  0  0  0  0  0  0  0  0  0
    4.0338    6.6188    0.2319 H   0  0  0  0  0  0  0  0  0  0  0  0
    3.2037    5.4982   -1.3272 H   0  0  0  0  0  0  0  0  0  0  0  0
    4.2076    4.5760   -0.1827 H   0  0  0  0  0  0  0  0  0  0  0  0
    3.0371    2.4901   -0.8367 H   0  0  0  0  0  0  0  0  0  0  0  0
    2.0331    3.4124   -1.9812 H   0  0  0  0  0  0  0  0  0  0  0  0
    3.9401    2.3317   -3.1407 H   0  0  0  0  0  0  0  0  0  0  0  0
    4.0717    4.1054   -3.2111 H   0  0  0  0  0  0  0  0  0  0  0  0
    5.0757    3.1831   -2.0666 H   0  0  0  0  0  0  0  0  0  0  0  0
    2.7928    9.9946    3.3257 H   0  0  0  0  0  0  0  0  0  0  0  0
    2.3362   11.1493    5.2424 H   0  0  0  0  0  0  0  0  0  0  0  0
    0.9793   10.4537    6.1605 H   0  0  0  0  0  0  0  0  0  0  0  0
    2.6545   10.1425    6.6753 H   0  0  0  0  0  0  0  0  0  0  0  0
   -3.5335    1.2778    4.1559 H   0  0  0  0  0  0  0  0  0  0  0  0
   -4.2436    2.8215    3.6258 H   0  0  0  0  0  0  0  0  0  0  0  0
   -4.5615    1.3325    2.7038 H   0  0  0  0  0  0  0  0  0  0  0  0
  1  2  1  0  0  0  0
  1 30  1  0  0  0  0
  1 31  1  0  0  0  0
  1 32  1  0  0  0  0
  2  3  1  0  0  0  0
  2 33  1  0  0  0  0
  2 34  1  0  0  0  0
  3  4  1  0  0  0  0
  3 35  1  0  0  0  0
  3 36  1  0  0  0  0
  4 28  2  0  0  0  0
  4  5  1  0  0  0  0
  5 12  1  0  0  0  0
  5  6  2  0  0  0  0
  6  7  1  0  0  0  0
  6 27  1  0  0  0  0
  7  8  2  0  0  0  0
  7  9  1  0  0  0  0
  9 10  1  0  0  0  0
  9 11  1  0  0  0  0
 11 12  2  0  0  0  0
 11 13  1  0  0  0  0
 13 18  2  0  0  0  0
 13 14  1  0  0  0  0
 14 15  2  0  0  0  0
 14 37  1  0  0  0  0
 15 16  1  0  0  0  0
 15 23  1  0  0  0  0
 16 17  2  0  0  0  0
 16 38  1  0  0  0  0
 17 18  1  0  0  0  0
 17 39  1  0  0  0  0
 18 19  1  0  0  0  0
 19 20  1  0  0  0  0
 20 21  1  0  0  0  0
 20 40  1  0  0  0  0
 20 41  1  0  0  0  0
 21 22  1  0  0  0  0
 21 42  1  0  0  0  0
 21 43  1  0  0  0  0
 22 44  1  0  0  0  0
 22 45  1  0  0  0  0
 22 46  1  0  0  0  0
 23 24  1  0  0  0  0
 23 47  1  0  0  0  0
 24 25  2  0  0  0  0
 24 26  1  0  0  0  0
 26 48  1  0  0  0  0
 26 49  1  0  0  0  0
 26 50  1  0  0  0  0
 27 28  1  0  0  0  0
 27 29  1  0  0  0  0
 29 51  1  0  0  0  0
 29 52  1  0  0  0  0
 29 53  1  0  0  0  0
M  END
$$$$
ZINC04199920
  -OEChem-08230709403D

 53 55  0     0  0  0  0  0  0999 V2000
   -0.1417    1.4464   -2.8432 C   0  0  0  0  0  0  0  0  0  0  0  0
   -0.9351    2.0056   -1.6605 C   0  0  0  0  0  0  0  0  0  0  0  0
   -0.4081    1.3969   -0.3594 C   0  0  0  0  0  0  0  0  0  0  0  0
   -1.1895    1.9477    0.8054 C   0  0  0  0  0  0  0  0  0  0  0  0
   -0.8613    3.1032    1.5409 C   0  0  0  0  0  0  0  0  0  0  0  0
   -1.8352    3.2431    2.5382 C   0  0  0  0  0  0  0  0  0  0  0  0
   -1.7106    4.3028    3.4670 C   0  0  0  0  0  0  0  0  0  0  0  0
   -2.5384    4.4584    4.3479 O   0  0  0  0  0  0  0  0  0  0  0  0
   -0.7044    5.1891    3.2984 N   0  0  0  0  0  0  0  0  0  0  0  0
   -3.2003    3.7093    4.3194 H   0  0  0  0  0  0  0  0  0  0  0  0
    0.2011    5.0215    2.2854 C   0  0  0  0  0  0  0  0  0  0  0  0
    0.1342    4.0087    1.4558 N   0  0  0  0  0  0  0  0  0  0  0  0
    1.2847    6.0111    2.1229 C   0  0  0  0  0  0  0  0  0  0  0  0
    1.3468    7.1266    2.9597 C   0  0  0  0  0  0  0  0  0  0  0  0
    2.3683    8.0482    2.8045 C   0  0  0  0  0  0  0  0  0  0  0  0
    3.3251    7.8693    1.8115 C   0  0  0  0  0  0  0  0  0  0  0  0
    3.2663    6.7709    0.9773 C   0  0  0  0  0  0  0  0  0  0  0  0
    2.2518    5.8378    1.1247 C   0  0  0  0  0  0  0  0  0  0  0  0
    2.1959    4.7578    0.3034 O   0  0  0  0  0  0  0  0  0  0  0  0
    3.2154    4.6461   -0.6917 C   0  0  0  0  0  0  0  0  0  0  0  0
    2.9884    3.3761   -1.5142 C   0  0  0  0  0  0  0  0  0  0  0  0
    4.0800    3.2565   -2.5795 C   0  0  0  0  0  0  0  0  0  0  0  0
    2.4354    9.1661    3.6469 N   0  0  0  0  0  0  0  0  0  0  0  0
    2.0303    9.0693    4.9286 C   0  0  0  0  0  0  0  0  0  0  0  0
    1.6978    7.9936    5.3800 O   0  0  0  0  0  0  0  0  0  0  0  0
    1.9902   10.2973    5.8010 C   0  0  0  0  0  0  0  0  0  0  0  0
   -2.7154    2.2084    2.3836 N   0  0  0  0  0  0  0  0  0  0  0  0
   -2.2842    1.4342    1.2985 N   0  0  0  0  0  0  0  0  0  0  0  0
   -3.8991    1.9532    3.2083 C   0  0  0  0  0  0  0  0  0  0  0  0
    0.9123    1.6981   -2.7252 H   0  0  0  0  0  0  0  0  0  0  0  0
   -0.2550    0.3628   -2.8769 H   0  0  0  0  0  0  0  0  0  0  0  0
   -0.5172    1.8800   -3.7701 H   0  0  0  0  0  0  0  0  0  0  0  0
   -1.9891    1.7539   -1.7785 H   0  0  0  0  0  0  0  0  0  0  0  0
   -0.8218    3.0892   -1.6268 H   0  0  0  0  0  0  0  0  0  0  0  0
   -0.5213    0.3134   -0.3931 H   0  0  0  0  0  0  0  0  0  0  0  0
    0.6459    1.6486   -0.2414 H   0  0  0  0  0  0  0  0  0  0  0  0
    0.6017    7.2687    3.7286 H   0  0  0  0  0  0  0  0  0  0  0  0
    4.1177    8.5931    1.6921 H   0  0  0  0  0  0  0  0  0  0  0  0
    4.0124    6.6384    0.2076 H   0  0  0  0  0  0  0  0  0  0  0  0
    3.1793    5.5154   -1.3481 H   0  0  0  0  0  0  0  0  0  0  0  0
    4.1911    4.5963   -0.2082 H   0  0  0  0  0  0  0  0  0  0  0  0
    3.0246    2.5067   -0.8576 H   0  0  0  0  0  0  0  0  0  0  0  0
    2.0127    3.4259   -1.9976 H   0  0  0  0  0  0  0  0  0  0  0  0
    3.9182    2.3518   -3.1655 H   0  0  0  0  0  0  0  0  0  0  0  0
    4.0437    4.1259   -3.2361 H   0  0  0  0  0  0  0  0  0  0  0  0
    5.0556    3.2066   -2.0961 H   0  0  0  0  0  0  0  0  0  0  0  0
    2.7736   10.0095    3.3075 H   0  0  0  0  0  0  0  0  0  0  0  0
    2.3215   11.1623    5.2264 H   0  0  0  0  0  0  0  0  0  0  0  0
    0.9708   10.4620    6.1502 H   0  0  0  0  0  0  0  0  0  0  0  0
    2.6493   10.1562    6.6577 H   0  0  0  0  0  0  0  0  0  0  0  0
   -3.6260    1.3136    4.0476 H   0  0  0  0  0  0  0  0  0  0  0  0
   -4.2908    2.8984    3.5841 H   0  0  0  0  0  0  0  0  0  0  0  0
   -4.6610    1.4576    2.6067 H   0  0  0  0  0  0  0  0  0  0  0  0
  1  2  1  0  0  0  0
  1 30  1  0  0  0  0
  1 31  1  0  0  0  0
  1 32  1  0  0  0  0
  2  3  1  0  0  0  0
  2 33  1  0  0  0  0
  2 34  1  0  0  0  0
  3  4  1  0  0  0  0
  3 35  1  0  0  0  0
  3 36  1  0  0  0  0
  4 28  2  0  0  0  0
  4  5  1  0  0  0  0
  5  6  2  0  0  0  0
  5 12  1  0  0  0  0
  6 27  1  0  0  0  0
  6  7  1  0  0  0  0
  7  9  2  0  0  0  0
  7  8  1  0  0  0  0
  8 10  1  0  0  0  0
  9 11  1  0  0  0  0
 11 13  1  0  0  0  0
 11 12  2  0  0  0  0
 13 18  2  0  0  0  0
 13 14  1  0  0  0  0
 14 15  2  0  0  0  0
 14 37  1  0  0  0  0
 15 16  1  0  0  0  0
 15 23  1  0  0  0  0
 16 17  2  0  0  0  0
 16 38  1  0  0  0  0
 17 18  1  0  0  0  0
 17 39  1  0  0  0  0
 18 19  1  0  0  0  0
 19 20  1  0  0  0  0
 20 21  1  0  0  0  0
 20 40  1  0  0  0  0
 20 41  1  0  0  0  0
 21 22  1  0  0  0  0
 21 42  1  0  0  0  0
 21 43  1  0  0  0  0
 22 44  1  0  0  0  0
 22 45  1  0  0  0  0
 22 46  1  0  0  0  0
 23 24  1  0  0  0  0
 23 47  1  0  0  0  0
 24 25  2  0  0  0  0
 24 26  1  0  0  0  0
 26 48  1  0  0  0  0
 26 49  1  0  0  0  0
 26 50  1  0  0  0  0
 27 28  1  0  0  0  0
 27 29  1  0  0  0  0
 29 51  1  0  0  0  0
 29 52  1  0  0  0  0
 29 53  1  0  0  0  0
M  END
$$$$
ZINC04199920
  -OEChem-08230709403D

 53 55  0     0  0  0  0  0  0999 V2000
   -0.0402    1.2930   -2.7351 C   0  0  0  0  0  0  0  0  0  0  0  0
   -0.8478    1.8628   -1.5672 C   0  0  0  0  0  0  0  0  0  0  0  0
   -0.3041    1.3043   -0.2505 C   0  0  0  0  0  0  0  0  0  0  0  0
   -1.0996    1.8655    0.8997 C   0  0  0  0  0  0  0  0  0  0  0  0
   -0.8024    3.0490    1.6030 C   0  0  0  0  0  0  0  0  0  0  0  0
   -1.7914    3.2010    2.5834 C   0  0  0  0  0  0  0  0  0  0  0  0
   -1.7378    4.3274    3.4368 C   0  0  0  0  0  0  0  0  0  0  0  0
   -2.5767    4.4930    4.3052 O   0  0  0  0  0  0  0  0  0  0  0  0
   -0.7334    5.2155    3.2663 N   0  0  0  0  0  0  0  0  0  0  0  0
    0.8669    3.8775    0.7835 H   0  0  0  0  0  0  0  0  0  0  0  0
    0.2030    5.0197    2.2875 C   0  0  0  0  0  0  0  0  0  0  0  0
    0.1657    3.9808    1.4890 N   0  0  0  0  0  0  0  0  0  0  0  0
    1.2877    6.0084    2.1262 C   0  0  0  0  0  0  0  0  0  0  0  0
    1.3470    7.1264    2.9598 C   0  0  0  0  0  0  0  0  0  0  0  0
    2.3696    8.0471    2.8057 C   0  0  0  0  0  0  0  0  0  0  0  0
    3.3301    7.8647    1.8169 C   0  0  0  0  0  0  0  0  0  0  0  0
    3.2741    6.7637    0.9859 C   0  0  0  0  0  0  0  0  0  0  0  0
    2.2586    5.8316    1.1323 C   0  0  0  0  0  0  0  0  0  0  0  0
    2.2054    4.7491    0.3141 O   0  0  0  0  0  0  0  0  0  0  0  0
    3.2287    4.6338   -0.6767 C   0  0  0  0  0  0  0  0  0  0  0  0
    3.0043    3.3614   -1.4962 C   0  0  0  0  0  0  0  0  0  0  0  0
    4.0999    3.2380   -2.5569 C   0  0  0  0  0  0  0  0  0  0  0  0
    2.4339    9.1675    3.6449 N   0  0  0  0  0  0  0  0  0  0  0  0
    2.0238    9.0748    4.9253 C   0  0  0  0  0  0  0  0  0  0  0  0
    1.6891    8.0006    5.3787 O   0  0  0  0  0  0  0  0  0  0  0  0
    1.9809   10.3056    5.7938 C   0  0  0  0  0  0  0  0  0  0  0  0
   -2.6375    2.1336    2.4647 N   0  0  0  0  0  0  0  0  0  0  0  0
   -2.1751    1.3320    1.4129 N   0  0  0  0  0  0  0  0  0  0  0  0
   -3.8187    1.8739    3.2915 C   0  0  0  0  0  0  0  0  0  0  0  0
    1.0068    1.5761   -2.6251 H   0  0  0  0  0  0  0  0  0  0  0  0
   -0.1242    0.2062   -2.7390 H   0  0  0  0  0  0  0  0  0  0  0  0
   -0.4276    1.6908   -3.6730 H   0  0  0  0  0  0  0  0  0  0  0  0
   -1.8947    1.5797   -1.6770 H   0  0  0  0  0  0  0  0  0  0  0  0
   -0.7638    2.9495   -1.5631 H   0  0  0  0  0  0  0  0  0  0  0  0
   -0.3881    0.2176   -0.2545 H   0  0  0  0  0  0  0  0  0  0  0  0
    0.7428    1.5874   -0.1406 H   0  0  0  0  0  0  0  0  0  0  0  0
    0.5991    7.2712    3.7253 H   0  0  0  0  0  0  0  0  0  0  0  0
    4.1235    8.5878    1.6984 H   0  0  0  0  0  0  0  0  0  0  0  0
    4.0230    6.6286    0.2195 H   0  0  0  0  0  0  0  0  0  0  0  0
    3.1954    5.5012   -1.3360 H   0  0  0  0  0  0  0  0  0  0  0  0
    4.2025    4.5851   -0.1893 H   0  0  0  0  0  0  0  0  0  0  0  0
    3.0376    2.4940   -0.8368 H   0  0  0  0  0  0  0  0  0  0  0  0
    2.0305    3.4102   -1.9835 H   0  0  0  0  0  0  0  0  0  0  0  0
    3.9401    2.3316   -3.1407 H   0  0  0  0  0  0  0  0  0  0  0  0
    4.0666    4.1054   -3.2163 H   0  0  0  0  0  0  0  0  0  0  0  0
    5.0737    3.1893   -2.0696 H   0  0  0  0  0  0  0  0  0  0  0  0
    2.7738   10.0097    3.3042 H   0  0  0  0  0  0  0  0  0  0  0  0
    2.3148   11.1686    5.2178 H   0  0  0  0  0  0  0  0  0  0  0  0
    0.9602   10.4718    6.1385 H   0  0  0  0  0  0  0  0  0  0  0  0
    2.6365   10.1668    6.6534 H   0  0  0  0  0  0  0  0  0  0  0  0
   -3.5321    1.2771    4.1574 H   0  0  0  0  0  0  0  0  0  0  0  0
   -4.2427    2.8204    3.6268 H   0  0  0  0  0  0  0  0  0  0  0  0
   -4.5602    1.3310    2.7053 H   0  0  0  0  0  0  0  0  0  0  0  0
  1  2  1  0  0  0  0
  1 30  1  0  0  0  0
  1 31  1  0  0  0  0
  1 32  1  0  0  0  0
  2  3  1  0  0  0  0
  2 33  1  0  0  0  0
  2 34  1  0  0  0  0
  3  4  1  0  0  0  0
  3 35  1  0  0  0  0
  3 36  1  0  0  0  0
  4 28  2  0  0  0  0
  4  5  1  0  0  0  0
  5  6  2  0  0  0  0
  5 12  1  0  0  0  0
  6 27  1  0  0  0  0
  6  7  1  0  0  0  0
  7  9  1  0  0  0  0
  7  8  2  0  0  0  0
  9 11  2  0  0  0  0
 10 12  1  0  0  0  0
 11 13  1  0  0  0  0
 11 12  1  0  0  0  0
 13 18  2  0  0  0  0
 13 14  1  0  0  0  0
 14 15  2  0  0  0  0
 14 37  1  0  0  0  0
 15 16  1  0  0  0  0
 15 23  1  0  0  0  0
 16 17  2  0  0  0  0
 16 38  1  0  0  0  0
 17 18  1  0  0  0  0
 17 39  1  0  0  0  0
 18 19  1  0  0  0  0
 19 20  1  0  0  0  0
 20 21  1  0  0  0  0
 20 40  1  0  0  0  0
 20 41  1  0  0  0  0
 21 22  1  0  0  0  0
 21 42  1  0  0  0  0
 21 43  1  0  0  0  0
 22 44  1  0  0  0  0
 22 45  1  0  0  0  0
 22 46  1  0  0  0  0
 23 24  1  0  0  0  0
 23 47  1  0  0  0  0
 24 25  2  0  0  0  0
 24 26  1  0  0  0  0
 26 48  1  0  0  0  0
 26 49  1  0  0  0  0
 26 50  1  0  0  0  0
 27 28  1  0  0  0  0
 27 29  1  0  0  0  0
 29 51  1  0  0  0  0
 29 52  1  0  0  0  0
 29 53  1  0  0  0  0
M  END
$$$$
ZINC04199921
  -OEChem-08230709403D

 69 72  0     0  0  0  0  0  0999 V2000
    5.9280    0.0548   10.5829 C   0  0  0  0  0  0  0  0  0  0  0  0
    5.5374   -0.8952    9.4489 C   0  0  0  0  0  0  0  0  0  0  0  0
    6.2134   -0.4463    8.1519 C   0  0  0  0  0  0  0  0  0  0  0  0
    5.8286   -1.3820    7.0349 C   0  0  0  0  0  0  0  0  0  0  0  0
    4.7161   -1.2311    6.1846 C   0  0  0  0  0  0  0  0  0  0  0  0
    4.7317   -2.3135    5.2955 C   0  0  0  0  0  0  0  0  0  0  0  0
    3.7119   -2.4096    4.3205 C   0  0  0  0  0  0  0  0  0  0  0  0
    3.6904   -3.3361    3.5288 O   0  0  0  0  0  0  0  0  0  0  0  0
    2.7595   -1.4512    4.2904 N   0  0  0  0  0  0  0  0  0  0  0  0
    2.0244   -1.5012    3.6143 H   0  0  0  0  0  0  0  0  0  0  0  0
    2.7963   -0.4126    5.1809 C   0  0  0  0  0  0  0  0  0  0  0  0
    3.7350   -0.3109    6.0904 N   0  0  0  0  0  0  0  0  0  0  0  0
    1.7439    0.6211    5.1194 C   0  0  0  0  0  0  0  0  0  0  0  0
    0.7297    0.5343    4.1636 C   0  0  0  0  0  0  0  0  0  0  0  0
   -0.2472    1.5054    4.1079 C   0  0  0  0  0  0  0  0  0  0  0  0
   -0.2334    2.5621    5.0030 C   0  0  0  0  0  0  0  0  0  0  0  0
    0.7617    2.6570    5.9562 C   0  0  0  0  0  0  0  0  0  0  0  0
    1.7546    1.6918    6.0227 C   0  0  0  0  0  0  0  0  0  0  0  0
    2.7333    1.7840    6.9587 O   0  0  0  0  0  0  0  0  0  0  0  0
    2.6796    2.9034    7.8453 C   0  0  0  0  0  0  0  0  0  0  0  0
    3.8553    2.8372    8.8221 C   0  0  0  0  0  0  0  0  0  0  0  0
    3.7978    4.0357    9.7714 C   0  0  0  0  0  0  0  0  0  0  0  0
   -1.5230    1.3978    2.8974 S   0  0  0  0  0  0  0  0  0  0  0  0
   -2.6282    2.1322    3.4058 O   0  0  0  0  0  0  0  0  0  0  0  0
   -1.6217    0.0282    2.5320 O   0  0  0  0  0  0  0  0  0  0  0  0
   -0.9933    2.2090    1.5544 N   0  0  0  0  0  0  0  0  0  0  0  0
   -0.2418    1.5125    0.4993 C   0  0  0  0  0  0  0  0  0  0  0  0
   -0.8977    1.8153   -0.8521 C   0  0  0  0  0  0  0  0  0  0  0  0
   -1.8818    3.8635   -0.0047 C   0  0  0  0  0  0  0  0  0  0  0  0
   -1.2662    3.6446    1.3814 C   0  0  0  0  0  0  0  0  0  0  0  0
   -1.4718    3.6062   -2.3771 C   0  0  0  0  0  0  0  0  0  0  0  0
   -2.8743    3.0895   -2.5692 C   0  0  0  0  0  0  0  0  0  0  0  0
   -3.3916    2.4129   -1.7121 O   0  0  0  0  0  0  0  0  0  0  0  0
    5.8207   -3.0760    5.6150 N   0  0  0  0  0  0  0  0  0  0  0  0
    6.4720   -2.4660    6.6951 N   0  0  0  0  0  0  0  0  0  0  0  0
    6.2336   -4.3122    4.9460 C   0  0  0  0  0  0  0  0  0  0  0  0
    7.0101    0.0396   10.7130 H   0  0  0  0  0  0  0  0  0  0  0  0
    5.6058    1.0665   10.3365 H   0  0  0  0  0  0  0  0  0  0  0  0
    5.4464   -0.2650   11.5069 H   0  0  0  0  0  0  0  0  0  0  0  0
    4.4553   -0.8800    9.3187 H   0  0  0  0  0  0  0  0  0  0  0  0
    5.8595   -1.9069    9.6953 H   0  0  0  0  0  0  0  0  0  0  0  0
    7.2955   -0.4615    8.2820 H   0  0  0  0  0  0  0  0  0  0  0  0
    5.8912    0.5655    7.9055 H   0  0  0  0  0  0  0  0  0  0  0  0
    0.7129   -0.2902    3.4663 H   0  0  0  0  0  0  0  0  0  0  0  0
   -1.0047    3.3165    4.9552 H   0  0  0  0  0  0  0  0  0  0  0  0
    0.7660    3.4839    6.6509 H   0  0  0  0  0  0  0  0  0  0  0  0
    2.7377    3.8267    7.2688 H   0  0  0  0  0  0  0  0  0  0  0  0
    1.7428    2.8812    8.4022 H   0  0  0  0  0  0  0  0  0  0  0  0
    3.7972    1.9140    9.3986 H   0  0  0  0  0  0  0  0  0  0  0  0
    4.7920    2.8594    8.2652 H   0  0  0  0  0  0  0  0  0  0  0  0
    3.8559    4.9590    9.1949 H   0  0  0  0  0  0  0  0  0  0  0  0
    2.8610    4.0135   10.3283 H   0  0  0  0  0  0  0  0  0  0  0  0
    4.6354    3.9886   10.4673 H   0  0  0  0  0  0  0  0  0  0  0  0
   -0.2619    0.4384    0.6836 H   0  0  0  0  0  0  0  0  0  0  0  0
    0.7902    1.8635    0.4922 H   0  0  0  0  0  0  0  0  0  0  0  0
   -0.2880    1.3987   -1.6539 H   0  0  0  0  0  0  0  0  0  0  0  0
   -1.8919    1.3694   -0.8820 H   0  0  0  0  0  0  0  0  0  0  0  0
   -1.9858    4.9322   -0.1919 H   0  0  0  0  0  0  0  0  0  0  0  0
   -2.8626    3.3897   -0.0465 H   0  0  0  0  0  0  0  0  0  0  0  0
   -0.3338    4.2036    1.4604 H   0  0  0  0  0  0  0  0  0  0  0  0
   -1.9623    3.9833    2.1488 H   0  0  0  0  0  0  0  0  0  0  0  0
   -1.4625    4.6886   -2.5059 H   0  0  0  0  0  0  0  0  0  0  0  0
   -0.8115    3.1471   -3.1129 H   0  0  0  0  0  0  0  0  0  0  0  0
    6.9103   -4.0729    4.1257 H   0  0  0  0  0  0  0  0  0  0  0  0
    6.7431   -4.9591    5.6603 H   0  0  0  0  0  0  0  0  0  0  0  0
    5.3548   -4.8244    4.5545 H   0  0  0  0  0  0  0  0  0  0  0  0
   -0.9792    3.2823   -1.0223 N   0  3  0  0  0  0  0  0  0  0  0  0
   -0.0416    3.6837   -0.9036 H   0  0  0  0  0  0  0  0  0  0  0  0
   -3.5490    3.3808   -3.6925 O   0  5  0  0  0  0  0  0  0  0  0  0
  1  2  1  0  0  0  0
  1 37  1  0  0  0  0
  1 38  1  0  0  0  0
  1 39  1  0  0  0  0
  2  3  1  0  0  0  0
  2 40  1  0  0  0  0
  2 41  1  0  0  0  0
  3  4  1  0  0  0  0
  3 42  1  0  0  0  0
  3 43  1  0  0  0  0
  4 35  2  0  0  0  0
  4  5  1  0  0  0  0
  5 12  1  0  0  0  0
  5  6  2  0  0  0  0
  6  7  1  0  0  0  0
  6 34  1  0  0  0  0
  7  8  2  0  0  0  0
  7  9  1  0  0  0  0
  9 10  1  0  0  0  0
  9 11  1  0  0  0  0
 11 12  2  0  0  0  0
 11 13  1  0  0  0  0
 13 18  2  0  0  0  0
 13 14  1  0  0  0  0
 14 15  2  0  0  0  0
 14 44  1  0  0  0  0
 15 16  1  0  0  0  0
 15 23  1  0  0  0  0
 16 17  2  0  0  0  0
 16 45  1  0  0  0  0
 17 18  1  0  0  0  0
 17 46  1  0  0  0  0
 18 19  1  0  0  0  0
 19 20  1  0  0  0  0
 20 21  1  0  0  0  0
 20 47  1  0  0  0  0
 20 48  1  0  0  0  0
 21 22  1  0  0  0  0
 21 49  1  0  0  0  0
 21 50  1  0  0  0  0
 22 51  1  0  0  0  0
 22 52  1  0  0  0  0
 22 53  1  0  0  0  0
 23 24  2  0  0  0  0
 23 25  2  0  0  0  0
 23 26  1  0  0  0  0
 26 30  1  0  0  0  0
 26 27  1  0  0  0  0
 27 28  1  0  0  0  0
 27 54  1  0  0  0  0
 27 55  1  0  0  0  0
 28 56  1  0  0  0  0
 28 57  1  0  0  0  0
 28 67  1  0  0  0  0
 29 30  1  0  0  0  0
 29 58  1  0  0  0  0
 29 59  1  0  0  0  0
 29 67  1  0  0  0  0
 30 60  1  0  0  0  0
 30 61  1  0  0  0  0
 31 32  1  0  0  0  0
 31 62  1  0  0  0  0
 31 63  1  0  0  0  0
 31 67  1  0  0  0  0
 32 33  2  0  0  0  0
 32 69  1  0  0  0  0
 34 35  1  0  0  0  0
 34 36  1  0  0  0  0
 36 64  1  0  0  0  0
 36 65  1  0  0  0  0
 36 66  1  0  0  0  0
 67 68  1  0  0  0  0
M  CHG  2  67   1  69  -1
M  END
$$$$
ZINC04199921
  -OEChem-08230709403D

 69 72  0     0  0  0  0  0  0999 V2000
    5.9465    0.0641   10.5713 C   0  0  0  0  0  0  0  0  0  0  0  0
    5.5547   -0.8870    9.4387 C   0  0  0  0  0  0  0  0  0  0  0  0
    6.2245   -0.4358    8.1392 C   0  0  0  0  0  0  0  0  0  0  0  0
    5.8385   -1.3726    7.0235 C   0  0  0  0  0  0  0  0  0  0  0  0
    4.7224   -1.2251    6.1774 C   0  0  0  0  0  0  0  0  0  0  0  0
    4.7381   -2.3074    5.2881 C   0  0  0  0  0  0  0  0  0  0  0  0
    3.7119   -2.4096    4.3205 C   0  0  0  0  0  0  0  0  0  0  0  0
    3.6904   -3.3361    3.5288 O   0  0  0  0  0  0  0  0  0  0  0  0
    2.7594   -1.4513    4.2905 N   0  0  0  0  0  0  0  0  0  0  0  0
    3.7261    0.4647    6.7216 H   0  0  0  0  0  0  0  0  0  0  0  0
    2.7962   -0.4127    5.1810 C   0  0  0  0  0  0  0  0  0  0  0  0
    3.7380   -0.3081    6.0870 N   0  0  0  0  0  0  0  0  0  0  0  0
    1.7438    0.6210    5.1195 C   0  0  0  0  0  0  0  0  0  0  0  0
    0.7296    0.5342    4.1637 C   0  0  0  0  0  0  0  0  0  0  0  0
   -0.2474    1.5053    4.1081 C   0  0  0  0  0  0  0  0  0  0  0  0
   -0.2336    2.5620    5.0032 C   0  0  0  0  0  0  0  0  0  0  0  0
    0.7616    2.6569    5.9563 C   0  0  0  0  0  0  0  0  0  0  0  0
    1.7545    1.6917    6.0228 C   0  0  0  0  0  0  0  0  0  0  0  0
    2.7332    1.7839    6.9588 O   0  0  0  0  0  0  0  0  0  0  0  0
    2.6795    2.9033    7.8454 C   0  0  0  0  0  0  0  0  0  0  0  0
    3.8553    2.8372    8.8221 C   0  0  0  0  0  0  0  0  0  0  0  0
    3.7978    4.0357    9.7714 C   0  0  0  0  0  0  0  0  0  0  0  0
   -1.5232    1.3976    2.8976 S   0  0  0  0  0  0  0  0  0  0  0  0
   -2.6284    2.1320    3.4061 O   0  0  0  0  0  0  0  0  0  0  0  0
   -1.6219    0.0280    2.5322 O   0  0  0  0  0  0  0  0  0  0  0  0
   -0.9936    2.2088    1.5546 N   0  0  0  0  0  0  0  0  0  0  0  0
   -0.2421    1.5124    0.4995 C   0  0  0  0  0  0  0  0  0  0  0  0
   -0.8980    1.8151   -0.8519 C   0  0  0  0  0  0  0  0  0  0  0  0
   -1.8822    3.8633   -0.0045 C   0  0  0  0  0  0  0  0  0  0  0  0
   -1.2665    3.6444    1.3816 C   0  0  0  0  0  0  0  0  0  0  0  0
   -1.4723    3.6060   -2.3769 C   0  0  0  0  0  0  0  0  0  0  0  0
   -2.8747    3.0893   -2.5689 C   0  0  0  0  0  0  0  0  0  0  0  0
   -3.3920    2.4127   -1.7118 O   0  0  0  0  0  0  0  0  0  0  0  0
    5.8307   -3.0664    5.6034 N   0  0  0  0  0  0  0  0  0  0  0  0
    6.4841   -2.4545    6.6812 N   0  0  0  0  0  0  0  0  0  0  0  0
    6.2451   -4.3012    4.9327 C   0  0  0  0  0  0  0  0  0  0  0  0
    7.0291    0.0523   10.6974 H   0  0  0  0  0  0  0  0  0  0  0  0
    5.6202    1.0748   10.3263 H   0  0  0  0  0  0  0  0  0  0  0  0
    5.4693   -0.2574   11.4971 H   0  0  0  0  0  0  0  0  0  0  0  0
    4.4721   -0.8753    9.3125 H   0  0  0  0  0  0  0  0  0  0  0  0
    5.8809   -1.8977    9.6837 H   0  0  0  0  0  0  0  0  0  0  0  0
    7.3071   -0.4476    8.2653 H   0  0  0  0  0  0  0  0  0  0  0  0
    5.8981    0.5750    7.8942 H   0  0  0  0  0  0  0  0  0  0  0  0
    0.7128   -0.2903    3.4664 H   0  0  0  0  0  0  0  0  0  0  0  0
   -1.0049    3.3163    4.9554 H   0  0  0  0  0  0  0  0  0  0  0  0
    0.7659    3.4838    6.6510 H   0  0  0  0  0  0  0  0  0  0  0  0
    2.7376    3.8266    7.2689 H   0  0  0  0  0  0  0  0  0  0  0  0
    1.7428    2.8811    8.4023 H   0  0  0  0  0  0  0  0  0  0  0  0
    3.7972    1.9140    9.3986 H   0  0  0  0  0  0  0  0  0  0  0  0
    4.7920    2.8594    8.2652 H   0  0  0  0  0  0  0  0  0  0  0  0
    3.8558    4.9590    9.1949 H   0  0  0  0  0  0  0  0  0  0  0  0
    2.8610    4.0134   10.3284 H   0  0  0  0  0  0  0  0  0  0  0  0
    4.6354    3.9886   10.4673 H   0  0  0  0  0  0  0  0  0  0  0  0
   -0.2621    0.4382    0.6838 H   0  0  0  0  0  0  0  0  0  0  0  0
    0.7899    1.8634    0.4923 H   0  0  0  0  0  0  0  0  0  0  0  0
   -0.2884    1.3985   -1.6537 H   0  0  0  0  0  0  0  0  0  0  0  0
   -1.8922    1.3692   -0.8818 H   0  0  0  0  0  0  0  0  0  0  0  0
   -1.9862    4.9320   -0.1917 H   0  0  0  0  0  0  0  0  0  0  0  0
   -2.8630    3.3895   -0.0462 H   0  0  0  0  0  0  0  0  0  0  0  0
   -0.3341    4.2034    1.4606 H   0  0  0  0  0  0  0  0  0  0  0  0
   -1.9626    3.9831    2.1490 H   0  0  0  0  0  0  0  0  0  0  0  0
   -1.4630    4.6884   -2.5057 H   0  0  0  0  0  0  0  0  0  0  0  0
   -0.8120    3.1469   -3.1127 H   0  0  0  0  0  0  0  0  0  0  0  0
    6.9180   -4.0597    4.1100 H   0  0  0  0  0  0  0  0  0  0  0  0
    6.7592   -4.9466    5.6451 H   0  0  0  0  0  0  0  0  0  0  0  0
    5.3664   -4.8162    4.5444 H   0  0  0  0  0  0  0  0  0  0  0  0
   -0.9796    3.2821   -1.0221 N   0  3  0  0  0  0  0  0  0  0  0  0
   -0.0420    3.6836   -0.9034 H   0  0  0  0  0  0  0  0  0  0  0  0
   -3.5495    3.3806   -3.6922 O   0  5  0  0  0  0  0  0  0  0  0  0
  1  2  1  0  0  0  0
  1 37  1  0  0  0  0
  1 38  1  0  0  0  0
  1 39  1  0  0  0  0
  2  3  1  0  0  0  0
  2 40  1  0  0  0  0
  2 41  1  0  0  0  0
  3  4  1  0  0  0  0
  3 42  1  0  0  0  0
  3 43  1  0  0  0  0
  4 35  2  0  0  0  0
  4  5  1  0  0  0  0
  5  6  2  0  0  0  0
  5 12  1  0  0  0  0
  6 34  1  0  0  0  0
  6  7  1  0  0  0  0
  7  9  1  0  0  0  0
  7  8  2  0  0  0  0
  9 11  2  0  0  0  0
 10 12  1  0  0  0  0
 11 13  1  0  0  0  0
 11 12  1  0  0  0  0
 13 18  2  0  0  0  0
 13 14  1  0  0  0  0
 14 15  2  0  0  0  0
 14 44  1  0  0  0  0
 15 16  1  0  0  0  0
 15 23  1  0  0  0  0
 16 17  2  0  0  0  0
 16 45  1  0  0  0  0
 17 18  1  0  0  0  0
 17 46  1  0  0  0  0
 18 19  1  0  0  0  0
 19 20  1  0  0  0  0
 20 21  1  0  0  0  0
 20 47  1  0  0  0  0
 20 48  1  0  0  0  0
 21 22  1  0  0  0  0
 21 49  1  0  0  0  0
 21 50  1  0  0  0  0
 22 51  1  0  0  0  0
 22 52  1  0  0  0  0
 22 53  1  0  0  0  0
 23 24  2  0  0  0  0
 23 25  2  0  0  0  0
 23 26  1  0  0  0  0
 26 30  1  0  0  0  0
 26 27  1  0  0  0  0
 27 28  1  0  0  0  0
 27 54  1  0  0  0  0
 27 55  1  0  0  0  0
 28 56  1  0  0  0  0
 28 57  1  0  0  0  0
 28 67  1  0  0  0  0
 29 30  1  0  0  0  0
 29 58  1  0  0  0  0
 29 59  1  0  0  0  0
 29 67  1  0  0  0  0
 30 60  1  0  0  0  0
 30 61  1  0  0  0  0
 31 32  1  0  0  0  0
 31 62  1  0  0  0  0
 31 63  1  0  0  0  0
 31 67  1  0  0  0  0
 32 33  2  0  0  0  0
 32 69  1  0  0  0  0
 34 35  1  0  0  0  0
 34 36  1  0  0  0  0
 36 64  1  0  0  0  0
 36 65  1  0  0  0  0
 36 66  1  0  0  0  0
 67 68  1  0  0  0  0
M  CHG  2  67   1  69  -1
M  END
$$$$
ZINC04199921
  -OEChem-08230709403D

 69 72  0     0  0  0  0  0  0999 V2000
    5.9508    0.0660   10.5687 C   0  0  0  0  0  0  0  0  0  0  0  0
    5.5587   -0.8853    9.4363 C   0  0  0  0  0  0  0  0  0  0  0  0
    6.2270   -0.4334    8.1363 C   0  0  0  0  0  0  0  0  0  0  0  0
    5.8408   -1.3704    7.0209 C   0  0  0  0  0  0  0  0  0  0  0  0
    4.7238   -1.2238    6.1757 C   0  0  0  0  0  0  0  0  0  0  0  0
    4.7392   -2.3063    5.2868 C   0  0  0  0  0  0  0  0  0  0  0  0
    3.7111   -2.4104    4.3214 C   0  0  0  0  0  0  0  0  0  0  0  0
    3.6911   -3.3354    3.5279 O   0  0  0  0  0  0  0  0  0  0  0  0
    2.7587   -1.4519    4.2913 N   0  0  0  0  0  0  0  0  0  0  0  0
    4.4684   -3.9401    3.7014 H   0  0  0  0  0  0  0  0  0  0  0  0
    2.7962   -0.4127    5.1810 C   0  0  0  0  0  0  0  0  0  0  0  0
    3.7387   -0.3074    6.0862 N   0  0  0  0  0  0  0  0  0  0  0  0
    1.7438    0.6210    5.1195 C   0  0  0  0  0  0  0  0  0  0  0  0
    0.7296    0.5342    4.1637 C   0  0  0  0  0  0  0  0  0  0  0  0
   -0.2474    1.5052    4.1081 C   0  0  0  0  0  0  0  0  0  0  0  0
   -0.2336    2.5619    5.0032 C   0  0  0  0  0  0  0  0  0  0  0  0
    0.7615    2.6568    5.9564 C   0  0  0  0  0  0  0  0  0  0  0  0
    1.7544    1.6916    6.0229 C   0  0  0  0  0  0  0  0  0  0  0  0
    2.7331    1.7838    6.9589 O   0  0  0  0  0  0  0  0  0  0  0  0
    2.6794    2.9032    7.8455 C   0  0  0  0  0  0  0  0  0  0  0  0
    3.8551    2.8370    8.8223 C   0  0  0  0  0  0  0  0  0  0  0  0
    3.7975    4.0355    9.7717 C   0  0  0  0  0  0  0  0  0  0  0  0
   -1.5232    1.3976    2.8976 S   0  0  0  0  0  0  0  0  0  0  0  0
   -2.6284    2.1320    3.4060 O   0  0  0  0  0  0  0  0  0  0  0  0
   -1.6218    0.0281    2.5321 O   0  0  0  0  0  0  0  0  0  0  0  0
   -0.9935    2.2089    1.5546 N   0  0  0  0  0  0  0  0  0  0  0  0
   -0.2420    1.5125    0.4995 C   0  0  0  0  0  0  0  0  0  0  0  0
   -0.8979    1.8153   -0.8519 C   0  0  0  0  0  0  0  0  0  0  0  0
   -1.8821    3.8635   -0.0044 C   0  0  0  0  0  0  0  0  0  0  0  0
   -1.2665    3.6445    1.3817 C   0  0  0  0  0  0  0  0  0  0  0  0
   -1.4721    3.6063   -2.3768 C   0  0  0  0  0  0  0  0  0  0  0  0
   -2.8746    3.0895   -2.5689 C   0  0  0  0  0  0  0  0  0  0  0  0
   -3.3918    2.4129   -1.7119 O   0  0  0  0  0  0  0  0  0  0  0  0
    5.8328   -3.0645    5.6010 N   0  0  0  0  0  0  0  0  0  0  0  0
    6.4871   -2.4517    6.6777 N   0  0  0  0  0  0  0  0  0  0  0  0
    6.2471   -4.2993    4.9303 C   0  0  0  0  0  0  0  0  0  0  0  0
    7.0335    0.0551   10.6938 H   0  0  0  0  0  0  0  0  0  0  0  0
    5.6234    1.0765   10.3240 H   0  0  0  0  0  0  0  0  0  0  0  0
    5.4747   -0.2559   11.4948 H   0  0  0  0  0  0  0  0  0  0  0  0
    4.4760   -0.8743    9.3110 H   0  0  0  0  0  0  0  0  0  0  0  0
    5.8860   -1.8957    9.6810 H   0  0  0  0  0  0  0  0  0  0  0  0
    7.3097   -0.4444    8.2614 H   0  0  0  0  0  0  0  0  0  0  0  0
    5.8997    0.5771    7.8916 H   0  0  0  0  0  0  0  0  0  0  0  0
    0.7128   -0.2903    3.4664 H   0  0  0  0  0  0  0  0  0  0  0  0
   -1.0049    3.3163    4.9555 H   0  0  0  0  0  0  0  0  0  0  0  0
    0.7658    3.4837    6.6512 H   0  0  0  0  0  0  0  0  0  0  0  0
    2.7374    3.8265    7.2691 H   0  0  0  0  0  0  0  0  0  0  0  0
    1.7426    2.8809    8.4024 H   0  0  0  0  0  0  0  0  0  0  0  0
    3.7970    1.9138    9.3988 H   0  0  0  0  0  0  0  0  0  0  0  0
    4.7918    2.8593    8.2654 H   0  0  0  0  0  0  0  0  0  0  0  0
    3.8556    4.9588    9.1952 H   0  0  0  0  0  0  0  0  0  0  0  0
    2.8607    4.0132   10.3286 H   0  0  0  0  0  0  0  0  0  0  0  0
    4.6352    3.9884   10.4676 H   0  0  0  0  0  0  0  0  0  0  0  0
   -0.2620    0.4384    0.6837 H   0  0  0  0  0  0  0  0  0  0  0  0
    0.7900    1.8635    0.4924 H   0  0  0  0  0  0  0  0  0  0  0  0
   -0.2882    1.3988   -1.6537 H   0  0  0  0  0  0  0  0  0  0  0  0
   -1.8921    1.3694   -0.8818 H   0  0  0  0  0  0  0  0  0  0  0  0
   -1.9861    4.9322   -0.1915 H   0  0  0  0  0  0  0  0  0  0  0  0
   -2.8629    3.3896   -0.0462 H   0  0  0  0  0  0  0  0  0  0  0  0
   -0.3341    4.2036    1.4607 H   0  0  0  0  0  0  0  0  0  0  0  0
   -1.9626    3.9832    2.1491 H   0  0  0  0  0  0  0  0  0  0  0  0
   -1.4628    4.6887   -2.5056 H   0  0  0  0  0  0  0  0  0  0  0  0
   -0.8118    3.1472   -3.1126 H   0  0  0  0  0  0  0  0  0  0  0  0
    6.9188   -4.0576    4.1066 H   0  0  0  0  0  0  0  0  0  0  0  0
    6.7627   -4.9440    5.6422 H   0  0  0  0  0  0  0  0  0  0  0  0
    5.3684   -4.8150    4.5433 H   0  0  0  0  0  0  0  0  0  0  0  0
   -0.9795    3.2823   -1.0220 N   0  3  0  0  0  0  0  0  0  0  0  0
   -0.0419    3.6838   -0.9033 H   0  0  0  0  0  0  0  0  0  0  0  0
   -3.5493    3.3808   -3.6922 O   0  5  0  0  0  0  0  0  0  0  0  0
  1  2  1  0  0  0  0
  1 37  1  0  0  0  0
  1 38  1  0  0  0  0
  1 39  1  0  0  0  0
  2  3  1  0  0  0  0
  2 40  1  0  0  0  0
  2 41  1  0  0  0  0
  3  4  1  0  0  0  0
  3 42  1  0  0  0  0
  3 43  1  0  0  0  0
  4 35  2  0  0  0  0
  4  5  1  0  0  0  0
  5  6  2  0  0  0  0
  5 12  1  0  0  0  0
  6 34  1  0  0  0  0
  6  7  1  0  0  0  0
  7  9  2  0  0  0  0
  7  8  1  0  0  0  0
  8 10  1  0  0  0  0
  9 11  1  0  0  0  0
 11 13  1  0  0  0  0
 11 12  2  0  0  0  0
 13 18  2  0  0  0  0
 13 14  1  0  0  0  0
 14 15  2  0  0  0  0
 14 44  1  0  0  0  0
 15 16  1  0  0  0  0
 15 23  1  0  0  0  0
 16 17  2  0  0  0  0
 16 45  1  0  0  0  0
 17 18  1  0  0  0  0
 17 46  1  0  0  0  0
 18 19  1  0  0  0  0
 19 20  1  0  0  0  0
 20 21  1  0  0  0  0
 20 47  1  0  0  0  0
 20 48  1  0  0  0  0
 21 22  1  0  0  0  0
 21 49  1  0  0  0  0
 21 50  1  0  0  0  0
 22 51  1  0  0  0  0
 22 52  1  0  0  0  0
 22 53  1  0  0  0  0
 23 24  2  0  0  0  0
 23 25  2  0  0  0  0
 23 26  1  0  0  0  0
 26 30  1  0  0  0  0
 26 27  1  0  0  0  0
 27 28  1  0  0  0  0
 27 54  1  0  0  0  0
 27 55  1  0  0  0  0
 28 56  1  0  0  0  0
 28 57  1  0  0  0  0
 28 67  1  0  0  0  0
 29 30  1  0  0  0  0
 29 58  1  0  0  0  0
 29 59  1  0  0  0  0
 29 67  1  0  0  0  0
 30 60  1  0  0  0  0
 30 61  1  0  0  0  0
 31 32  1  0  0  0  0
 31 62  1  0  0  0  0
 31 63  1  0  0  0  0
 31 67  1  0  0  0  0
 32 33  2  0  0  0  0
 32 69  1  0  0  0  0
 34 35  1  0  0  0  0
 34 36  1  0  0  0  0
 36 64  1  0  0  0  0
 36 65  1  0  0  0  0
 36 66  1  0  0  0  0
 67 68  1  0  0  0  0
M  CHG  2  67   1  69  -1
M  END
$$$$
ZINC04199922
  -OEChem-08230709403D

 43 45  0     0  0  0  0  0  0999 V2000
   -0.0366    1.0992   -2.4903 C   0  0  0  0  0  0  0  0  0  0  0  0
   -0.7527    1.5927   -1.2315 C   0  0  0  0  0  0  0  0  0  0  0  0
   -0.0127    1.0858    0.0080 C   0  0  0  0  0  0  0  0  0  0  0  0
   -0.7181    1.5718    1.2479 C   0  0  0  0  0  0  0  0  0  0  0  0
   -1.6792    0.9333    1.8731 N   0  0  0  0  0  0  0  0  0  0  0  0
   -2.0791    1.6416    2.9301 C   0  0  0  0  0  0  0  0  0  0  0  0
   -1.3236    2.7873    2.9653 C   0  0  0  0  0  0  0  0  0  0  0  0
   -0.4575    2.7212    1.8873 N   0  0  0  0  0  0  0  0  0  0  0  0
    0.4363    3.7734    1.6691 N   0  0  0  0  0  0  0  0  0  0  0  0
    0.4733    4.8020    2.4664 C   0  0  0  0  0  0  0  0  0  0  0  0
   -0.3605    4.9215    3.5598 N   0  0  0  0  0  0  0  0  0  0  0  0
   -0.2981    5.7294    4.1457 H   0  0  0  0  0  0  0  0  0  0  0  0
   -1.2610    3.9540    3.8443 C   0  0  0  0  0  0  0  0  0  0  0  0
   -2.0005    4.0519    4.8066 O   0  0  0  0  0  0  0  0  0  0  0  0
    1.4435    5.8816    2.1903 C   0  0  0  0  0  0  0  0  0  0  0  0
    1.5078    6.9976    3.0258 C   0  0  0  0  0  0  0  0  0  0  0  0
    2.4158    8.0018    2.7633 C   0  0  0  0  0  0  0  0  0  0  0  0
    3.2647    7.9078    1.6735 C   0  0  0  0  0  0  0  0  0  0  0  0
    3.2106    6.8080    0.8391 C   0  0  0  0  0  0  0  0  0  0  0  0
    2.3074    5.7877    1.0922 C   0  0  0  0  0  0  0  0  0  0  0  0
    2.2572    4.7037    0.2762 O   0  0  0  0  0  0  0  0  0  0  0  0
    3.1688    4.6771   -0.8240 C   0  0  0  0  0  0  0  0  0  0  0  0
    2.9655    3.3888   -1.6238 C   0  0  0  0  0  0  0  0  0  0  0  0
   -3.1605    1.2552    3.9061 C   0  0  0  0  0  0  0  0  0  0  0  0
    0.9860    1.4765   -2.4981 H   0  0  0  0  0  0  0  0  0  0  0  0
   -0.0218    0.0093   -2.4963 H   0  0  0  0  0  0  0  0  0  0  0  0
   -0.5637    1.4603   -3.3734 H   0  0  0  0  0  0  0  0  0  0  0  0
   -1.7753    1.2154   -1.2238 H   0  0  0  0  0  0  0  0  0  0  0  0
   -0.7675    2.6825   -1.2255 H   0  0  0  0  0  0  0  0  0  0  0  0
    0.0021   -0.0041    0.0020 H   0  0  0  0  0  0  0  0  0  0  0  0
    1.0099    1.4631    0.0003 H   0  0  0  0  0  0  0  0  0  0  0  0
    0.8471    7.0749    3.8766 H   0  0  0  0  0  0  0  0  0  0  0  0
    2.4651    8.8649    3.4105 H   0  0  0  0  0  0  0  0  0  0  0  0
    3.9732    8.6983    1.4749 H   0  0  0  0  0  0  0  0  0  0  0  0
    3.8756    6.7415   -0.0093 H   0  0  0  0  0  0  0  0  0  0  0  0
    2.9862    5.5373   -1.4680 H   0  0  0  0  0  0  0  0  0  0  0  0
    4.1917    4.7145   -0.4492 H   0  0  0  0  0  0  0  0  0  0  0  0
    3.1481    2.5286   -0.9798 H   0  0  0  0  0  0  0  0  0  0  0  0
    1.9426    3.3514   -1.9985 H   0  0  0  0  0  0  0  0  0  0  0  0
    3.6608    3.3685   -2.4630 H   0  0  0  0  0  0  0  0  0  0  0  0
   -2.7235    0.6841    4.7252 H   0  0  0  0  0  0  0  0  0  0  0  0
   -3.6316    2.1552    4.3014 H   0  0  0  0  0  0  0  0  0  0  0  0
   -3.9085    0.6470    3.3975 H   0  0  0  0  0  0  0  0  0  0  0  0
  1  2  1  0  0  0  0
  1 25  1  0  0  0  0
  1 26  1  0  0  0  0
  1 27  1  0  0  0  0
  2  3  1  0  0  0  0
  2 28  1  0  0  0  0
  2 29  1  0  0  0  0
  3  4  1  0  0  0  0
  3 30  1  0  0  0  0
  3 31  1  0  0  0  0
  4  8  1  0  0  0  0
  4  5  2  0  0  0  0
  5  6  1  0  0  0  0
  6  7  2  0  0  0  0
  6 24  1  0  0  0  0
  7 13  1  0  0  0  0
  7  8  1  0  0  0  0
  8  9  1  0  0  0  0
  9 10  2  0  0  0  0
 10 11  1  0  0  0  0
 10 15  1  0  0  0  0
 11 12  1  0  0  0  0
 11 13  1  0  0  0  0
 13 14  2  0  0  0  0
 15 20  2  0  0  0  0
 15 16  1  0  0  0  0
 16 17  2  0  0  0  0
 16 32  1  0  0  0  0
 17 18  1  0  0  0  0
 17 33  1  0  0  0  0
 18 19  2  0  0  0  0
 18 34  1  0  0  0  0
 19 20  1  0  0  0  0
 19 35  1  0  0  0  0
 20 21  1  0  0  0  0
 21 22  1  0  0  0  0
 22 23  1  0  0  0  0
 22 36  1  0  0  0  0
 22 37  1  0  0  0  0
 23 38  1  0  0  0  0
 23 39  1  0  0  0  0
 23 40  1  0  0  0  0
 24 41  1  0  0  0  0
 24 42  1  0  0  0  0
 24 43  1  0  0  0  0
M  END
$$$$
ZINC04199922
  -OEChem-08230709403D

 43 45  0     0  0  0  0  0  0999 V2000
   -0.0366    1.0992   -2.4903 C   0  0  0  0  0  0  0  0  0  0  0  0
   -0.7527    1.5927   -1.2315 C   0  0  0  0  0  0  0  0  0  0  0  0
   -0.0127    1.0858    0.0080 C   0  0  0  0  0  0  0  0  0  0  0  0
   -0.7181    1.5718    1.2479 C   0  0  0  0  0  0  0  0  0  0  0  0
   -1.6792    0.9333    1.8731 N   0  0  0  0  0  0  0  0  0  0  0  0
   -2.0791    1.6416    2.9301 C   0  0  0  0  0  0  0  0  0  0  0  0
   -1.3236    2.7873    2.9653 C   0  0  0  0  0  0  0  0  0  0  0  0
   -0.4575    2.7212    1.8873 N   0  0  0  0  0  0  0  0  0  0  0  0
    0.4363    3.7734    1.6691 N   0  0  0  0  0  0  0  0  0  0  0  0
    0.4733    4.8020    2.4664 C   0  0  0  0  0  0  0  0  0  0  0  0
   -0.3605    4.9215    3.5598 N   0  0  0  0  0  0  0  0  0  0  0  0
   -0.2981    5.7294    4.1457 H   0  0  0  0  0  0  0  0  0  0  0  0
   -1.2610    3.9540    3.8443 C   0  0  0  0  0  0  0  0  0  0  0  0
   -2.0005    4.0519    4.8066 O   0  0  0  0  0  0  0  0  0  0  0  0
    1.4435    5.8816    2.1903 C   0  0  0  0  0  0  0  0  0  0  0  0
    1.5078    6.9976    3.0258 C   0  0  0  0  0  0  0  0  0  0  0  0
    2.4158    8.0018    2.7633 C   0  0  0  0  0  0  0  0  0  0  0  0
    3.2647    7.9078    1.6735 C   0  0  0  0  0  0  0  0  0  0  0  0
    3.2106    6.8080    0.8391 C   0  0  0  0  0  0  0  0  0  0  0  0
    2.3074    5.7877    1.0922 C   0  0  0  0  0  0  0  0  0  0  0  0
    2.2572    4.7037    0.2762 O   0  0  0  0  0  0  0  0  0  0  0  0
    3.1688    4.6771   -0.8240 C   0  0  0  0  0  0  0  0  0  0  0  0
    2.9655    3.3888   -1.6238 C   0  0  0  0  0  0  0  0  0  0  0  0
   -3.1605    1.2552    3.9061 C   0  0  0  0  0  0  0  0  0  0  0  0
    0.9860    1.4765   -2.4981 H   0  0  0  0  0  0  0  0  0  0  0  0
   -0.0218    0.0093   -2.4963 H   0  0  0  0  0  0  0  0  0  0  0  0
   -0.5637    1.4603   -3.3734 H   0  0  0  0  0  0  0  0  0  0  0  0
   -1.7753    1.2154   -1.2238 H   0  0  0  0  0  0  0  0  0  0  0  0
   -0.7675    2.6825   -1.2255 H   0  0  0  0  0  0  0  0  0  0  0  0
    0.0021   -0.0041    0.0020 H   0  0  0  0  0  0  0  0  0  0  0  0
    1.0099    1.4631    0.0003 H   0  0  0  0  0  0  0  0  0  0  0  0
    0.8471    7.0749    3.8766 H   0  0  0  0  0  0  0  0  0  0  0  0
    2.4651    8.8649    3.4105 H   0  0  0  0  0  0  0  0  0  0  0  0
    3.9732    8.6983    1.4749 H   0  0  0  0  0  0  0  0  0  0  0  0
    3.8756    6.7415   -0.0093 H   0  0  0  0  0  0  0  0  0  0  0  0
    2.9862    5.5373   -1.4680 H   0  0  0  0  0  0  0  0  0  0  0  0
    4.1917    4.7145   -0.4492 H   0  0  0  0  0  0  0  0  0  0  0  0
    3.1481    2.5286   -0.9798 H   0  0  0  0  0  0  0  0  0  0  0  0
    1.9426    3.3514   -1.9985 H   0  0  0  0  0  0  0  0  0  0  0  0
    3.6608    3.3685   -2.4630 H   0  0  0  0  0  0  0  0  0  0  0  0
   -2.7235    0.6841    4.7252 H   0  0  0  0  0  0  0  0  0  0  0  0
   -3.6316    2.1552    4.3014 H   0  0  0  0  0  0  0  0  0  0  0  0
   -3.9085    0.6470    3.3975 H   0  0  0  0  0  0  0  0  0  0  0  0
  1  2  1  0  0  0  0
  1 25  1  0  0  0  0
  1 26  1  0  0  0  0
  1 27  1  0  0  0  0
  2  3  1  0  0  0  0
  2 28  1  0  0  0  0
  2 29  1  0  0  0  0
  3  4  1  0  0  0  0
  3 30  1  0  0  0  0
  3 31  1  0  0  0  0
  4  8  1  0  0  0  0
  4  5  2  0  0  0  0
  5  6  1  0  0  0  0
  6  7  2  0  0  0  0
  6 24  1  0  0  0  0
  7 13  1  0  0  0  0
  7  8  1  0  0  0  0
  8  9  1  0  0  0  0
  9 10  2  0  0  0  0
 10 11  1  0  0  0  0
 10 15  1  0  0  0  0
 11 12  1  0  0  0  0
 11 13  1  0  0  0  0
 13 14  2  0  0  0  0
 15 20  2  0  0  0  0
 15 16  1  0  0  0  0
 16 17  2  0  0  0  0
 16 32  1  0  0  0  0
 17 18  1  0  0  0  0
 17 33  1  0  0  0  0
 18 19  2  0  0  0  0
 18 34  1  0  0  0  0
 19 20  1  0  0  0  0
 19 35  1  0  0  0  0
 20 21  1  0  0  0  0
 21 22  1  0  0  0  0
 22 23  1  0  0  0  0
 22 36  1  0  0  0  0
 22 37  1  0  0  0  0
 23 38  1  0  0  0  0
 23 39  1  0  0  0  0
 23 40  1  0  0  0  0
 24 41  1  0  0  0  0
 24 42  1  0  0  0  0
 24 43  1  0  0  0  0
M  END
$$$$
ZINC04199923
  -OEChem-08230709403D

 50 52  0     0  0  0  0  0  0999 V2000
   -1.2058    6.8838    2.9357 C   0  0  0  0  0  0  0  0  0  0  0  0
   -1.0084    5.3666    2.9300 C   0  0  0  0  0  0  0  0  0  0  0  0
   -0.7648    4.8787    4.3595 C   0  0  0  0  0  0  0  0  0  0  0  0
   -2.2607    4.6915    2.3671 C   0  0  0  0  0  0  0  0  0  0  0  0
   -2.0276    3.2499    2.2502 N   0  0  0  0  0  0  0  0  0  0  0  0
   -2.3339    2.4109    3.3106 C   0  0  0  0  0  0  0  0  0  0  0  0
   -2.1023    1.0458    3.1734 C   0  0  0  0  0  0  0  0  0  0  0  0
   -1.5649    0.5581    1.9643 C   0  0  0  0  0  0  0  0  0  0  0  0
   -1.3530   -0.6329    1.8205 O   0  0  0  0  0  0  0  0  0  0  0  0
   -1.2877    1.4252    0.9686 N   0  0  0  0  0  0  0  0  0  0  0  0
   -1.5109    2.7425    1.1153 C   0  0  0  0  0  0  0  0  0  0  0  0
   -1.2440    3.4945    0.1978 O   0  0  0  0  0  0  0  0  0  0  0  0
   -0.7294    0.9241   -0.2897 C   0  0  0  0  0  0  0  0  0  0  0  0
   -2.4924    0.4607    4.3636 N   0  0  0  0  0  0  0  0  0  0  0  0
   -2.4544   -0.5125    4.5903 H   0  0  0  0  0  0  0  0  0  0  0  0
   -2.9385    1.4653    5.1680 C   0  0  0  0  0  0  0  0  0  0  0  0
   -2.8371    2.6139    4.5274 N   0  0  0  0  0  0  0  0  0  0  0  0
   -3.4547    1.2952    6.5407 C   0  0  0  0  0  0  0  0  0  0  0  0
   -3.5150    0.0242    7.1156 C   0  0  0  0  0  0  0  0  0  0  0  0
   -3.9981   -0.1280    8.3978 C   0  0  0  0  0  0  0  0  0  0  0  0
   -4.4243    0.9748    9.1190 C   0  0  0  0  0  0  0  0  0  0  0  0
   -4.3699    2.2375    8.5616 C   0  0  0  0  0  0  0  0  0  0  0  0
   -3.8815    2.4089    7.2756 C   0  0  0  0  0  0  0  0  0  0  0  0
   -3.8219    3.6500    6.7289 O   0  0  0  0  0  0  0  0  0  0  0  0
   -4.3886    4.7207    7.4869 C   0  0  0  0  0  0  0  0  0  0  0  0
   -3.3546    5.2401    8.4878 C   0  0  0  0  0  0  0  0  0  0  0  0
   -4.7981    5.8529    6.5428 C   0  0  0  0  0  0  0  0  0  0  0  0
   -2.0650    7.1361    3.5571 H   0  0  0  0  0  0  0  0  0  0  0  0
   -0.3136    7.3648    3.3367 H   0  0  0  0  0  0  0  0  0  0  0  0
   -1.3793    7.2314    1.9173 H   0  0  0  0  0  0  0  0  0  0  0  0
   -0.1492    5.1143    2.3086 H   0  0  0  0  0  0  0  0  0  0  0  0
   -0.6242    3.7978    4.3555 H   0  0  0  0  0  0  0  0  0  0  0  0
    0.1274    5.3596    4.7605 H   0  0  0  0  0  0  0  0  0  0  0  0
   -1.6241    5.1310    4.9809 H   0  0  0  0  0  0  0  0  0  0  0  0
   -2.4851    5.1042    1.3836 H   0  0  0  0  0  0  0  0  0  0  0  0
   -3.1020    4.8703    3.0367 H   0  0  0  0  0  0  0  0  0  0  0  0
   -0.6119   -0.1579   -0.2297 H   0  0  0  0  0  0  0  0  0  0  0  0
    0.2422    1.3858   -0.4655 H   0  0  0  0  0  0  0  0  0  0  0  0
   -1.4030    1.1714   -1.1102 H   0  0  0  0  0  0  0  0  0  0  0  0
   -3.1839   -0.8384    6.5565 H   0  0  0  0  0  0  0  0  0  0  0  0
   -4.0440   -1.1114    8.8419 H   0  0  0  0  0  0  0  0  0  0  0  0
   -4.8018    0.8468   10.1228 H   0  0  0  0  0  0  0  0  0  0  0  0
   -4.7041    3.0928    9.1300 H   0  0  0  0  0  0  0  0  0  0  0  0
   -5.2658    4.3607    8.0245 H   0  0  0  0  0  0  0  0  0  0  0  0
   -2.4774    5.6001    7.9502 H   0  0  0  0  0  0  0  0  0  0  0  0
   -3.7869    6.0568    9.0659 H   0  0  0  0  0  0  0  0  0  0  0  0
   -3.0628    4.4335    9.1604 H   0  0  0  0  0  0  0  0  0  0  0  0
   -5.5347    5.4828    5.8297 H   0  0  0  0  0  0  0  0  0  0  0  0
   -5.2304    6.6696    7.1209 H   0  0  0  0  0  0  0  0  0  0  0  0
   -3.9209    6.2129    6.0052 H   0  0  0  0  0  0  0  0  0  0  0  0
  1  2  1  0  0  0  0
  1 28  1  0  0  0  0
  1 29  1  0  0  0  0
  1 30  1  0  0  0  0
  2  3  1  0  0  0  0
  2  4  1  0  0  0  0
  2 31  1  0  0  0  0
  3 32  1  0  0  0  0
  3 33  1  0  0  0  0
  3 34  1  0  0  0  0
  4  5  1  0  0  0  0
  4 35  1  0  0  0  0
  4 36  1  0  0  0  0
  5 11  1  0  0  0  0
  5  6  1  0  0  0  0
  6 17  1  0  0  0  0
  6  7  2  0  0  0  0
  7  8  1  0  0  0  0
  7 14  1  0  0  0  0
  8  9  2  0  0  0  0
  8 10  1  0  0  0  0
 10 11  1  0  0  0  0
 10 13  1  0  0  0  0
 11 12  2  0  0  0  0
 13 37  1  0  0  0  0
 13 38  1  0  0  0  0
 13 39  1  0  0  0  0
 14 15  1  0  0  0  0
 14 16  1  0  0  0  0
 16 17  2  0  0  0  0
 16 18  1  0  0  0  0
 18 23  2  0  0  0  0
 18 19  1  0  0  0  0
 19 20  2  0  0  0  0
 19 40  1  0  0  0  0
 20 21  1  0  0  0  0
 20 41  1  0  0  0  0
 21 22  2  0  0  0  0
 21 42  1  0  0  0  0
 22 23  1  0  0  0  0
 22 43  1  0  0  0  0
 23 24  1  0  0  0  0
 24 25  1  0  0  0  0
 25 26  1  0  0  0  0
 25 27  1  0  0  0  0
 25 44  1  0  0  0  0
 26 45  1  0  0  0  0
 26 46  1  0  0  0  0
 26 47  1  0  0  0  0
 27 48  1  0  0  0  0
 27 49  1  0  0  0  0
 27 50  1  0  0  0  0
M  END
$$$$
ZINC04199923
  -OEChem-08230709403D

 50 52  0     0  0  0  0  0  0999 V2000
   -1.2058    6.8838    2.9357 C   0  0  0  0  0  0  0  0  0  0  0  0
   -1.0084    5.3666    2.9300 C   0  0  0  0  0  0  0  0  0  0  0  0
   -0.7648    4.8787    4.3595 C   0  0  0  0  0  0  0  0  0  0  0  0
   -2.2607    4.6915    2.3671 C   0  0  0  0  0  0  0  0  0  0  0  0
   -2.0276    3.2499    2.2502 N   0  0  0  0  0  0  0  0  0  0  0  0
   -2.3339    2.4109    3.3106 C   0  0  0  0  0  0  0  0  0  0  0  0
   -2.1023    1.0458    3.1734 C   0  0  0  0  0  0  0  0  0  0  0  0
   -1.5649    0.5581    1.9643 C   0  0  0  0  0  0  0  0  0  0  0  0
   -1.3530   -0.6329    1.8205 O   0  0  0  0  0  0  0  0  0  0  0  0
   -1.2877    1.4252    0.9686 N   0  0  0  0  0  0  0  0  0  0  0  0
   -1.5109    2.7425    1.1153 C   0  0  0  0  0  0  0  0  0  0  0  0
   -1.2440    3.4945    0.1978 O   0  0  0  0  0  0  0  0  0  0  0  0
   -0.7294    0.9241   -0.2897 C   0  0  0  0  0  0  0  0  0  0  0  0
   -2.4924    0.4607    4.3636 N   0  0  0  0  0  0  0  0  0  0  0  0
   -2.4544   -0.5125    4.5903 H   0  0  0  0  0  0  0  0  0  0  0  0
   -2.9385    1.4653    5.1680 C   0  0  0  0  0  0  0  0  0  0  0  0
   -2.8371    2.6139    4.5274 N   0  0  0  0  0  0  0  0  0  0  0  0
   -3.4547    1.2952    6.5407 C   0  0  0  0  0  0  0  0  0  0  0  0
   -3.5150    0.0242    7.1156 C   0  0  0  0  0  0  0  0  0  0  0  0
   -3.9981   -0.1280    8.3978 C   0  0  0  0  0  0  0  0  0  0  0  0
   -4.4243    0.9748    9.1190 C   0  0  0  0  0  0  0  0  0  0  0  0
   -4.3699    2.2375    8.5616 C   0  0  0  0  0  0  0  0  0  0  0  0
   -3.8815    2.4089    7.2756 C   0  0  0  0  0  0  0  0  0  0  0  0
   -3.8219    3.6500    6.7289 O   0  0  0  0  0  0  0  0  0  0  0  0
   -4.3886    4.7207    7.4869 C   0  0  0  0  0  0  0  0  0  0  0  0
   -3.3546    5.2401    8.4878 C   0  0  0  0  0  0  0  0  0  0  0  0
   -4.7981    5.8529    6.5428 C   0  0  0  0  0  0  0  0  0  0  0  0
   -2.0650    7.1361    3.5571 H   0  0  0  0  0  0  0  0  0  0  0  0
   -0.3136    7.3648    3.3367 H   0  0  0  0  0  0  0  0  0  0  0  0
   -1.3793    7.2314    1.9173 H   0  0  0  0  0  0  0  0  0  0  0  0
   -0.1492    5.1143    2.3086 H   0  0  0  0  0  0  0  0  0  0  0  0
   -0.6242    3.7978    4.3555 H   0  0  0  0  0  0  0  0  0  0  0  0
    0.1274    5.3596    4.7605 H   0  0  0  0  0  0  0  0  0  0  0  0
   -1.6241    5.1310    4.9809 H   0  0  0  0  0  0  0  0  0  0  0  0
   -2.4851    5.1042    1.3836 H   0  0  0  0  0  0  0  0  0  0  0  0
   -3.1020    4.8703    3.0367 H   0  0  0  0  0  0  0  0  0  0  0  0
   -0.6119   -0.1579   -0.2297 H   0  0  0  0  0  0  0  0  0  0  0  0
    0.2422    1.3858   -0.4655 H   0  0  0  0  0  0  0  0  0  0  0  0
   -1.4030    1.1714   -1.1102 H   0  0  0  0  0  0  0  0  0  0  0  0
   -3.1839   -0.8384    6.5565 H   0  0  0  0  0  0  0  0  0  0  0  0
   -4.0440   -1.1114    8.8419 H   0  0  0  0  0  0  0  0  0  0  0  0
   -4.8018    0.8468   10.1228 H   0  0  0  0  0  0  0  0  0  0  0  0
   -4.7041    3.0928    9.1300 H   0  0  0  0  0  0  0  0  0  0  0  0
   -5.2658    4.3607    8.0245 H   0  0  0  0  0  0  0  0  0  0  0  0
   -2.4774    5.6001    7.9502 H   0  0  0  0  0  0  0  0  0  0  0  0
   -3.7869    6.0568    9.0659 H   0  0  0  0  0  0  0  0  0  0  0  0
   -3.0628    4.4335    9.1604 H   0  0  0  0  0  0  0  0  0  0  0  0
   -5.5347    5.4828    5.8297 H   0  0  0  0  0  0  0  0  0  0  0  0
   -5.2304    6.6696    7.1209 H   0  0  0  0  0  0  0  0  0  0  0  0
   -3.9209    6.2129    6.0052 H   0  0  0  0  0  0  0  0  0  0  0  0
  1  2  1  0  0  0  0
  1 28  1  0  0  0  0
  1 29  1  0  0  0  0
  1 30  1  0  0  0  0
  2  3  1  0  0  0  0
  2  4  1  0  0  0  0
  2 31  1  0  0  0  0
  3 32  1  0  0  0  0
  3 33  1  0  0  0  0
  3 34  1  0  0  0  0
  4  5  1  0  0  0  0
  4 35  1  0  0  0  0
  4 36  1  0  0  0  0
  5 11  1  0  0  0  0
  5  6  1  0  0  0  0
  6 17  1  0  0  0  0
  6  7  2  0  0  0  0
  7  8  1  0  0  0  0
  7 14  1  0  0  0  0
  8  9  2  0  0  0  0
  8 10  1  0  0  0  0
 10 11  1  0  0  0  0
 10 13  1  0  0  0  0
 11 12  2  0  0  0  0
 13 37  1  0  0  0  0
 13 38  1  0  0  0  0
 13 39  1  0  0  0  0
 14 15  1  0  0  0  0
 14 16  1  0  0  0  0
 16 17  2  0  0  0  0
 16 18  1  0  0  0  0
 18 23  2  0  0  0  0
 18 19  1  0  0  0  0
 19 20  2  0  0  0  0
 19 40  1  0  0  0  0
 20 21  1  0  0  0  0
 20 41  1  0  0  0  0
 21 22  2  0  0  0  0
 21 42  1  0  0  0  0
 22 23  1  0  0  0  0
 22 43  1  0  0  0  0
 23 24  1  0  0  0  0
 24 25  1  0  0  0  0
 25 26  1  0  0  0  0
 25 27  1  0  0  0  0
 25 44  1  0  0  0  0
 26 45  1  0  0  0  0
 26 46  1  0  0  0  0
 26 47  1  0  0  0  0
 27 48  1  0  0  0  0
 27 49  1  0  0  0  0
 27 50  1  0  0  0  0
M  END
$$$$
ZINC04199924
  -OEChem-08230709403D

 55 57  0     0  0  0  0  0  0999 V2000
   -0.0366    1.0992   -2.4903 C   0  0  0  0  0  0  0  0  0  0  0  0
   -0.7527    1.5927   -1.2315 C   0  0  0  0  0  0  0  0  0  0  0  0
   -0.0127    1.0858    0.0080 C   0  0  0  0  0  0  0  0  0  0  0  0
   -0.6816    1.5467    1.1837 O   0  0  0  0  0  0  0  0  0  0  0  0
   -0.1494    1.1825    2.3782 C   0  0  0  0  0  0  0  0  0  0  0  0
    0.9894    0.3934    2.4213 C   0  0  0  0  0  0  0  0  0  0  0  0
    1.5333    0.0283    3.6375 C   0  0  0  0  0  0  0  0  0  0  0  0
    0.9405    0.4369    4.8205 C   0  0  0  0  0  0  0  0  0  0  0  0
   -0.1957    1.2173    4.7955 C   0  0  0  0  0  0  0  0  0  0  0  0
   -0.7521    1.5979    3.5727 C   0  0  0  0  0  0  0  0  0  0  0  0
   -1.9690    2.4332    3.5389 C   0  0  0  0  0  0  0  0  0  0  0  0
   -2.6420    2.8901    4.6313 N   0  0  0  0  0  0  0  0  0  0  0  0
   -2.4081    2.7226    5.5890 H   0  0  0  0  0  0  0  0  0  0  0  0
   -3.7109    3.6300    4.1609 C   0  0  0  0  0  0  0  0  0  0  0  0
   -3.6435    3.5810    2.7720 C   0  0  0  0  0  0  0  0  0  0  0  0
   -2.5788    2.8495    2.4459 N   0  0  0  0  0  0  0  0  0  0  0  0
   -4.6115    4.2435    2.0329 N   0  0  0  0  0  0  0  0  0  0  0  0
   -5.5935    4.9194    2.6584 C   0  0  0  0  0  0  0  0  0  0  0  0
   -6.4334    5.4946    1.9933 O   0  0  0  0  0  0  0  0  0  0  0  0
   -5.6694    4.9741    3.9992 N   0  0  0  0  0  0  0  0  0  0  0  0
   -4.7576    4.3498    4.7731 C   0  0  0  0  0  0  0  0  0  0  0  0
   -4.8375    4.4075    5.9874 O   0  0  0  0  0  0  0  0  0  0  0  0
   -6.7587    5.7237    4.6299 C   0  0  0  0  0  0  0  0  0  0  0  0
   -4.5651    4.2087    0.5690 C   0  0  0  0  0  0  0  0  0  0  0  0
   -5.3649    3.0071    0.0618 C   0  0  0  0  0  0  0  0  0  0  0  0
   -6.8419    3.1914    0.4157 C   0  0  0  0  0  0  0  0  0  0  0  0
   -5.2140    2.8983   -1.4568 C   0  0  0  0  0  0  0  0  0  0  0  0
    1.6419   -0.0423    6.3643 S   0  0  0  0  0  0  0  0  0  0  0  0
    3.0143   -0.3171    6.1190 O   0  0  0  0  0  0  0  0  0  0  0  0
    1.2165    0.9198    7.3197 O   0  0  0  0  0  0  0  0  0  0  0  0
    0.9411   -1.4794    6.7955 N   0  0  0  0  0  0  0  0  0  0  0  0
   -0.0218    0.0093   -2.4963 H   0  0  0  0  0  0  0  0  0  0  0  0
   -0.5637    1.4603   -3.3734 H   0  0  0  0  0  0  0  0  0  0  0  0
    0.9860    1.4765   -2.4981 H   0  0  0  0  0  0  0  0  0  0  0  0
   -1.7753    1.2154   -1.2238 H   0  0  0  0  0  0  0  0  0  0  0  0
   -0.7675    2.6825   -1.2255 H   0  0  0  0  0  0  0  0  0  0  0  0
    0.0021   -0.0041    0.0020 H   0  0  0  0  0  0  0  0  0  0  0  0
    1.0099    1.4631    0.0003 H   0  0  0  0  0  0  0  0  0  0  0  0
    1.4546    0.0673    1.5028 H   0  0  0  0  0  0  0  0  0  0  0  0
    2.4230   -0.5832    3.6659 H   0  0  0  0  0  0  0  0  0  0  0  0
   -0.6546    1.5340    5.7205 H   0  0  0  0  0  0  0  0  0  0  0  0
   -6.6631    5.6607    5.7138 H   0  0  0  0  0  0  0  0  0  0  0  0
   -6.7078    6.7677    4.3208 H   0  0  0  0  0  0  0  0  0  0  0  0
   -7.7155    5.3005    4.3242 H   0  0  0  0  0  0  0  0  0  0  0  0
   -4.9963    5.1268    0.1700 H   0  0  0  0  0  0  0  0  0  0  0  0
   -3.5295    4.1209    0.2403 H   0  0  0  0  0  0  0  0  0  0  0  0
   -4.9898    2.0971    0.5303 H   0  0  0  0  0  0  0  0  0  0  0  0
   -7.2169    4.1014   -0.0527 H   0  0  0  0  0  0  0  0  0  0  0  0
   -7.4117    2.3354    0.0544 H   0  0  0  0  0  0  0  0  0  0  0  0
   -6.9494    3.2689    1.4976 H   0  0  0  0  0  0  0  0  0  0  0  0
   -4.1617    2.7670   -1.7089 H   0  0  0  0  0  0  0  0  0  0  0  0
   -5.7838    2.0423   -1.8182 H   0  0  0  0  0  0  0  0  0  0  0  0
   -5.5890    3.8083   -1.9253 H   0  0  0  0  0  0  0  0  0  0  0  0
    1.4374   -2.1206    7.3279 H   0  0  0  0  0  0  0  0  0  0  0  0
    0.0343   -1.6800    6.5156 H   0  0  0  0  0  0  0  0  0  0  0  0
  1  2  1  0  0  0  0
  1 32  1  0  0  0  0
  1 33  1  0  0  0  0
  1 34  1  0  0  0  0
  2  3  1  0  0  0  0
  2 35  1  0  0  0  0
  2 36  1  0  0  0  0
  3  4  1  0  0  0  0
  3 37  1  0  0  0  0
  3 38  1  0  0  0  0
  4  5  1  0  0  0  0
  5 10  2  0  0  0  0
  5  6  1  0  0  0  0
  6  7  2  0  0  0  0
  6 39  1  0  0  0  0
  7  8  1  0  0  0  0
  7 40  1  0  0  0  0
  8  9  2  0  0  0  0
  8 28  1  0  0  0  0
  9 10  1  0  0  0  0
  9 41  1  0  0  0  0
 10 11  1  0  0  0  0
 11 16  2  0  0  0  0
 11 12  1  0  0  0  0
 12 13  1  0  0  0  0
 12 14  1  0  0  0  0
 14 21  1  0  0  0  0
 14 15  2  0  0  0  0
 15 16  1  0  0  0  0
 15 17  1  0  0  0  0
 17 18  1  0  0  0  0
 17 24  1  0  0  0  0
 18 19  2  0  0  0  0
 18 20  1  0  0  0  0
 20 21  1  0  0  0  0
 20 23  1  0  0  0  0
 21 22  2  0  0  0  0
 23 42  1  0  0  0  0
 23 43  1  0  0  0  0
 23 44  1  0  0  0  0
 24 25  1  0  0  0  0
 24 45  1  0  0  0  0
 24 46  1  0  0  0  0
 25 26  1  0  0  0  0
 25 27  1  0  0  0  0
 25 47  1  0  0  0  0
 26 48  1  0  0  0  0
 26 49  1  0  0  0  0
 26 50  1  0  0  0  0
 27 51  1  0  0  0  0
 27 52  1  0  0  0  0
 27 53  1  0  0  0  0
 28 29  2  0  0  0  0
 28 30  2  0  0  0  0
 28 31  1  0  0  0  0
 31 54  1  0  0  0  0
 31 55  1  0  0  0  0
M  END
$$$$
ZINC04199924
  -OEChem-08230709403D

 55 57  0     0  0  0  0  0  0999 V2000
   -0.0366    1.0992   -2.4903 C   0  0  0  0  0  0  0  0  0  0  0  0
   -0.7527    1.5927   -1.2315 C   0  0  0  0  0  0  0  0  0  0  0  0
   -0.0127    1.0858    0.0080 C   0  0  0  0  0  0  0  0  0  0  0  0
   -0.6816    1.5467    1.1837 O   0  0  0  0  0  0  0  0  0  0  0  0
   -0.1494    1.1825    2.3782 C   0  0  0  0  0  0  0  0  0  0  0  0
    0.9894    0.3934    2.4213 C   0  0  0  0  0  0  0  0  0  0  0  0
    1.5333    0.0283    3.6375 C   0  0  0  0  0  0  0  0  0  0  0  0
    0.9405    0.4369    4.8205 C   0  0  0  0  0  0  0  0  0  0  0  0
   -0.1957    1.2173    4.7955 C   0  0  0  0  0  0  0  0  0  0  0  0
   -0.7521    1.5979    3.5727 C   0  0  0  0  0  0  0  0  0  0  0  0
   -1.9690    2.4332    3.5389 C   0  0  0  0  0  0  0  0  0  0  0  0
   -2.6420    2.8901    4.6313 N   0  0  0  0  0  0  0  0  0  0  0  0
   -2.4081    2.7226    5.5890 H   0  0  0  0  0  0  0  0  0  0  0  0
   -3.7109    3.6300    4.1609 C   0  0  0  0  0  0  0  0  0  0  0  0
   -3.6435    3.5810    2.7720 C   0  0  0  0  0  0  0  0  0  0  0  0
   -2.5788    2.8495    2.4459 N   0  0  0  0  0  0  0  0  0  0  0  0
   -4.6115    4.2435    2.0329 N   0  0  0  0  0  0  0  0  0  0  0  0
   -5.5935    4.9194    2.6584 C   0  0  0  0  0  0  0  0  0  0  0  0
   -6.4334    5.4946    1.9933 O   0  0  0  0  0  0  0  0  0  0  0  0
   -5.6694    4.9741    3.9992 N   0  0  0  0  0  0  0  0  0  0  0  0
   -4.7576    4.3498    4.7731 C   0  0  0  0  0  0  0  0  0  0  0  0
   -4.8375    4.4075    5.9874 O   0  0  0  0  0  0  0  0  0  0  0  0
   -6.7587    5.7237    4.6299 C   0  0  0  0  0  0  0  0  0  0  0  0
   -4.5651    4.2087    0.5690 C   0  0  0  0  0  0  0  0  0  0  0  0
   -5.3649    3.0071    0.0618 C   0  0  0  0  0  0  0  0  0  0  0  0
   -6.8419    3.1914    0.4157 C   0  0  0  0  0  0  0  0  0  0  0  0
   -5.2140    2.8983   -1.4568 C   0  0  0  0  0  0  0  0  0  0  0  0
    1.6419   -0.0423    6.3643 S   0  0  0  0  0  0  0  0  0  0  0  0
    3.0143   -0.3171    6.1190 O   0  0  0  0  0  0  0  0  0  0  0  0
    1.2165    0.9198    7.3197 O   0  0  0  0  0  0  0  0  0  0  0  0
    0.9411   -1.4794    6.7955 N   0  0  0  0  0  0  0  0  0  0  0  0
   -0.0218    0.0093   -2.4963 H   0  0  0  0  0  0  0  0  0  0  0  0
   -0.5637    1.4603   -3.3734 H   0  0  0  0  0  0  0  0  0  0  0  0
    0.9860    1.4765   -2.4981 H   0  0  0  0  0  0  0  0  0  0  0  0
   -1.7753    1.2154   -1.2238 H   0  0  0  0  0  0  0  0  0  0  0  0
   -0.7675    2.6825   -1.2255 H   0  0  0  0  0  0  0  0  0  0  0  0
    0.0021   -0.0041    0.0020 H   0  0  0  0  0  0  0  0  0  0  0  0
    1.0099    1.4631    0.0003 H   0  0  0  0  0  0  0  0  0  0  0  0
    1.4546    0.0673    1.5028 H   0  0  0  0  0  0  0  0  0  0  0  0
    2.4230   -0.5832    3.6659 H   0  0  0  0  0  0  0  0  0  0  0  0
   -0.6546    1.5340    5.7205 H   0  0  0  0  0  0  0  0  0  0  0  0
   -6.6631    5.6607    5.7138 H   0  0  0  0  0  0  0  0  0  0  0  0
   -6.7078    6.7677    4.3208 H   0  0  0  0  0  0  0  0  0  0  0  0
   -7.7155    5.3005    4.3242 H   0  0  0  0  0  0  0  0  0  0  0  0
   -4.9963    5.1268    0.1700 H   0  0  0  0  0  0  0  0  0  0  0  0
   -3.5295    4.1209    0.2403 H   0  0  0  0  0  0  0  0  0  0  0  0
   -4.9898    2.0971    0.5303 H   0  0  0  0  0  0  0  0  0  0  0  0
   -7.2169    4.1014   -0.0527 H   0  0  0  0  0  0  0  0  0  0  0  0
   -7.4117    2.3354    0.0544 H   0  0  0  0  0  0  0  0  0  0  0  0
   -6.9494    3.2689    1.4976 H   0  0  0  0  0  0  0  0  0  0  0  0
   -4.1617    2.7670   -1.7089 H   0  0  0  0  0  0  0  0  0  0  0  0
   -5.7838    2.0423   -1.8182 H   0  0  0  0  0  0  0  0  0  0  0  0
   -5.5890    3.8083   -1.9253 H   0  0  0  0  0  0  0  0  0  0  0  0
    1.4374   -2.1206    7.3279 H   0  0  0  0  0  0  0  0  0  0  0  0
    0.0343   -1.6800    6.5156 H   0  0  0  0  0  0  0  0  0  0  0  0
  1  2  1  0  0  0  0
  1 32  1  0  0  0  0
  1 33  1  0  0  0  0
  1 34  1  0  0  0  0
  2  3  1  0  0  0  0
  2 35  1  0  0  0  0
  2 36  1  0  0  0  0
  3  4  1  0  0  0  0
  3 37  1  0  0  0  0
  3 38  1  0  0  0  0
  4  5  1  0  0  0  0
  5 10  2  0  0  0  0
  5  6  1  0  0  0  0
  6  7  2  0  0  0  0
  6 39  1  0  0  0  0
  7  8  1  0  0  0  0
  7 40  1  0  0  0  0
  8  9  2  0  0  0  0
  8 28  1  0  0  0  0
  9 10  1  0  0  0  0
  9 41  1  0  0  0  0
 10 11  1  0  0  0  0
 11 16  2  0  0  0  0
 11 12  1  0  0  0  0
 12 13  1  0  0  0  0
 12 14  1  0  0  0  0
 14 21  1  0  0  0  0
 14 15  2  0  0  0  0
 15 16  1  0  0  0  0
 15 17  1  0  0  0  0
 17 18  1  0  0  0  0
 17 24  1  0  0  0  0
 18 19  2  0  0  0  0
 18 20  1  0  0  0  0
 20 21  1  0  0  0  0
 20 23  1  0  0  0  0
 21 22  2  0  0  0  0
 23 42  1  0  0  0  0
 23 43  1  0  0  0  0
 23 44  1  0  0  0  0
 24 25  1  0  0  0  0
 24 45  1  0  0  0  0
 24 46  1  0  0  0  0
 25 26  1  0  0  0  0
 25 27  1  0  0  0  0
 25 47  1  0  0  0  0
 26 48  1  0  0  0  0
 26 49  1  0  0  0  0
 26 50  1  0  0  0  0
 27 51  1  0  0  0  0
 27 52  1  0  0  0  0
 27 53  1  0  0  0  0
 28 29  2  0  0  0  0
 28 30  2  0  0  0  0
 28 31  1  0  0  0  0
 31 54  1  0  0  0  0
 31 55  1  0  0  0  0
M  END
$$$$
ZINC04199925
  -OEChem-08230709403D

 58 61  0     0  0  0  0  0  0999 V2000
   -0.1381   -1.3534    7.0169 C   0  0  0  0  0  0  0  0  0  0  0  0
    1.2801   -1.7782    6.6306 C   0  0  0  0  0  0  0  0  0  0  0  0
    1.2298   -3.0569    5.9176 N   0  0  0  0  0  0  0  0  0  0  0  0
    1.0974   -3.0757    4.5384 C   0  0  0  0  0  0  0  0  0  0  0  0
    1.0517   -4.3033    3.8864 C   0  0  0  0  0  0  0  0  0  0  0  0
    1.1412   -5.4857    4.6420 C   0  0  0  0  0  0  0  0  0  0  0  0
    1.1033   -6.5725    4.0917 O   0  0  0  0  0  0  0  0  0  0  0  0
    1.2690   -5.4046    5.9825 N   0  0  0  0  0  0  0  0  0  0  0  0
    1.3117   -4.2129    6.6030 C   0  0  0  0  0  0  0  0  0  0  0  0
    1.4276   -4.1780    7.8130 O   0  0  0  0  0  0  0  0  0  0  0  0
    1.3621   -6.6338    6.7741 C   0  0  0  0  0  0  0  0  0  0  0  0
   -0.0413   -7.0819    7.1873 C   0  0  0  0  0  0  0  0  0  0  0  0
    0.9115   -4.0225    2.5338 N   0  0  0  0  0  0  0  0  0  0  0  0
    0.8864   -2.6686    2.4157 C   0  0  0  0  0  0  0  0  0  0  0  0
    0.9942   -2.1231    3.6103 N   0  0  0  0  0  0  0  0  0  0  0  0
    0.7619   -1.9757    1.2335 N   0  0  0  0  0  0  0  0  0  0  0  0
    0.7421   -0.5109    1.2415 C   0  0  0  0  0  0  0  0  0  0  0  0
    0.0021   -0.0041    0.0020 C   0  0  0  0  0  0  0  0  0  0  0  0
   -0.0187    1.5258    0.0104 C   0  0  0  0  0  0  0  0  0  0  0  0
    1.4167    2.0553   -0.0004 C   0  0  0  0  0  0  0  0  0  0  0  0
    2.1567    1.5485    1.2391 C   0  0  0  0  0  0  0  0  0  0  0  0
    2.1775    0.0187    1.2307 C   0  0  0  0  0  0  0  0  0  0  0  0
    0.8131   -4.9970    1.4444 C   0  0  0  0  0  0  0  0  0  0  0  0
    2.1932   -5.3177    0.9310 C   0  0  0  0  0  0  0  0  0  0  0  0
    2.7372   -4.5745   -0.0999 C   0  0  0  0  0  0  0  0  0  0  0  0
    4.0050   -4.8655   -0.5675 C   0  0  0  0  0  0  0  0  0  0  0  0
    4.7248   -5.9064   -0.0113 C   0  0  0  0  0  0  0  0  0  0  0  0
    4.1788   -6.6529    1.0161 C   0  0  0  0  0  0  0  0  0  0  0  0
    2.9130   -6.3585    1.4872 C   0  0  0  0  0  0  0  0  0  0  0  0
   -0.5815   -2.1119    7.6620 H   0  0  0  0  0  0  0  0  0  0  0  0
   -0.1006   -0.4020    7.5474 H   0  0  0  0  0  0  0  0  0  0  0  0
   -0.7425   -1.2438    6.1165 H   0  0  0  0  0  0  0  0  0  0  0  0
    1.8846   -1.8878    7.5310 H   0  0  0  0  0  0  0  0  0  0  0  0
    1.7236   -1.0197    5.9855 H   0  0  0  0  0  0  0  0  0  0  0  0
    1.8321   -7.4155    6.1773 H   0  0  0  0  0  0  0  0  0  0  0  0
    1.9611   -6.4474    7.6655 H   0  0  0  0  0  0  0  0  0  0  0  0
   -0.6403   -7.2682    6.2959 H   0  0  0  0  0  0  0  0  0  0  0  0
    0.0280   -7.9965    7.7762 H   0  0  0  0  0  0  0  0  0  0  0  0
   -0.5113   -6.3002    7.7840 H   0  0  0  0  0  0  0  0  0  0  0  0
    0.6873   -2.4572    0.3947 H   0  0  0  0  0  0  0  0  0  0  0  0
    0.2319   -0.1594    2.1383 H   0  0  0  0  0  0  0  0  0  0  0  0
   -1.0205   -0.3814    0.0098 H   0  0  0  0  0  0  0  0  0  0  0  0
    0.5123   -0.3556   -0.8948 H   0  0  0  0  0  0  0  0  0  0  0  0
   -0.5459    1.8868   -0.8726 H   0  0  0  0  0  0  0  0  0  0  0  0
   -0.5289    1.8773    0.9072 H   0  0  0  0  0  0  0  0  0  0  0  0
    1.9269    1.7038   -0.8972 H   0  0  0  0  0  0  0  0  0  0  0  0
    1.4019    3.1452    0.0056 H   0  0  0  0  0  0  0  0  0  0  0  0
    1.6465    1.9000    2.1359 H   0  0  0  0  0  0  0  0  0  0  0  0
    3.1793    1.9258    1.2314 H   0  0  0  0  0  0  0  0  0  0  0  0
    2.7046   -0.3424    2.1137 H   0  0  0  0  0  0  0  0  0  0  0  0
    2.6876   -0.3328    0.3339 H   0  0  0  0  0  0  0  0  0  0  0  0
    0.3419   -5.9081    1.8133 H   0  0  0  0  0  0  0  0  0  0  0  0
    0.2129   -4.5791    0.6362 H   0  0  0  0  0  0  0  0  0  0  0  0
    2.1730   -3.7641   -0.5374 H   0  0  0  0  0  0  0  0  0  0  0  0
    4.4315   -4.2825   -1.3704 H   0  0  0  0  0  0  0  0  0  0  0  0
    5.7136   -6.1366   -0.3796 H   0  0  0  0  0  0  0  0  0  0  0  0
    4.7410   -7.4664    1.4504 H   0  0  0  0  0  0  0  0  0  0  0  0
    2.4863   -6.9420    2.2897 H   0  0  0  0  0  0  0  0  0  0  0  0
  1  2  1  0  0  0  0
  1 30  1  0  0  0  0
  1 31  1  0  0  0  0
  1 32  1  0  0  0  0
  2  3  1  0  0  0  0
  2 33  1  0  0  0  0
  2 34  1  0  0  0  0
  3  9  1  0  0  0  0
  3  4  1  0  0  0  0
  4 15  1  0  0  0  0
  4  5  2  0  0  0  0
  5  6  1  0  0  0  0
  5 13  1  0  0  0  0
  6  7  2  0  0  0  0
  6  8  1  0  0  0  0
  8  9  1  0  0  0  0
  8 11  1  0  0  0  0
  9 10  2  0  0  0  0
 11 12  1  0  0  0  0
 11 35  1  0  0  0  0
 11 36  1  0  0  0  0
 12 37  1  0  0  0  0
 12 38  1  0  0  0  0
 12 39  1  0  0  0  0
 13 14  1  0  0  0  0
 13 23  1  0  0  0  0
 14 15  2  0  0  0  0
 14 16  1  0  0  0  0
 16 17  1  0  0  0  0
 16 40  1  0  0  0  0
 17 22  1  0  0  0  0
 17 18  1  0  0  0  0
 17 41  1  0  0  0  0
 18 19  1  0  0  0  0
 18 42  1  0  0  0  0
 18 43  1  0  0  0  0
 19 20  1  0  0  0  0
 19 44  1  0  0  0  0
 19 45  1  0  0  0  0
 20 21  1  0  0  0  0
 20 46  1  0  0  0  0
 20 47  1  0  0  0  0
 21 22  1  0  0  0  0
 21 48  1  0  0  0  0
 21 49  1  0  0  0  0
 22 50  1  0  0  0  0
 22 51  1  0  0  0  0
 23 24  1  0  0  0  0
 23 52  1  0  0  0  0
 23 53  1  0  0  0  0
 24 29  2  0  0  0  0
 24 25  1  0  0  0  0
 25 26  2  0  0  0  0
 25 54  1  0  0  0  0
 26 27  1  0  0  0  0
 26 55  1  0  0  0  0
 27 28  2  0  0  0  0
 27 56  1  0  0  0  0
 28 29  1  0  0  0  0
 28 57  1  0  0  0  0
 29 58  1  0  0  0  0
M  END
$$$$
ZINC04199925
  -OEChem-08230709403D

 58 61  0     0  0  0  0  0  0999 V2000
   -0.1381   -1.3534    7.0169 C   0  0  0  0  0  0  0  0  0  0  0  0
    1.2801   -1.7782    6.6306 C   0  0  0  0  0  0  0  0  0  0  0  0
    1.2298   -3.0569    5.9176 N   0  0  0  0  0  0  0  0  0  0  0  0
    1.0974   -3.0757    4.5384 C   0  0  0  0  0  0  0  0  0  0  0  0
    1.0517   -4.3033    3.8864 C   0  0  0  0  0  0  0  0  0  0  0  0
    1.1412   -5.4857    4.6420 C   0  0  0  0  0  0  0  0  0  0  0  0
    1.1033   -6.5725    4.0917 O   0  0  0  0  0  0  0  0  0  0  0  0
    1.2690   -5.4046    5.9825 N   0  0  0  0  0  0  0  0  0  0  0  0
    1.3117   -4.2129    6.6030 C   0  0  0  0  0  0  0  0  0  0  0  0
    1.4276   -4.1780    7.8130 O   0  0  0  0  0  0  0  0  0  0  0  0
    1.3621   -6.6338    6.7741 C   0  0  0  0  0  0  0  0  0  0  0  0
   -0.0413   -7.0819    7.1873 C   0  0  0  0  0  0  0  0  0  0  0  0
    0.9115   -4.0225    2.5338 N   0  0  0  0  0  0  0  0  0  0  0  0
    0.8864   -2.6686    2.4157 C   0  0  0  0  0  0  0  0  0  0  0  0
    0.9942   -2.1231    3.6103 N   0  0  0  0  0  0  0  0  0  0  0  0
    0.7619   -1.9757    1.2335 N   0  0  0  0  0  0  0  0  0  0  0  0
    0.7421   -0.5109    1.2415 C   0  0  0  0  0  0  0  0  0  0  0  0
    0.0021   -0.0041    0.0020 C   0  0  0  0  0  0  0  0  0  0  0  0
   -0.0187    1.5258    0.0104 C   0  0  0  0  0  0  0  0  0  0  0  0
    1.4167    2.0553   -0.0004 C   0  0  0  0  0  0  0  0  0  0  0  0
    2.1567    1.5485    1.2391 C   0  0  0  0  0  0  0  0  0  0  0  0
    2.1775    0.0187    1.2307 C   0  0  0  0  0  0  0  0  0  0  0  0
    0.8131   -4.9970    1.4444 C   0  0  0  0  0  0  0  0  0  0  0  0
    2.1932   -5.3177    0.9310 C   0  0  0  0  0  0  0  0  0  0  0  0
    2.7372   -4.5745   -0.0999 C   0  0  0  0  0  0  0  0  0  0  0  0
    4.0050   -4.8655   -0.5675 C   0  0  0  0  0  0  0  0  0  0  0  0
    4.7248   -5.9064   -0.0113 C   0  0  0  0  0  0  0  0  0  0  0  0
    4.1788   -6.6529    1.0161 C   0  0  0  0  0  0  0  0  0  0  0  0
    2.9130   -6.3585    1.4872 C   0  0  0  0  0  0  0  0  0  0  0  0
   -0.5815   -2.1119    7.6620 H   0  0  0  0  0  0  0  0  0  0  0  0
   -0.1006   -0.4020    7.5474 H   0  0  0  0  0  0  0  0  0  0  0  0
   -0.7425   -1.2438    6.1165 H   0  0  0  0  0  0  0  0  0  0  0  0
    1.8846   -1.8878    7.5310 H   0  0  0  0  0  0  0  0  0  0  0  0
    1.7236   -1.0197    5.9855 H   0  0  0  0  0  0  0  0  0  0  0  0
    1.8321   -7.4155    6.1773 H   0  0  0  0  0  0  0  0  0  0  0  0
    1.9611   -6.4474    7.6655 H   0  0  0  0  0  0  0  0  0  0  0  0
   -0.6403   -7.2682    6.2959 H   0  0  0  0  0  0  0  0  0  0  0  0
    0.0280   -7.9965    7.7762 H   0  0  0  0  0  0  0  0  0  0  0  0
   -0.5113   -6.3002    7.7840 H   0  0  0  0  0  0  0  0  0  0  0  0
    0.6873   -2.4572    0.3947 H   0  0  0  0  0  0  0  0  0  0  0  0
    0.2319   -0.1594    2.1383 H   0  0  0  0  0  0  0  0  0  0  0  0
   -1.0205   -0.3814    0.0098 H   0  0  0  0  0  0  0  0  0  0  0  0
    0.5123   -0.3556   -0.8948 H   0  0  0  0  0  0  0  0  0  0  0  0
   -0.5459    1.8868   -0.8726 H   0  0  0  0  0  0  0  0  0  0  0  0
   -0.5289    1.8773    0.9072 H   0  0  0  0  0  0  0  0  0  0  0  0
    1.9269    1.7038   -0.8972 H   0  0  0  0  0  0  0  0  0  0  0  0
    1.4019    3.1452    0.0056 H   0  0  0  0  0  0  0  0  0  0  0  0
    1.6465    1.9000    2.1359 H   0  0  0  0  0  0  0  0  0  0  0  0
    3.1793    1.9258    1.2314 H   0  0  0  0  0  0  0  0  0  0  0  0
    2.7046   -0.3424    2.1137 H   0  0  0  0  0  0  0  0  0  0  0  0
    2.6876   -0.3328    0.3339 H   0  0  0  0  0  0  0  0  0  0  0  0
    0.3419   -5.9081    1.8133 H   0  0  0  0  0  0  0  0  0  0  0  0
    0.2129   -4.5791    0.6362 H   0  0  0  0  0  0  0  0  0  0  0  0
    2.1730   -3.7641   -0.5374 H   0  0  0  0  0  0  0  0  0  0  0  0
    4.4315   -4.2825   -1.3704 H   0  0  0  0  0  0  0  0  0  0  0  0
    5.7136   -6.1366   -0.3796 H   0  0  0  0  0  0  0  0  0  0  0  0
    4.7410   -7.4664    1.4504 H   0  0  0  0  0  0  0  0  0  0  0  0
    2.4863   -6.9420    2.2897 H   0  0  0  0  0  0  0  0  0  0  0  0
  1  2  1  0  0  0  0
  1 30  1  0  0  0  0
  1 31  1  0  0  0  0
  1 32  1  0  0  0  0
  2  3  1  0  0  0  0
  2 33  1  0  0  0  0
  2 34  1  0  0  0  0
  3  9  1  0  0  0  0
  3  4  1  0  0  0  0
  4 15  1  0  0  0  0
  4  5  2  0  0  0  0
  5  6  1  0  0  0  0
  5 13  1  0  0  0  0
  6  7  2  0  0  0  0
  6  8  1  0  0  0  0
  8  9  1  0  0  0  0
  8 11  1  0  0  0  0
  9 10  2  0  0  0  0
 11 12  1  0  0  0  0
 11 35  1  0  0  0  0
 11 36  1  0  0  0  0
 12 37  1  0  0  0  0
 12 38  1  0  0  0  0
 12 39  1  0  0  0  0
 13 14  1  0  0  0  0
 13 23  1  0  0  0  0
 14 15  2  0  0  0  0
 14 16  1  0  0  0  0
 16 17  1  0  0  0  0
 16 40  1  0  0  0  0
 17 22  1  0  0  0  0
 17 18  1  0  0  0  0
 17 41  1  0  0  0  0
 18 19  1  0  0  0  0
 18 42  1  0  0  0  0
 18 43  1  0  0  0  0
 19 20  1  0  0  0  0
 19 44  1  0  0  0  0
 19 45  1  0  0  0  0
 20 21  1  0  0  0  0
 20 46  1  0  0  0  0
 20 47  1  0  0  0  0
 21 22  1  0  0  0  0
 21 48  1  0  0  0  0
 21 49  1  0  0  0  0
 22 50  1  0  0  0  0
 22 51  1  0  0  0  0
 23 24  1  0  0  0  0
 23 52  1  0  0  0  0
 23 53  1  0  0  0  0
 24 29  2  0  0  0  0
 24 25  1  0  0  0  0
 25 26  2  0  0  0  0
 25 54  1  0  0  0  0
 26 27  1  0  0  0  0
 26 55  1  0  0  0  0
 27 28  2  0  0  0  0
 27 56  1  0  0  0  0
 28 29  1  0  0  0  0
 28 57  1  0  0  0  0
 29 58  1  0  0  0  0
M  END
$$$$
ZINC04199926
  -OEChem-08230709403D

 61 65  0     0  0  0  0  0  0999 V2000
   -0.9917    6.5011   -1.3997 C   0  0  0  0  0  0  0  0  0  0  0  0
   -1.1397    6.0102    0.0418 C   0  0  0  0  0  0  0  0  0  0  0  0
   -1.6004    4.6195    0.0393 N   0  0  0  0  0  0  0  0  0  0  0  0
   -0.6788    3.5849    0.0265 C   0  0  0  0  0  0  0  0  0  0  0  0
   -1.1431    2.2740    0.0191 C   0  0  0  0  0  0  0  0  0  0  0  0
   -2.5290    2.0366    0.0234 C   0  0  0  0  0  0  0  0  0  0  0  0
   -2.9583    0.8960    0.0201 O   0  0  0  0  0  0  0  0  0  0  0  0
   -3.3784    3.0846    0.0318 N   0  0  0  0  0  0  0  0  0  0  0  0
   -2.9192    4.3479    0.0360 C   0  0  0  0  0  0  0  0  0  0  0  0
   -3.7142    5.2680    0.0431 O   0  0  0  0  0  0  0  0  0  0  0  0
   -4.8232    2.8423    0.0369 C   0  0  0  0  0  0  0  0  0  0  0  0
   -5.3201    2.7514    1.4811 C   0  0  0  0  0  0  0  0  0  0  0  0
   -0.0178    1.4608    0.0101 N   0  0  0  0  0  0  0  0  0  0  0  0
    1.0619    2.2866    0.0042 C   0  0  0  0  0  0  0  0  0  0  0  0
    0.6544    3.5396    0.0140 N   0  0  0  0  0  0  0  0  0  0  0  0
    2.3756    1.8778   -0.0098 N   0  0  0  0  0  0  0  0  0  0  0  0
    3.4520    2.8716   -0.0149 C   0  0  0  0  0  0  0  0  0  0  0  0
    3.7283    3.3169   -1.4523 C   0  0  0  0  0  0  0  0  0  0  0  0
    4.8524    4.3548   -1.4576 C   0  0  0  0  0  0  0  0  0  0  0  0
    6.1195    3.7372   -0.8625 C   0  0  0  0  0  0  0  0  0  0  0  0
    5.8432    3.2919    0.5749 C   0  0  0  0  0  0  0  0  0  0  0  0
    4.7191    2.2540    0.5802 C   0  0  0  0  0  0  0  0  0  0  0  0
    0.0021   -0.0041    0.0020 C   0  0  0  0  0  0  0  0  0  0  0  0
    0.0218   -0.5140    1.4200 C   0  0  0  0  0  0  0  0  0  0  0  0
   -1.1671   -0.7637    2.0799 C   0  0  0  0  0  0  0  0  0  0  0  0
   -1.1542   -1.2320    3.3804 C   0  0  0  0  0  0  0  0  0  0  0  0
    0.0517   -1.4518    4.0262 C   0  0  0  0  0  0  0  0  0  0  0  0
    1.2494   -1.2002    3.3615 C   0  0  0  0  0  0  0  0  0  0  0  0
    1.2288   -0.7365    2.0561 C   0  0  0  0  0  0  0  0  0  0  0  0
    2.2845   -1.4923    4.2020 O   0  0  0  0  0  0  0  0  0  0  0  0
    1.7164   -2.3106    5.2416 C   0  0  0  0  0  0  0  0  0  0  0  0
    0.3365   -1.9016    5.2832 O   0  0  0  0  0  0  0  0  0  0  0  0
   -1.9552    6.4385   -1.9056 H   0  0  0  0  0  0  0  0  0  0  0  0
   -0.6489    7.5357   -1.3979 H   0  0  0  0  0  0  0  0  0  0  0  0
   -0.2657    5.8787   -1.9228 H   0  0  0  0  0  0  0  0  0  0  0  0
   -1.8657    6.6326    0.5649 H   0  0  0  0  0  0  0  0  0  0  0  0
   -0.1762    6.0728    0.5476 H   0  0  0  0  0  0  0  0  0  0  0  0
   -5.3310    3.6622   -0.4711 H   0  0  0  0  0  0  0  0  0  0  0  0
   -5.0365    1.9067   -0.4803 H   0  0  0  0  0  0  0  0  0  0  0  0
   -6.3950    2.5710    1.4849 H   0  0  0  0  0  0  0  0  0  0  0  0
   -4.8123    1.9314    1.9891 H   0  0  0  0  0  0  0  0  0  0  0  0
   -5.1068    3.6869    1.9983 H   0  0  0  0  0  0  0  0  0  0  0  0
    2.5891    0.9316   -0.0164 H   0  0  0  0  0  0  0  0  0  0  0  0
    3.1534    3.7337    0.5816 H   0  0  0  0  0  0  0  0  0  0  0  0
    4.0269    2.4548   -2.0487 H   0  0  0  0  0  0  0  0  0  0  0  0
    2.8256    3.7568   -1.8762 H   0  0  0  0  0  0  0  0  0  0  0  0
    4.5538    5.2169   -0.8611 H   0  0  0  0  0  0  0  0  0  0  0  0
    5.0492    4.6720   -2.4816 H   0  0  0  0  0  0  0  0  0  0  0  0
    6.9203    4.4766   -0.8662 H   0  0  0  0  0  0  0  0  0  0  0  0
    6.4181    2.8751   -1.4589 H   0  0  0  0  0  0  0  0  0  0  0  0
    5.5446    4.1540    1.1713 H   0  0  0  0  0  0  0  0  0  0  0  0
    6.7459    2.8519    0.9989 H   0  0  0  0  0  0  0  0  0  0  0  0
    4.5222    1.9368    1.6043 H   0  0  0  0  0  0  0  0  0  0  0  0
    5.0177    1.3919   -0.0162 H   0  0  0  0  0  0  0  0  0  0  0  0
   -0.8875   -0.3767   -0.5057 H   0  0  0  0  0  0  0  0  0  0  0  0
    0.8922   -0.3525   -0.5218 H   0  0  0  0  0  0  0  0  0  0  0  0
   -2.1081   -0.5922    1.5783 H   0  0  0  0  0  0  0  0  0  0  0  0
   -2.0845   -1.4262    3.8935 H   0  0  0  0  0  0  0  0  0  0  0  0
    2.1561   -0.5448    1.5367 H   0  0  0  0  0  0  0  0  0  0  0  0
    1.7952   -3.3668    4.9838 H   0  0  0  0  0  0  0  0  0  0  0  0
    2.2040   -2.1109    6.1958 H   0  0  0  0  0  0  0  0  0  0  0  0
  1  2  1  0  0  0  0
  1 33  1  0  0  0  0
  1 34  1  0  0  0  0
  1 35  1  0  0  0  0
  2  3  1  0  0  0  0
  2 36  1  0  0  0  0
  2 37  1  0  0  0  0
  3  9  1  0  0  0  0
  3  4  1  0  0  0  0
  4 15  1  0  0  0  0
  4  5  2  0  0  0  0
  5  6  1  0  0  0  0
  5 13  1  0  0  0  0
  6  7  2  0  0  0  0
  6  8  1  0  0  0  0
  8  9  1  0  0  0  0
  8 11  1  0  0  0  0
  9 10  2  0  0  0  0
 11 12  1  0  0  0  0
 11 38  1  0  0  0  0
 11 39  1  0  0  0  0
 12 40  1  0  0  0  0
 12 41  1  0  0  0  0
 12 42  1  0  0  0  0
 13 14  1  0  0  0  0
 13 23  1  0  0  0  0
 14 15  2  0  0  0  0
 14 16  1  0  0  0  0
 16 17  1  0  0  0  0
 16 43  1  0  0  0  0
 17 22  1  0  0  0  0
 17 18  1  0  0  0  0
 17 44  1  0  0  0  0
 18 19  1  0  0  0  0
 18 45  1  0  0  0  0
 18 46  1  0  0  0  0
 19 20  1  0  0  0  0
 19 47  1  0  0  0  0
 19 48  1  0  0  0  0
 20 21  1  0  0  0  0
 20 49  1  0  0  0  0
 20 50  1  0  0  0  0
 21 22  1  0  0  0  0
 21 51  1  0  0  0  0
 21 52  1  0  0  0  0
 22 53  1  0  0  0  0
 22 54  1  0  0  0  0
 23 24  1  0  0  0  0
 23 55  1  0  0  0  0
 23 56  1  0  0  0  0
 24 29  2  0  0  0  0
 24 25  1  0  0  0  0
 25 26  2  0  0  0  0
 25 57  1  0  0  0  0
 26 27  1  0  0  0  0
 26 58  1  0  0  0  0
 27 32  1  0  0  0  0
 27 28  2  0  0  0  0
 28 29  1  0  0  0  0
 28 30  1  0  0  0  0
 29 59  1  0  0  0  0
 30 31  1  0  0  0  0
 31 32  1  0  0  0  0
 31 60  1  0  0  0  0
 31 61  1  0  0  0  0
M  END
$$$$
ZINC04199926
  -OEChem-08230709403D

 61 65  0     0  0  0  0  0  0999 V2000
   -0.9917    6.5011   -1.3997 C   0  0  0  0  0  0  0  0  0  0  0  0
   -1.1397    6.0102    0.0418 C   0  0  0  0  0  0  0  0  0  0  0  0
   -1.6004    4.6195    0.0393 N   0  0  0  0  0  0  0  0  0  0  0  0
   -0.6788    3.5849    0.0265 C   0  0  0  0  0  0  0  0  0  0  0  0
   -1.1431    2.2740    0.0191 C   0  0  0  0  0  0  0  0  0  0  0  0
   -2.5290    2.0366    0.0234 C   0  0  0  0  0  0  0  0  0  0  0  0
   -2.9583    0.8960    0.0201 O   0  0  0  0  0  0  0  0  0  0  0  0
   -3.3784    3.0846    0.0318 N   0  0  0  0  0  0  0  0  0  0  0  0
   -2.9192    4.3479    0.0360 C   0  0  0  0  0  0  0  0  0  0  0  0
   -3.7142    5.2680    0.0431 O   0  0  0  0  0  0  0  0  0  0  0  0
   -4.8232    2.8423    0.0369 C   0  0  0  0  0  0  0  0  0  0  0  0
   -5.3201    2.7514    1.4811 C   0  0  0  0  0  0  0  0  0  0  0  0
   -0.0178    1.4608    0.0101 N   0  0  0  0  0  0  0  0  0  0  0  0
    1.0619    2.2866    0.0042 C   0  0  0  0  0  0  0  0  0  0  0  0
    0.6544    3.5396    0.0140 N   0  0  0  0  0  0  0  0  0  0  0  0
    2.3756    1.8778   -0.0098 N   0  0  0  0  0  0  0  0  0  0  0  0
    3.4520    2.8716   -0.0149 C   0  0  0  0  0  0  0  0  0  0  0  0
    3.7283    3.3169   -1.4523 C   0  0  0  0  0  0  0  0  0  0  0  0
    4.8524    4.3548   -1.4576 C   0  0  0  0  0  0  0  0  0  0  0  0
    6.1195    3.7372   -0.8625 C   0  0  0  0  0  0  0  0  0  0  0  0
    5.8432    3.2919    0.5749 C   0  0  0  0  0  0  0  0  0  0  0  0
    4.7191    2.2540    0.5802 C   0  0  0  0  0  0  0  0  0  0  0  0
    0.0021   -0.0041    0.0020 C   0  0  0  0  0  0  0  0  0  0  0  0
    0.0218   -0.5140    1.4200 C   0  0  0  0  0  0  0  0  0  0  0  0
   -1.1671   -0.7637    2.0799 C   0  0  0  0  0  0  0  0  0  0  0  0
   -1.1542   -1.2320    3.3804 C   0  0  0  0  0  0  0  0  0  0  0  0
    0.0517   -1.4518    4.0262 C   0  0  0  0  0  0  0  0  0  0  0  0
    1.2494   -1.2002    3.3615 C   0  0  0  0  0  0  0  0  0  0  0  0
    1.2288   -0.7365    2.0561 C   0  0  0  0  0  0  0  0  0  0  0  0
    2.2845   -1.4923    4.2020 O   0  0  0  0  0  0  0  0  0  0  0  0
    1.7164   -2.3106    5.2416 C   0  0  0  0  0  0  0  0  0  0  0  0
    0.3365   -1.9016    5.2832 O   0  0  0  0  0  0  0  0  0  0  0  0
   -1.9552    6.4385   -1.9056 H   0  0  0  0  0  0  0  0  0  0  0  0
   -0.6489    7.5357   -1.3979 H   0  0  0  0  0  0  0  0  0  0  0  0
   -0.2657    5.8787   -1.9228 H   0  0  0  0  0  0  0  0  0  0  0  0
   -1.8657    6.6326    0.5649 H   0  0  0  0  0  0  0  0  0  0  0  0
   -0.1762    6.0728    0.5476 H   0  0  0  0  0  0  0  0  0  0  0  0
   -5.3310    3.6622   -0.4711 H   0  0  0  0  0  0  0  0  0  0  0  0
   -5.0365    1.9067   -0.4803 H   0  0  0  0  0  0  0  0  0  0  0  0
   -6.3950    2.5710    1.4849 H   0  0  0  0  0  0  0  0  0  0  0  0
   -4.8123    1.9314    1.9891 H   0  0  0  0  0  0  0  0  0  0  0  0
   -5.1068    3.6869    1.9983 H   0  0  0  0  0  0  0  0  0  0  0  0
    2.5891    0.9316   -0.0164 H   0  0  0  0  0  0  0  0  0  0  0  0
    3.1534    3.7337    0.5816 H   0  0  0  0  0  0  0  0  0  0  0  0
    4.0269    2.4548   -2.0487 H   0  0  0  0  0  0  0  0  0  0  0  0
    2.8256    3.7568   -1.8762 H   0  0  0  0  0  0  0  0  0  0  0  0
    4.5538    5.2169   -0.8611 H   0  0  0  0  0  0  0  0  0  0  0  0
    5.0492    4.6720   -2.4816 H   0  0  0  0  0  0  0  0  0  0  0  0
    6.9203    4.4766   -0.8662 H   0  0  0  0  0  0  0  0  0  0  0  0
    6.4181    2.8751   -1.4589 H   0  0  0  0  0  0  0  0  0  0  0  0
    5.5446    4.1540    1.1713 H   0  0  0  0  0  0  0  0  0  0  0  0
    6.7459    2.8519    0.9989 H   0  0  0  0  0  0  0  0  0  0  0  0
    4.5222    1.9368    1.6043 H   0  0  0  0  0  0  0  0  0  0  0  0
    5.0177    1.3919   -0.0162 H   0  0  0  0  0  0  0  0  0  0  0  0
   -0.8875   -0.3767   -0.5057 H   0  0  0  0  0  0  0  0  0  0  0  0
    0.8922   -0.3525   -0.5218 H   0  0  0  0  0  0  0  0  0  0  0  0
   -2.1081   -0.5922    1.5783 H   0  0  0  0  0  0  0  0  0  0  0  0
   -2.0845   -1.4262    3.8935 H   0  0  0  0  0  0  0  0  0  0  0  0
    2.1561   -0.5448    1.5367 H   0  0  0  0  0  0  0  0  0  0  0  0
    1.7952   -3.3668    4.9838 H   0  0  0  0  0  0  0  0  0  0  0  0
    2.2040   -2.1109    6.1958 H   0  0  0  0  0  0  0  0  0  0  0  0
  1  2  1  0  0  0  0
  1 33  1  0  0  0  0
  1 34  1  0  0  0  0
  1 35  1  0  0  0  0
  2  3  1  0  0  0  0
  2 36  1  0  0  0  0
  2 37  1  0  0  0  0
  3  9  1  0  0  0  0
  3  4  1  0  0  0  0
  4 15  1  0  0  0  0
  4  5  2  0  0  0  0
  5  6  1  0  0  0  0
  5 13  1  0  0  0  0
  6  7  2  0  0  0  0
  6  8  1  0  0  0  0
  8  9  1  0  0  0  0
  8 11  1  0  0  0  0
  9 10  2  0  0  0  0
 11 12  1  0  0  0  0
 11 38  1  0  0  0  0
 11 39  1  0  0  0  0
 12 40  1  0  0  0  0
 12 41  1  0  0  0  0
 12 42  1  0  0  0  0
 13 14  1  0  0  0  0
 13 23  1  0  0  0  0
 14 15  2  0  0  0  0
 14 16  1  0  0  0  0
 16 17  1  0  0  0  0
 16 43  1  0  0  0  0
 17 22  1  0  0  0  0
 17 18  1  0  0  0  0
 17 44  1  0  0  0  0
 18 19  1  0  0  0  0
 18 45  1  0  0  0  0
 18 46  1  0  0  0  0
 19 20  1  0  0  0  0
 19 47  1  0  0  0  0
 19 48  1  0  0  0  0
 20 21  1  0  0  0  0
 20 49  1  0  0  0  0
 20 50  1  0  0  0  0
 21 22  1  0  0  0  0
 21 51  1  0  0  0  0
 21 52  1  0  0  0  0
 22 53  1  0  0  0  0
 22 54  1  0  0  0  0
 23 24  1  0  0  0  0
 23 55  1  0  0  0  0
 23 56  1  0  0  0  0
 24 29  2  0  0  0  0
 24 25  1  0  0  0  0
 25 26  2  0  0  0  0
 25 57  1  0  0  0  0
 26 27  1  0  0  0  0
 26 58  1  0  0  0  0
 27 32  1  0  0  0  0
 27 28  2  0  0  0  0
 28 29  1  0  0  0  0
 28 30  1  0  0  0  0
 29 59  1  0  0  0  0
 30 31  1  0  0  0  0
 31 32  1  0  0  0  0
 31 60  1  0  0  0  0
 31 61  1  0  0  0  0
M  END
$$$$
ZINC04199927
  -OEChem-08230709403D

 56 59  0     0  0  0  0  0  0999 V2000
   -4.8234    3.0214    5.7001 C   0  0  0  0  0  0  0  0  0  0  0  0
   -3.5766    2.1348    5.7155 C   0  0  0  0  0  0  0  0  0  0  0  0
   -3.4137    1.4983    4.4061 N   0  0  0  0  0  0  0  0  0  0  0  0
   -2.6717    2.1264    3.4186 C   0  0  0  0  0  0  0  0  0  0  0  0
   -2.5376    1.5029    2.1827 C   0  0  0  0  0  0  0  0  0  0  0  0
   -3.1574    0.2589    1.9705 C   0  0  0  0  0  0  0  0  0  0  0  0
   -3.0504   -0.3072    0.8965 O   0  0  0  0  0  0  0  0  0  0  0  0
   -3.8715   -0.3019    2.9683 N   0  0  0  0  0  0  0  0  0  0  0  0
   -3.9977    0.3107    4.1581 C   0  0  0  0  0  0  0  0  0  0  0  0
   -4.6487   -0.2246    5.0347 O   0  0  0  0  0  0  0  0  0  0  0  0
   -4.5187   -1.5982    2.7520 C   0  0  0  0  0  0  0  0  0  0  0  0
   -3.5576   -2.7206    3.1487 C   0  0  0  0  0  0  0  0  0  0  0  0
   -1.7526    2.3430    1.4043 N   0  0  0  0  0  0  0  0  0  0  0  0
   -1.4540    3.4234    2.1733 C   0  0  0  0  0  0  0  0  0  0  0  0
   -2.0048    3.2802    3.3617 N   0  0  0  0  0  0  0  0  0  0  0  0
   -0.6942    4.4986    1.7733 N   0  0  0  0  0  0  0  0  0  0  0  0
   -0.4443    5.6045    2.7011 C   0  0  0  0  0  0  0  0  0  0  0  0
   -1.5876    6.6364    2.6134 C   0  0  0  0  0  0  0  0  0  0  0  0
   -0.8769    8.0042    2.7736 C   0  0  0  0  0  0  0  0  0  0  0  0
    0.4435    7.7979    1.9908 C   0  0  0  0  0  0  0  0  0  0  0  0
    0.8467    6.3426    2.3058 C   0  0  0  0  0  0  0  0  0  0  0  0
   -1.3327    2.1126    0.0198 C   0  0  0  0  0  0  0  0  0  0  0  0
   -0.0167    1.3784    0.0096 C   0  0  0  0  0  0  0  0  0  0  0  0
    0.0021   -0.0041    0.0020 C   0  0  0  0  0  0  0  0  0  0  0  0
    1.2068   -0.6806   -0.0131 C   0  0  0  0  0  0  0  0  0  0  0  0
    2.3989    0.0276   -0.0207 C   0  0  0  0  0  0  0  0  0  0  0  0
    2.3786    1.4165   -0.0130 C   0  0  0  0  0  0  0  0  0  0  0  0
    1.1696    2.0885    0.0021 C   0  0  0  0  0  0  0  0  0  0  0  0
    3.5380    2.1101   -0.0208 F   0  0  0  0  0  0  0  0  0  0  0  0
    3.5853   -0.6361   -0.0360 O   0  0  0  0  0  0  0  0  0  0  0  0
   -4.7138    3.7891    4.9341 H   0  0  0  0  0  0  0  0  0  0  0  0
   -5.7000    2.4119    5.4809 H   0  0  0  0  0  0  0  0  0  0  0  0
   -4.9445    3.4949    6.6744 H   0  0  0  0  0  0  0  0  0  0  0  0
   -3.6861    1.3671    6.4815 H   0  0  0  0  0  0  0  0  0  0  0  0
   -2.7000    2.7443    5.9348 H   0  0  0  0  0  0  0  0  0  0  0  0
   -5.4207   -1.6601    3.3610 H   0  0  0  0  0  0  0  0  0  0  0  0
   -4.7831   -1.7012    1.6996 H   0  0  0  0  0  0  0  0  0  0  0  0
   -4.0392   -3.6851    2.9877 H   0  0  0  0  0  0  0  0  0  0  0  0
   -2.6557   -2.6587    2.5397 H   0  0  0  0  0  0  0  0  0  0  0  0
   -3.2932   -2.6176    4.2011 H   0  0  0  0  0  0  0  0  0  0  0  0
   -0.3241    4.5243    0.8771 H   0  0  0  0  0  0  0  0  0  0  0  0
   -0.3608    5.2254    3.7196 H   0  0  0  0  0  0  0  0  0  0  0  0
   -2.0831    6.5754    1.6444 H   0  0  0  0  0  0  0  0  0  0  0  0
   -2.3043    6.4812    3.4198 H   0  0  0  0  0  0  0  0  0  0  0  0
   -0.6746    8.2129    3.8242 H   0  0  0  0  0  0  0  0  0  0  0  0
   -1.4700    8.8024    2.3273 H   0  0  0  0  0  0  0  0  0  0  0  0
    1.2080    8.4904    2.3431 H   0  0  0  0  0  0  0  0  0  0  0  0
    0.2766    7.9245    0.9211 H   0  0  0  0  0  0  0  0  0  0  0  0
    1.5565    6.3224    3.1328 H   0  0  0  0  0  0  0  0  0  0  0  0
    1.2873    5.8779    1.4237 H   0  0  0  0  0  0  0  0  0  0  0  0
   -1.2187    3.0696   -0.4894 H   0  0  0  0  0  0  0  0  0  0  0  0
   -2.0860    1.5153   -0.4937 H   0  0  0  0  0  0  0  0  0  0  0  0
   -0.9262   -0.5560    0.0083 H   0  0  0  0  0  0  0  0  0  0  0  0
    1.2200   -1.7605   -0.0194 H   0  0  0  0  0  0  0  0  0  0  0  0
    1.1522    3.1684    0.0081 H   0  0  0  0  0  0  0  0  0  0  0  0
    3.9200   -0.8231   -0.9238 H   0  0  0  0  0  0  0  0  0  0  0  0
  1  2  1  0  0  0  0
  1 31  1  0  0  0  0
  1 32  1  0  0  0  0
  1 33  1  0  0  0  0
  2  3  1  0  0  0  0
  2 34  1  0  0  0  0
  2 35  1  0  0  0  0
  3  9  1  0  0  0  0
  3  4  1  0  0  0  0
  4 15  1  0  0  0  0
  4  5  2  0  0  0  0
  5  6  1  0  0  0  0
  5 13  1  0  0  0  0
  6  7  2  0  0  0  0
  6  8  1  0  0  0  0
  8  9  1  0  0  0  0
  8 11  1  0  0  0  0
  9 10  2  0  0  0  0
 11 12  1  0  0  0  0
 11 36  1  0  0  0  0
 11 37  1  0  0  0  0
 12 38  1  0  0  0  0
 12 39  1  0  0  0  0
 12 40  1  0  0  0  0
 13 14  1  0  0  0  0
 13 22  1  0  0  0  0
 14 15  2  0  0  0  0
 14 16  1  0  0  0  0
 16 17  1  0  0  0  0
 16 41  1  0  0  0  0
 17 21  1  0  0  0  0
 17 18  1  0  0  0  0
 17 42  1  0  0  0  0
 18 19  1  0  0  0  0
 18 43  1  0  0  0  0
 18 44  1  0  0  0  0
 19 20  1  0  0  0  0
 19 45  1  0  0  0  0
 19 46  1  0  0  0  0
 20 21  1  0  0  0  0
 20 47  1  0  0  0  0
 20 48  1  0  0  0  0
 21 49  1  0  0  0  0
 21 50  1  0  0  0  0
 22 23  1  0  0  0  0
 22 51  1  0  0  0  0
 22 52  1  0  0  0  0
 23 28  2  0  0  0  0
 23 24  1  0  0  0  0
 24 25  2  0  0  0  0
 24 53  1  0  0  0  0
 25 26  1  0  0  0  0
 25 54  1  0  0  0  0
 26 27  2  0  0  0  0
 26 30  1  0  0  0  0
 27 28  1  0  0  0  0
 27 29  1  0  0  0  0
 28 55  1  0  0  0  0
 30 56  1  0  0  0  0
M  END
$$$$
ZINC04199927
  -OEChem-08230709403D

 56 59  0     0  0  0  0  0  0999 V2000
   -4.8234    3.0214    5.7001 C   0  0  0  0  0  0  0  0  0  0  0  0
   -3.5766    2.1348    5.7155 C   0  0  0  0  0  0  0  0  0  0  0  0
   -3.4137    1.4983    4.4061 N   0  0  0  0  0  0  0  0  0  0  0  0
   -2.6717    2.1264    3.4186 C   0  0  0  0  0  0  0  0  0  0  0  0
   -2.5376    1.5029    2.1827 C   0  0  0  0  0  0  0  0  0  0  0  0
   -3.1574    0.2589    1.9705 C   0  0  0  0  0  0  0  0  0  0  0  0
   -3.0504   -0.3072    0.8965 O   0  0  0  0  0  0  0  0  0  0  0  0
   -3.8715   -0.3019    2.9683 N   0  0  0  0  0  0  0  0  0  0  0  0
   -3.9977    0.3107    4.1581 C   0  0  0  0  0  0  0  0  0  0  0  0
   -4.6487   -0.2246    5.0347 O   0  0  0  0  0  0  0  0  0  0  0  0
   -4.5187   -1.5982    2.7520 C   0  0  0  0  0  0  0  0  0  0  0  0
   -3.5576   -2.7206    3.1487 C   0  0  0  0  0  0  0  0  0  0  0  0
   -1.7526    2.3430    1.4043 N   0  0  0  0  0  0  0  0  0  0  0  0
   -1.4540    3.4234    2.1733 C   0  0  0  0  0  0  0  0  0  0  0  0
   -2.0048    3.2802    3.3617 N   0  0  0  0  0  0  0  0  0  0  0  0
   -0.6942    4.4986    1.7733 N   0  0  0  0  0  0  0  0  0  0  0  0
   -0.4443    5.6045    2.7011 C   0  0  0  0  0  0  0  0  0  0  0  0
   -1.5876    6.6364    2.6134 C   0  0  0  0  0  0  0  0  0  0  0  0
   -0.8769    8.0042    2.7736 C   0  0  0  0  0  0  0  0  0  0  0  0
    0.4435    7.7979    1.9908 C   0  0  0  0  0  0  0  0  0  0  0  0
    0.8467    6.3426    2.3058 C   0  0  0  0  0  0  0  0  0  0  0  0
   -1.3327    2.1126    0.0198 C   0  0  0  0  0  0  0  0  0  0  0  0
   -0.0167    1.3784    0.0096 C   0  0  0  0  0  0  0  0  0  0  0  0
    0.0021   -0.0041    0.0020 C   0  0  0  0  0  0  0  0  0  0  0  0
    1.2068   -0.6806   -0.0131 C   0  0  0  0  0  0  0  0  0  0  0  0
    2.3989    0.0276   -0.0207 C   0  0  0  0  0  0  0  0  0  0  0  0
    2.3786    1.4165   -0.0130 C   0  0  0  0  0  0  0  0  0  0  0  0
    1.1696    2.0885    0.0021 C   0  0  0  0  0  0  0  0  0  0  0  0
    3.5380    2.1101   -0.0208 F   0  0  0  0  0  0  0  0  0  0  0  0
    3.5853   -0.6361   -0.0360 O   0  0  0  0  0  0  0  0  0  0  0  0
   -4.7138    3.7891    4.9341 H   0  0  0  0  0  0  0  0  0  0  0  0
   -5.7000    2.4119    5.4809 H   0  0  0  0  0  0  0  0  0  0  0  0
   -4.9445    3.4949    6.6744 H   0  0  0  0  0  0  0  0  0  0  0  0
   -3.6861    1.3671    6.4815 H   0  0  0  0  0  0  0  0  0  0  0  0
   -2.7000    2.7443    5.9348 H   0  0  0  0  0  0  0  0  0  0  0  0
   -5.4207   -1.6601    3.3610 H   0  0  0  0  0  0  0  0  0  0  0  0
   -4.7831   -1.7012    1.6996 H   0  0  0  0  0  0  0  0  0  0  0  0
   -4.0392   -3.6851    2.9877 H   0  0  0  0  0  0  0  0  0  0  0  0
   -2.6557   -2.6587    2.5397 H   0  0  0  0  0  0  0  0  0  0  0  0
   -3.2932   -2.6176    4.2011 H   0  0  0  0  0  0  0  0  0  0  0  0
   -0.3241    4.5243    0.8771 H   0  0  0  0  0  0  0  0  0  0  0  0
   -0.3608    5.2254    3.7196 H   0  0  0  0  0  0  0  0  0  0  0  0
   -2.0831    6.5754    1.6444 H   0  0  0  0  0  0  0  0  0  0  0  0
   -2.3043    6.4812    3.4198 H   0  0  0  0  0  0  0  0  0  0  0  0
   -0.6746    8.2129    3.8242 H   0  0  0  0  0  0  0  0  0  0  0  0
   -1.4700    8.8024    2.3273 H   0  0  0  0  0  0  0  0  0  0  0  0
    1.2080    8.4904    2.3431 H   0  0  0  0  0  0  0  0  0  0  0  0
    0.2766    7.9245    0.9211 H   0  0  0  0  0  0  0  0  0  0  0  0
    1.5565    6.3224    3.1328 H   0  0  0  0  0  0  0  0  0  0  0  0
    1.2873    5.8779    1.4237 H   0  0  0  0  0  0  0  0  0  0  0  0
   -1.2187    3.0696   -0.4894 H   0  0  0  0  0  0  0  0  0  0  0  0
   -2.0860    1.5153   -0.4937 H   0  0  0  0  0  0  0  0  0  0  0  0
   -0.9262   -0.5560    0.0083 H   0  0  0  0  0  0  0  0  0  0  0  0
    1.2200   -1.7605   -0.0194 H   0  0  0  0  0  0  0  0  0  0  0  0
    1.1522    3.1684    0.0081 H   0  0  0  0  0  0  0  0  0  0  0  0
    3.9200   -0.8231   -0.9238 H   0  0  0  0  0  0  0  0  0  0  0  0
  1  2  1  0  0  0  0
  1 31  1  0  0  0  0
  1 32  1  0  0  0  0
  1 33  1  0  0  0  0
  2  3  1  0  0  0  0
  2 34  1  0  0  0  0
  2 35  1  0  0  0  0
  3  9  1  0  0  0  0
  3  4  1  0  0  0  0
  4 15  1  0  0  0  0
  4  5  2  0  0  0  0
  5  6  1  0  0  0  0
  5 13  1  0  0  0  0
  6  7  2  0  0  0  0
  6  8  1  0  0  0  0
  8  9  1  0  0  0  0
  8 11  1  0  0  0  0
  9 10  2  0  0  0  0
 11 12  1  0  0  0  0
 11 36  1  0  0  0  0
 11 37  1  0  0  0  0
 12 38  1  0  0  0  0
 12 39  1  0  0  0  0
 12 40  1  0  0  0  0
 13 14  1  0  0  0  0
 13 22  1  0  0  0  0
 14 15  2  0  0  0  0
 14 16  1  0  0  0  0
 16 17  1  0  0  0  0
 16 41  1  0  0  0  0
 17 21  1  0  0  0  0
 17 18  1  0  0  0  0
 17 42  1  0  0  0  0
 18 19  1  0  0  0  0
 18 43  1  0  0  0  0
 18 44  1  0  0  0  0
 19 20  1  0  0  0  0
 19 45  1  0  0  0  0
 19 46  1  0  0  0  0
 20 21  1  0  0  0  0
 20 47  1  0  0  0  0
 20 48  1  0  0  0  0
 21 49  1  0  0  0  0
 21 50  1  0  0  0  0
 22 23  1  0  0  0  0
 22 51  1  0  0  0  0
 22 52  1  0  0  0  0
 23 28  2  0  0  0  0
 23 24  1  0  0  0  0
 24 25  2  0  0  0  0
 24 53  1  0  0  0  0
 25 26  1  0  0  0  0
 25 54  1  0  0  0  0
 26 27  2  0  0  0  0
 26 30  1  0  0  0  0
 27 28  1  0  0  0  0
 27 29  1  0  0  0  0
 28 55  1  0  0  0  0
 30 56  1  0  0  0  0
M  END
$$$$
ZINC04199928
  -OEChem-08230709403D

 79 84  0     1  0  0  0  0  0999 V2000
    3.6787   -2.3961    0.0002 C   0  0  0  0  0  0  0  0  0  0  0  0
    3.7352   -0.8672    0.0061 C   0  0  0  0  0  0  0  0  0  0  0  0
    2.3131   -0.3044    0.0484 C   0  0  0  0  0  0  0  0  0  0  0  0
    2.3659    1.1236    0.0539 O   0  0  0  0  0  0  0  0  0  0  0  0
    1.1809    1.7838    0.0901 C   0  0  0  0  0  0  0  0  0  0  0  0
   -0.0104    1.0752    0.1198 C   0  0  0  0  0  0  0  0  0  0  0  0
   -1.2159    1.7483    0.1514 C   0  0  0  0  0  0  0  0  0  0  0  0
   -1.2451    3.1332    0.1652 C   0  0  0  0  0  0  0  0  0  0  0  0
   -0.0705    3.8536    0.1360 C   0  0  0  0  0  0  0  0  0  0  0  0
    1.1557    3.1852    0.0982 C   0  0  0  0  0  0  0  0  0  0  0  0
    2.4167    3.9499    0.0663 C   0  0  0  0  0  0  0  0  0  0  0  0
    2.3635    5.3155    0.0694 N   0  0  0  0  0  0  0  0  0  0  0  0
    1.4771    5.7781    0.0884 H   0  0  0  0  0  0  0  0  0  0  0  0
    3.5008    6.0446    0.0469 C   0  0  0  0  0  0  0  0  0  0  0  0
    3.4627    7.2625    0.0543 O   0  0  0  0  0  0  0  0  0  0  0  0
    4.7416    5.3551    0.0076 C   0  0  0  0  0  0  0  0  0  0  0  0
    6.0059    6.0792   -0.0242 C   0  0  0  0  0  0  0  0  0  0  0  0
    7.1949    5.4242   -0.0622 C   0  0  0  0  0  0  0  0  0  0  0  0
    7.2510    4.0109   -0.0716 C   0  0  0  0  0  0  0  0  0  0  0  0
    6.0035    3.2333   -0.0398 C   0  0  0  0  0  0  0  0  0  0  0  0
    4.7274    3.9484    0.0007 C   0  0  0  0  0  0  0  0  0  0  0  0
    3.5574    3.2968    0.0305 N   0  0  0  0  0  0  0  0  0  0  0  0
    6.3672    1.9044   -0.0572 C   0  0  0  0  0  0  0  0  0  0  0  0
    7.7059    1.8438   -0.0960 N   0  0  0  0  0  0  0  0  0  0  0  0
    8.2424    1.0001   -0.1158 H   0  0  0  0  0  0  0  0  0  0  0  0
    8.2406    3.1365   -0.1047 N   0  0  0  0  0  0  0  0  0  0  0  0
    5.9945    7.4722   -0.0157 N   0  0  0  0  0  0  0  0  0  0  0  0
    7.2535    8.2143    0.0864 C   0  0  0  0  0  0  0  0  0  0  0  0
    6.9668    9.6938    0.0742 C   0  0  0  0  0  0  0  0  0  0  0  0
    6.9332   10.3809   -1.1249 C   0  0  0  0  0  0  0  0  0  0  0  0
    6.6657   11.7367   -1.1377 C   0  0  0  0  0  0  0  0  0  0  0  0
    6.4417   12.4089    0.0519 C   0  0  0  0  0  0  0  0  0  0  0  0
    6.4809   11.7206    1.2527 C   0  0  0  0  0  0  0  0  0  0  0  0
    6.7434   10.3638    1.2626 C   0  0  0  0  0  0  0  0  0  0  0  0
    6.1847   13.7352    0.0410 F   0  0  0  0  0  0  0  0  0  0  0  0
   -2.7909    3.9775    0.2129 S   0  0  0  0  0  0  0  0  0  0  0  0
   -3.7284    3.0762    0.7855 O   0  0  0  0  0  0  0  0  0  0  0  0
   -2.5351    5.2623    0.7635 O   0  0  0  0  0  0  0  0  0  0  0  0
   -3.2647    4.2204   -1.3552 N   0  0  3  0  0  0  0  0  0  0  0  0
   -4.0850    3.2951   -2.1580 C   0  0  0  0  0  0  0  0  0  0  0  0
   -3.7344    3.6292   -3.6295 C   0  0  0  0  0  0  0  0  0  0  0  0
   -3.5679    5.1706   -3.5678 C   0  0  1  0  0  0  0  0  0  0  0  0
   -4.5360    5.6662   -3.6400 H   0  0  0  0  0  0  0  0  0  0  0  0
   -2.9424    5.3973   -2.1752 C   0  0  0  0  0  0  0  0  0  0  0  0
   -3.2061    5.3208   -5.9572 C   0  0  0  0  0  0  0  0  0  0  0  0
   -2.4024    7.0781   -4.4982 C   0  0  0  0  0  0  0  0  0  0  0  0
    4.6918   -2.7971   -0.0300 H   0  0  0  0  0  0  0  0  0  0  0  0
    3.1767   -2.7446    0.9028 H   0  0  0  0  0  0  0  0  0  0  0  0
    3.1272   -2.7359   -0.8765 H   0  0  0  0  0  0  0  0  0  0  0  0
    4.2372   -0.5187   -0.8965 H   0  0  0  0  0  0  0  0  0  0  0  0
    4.2867   -0.5274    0.8828 H   0  0  0  0  0  0  0  0  0  0  0  0
    1.8112   -0.6529    0.9510 H   0  0  0  0  0  0  0  0  0  0  0  0
    1.7617   -0.6442   -0.8282 H   0  0  0  0  0  0  0  0  0  0  0  0
    0.0043   -0.0047    0.1138 H   0  0  0  0  0  0  0  0  0  0  0  0
   -2.1413    1.1917    0.1695 H   0  0  0  0  0  0  0  0  0  0  0  0
   -0.0980    4.9332    0.1420 H   0  0  0  0  0  0  0  0  0  0  0  0
    8.1132    5.9920   -0.0853 H   0  0  0  0  0  0  0  0  0  0  0  0
    5.6931    1.0608   -0.0419 H   0  0  0  0  0  0  0  0  0  0  0  0
    5.1530    7.9507   -0.0774 H   0  0  0  0  0  0  0  0  0  0  0  0
    7.7570    7.9495    1.0161 H   0  0  0  0  0  0  0  0  0  0  0  0
    7.8939    7.9614   -0.7586 H   0  0  0  0  0  0  0  0  0  0  0  0
    7.1120    9.8572   -2.0523 H   0  0  0  0  0  0  0  0  0  0  0  0
    6.6354   12.2726   -2.0749 H   0  0  0  0  0  0  0  0  0  0  0  0
    6.3060   12.2438    2.1812 H   0  0  0  0  0  0  0  0  0  0  0  0
    6.7736    9.8267    2.1991 H   0  0  0  0  0  0  0  0  0  0  0  0
   -3.8233    2.2617   -1.9309 H   0  0  0  0  0  0  0  0  0  0  0  0
   -5.1448    3.4674   -1.9703 H   0  0  0  0  0  0  0  0  0  0  0  0
   -2.8035    3.1474   -3.9284 H   0  0  0  0  0  0  0  0  0  0  0  0
   -4.5486    3.3501   -4.2982 H   0  0  0  0  0  0  0  0  0  0  0  0
   -3.3632    6.2934   -1.7191 H   0  0  0  0  0  0  0  0  0  0  0  0
   -1.8612    5.4992   -2.2686 H   0  0  0  0  0  0  0  0  0  0  0  0
   -4.1740    5.8064   -6.0817 H   0  0  0  0  0  0  0  0  0  0  0  0
   -2.5188    5.6784   -6.7239 H   0  0  0  0  0  0  0  0  0  0  0  0
   -3.3263    4.2416   -6.0517 H   0  0  0  0  0  0  0  0  0  0  0  0
   -1.9382    7.2764   -3.5321 H   0  0  0  0  0  0  0  0  0  0  0  0
   -1.7321    7.3984   -5.2959 H   0  0  0  0  0  0  0  0  0  0  0  0
   -3.3411    7.6274   -4.5699 H   0  0  0  0  0  0  0  0  0  0  0  0
   -2.6410    5.6250   -4.6257 N   0  3  0  0  0  0  0  0  0  0  0  0
   -1.7476    5.1299   -4.5215 H   0  0  0  0  0  0  0  0  0  0  0  0
  1  2  1  0  0  0  0
  1 47  1  0  0  0  0
  1 48  1  0  0  0  0
  1 49  1  0  0  0  0
  2  3  1  0  0  0  0
  2 50  1  0  0  0  0
  2 51  1  0  0  0  0
  3  4  1  0  0  0  0
  3 52  1  0  0  0  0
  3 53  1  0  0  0  0
  4  5  1  0  0  0  0
  5 10  2  0  0  0  0
  5  6  1  0  0  0  0
  6  7  2  0  0  0  0
  6 54  1  0  0  0  0
  7  8  1  0  0  0  0
  7 55  1  0  0  0  0
  8  9  2  0  0  0  0
  8 36  1  0  0  0  0
  9 10  1  0  0  0  0
  9 56  1  0  0  0  0
 10 11  1  0  0  0  0
 11 22  2  0  0  0  0
 11 12  1  0  0  0  0
 12 13  1  0  0  0  0
 12 14  1  0  0  0  0
 14 15  2  0  0  0  0
 14 16  1  0  0  0  0
 16 21  2  0  0  0  0
 16 17  1  0  0  0  0
 17 18  2  0  0  0  0
 17 27  1  0  0  0  0
 18 19  1  0  0  0  0
 18 57  1  0  0  0  0
 19 26  2  0  0  0  0
 19 20  1  0  0  0  0
 20 21  1  0  0  0  0
 20 23  2  0  0  0  0
 21 22  1  0  0  0  0
 23 24  1  0  0  0  0
 23 58  1  0  0  0  0
 24 25  1  0  0  0  0
 24 26  1  0  0  0  0
 27 28  1  0  0  0  0
 27 59  1  0  0  0  0
 28 29  1  0  0  0  0
 28 60  1  0  0  0  0
 28 61  1  0  0  0  0
 29 34  2  0  0  0  0
 29 30  1  0  0  0  0
 30 31  2  0  0  0  0
 30 62  1  0  0  0  0
 31 32  1  0  0  0  0
 31 63  1  0  0  0  0
 32 33  2  0  0  0  0
 32 35  1  0  0  0  0
 33 34  1  0  0  0  0
 33 64  1  0  0  0  0
 34 65  1  0  0  0  0
 36 37  2  0  0  0  0
 36 38  2  0  0  0  0
 36 39  1  0  0  0  0
 39 44  1  0  0  0  0
 39 40  1  0  0  0  0
 40 41  1  0  0  0  0
 40 66  1  0  0  0  0
 40 67  1  0  0  0  0
 41 42  1  0  0  0  0
 41 68  1  0  0  0  0
 41 69  1  0  0  0  0
 42 43  1  0  0  0  0
 42 44  1  0  0  0  0
 42 78  1  0  0  0  0
 44 70  1  0  0  0  0
 44 71  1  0  0  0  0
 45 72  1  0  0  0  0
 45 73  1  0  0  0  0
 45 74  1  0  0  0  0
 45 78  1  0  0  0  0
 46 75  1  0  0  0  0
 46 76  1  0  0  0  0
 46 77  1  0  0  0  0
 46 78  1  0  0  0  0
 78 79  1  0  0  0  0
M  CHG  1  78   1
M  END
$$$$
ZINC04199928
  -OEChem-08230709403D

 79 84  0     1  0  0  0  0  0999 V2000
    3.6787   -2.3961    0.0002 C   0  0  0  0  0  0  0  0  0  0  0  0
    3.7352   -0.8672    0.0061 C   0  0  0  0  0  0  0  0  0  0  0  0
    2.3131   -0.3044    0.0484 C   0  0  0  0  0  0  0  0  0  0  0  0
    2.3659    1.1236    0.0539 O   0  0  0  0  0  0  0  0  0  0  0  0
    1.1809    1.7838    0.0901 C   0  0  0  0  0  0  0  0  0  0  0  0
   -0.0104    1.0752    0.1198 C   0  0  0  0  0  0  0  0  0  0  0  0
   -1.2159    1.7483    0.1514 C   0  0  0  0  0  0  0  0  0  0  0  0
   -1.2451    3.1332    0.1652 C   0  0  0  0  0  0  0  0  0  0  0  0
   -0.0705    3.8536    0.1360 C   0  0  0  0  0  0  0  0  0  0  0  0
    1.1557    3.1852    0.0982 C   0  0  0  0  0  0  0  0  0  0  0  0
    2.4167    3.9499    0.0663 C   0  0  0  0  0  0  0  0  0  0  0  0
    2.3635    5.3155    0.0694 N   0  0  0  0  0  0  0  0  0  0  0  0
    1.4771    5.7781    0.0884 H   0  0  0  0  0  0  0  0  0  0  0  0
    3.5008    6.0446    0.0469 C   0  0  0  0  0  0  0  0  0  0  0  0
    3.4627    7.2625    0.0543 O   0  0  0  0  0  0  0  0  0  0  0  0
    4.7416    5.3551    0.0076 C   0  0  0  0  0  0  0  0  0  0  0  0
    6.0059    6.0792   -0.0242 C   0  0  0  0  0  0  0  0  0  0  0  0
    7.1949    5.4242   -0.0622 C   0  0  0  0  0  0  0  0  0  0  0  0
    7.2510    4.0109   -0.0716 C   0  0  0  0  0  0  0  0  0  0  0  0
    6.0035    3.2333   -0.0398 C   0  0  0  0  0  0  0  0  0  0  0  0
    4.7274    3.9484    0.0007 C   0  0  0  0  0  0  0  0  0  0  0  0
    3.5574    3.2968    0.0305 N   0  0  0  0  0  0  0  0  0  0  0  0
    6.3672    1.9044   -0.0573 C   0  0  0  0  0  0  0  0  0  0  0  0
    7.7059    1.8438   -0.0961 N   0  0  0  0  0  0  0  0  0  0  0  0
    9.2144    3.3621   -0.1317 H   0  0  0  0  0  0  0  0  0  0  0  0
    8.2406    3.1365   -0.1048 N   0  0  0  0  0  0  0  0  0  0  0  0
    5.9945    7.4722   -0.0157 N   0  0  0  0  0  0  0  0  0  0  0  0
    7.2535    8.2143    0.0864 C   0  0  0  0  0  0  0  0  0  0  0  0
    6.9668    9.6938    0.0742 C   0  0  0  0  0  0  0  0  0  0  0  0
    6.9332   10.3809   -1.1249 C   0  0  0  0  0  0  0  0  0  0  0  0
    6.6657   11.7367   -1.1377 C   0  0  0  0  0  0  0  0  0  0  0  0
    6.4417   12.4089    0.0519 C   0  0  0  0  0  0  0  0  0  0  0  0
    6.4809   11.7206    1.2527 C   0  0  0  0  0  0  0  0  0  0  0  0
    6.7434   10.3638    1.2626 C   0  0  0  0  0  0  0  0  0  0  0  0
    6.1847   13.7352    0.0410 F   0  0  0  0  0  0  0  0  0  0  0  0
   -2.7909    3.9775    0.2129 S   0  0  0  0  0  0  0  0  0  0  0  0
   -3.7284    3.0762    0.7855 O   0  0  0  0  0  0  0  0  0  0  0  0
   -2.5351    5.2623    0.7635 O   0  0  0  0  0  0  0  0  0  0  0  0
   -3.2647    4.2204   -1.3552 N   0  0  3  0  0  0  0  0  0  0  0  0
   -4.0850    3.2951   -2.1580 C   0  0  0  0  0  0  0  0  0  0  0  0
   -3.7344    3.6292   -3.6295 C   0  0  0  0  0  0  0  0  0  0  0  0
   -3.5679    5.1706   -3.5678 C   0  0  1  0  0  0  0  0  0  0  0  0
   -4.5360    5.6662   -3.6400 H   0  0  0  0  0  0  0  0  0  0  0  0
   -2.9424    5.3973   -2.1752 C   0  0  0  0  0  0  0  0  0  0  0  0
   -3.2061    5.3208   -5.9572 C   0  0  0  0  0  0  0  0  0  0  0  0
   -2.4024    7.0781   -4.4982 C   0  0  0  0  0  0  0  0  0  0  0  0
    4.6918   -2.7971   -0.0300 H   0  0  0  0  0  0  0  0  0  0  0  0
    3.1767   -2.7446    0.9028 H   0  0  0  0  0  0  0  0  0  0  0  0
    3.1272   -2.7359   -0.8765 H   0  0  0  0  0  0  0  0  0  0  0  0
    4.2372   -0.5187   -0.8965 H   0  0  0  0  0  0  0  0  0  0  0  0
    4.2867   -0.5274    0.8828 H   0  0  0  0  0  0  0  0  0  0  0  0
    1.8112   -0.6529    0.9510 H   0  0  0  0  0  0  0  0  0  0  0  0
    1.7617   -0.6442   -0.8282 H   0  0  0  0  0  0  0  0  0  0  0  0
    0.0043   -0.0047    0.1138 H   0  0  0  0  0  0  0  0  0  0  0  0
   -2.1413    1.1917    0.1695 H   0  0  0  0  0  0  0  0  0  0  0  0
   -0.0980    4.9332    0.1420 H   0  0  0  0  0  0  0  0  0  0  0  0
    8.1132    5.9920   -0.0853 H   0  0  0  0  0  0  0  0  0  0  0  0
    5.6931    1.0608   -0.0423 H   0  0  0  0  0  0  0  0  0  0  0  0
    5.1530    7.9507   -0.0774 H   0  0  0  0  0  0  0  0  0  0  0  0
    7.7570    7.9495    1.0161 H   0  0  0  0  0  0  0  0  0  0  0  0
    7.8939    7.9614   -0.7586 H   0  0  0  0  0  0  0  0  0  0  0  0
    7.1120    9.8572   -2.0523 H   0  0  0  0  0  0  0  0  0  0  0  0
    6.6354   12.2726   -2.0749 H   0  0  0  0  0  0  0  0  0  0  0  0
    6.3060   12.2438    2.1812 H   0  0  0  0  0  0  0  0  0  0  0  0
    6.7736    9.8267    2.1991 H   0  0  0  0  0  0  0  0  0  0  0  0
   -3.8233    2.2617   -1.9309 H   0  0  0  0  0  0  0  0  0  0  0  0
   -5.1448    3.4674   -1.9703 H   0  0  0  0  0  0  0  0  0  0  0  0
   -2.8035    3.1474   -3.9284 H   0  0  0  0  0  0  0  0  0  0  0  0
   -4.5486    3.3501   -4.2982 H   0  0  0  0  0  0  0  0  0  0  0  0
   -3.3632    6.2934   -1.7191 H   0  0  0  0  0  0  0  0  0  0  0  0
   -1.8612    5.4992   -2.2686 H   0  0  0  0  0  0  0  0  0  0  0  0
   -4.1740    5.8064   -6.0817 H   0  0  0  0  0  0  0  0  0  0  0  0
   -2.5188    5.6784   -6.7239 H   0  0  0  0  0  0  0  0  0  0  0  0
   -3.3263    4.2416   -6.0517 H   0  0  0  0  0  0  0  0  0  0  0  0
   -1.9382    7.2764   -3.5321 H   0  0  0  0  0  0  0  0  0  0  0  0
   -1.7321    7.3984   -5.2959 H   0  0  0  0  0  0  0  0  0  0  0  0
   -3.3411    7.6274   -4.5699 H   0  0  0  0  0  0  0  0  0  0  0  0
   -2.6410    5.6250   -4.6257 N   0  3  0  0  0  0  0  0  0  0  0  0
   -1.7476    5.1299   -4.5215 H   0  0  0  0  0  0  0  0  0  0  0  0
  1  2  1  0  0  0  0
  1 47  1  0  0  0  0
  1 48  1  0  0  0  0
  1 49  1  0  0  0  0
  2  3  1  0  0  0  0
  2 50  1  0  0  0  0
  2 51  1  0  0  0  0
  3  4  1  0  0  0  0
  3 52  1  0  0  0  0
  3 53  1  0  0  0  0
  4  5  1  0  0  0  0
  5 10  2  0  0  0  0
  5  6  1  0  0  0  0
  6  7  2  0  0  0  0
  6 54  1  0  0  0  0
  7  8  1  0  0  0  0
  7 55  1  0  0  0  0
  8  9  2  0  0  0  0
  8 36  1  0  0  0  0
  9 10  1  0  0  0  0
  9 56  1  0  0  0  0
 10 11  1  0  0  0  0
 11 22  2  0  0  0  0
 11 12  1  0  0  0  0
 12 13  1  0  0  0  0
 12 14  1  0  0  0  0
 14 15  2  0  0  0  0
 14 16  1  0  0  0  0
 16 21  2  0  0  0  0
 16 17  1  0  0  0  0
 17 18  2  0  0  0  0
 17 27  1  0  0  0  0
 18 19  1  0  0  0  0
 18 57  1  0  0  0  0
 19 20  2  0  0  0  0
 19 26  1  0  0  0  0
 20 21  1  0  0  0  0
 20 23  1  0  0  0  0
 21 22  1  0  0  0  0
 23 58  1  0  0  0  0
 23 24  2  0  0  0  0
 24 26  1  0  0  0  0
 25 26  1  0  0  0  0
 27 28  1  0  0  0  0
 27 59  1  0  0  0  0
 28 29  1  0  0  0  0
 28 60  1  0  0  0  0
 28 61  1  0  0  0  0
 29 34  2  0  0  0  0
 29 30  1  0  0  0  0
 30 31  2  0  0  0  0
 30 62  1  0  0  0  0
 31 32  1  0  0  0  0
 31 63  1  0  0  0  0
 32 33  2  0  0  0  0
 32 35  1  0  0  0  0
 33 34  1  0  0  0  0
 33 64  1  0  0  0  0
 34 65  1  0  0  0  0
 36 37  2  0  0  0  0
 36 38  2  0  0  0  0
 36 39  1  0  0  0  0
 39 44  1  0  0  0  0
 39 40  1  0  0  0  0
 40 41  1  0  0  0  0
 40 66  1  0  0  0  0
 40 67  1  0  0  0  0
 41 42  1  0  0  0  0
 41 68  1  0  0  0  0
 41 69  1  0  0  0  0
 42 43  1  0  0  0  0
 42 44  1  0  0  0  0
 42 78  1  0  0  0  0
 44 70  1  0  0  0  0
 44 71  1  0  0  0  0
 45 72  1  0  0  0  0
 45 73  1  0  0  0  0
 45 74  1  0  0  0  0
 45 78  1  0  0  0  0
 46 75  1  0  0  0  0
 46 76  1  0  0  0  0
 46 77  1  0  0  0  0
 46 78  1  0  0  0  0
 78 79  1  0  0  0  0
M  CHG  1  78   1
M  END
$$$$
ZINC04199928
  -OEChem-08230709403D

 79 84  0     1  0  0  0  0  0999 V2000
    3.6787   -2.3961   -0.0005 C   0  0  0  0  0  0  0  0  0  0  0  0
    3.7352   -0.8672    0.0055 C   0  0  0  0  0  0  0  0  0  0  0  0
    2.3131   -0.3044    0.0468 C   0  0  0  0  0  0  0  0  0  0  0  0
    2.3659    1.1236    0.0524 O   0  0  0  0  0  0  0  0  0  0  0  0
    1.1808    1.7838    0.0878 C   0  0  0  0  0  0  0  0  0  0  0  0
   -0.0105    1.0752    0.1167 C   0  0  0  0  0  0  0  0  0  0  0  0
   -1.2160    1.7483    0.1475 C   0  0  0  0  0  0  0  0  0  0  0  0
   -1.2452    3.1332    0.1613 C   0  0  0  0  0  0  0  0  0  0  0  0
   -0.0706    3.8536    0.1328 C   0  0  0  0  0  0  0  0  0  0  0  0
    1.1556    3.1852    0.0958 C   0  0  0  0  0  0  0  0  0  0  0  0
    2.4167    3.9499    0.0648 C   0  0  0  0  0  0  0  0  0  0  0  0
    2.3635    5.3155    0.0678 N   0  0  0  0  0  0  0  0  0  0  0  0
    3.5515    2.2968    0.0297 H   0  0  0  0  0  0  0  0  0  0  0  0
    3.5008    6.0446    0.0461 C   0  0  0  0  0  0  0  0  0  0  0  0
    3.4627    7.2625    0.0534 O   0  0  0  0  0  0  0  0  0  0  0  0
    4.7419    5.3551    0.0188 C   0  0  0  0  0  0  0  0  0  0  0  0
    6.0063    6.0792   -0.0069 C   0  0  0  0  0  0  0  0  0  0  0  0
    7.1955    5.4242   -0.0394 C   0  0  0  0  0  0  0  0  0  0  0  0
    7.2516    4.0109   -0.0488 C   0  0  0  0  0  0  0  0  0  0  0  0
    6.0039    3.2333   -0.0230 C   0  0  0  0  0  0  0  0  0  0  0  0
    4.7277    3.9484    0.0116 C   0  0  0  0  0  0  0  0  0  0  0  0
    3.5575    3.2968    0.0350 N   0  0  0  0  0  0  0  0  0  0  0  0
    6.3677    1.9044   -0.0390 C   0  0  0  0  0  0  0  0  0  0  0  0
    7.7066    1.8438   -0.0715 N   0  0  0  0  0  0  0  0  0  0  0  0
    8.2431    1.0001   -0.0889 H   0  0  0  0  0  0  0  0  0  0  0  0
    8.2413    3.1365   -0.0774 N   0  0  0  0  0  0  0  0  0  0  0  0
    5.9949    7.4722    0.0018 N   0  0  0  0  0  0  0  0  0  0  0  0
    7.2534    8.2142    0.1100 C   0  0  0  0  0  0  0  0  0  0  0  0
    6.9668    9.6937    0.0967 C   0  0  0  0  0  0  0  0  0  0  0  0
    6.9388   10.3811   -1.1024 C   0  0  0  0  0  0  0  0  0  0  0  0
    6.6714   11.7369   -1.1163 C   0  0  0  0  0  0  0  0  0  0  0  0
    6.4418   12.4089    0.0724 C   0  0  0  0  0  0  0  0  0  0  0  0
    6.4753   11.7203    1.2732 C   0  0  0  0  0  0  0  0  0  0  0  0
    6.7378   10.3635    1.2841 C   0  0  0  0  0  0  0  0  0  0  0  0
    6.1849   13.7352    0.0605 F   0  0  0  0  0  0  0  0  0  0  0  0
   -2.7910    3.9775    0.2079 S   0  0  0  0  0  0  0  0  0  0  0  0
   -3.7289    3.0762    0.7799 O   0  0  0  0  0  0  0  0  0  0  0  0
   -2.5356    5.2623    0.7587 O   0  0  0  0  0  0  0  0  0  0  0  0
   -3.2638    4.2204   -1.3605 N   0  0  3  0  0  0  0  0  0  0  0  0
   -4.0836    3.2951   -2.1638 C   0  0  0  0  0  0  0  0  0  0  0  0
   -3.7320    3.6292   -3.6351 C   0  0  0  0  0  0  0  0  0  0  0  0
   -3.5655    5.1706   -3.5733 C   0  0  1  0  0  0  0  0  0  0  0  0
   -4.5336    5.6662   -3.6461 H   0  0  0  0  0  0  0  0  0  0  0  0
   -2.9410    5.3973   -2.1803 C   0  0  0  0  0  0  0  0  0  0  0  0
   -3.2022    5.3208   -5.9625 C   0  0  0  0  0  0  0  0  0  0  0  0
   -2.3994    7.0781   -4.5029 C   0  0  0  0  0  0  0  0  0  0  0  0
    4.6918   -2.7971   -0.0300 H   0  0  0  0  0  0  0  0  0  0  0  0
    3.1761   -2.7446    0.9018 H   0  0  0  0  0  0  0  0  0  0  0  0
    3.1278   -2.7359   -0.8775 H   0  0  0  0  0  0  0  0  0  0  0  0
    4.2378   -0.5187   -0.8968 H   0  0  0  0  0  0  0  0  0  0  0  0
    4.2861   -0.5274    0.8825 H   0  0  0  0  0  0  0  0  0  0  0  0
    1.8106   -0.6529    0.9491 H   0  0  0  0  0  0  0  0  0  0  0  0
    1.7622   -0.6442   -0.8301 H   0  0  0  0  0  0  0  0  0  0  0  0
    0.0042   -0.0047    0.1107 H   0  0  0  0  0  0  0  0  0  0  0  0
   -2.1414    1.1917    0.1650 H   0  0  0  0  0  0  0  0  0  0  0  0
   -0.0981    4.9332    0.1388 H   0  0  0  0  0  0  0  0  0  0  0  0
    8.1139    5.9920   -0.0581 H   0  0  0  0  0  0  0  0  0  0  0  0
    5.6935    1.0608   -0.0270 H   0  0  0  0  0  0  0  0  0  0  0  0
    5.1537    7.9507   -0.0638 H   0  0  0  0  0  0  0  0  0  0  0  0
    7.7525    7.9493    1.0420 H   0  0  0  0  0  0  0  0  0  0  0  0
    7.8978    7.9615   -0.7321 H   0  0  0  0  0  0  0  0  0  0  0  0
    7.1220    9.8575   -2.0291 H   0  0  0  0  0  0  0  0  0  0  0  0
    6.6455   12.2729   -2.0535 H   0  0  0  0  0  0  0  0  0  0  0  0
    6.2961   12.2434    2.2010 H   0  0  0  0  0  0  0  0  0  0  0  0
    6.7636    9.8263    2.2207 H   0  0  0  0  0  0  0  0  0  0  0  0
   -3.8220    2.2617   -1.9365 H   0  0  0  0  0  0  0  0  0  0  0  0
   -5.1435    3.4674   -1.9768 H   0  0  0  0  0  0  0  0  0  0  0  0
   -2.8009    3.1474   -3.9334 H   0  0  0  0  0  0  0  0  0  0  0  0
   -4.5458    3.3501   -4.3043 H   0  0  0  0  0  0  0  0  0  0  0  0
   -3.3621    6.2934   -1.7245 H   0  0  0  0  0  0  0  0  0  0  0  0
   -1.8597    5.4992   -2.2730 H   0  0  0  0  0  0  0  0  0  0  0  0
   -4.1700    5.8064   -6.0876 H   0  0  0  0  0  0  0  0  0  0  0  0
   -2.5143    5.6784   -6.7287 H   0  0  0  0  0  0  0  0  0  0  0  0
   -3.3223    4.2416   -6.0570 H   0  0  0  0  0  0  0  0  0  0  0  0
   -1.9359    7.2764   -3.5365 H   0  0  0  0  0  0  0  0  0  0  0  0
   -1.7286    7.3984   -5.3002 H   0  0  0  0  0  0  0  0  0  0  0  0
   -3.3381    7.6274   -4.5753 H   0  0  0  0  0  0  0  0  0  0  0  0
   -2.6379    5.6250   -4.6306 N   0  3  0  0  0  0  0  0  0  0  0  0
   -1.7446    5.1299   -4.5258 H   0  0  0  0  0  0  0  0  0  0  0  0
  1  2  1  0  0  0  0
  1 47  1  0  0  0  0
  1 48  1  0  0  0  0
  1 49  1  0  0  0  0
  2  3  1  0  0  0  0
  2 50  1  0  0  0  0
  2 51  1  0  0  0  0
  3  4  1  0  0  0  0
  3 52  1  0  0  0  0
  3 53  1  0  0  0  0
  4  5  1  0  0  0  0
  5 10  2  0  0  0  0
  5  6  1  0  0  0  0
  6  7  2  0  0  0  0
  6 54  1  0  0  0  0
  7  8  1  0  0  0  0
  7 55  1  0  0  0  0
  8  9  2  0  0  0  0
  8 36  1  0  0  0  0
  9 10  1  0  0  0  0
  9 56  1  0  0  0  0
 10 11  1  0  0  0  0
 11 22  1  0  0  0  0
 11 12  2  0  0  0  0
 12 14  1  0  0  0  0
 13 22  1  0  0  0  0
 14 15  2  0  0  0  0
 14 16  1  0  0  0  0
 16 17  1  0  0  0  0
 16 21  2  0  0  0  0
 17 18  2  0  0  0  0
 17 27  1  0  0  0  0
 18 19  1  0  0  0  0
 18 57  1  0  0  0  0
 19 26  2  0  0  0  0
 19 20  1  0  0  0  0
 20 21  1  0  0  0  0
 20 23  2  0  0  0  0
 21 22  1  0  0  0  0
 23 24  1  0  0  0  0
 23 58  1  0  0  0  0
 24 25  1  0  0  0  0
 24 26  1  0  0  0  0
 27 28  1  0  0  0  0
 27 59  1  0  0  0  0
 28 29  1  0  0  0  0
 28 60  1  0  0  0  0
 28 61  1  0  0  0  0
 29 34  2  0  0  0  0
 29 30  1  0  0  0  0
 30 31  2  0  0  0  0
 30 62  1  0  0  0  0
 31 32  1  0  0  0  0
 31 63  1  0  0  0  0
 32 33  2  0  0  0  0
 32 35  1  0  0  0  0
 33 34  1  0  0  0  0
 33 64  1  0  0  0  0
 34 65  1  0  0  0  0
 36 37  2  0  0  0  0
 36 38  2  0  0  0  0
 36 39  1  0  0  0  0
 39 44  1  0  0  0  0
 39 40  1  0  0  0  0
 40 41  1  0  0  0  0
 40 66  1  0  0  0  0
 40 67  1  0  0  0  0
 41 42  1  0  0  0  0
 41 68  1  0  0  0  0
 41 69  1  0  0  0  0
 42 43  1  0  0  0  0
 42 44  1  0  0  0  0
 42 78  1  0  0  0  0
 44 70  1  0  0  0  0
 44 71  1  0  0  0  0
 45 72  1  0  0  0  0
 45 73  1  0  0  0  0
 45 74  1  0  0  0  0
 45 78  1  0  0  0  0
 46 75  1  0  0  0  0
 46 76  1  0  0  0  0
 46 77  1  0  0  0  0
 46 78  1  0  0  0  0
 78 79  1  0  0  0  0
M  CHG  1  78   1
M  END
$$$$
ZINC04199928
  -OEChem-08230709403D

 79 84  0     1  0  0  0  0  0999 V2000
    3.6787   -2.3961   -0.0005 C   0  0  0  0  0  0  0  0  0  0  0  0
    3.7352   -0.8672    0.0055 C   0  0  0  0  0  0  0  0  0  0  0  0
    2.3131   -0.3044    0.0468 C   0  0  0  0  0  0  0  0  0  0  0  0
    2.3659    1.1236    0.0524 O   0  0  0  0  0  0  0  0  0  0  0  0
    1.1808    1.7838    0.0878 C   0  0  0  0  0  0  0  0  0  0  0  0
   -0.0105    1.0752    0.1167 C   0  0  0  0  0  0  0  0  0  0  0  0
   -1.2160    1.7483    0.1475 C   0  0  0  0  0  0  0  0  0  0  0  0
   -1.2452    3.1332    0.1613 C   0  0  0  0  0  0  0  0  0  0  0  0
   -0.0706    3.8536    0.1328 C   0  0  0  0  0  0  0  0  0  0  0  0
    1.1556    3.1852    0.0958 C   0  0  0  0  0  0  0  0  0  0  0  0
    2.4167    3.9499    0.0648 C   0  0  0  0  0  0  0  0  0  0  0  0
    2.3635    5.3155    0.0678 N   0  0  0  0  0  0  0  0  0  0  0  0
    3.5515    2.2968    0.0297 H   0  0  0  0  0  0  0  0  0  0  0  0
    3.5008    6.0446    0.0461 C   0  0  0  0  0  0  0  0  0  0  0  0
    3.4627    7.2625    0.0534 O   0  0  0  0  0  0  0  0  0  0  0  0
    4.7419    5.3551    0.0188 C   0  0  0  0  0  0  0  0  0  0  0  0
    6.0063    6.0792   -0.0069 C   0  0  0  0  0  0  0  0  0  0  0  0
    7.1955    5.4242   -0.0394 C   0  0  0  0  0  0  0  0  0  0  0  0
    7.2516    4.0109   -0.0488 C   0  0  0  0  0  0  0  0  0  0  0  0
    6.0039    3.2333   -0.0230 C   0  0  0  0  0  0  0  0  0  0  0  0
    4.7277    3.9484    0.0116 C   0  0  0  0  0  0  0  0  0  0  0  0
    3.5575    3.2968    0.0350 N   0  0  0  0  0  0  0  0  0  0  0  0
    6.3677    1.9044   -0.0391 C   0  0  0  0  0  0  0  0  0  0  0  0
    7.7066    1.8438   -0.0716 N   0  0  0  0  0  0  0  0  0  0  0  0
    9.2153    3.3621   -0.0998 H   0  0  0  0  0  0  0  0  0  0  0  0
    8.2413    3.1365   -0.0775 N   0  0  0  0  0  0  0  0  0  0  0  0
    5.9949    7.4722    0.0018 N   0  0  0  0  0  0  0  0  0  0  0  0
    7.2534    8.2142    0.1100 C   0  0  0  0  0  0  0  0  0  0  0  0
    6.9668    9.6937    0.0967 C   0  0  0  0  0  0  0  0  0  0  0  0
    6.9388   10.3811   -1.1024 C   0  0  0  0  0  0  0  0  0  0  0  0
    6.6714   11.7369   -1.1163 C   0  0  0  0  0  0  0  0  0  0  0  0
    6.4418   12.4089    0.0724 C   0  0  0  0  0  0  0  0  0  0  0  0
    6.4753   11.7203    1.2732 C   0  0  0  0  0  0  0  0  0  0  0  0
    6.7378   10.3635    1.2841 C   0  0  0  0  0  0  0  0  0  0  0  0
    6.1849   13.7352    0.0605 F   0  0  0  0  0  0  0  0  0  0  0  0
   -2.7910    3.9775    0.2079 S   0  0  0  0  0  0  0  0  0  0  0  0
   -3.7289    3.0762    0.7799 O   0  0  0  0  0  0  0  0  0  0  0  0
   -2.5356    5.2623    0.7587 O   0  0  0  0  0  0  0  0  0  0  0  0
   -3.2638    4.2204   -1.3605 N   0  0  3  0  0  0  0  0  0  0  0  0
   -4.0836    3.2951   -2.1638 C   0  0  0  0  0  0  0  0  0  0  0  0
   -3.7320    3.6292   -3.6351 C   0  0  0  0  0  0  0  0  0  0  0  0
   -3.5655    5.1706   -3.5733 C   0  0  1  0  0  0  0  0  0  0  0  0
   -4.5336    5.6662   -3.6461 H   0  0  0  0  0  0  0  0  0  0  0  0
   -2.9410    5.3973   -2.1803 C   0  0  0  0  0  0  0  0  0  0  0  0
   -3.2022    5.3208   -5.9625 C   0  0  0  0  0  0  0  0  0  0  0  0
   -2.3994    7.0781   -4.5029 C   0  0  0  0  0  0  0  0  0  0  0  0
    4.6918   -2.7971   -0.0300 H   0  0  0  0  0  0  0  0  0  0  0  0
    3.1761   -2.7446    0.9018 H   0  0  0  0  0  0  0  0  0  0  0  0
    3.1278   -2.7359   -0.8775 H   0  0  0  0  0  0  0  0  0  0  0  0
    4.2378   -0.5187   -0.8968 H   0  0  0  0  0  0  0  0  0  0  0  0
    4.2861   -0.5274    0.8825 H   0  0  0  0  0  0  0  0  0  0  0  0
    1.8106   -0.6529    0.9491 H   0  0  0  0  0  0  0  0  0  0  0  0
    1.7622   -0.6442   -0.8301 H   0  0  0  0  0  0  0  0  0  0  0  0
    0.0042   -0.0047    0.1107 H   0  0  0  0  0  0  0  0  0  0  0  0
   -2.1414    1.1917    0.1650 H   0  0  0  0  0  0  0  0  0  0  0  0
   -0.0981    4.9332    0.1388 H   0  0  0  0  0  0  0  0  0  0  0  0
    8.1139    5.9920   -0.0581 H   0  0  0  0  0  0  0  0  0  0  0  0
    5.6935    1.0608   -0.0274 H   0  0  0  0  0  0  0  0  0  0  0  0
    5.1537    7.9507   -0.0638 H   0  0  0  0  0  0  0  0  0  0  0  0
    7.7525    7.9493    1.0420 H   0  0  0  0  0  0  0  0  0  0  0  0
    7.8978    7.9615   -0.7321 H   0  0  0  0  0  0  0  0  0  0  0  0
    7.1220    9.8575   -2.0291 H   0  0  0  0  0  0  0  0  0  0  0  0
    6.6455   12.2729   -2.0535 H   0  0  0  0  0  0  0  0  0  0  0  0
    6.2961   12.2434    2.2010 H   0  0  0  0  0  0  0  0  0  0  0  0
    6.7636    9.8263    2.2207 H   0  0  0  0  0  0  0  0  0  0  0  0
   -3.8220    2.2617   -1.9365 H   0  0  0  0  0  0  0  0  0  0  0  0
   -5.1435    3.4674   -1.9768 H   0  0  0  0  0  0  0  0  0  0  0  0
   -2.8009    3.1474   -3.9334 H   0  0  0  0  0  0  0  0  0  0  0  0
   -4.5458    3.3501   -4.3043 H   0  0  0  0  0  0  0  0  0  0  0  0
   -3.3621    6.2934   -1.7245 H   0  0  0  0  0  0  0  0  0  0  0  0
   -1.8597    5.4992   -2.2730 H   0  0  0  0  0  0  0  0  0  0  0  0
   -4.1700    5.8064   -6.0876 H   0  0  0  0  0  0  0  0  0  0  0  0
   -2.5143    5.6784   -6.7287 H   0  0  0  0  0  0  0  0  0  0  0  0
   -3.3223    4.2416   -6.0570 H   0  0  0  0  0  0  0  0  0  0  0  0
   -1.9359    7.2764   -3.5365 H   0  0  0  0  0  0  0  0  0  0  0  0
   -1.7286    7.3984   -5.3002 H   0  0  0  0  0  0  0  0  0  0  0  0
   -3.3381    7.6274   -4.5753 H   0  0  0  0  0  0  0  0  0  0  0  0
   -2.6379    5.6250   -4.6306 N   0  3  0  0  0  0  0  0  0  0  0  0
   -1.7446    5.1299   -4.5258 H   0  0  0  0  0  0  0  0  0  0  0  0
  1  2  1  0  0  0  0
  1 47  1  0  0  0  0
  1 48  1  0  0  0  0
  1 49  1  0  0  0  0
  2  3  1  0  0  0  0
  2 50  1  0  0  0  0
  2 51  1  0  0  0  0
  3  4  1  0  0  0  0
  3 52  1  0  0  0  0
  3 53  1  0  0  0  0
  4  5  1  0  0  0  0
  5 10  2  0  0  0  0
  5  6  1  0  0  0  0
  6  7  2  0  0  0  0
  6 54  1  0  0  0  0
  7  8  1  0  0  0  0
  7 55  1  0  0  0  0
  8  9  2  0  0  0  0
  8 36  1  0  0  0  0
  9 10  1  0  0  0  0
  9 56  1  0  0  0  0
 10 11  1  0  0  0  0
 11 22  1  0  0  0  0
 11 12  2  0  0  0  0
 12 14  1  0  0  0  0
 13 22  1  0  0  0  0
 14 15  2  0  0  0  0
 14 16  1  0  0  0  0
 16 17  2  0  0  0  0
 16 21  1  0  0  0  0
 17 18  1  0  0  0  0
 17 27  1  0  0  0  0
 18 19  2  0  0  0  0
 18 57  1  0  0  0  0
 19 20  1  0  0  0  0
 19 26  1  0  0  0  0
 20 21  2  0  0  0  0
 20 23  1  0  0  0  0
 21 22  1  0  0  0  0
 23 58  1  0  0  0  0
 23 24  2  0  0  0  0
 24 26  1  0  0  0  0
 25 26  1  0  0  0  0
 27 28  1  0  0  0  0
 27 59  1  0  0  0  0
 28 29  1  0  0  0  0
 28 60  1  0  0  0  0
 28 61  1  0  0  0  0
 29 34  2  0  0  0  0
 29 30  1  0  0  0  0
 30 31  2  0  0  0  0
 30 62  1  0  0  0  0
 31 32  1  0  0  0  0
 31 63  1  0  0  0  0
 32 33  2  0  0  0  0
 32 35  1  0  0  0  0
 33 34  1  0  0  0  0
 33 64  1  0  0  0  0
 34 65  1  0  0  0  0
 36 37  2  0  0  0  0
 36 38  2  0  0  0  0
 36 39  1  0  0  0  0
 39 44  1  0  0  0  0
 39 40  1  0  0  0  0
 40 41  1  0  0  0  0
 40 66  1  0  0  0  0
 40 67  1  0  0  0  0
 41 42  1  0  0  0  0
 41 68  1  0  0  0  0
 41 69  1  0  0  0  0
 42 43  1  0  0  0  0
 42 44  1  0  0  0  0
 42 78  1  0  0  0  0
 44 70  1  0  0  0  0
 44 71  1  0  0  0  0
 45 72  1  0  0  0  0
 45 73  1  0  0  0  0
 45 74  1  0  0  0  0
 45 78  1  0  0  0  0
 46 75  1  0  0  0  0
 46 76  1  0  0  0  0
 46 77  1  0  0  0  0
 46 78  1  0  0  0  0
 78 79  1  0  0  0  0
M  CHG  1  78   1
M  END
$$$$
ZINC04199928
  -OEChem-08230709403D

 79 84  0     1  0  0  0  0  0999 V2000
    3.6786   -2.3961   -0.0047 C   0  0  0  0  0  0  0  0  0  0  0  0
    3.7351   -0.8672    0.0021 C   0  0  0  0  0  0  0  0  0  0  0  0
    2.3130   -0.3044    0.0443 C   0  0  0  0  0  0  0  0  0  0  0  0
    2.3658    1.1236    0.0507 O   0  0  0  0  0  0  0  0  0  0  0  0
    1.1808    1.7838    0.0869 C   0  0  0  0  0  0  0  0  0  0  0  0
   -0.0105    1.0752    0.1158 C   0  0  0  0  0  0  0  0  0  0  0  0
   -1.2160    1.7483    0.1474 C   0  0  0  0  0  0  0  0  0  0  0  0
   -1.2452    3.1332    0.1620 C   0  0  0  0  0  0  0  0  0  0  0  0
   -0.0706    3.8536    0.1336 C   0  0  0  0  0  0  0  0  0  0  0  0
    1.1556    3.1852    0.0958 C   0  0  0  0  0  0  0  0  0  0  0  0
    2.4167    3.9499    0.0647 C   0  0  0  0  0  0  0  0  0  0  0  0
    2.3635    5.3155    0.0705 N   0  0  0  0  0  0  0  0  0  0  0  0
    4.3946    7.6252    0.0408 H   0  0  0  0  0  0  0  0  0  0  0  0
    3.5008    6.0446    0.0481 C   0  0  0  0  0  0  0  0  0  0  0  0
    3.4629    7.2624    0.0617 O   0  0  0  0  0  0  0  0  0  0  0  0
    4.7418    5.3551    0.0155 C   0  0  0  0  0  0  0  0  0  0  0  0
    6.0062    6.0792   -0.0124 C   0  0  0  0  0  0  0  0  0  0  0  0
    7.1953    5.4241   -0.0465 C   0  0  0  0  0  0  0  0  0  0  0  0
    7.2514    4.0109   -0.0573 C   0  0  0  0  0  0  0  0  0  0  0  0
    6.0038    3.2333   -0.0297 C   0  0  0  0  0  0  0  0  0  0  0  0
    4.7276    3.9484    0.0069 C   0  0  0  0  0  0  0  0  0  0  0  0
    3.5575    3.2968    0.0323 N   0  0  0  0  0  0  0  0  0  0  0  0
    6.3675    1.9044   -0.0481 C   0  0  0  0  0  0  0  0  0  0  0  0
    7.7063    1.8438   -0.0827 N   0  0  0  0  0  0  0  0  0  0  0  0
    8.2428    1.0001   -0.1018 H   0  0  0  0  0  0  0  0  0  0  0  0
    8.2410    3.1365   -0.0883 N   0  0  0  0  0  0  0  0  0  0  0  0
    5.9948    7.4722   -0.0032 N   0  0  0  0  0  0  0  0  0  0  0  0
    7.2535    8.2142    0.1029 C   0  0  0  0  0  0  0  0  0  0  0  0
    6.9669    9.6937    0.0907 C   0  0  0  0  0  0  0  0  0  0  0  0
    6.9367   10.3814   -1.1081 C   0  0  0  0  0  0  0  0  0  0  0  0
    6.6693   11.7372   -1.1210 C   0  0  0  0  0  0  0  0  0  0  0  0
    6.4419   12.4088    0.0683 C   0  0  0  0  0  0  0  0  0  0  0  0
    6.4777   11.7199    1.2689 C   0  0  0  0  0  0  0  0  0  0  0  0
    6.7402   10.3631    1.2788 C   0  0  0  0  0  0  0  0  0  0  0  0
    6.1850   13.7351    0.0574 F   0  0  0  0  0  0  0  0  0  0  0  0
   -2.7910    3.9775    0.2097 S   0  0  0  0  0  0  0  0  0  0  0  0
   -3.7287    3.0759    0.7814 O   0  0  0  0  0  0  0  0  0  0  0  0
   -2.5353    5.2620    0.7611 O   0  0  0  0  0  0  0  0  0  0  0  0
   -3.2643    4.2213   -1.3585 N   0  0  3  0  0  0  0  0  0  0  0  0
   -4.0843    3.2965   -2.1621 C   0  0  0  0  0  0  0  0  0  0  0  0
   -3.7333    3.6315   -3.6332 C   0  0  0  0  0  0  0  0  0  0  0  0
   -3.5667    5.1728   -3.5706 C   0  0  1  0  0  0  0  0  0  0  0  0
   -4.5348    5.6685   -3.6428 H   0  0  0  0  0  0  0  0  0  0  0  0
   -2.9417    5.3987   -2.1777 C   0  0  0  0  0  0  0  0  0  0  0  0
   -3.2042    5.3244   -5.9598 C   0  0  0  0  0  0  0  0  0  0  0  0
   -2.4009    7.0809   -4.4995 C   0  0  0  0  0  0  0  0  0  0  0  0
    4.6917   -2.7971   -0.0348 H   0  0  0  0  0  0  0  0  0  0  0  0
    3.1763   -2.7451    0.8976 H   0  0  0  0  0  0  0  0  0  0  0  0
    3.1273   -2.7354   -0.8817 H   0  0  0  0  0  0  0  0  0  0  0  0
    4.2374   -0.5182   -0.9001 H   0  0  0  0  0  0  0  0  0  0  0  0
    4.2863   -0.5279    0.8792 H   0  0  0  0  0  0  0  0  0  0  0  0
    1.8108   -0.6534    0.9466 H   0  0  0  0  0  0  0  0  0  0  0  0
    1.7619   -0.6437   -0.8327 H   0  0  0  0  0  0  0  0  0  0  0  0
    0.0042   -0.0047    0.1091 H   0  0  0  0  0  0  0  0  0  0  0  0
   -2.1414    1.1917    0.1648 H   0  0  0  0  0  0  0  0  0  0  0  0
   -0.0981    4.9332    0.1402 H   0  0  0  0  0  0  0  0  0  0  0  0
    8.1137    5.9919   -0.0661 H   0  0  0  0  0  0  0  0  0  0  0  0
    5.6933    1.0608   -0.0358 H   0  0  0  0  0  0  0  0  0  0  0  0
    5.1535    7.9507   -0.0670 H   0  0  0  0  0  0  0  0  0  0  0  0
    7.7544    7.9489    1.0339 H   0  0  0  0  0  0  0  0  0  0  0  0
    7.8963    7.9617   -0.7404 H   0  0  0  0  0  0  0  0  0  0  0  0
    7.1181    9.8582   -2.0353 H   0  0  0  0  0  0  0  0  0  0  0  0
    6.6416   12.2736   -2.0580 H   0  0  0  0  0  0  0  0  0  0  0  0
    6.3002   12.2426    2.1972 H   0  0  0  0  0  0  0  0  0  0  0  0
    6.7677    9.8254    2.2151 H   0  0  0  0  0  0  0  0  0  0  0  0
   -3.8227    2.2630   -1.9355 H   0  0  0  0  0  0  0  0  0  0  0  0
   -5.1442    3.4687   -1.9746 H   0  0  0  0  0  0  0  0  0  0  0  0
   -2.8023    3.1498   -3.9321 H   0  0  0  0  0  0  0  0  0  0  0  0
   -4.5472    3.3528   -4.3024 H   0  0  0  0  0  0  0  0  0  0  0  0
   -3.3626    6.2946   -1.7212 H   0  0  0  0  0  0  0  0  0  0  0  0
   -1.8605    5.5006   -2.2707 H   0  0  0  0  0  0  0  0  0  0  0  0
   -4.1720    5.8101   -6.0843 H   0  0  0  0  0  0  0  0  0  0  0  0
   -2.5166    5.6825   -6.7261 H   0  0  0  0  0  0  0  0  0  0  0  0
   -3.3244    4.2453   -6.0550 H   0  0  0  0  0  0  0  0  0  0  0  0
   -1.9370    7.2786   -3.5331 H   0  0  0  0  0  0  0  0  0  0  0  0
   -1.7303    7.4016   -5.2968 H   0  0  0  0  0  0  0  0  0  0  0  0
   -3.3396    7.6302   -4.5712 H   0  0  0  0  0  0  0  0  0  0  0  0
   -2.6395    5.6278   -4.6279 N   0  3  0  0  0  0  0  0  0  0  0  0
   -1.7461    5.1327   -4.5237 H   0  0  0  0  0  0  0  0  0  0  0  0
  1  2  1  0  0  0  0
  1 47  1  0  0  0  0
  1 48  1  0  0  0  0
  1 49  1  0  0  0  0
  2  3  1  0  0  0  0
  2 50  1  0  0  0  0
  2 51  1  0  0  0  0
  3  4  1  0  0  0  0
  3 52  1  0  0  0  0
  3 53  1  0  0  0  0
  4  5  1  0  0  0  0
  5 10  2  0  0  0  0
  5  6  1  0  0  0  0
  6  7  2  0  0  0  0
  6 54  1  0  0  0  0
  7  8  1  0  0  0  0
  7 55  1  0  0  0  0
  8  9  2  0  0  0  0
  8 36  1  0  0  0  0
  9 10  1  0  0  0  0
  9 56  1  0  0  0  0
 10 11  1  0  0  0  0
 11 22  2  0  0  0  0
 11 12  1  0  0  0  0
 12 14  2  0  0  0  0
 13 15  1  0  0  0  0
 14 15  1  0  0  0  0
 14 16  1  0  0  0  0
 16 17  1  0  0  0  0
 16 21  2  0  0  0  0
 17 18  2  0  0  0  0
 17 27  1  0  0  0  0
 18 19  1  0  0  0  0
 18 57  1  0  0  0  0
 19 26  2  0  0  0  0
 19 20  1  0  0  0  0
 20 21  1  0  0  0  0
 20 23  2  0  0  0  0
 21 22  1  0  0  0  0
 23 24  1  0  0  0  0
 23 58  1  0  0  0  0
 24 25  1  0  0  0  0
 24 26  1  0  0  0  0
 27 28  1  0  0  0  0
 27 59  1  0  0  0  0
 28 29  1  0  0  0  0
 28 60  1  0  0  0  0
 28 61  1  0  0  0  0
 29 34  2  0  0  0  0
 29 30  1  0  0  0  0
 30 31  2  0  0  0  0
 30 62  1  0  0  0  0
 31 32  1  0  0  0  0
 31 63  1  0  0  0  0
 32 33  2  0  0  0  0
 32 35  1  0  0  0  0
 33 34  1  0  0  0  0
 33 64  1  0  0  0  0
 34 65  1  0  0  0  0
 36 37  2  0  0  0  0
 36 38  2  0  0  0  0
 36 39  1  0  0  0  0
 39 44  1  0  0  0  0
 39 40  1  0  0  0  0
 40 41  1  0  0  0  0
 40 66  1  0  0  0  0
 40 67  1  0  0  0  0
 41 42  1  0  0  0  0
 41 68  1  0  0  0  0
 41 69  1  0  0  0  0
 42 43  1  0  0  0  0
 42 44  1  0  0  0  0
 42 78  1  0  0  0  0
 44 70  1  0  0  0  0
 44 71  1  0  0  0  0
 45 72  1  0  0  0  0
 45 73  1  0  0  0  0
 45 74  1  0  0  0  0
 45 78  1  0  0  0  0
 46 75  1  0  0  0  0
 46 76  1  0  0  0  0
 46 77  1  0  0  0  0
 46 78  1  0  0  0  0
 78 79  1  0  0  0  0
M  CHG  1  78   1
M  END
$$$$
ZINC04199928
  -OEChem-08230709403D

 79 84  0     1  0  0  0  0  0999 V2000
    3.6786   -2.3961   -0.0047 C   0  0  0  0  0  0  0  0  0  0  0  0
    3.7351   -0.8672    0.0021 C   0  0  0  0  0  0  0  0  0  0  0  0
    2.3130   -0.3044    0.0443 C   0  0  0  0  0  0  0  0  0  0  0  0
    2.3658    1.1236    0.0507 O   0  0  0  0  0  0  0  0  0  0  0  0
    1.1808    1.7838    0.0869 C   0  0  0  0  0  0  0  0  0  0  0  0
   -0.0105    1.0752    0.1158 C   0  0  0  0  0  0  0  0  0  0  0  0
   -1.2160    1.7483    0.1474 C   0  0  0  0  0  0  0  0  0  0  0  0
   -1.2452    3.1332    0.1620 C   0  0  0  0  0  0  0  0  0  0  0  0
   -0.0706    3.8536    0.1336 C   0  0  0  0  0  0  0  0  0  0  0  0
    1.1556    3.1852    0.0958 C   0  0  0  0  0  0  0  0  0  0  0  0
    2.4167    3.9499    0.0647 C   0  0  0  0  0  0  0  0  0  0  0  0
    2.3635    5.3155    0.0705 N   0  0  0  0  0  0  0  0  0  0  0  0
    4.3946    7.6252    0.0408 H   0  0  0  0  0  0  0  0  0  0  0  0
    3.5008    6.0446    0.0481 C   0  0  0  0  0  0  0  0  0  0  0  0
    3.4629    7.2624    0.0617 O   0  0  0  0  0  0  0  0  0  0  0  0
    4.7418    5.3551    0.0155 C   0  0  0  0  0  0  0  0  0  0  0  0
    6.0062    6.0792   -0.0124 C   0  0  0  0  0  0  0  0  0  0  0  0
    7.1953    5.4241   -0.0465 C   0  0  0  0  0  0  0  0  0  0  0  0
    7.2514    4.0109   -0.0573 C   0  0  0  0  0  0  0  0  0  0  0  0
    6.0038    3.2333   -0.0297 C   0  0  0  0  0  0  0  0  0  0  0  0
    4.7276    3.9484    0.0069 C   0  0  0  0  0  0  0  0  0  0  0  0
    3.5575    3.2968    0.0323 N   0  0  0  0  0  0  0  0  0  0  0  0
    6.3675    1.9044   -0.0482 C   0  0  0  0  0  0  0  0  0  0  0  0
    7.7063    1.8438   -0.0829 N   0  0  0  0  0  0  0  0  0  0  0  0
    9.2150    3.3621   -0.1120 H   0  0  0  0  0  0  0  0  0  0  0  0
    8.2410    3.1365   -0.0884 N   0  0  0  0  0  0  0  0  0  0  0  0
    5.9948    7.4722   -0.0032 N   0  0  0  0  0  0  0  0  0  0  0  0
    7.2535    8.2142    0.1029 C   0  0  0  0  0  0  0  0  0  0  0  0
    6.9669    9.6937    0.0907 C   0  0  0  0  0  0  0  0  0  0  0  0
    6.9367   10.3814   -1.1081 C   0  0  0  0  0  0  0  0  0  0  0  0
    6.6693   11.7372   -1.1210 C   0  0  0  0  0  0  0  0  0  0  0  0
    6.4419   12.4088    0.0683 C   0  0  0  0  0  0  0  0  0  0  0  0
    6.4777   11.7199    1.2689 C   0  0  0  0  0  0  0  0  0  0  0  0
    6.7402   10.3631    1.2788 C   0  0  0  0  0  0  0  0  0  0  0  0
    6.1850   13.7351    0.0574 F   0  0  0  0  0  0  0  0  0  0  0  0
   -2.7910    3.9775    0.2097 S   0  0  0  0  0  0  0  0  0  0  0  0
   -3.7287    3.0759    0.7814 O   0  0  0  0  0  0  0  0  0  0  0  0
   -2.5353    5.2620    0.7611 O   0  0  0  0  0  0  0  0  0  0  0  0
   -3.2643    4.2213   -1.3585 N   0  0  3  0  0  0  0  0  0  0  0  0
   -4.0843    3.2965   -2.1621 C   0  0  0  0  0  0  0  0  0  0  0  0
   -3.7333    3.6315   -3.6332 C   0  0  0  0  0  0  0  0  0  0  0  0
   -3.5667    5.1728   -3.5706 C   0  0  1  0  0  0  0  0  0  0  0  0
   -4.5348    5.6685   -3.6428 H   0  0  0  0  0  0  0  0  0  0  0  0
   -2.9417    5.3987   -2.1777 C   0  0  0  0  0  0  0  0  0  0  0  0
   -3.2042    5.3244   -5.9598 C   0  0  0  0  0  0  0  0  0  0  0  0
   -2.4009    7.0809   -4.4995 C   0  0  0  0  0  0  0  0  0  0  0  0
    4.6917   -2.7971   -0.0348 H   0  0  0  0  0  0  0  0  0  0  0  0
    3.1763   -2.7451    0.8976 H   0  0  0  0  0  0  0  0  0  0  0  0
    3.1273   -2.7354   -0.8817 H   0  0  0  0  0  0  0  0  0  0  0  0
    4.2374   -0.5182   -0.9001 H   0  0  0  0  0  0  0  0  0  0  0  0
    4.2863   -0.5279    0.8792 H   0  0  0  0  0  0  0  0  0  0  0  0
    1.8108   -0.6534    0.9466 H   0  0  0  0  0  0  0  0  0  0  0  0
    1.7619   -0.6437   -0.8327 H   0  0  0  0  0  0  0  0  0  0  0  0
    0.0042   -0.0047    0.1091 H   0  0  0  0  0  0  0  0  0  0  0  0
   -2.1414    1.1917    0.1648 H   0  0  0  0  0  0  0  0  0  0  0  0
   -0.0981    4.9332    0.1402 H   0  0  0  0  0  0  0  0  0  0  0  0
    8.1137    5.9919   -0.0661 H   0  0  0  0  0  0  0  0  0  0  0  0
    5.6933    1.0608   -0.0363 H   0  0  0  0  0  0  0  0  0  0  0  0
    5.1535    7.9507   -0.0670 H   0  0  0  0  0  0  0  0  0  0  0  0
    7.7544    7.9489    1.0339 H   0  0  0  0  0  0  0  0  0  0  0  0
    7.8963    7.9617   -0.7404 H   0  0  0  0  0  0  0  0  0  0  0  0
    7.1181    9.8582   -2.0353 H   0  0  0  0  0  0  0  0  0  0  0  0
    6.6416   12.2736   -2.0580 H   0  0  0  0  0  0  0  0  0  0  0  0
    6.3002   12.2426    2.1972 H   0  0  0  0  0  0  0  0  0  0  0  0
    6.7677    9.8254    2.2151 H   0  0  0  0  0  0  0  0  0  0  0  0
   -3.8227    2.2630   -1.9355 H   0  0  0  0  0  0  0  0  0  0  0  0
   -5.1442    3.4687   -1.9746 H   0  0  0  0  0  0  0  0  0  0  0  0
   -2.8023    3.1498   -3.9321 H   0  0  0  0  0  0  0  0  0  0  0  0
   -4.5472    3.3528   -4.3024 H   0  0  0  0  0  0  0  0  0  0  0  0
   -3.3626    6.2946   -1.7212 H   0  0  0  0  0  0  0  0  0  0  0  0
   -1.8605    5.5006   -2.2707 H   0  0  0  0  0  0  0  0  0  0  0  0
   -4.1720    5.8101   -6.0843 H   0  0  0  0  0  0  0  0  0  0  0  0
   -2.5166    5.6825   -6.7261 H   0  0  0  0  0  0  0  0  0  0  0  0
   -3.3244    4.2453   -6.0550 H   0  0  0  0  0  0  0  0  0  0  0  0
   -1.9370    7.2786   -3.5331 H   0  0  0  0  0  0  0  0  0  0  0  0
   -1.7303    7.4016   -5.2968 H   0  0  0  0  0  0  0  0  0  0  0  0
   -3.3396    7.6302   -4.5712 H   0  0  0  0  0  0  0  0  0  0  0  0
   -2.6395    5.6278   -4.6279 N   0  3  0  0  0  0  0  0  0  0  0  0
   -1.7461    5.1327   -4.5237 H   0  0  0  0  0  0  0  0  0  0  0  0
  1  2  1  0  0  0  0
  1 47  1  0  0  0  0
  1 48  1  0  0  0  0
  1 49  1  0  0  0  0
  2  3  1  0  0  0  0
  2 50  1  0  0  0  0
  2 51  1  0  0  0  0
  3  4  1  0  0  0  0
  3 52  1  0  0  0  0
  3 53  1  0  0  0  0
  4  5  1  0  0  0  0
  5 10  2  0  0  0  0
  5  6  1  0  0  0  0
  6  7  2  0  0  0  0
  6 54  1  0  0  0  0
  7  8  1  0  0  0  0
  7 55  1  0  0  0  0
  8  9  2  0  0  0  0
  8 36  1  0  0  0  0
  9 10  1  0  0  0  0
  9 56  1  0  0  0  0
 10 11  1  0  0  0  0
 11 22  2  0  0  0  0
 11 12  1  0  0  0  0
 12 14  2  0  0  0  0
 13 15  1  0  0  0  0
 14 15  1  0  0  0  0
 14 16  1  0  0  0  0
 16 17  2  0  0  0  0
 16 21  1  0  0  0  0
 17 18  1  0  0  0  0
 17 27  1  0  0  0  0
 18 19  2  0  0  0  0
 18 57  1  0  0  0  0
 19 20  1  0  0  0  0
 19 26  1  0  0  0  0
 20 21  2  0  0  0  0
 20 23  1  0  0  0  0
 21 22  1  0  0  0  0
 23 58  1  0  0  0  0
 23 24  2  0  0  0  0
 24 26  1  0  0  0  0
 25 26  1  0  0  0  0
 27 28  1  0  0  0  0
 27 59  1  0  0  0  0
 28 29  1  0  0  0  0
 28 60  1  0  0  0  0
 28 61  1  0  0  0  0
 29 34  2  0  0  0  0
 29 30  1  0  0  0  0
 30 31  2  0  0  0  0
 30 62  1  0  0  0  0
 31 32  1  0  0  0  0
 31 63  1  0  0  0  0
 32 33  2  0  0  0  0
 32 35  1  0  0  0  0
 33 34  1  0  0  0  0
 33 64  1  0  0  0  0
 34 65  1  0  0  0  0
 36 37  2  0  0  0  0
 36 38  2  0  0  0  0
 36 39  1  0  0  0  0
 39 44  1  0  0  0  0
 39 40  1  0  0  0  0
 40 41  1  0  0  0  0
 40 66  1  0  0  0  0
 40 67  1  0  0  0  0
 41 42  1  0  0  0  0
 41 68  1  0  0  0  0
 41 69  1  0  0  0  0
 42 43  1  0  0  0  0
 42 44  1  0  0  0  0
 42 78  1  0  0  0  0
 44 70  1  0  0  0  0
 44 71  1  0  0  0  0
 45 72  1  0  0  0  0
 45 73  1  0  0  0  0
 45 74  1  0  0  0  0
 45 78  1  0  0  0  0
 46 75  1  0  0  0  0
 46 76  1  0  0  0  0
 46 77  1  0  0  0  0
 46 78  1  0  0  0  0
 78 79  1  0  0  0  0
M  CHG  1  78   1
M  END
$$$$
ZINC04199929
  -OEChem-08230709403D

 40 43  0     0  0  0  0  0  0999 V2000
    7.2352    4.3811   -0.0755 C   0  0  0  0  0  0  0  0  0  0  0  0
    5.8815    3.6681   -0.0597 C   0  0  0  0  0  0  0  0  0  0  0  0
    6.1025    2.1541   -0.0642 C   0  0  0  0  0  0  0  0  0  0  0  0
    4.8382    1.4882   -0.0495 O   0  0  0  0  0  0  0  0  0  0  0  0
    4.8565    0.1311   -0.0513 C   0  0  0  0  0  0  0  0  0  0  0  0
    6.0646   -0.5488   -0.0624 C   0  0  0  0  0  0  0  0  0  0  0  0
    6.0819   -1.9299   -0.0700 C   0  0  0  0  0  0  0  0  0  0  0  0
    4.8959   -2.6452   -0.0616 C   0  0  0  0  0  0  0  0  0  0  0  0
    3.6859   -1.9850   -0.0457 C   0  0  0  0  0  0  0  0  0  0  0  0
    3.6546   -0.5888   -0.0374 C   0  0  0  0  0  0  0  0  0  0  0  0
    2.3626    0.1243   -0.0203 C   0  0  0  0  0  0  0  0  0  0  0  0
    1.2092   -0.6145   -0.0128 N   0  0  0  0  0  0  0  0  0  0  0  0
    1.2599   -1.6132   -0.0183 H   0  0  0  0  0  0  0  0  0  0  0  0
    0.0021   -0.0041    0.0020 C   0  0  0  0  0  0  0  0  0  0  0  0
   -1.0304   -0.6487    0.0080 O   0  0  0  0  0  0  0  0  0  0  0  0
   -0.0179    1.4666    0.0101 C   0  0  0  0  0  0  0  0  0  0  0  0
   -1.2120    2.1752    0.0196 C   0  0  0  0  0  0  0  0  0  0  0  0
   -1.1830    3.5673    0.0316 C   0  0  0  0  0  0  0  0  0  0  0  0
    0.0531    4.2479    0.0234 C   0  0  0  0  0  0  0  0  0  0  0  0
    1.2445    3.5445    0.0087 C   0  0  0  0  0  0  0  0  0  0  0  0
    1.2239    2.1516    0.0019 C   0  0  0  0  0  0  0  0  0  0  0  0
    2.3726    1.4326   -0.0134 N   0  0  0  0  0  0  0  0  0  0  0  0
   -0.2562    5.5935    0.0335 N   0  0  0  0  0  0  0  0  0  0  0  0
    0.3964    6.3512    0.0313 H   0  0  0  0  0  0  0  0  0  0  0  0
   -1.6141    5.6984    0.0470 C   0  0  0  0  0  0  0  0  0  0  0  0
   -2.1563    4.5167    0.0459 N   0  0  0  0  0  0  0  0  0  0  0  0
    7.0778    5.4597   -0.0723 H   0  0  0  0  0  0  0  0  0  0  0  0
    7.8069    4.0947    0.8072 H   0  0  0  0  0  0  0  0  0  0  0  0
    7.7851    4.0968   -0.9726 H   0  0  0  0  0  0  0  0  0  0  0  0
    5.3098    3.9545   -0.9424 H   0  0  0  0  0  0  0  0  0  0  0  0
    5.3316    3.9524    0.8374 H   0  0  0  0  0  0  0  0  0  0  0  0
    6.6742    1.8678    0.8185 H   0  0  0  0  0  0  0  0  0  0  0  0
    6.6524    1.8699   -0.9613 H   0  0  0  0  0  0  0  0  0  0  0  0
    6.9935    0.0021   -0.0694 H   0  0  0  0  0  0  0  0  0  0  0  0
    7.0255   -2.4550   -0.0828 H   0  0  0  0  0  0  0  0  0  0  0  0
    4.9192   -3.7250   -0.0680 H   0  0  0  0  0  0  0  0  0  0  0  0
    2.7635   -2.5467   -0.0392 H   0  0  0  0  0  0  0  0  0  0  0  0
   -2.1561    1.6506    0.0213 H   0  0  0  0  0  0  0  0  0  0  0  0
    2.1863    4.0731    0.0029 H   0  0  0  0  0  0  0  0  0  0  0  0
   -2.1616    6.6292    0.0566 H   0  0  0  0  0  0  0  0  0  0  0  0
  1  2  1  0  0  0  0
  1 27  1  0  0  0  0
  1 28  1  0  0  0  0
  1 29  1  0  0  0  0
  2  3  1  0  0  0  0
  2 30  1  0  0  0  0
  2 31  1  0  0  0  0
  3  4  1  0  0  0  0
  3 32  1  0  0  0  0
  3 33  1  0  0  0  0
  4  5  1  0  0  0  0
  5 10  2  0  0  0  0
  5  6  1  0  0  0  0
  6  7  2  0  0  0  0
  6 34  1  0  0  0  0
  7  8  1  0  0  0  0
  7 35  1  0  0  0  0
  8  9  2  0  0  0  0
  8 36  1  0  0  0  0
  9 10  1  0  0  0  0
  9 37  1  0  0  0  0
 10 11  1  0  0  0  0
 11 22  2  0  0  0  0
 11 12  1  0  0  0  0
 12 13  1  0  0  0  0
 12 14  1  0  0  0  0
 14 15  2  0  0  0  0
 14 16  1  0  0  0  0
 16 21  2  0  0  0  0
 16 17  1  0  0  0  0
 17 18  2  0  0  0  0
 17 38  1  0  0  0  0
 18 26  1  0  0  0  0
 18 19  1  0  0  0  0
 19 20  2  0  0  0  0
 19 23  1  0  0  0  0
 20 21  1  0  0  0  0
 20 39  1  0  0  0  0
 21 22  1  0  0  0  0
 23 24  1  0  0  0  0
 23 25  1  0  0  0  0
 25 26  2  0  0  0  0
 25 40  1  0  0  0  0
M  END
$$$$
ZINC04199929
  -OEChem-08230709403D

 40 43  0     0  0  0  0  0  0999 V2000
    7.2352    4.3811   -0.0755 C   0  0  0  0  0  0  0  0  0  0  0  0
    5.8815    3.6681   -0.0597 C   0  0  0  0  0  0  0  0  0  0  0  0
    6.1025    2.1541   -0.0642 C   0  0  0  0  0  0  0  0  0  0  0  0
    4.8382    1.4882   -0.0495 O   0  0  0  0  0  0  0  0  0  0  0  0
    4.8565    0.1311   -0.0513 C   0  0  0  0  0  0  0  0  0  0  0  0
    6.0646   -0.5488   -0.0624 C   0  0  0  0  0  0  0  0  0  0  0  0
    6.0819   -1.9299   -0.0700 C   0  0  0  0  0  0  0  0  0  0  0  0
    4.8959   -2.6452   -0.0616 C   0  0  0  0  0  0  0  0  0  0  0  0
    3.6859   -1.9850   -0.0457 C   0  0  0  0  0  0  0  0  0  0  0  0
    3.6546   -0.5888   -0.0374 C   0  0  0  0  0  0  0  0  0  0  0  0
    2.3626    0.1243   -0.0203 C   0  0  0  0  0  0  0  0  0  0  0  0
    1.2092   -0.6145   -0.0128 N   0  0  0  0  0  0  0  0  0  0  0  0
    1.2599   -1.6132   -0.0183 H   0  0  0  0  0  0  0  0  0  0  0  0
    0.0021   -0.0041    0.0020 C   0  0  0  0  0  0  0  0  0  0  0  0
   -1.0304   -0.6487    0.0080 O   0  0  0  0  0  0  0  0  0  0  0  0
   -0.0179    1.4666    0.0101 C   0  0  0  0  0  0  0  0  0  0  0  0
   -1.2120    2.1752    0.0196 C   0  0  0  0  0  0  0  0  0  0  0  0
   -1.1830    3.5673    0.0316 C   0  0  0  0  0  0  0  0  0  0  0  0
    0.0531    4.2479    0.0234 C   0  0  0  0  0  0  0  0  0  0  0  0
    1.2445    3.5445    0.0087 C   0  0  0  0  0  0  0  0  0  0  0  0
    1.2239    2.1516    0.0019 C   0  0  0  0  0  0  0  0  0  0  0  0
    2.3726    1.4326   -0.0134 N   0  0  0  0  0  0  0  0  0  0  0  0
   -0.2562    5.5935    0.0335 N   0  0  0  0  0  0  0  0  0  0  0  0
   -3.1394    4.3339    0.0543 H   0  0  0  0  0  0  0  0  0  0  0  0
   -1.6141    5.6984    0.0470 C   0  0  0  0  0  0  0  0  0  0  0  0
   -2.1563    4.5167    0.0459 N   0  0  0  0  0  0  0  0  0  0  0  0
    7.0778    5.4597   -0.0723 H   0  0  0  0  0  0  0  0  0  0  0  0
    7.8069    4.0947    0.8072 H   0  0  0  0  0  0  0  0  0  0  0  0
    7.7851    4.0968   -0.9726 H   0  0  0  0  0  0  0  0  0  0  0  0
    5.3098    3.9545   -0.9424 H   0  0  0  0  0  0  0  0  0  0  0  0
    5.3316    3.9524    0.8374 H   0  0  0  0  0  0  0  0  0  0  0  0
    6.6742    1.8678    0.8185 H   0  0  0  0  0  0  0  0  0  0  0  0
    6.6524    1.8699   -0.9613 H   0  0  0  0  0  0  0  0  0  0  0  0
    6.9935    0.0021   -0.0694 H   0  0  0  0  0  0  0  0  0  0  0  0
    7.0255   -2.4550   -0.0828 H   0  0  0  0  0  0  0  0  0  0  0  0
    4.9192   -3.7250   -0.0680 H   0  0  0  0  0  0  0  0  0  0  0  0
    2.7635   -2.5467   -0.0392 H   0  0  0  0  0  0  0  0  0  0  0  0
   -2.1561    1.6506    0.0213 H   0  0  0  0  0  0  0  0  0  0  0  0
    2.1863    4.0731    0.0029 H   0  0  0  0  0  0  0  0  0  0  0  0
   -2.1616    6.6292    0.0572 H   0  0  0  0  0  0  0  0  0  0  0  0
  1  2  1  0  0  0  0
  1 27  1  0  0  0  0
  1 28  1  0  0  0  0
  1 29  1  0  0  0  0
  2  3  1  0  0  0  0
  2 30  1  0  0  0  0
  2 31  1  0  0  0  0
  3  4  1  0  0  0  0
  3 32  1  0  0  0  0
  3 33  1  0  0  0  0
  4  5  1  0  0  0  0
  5 10  2  0  0  0  0
  5  6  1  0  0  0  0
  6  7  2  0  0  0  0
  6 34  1  0  0  0  0
  7  8  1  0  0  0  0
  7 35  1  0  0  0  0
  8  9  2  0  0  0  0
  8 36  1  0  0  0  0
  9 10  1  0  0  0  0
  9 37  1  0  0  0  0
 10 11  1  0  0  0  0
 11 22  2  0  0  0  0
 11 12  1  0  0  0  0
 12 13  1  0  0  0  0
 12 14  1  0  0  0  0
 14 15  2  0  0  0  0
 14 16  1  0  0  0  0
 16 21  2  0  0  0  0
 16 17  1  0  0  0  0
 17 18  2  0  0  0  0
 17 38  1  0  0  0  0
 18 26  1  0  0  0  0
 18 19  1  0  0  0  0
 19 20  2  0  0  0  0
 19 23  1  0  0  0  0
 20 21  1  0  0  0  0
 20 39  1  0  0  0  0
 21 22  1  0  0  0  0
 23 25  2  0  0  0  0
 24 26  1  0  0  0  0
 25 40  1  0  0  0  0
 25 26  1  0  0  0  0
M  END
$$$$
ZINC04199929
  -OEChem-08230709403D

 40 43  0     0  0  0  0  0  0999 V2000
    7.2353    4.3810   -0.0709 C   0  0  0  0  0  0  0  0  0  0  0  0
    5.8816    3.6680   -0.0553 C   0  0  0  0  0  0  0  0  0  0  0  0
    6.1026    2.1540   -0.0529 C   0  0  0  0  0  0  0  0  0  0  0  0
    4.8383    1.4881   -0.0384 O   0  0  0  0  0  0  0  0  0  0  0  0
    4.8567    0.1310   -0.0344 C   0  0  0  0  0  0  0  0  0  0  0  0
    6.0648   -0.5489   -0.0399 C   0  0  0  0  0  0  0  0  0  0  0  0
    6.0821   -1.9300   -0.0416 C   0  0  0  0  0  0  0  0  0  0  0  0
    4.8961   -2.6453   -0.0330 C   0  0  0  0  0  0  0  0  0  0  0  0
    3.6861   -1.9851   -0.0226 C   0  0  0  0  0  0  0  0  0  0  0  0
    3.6547   -0.5889   -0.0203 C   0  0  0  0  0  0  0  0  0  0  0  0
    2.3627    0.1243   -0.0092 C   0  0  0  0  0  0  0  0  0  0  0  0
    1.2093   -0.6145   -0.0012 N   0  0  0  0  0  0  0  0  0  0  0  0
    3.2493    1.9137   -0.0135 H   0  0  0  0  0  0  0  0  0  0  0  0
    0.0022   -0.0041    0.0082 C   0  0  0  0  0  0  0  0  0  0  0  0
   -1.0303   -0.6487    0.0145 O   0  0  0  0  0  0  0  0  0  0  0  0
   -0.0179    1.4666    0.0109 C   0  0  0  0  0  0  0  0  0  0  0  0
   -1.2120    2.1752    0.0209 C   0  0  0  0  0  0  0  0  0  0  0  0
   -1.1830    3.5673    0.0333 C   0  0  0  0  0  0  0  0  0  0  0  0
    0.0531    4.2479    0.0251 C   0  0  0  0  0  0  0  0  0  0  0  0
    1.2445    3.5445    0.0099 C   0  0  0  0  0  0  0  0  0  0  0  0
    1.2239    2.1516    0.0027 C   0  0  0  0  0  0  0  0  0  0  0  0
    2.3727    1.4326   -0.0073 N   0  0  0  0  0  0  0  0  0  0  0  0
   -0.2562    5.5935    0.0356 N   0  0  0  0  0  0  0  0  0  0  0  0
    0.3964    6.3512    0.0335 H   0  0  0  0  0  0  0  0  0  0  0  0
   -1.6141    5.6984    0.0494 C   0  0  0  0  0  0  0  0  0  0  0  0
   -2.1563    4.5167    0.0481 N   0  0  0  0  0  0  0  0  0  0  0  0
    7.0779    5.4596   -0.0726 H   0  0  0  0  0  0  0  0  0  0  0  0
    7.8050    4.0983    0.8143 H   0  0  0  0  0  0  0  0  0  0  0  0
    7.7873    4.0929   -0.9656 H   0  0  0  0  0  0  0  0  0  0  0  0
    5.3119    3.9507   -0.9405 H   0  0  0  0  0  0  0  0  0  0  0  0
    5.3296    3.9560    0.8393 H   0  0  0  0  0  0  0  0  0  0  0  0
    6.6723    1.8714    0.8323 H   0  0  0  0  0  0  0  0  0  0  0  0
    6.6546    1.8660   -0.9475 H   0  0  0  0  0  0  0  0  0  0  0  0
    6.9937    0.0020   -0.0470 H   0  0  0  0  0  0  0  0  0  0  0  0
    7.0258   -2.4551   -0.0500 H   0  0  0  0  0  0  0  0  0  0  0  0
    4.9195   -3.7251   -0.0348 H   0  0  0  0  0  0  0  0  0  0  0  0
    2.7637   -2.5468   -0.0159 H   0  0  0  0  0  0  0  0  0  0  0  0
   -2.1561    1.6506    0.0226 H   0  0  0  0  0  0  0  0  0  0  0  0
    2.1863    4.0731    0.0041 H   0  0  0  0  0  0  0  0  0  0  0  0
   -2.1616    6.6292    0.0594 H   0  0  0  0  0  0  0  0  0  0  0  0
  1  2  1  0  0  0  0
  1 27  1  0  0  0  0
  1 28  1  0  0  0  0
  1 29  1  0  0  0  0
  2  3  1  0  0  0  0
  2 30  1  0  0  0  0
  2 31  1  0  0  0  0
  3  4  1  0  0  0  0
  3 32  1  0  0  0  0
  3 33  1  0  0  0  0
  4  5  1  0  0  0  0
  5 10  2  0  0  0  0
  5  6  1  0  0  0  0
  6  7  2  0  0  0  0
  6 34  1  0  0  0  0
  7  8  1  0  0  0  0
  7 35  1  0  0  0  0
  8  9  2  0  0  0  0
  8 36  1  0  0  0  0
  9 10  1  0  0  0  0
  9 37  1  0  0  0  0
 10 11  1  0  0  0  0
 11 22  1  0  0  0  0
 11 12  2  0  0  0  0
 12 14  1  0  0  0  0
 13 22  1  0  0  0  0
 14 15  2  0  0  0  0
 14 16  1  0  0  0  0
 16 17  2  0  0  0  0
 16 21  1  0  0  0  0
 17 18  1  0  0  0  0
 17 38  1  0  0  0  0
 18 26  1  0  0  0  0
 18 19  2  0  0  0  0
 19 20  1  0  0  0  0
 19 23  1  0  0  0  0
 20 21  2  0  0  0  0
 20 39  1  0  0  0  0
 21 22  1  0  0  0  0
 23 24  1  0  0  0  0
 23 25  1  0  0  0  0
 25 26  2  0  0  0  0
 25 40  1  0  0  0  0
M  END
$$$$
ZINC04199929
  -OEChem-08230709403D

 40 43  0     0  0  0  0  0  0999 V2000
    7.2353    4.3810   -0.0709 C   0  0  0  0  0  0  0  0  0  0  0  0
    5.8816    3.6680   -0.0553 C   0  0  0  0  0  0  0  0  0  0  0  0
    6.1026    2.1540   -0.0529 C   0  0  0  0  0  0  0  0  0  0  0  0
    4.8383    1.4881   -0.0384 O   0  0  0  0  0  0  0  0  0  0  0  0
    4.8567    0.1310   -0.0344 C   0  0  0  0  0  0  0  0  0  0  0  0
    6.0648   -0.5489   -0.0399 C   0  0  0  0  0  0  0  0  0  0  0  0
    6.0821   -1.9300   -0.0416 C   0  0  0  0  0  0  0  0  0  0  0  0
    4.8961   -2.6453   -0.0330 C   0  0  0  0  0  0  0  0  0  0  0  0
    3.6861   -1.9851   -0.0226 C   0  0  0  0  0  0  0  0  0  0  0  0
    3.6547   -0.5889   -0.0203 C   0  0  0  0  0  0  0  0  0  0  0  0
    2.3627    0.1243   -0.0092 C   0  0  0  0  0  0  0  0  0  0  0  0
    1.2093   -0.6145   -0.0012 N   0  0  0  0  0  0  0  0  0  0  0  0
    3.2493    1.9137   -0.0135 H   0  0  0  0  0  0  0  0  0  0  0  0
    0.0022   -0.0041    0.0082 C   0  0  0  0  0  0  0  0  0  0  0  0
   -1.0303   -0.6487    0.0145 O   0  0  0  0  0  0  0  0  0  0  0  0
   -0.0179    1.4666    0.0109 C   0  0  0  0  0  0  0  0  0  0  0  0
   -1.2120    2.1752    0.0209 C   0  0  0  0  0  0  0  0  0  0  0  0
   -1.1830    3.5673    0.0333 C   0  0  0  0  0  0  0  0  0  0  0  0
    0.0531    4.2479    0.0251 C   0  0  0  0  0  0  0  0  0  0  0  0
    1.2445    3.5445    0.0099 C   0  0  0  0  0  0  0  0  0  0  0  0
    1.2239    2.1516    0.0027 C   0  0  0  0  0  0  0  0  0  0  0  0
    2.3727    1.4326   -0.0073 N   0  0  0  0  0  0  0  0  0  0  0  0
   -0.2562    5.5935    0.0356 N   0  0  0  0  0  0  0  0  0  0  0  0
   -3.1394    4.3339    0.0566 H   0  0  0  0  0  0  0  0  0  0  0  0
   -1.6141    5.6984    0.0494 C   0  0  0  0  0  0  0  0  0  0  0  0
   -2.1563    4.5167    0.0481 N   0  0  0  0  0  0  0  0  0  0  0  0
    7.0779    5.4596   -0.0726 H   0  0  0  0  0  0  0  0  0  0  0  0
    7.8050    4.0983    0.8143 H   0  0  0  0  0  0  0  0  0  0  0  0
    7.7873    4.0929   -0.9656 H   0  0  0  0  0  0  0  0  0  0  0  0
    5.3119    3.9507   -0.9405 H   0  0  0  0  0  0  0  0  0  0  0  0
    5.3296    3.9560    0.8393 H   0  0  0  0  0  0  0  0  0  0  0  0
    6.6723    1.8714    0.8323 H   0  0  0  0  0  0  0  0  0  0  0  0
    6.6546    1.8660   -0.9475 H   0  0  0  0  0  0  0  0  0  0  0  0
    6.9937    0.0020   -0.0470 H   0  0  0  0  0  0  0  0  0  0  0  0
    7.0258   -2.4551   -0.0500 H   0  0  0  0  0  0  0  0  0  0  0  0
    4.9195   -3.7251   -0.0348 H   0  0  0  0  0  0  0  0  0  0  0  0
    2.7637   -2.5468   -0.0159 H   0  0  0  0  0  0  0  0  0  0  0  0
   -2.1561    1.6506    0.0226 H   0  0  0  0  0  0  0  0  0  0  0  0
    2.1863    4.0731    0.0041 H   0  0  0  0  0  0  0  0  0  0  0  0
   -2.1616    6.6292    0.0599 H   0  0  0  0  0  0  0  0  0  0  0  0
  1  2  1  0  0  0  0
  1 27  1  0  0  0  0
  1 28  1  0  0  0  0
  1 29  1  0  0  0  0
  2  3  1  0  0  0  0
  2 30  1  0  0  0  0
  2 31  1  0  0  0  0
  3  4  1  0  0  0  0
  3 32  1  0  0  0  0
  3 33  1  0  0  0  0
  4  5  1  0  0  0  0
  5 10  2  0  0  0  0
  5  6  1  0  0  0  0
  6  7  2  0  0  0  0
  6 34  1  0  0  0  0
  7  8  1  0  0  0  0
  7 35  1  0  0  0  0
  8  9  2  0  0  0  0
  8 36  1  0  0  0  0
  9 10  1  0  0  0  0
  9 37  1  0  0  0  0
 10 11  1  0  0  0  0
 11 22  1  0  0  0  0
 11 12  2  0  0  0  0
 12 14  1  0  0  0  0
 13 22  1  0  0  0  0
 14 15  2  0  0  0  0
 14 16  1  0  0  0  0
 16 17  2  0  0  0  0
 16 21  1  0  0  0  0
 17 18  1  0  0  0  0
 17 38  1  0  0  0  0
 18 26  1  0  0  0  0
 18 19  2  0  0  0  0
 19 20  1  0  0  0  0
 19 23  1  0  0  0  0
 20 21  2  0  0  0  0
 20 39  1  0  0  0  0
 21 22  1  0  0  0  0
 23 25  2  0  0  0  0
 24 26  1  0  0  0  0
 25 40  1  0  0  0  0
 25 26  1  0  0  0  0
M  END
$$$$
ZINC04199929
  -OEChem-08230709403D

 40 43  0     0  0  0  0  0  0999 V2000
    7.2356    4.3809   -0.0402 C   0  0  0  0  0  0  0  0  0  0  0  0
    5.8818    3.6679   -0.0310 C   0  0  0  0  0  0  0  0  0  0  0  0
    6.1028    2.1539   -0.0345 C   0  0  0  0  0  0  0  0  0  0  0  0
    4.8384    1.4881   -0.0260 O   0  0  0  0  0  0  0  0  0  0  0  0
    4.8567    0.1310   -0.0278 C   0  0  0  0  0  0  0  0  0  0  0  0
    6.0648   -0.5490   -0.0331 C   0  0  0  0  0  0  0  0  0  0  0  0
    6.0821   -1.9301   -0.0407 C   0  0  0  0  0  0  0  0  0  0  0  0
    4.8961   -2.6453   -0.0381 C   0  0  0  0  0  0  0  0  0  0  0  0
    3.6860   -1.9851   -0.0280 C   0  0  0  0  0  0  0  0  0  0  0  0
    3.6547   -0.5889   -0.0197 C   0  0  0  0  0  0  0  0  0  0  0  0
    2.3627    0.1242   -0.0089 C   0  0  0  0  0  0  0  0  0  0  0  0
    1.2092   -0.6145   -0.0109 N   0  0  0  0  0  0  0  0  0  0  0  0
   -1.8123   -0.0255    0.0219 H   0  0  0  0  0  0  0  0  0  0  0  0
    0.0021   -0.0041    0.0040 C   0  0  0  0  0  0  0  0  0  0  0  0
   -1.0304   -0.6487    0.0112 O   0  0  0  0  0  0  0  0  0  0  0  0
   -0.0179    1.4665    0.0202 C   0  0  0  0  0  0  0  0  0  0  0  0
   -1.2119    2.1751    0.0345 C   0  0  0  0  0  0  0  0  0  0  0  0
   -1.1830    3.5672    0.0444 C   0  0  0  0  0  0  0  0  0  0  0  0
    0.0532    4.2478    0.0409 C   0  0  0  0  0  0  0  0  0  0  0  0
    1.2446    3.5444    0.0281 C   0  0  0  0  0  0  0  0  0  0  0  0
    1.2240    2.1515    0.0168 C   0  0  0  0  0  0  0  0  0  0  0  0
    2.3727    1.4325    0.0023 N   0  0  0  0  0  0  0  0  0  0  0  0
   -0.2561    5.5933    0.0537 N   0  0  0  0  0  0  0  0  0  0  0  0
    0.3964    6.3511    0.0550 H   0  0  0  0  0  0  0  0  0  0  0  0
   -1.6141    5.6982    0.0643 C   0  0  0  0  0  0  0  0  0  0  0  0
   -2.1563    4.5165    0.0588 N   0  0  0  0  0  0  0  0  0  0  0  0
    7.0782    5.4595   -0.0377 H   0  0  0  0  0  0  0  0  0  0  0  0
    7.8030    4.0944    0.8453 H   0  0  0  0  0  0  0  0  0  0  0  0
    7.7898    4.0967   -0.9346 H   0  0  0  0  0  0  0  0  0  0  0  0
    5.3144    3.9544   -0.9164 H   0  0  0  0  0  0  0  0  0  0  0  0
    5.3276    3.9522    0.8635 H   0  0  0  0  0  0  0  0  0  0  0  0
    6.6702    1.8676    0.8509 H   0  0  0  0  0  0  0  0  0  0  0  0
    6.6570    1.8698   -0.9290 H   0  0  0  0  0  0  0  0  0  0  0  0
    6.9938    0.0019   -0.0355 H   0  0  0  0  0  0  0  0  0  0  0  0
    7.0258   -2.4552   -0.0489 H   0  0  0  0  0  0  0  0  0  0  0  0
    4.9194   -3.7251   -0.0444 H   0  0  0  0  0  0  0  0  0  0  0  0
    2.7636   -2.5468   -0.0260 H   0  0  0  0  0  0  0  0  0  0  0  0
   -2.1560    1.6504    0.0372 H   0  0  0  0  0  0  0  0  0  0  0  0
    2.1864    4.0729    0.0267 H   0  0  0  0  0  0  0  0  0  0  0  0
   -2.1616    6.6290    0.0750 H   0  0  0  0  0  0  0  0  0  0  0  0
  1  2  1  0  0  0  0
  1 27  1  0  0  0  0
  1 28  1  0  0  0  0
  1 29  1  0  0  0  0
  2  3  1  0  0  0  0
  2 30  1  0  0  0  0
  2 31  1  0  0  0  0
  3  4  1  0  0  0  0
  3 32  1  0  0  0  0
  3 33  1  0  0  0  0
  4  5  1  0  0  0  0
  5 10  2  0  0  0  0
  5  6  1  0  0  0  0
  6  7  2  0  0  0  0
  6 34  1  0  0  0  0
  7  8  1  0  0  0  0
  7 35  1  0  0  0  0
  8  9  2  0  0  0  0
  8 36  1  0  0  0  0
  9 10  1  0  0  0  0
  9 37  1  0  0  0  0
 10 11  1  0  0  0  0
 11 22  2  0  0  0  0
 11 12  1  0  0  0  0
 12 14  2  0  0  0  0
 13 15  1  0  0  0  0
 14 15  1  0  0  0  0
 14 16  1  0  0  0  0
 16 17  2  0  0  0  0
 16 21  1  0  0  0  0
 17 18  1  0  0  0  0
 17 38  1  0  0  0  0
 18 26  1  0  0  0  0
 18 19  2  0  0  0  0
 19 20  1  0  0  0  0
 19 23  1  0  0  0  0
 20 21  2  0  0  0  0
 20 39  1  0  0  0  0
 21 22  1  0  0  0  0
 23 24  1  0  0  0  0
 23 25  1  0  0  0  0
 25 26  2  0  0  0  0
 25 40  1  0  0  0  0
M  END
$$$$
ZINC04199930
  -OEChem-08230709403D

 61 65  0     0  0  0  0  0  0999 V2000
    0.8528    7.7771    0.0423 C   0  0  0  0  0  0  0  0  0  0  0  0
    1.0032    6.2545    0.0334 C   0  0  0  0  0  0  0  0  0  0  0  0
   -0.3821    5.6051    0.0352 C   0  0  0  0  0  0  0  0  0  0  0  0
   -0.2416    4.1831    0.0268 O   0  0  0  0  0  0  0  0  0  0  0  0
   -1.3845    3.4509    0.0272 C   0  0  0  0  0  0  0  0  0  0  0  0
   -2.6174    4.0849    0.0359 C   0  0  0  0  0  0  0  0  0  0  0  0
   -3.7797    3.3387    0.0363 C   0  0  0  0  0  0  0  0  0  0  0  0
   -3.7236    1.9548    0.0281 C   0  0  0  0  0  0  0  0  0  0  0  0
   -2.5061    1.3085    0.0150 C   0  0  0  0  0  0  0  0  0  0  0  0
   -1.3234    2.0512    0.0193 C   0  0  0  0  0  0  0  0  0  0  0  0
   -0.0165    1.3655    0.0095 C   0  0  0  0  0  0  0  0  0  0  0  0
    0.0021   -0.0041    0.0020 N   0  0  0  0  0  0  0  0  0  0  0  0
   -0.8594   -0.5118    0.0075 H   0  0  0  0  0  0  0  0  0  0  0  0
    1.1764   -0.6756   -0.0128 C   0  0  0  0  0  0  0  0  0  0  0  0
    1.2068   -1.8924   -0.0192 O   0  0  0  0  0  0  0  0  0  0  0  0
    2.4150    0.1176   -0.0204 C   0  0  0  0  0  0  0  0  0  0  0  0
    3.6642   -0.4886   -0.0360 C   0  0  0  0  0  0  0  0  0  0  0  0
    4.8100    0.3024   -0.0431 C   0  0  0  0  0  0  0  0  0  0  0  0
    4.6971    1.7090   -0.0344 C   0  0  0  0  0  0  0  0  0  0  0  0
    3.4538    2.3159   -0.0189 C   0  0  0  0  0  0  0  0  0  0  0  0
    2.3027    1.5314   -0.0117 C   0  0  0  0  0  0  0  0  0  0  0  0
    1.0700    2.0943    0.0031 N   0  0  0  0  0  0  0  0  0  0  0  0
    5.9905    2.1923   -0.0447 N   0  0  0  0  0  0  0  0  0  0  0  0
    6.2633    3.1544   -0.0423 H   0  0  0  0  0  0  0  0  0  0  0  0
    6.8261    1.1169   -0.0588 C   0  0  0  0  0  0  0  0  0  0  0  0
    6.1386    0.0134   -0.0579 N   0  0  0  0  0  0  0  0  0  0  0  0
   -5.2149    1.0165    0.0287 S   0  0  0  0  0  0  0  0  0  0  0  0
   -4.8932   -0.2571    0.5709 O   0  0  0  0  0  0  0  0  0  0  0  0
   -6.2196    1.8510    0.5885 O   0  0  0  0  0  0  0  0  0  0  0  0
   -5.6358    0.7649   -1.5530 N   0  0  0  0  0  0  0  0  0  0  0  0
   -6.5048    1.7154   -2.2633 C   0  0  0  0  0  0  0  0  0  0  0  0
   -5.8214    2.0977   -3.5859 C   0  0  0  0  0  0  0  0  0  0  0  0
   -4.5299    0.0451   -3.6030 C   0  0  0  0  0  0  0  0  0  0  0  0
   -5.1554   -0.4182   -2.2830 C   0  0  0  0  0  0  0  0  0  0  0  0
   -5.0015    1.1984   -5.6791 C   0  0  0  0  0  0  0  0  0  0  0  0
    0.3023    8.0930   -0.8439 H   0  0  0  0  0  0  0  0  0  0  0  0
    0.3091    8.0832    0.9360 H   0  0  0  0  0  0  0  0  0  0  0  0
    1.8397    8.2397    0.0410 H   0  0  0  0  0  0  0  0  0  0  0  0
    1.5537    5.9386    0.9195 H   0  0  0  0  0  0  0  0  0  0  0  0
    1.5468    5.9483   -0.8604 H   0  0  0  0  0  0  0  0  0  0  0  0
   -0.9326    5.9210   -0.8510 H   0  0  0  0  0  0  0  0  0  0  0  0
   -0.9258    5.9113    0.9289 H   0  0  0  0  0  0  0  0  0  0  0  0
   -2.6691    5.1636    0.0420 H   0  0  0  0  0  0  0  0  0  0  0  0
   -4.7377    3.8372    0.0428 H   0  0  0  0  0  0  0  0  0  0  0  0
   -2.4669    0.2292    0.0047 H   0  0  0  0  0  0  0  0  0  0  0  0
    3.7463   -1.5654   -0.0422 H   0  0  0  0  0  0  0  0  0  0  0  0
    3.3761    3.3931   -0.0127 H   0  0  0  0  0  0  0  0  0  0  0  0
    7.9046    1.1727   -0.0692 H   0  0  0  0  0  0  0  0  0  0  0  0
   -7.4684    1.2486   -2.4672 H   0  0  0  0  0  0  0  0  0  0  0  0
   -6.6484    2.6069   -1.6528 H   0  0  0  0  0  0  0  0  0  0  0  0
   -4.9060    2.6520   -3.3786 H   0  0  0  0  0  0  0  0  0  0  0  0
   -6.4958    2.7173   -4.1769 H   0  0  0  0  0  0  0  0  0  0  0  0
   -3.6325    0.6279   -3.3955 H   0  0  0  0  0  0  0  0  0  0  0  0
   -4.2677   -0.8242   -4.2061 H   0  0  0  0  0  0  0  0  0  0  0  0
   -4.4065   -0.9380   -1.6855 H   0  0  0  0  0  0  0  0  0  0  0  0
   -5.9913   -1.0877   -2.4857 H   0  0  0  0  0  0  0  0  0  0  0  0
   -4.8405    0.2764   -6.2377 H   0  0  0  0  0  0  0  0  0  0  0  0
   -5.7358    1.8142   -6.1982 H   0  0  0  0  0  0  0  0  0  0  0  0
   -4.0611    1.7438   -5.5995 H   0  0  0  0  0  0  0  0  0  0  0  0
   -5.5215    0.8600   -4.3381 N   0  3  0  0  0  0  0  0  0  0  0  0
   -6.3864    0.3167   -4.4433 H   0  0  0  0  0  0  0  0  0  0  0  0
  1  2  1  0  0  0  0
  1 36  1  0  0  0  0
  1 37  1  0  0  0  0
  1 38  1  0  0  0  0
  2  3  1  0  0  0  0
  2 39  1  0  0  0  0
  2 40  1  0  0  0  0
  3  4  1  0  0  0  0
  3 41  1  0  0  0  0
  3 42  1  0  0  0  0
  4  5  1  0  0  0  0
  5 10  2  0  0  0  0
  5  6  1  0  0  0  0
  6  7  2  0  0  0  0
  6 43  1  0  0  0  0
  7  8  1  0  0  0  0
  7 44  1  0  0  0  0
  8  9  2  0  0  0  0
  8 27  1  0  0  0  0
  9 10  1  0  0  0  0
  9 45  1  0  0  0  0
 10 11  1  0  0  0  0
 11 22  2  0  0  0  0
 11 12  1  0  0  0  0
 12 13  1  0  0  0  0
 12 14  1  0  0  0  0
 14 15  2  0  0  0  0
 14 16  1  0  0  0  0
 16 21  2  0  0  0  0
 16 17  1  0  0  0  0
 17 18  2  0  0  0  0
 17 46  1  0  0  0  0
 18 26  1  0  0  0  0
 18 19  1  0  0  0  0
 19 20  2  0  0  0  0
 19 23  1  0  0  0  0
 20 21  1  0  0  0  0
 20 47  1  0  0  0  0
 21 22  1  0  0  0  0
 23 24  1  0  0  0  0
 23 25  1  0  0  0  0
 25 26  2  0  0  0  0
 25 48  1  0  0  0  0
 27 28  2  0  0  0  0
 27 29  2  0  0  0  0
 27 30  1  0  0  0  0
 30 34  1  0  0  0  0
 30 31  1  0  0  0  0
 31 32  1  0  0  0  0
 31 49  1  0  0  0  0
 31 50  1  0  0  0  0
 32 51  1  0  0  0  0
 32 52  1  0  0  0  0
 32 60  1  0  0  0  0
 33 34  1  0  0  0  0
 33 53  1  0  0  0  0
 33 54  1  0  0  0  0
 33 60  1  0  0  0  0
 34 55  1  0  0  0  0
 34 56  1  0  0  0  0
 35 57  1  0  0  0  0
 35 58  1  0  0  0  0
 35 59  1  0  0  0  0
 35 60  1  0  0  0  0
 60 61  1  0  0  0  0
M  CHG  1  60   1
M  END
$$$$
ZINC04199930
  -OEChem-08230709403D

 61 65  0     0  0  0  0  0  0999 V2000
    0.8528    7.7771    0.0426 C   0  0  0  0  0  0  0  0  0  0  0  0
    1.0032    6.2545    0.0337 C   0  0  0  0  0  0  0  0  0  0  0  0
   -0.3821    5.6051    0.0359 C   0  0  0  0  0  0  0  0  0  0  0  0
   -0.2416    4.1831    0.0275 O   0  0  0  0  0  0  0  0  0  0  0  0
   -1.3845    3.4509    0.0282 C   0  0  0  0  0  0  0  0  0  0  0  0
   -2.6174    4.0849    0.0373 C   0  0  0  0  0  0  0  0  0  0  0  0
   -3.7797    3.3387    0.0380 C   0  0  0  0  0  0  0  0  0  0  0  0
   -3.7236    1.9548    0.0299 C   0  0  0  0  0  0  0  0  0  0  0  0
   -2.5061    1.3085    0.0164 C   0  0  0  0  0  0  0  0  0  0  0  0
   -1.3234    2.0512    0.0204 C   0  0  0  0  0  0  0  0  0  0  0  0
   -0.0165    1.3655    0.0102 C   0  0  0  0  0  0  0  0  0  0  0  0
    0.0021   -0.0041    0.0027 N   0  0  0  0  0  0  0  0  0  0  0  0
    0.9889    3.0910    0.0146 H   0  0  0  0  0  0  0  0  0  0  0  0
    1.1764   -0.6756   -0.0124 C   0  0  0  0  0  0  0  0  0  0  0  0
    1.2068   -1.8924   -0.0188 O   0  0  0  0  0  0  0  0  0  0  0  0
    2.4151    0.1175   -0.0088 C   0  0  0  0  0  0  0  0  0  0  0  0
    3.6643   -0.4887   -0.0184 C   0  0  0  0  0  0  0  0  0  0  0  0
    4.8102    0.3023   -0.0199 C   0  0  0  0  0  0  0  0  0  0  0  0
    4.6973    1.7089   -0.0117 C   0  0  0  0  0  0  0  0  0  0  0  0
    3.4539    2.3158   -0.0021 C   0  0  0  0  0  0  0  0  0  0  0  0
    2.3028    1.5313   -0.0005 C   0  0  0  0  0  0  0  0  0  0  0  0
    1.0700    2.0943    0.0087 N   0  0  0  0  0  0  0  0  0  0  0  0
    5.9907    2.1921   -0.0157 N   0  0  0  0  0  0  0  0  0  0  0  0
    6.2636    3.1542   -0.0119 H   0  0  0  0  0  0  0  0  0  0  0  0
    6.8263    1.1167   -0.0258 C   0  0  0  0  0  0  0  0  0  0  0  0
    6.1388    0.0132   -0.0283 N   0  0  0  0  0  0  0  0  0  0  0  0
   -5.2149    1.0165    0.0309 S   0  0  0  0  0  0  0  0  0  0  0  0
   -4.8930   -0.2571    0.5731 O   0  0  0  0  0  0  0  0  0  0  0  0
   -6.2194    1.8510    0.5910 O   0  0  0  0  0  0  0  0  0  0  0  0
   -5.6363    0.7649   -1.5507 N   0  0  0  0  0  0  0  0  0  0  0  0
   -6.5055    1.7153   -2.2607 C   0  0  0  0  0  0  0  0  0  0  0  0
   -5.8225    2.0976   -3.5835 C   0  0  0  0  0  0  0  0  0  0  0  0
   -4.5310    0.0450   -3.6010 C   0  0  0  0  0  0  0  0  0  0  0  0
   -5.1561   -0.4183   -2.2808 C   0  0  0  0  0  0  0  0  0  0  0  0
   -5.0032    1.1983   -5.6769 C   0  0  0  0  0  0  0  0  0  0  0  0
    0.3020    8.0930   -0.8435 H   0  0  0  0  0  0  0  0  0  0  0  0
    0.3094    8.0832    0.9364 H   0  0  0  0  0  0  0  0  0  0  0  0
    1.8397    8.2397    0.0410 H   0  0  0  0  0  0  0  0  0  0  0  0
    1.5540    5.9386    0.9196 H   0  0  0  0  0  0  0  0  0  0  0  0
    1.5465    5.9483   -0.8603 H   0  0  0  0  0  0  0  0  0  0  0  0
   -0.9329    5.9210   -0.8502 H   0  0  0  0  0  0  0  0  0  0  0  0
   -0.9255    5.9113    0.9297 H   0  0  0  0  0  0  0  0  0  0  0  0
   -2.6691    5.1636    0.0434 H   0  0  0  0  0  0  0  0  0  0  0  0
   -4.7377    3.8372    0.0448 H   0  0  0  0  0  0  0  0  0  0  0  0
   -2.4669    0.2292    0.0061 H   0  0  0  0  0  0  0  0  0  0  0  0
    3.7464   -1.5655   -0.0243 H   0  0  0  0  0  0  0  0  0  0  0  0
    3.3762    3.3930    0.0038 H   0  0  0  0  0  0  0  0  0  0  0  0
    7.9049    1.1725   -0.0310 H   0  0  0  0  0  0  0  0  0  0  0  0
   -7.4691    1.2485   -2.4643 H   0  0  0  0  0  0  0  0  0  0  0  0
   -6.6489    2.6068   -1.6502 H   0  0  0  0  0  0  0  0  0  0  0  0
   -4.9070    2.6519   -3.3765 H   0  0  0  0  0  0  0  0  0  0  0  0
   -6.4970    2.7172   -4.1743 H   0  0  0  0  0  0  0  0  0  0  0  0
   -3.6335    0.6278   -3.3937 H   0  0  0  0  0  0  0  0  0  0  0  0
   -4.2689   -0.8243   -4.2041 H   0  0  0  0  0  0  0  0  0  0  0  0
   -4.4070   -0.9381   -1.6835 H   0  0  0  0  0  0  0  0  0  0  0  0
   -5.9920   -1.0878   -2.4832 H   0  0  0  0  0  0  0  0  0  0  0  0
   -4.8423    0.2762   -6.2356 H   0  0  0  0  0  0  0  0  0  0  0  0
   -5.7376    1.8140   -6.1958 H   0  0  0  0  0  0  0  0  0  0  0  0
   -4.0627    1.7437   -5.5976 H   0  0  0  0  0  0  0  0  0  0  0  0
   -5.5228    0.8599   -4.3358 N   0  3  0  0  0  0  0  0  0  0  0  0
   -6.3877    0.3166   -4.4407 H   0  0  0  0  0  0  0  0  0  0  0  0
  1  2  1  0  0  0  0
  1 36  1  0  0  0  0
  1 37  1  0  0  0  0
  1 38  1  0  0  0  0
  2  3  1  0  0  0  0
  2 39  1  0  0  0  0
  2 40  1  0  0  0  0
  3  4  1  0  0  0  0
  3 41  1  0  0  0  0
  3 42  1  0  0  0  0
  4  5  1  0  0  0  0
  5 10  2  0  0  0  0
  5  6  1  0  0  0  0
  6  7  2  0  0  0  0
  6 43  1  0  0  0  0
  7  8  1  0  0  0  0
  7 44  1  0  0  0  0
  8  9  2  0  0  0  0
  8 27  1  0  0  0  0
  9 10  1  0  0  0  0
  9 45  1  0  0  0  0
 10 11  1  0  0  0  0
 11 22  1  0  0  0  0
 11 12  2  0  0  0  0
 12 14  1  0  0  0  0
 13 22  1  0  0  0  0
 14 15  2  0  0  0  0
 14 16  1  0  0  0  0
 16 17  2  0  0  0  0
 16 21  1  0  0  0  0
 17 18  1  0  0  0  0
 17 46  1  0  0  0  0
 18 26  1  0  0  0  0
 18 19  2  0  0  0  0
 19 20  1  0  0  0  0
 19 23  1  0  0  0  0
 20 21  2  0  0  0  0
 20 47  1  0  0  0  0
 21 22  1  0  0  0  0
 23 24  1  0  0  0  0
 23 25  1  0  0  0  0
 25 26  2  0  0  0  0
 25 48  1  0  0  0  0
 27 28  2  0  0  0  0
 27 29  2  0  0  0  0
 27 30  1  0  0  0  0
 30 34  1  0  0  0  0
 30 31  1  0  0  0  0
 31 32  1  0  0  0  0
 31 49  1  0  0  0  0
 31 50  1  0  0  0  0
 32 51  1  0  0  0  0
 32 52  1  0  0  0  0
 32 60  1  0  0  0  0
 33 34  1  0  0  0  0
 33 53  1  0  0  0  0
 33 54  1  0  0  0  0
 33 60  1  0  0  0  0
 34 55  1  0  0  0  0
 34 56  1  0  0  0  0
 35 57  1  0  0  0  0
 35 58  1  0  0  0  0
 35 59  1  0  0  0  0
 35 60  1  0  0  0  0
 60 61  1  0  0  0  0
M  CHG  1  60   1
M  END
$$$$
ZINC04199930
  -OEChem-08230709403D

 61 65  0     0  0  0  0  0  0999 V2000
    0.8528    7.7771    0.0426 C   0  0  0  0  0  0  0  0  0  0  0  0
    1.0032    6.2545    0.0337 C   0  0  0  0  0  0  0  0  0  0  0  0
   -0.3821    5.6051    0.0359 C   0  0  0  0  0  0  0  0  0  0  0  0
   -0.2416    4.1831    0.0275 O   0  0  0  0  0  0  0  0  0  0  0  0
   -1.3845    3.4509    0.0282 C   0  0  0  0  0  0  0  0  0  0  0  0
   -2.6174    4.0849    0.0373 C   0  0  0  0  0  0  0  0  0  0  0  0
   -3.7797    3.3387    0.0380 C   0  0  0  0  0  0  0  0  0  0  0  0
   -3.7236    1.9548    0.0299 C   0  0  0  0  0  0  0  0  0  0  0  0
   -2.5061    1.3085    0.0164 C   0  0  0  0  0  0  0  0  0  0  0  0
   -1.3234    2.0512    0.0204 C   0  0  0  0  0  0  0  0  0  0  0  0
   -0.0165    1.3655    0.0102 C   0  0  0  0  0  0  0  0  0  0  0  0
    0.0021   -0.0041    0.0027 N   0  0  0  0  0  0  0  0  0  0  0  0
    0.9889    3.0910    0.0146 H   0  0  0  0  0  0  0  0  0  0  0  0
    1.1764   -0.6756   -0.0124 C   0  0  0  0  0  0  0  0  0  0  0  0
    1.2068   -1.8924   -0.0188 O   0  0  0  0  0  0  0  0  0  0  0  0
    2.4151    0.1175   -0.0088 C   0  0  0  0  0  0  0  0  0  0  0  0
    3.6643   -0.4887   -0.0184 C   0  0  0  0  0  0  0  0  0  0  0  0
    4.8102    0.3023   -0.0199 C   0  0  0  0  0  0  0  0  0  0  0  0
    4.6973    1.7089   -0.0117 C   0  0  0  0  0  0  0  0  0  0  0  0
    3.4539    2.3158   -0.0021 C   0  0  0  0  0  0  0  0  0  0  0  0
    2.3028    1.5313   -0.0005 C   0  0  0  0  0  0  0  0  0  0  0  0
    1.0700    2.0943    0.0087 N   0  0  0  0  0  0  0  0  0  0  0  0
    5.9907    2.1921   -0.0157 N   0  0  0  0  0  0  0  0  0  0  0  0
    6.5279   -0.9079   -0.0354 H   0  0  0  0  0  0  0  0  0  0  0  0
    6.8263    1.1167   -0.0258 C   0  0  0  0  0  0  0  0  0  0  0  0
    6.1388    0.0132   -0.0283 N   0  0  0  0  0  0  0  0  0  0  0  0
   -5.2149    1.0165    0.0309 S   0  0  0  0  0  0  0  0  0  0  0  0
   -4.8930   -0.2571    0.5731 O   0  0  0  0  0  0  0  0  0  0  0  0
   -6.2194    1.8510    0.5910 O   0  0  0  0  0  0  0  0  0  0  0  0
   -5.6363    0.7649   -1.5507 N   0  0  0  0  0  0  0  0  0  0  0  0
   -6.5055    1.7153   -2.2607 C   0  0  0  0  0  0  0  0  0  0  0  0
   -5.8225    2.0976   -3.5835 C   0  0  0  0  0  0  0  0  0  0  0  0
   -4.5310    0.0450   -3.6010 C   0  0  0  0  0  0  0  0  0  0  0  0
   -5.1561   -0.4183   -2.2808 C   0  0  0  0  0  0  0  0  0  0  0  0
   -5.0032    1.1983   -5.6769 C   0  0  0  0  0  0  0  0  0  0  0  0
    0.3020    8.0930   -0.8435 H   0  0  0  0  0  0  0  0  0  0  0  0
    0.3094    8.0832    0.9364 H   0  0  0  0  0  0  0  0  0  0  0  0
    1.8397    8.2397    0.0410 H   0  0  0  0  0  0  0  0  0  0  0  0
    1.5540    5.9386    0.9196 H   0  0  0  0  0  0  0  0  0  0  0  0
    1.5465    5.9483   -0.8603 H   0  0  0  0  0  0  0  0  0  0  0  0
   -0.9329    5.9210   -0.8502 H   0  0  0  0  0  0  0  0  0  0  0  0
   -0.9255    5.9113    0.9297 H   0  0  0  0  0  0  0  0  0  0  0  0
   -2.6691    5.1636    0.0434 H   0  0  0  0  0  0  0  0  0  0  0  0
   -4.7377    3.8372    0.0448 H   0  0  0  0  0  0  0  0  0  0  0  0
   -2.4669    0.2292    0.0061 H   0  0  0  0  0  0  0  0  0  0  0  0
    3.7464   -1.5655   -0.0243 H   0  0  0  0  0  0  0  0  0  0  0  0
    3.3762    3.3930    0.0038 H   0  0  0  0  0  0  0  0  0  0  0  0
    7.9049    1.1725   -0.0311 H   0  0  0  0  0  0  0  0  0  0  0  0
   -7.4691    1.2485   -2.4643 H   0  0  0  0  0  0  0  0  0  0  0  0
   -6.6489    2.6068   -1.6502 H   0  0  0  0  0  0  0  0  0  0  0  0
   -4.9070    2.6519   -3.3765 H   0  0  0  0  0  0  0  0  0  0  0  0
   -6.4970    2.7172   -4.1743 H   0  0  0  0  0  0  0  0  0  0  0  0
   -3.6335    0.6278   -3.3937 H   0  0  0  0  0  0  0  0  0  0  0  0
   -4.2689   -0.8243   -4.2041 H   0  0  0  0  0  0  0  0  0  0  0  0
   -4.4070   -0.9381   -1.6835 H   0  0  0  0  0  0  0  0  0  0  0  0
   -5.9920   -1.0878   -2.4832 H   0  0  0  0  0  0  0  0  0  0  0  0
   -4.8423    0.2762   -6.2356 H   0  0  0  0  0  0  0  0  0  0  0  0
   -5.7376    1.8140   -6.1958 H   0  0  0  0  0  0  0  0  0  0  0  0
   -4.0627    1.7437   -5.5976 H   0  0  0  0  0  0  0  0  0  0  0  0
   -5.5228    0.8599   -4.3358 N   0  3  0  0  0  0  0  0  0  0  0  0
   -6.3877    0.3166   -4.4407 H   0  0  0  0  0  0  0  0  0  0  0  0
  1  2  1  0  0  0  0
  1 36  1  0  0  0  0
  1 37  1  0  0  0  0
  1 38  1  0  0  0  0
  2  3  1  0  0  0  0
  2 39  1  0  0  0  0
  2 40  1  0  0  0  0
  3  4  1  0  0  0  0
  3 41  1  0  0  0  0
  3 42  1  0  0  0  0
  4  5  1  0  0  0  0
  5 10  2  0  0  0  0
  5  6  1  0  0  0  0
  6  7  2  0  0  0  0
  6 43  1  0  0  0  0
  7  8  1  0  0  0  0
  7 44  1  0  0  0  0
  8  9  2  0  0  0  0
  8 27  1  0  0  0  0
  9 10  1  0  0  0  0
  9 45  1  0  0  0  0
 10 11  1  0  0  0  0
 11 22  1  0  0  0  0
 11 12  2  0  0  0  0
 12 14  1  0  0  0  0
 13 22  1  0  0  0  0
 14 15  2  0  0  0  0
 14 16  1  0  0  0  0
 16 17  2  0  0  0  0
 16 21  1  0  0  0  0
 17 18  1  0  0  0  0
 17 46  1  0  0  0  0
 18 26  1  0  0  0  0
 18 19  2  0  0  0  0
 19 20  1  0  0  0  0
 19 23  1  0  0  0  0
 20 21  2  0  0  0  0
 20 47  1  0  0  0  0
 21 22  1  0  0  0  0
 23 25  2  0  0  0  0
 24 26  1  0  0  0  0
 25 48  1  0  0  0  0
 25 26  1  0  0  0  0
 27 28  2  0  0  0  0
 27 29  2  0  0  0  0
 27 30  1  0  0  0  0
 30 34  1  0  0  0  0
 30 31  1  0  0  0  0
 31 32  1  0  0  0  0
 31 49  1  0  0  0  0
 31 50  1  0  0  0  0
 32 51  1  0  0  0  0
 32 52  1  0  0  0  0
 32 60  1  0  0  0  0
 33 34  1  0  0  0  0
 33 53  1  0  0  0  0
 33 54  1  0  0  0  0
 33 60  1  0  0  0  0
 34 55  1  0  0  0  0
 34 56  1  0  0  0  0
 35 57  1  0  0  0  0
 35 58  1  0  0  0  0
 35 59  1  0  0  0  0
 35 60  1  0  0  0  0
 60 61  1  0  0  0  0
M  CHG  1  60   1
M  END
$$$$
ZINC04199930
  -OEChem-08230709403D

 61 65  0     0  0  0  0  0  0999 V2000
    0.8528    7.7771    0.0445 C   0  0  0  0  0  0  0  0  0  0  0  0
    1.0032    6.2545    0.0352 C   0  0  0  0  0  0  0  0  0  0  0  0
   -0.3821    5.6051    0.0370 C   0  0  0  0  0  0  0  0  0  0  0  0
   -0.2416    4.1831    0.0282 O   0  0  0  0  0  0  0  0  0  0  0  0
   -1.3845    3.4509    0.0286 C   0  0  0  0  0  0  0  0  0  0  0  0
   -2.6174    4.0849    0.0377 C   0  0  0  0  0  0  0  0  0  0  0  0
   -3.7797    3.3387    0.0381 C   0  0  0  0  0  0  0  0  0  0  0  0
   -3.7236    1.9548    0.0295 C   0  0  0  0  0  0  0  0  0  0  0  0
   -2.5061    1.3085    0.0161 C   0  0  0  0  0  0  0  0  0  0  0  0
   -1.3234    2.0512    0.0204 C   0  0  0  0  0  0  0  0  0  0  0  0
   -0.0165    1.3655    0.0102 C   0  0  0  0  0  0  0  0  0  0  0  0
    0.0021   -0.0041    0.0029 N   0  0  0  0  0  0  0  0  0  0  0  0
    2.1576   -2.2020   -0.0290 H   0  0  0  0  0  0  0  0  0  0  0  0
    1.1764   -0.6756   -0.0119 C   0  0  0  0  0  0  0  0  0  0  0  0
    1.2068   -1.8924   -0.0182 O   0  0  0  0  0  0  0  0  0  0  0  0
    2.4151    0.1175   -0.0094 C   0  0  0  0  0  0  0  0  0  0  0  0
    3.6643   -0.4887   -0.0196 C   0  0  0  0  0  0  0  0  0  0  0  0
    4.8102    0.3023   -0.0224 C   0  0  0  0  0  0  0  0  0  0  0  0
    4.6973    1.7089   -0.0142 C   0  0  0  0  0  0  0  0  0  0  0  0
    3.4539    2.3158   -0.0033 C   0  0  0  0  0  0  0  0  0  0  0  0
    2.3028    1.5313   -0.0012 C   0  0  0  0  0  0  0  0  0  0  0  0
    1.0700    2.0943    0.0086 N   0  0  0  0  0  0  0  0  0  0  0  0
    5.9907    2.1922   -0.0193 N   0  0  0  0  0  0  0  0  0  0  0  0
    6.2635    3.1542   -0.0158 H   0  0  0  0  0  0  0  0  0  0  0  0
    6.8263    1.1167   -0.0300 C   0  0  0  0  0  0  0  0  0  0  0  0
    6.1388    0.0133   -0.0319 N   0  0  0  0  0  0  0  0  0  0  0  0
   -5.2149    1.0165    0.0302 S   0  0  0  0  0  0  0  0  0  0  0  0
   -4.8931   -0.2572    0.5720 O   0  0  0  0  0  0  0  0  0  0  0  0
   -6.2195    1.8509    0.5903 O   0  0  0  0  0  0  0  0  0  0  0  0
   -5.6360    0.7653   -1.5515 N   0  0  0  0  0  0  0  0  0  0  0  0
   -6.5052    1.7160   -2.2615 C   0  0  0  0  0  0  0  0  0  0  0  0
   -5.8220    2.0986   -3.5841 C   0  0  0  0  0  0  0  0  0  0  0  0
   -4.5305    0.0460   -3.6019 C   0  0  0  0  0  0  0  0  0  0  0  0
   -5.1558   -0.4176   -2.2819 C   0  0  0  0  0  0  0  0  0  0  0  0
   -5.0024    1.1998   -5.6776 C   0  0  0  0  0  0  0  0  0  0  0  0
    0.3022    8.0932   -0.8416 H   0  0  0  0  0  0  0  0  0  0  0  0
    0.3093    8.0830    0.9383 H   0  0  0  0  0  0  0  0  0  0  0  0
    1.8397    8.2397    0.0431 H   0  0  0  0  0  0  0  0  0  0  0  0
    1.5539    5.9384    0.9211 H   0  0  0  0  0  0  0  0  0  0  0  0
    1.5467    5.9485   -0.8588 H   0  0  0  0  0  0  0  0  0  0  0  0
   -0.9327    5.9212   -0.8490 H   0  0  0  0  0  0  0  0  0  0  0  0
   -0.9256    5.9111    0.9309 H   0  0  0  0  0  0  0  0  0  0  0  0
   -2.6691    5.1636    0.0441 H   0  0  0  0  0  0  0  0  0  0  0  0
   -4.7377    3.8372    0.0449 H   0  0  0  0  0  0  0  0  0  0  0  0
   -2.4669    0.2292    0.0055 H   0  0  0  0  0  0  0  0  0  0  0  0
    3.7464   -1.5655   -0.0251 H   0  0  0  0  0  0  0  0  0  0  0  0
    3.3762    3.3930    0.0029 H   0  0  0  0  0  0  0  0  0  0  0  0
    7.9049    1.1725   -0.0361 H   0  0  0  0  0  0  0  0  0  0  0  0
   -7.4688    1.2492   -2.4653 H   0  0  0  0  0  0  0  0  0  0  0  0
   -6.6487    2.6073   -1.6507 H   0  0  0  0  0  0  0  0  0  0  0  0
   -4.9065    2.6529   -3.3768 H   0  0  0  0  0  0  0  0  0  0  0  0
   -6.4965    2.7184   -4.1748 H   0  0  0  0  0  0  0  0  0  0  0  0
   -3.6330    0.6288   -3.3944 H   0  0  0  0  0  0  0  0  0  0  0  0
   -4.2684   -0.8231   -4.2053 H   0  0  0  0  0  0  0  0  0  0  0  0
   -4.4068   -0.9376   -1.6847 H   0  0  0  0  0  0  0  0  0  0  0  0
   -5.9917   -1.0871   -2.4847 H   0  0  0  0  0  0  0  0  0  0  0  0
   -4.8415    0.2780   -6.2365 H   0  0  0  0  0  0  0  0  0  0  0  0
   -5.7368    1.8158   -6.1965 H   0  0  0  0  0  0  0  0  0  0  0  0
   -4.0620    1.7452   -5.5981 H   0  0  0  0  0  0  0  0  0  0  0  0
   -5.5222    0.8611   -4.3366 N   0  3  0  0  0  0  0  0  0  0  0  0
   -6.3871    0.3178   -4.4418 H   0  0  0  0  0  0  0  0  0  0  0  0
  1  2  1  0  0  0  0
  1 36  1  0  0  0  0
  1 37  1  0  0  0  0
  1 38  1  0  0  0  0
  2  3  1  0  0  0  0
  2 39  1  0  0  0  0
  2 40  1  0  0  0  0
  3  4  1  0  0  0  0
  3 41  1  0  0  0  0
  3 42  1  0  0  0  0
  4  5  1  0  0  0  0
  5 10  2  0  0  0  0
  5  6  1  0  0  0  0
  6  7  2  0  0  0  0
  6 43  1  0  0  0  0
  7  8  1  0  0  0  0
  7 44  1  0  0  0  0
  8  9  2  0  0  0  0
  8 27  1  0  0  0  0
  9 10  1  0  0  0  0
  9 45  1  0  0  0  0
 10 11  1  0  0  0  0
 11 22  2  0  0  0  0
 11 12  1  0  0  0  0
 12 14  2  0  0  0  0
 13 15  1  0  0  0  0
 14 15  1  0  0  0  0
 14 16  1  0  0  0  0
 16 17  2  0  0  0  0
 16 21  1  0  0  0  0
 17 18  1  0  0  0  0
 17 46  1  0  0  0  0
 18 26  1  0  0  0  0
 18 19  2  0  0  0  0
 19 20  1  0  0  0  0
 19 23  1  0  0  0  0
 20 21  2  0  0  0  0
 20 47  1  0  0  0  0
 21 22  1  0  0  0  0
 23 24  1  0  0  0  0
 23 25  1  0  0  0  0
 25 26  2  0  0  0  0
 25 48  1  0  0  0  0
 27 28  2  0  0  0  0
 27 29  2  0  0  0  0
 27 30  1  0  0  0  0
 30 34  1  0  0  0  0
 30 31  1  0  0  0  0
 31 32  1  0  0  0  0
 31 49  1  0  0  0  0
 31 50  1  0  0  0  0
 32 51  1  0  0  0  0
 32 52  1  0  0  0  0
 32 60  1  0  0  0  0
 33 34  1  0  0  0  0
 33 53  1  0  0  0  0
 33 54  1  0  0  0  0
 33 60  1  0  0  0  0
 34 55  1  0  0  0  0
 34 56  1  0  0  0  0
 35 57  1  0  0  0  0
 35 58  1  0  0  0  0
 35 59  1  0  0  0  0
 35 60  1  0  0  0  0
 60 61  1  0  0  0  0
M  CHG  1  60   1
M  END
$$$$
ZINC04199930
  -OEChem-08230709403D

 61 65  0     0  0  0  0  0  0999 V2000
    0.8528    7.7771    0.0423 C   0  0  0  0  0  0  0  0  0  0  0  0
    1.0032    6.2545    0.0334 C   0  0  0  0  0  0  0  0  0  0  0  0
   -0.3821    5.6051    0.0352 C   0  0  0  0  0  0  0  0  0  0  0  0
   -0.2416    4.1831    0.0268 O   0  0  0  0  0  0  0  0  0  0  0  0
   -1.3845    3.4509    0.0272 C   0  0  0  0  0  0  0  0  0  0  0  0
   -2.6174    4.0849    0.0359 C   0  0  0  0  0  0  0  0  0  0  0  0
   -3.7797    3.3387    0.0363 C   0  0  0  0  0  0  0  0  0  0  0  0
   -3.7236    1.9548    0.0281 C   0  0  0  0  0  0  0  0  0  0  0  0
   -2.5061    1.3085    0.0150 C   0  0  0  0  0  0  0  0  0  0  0  0
   -1.3234    2.0512    0.0193 C   0  0  0  0  0  0  0  0  0  0  0  0
   -0.0165    1.3655    0.0095 C   0  0  0  0  0  0  0  0  0  0  0  0
    0.0021   -0.0041    0.0020 N   0  0  0  0  0  0  0  0  0  0  0  0
   -0.8594   -0.5118    0.0075 H   0  0  0  0  0  0  0  0  0  0  0  0
    1.1764   -0.6756   -0.0128 C   0  0  0  0  0  0  0  0  0  0  0  0
    1.2068   -1.8924   -0.0192 O   0  0  0  0  0  0  0  0  0  0  0  0
    2.4150    0.1176   -0.0204 C   0  0  0  0  0  0  0  0  0  0  0  0
    3.6642   -0.4886   -0.0360 C   0  0  0  0  0  0  0  0  0  0  0  0
    4.8100    0.3024   -0.0431 C   0  0  0  0  0  0  0  0  0  0  0  0
    4.6971    1.7090   -0.0344 C   0  0  0  0  0  0  0  0  0  0  0  0
    3.4538    2.3159   -0.0189 C   0  0  0  0  0  0  0  0  0  0  0  0
    2.3027    1.5314   -0.0117 C   0  0  0  0  0  0  0  0  0  0  0  0
    1.0700    2.0943    0.0031 N   0  0  0  0  0  0  0  0  0  0  0  0
    5.9905    2.1923   -0.0447 N   0  0  0  0  0  0  0  0  0  0  0  0
    6.5277   -0.9078   -0.0667 H   0  0  0  0  0  0  0  0  0  0  0  0
    6.8261    1.1169   -0.0588 C   0  0  0  0  0  0  0  0  0  0  0  0
    6.1386    0.0134   -0.0579 N   0  0  0  0  0  0  0  0  0  0  0  0
   -5.2149    1.0165    0.0287 S   0  0  0  0  0  0  0  0  0  0  0  0
   -4.8932   -0.2571    0.5709 O   0  0  0  0  0  0  0  0  0  0  0  0
   -6.2196    1.8510    0.5885 O   0  0  0  0  0  0  0  0  0  0  0  0
   -5.6358    0.7649   -1.5530 N   0  0  0  0  0  0  0  0  0  0  0  0
   -6.5048    1.7154   -2.2633 C   0  0  0  0  0  0  0  0  0  0  0  0
   -5.8214    2.0977   -3.5859 C   0  0  0  0  0  0  0  0  0  0  0  0
   -4.5299    0.0451   -3.6030 C   0  0  0  0  0  0  0  0  0  0  0  0
   -5.1554   -0.4182   -2.2830 C   0  0  0  0  0  0  0  0  0  0  0  0
   -5.0015    1.1984   -5.6791 C   0  0  0  0  0  0  0  0  0  0  0  0
    0.3023    8.0930   -0.8439 H   0  0  0  0  0  0  0  0  0  0  0  0
    0.3091    8.0832    0.9360 H   0  0  0  0  0  0  0  0  0  0  0  0
    1.8397    8.2397    0.0410 H   0  0  0  0  0  0  0  0  0  0  0  0
    1.5537    5.9386    0.9195 H   0  0  0  0  0  0  0  0  0  0  0  0
    1.5468    5.9483   -0.8604 H   0  0  0  0  0  0  0  0  0  0  0  0
   -0.9326    5.9210   -0.8510 H   0  0  0  0  0  0  0  0  0  0  0  0
   -0.9258    5.9113    0.9289 H   0  0  0  0  0  0  0  0  0  0  0  0
   -2.6691    5.1636    0.0420 H   0  0  0  0  0  0  0  0  0  0  0  0
   -4.7377    3.8372    0.0428 H   0  0  0  0  0  0  0  0  0  0  0  0
   -2.4669    0.2292    0.0047 H   0  0  0  0  0  0  0  0  0  0  0  0
    3.7463   -1.5654   -0.0422 H   0  0  0  0  0  0  0  0  0  0  0  0
    3.3761    3.3931   -0.0127 H   0  0  0  0  0  0  0  0  0  0  0  0
    7.9046    1.1727   -0.0692 H   0  0  0  0  0  0  0  0  0  0  0  0
   -7.4684    1.2486   -2.4672 H   0  0  0  0  0  0  0  0  0  0  0  0
   -6.6484    2.6069   -1.6528 H   0  0  0  0  0  0  0  0  0  0  0  0
   -4.9060    2.6520   -3.3786 H   0  0  0  0  0  0  0  0  0  0  0  0
   -6.4958    2.7173   -4.1769 H   0  0  0  0  0  0  0  0  0  0  0  0
   -3.6325    0.6279   -3.3955 H   0  0  0  0  0  0  0  0  0  0  0  0
   -4.2677   -0.8242   -4.2061 H   0  0  0  0  0  0  0  0  0  0  0  0
   -4.4065   -0.9380   -1.6855 H   0  0  0  0  0  0  0  0  0  0  0  0
   -5.9913   -1.0877   -2.4857 H   0  0  0  0  0  0  0  0  0  0  0  0
   -4.8405    0.2764   -6.2377 H   0  0  0  0  0  0  0  0  0  0  0  0
   -5.7358    1.8142   -6.1982 H   0  0  0  0  0  0  0  0  0  0  0  0
   -4.0611    1.7438   -5.5995 H   0  0  0  0  0  0  0  0  0  0  0  0
   -5.5215    0.8600   -4.3381 N   0  3  0  0  0  0  0  0  0  0  0  0
   -6.3864    0.3167   -4.4433 H   0  0  0  0  0  0  0  0  0  0  0  0
  1  2  1  0  0  0  0
  1 36  1  0  0  0  0
  1 37  1  0  0  0  0
  1 38  1  0  0  0  0
  2  3  1  0  0  0  0
  2 39  1  0  0  0  0
  2 40  1  0  0  0  0
  3  4  1  0  0  0  0
  3 41  1  0  0  0  0
  3 42  1  0  0  0  0
  4  5  1  0  0  0  0
  5 10  2  0  0  0  0
  5  6  1  0  0  0  0
  6  7  2  0  0  0  0
  6 43  1  0  0  0  0
  7  8  1  0  0  0  0
  7 44  1  0  0  0  0
  8  9  2  0  0  0  0
  8 27  1  0  0  0  0
  9 10  1  0  0  0  0
  9 45  1  0  0  0  0
 10 11  1  0  0  0  0
 11 22  2  0  0  0  0
 11 12  1  0  0  0  0
 12 13  1  0  0  0  0
 12 14  1  0  0  0  0
 14 15  2  0  0  0  0
 14 16  1  0  0  0  0
 16 21  2  0  0  0  0
 16 17  1  0  0  0  0
 17 18  2  0  0  0  0
 17 46  1  0  0  0  0
 18 26  1  0  0  0  0
 18 19  1  0  0  0  0
 19 20  2  0  0  0  0
 19 23  1  0  0  0  0
 20 21  1  0  0  0  0
 20 47  1  0  0  0  0
 21 22  1  0  0  0  0
 23 25  2  0  0  0  0
 24 26  1  0  0  0  0
 25 48  1  0  0  0  0
 25 26  1  0  0  0  0
 27 28  2  0  0  0  0
 27 29  2  0  0  0  0
 27 30  1  0  0  0  0
 30 34  1  0  0  0  0
 30 31  1  0  0  0  0
 31 32  1  0  0  0  0
 31 49  1  0  0  0  0
 31 50  1  0  0  0  0
 32 51  1  0  0  0  0
 32 52  1  0  0  0  0
 32 60  1  0  0  0  0
 33 34  1  0  0  0  0
 33 53  1  0  0  0  0
 33 54  1  0  0  0  0
 33 60  1  0  0  0  0
 34 55  1  0  0  0  0
 34 56  1  0  0  0  0
 35 57  1  0  0  0  0
 35 58  1  0  0  0  0
 35 59  1  0  0  0  0
 35 60  1  0  0  0  0
 60 61  1  0  0  0  0
M  CHG  1  60   1
M  END
$$$$
ZINC04199931
  -OEChem-08230709403D

 58 62  0     0  0  0  0  0  0999 V2000
   -3.3577    6.0128    7.0978 C   0  0  0  0  0  0  0  0  0  0  0  0
   -3.6478    4.6169    6.5428 C   0  0  0  0  0  0  0  0  0  0  0  0
   -2.7752    4.3662    5.3113 C   0  0  0  0  0  0  0  0  0  0  0  0
   -3.0461    3.0624    4.7930 O   0  0  0  0  0  0  0  0  0  0  0  0
   -2.3503    2.6801    3.6921 C   0  0  0  0  0  0  0  0  0  0  0  0
   -1.4256    3.5399    3.1197 C   0  0  0  0  0  0  0  0  0  0  0  0
   -0.7144    3.1477    2.0025 C   0  0  0  0  0  0  0  0  0  0  0  0
   -0.9267    1.9002    1.4394 C   0  0  0  0  0  0  0  0  0  0  0  0
   -1.8425    1.0331    1.9959 C   0  0  0  0  0  0  0  0  0  0  0  0
   -2.5639    1.4151    3.1289 C   0  0  0  0  0  0  0  0  0  0  0  0
   -3.5456    0.4913    3.7301 C   0  0  0  0  0  0  0  0  0  0  0  0
   -3.7259   -0.7368    3.1509 N   0  0  0  0  0  0  0  0  0  0  0  0
   -3.1968   -0.9850    2.3395 H   0  0  0  0  0  0  0  0  0  0  0  0
   -4.6140   -1.6167    3.6677 C   0  0  0  0  0  0  0  0  0  0  0  0
   -4.7832   -2.7116    3.1631 O   0  0  0  0  0  0  0  0  0  0  0  0
   -5.3671   -1.2036    4.8606 C   0  0  0  0  0  0  0  0  0  0  0  0
   -6.3000   -2.0452    5.4581 C   0  0  0  0  0  0  0  0  0  0  0  0
   -6.9855   -1.6164    6.5790 C   0  0  0  0  0  0  0  0  0  0  0  0
   -6.7452   -0.3349    7.1183 C   0  0  0  0  0  0  0  0  0  0  0  0
   -5.8114    0.5116    6.5229 C   0  0  0  0  0  0  0  0  0  0  0  0
   -5.1183    0.0862    5.3949 C   0  0  0  0  0  0  0  0  0  0  0  0
   -4.1987    0.8817    4.7940 N   0  0  0  0  0  0  0  0  0  0  0  0
   -7.5568   -0.2053    8.1992 N   0  0  0  0  0  0  0  0  0  0  0  0
   -8.2587   -1.2902    8.3546 C   0  0  0  0  0  0  0  0  0  0  0  0
   -7.9497   -2.1933    7.3872 N   0  0  0  0  0  0  0  0  0  0  0  0
   -8.5300   -3.5291    7.2288 C   0  0  0  0  0  0  0  0  0  0  0  0
   -7.6430   -4.5451    7.9009 C   0  0  0  0  0  0  0  0  0  0  0  0
   -6.6308   -5.1586    7.1865 C   0  0  0  0  0  0  0  0  0  0  0  0
   -5.8136   -6.0869    7.8032 C   0  0  0  0  0  0  0  0  0  0  0  0
   -6.0157   -6.4103    9.1342 C   0  0  0  0  0  0  0  0  0  0  0  0
   -7.0331   -5.7992    9.8473 C   0  0  0  0  0  0  0  0  0  0  0  0
   -7.8456   -4.8672    9.2300 C   0  0  0  0  0  0  0  0  0  0  0  0
   -5.2204   -7.3212    9.7368 F   0  0  0  0  0  0  0  0  0  0  0  0
   -0.0172    1.4168    0.0098 S   0  0  0  0  0  0  0  0  0  0  0  0
    0.0021   -0.0041    0.0020 O   0  0  0  0  0  0  0  0  0  0  0  0
    1.1718    2.1948    0.0027 O   0  0  0  0  0  0  0  0  0  0  0  0
   -0.8975    1.8855   -1.3122 N   0  0  0  0  0  0  0  0  0  0  0  0
   -2.3064    6.0815    7.3773 H   0  0  0  0  0  0  0  0  0  0  0  0
   -3.5808    6.7601    6.3363 H   0  0  0  0  0  0  0  0  0  0  0  0
   -3.9793    6.1914    7.9752 H   0  0  0  0  0  0  0  0  0  0  0  0
   -4.6991    4.5482    6.2633 H   0  0  0  0  0  0  0  0  0  0  0  0
   -3.4247    3.8696    7.3043 H   0  0  0  0  0  0  0  0  0  0  0  0
   -1.7239    4.4349    5.5908 H   0  0  0  0  0  0  0  0  0  0  0  0
   -2.9982    5.1135    4.5498 H   0  0  0  0  0  0  0  0  0  0  0  0
   -1.2576    4.5157    3.5508 H   0  0  0  0  0  0  0  0  0  0  0  0
    0.0081    3.8193    1.5628 H   0  0  0  0  0  0  0  0  0  0  0  0
   -2.0015    0.0594    1.5564 H   0  0  0  0  0  0  0  0  0  0  0  0
   -6.4876   -3.0268    5.0486 H   0  0  0  0  0  0  0  0  0  0  0  0
   -5.6269    1.4924    6.9356 H   0  0  0  0  0  0  0  0  0  0  0  0
   -8.9828   -1.4499    9.1398 H   0  0  0  0  0  0  0  0  0  0  0  0
   -9.5195   -3.5519    7.6855 H   0  0  0  0  0  0  0  0  0  0  0  0
   -8.6140   -3.7653    6.1680 H   0  0  0  0  0  0  0  0  0  0  0  0
   -6.4760   -4.9092    6.1471 H   0  0  0  0  0  0  0  0  0  0  0  0
   -5.0204   -6.5630    7.2460 H   0  0  0  0  0  0  0  0  0  0  0  0
   -7.1913   -6.0504   10.8857 H   0  0  0  0  0  0  0  0  0  0  0  0
   -8.6390   -4.3902    9.7861 H   0  0  0  0  0  0  0  0  0  0  0  0
   -1.2009    1.2230   -1.9525 H   0  0  0  0  0  0  0  0  0  0  0  0
   -1.1097    2.8224   -1.4463 H   0  0  0  0  0  0  0  0  0  0  0  0
  1  2  1  0  0  0  0
  1 38  1  0  0  0  0
  1 39  1  0  0  0  0
  1 40  1  0  0  0  0
  2  3  1  0  0  0  0
  2 41  1  0  0  0  0
  2 42  1  0  0  0  0
  3  4  1  0  0  0  0
  3 43  1  0  0  0  0
  3 44  1  0  0  0  0
  4  5  1  0  0  0  0
  5 10  2  0  0  0  0
  5  6  1  0  0  0  0
  6  7  2  0  0  0  0
  6 45  1  0  0  0  0
  7  8  1  0  0  0  0
  7 46  1  0  0  0  0
  8  9  2  0  0  0  0
  8 34  1  0  0  0  0
  9 10  1  0  0  0  0
  9 47  1  0  0  0  0
 10 11  1  0  0  0  0
 11 22  2  0  0  0  0
 11 12  1  0  0  0  0
 12 13  1  0  0  0  0
 12 14  1  0  0  0  0
 14 15  2  0  0  0  0
 14 16  1  0  0  0  0
 16 21  2  0  0  0  0
 16 17  1  0  0  0  0
 17 18  2  0  0  0  0
 17 48  1  0  0  0  0
 18 25  1  0  0  0  0
 18 19  1  0  0  0  0
 19 20  2  0  0  0  0
 19 23  1  0  0  0  0
 20 21  1  0  0  0  0
 20 49  1  0  0  0  0
 21 22  1  0  0  0  0
 23 24  2  0  0  0  0
 24 25  1  0  0  0  0
 24 50  1  0  0  0  0
 25 26  1  0  0  0  0
 26 27  1  0  0  0  0
 26 51  1  0  0  0  0
 26 52  1  0  0  0  0
 27 32  2  0  0  0  0
 27 28  1  0  0  0  0
 28 29  2  0  0  0  0
 28 53  1  0  0  0  0
 29 30  1  0  0  0  0
 29 54  1  0  0  0  0
 30 31  2  0  0  0  0
 30 33  1  0  0  0  0
 31 32  1  0  0  0  0
 31 55  1  0  0  0  0
 32 56  1  0  0  0  0
 34 35  2  0  0  0  0
 34 36  2  0  0  0  0
 34 37  1  0  0  0  0
 37 57  1  0  0  0  0
 37 58  1  0  0  0  0
M  END
$$$$
ZINC04199931
  -OEChem-08230709403D

 58 62  0     0  0  0  0  0  0999 V2000
   -3.3579    6.0129    7.0976 C   0  0  0  0  0  0  0  0  0  0  0  0
   -3.6480    4.6170    6.5426 C   0  0  0  0  0  0  0  0  0  0  0  0
   -2.7758    4.3665    5.3108 C   0  0  0  0  0  0  0  0  0  0  0  0
   -3.0467    3.0627    4.7925 O   0  0  0  0  0  0  0  0  0  0  0  0
   -2.3512    2.6806    3.6914 C   0  0  0  0  0  0  0  0  0  0  0  0
   -1.4268    3.5405    3.1187 C   0  0  0  0  0  0  0  0  0  0  0  0
   -0.7159    3.1485    2.0013 C   0  0  0  0  0  0  0  0  0  0  0  0
   -0.9282    1.9010    1.4382 C   0  0  0  0  0  0  0  0  0  0  0  0
   -1.8437    1.0337    1.9949 C   0  0  0  0  0  0  0  0  0  0  0  0
   -2.5648    1.4156    3.1282 C   0  0  0  0  0  0  0  0  0  0  0  0
   -3.5462    0.4916    3.7296 C   0  0  0  0  0  0  0  0  0  0  0  0
   -3.7265   -0.7365    3.1504 N   0  0  0  0  0  0  0  0  0  0  0  0
   -4.0195    1.7906    5.1704 H   0  0  0  0  0  0  0  0  0  0  0  0
   -4.6143   -1.6165    3.6674 C   0  0  0  0  0  0  0  0  0  0  0  0
   -4.7835   -2.7114    3.1628 O   0  0  0  0  0  0  0  0  0  0  0  0
   -5.3755   -1.1991    4.8537 C   0  0  0  0  0  0  0  0  0  0  0  0
   -6.3128   -2.0384    5.4477 C   0  0  0  0  0  0  0  0  0  0  0  0
   -7.0023   -1.6075    6.5653 C   0  0  0  0  0  0  0  0  0  0  0  0
   -6.7617   -0.3261    7.1048 C   0  0  0  0  0  0  0  0  0  0  0  0
   -5.8235    0.5181    6.5130 C   0  0  0  0  0  0  0  0  0  0  0  0
   -5.1264    0.0905    5.3883 C   0  0  0  0  0  0  0  0  0  0  0  0
   -4.2028    0.8839    4.7906 N   0  0  0  0  0  0  0  0  0  0  0  0
   -7.5777   -0.1941    8.1821 N   0  0  0  0  0  0  0  0  0  0  0  0
   -8.2826   -1.2775    8.3351 C   0  0  0  0  0  0  0  0  0  0  0  0
   -7.9712   -2.1818    7.3696 N   0  0  0  0  0  0  0  0  0  0  0  0
   -8.5535   -3.5166    7.2095 C   0  0  0  0  0  0  0  0  0  0  0  0
   -7.6716   -4.5339    7.8861 C   0  0  0  0  0  0  0  0  0  0  0  0
   -6.6575   -5.1500    7.1766 C   0  0  0  0  0  0  0  0  0  0  0  0
   -5.8450   -6.0796    7.7974 C   0  0  0  0  0  0  0  0  0  0  0  0
   -6.0536   -6.4017    9.1277 C   0  0  0  0  0  0  0  0  0  0  0  0
   -7.0728   -5.7880    9.8360 C   0  0  0  0  0  0  0  0  0  0  0  0
   -7.8807   -4.8548    9.2146 C   0  0  0  0  0  0  0  0  0  0  0  0
   -5.2628   -7.3138    9.7344 F   0  0  0  0  0  0  0  0  0  0  0  0
   -0.0191    1.4178    0.0083 S   0  0  0  0  0  0  0  0  0  0  0  0
    0.0004   -0.0031    0.0004 O   0  0  0  0  0  0  0  0  0  0  0  0
    1.1698    2.1959    0.0008 O   0  0  0  0  0  0  0  0  0  0  0  0
   -0.8998    1.8865   -1.3134 N   0  0  0  0  0  0  0  0  0  0  0  0
   -2.3066    6.0817    7.3768 H   0  0  0  0  0  0  0  0  0  0  0  0
   -3.5814    6.7602    6.3362 H   0  0  0  0  0  0  0  0  0  0  0  0
   -3.9793    6.1914    7.9752 H   0  0  0  0  0  0  0  0  0  0  0  0
   -4.6994    4.5482    6.2634 H   0  0  0  0  0  0  0  0  0  0  0  0
   -3.4246    3.8697    7.3040 H   0  0  0  0  0  0  0  0  0  0  0  0
   -1.7244    4.4353    5.5900 H   0  0  0  0  0  0  0  0  0  0  0  0
   -2.9991    5.1138    4.5494 H   0  0  0  0  0  0  0  0  0  0  0  0
   -1.2588    4.5163    3.5499 H   0  0  0  0  0  0  0  0  0  0  0  0
    0.0064    3.8202    1.5614 H   0  0  0  0  0  0  0  0  0  0  0  0
   -2.0027    0.0600    1.5554 H   0  0  0  0  0  0  0  0  0  0  0  0
   -6.5006   -3.0199    5.0380 H   0  0  0  0  0  0  0  0  0  0  0  0
   -5.6388    1.4988    6.9258 H   0  0  0  0  0  0  0  0  0  0  0  0
   -9.0104   -1.4352    9.1172 H   0  0  0  0  0  0  0  0  0  0  0  0
   -9.5451   -3.5370    7.6619 H   0  0  0  0  0  0  0  0  0  0  0  0
   -8.6334   -3.7533    6.1485 H   0  0  0  0  0  0  0  0  0  0  0  0
   -6.4977   -4.9016    6.1377 H   0  0  0  0  0  0  0  0  0  0  0  0
   -5.0503   -6.5577    7.2440 H   0  0  0  0  0  0  0  0  0  0  0  0
   -7.2361   -6.0382   10.8739 H   0  0  0  0  0  0  0  0  0  0  0  0
   -8.6755   -4.3758    9.7669 H   0  0  0  0  0  0  0  0  0  0  0  0
   -1.2034    1.2240   -1.9537 H   0  0  0  0  0  0  0  0  0  0  0  0
   -1.1122    2.8233   -1.4474 H   0  0  0  0  0  0  0  0  0  0  0  0
  1  2  1  0  0  0  0
  1 38  1  0  0  0  0
  1 39  1  0  0  0  0
  1 40  1  0  0  0  0
  2  3  1  0  0  0  0
  2 41  1  0  0  0  0
  2 42  1  0  0  0  0
  3  4  1  0  0  0  0
  3 43  1  0  0  0  0
  3 44  1  0  0  0  0
  4  5  1  0  0  0  0
  5 10  2  0  0  0  0
  5  6  1  0  0  0  0
  6  7  2  0  0  0  0
  6 45  1  0  0  0  0
  7  8  1  0  0  0  0
  7 46  1  0  0  0  0
  8  9  2  0  0  0  0
  8 34  1  0  0  0  0
  9 10  1  0  0  0  0
  9 47  1  0  0  0  0
 10 11  1  0  0  0  0
 11 22  1  0  0  0  0
 11 12  2  0  0  0  0
 12 14  1  0  0  0  0
 13 22  1  0  0  0  0
 14 15  2  0  0  0  0
 14 16  1  0  0  0  0
 16 17  2  0  0  0  0
 16 21  1  0  0  0  0
 17 18  1  0  0  0  0
 17 48  1  0  0  0  0
 18 25  1  0  0  0  0
 18 19  2  0  0  0  0
 19 20  1  0  0  0  0
 19 23  1  0  0  0  0
 20 21  2  0  0  0  0
 20 49  1  0  0  0  0
 21 22  1  0  0  0  0
 23 24  2  0  0  0  0
 24 25  1  0  0  0  0
 24 50  1  0  0  0  0
 25 26  1  0  0  0  0
 26 27  1  0  0  0  0
 26 51  1  0  0  0  0
 26 52  1  0  0  0  0
 27 32  2  0  0  0  0
 27 28  1  0  0  0  0
 28 29  2  0  0  0  0
 28 53  1  0  0  0  0
 29 30  1  0  0  0  0
 29 54  1  0  0  0  0
 30 31  2  0  0  0  0
 30 33  1  0  0  0  0
 31 32  1  0  0  0  0
 31 55  1  0  0  0  0
 32 56  1  0  0  0  0
 34 35  2  0  0  0  0
 34 36  2  0  0  0  0
 34 37  1  0  0  0  0
 37 57  1  0  0  0  0
 37 58  1  0  0  0  0
M  END
$$$$
ZINC04199931
  -OEChem-08230709403D

 58 62  0     0  0  0  0  0  0999 V2000
   -3.3595    6.0138    7.0963 C   0  0  0  0  0  0  0  0  0  0  0  0
   -3.6493    4.6177    6.5416 C   0  0  0  0  0  0  0  0  0  0  0  0
   -2.7767    4.3670    5.3100 C   0  0  0  0  0  0  0  0  0  0  0  0
   -3.0473    3.0630    4.7920 O   0  0  0  0  0  0  0  0  0  0  0  0
   -2.3515    2.6807    3.6911 C   0  0  0  0  0  0  0  0  0  0  0  0
   -1.4271    3.5407    3.1185 C   0  0  0  0  0  0  0  0  0  0  0  0
   -0.7159    3.1485    2.0013 C   0  0  0  0  0  0  0  0  0  0  0  0
   -0.9279    1.9008    1.4384 C   0  0  0  0  0  0  0  0  0  0  0  0
   -1.8434    1.0336    1.9952 C   0  0  0  0  0  0  0  0  0  0  0  0
   -2.5648    1.4156    3.1282 C   0  0  0  0  0  0  0  0  0  0  0  0
   -3.5462    0.4916    3.7296 C   0  0  0  0  0  0  0  0  0  0  0  0
   -3.7345   -0.7321    3.1439 N   0  0  0  0  0  0  0  0  0  0  0  0
   -5.4866   -3.2080    3.6720 H   0  0  0  0  0  0  0  0  0  0  0  0
   -4.6231   -1.6118    3.6603 C   0  0  0  0  0  0  0  0  0  0  0  0
   -4.7965   -2.7044    3.1522 O   0  0  0  0  0  0  0  0  0  0  0  0
   -5.3625   -1.2061    4.8642 C   0  0  0  0  0  0  0  0  0  0  0  0
   -6.2908   -2.0502    5.4654 C   0  0  0  0  0  0  0  0  0  0  0  0
   -6.9673   -1.6263    6.5936 C   0  0  0  0  0  0  0  0  0  0  0  0
   -6.7230   -0.3469    7.1361 C   0  0  0  0  0  0  0  0  0  0  0  0
   -5.7985    0.5046    6.5333 C   0  0  0  0  0  0  0  0  0  0  0  0
   -5.1098    0.0816    5.4018 C   0  0  0  0  0  0  0  0  0  0  0  0
   -4.1951    0.8798    4.7969 N   0  0  0  0  0  0  0  0  0  0  0  0
   -7.5262   -0.2218    8.2239 N   0  0  0  0  0  0  0  0  0  0  0  0
   -8.2266   -1.3076    8.3804 C   0  0  0  0  0  0  0  0  0  0  0  0
   -7.9249   -2.2067    7.4070 N   0  0  0  0  0  0  0  0  0  0  0  0
   -8.5061   -3.5420    7.2478 C   0  0  0  0  0  0  0  0  0  0  0  0
   -7.6137   -4.5604    7.9088 C   0  0  0  0  0  0  0  0  0  0  0  0
   -6.6069   -5.1708    7.1840 C   0  0  0  0  0  0  0  0  0  0  0  0
   -5.7847   -6.1013    7.7906 C   0  0  0  0  0  0  0  0  0  0  0  0
   -5.9763   -6.4301    9.1218 C   0  0  0  0  0  0  0  0  0  0  0  0
   -6.9882   -5.8222    9.8453 C   0  0  0  0  0  0  0  0  0  0  0  0
   -7.8057   -4.8879    9.2382 C   0  0  0  0  0  0  0  0  0  0  0  0
   -5.1761   -7.3432    9.7145 F   0  0  0  0  0  0  0  0  0  0  0  0
   -0.0184    1.4175    0.0088 S   0  0  0  0  0  0  0  0  0  0  0  0
    0.0013   -0.0034    0.0013 O   0  0  0  0  0  0  0  0  0  0  0  0
    1.1704    2.1958    0.0014 O   0  0  0  0  0  0  0  0  0  0  0  0
   -0.8990    1.8857   -1.3132 N   0  0  0  0  0  0  0  0  0  0  0  0
   -2.3082    6.0828    7.3757 H   0  0  0  0  0  0  0  0  0  0  0  0
   -3.5829    6.7609    6.3347 H   0  0  0  0  0  0  0  0  0  0  0  0
   -3.9811    6.1924    7.9737 H   0  0  0  0  0  0  0  0  0  0  0  0
   -4.7006    4.5486    6.2622 H   0  0  0  0  0  0  0  0  0  0  0  0
   -3.4259    3.8706    7.3032 H   0  0  0  0  0  0  0  0  0  0  0  0
   -1.7254    4.4361    5.5894 H   0  0  0  0  0  0  0  0  0  0  0  0
   -3.0000    5.1141    4.5484 H   0  0  0  0  0  0  0  0  0  0  0  0
   -1.2594    4.5166    3.5494 H   0  0  0  0  0  0  0  0  0  0  0  0
    0.0063    3.8202    1.5614 H   0  0  0  0  0  0  0  0  0  0  0  0
   -2.0022    0.0598    1.5558 H   0  0  0  0  0  0  0  0  0  0  0  0
   -6.4816   -3.0301    5.0532 H   0  0  0  0  0  0  0  0  0  0  0  0
   -5.6146    1.4857    6.9457 H   0  0  0  0  0  0  0  0  0  0  0  0
   -8.9445   -1.4706    9.1706 H   0  0  0  0  0  0  0  0  0  0  0  0
   -9.4920   -3.5669    7.7121 H   0  0  0  0  0  0  0  0  0  0  0  0
   -8.5984   -3.7739    6.1867 H   0  0  0  0  0  0  0  0  0  0  0  0
   -6.4604   -4.9172    6.1445 H   0  0  0  0  0  0  0  0  0  0  0  0
   -4.9958   -6.5750    7.2253 H   0  0  0  0  0  0  0  0  0  0  0  0
   -7.1382   -6.0776   10.8839 H   0  0  0  0  0  0  0  0  0  0  0  0
   -8.5949   -4.4134    9.8024 H   0  0  0  0  0  0  0  0  0  0  0  0
   -1.2023    1.2230   -1.9533 H   0  0  0  0  0  0  0  0  0  0  0  0
   -1.1115    2.8225   -1.4474 H   0  0  0  0  0  0  0  0  0  0  0  0
  1  2  1  0  0  0  0
  1 38  1  0  0  0  0
  1 39  1  0  0  0  0
  1 40  1  0  0  0  0
  2  3  1  0  0  0  0
  2 41  1  0  0  0  0
  2 42  1  0  0  0  0
  3  4  1  0  0  0  0
  3 43  1  0  0  0  0
  3 44  1  0  0  0  0
  4  5  1  0  0  0  0
  5 10  2  0  0  0  0
  5  6  1  0  0  0  0
  6  7  2  0  0  0  0
  6 45  1  0  0  0  0
  7  8  1  0  0  0  0
  7 46  1  0  0  0  0
  8  9  2  0  0  0  0
  8 34  1  0  0  0  0
  9 10  1  0  0  0  0
  9 47  1  0  0  0  0
 10 11  1  0  0  0  0
 11 22  2  0  0  0  0
 11 12  1  0  0  0  0
 12 14  2  0  0  0  0
 13 15  1  0  0  0  0
 14 15  1  0  0  0  0
 14 16  1  0  0  0  0
 16 17  2  0  0  0  0
 16 21  1  0  0  0  0
 17 18  1  0  0  0  0
 17 48  1  0  0  0  0
 18 25  1  0  0  0  0
 18 19  2  0  0  0  0
 19 20  1  0  0  0  0
 19 23  1  0  0  0  0
 20 21  2  0  0  0  0
 20 49  1  0  0  0  0
 21 22  1  0  0  0  0
 23 24  2  0  0  0  0
 24 25  1  0  0  0  0
 24 50  1  0  0  0  0
 25 26  1  0  0  0  0
 26 27  1  0  0  0  0
 26 51  1  0  0  0  0
 26 52  1  0  0  0  0
 27 32  2  0  0  0  0
 27 28  1  0  0  0  0
 28 29  2  0  0  0  0
 28 53  1  0  0  0  0
 29 30  1  0  0  0  0
 29 54  1  0  0  0  0
 30 31  2  0  0  0  0
 30 33  1  0  0  0  0
 31 32  1  0  0  0  0
 31 55  1  0  0  0  0
 32 56  1  0  0  0  0
 34 35  2  0  0  0  0
 34 36  2  0  0  0  0
 34 37  1  0  0  0  0
 37 57  1  0  0  0  0
 37 58  1  0  0  0  0
M  END
$$$$
ZINC04199932
  -OEChem-08230709403D

 52 55  0     0  0  0  0  0  0999 V2000
    1.2763    6.2526    0.0222 C   0  0  0  0  0  0  0  0  0  0  0  0
    0.0058    5.5987    0.0314 O   0  0  0  0  0  0  0  0  0  0  0  0
    0.0112    4.2393    0.0246 C   0  0  0  0  0  0  0  0  0  0  0  0
    1.1997    3.5709    0.0097 C   0  0  0  0  0  0  0  0  0  0  0  0
    1.2119    2.1638    0.0021 C   0  0  0  0  0  0  0  0  0  0  0  0
    2.4199    1.4537   -0.0140 C   0  0  0  0  0  0  0  0  0  0  0  0
    2.4235    0.0665   -0.0206 C   0  0  0  0  0  0  0  0  0  0  0  0
    1.2158   -0.6544   -0.0131 C   0  0  0  0  0  0  0  0  0  0  0  0
    0.0021   -0.0041    0.0020 C   0  0  0  0  0  0  0  0  0  0  0  0
   -0.0177    1.4572    0.0101 C   0  0  0  0  0  0  0  0  0  0  0  0
   -1.2251    2.1651    0.0196 C   0  0  0  0  0  0  0  0  0  0  0  0
   -1.2060    3.5419    0.0325 C   0  0  0  0  0  0  0  0  0  0  0  0
   -2.3768    4.2312    0.0470 O   0  0  0  0  0  0  0  0  0  0  0  0
   -3.5818    3.4632    0.0544 C   0  0  0  0  0  0  0  0  0  0  0  0
   -1.2637   -0.7737    0.0105 C   0  0  0  0  0  0  0  0  0  0  0  0
   -1.5817   -1.5826    1.1010 C   0  0  0  0  0  0  0  0  0  0  0  0
   -2.7672   -2.2967    1.1094 C   0  0  0  0  0  0  0  0  0  0  0  0
   -3.6361   -2.2165    0.0261 C   0  0  0  0  0  0  0  0  0  0  0  0
   -3.3182   -1.4143   -1.0649 C   0  0  0  0  0  0  0  0  0  0  0  0
   -2.1361   -0.6946   -1.0746 C   0  0  0  0  0  0  0  0  0  0  0  0
   -4.1694   -1.3375   -2.1228 O   0  0  0  0  0  0  0  0  0  0  0  0
   -3.7795   -0.4950   -3.2092 C   0  0  0  0  0  0  0  0  0  0  0  0
   -4.7983   -2.9240    0.0335 O   0  0  0  0  0  0  0  0  0  0  0  0
   -4.7576   -4.2441   -0.5123 C   0  0  0  0  0  0  0  0  0  0  0  0
   -3.0802   -3.0817    2.1749 O   0  0  0  0  0  0  0  0  0  0  0  0
   -2.1423   -3.1170    3.2524 C   0  0  0  0  0  0  0  0  0  0  0  0
    1.5946   -2.1150   -0.0246 C   0  0  0  0  0  0  0  0  0  0  0  0
    3.0471   -2.1624   -0.0387 O   0  0  0  0  0  0  0  0  0  0  0  0
    3.5300   -0.9097   -0.0364 C   0  0  0  0  0  0  0  0  0  0  0  0
    4.7101   -0.6209   -0.0464 O   0  0  0  0  0  0  0  0  0  0  0  0
    1.1292    7.3326    0.0290 H   0  0  0  0  0  0  0  0  0  0  0  0
    1.8432    5.9575    0.9053 H   0  0  0  0  0  0  0  0  0  0  0  0
    1.8258    5.9664   -0.8746 H   0  0  0  0  0  0  0  0  0  0  0  0
    2.1296    4.1203    0.0040 H   0  0  0  0  0  0  0  0  0  0  0  0
    3.3566    1.9913   -0.0200 H   0  0  0  0  0  0  0  0  0  0  0  0
   -2.1659    1.6348    0.0216 H   0  0  0  0  0  0  0  0  0  0  0  0
   -4.4405    4.1345    0.0659 H   0  0  0  0  0  0  0  0  0  0  0  0
   -3.6204    2.8390   -0.8383 H   0  0  0  0  0  0  0  0  0  0  0  0
   -3.6037    2.8302    0.9415 H   0  0  0  0  0  0  0  0  0  0  0  0
   -0.9050   -1.6489    1.9401 H   0  0  0  0  0  0  0  0  0  0  0  0
   -1.8897   -0.0718   -1.9219 H   0  0  0  0  0  0  0  0  0  0  0  0
   -2.8329   -0.8462   -3.6198 H   0  0  0  0  0  0  0  0  0  0  0  0
   -4.5451   -0.5243   -3.9846 H   0  0  0  0  0  0  0  0  0  0  0  0
   -3.6633    0.5282   -2.8519 H   0  0  0  0  0  0  0  0  0  0  0  0
   -4.0439   -4.8474    0.0487 H   0  0  0  0  0  0  0  0  0  0  0  0
   -5.7474   -4.6958   -0.4448 H   0  0  0  0  0  0  0  0  0  0  0  0
   -4.4507   -4.1960   -1.5570 H   0  0  0  0  0  0  0  0  0  0  0  0
   -2.0147   -2.1125    3.6561 H   0  0  0  0  0  0  0  0  0  0  0  0
   -2.5129   -3.7788    4.0352 H   0  0  0  0  0  0  0  0  0  0  0  0
   -1.1838   -3.4865    2.8879 H   0  0  0  0  0  0  0  0  0  0  0  0
    1.2129   -2.6075    0.8698 H   0  0  0  0  0  0  0  0  0  0  0  0
    1.1960   -2.5978   -0.9169 H   0  0  0  0  0  0  0  0  0  0  0  0
  1  2  1  0  0  0  0
  1 31  1  0  0  0  0
  1 32  1  0  0  0  0
  1 33  1  0  0  0  0
  2  3  1  0  0  0  0
  3 12  2  0  0  0  0
  3  4  1  0  0  0  0
  4  5  2  0  0  0  0
  4 34  1  0  0  0  0
  5 10  1  0  0  0  0
  5  6  1  0  0  0  0
  6  7  2  0  0  0  0
  6 35  1  0  0  0  0
  7 29  1  0  0  0  0
  7  8  1  0  0  0  0
  8  9  2  0  0  0  0
  8 27  1  0  0  0  0
  9 10  1  0  0  0  0
  9 15  1  0  0  0  0
 10 11  2  0  0  0  0
 11 12  1  0  0  0  0
 11 36  1  0  0  0  0
 12 13  1  0  0  0  0
 13 14  1  0  0  0  0
 14 37  1  0  0  0  0
 14 38  1  0  0  0  0
 14 39  1  0  0  0  0
 15 20  2  0  0  0  0
 15 16  1  0  0  0  0
 16 17  2  0  0  0  0
 16 40  1  0  0  0  0
 17 18  1  0  0  0  0
 17 25  1  0  0  0  0
 18 19  2  0  0  0  0
 18 23  1  0  0  0  0
 19 20  1  0  0  0  0
 19 21  1  0  0  0  0
 20 41  1  0  0  0  0
 21 22  1  0  0  0  0
 22 42  1  0  0  0  0
 22 43  1  0  0  0  0
 22 44  1  0  0  0  0
 23 24  1  0  0  0  0
 24 45  1  0  0  0  0
 24 46  1  0  0  0  0
 24 47  1  0  0  0  0
 25 26  1  0  0  0  0
 26 48  1  0  0  0  0
 26 49  1  0  0  0  0
 26 50  1  0  0  0  0
 27 28  1  0  0  0  0
 27 51  1  0  0  0  0
 27 52  1  0  0  0  0
 28 29  1  0  0  0  0
 29 30  2  0  0  0  0
M  END
$$$$
ZINC04199933
  -OEChem-08230709403D

 64 66  0     0  0  0  0  0  0999 V2000
    6.5019   -4.2604    4.2082 C   0  0  0  0  0  0  0  0  0  0  0  0
    5.8673   -4.4237    2.8979 N   0  0  0  0  0  0  0  0  0  0  0  0
    5.3313   -5.7281    2.5011 C   0  0  0  0  0  0  0  0  0  0  0  0
    5.7767   -3.3740    2.0575 C   0  0  0  0  0  0  0  0  0  0  0  0
    6.2849   -2.3106    2.3561 O   0  0  0  0  0  0  0  0  0  0  0  0
    5.0601   -3.5153    0.7741 C   0  0  0  0  0  0  0  0  0  0  0  0
    5.4250   -4.5062   -0.1162 C   0  0  0  0  0  0  0  0  0  0  0  0
    4.7464   -4.6451   -1.3399 C   0  0  0  0  0  0  0  0  0  0  0  0
    5.1197   -5.6546   -2.2449 C   0  0  0  0  0  0  0  0  0  0  0  0
    4.4588   -5.7857   -3.4317 C   0  0  0  0  0  0  0  0  0  0  0  0
    3.4047   -4.9217   -3.7641 C   0  0  0  0  0  0  0  0  0  0  0  0
    3.0181   -3.9246   -2.8984 C   0  0  0  0  0  0  0  0  0  0  0  0
    3.6785   -3.7740   -1.6695 C   0  0  0  0  0  0  0  0  0  0  0  0
    3.2928   -2.7485   -0.7727 C   0  0  0  0  0  0  0  0  0  0  0  0
    3.9634   -2.6062    0.4438 C   0  0  0  0  0  0  0  0  0  0  0  0
    3.5694   -1.5479    1.3871 C   0  0  0  0  0  0  0  0  0  0  0  0
    2.7230   -1.7700    2.2307 O   0  0  0  0  0  0  0  0  0  0  0  0
    4.1472   -0.3319    1.3157 O   0  0  0  0  0  0  0  0  0  0  0  0
    3.7095    0.6634    2.2780 C   0  0  0  0  0  0  0  0  0  0  0  0
    2.1823   -1.8372   -1.1196 C   0  0  0  0  0  0  0  0  0  0  0  0
    0.8853   -2.3361   -1.2571 C   0  0  0  0  0  0  0  0  0  0  0  0
   -0.1523   -1.4813   -1.5823 C   0  0  0  0  0  0  0  0  0  0  0  0
    0.0946   -0.1241   -1.7673 C   0  0  0  0  0  0  0  0  0  0  0  0
    1.3873    0.3746   -1.6361 C   0  0  0  0  0  0  0  0  0  0  0  0
    2.4283   -0.4761   -1.3110 C   0  0  0  0  0  0  0  0  0  0  0  0
    1.6262    1.7004   -1.8222 O   0  0  0  0  0  0  0  0  0  0  0  0
    2.9754    2.1447   -1.6659 C   0  0  0  0  0  0  0  0  0  0  0  0
   -0.9281    0.7152   -2.0819 O   0  0  0  0  0  0  0  0  0  0  0  0
   -1.2086    0.9040   -3.4703 C   0  0  0  0  0  0  0  0  0  0  0  0
   -1.4157   -1.9665   -1.7162 O   0  0  0  0  0  0  0  0  0  0  0  0
   -1.5979   -3.3683   -1.5069 C   0  0  0  0  0  0  0  0  0  0  0  0
    2.7606   -5.0705   -4.9511 O   0  0  0  0  0  0  0  0  0  0  0  0
    1.6960   -4.1590   -5.2302 C   0  0  0  0  0  0  0  0  0  0  0  0
    4.8259   -6.7635   -4.3009 O   0  0  0  0  0  0  0  0  0  0  0  0
    5.9064   -7.6109   -3.9055 C   0  0  0  0  0  0  0  0  0  0  0  0
    5.7501   -3.9708    4.9424 H   0  0  0  0  0  0  0  0  0  0  0  0
    6.9604   -5.2022    4.5098 H   0  0  0  0  0  0  0  0  0  0  0  0
    7.2673   -3.4867    4.1473 H   0  0  0  0  0  0  0  0  0  0  0  0
    4.8132   -5.6330    1.5469 H   0  0  0  0  0  0  0  0  0  0  0  0
    6.1490   -6.4418    2.4010 H   0  0  0  0  0  0  0  0  0  0  0  0
    4.6328   -6.0801    3.2603 H   0  0  0  0  0  0  0  0  0  0  0  0
    6.2353   -5.1769    0.1284 H   0  0  0  0  0  0  0  0  0  0  0  0
    5.9293   -6.3264   -2.0006 H   0  0  0  0  0  0  0  0  0  0  0  0
    2.2061   -3.2630   -3.1619 H   0  0  0  0  0  0  0  0  0  0  0  0
    3.9073    0.3040    3.2879 H   0  0  0  0  0  0  0  0  0  0  0  0
    4.2521    1.5938    2.1107 H   0  0  0  0  0  0  0  0  0  0  0  0
    2.6406    0.8395    2.1579 H   0  0  0  0  0  0  0  0  0  0  0  0
    0.6925   -3.3885   -1.1099 H   0  0  0  0  0  0  0  0  0  0  0  0
    3.4306   -0.0880   -1.2056 H   0  0  0  0  0  0  0  0  0  0  0  0
    3.0266    3.2193   -1.8413 H   0  0  0  0  0  0  0  0  0  0  0  0
    3.3153    1.9251   -0.6538 H   0  0  0  0  0  0  0  0  0  0  0  0
    3.6132    1.6287   -2.3835 H   0  0  0  0  0  0  0  0  0  0  0  0
   -2.0446    1.5947   -3.5814 H   0  0  0  0  0  0  0  0  0  0  0  0
   -0.3293    1.3151   -3.9660 H   0  0  0  0  0  0  0  0  0  0  0  0
   -1.4661   -0.0538   -3.9225 H   0  0  0  0  0  0  0  0  0  0  0  0
   -0.9931   -3.9242   -2.2233 H   0  0  0  0  0  0  0  0  0  0  0  0
   -1.2906   -3.6273   -0.4937 H   0  0  0  0  0  0  0  0  0  0  0  0
   -2.6489   -3.6225   -1.6440 H   0  0  0  0  0  0  0  0  0  0  0  0
    2.0817   -3.1395   -5.2321 H   0  0  0  0  0  0  0  0  0  0  0  0
    1.2686   -4.3875   -6.2065 H   0  0  0  0  0  0  0  0  0  0  0  0
    0.9257   -4.2546   -4.4650 H   0  0  0  0  0  0  0  0  0  0  0  0
    6.0968   -8.3457   -4.6877 H   0  0  0  0  0  0  0  0  0  0  0  0
    6.8011   -7.0088   -3.7470 H   0  0  0  0  0  0  0  0  0  0  0  0
    5.6455   -8.1245   -2.9802 H   0  0  0  0  0  0  0  0  0  0  0  0
  1  2  1  0  0  0  0
  1 36  1  0  0  0  0
  1 37  1  0  0  0  0
  1 38  1  0  0  0  0
  2  3  1  0  0  0  0
  2  4  1  0  0  0  0
  3 39  1  0  0  0  0
  3 40  1  0  0  0  0
  3 41  1  0  0  0  0
  4  5  2  0  0  0  0
  4  6  1  0  0  0  0
  6 15  2  0  0  0  0
  6  7  1  0  0  0  0
  7  8  2  0  0  0  0
  7 42  1  0  0  0  0
  8 13  1  0  0  0  0
  8  9  1  0  0  0  0
  9 10  2  0  0  0  0
  9 43  1  0  0  0  0
 10 11  1  0  0  0  0
 10 34  1  0  0  0  0
 11 12  2  0  0  0  0
 11 32  1  0  0  0  0
 12 13  1  0  0  0  0
 12 44  1  0  0  0  0
 13 14  2  0  0  0  0
 14 15  1  0  0  0  0
 14 20  1  0  0  0  0
 15 16  1  0  0  0  0
 16 17  2  0  0  0  0
 16 18  1  0  0  0  0
 18 19  1  0  0  0  0
 19 45  1  0  0  0  0
 19 46  1  0  0  0  0
 19 47  1  0  0  0  0
 20 25  2  0  0  0  0
 20 21  1  0  0  0  0
 21 22  2  0  0  0  0
 21 48  1  0  0  0  0
 22 23  1  0  0  0  0
 22 30  1  0  0  0  0
 23 24  2  0  0  0  0
 23 28  1  0  0  0  0
 24 25  1  0  0  0  0
 24 26  1  0  0  0  0
 25 49  1  0  0  0  0
 26 27  1  0  0  0  0
 27 50  1  0  0  0  0
 27 51  1  0  0  0  0
 27 52  1  0  0  0  0
 28 29  1  0  0  0  0
 29 53  1  0  0  0  0
 29 54  1  0  0  0  0
 29 55  1  0  0  0  0
 30 31  1  0  0  0  0
 31 56  1  0  0  0  0
 31 57  1  0  0  0  0
 31 58  1  0  0  0  0
 32 33  1  0  0  0  0
 33 59  1  0  0  0  0
 33 60  1  0  0  0  0
 33 61  1  0  0  0  0
 34 35  1  0  0  0  0
 35 62  1  0  0  0  0
 35 63  1  0  0  0  0
 35 64  1  0  0  0  0
M  END
$$$$
ZINC04199934
  -OEChem-08230709403D

 64 67  0     0  0  0  0  0  0999 V2000
    2.9678    2.2751   -1.7726 C   0  0  0  0  0  0  0  0  0  0  0  0
    1.5746    2.0641   -1.5348 O   0  0  0  0  0  0  0  0  0  0  0  0
    1.2021    0.8298   -1.1020 C   0  0  0  0  0  0  0  0  0  0  0  0
    2.1565   -0.1527   -0.9116 C   0  0  0  0  0  0  0  0  0  0  0  0
    1.7733   -1.4200   -0.4671 C   0  0  0  0  0  0  0  0  0  0  0  0
    0.4267   -1.6917   -0.2161 C   0  0  0  0  0  0  0  0  0  0  0  0
   -0.5239   -0.7057   -0.4081 C   0  0  0  0  0  0  0  0  0  0  0  0
   -0.1387    0.5583   -0.8457 C   0  0  0  0  0  0  0  0  0  0  0  0
   -1.0746    1.5279   -1.0280 O   0  0  0  0  0  0  0  0  0  0  0  0
   -1.6756    1.6145   -2.3216 C   0  0  0  0  0  0  0  0  0  0  0  0
   -1.8354   -0.9694   -0.1634 O   0  0  0  0  0  0  0  0  0  0  0  0
   -2.1589   -2.2856    0.2895 C   0  0  0  0  0  0  0  0  0  0  0  0
    2.7912   -2.4716   -0.2623 C   0  0  0  0  0  0  0  0  0  0  0  0
    2.7878   -3.6847   -1.0937 C   0  0  0  0  0  0  0  0  0  0  0  0
    1.8361   -3.8823   -2.0915 C   0  0  0  0  0  0  0  0  0  0  0  0
    1.8706   -5.0378   -2.8499 C   0  0  0  0  0  0  0  0  0  0  0  0
    2.8530   -6.0065   -2.6219 C   0  0  0  0  0  0  0  0  0  0  0  0
    3.8032   -5.8237   -1.6356 C   0  0  0  0  0  0  0  0  0  0  0  0
    3.7809   -4.6636   -0.8624 C   0  0  0  0  0  0  0  0  0  0  0  0
    4.7718   -4.4288    0.1956 C   0  0  0  0  0  0  0  0  0  0  0  0
    5.6372   -5.2570    0.4146 O   0  0  0  0  0  0  0  0  0  0  0  0
    4.7227   -3.2976    0.9234 N   0  0  0  0  0  0  0  0  0  0  0  0
    3.7634   -2.3262    0.7096 C   0  0  0  0  0  0  0  0  0  0  0  0
    3.7735   -1.1160    1.5365 C   0  0  0  0  0  0  0  0  0  0  0  0
    2.9751   -0.2246    1.3195 O   0  0  0  0  0  0  0  0  0  0  0  0
    4.6684   -0.9910    2.5383 O   0  0  0  0  0  0  0  0  0  0  0  0
    4.5541    0.1656    3.3698 C   0  0  0  0  0  0  0  0  0  0  0  0
    5.6775   -3.0962    1.9258 C   0  0  0  0  0  0  0  0  0  0  0  0
    6.9247   -2.5757    1.6046 C   0  0  0  0  0  0  0  0  0  0  0  0
    7.8631   -2.3732    2.5974 C   0  0  0  0  0  0  0  0  0  0  0  0
    7.5662   -2.6983    3.9084 C   0  0  0  0  0  0  0  0  0  0  0  0
    6.3275   -3.2220    4.2306 C   0  0  0  0  0  0  0  0  0  0  0  0
    5.3825   -3.4216    3.2436 C   0  0  0  0  0  0  0  0  0  0  0  0
    2.8731   -7.1369   -3.3761 O   0  0  0  0  0  0  0  0  0  0  0  0
    3.9021   -8.0873   -3.0934 C   0  0  0  0  0  0  0  0  0  0  0  0
    0.9439   -5.2333   -3.8235 O   0  0  0  0  0  0  0  0  0  0  0  0
   -0.0321   -4.2056   -4.0061 C   0  0  0  0  0  0  0  0  0  0  0  0
    3.5232    2.1084   -0.8496 H   0  0  0  0  0  0  0  0  0  0  0  0
    3.3154    1.5796   -2.5365 H   0  0  0  0  0  0  0  0  0  0  0  0
    3.1275    3.2982   -2.1130 H   0  0  0  0  0  0  0  0  0  0  0  0
    3.1973    0.0597   -1.1067 H   0  0  0  0  0  0  0  0  0  0  0  0
    0.1279   -2.6708    0.1280 H   0  0  0  0  0  0  0  0  0  0  0  0
   -0.9050    1.8071   -3.0681 H   0  0  0  0  0  0  0  0  0  0  0  0
   -2.1782    0.6752   -2.5523 H   0  0  0  0  0  0  0  0  0  0  0  0
   -2.4019    2.4271   -2.3311 H   0  0  0  0  0  0  0  0  0  0  0  0
   -1.8484   -3.0141   -0.4595 H   0  0  0  0  0  0  0  0  0  0  0  0
   -1.6402   -2.4849    1.2272 H   0  0  0  0  0  0  0  0  0  0  0  0
   -3.2349   -2.3617    0.4462 H   0  0  0  0  0  0  0  0  0  0  0  0
    1.0757   -3.1368   -2.2720 H   0  0  0  0  0  0  0  0  0  0  0  0
    4.5591   -6.5757   -1.4642 H   0  0  0  0  0  0  0  0  0  0  0  0
    5.2751    0.1000    4.1846 H   0  0  0  0  0  0  0  0  0  0  0  0
    4.7543    1.0592    2.7786 H   0  0  0  0  0  0  0  0  0  0  0  0
    3.5458    0.2198    3.7802 H   0  0  0  0  0  0  0  0  0  0  0  0
    7.1588   -2.3258    0.5804 H   0  0  0  0  0  0  0  0  0  0  0  0
    8.8315   -1.9648    2.3490 H   0  0  0  0  0  0  0  0  0  0  0  0
    8.3032   -2.5425    4.6823 H   0  0  0  0  0  0  0  0  0  0  0  0
    6.0988   -3.4748    5.2554 H   0  0  0  0  0  0  0  0  0  0  0  0
    4.4151   -3.8300    3.4960 H   0  0  0  0  0  0  0  0  0  0  0  0
    3.8037   -8.9400   -3.7651 H   0  0  0  0  0  0  0  0  0  0  0  0
    4.8768   -7.6213   -3.2381 H   0  0  0  0  0  0  0  0  0  0  0  0
    3.8107   -8.4254   -2.0612 H   0  0  0  0  0  0  0  0  0  0  0  0
   -0.7095   -4.4868   -4.8124 H   0  0  0  0  0  0  0  0  0  0  0  0
   -0.5989   -4.0750   -3.0842 H   0  0  0  0  0  0  0  0  0  0  0  0
    0.4677   -3.2710   -4.2608 H   0  0  0  0  0  0  0  0  0  0  0  0
  1  2  1  0  0  0  0
  1 38  1  0  0  0  0
  1 39  1  0  0  0  0
  1 40  1  0  0  0  0
  2  3  1  0  0  0  0
  3  8  2  0  0  0  0
  3  4  1  0  0  0  0
  4  5  2  0  0  0  0
  4 41  1  0  0  0  0
  5  6  1  0  0  0  0
  5 13  1  0  0  0  0
  6  7  2  0  0  0  0
  6 42  1  0  0  0  0
  7  8  1  0  0  0  0
  7 11  1  0  0  0  0
  8  9  1  0  0  0  0
  9 10  1  0  0  0  0
 10 43  1  0  0  0  0
 10 44  1  0  0  0  0
 10 45  1  0  0  0  0
 11 12  1  0  0  0  0
 12 46  1  0  0  0  0
 12 47  1  0  0  0  0
 12 48  1  0  0  0  0
 13 23  2  0  0  0  0
 13 14  1  0  0  0  0
 14 19  2  0  0  0  0
 14 15  1  0  0  0  0
 15 16  2  0  0  0  0
 15 49  1  0  0  0  0
 16 17  1  0  0  0  0
 16 36  1  0  0  0  0
 17 18  2  0  0  0  0
 17 34  1  0  0  0  0
 18 19  1  0  0  0  0
 18 50  1  0  0  0  0
 19 20  1  0  0  0  0
 20 21  2  0  0  0  0
 20 22  1  0  0  0  0
 22 23  1  0  0  0  0
 22 28  1  0  0  0  0
 23 24  1  0  0  0  0
 24 25  2  0  0  0  0
 24 26  1  0  0  0  0
 26 27  1  0  0  0  0
 27 51  1  0  0  0  0
 27 52  1  0  0  0  0
 27 53  1  0  0  0  0
 28 33  2  0  0  0  0
 28 29  1  0  0  0  0
 29 30  2  0  0  0  0
 29 54  1  0  0  0  0
 30 31  1  0  0  0  0
 30 55  1  0  0  0  0
 31 32  2  0  0  0  0
 31 56  1  0  0  0  0
 32 33  1  0  0  0  0
 32 57  1  0  0  0  0
 33 58  1  0  0  0  0
 34 35  1  0  0  0  0
 35 59  1  0  0  0  0
 35 60  1  0  0  0  0
 35 61  1  0  0  0  0
 36 37  1  0  0  0  0
 37 62  1  0  0  0  0
 37 63  1  0  0  0  0
 37 64  1  0  0  0  0
M  END
$$$$
ZINC04199935
  -OEChem-08230709403D

 68 72  0     0  0  0  0  0  0999 V2000
   -8.1937    8.3672    5.6050 C   0  0  0  0  0  0  0  0  0  0  0  0
   -9.1261    7.4613    5.0117 O   0  0  0  0  0  0  0  0  0  0  0  0
   -8.9851    7.2132    3.6820 C   0  0  0  0  0  0  0  0  0  0  0  0
   -7.9699    7.8247    2.9688 C   0  0  0  0  0  0  0  0  0  0  0  0
   -7.8290    7.5736    1.6024 C   0  0  0  0  0  0  0  0  0  0  0  0
   -8.7078    6.6975    0.9615 C   0  0  0  0  0  0  0  0  0  0  0  0
   -9.7182    6.0850    1.6800 C   0  0  0  0  0  0  0  0  0  0  0  0
   -9.8595    6.3406    3.0411 C   0  0  0  0  0  0  0  0  0  0  0  0
  -10.8539    5.7370    3.7454 O   0  0  0  0  0  0  0  0  0  0  0  0
  -10.5508    4.4758    4.3450 C   0  0  0  0  0  0  0  0  0  0  0  0
  -10.5742    5.2318    1.0565 O   0  0  0  0  0  0  0  0  0  0  0  0
   -6.7481    8.2292    0.8371 C   0  0  0  0  0  0  0  0  0  0  0  0
   -5.6645    7.4313    0.2452 C   0  0  0  0  0  0  0  0  0  0  0  0
   -5.6183    6.0445    0.3841 C   0  0  0  0  0  0  0  0  0  0  0  0
   -4.5844    5.3363   -0.1865 C   0  0  0  0  0  0  0  0  0  0  0  0
   -3.5851    5.9929   -0.9013 C   0  0  0  0  0  0  0  0  0  0  0  0
   -3.6112    7.3698   -1.0451 C   0  0  0  0  0  0  0  0  0  0  0  0
   -4.6524    8.1005   -0.4787 C   0  0  0  0  0  0  0  0  0  0  0  0
   -4.7252    9.5631   -0.6093 C   0  0  0  0  0  0  0  0  0  0  0  0
   -3.8653   10.1634   -1.2277 O   0  0  0  0  0  0  0  0  0  0  0  0
   -5.7437   10.2377   -0.0438 N   0  0  0  0  0  0  0  0  0  0  0  0
   -6.7419    9.6014    0.6678 C   0  0  0  0  0  0  0  0  0  0  0  0
   -7.8209   10.3999    1.2567 C   0  0  0  0  0  0  0  0  0  0  0  0
   -8.7668    9.8479    1.7855 O   0  0  0  0  0  0  0  0  0  0  0  0
   -7.7648   11.7471    1.2120 O   0  0  0  0  0  0  0  0  0  0  0  0
   -8.7908   12.4625    1.9032 C   0  0  0  0  0  0  0  0  0  0  0  0
   -5.7925   11.6304   -0.1813 C   0  0  0  0  0  0  0  0  0  0  0  0
   -5.1800   12.4434    0.7640 C   0  0  0  0  0  0  0  0  0  0  0  0
   -5.2239   13.8160    0.6260 C   0  0  0  0  0  0  0  0  0  0  0  0
   -5.8897   14.3848   -0.4525 C   0  0  0  0  0  0  0  0  0  0  0  0
   -6.5067   13.5717   -1.3950 C   0  0  0  0  0  0  0  0  0  0  0  0
   -6.4582   12.1990   -1.2597 C   0  0  0  0  0  0  0  0  0  0  0  0
   -5.9391   15.7753   -0.5892 N   0  0  0  0  0  0  0  0  0  0  0  0
   -2.5736    5.2769   -1.4573 O   0  0  0  0  0  0  0  0  0  0  0  0
   -2.6010    3.8607   -1.2681 C   0  0  0  0  0  0  0  0  0  0  0  0
   -1.4092    3.2397   -1.9501 C   0  0  0  0  0  0  0  0  0  0  0  0
   -0.5087    4.0462   -2.6204 C   0  0  0  0  0  0  0  0  0  0  0  0
    0.5845    3.4650   -3.2441 C   0  0  0  0  0  0  0  0  0  0  0  0
    0.7317    2.0882   -3.1700 C   0  0  0  0  0  0  0  0  0  0  0  0
   -0.2095    1.3464   -2.4819 C   0  0  0  0  0  0  0  0  0  0  0  0
   -1.2403    1.9328   -1.9049 N   0  0  0  0  0  0  0  0  0  0  0  0
   -7.1826    7.9782    5.4852 H   0  0  0  0  0  0  0  0  0  0  0  0
   -8.2697    9.3385    5.1162 H   0  0  0  0  0  0  0  0  0  0  0  0
   -8.4178    8.4760    6.6662 H   0  0  0  0  0  0  0  0  0  0  0  0
   -7.2889    8.4983    3.4676 H   0  0  0  0  0  0  0  0  0  0  0  0
   -8.5986    6.4988   -0.0944 H   0  0  0  0  0  0  0  0  0  0  0  0
   -9.7259    4.5962    5.0473 H   0  0  0  0  0  0  0  0  0  0  0  0
  -11.4282    4.1054    4.8752 H   0  0  0  0  0  0  0  0  0  0  0  0
  -10.2671    3.7638    3.5699 H   0  0  0  0  0  0  0  0  0  0  0  0
  -10.2823    4.3099    1.0593 H   0  0  0  0  0  0  0  0  0  0  0  0
   -6.3894    5.5285    0.9368 H   0  0  0  0  0  0  0  0  0  0  0  0
   -4.5481    4.2622   -0.0793 H   0  0  0  0  0  0  0  0  0  0  0  0
   -2.8309    7.8735   -1.5964 H   0  0  0  0  0  0  0  0  0  0  0  0
   -8.5796   13.5310    1.8620 H   0  0  0  0  0  0  0  0  0  0  0  0
   -9.7531   12.2639    1.4314 H   0  0  0  0  0  0  0  0  0  0  0  0
   -8.8222   12.1381    2.9433 H   0  0  0  0  0  0  0  0  0  0  0  0
   -4.6662   12.0014    1.6049 H   0  0  0  0  0  0  0  0  0  0  0  0
   -4.7439   14.4480    1.3586 H   0  0  0  0  0  0  0  0  0  0  0  0
   -7.0246   14.0138   -2.2333 H   0  0  0  0  0  0  0  0  0  0  0  0
   -6.9382   11.5670   -1.9922 H   0  0  0  0  0  0  0  0  0  0  0  0
   -6.4043   16.1724   -1.3421 H   0  0  0  0  0  0  0  0  0  0  0  0
   -5.5083   16.3429    0.0689 H   0  0  0  0  0  0  0  0  0  0  0  0
   -3.5173    3.4545   -1.6965 H   0  0  0  0  0  0  0  0  0  0  0  0
   -2.5675    3.6359   -0.2021 H   0  0  0  0  0  0  0  0  0  0  0  0
   -0.6551    5.1156   -2.6580 H   0  0  0  0  0  0  0  0  0  0  0  0
    1.3042    4.0702   -3.7753 H   0  0  0  0  0  0  0  0  0  0  0  0
    1.5711    1.6016   -3.6444 H   0  0  0  0  0  0  0  0  0  0  0  0
   -0.1021    0.2736   -2.4195 H   0  0  0  0  0  0  0  0  0  0  0  0
  1  2  1  0  0  0  0
  1 42  1  0  0  0  0
  1 43  1  0  0  0  0
  1 44  1  0  0  0  0
  2  3  1  0  0  0  0
  3  8  2  0  0  0  0
  3  4  1  0  0  0  0
  4  5  2  0  0  0  0
  4 45  1  0  0  0  0
  5  6  1  0  0  0  0
  5 12  1  0  0  0  0
  6  7  2  0  0  0  0
  6 46  1  0  0  0  0
  7  8  1  0  0  0  0
  7 11  1  0  0  0  0
  8  9  1  0  0  0  0
  9 10  1  0  0  0  0
 10 47  1  0  0  0  0
 10 48  1  0  0  0  0
 10 49  1  0  0  0  0
 11 50  1  0  0  0  0
 12 22  2  0  0  0  0
 12 13  1  0  0  0  0
 13 18  2  0  0  0  0
 13 14  1  0  0  0  0
 14 15  2  0  0  0  0
 14 51  1  0  0  0  0
 15 16  1  0  0  0  0
 15 52  1  0  0  0  0
 16 17  2  0  0  0  0
 16 34  1  0  0  0  0
 17 18  1  0  0  0  0
 17 53  1  0  0  0  0
 18 19  1  0  0  0  0
 19 20  2  0  0  0  0
 19 21  1  0  0  0  0
 21 22  1  0  0  0  0
 21 27  1  0  0  0  0
 22 23  1  0  0  0  0
 23 24  2  0  0  0  0
 23 25  1  0  0  0  0
 25 26  1  0  0  0  0
 26 54  1  0  0  0  0
 26 55  1  0  0  0  0
 26 56  1  0  0  0  0
 27 32  2  0  0  0  0
 27 28  1  0  0  0  0
 28 29  2  0  0  0  0
 28 57  1  0  0  0  0
 29 30  1  0  0  0  0
 29 58  1  0  0  0  0
 30 31  2  0  0  0  0
 30 33  1  0  0  0  0
 31 32  1  0  0  0  0
 31 59  1  0  0  0  0
 32 60  1  0  0  0  0
 33 61  1  0  0  0  0
 33 62  1  0  0  0  0
 34 35  1  0  0  0  0
 35 36  1  0  0  0  0
 35 63  1  0  0  0  0
 35 64  1  0  0  0  0
 36 41  2  0  0  0  0
 36 37  1  0  0  0  0
 37 38  2  0  0  0  0
 37 65  1  0  0  0  0
 38 39  1  0  0  0  0
 38 66  1  0  0  0  0
 39 40  2  0  0  0  0
 39 67  1  0  0  0  0
 40 41  1  0  0  0  0
 40 68  1  0  0  0  0
M  END
$$$$
ZINC04199936
  -OEChem-08230709403D

 73 77  0     0  0  0  0  0  0999 V2000
   -8.8124    7.9410    4.3779 C   0  0  0  0  0  0  0  0  0  0  0  0
   -7.9421    7.0579    3.5213 C   0  0  0  0  0  0  0  0  0  0  0  0
   -7.6338    7.4472    2.2313 C   0  0  0  0  0  0  0  0  0  0  0  0
   -6.8325    6.6275    1.4517 C   0  0  0  0  0  0  0  0  0  0  0  0
   -6.3735    5.4391    1.9993 C   0  0  0  0  0  0  0  0  0  0  0  0
   -6.7187    5.1187    3.2984 C   0  0  0  0  0  0  0  0  0  0  0  0
   -7.4833    5.9230    4.0112 N   0  0  0  0  0  0  0  0  0  0  0  0
   -6.4739    7.0158    0.0404 C   0  0  0  0  0  0  0  0  0  0  0  0
   -5.1734    7.6902    0.0349 N   0  0  0  0  0  0  0  0  0  0  0  0
   -5.1382    9.0670    0.0919 C   0  0  0  0  0  0  0  0  0  0  0  0
   -3.9435    9.7614    0.0901 C   0  0  0  0  0  0  0  0  0  0  0  0
   -2.6849    9.0066    0.0256 C   0  0  0  0  0  0  0  0  0  0  0  0
   -1.4350    9.6251    0.0191 C   0  0  0  0  0  0  0  0  0  0  0  0
   -0.3066    8.8329   -0.0440 C   0  0  0  0  0  0  0  0  0  0  0  0
   -0.3882    7.5148   -0.0932 N   0  0  0  0  0  0  0  0  0  0  0  0
   -1.5452    6.8731   -0.0952 C   0  0  0  0  0  0  0  0  0  0  0  0
   -2.7425    7.5957   -0.0327 C   0  0  0  0  0  0  0  0  0  0  0  0
   -4.0544    6.9430   -0.0260 C   0  0  0  0  0  0  0  0  0  0  0  0
   -4.1327    5.7289   -0.0759 O   0  0  0  0  0  0  0  0  0  0  0  0
   -1.5711    5.5202   -0.1519 O   0  0  0  0  0  0  0  0  0  0  0  0
   -0.3109    4.8493   -0.2139 C   0  0  0  0  0  0  0  0  0  0  0  0
   -0.5367    3.3604   -0.2711 C   0  0  0  0  0  0  0  0  0  0  0  0
   -1.8267    2.8641   -0.2575 C   0  0  0  0  0  0  0  0  0  0  0  0
   -2.0236    1.4931   -0.3158 C   0  0  0  0  0  0  0  0  0  0  0  0
   -0.9104    0.6683   -0.3750 C   0  0  0  0  0  0  0  0  0  0  0  0
    0.3490    1.2368   -0.3843 C   0  0  0  0  0  0  0  0  0  0  0  0
    0.4986    2.5462   -0.3331 N   0  0  0  0  0  0  0  0  0  0  0  0
   -3.9322   11.2378    0.1524 C   0  0  0  0  0  0  0  0  0  0  0  0
   -4.4610   11.9864   -0.9014 C   0  0  0  0  0  0  0  0  0  0  0  0
   -4.4540   13.3680   -0.8383 C   0  0  0  0  0  0  0  0  0  0  0  0
   -3.9101   14.0125    0.2690 C   0  0  0  0  0  0  0  0  0  0  0  0
   -3.3777   13.2687    1.3182 C   0  0  0  0  0  0  0  0  0  0  0  0
   -3.3875   11.8869    1.2625 C   0  0  0  0  0  0  0  0  0  0  0  0
   -2.8471   13.9014    2.3987 O   0  0  0  0  0  0  0  0  0  0  0  0
   -2.3178   13.0763    3.4385 C   0  0  0  0  0  0  0  0  0  0  0  0
   -3.8993   15.3711    0.3261 O   0  0  0  0  0  0  0  0  0  0  0  0
   -2.7546   16.0341   -0.2144 C   0  0  0  0  0  0  0  0  0  0  0  0
   -4.9738   14.0975   -1.8616 O   0  0  0  0  0  0  0  0  0  0  0  0
   -5.5154   13.3710   -2.9666 C   0  0  0  0  0  0  0  0  0  0  0  0
   -6.4017    9.8143    0.1567 C   0  0  0  0  0  0  0  0  0  0  0  0
   -6.3930   11.0287    0.1028 O   0  0  0  0  0  0  0  0  0  0  0  0
   -7.5710    9.1528    0.2760 O   0  0  0  0  0  0  0  0  0  0  0  0
   -8.7795    9.9556    0.3341 C   0  0  0  0  0  0  0  0  0  0  0  0
   -9.8580    7.6667    4.2376 H   0  0  0  0  0  0  0  0  0  0  0  0
   -8.5405    7.8127    5.4256 H   0  0  0  0  0  0  0  0  0  0  0  0
   -8.6682    8.9824    4.0900 H   0  0  0  0  0  0  0  0  0  0  0  0
   -8.0121    8.3783    1.8359 H   0  0  0  0  0  0  0  0  0  0  0  0
   -5.7505    4.7743    1.4193 H   0  0  0  0  0  0  0  0  0  0  0  0
   -6.3619    4.1969    3.7336 H   0  0  0  0  0  0  0  0  0  0  0  0
   -7.2341    7.6893   -0.3555 H   0  0  0  0  0  0  0  0  0  0  0  0
   -6.4220    6.1214   -0.5805 H   0  0  0  0  0  0  0  0  0  0  0  0
   -1.3518   10.7010    0.0629 H   0  0  0  0  0  0  0  0  0  0  0  0
    0.6666    9.3013   -0.0493 H   0  0  0  0  0  0  0  0  0  0  0  0
    0.2750    5.0941    0.6721 H   0  0  0  0  0  0  0  0  0  0  0  0
    0.2279    5.1696   -1.1057 H   0  0  0  0  0  0  0  0  0  0  0  0
   -2.6707    3.5361   -0.2069 H   0  0  0  0  0  0  0  0  0  0  0  0
   -3.0203    1.0770   -0.3113 H   0  0  0  0  0  0  0  0  0  0  0  0
   -1.0264   -0.4046   -0.4179 H   0  0  0  0  0  0  0  0  0  0  0  0
    1.2210    0.6016   -0.4345 H   0  0  0  0  0  0  0  0  0  0  0  0
   -4.8790   11.4868   -1.7628 H   0  0  0  0  0  0  0  0  0  0  0  0
   -2.9747   11.3103    2.0770 H   0  0  0  0  0  0  0  0  0  0  0  0
   -1.9272   13.7054    4.2383 H   0  0  0  0  0  0  0  0  0  0  0  0
   -3.1077   12.4366    3.8323 H   0  0  0  0  0  0  0  0  0  0  0  0
   -1.5150   12.4574    3.0380 H   0  0  0  0  0  0  0  0  0  0  0  0
   -2.6553   15.7845   -1.2708 H   0  0  0  0  0  0  0  0  0  0  0  0
   -2.8738   17.1120   -0.1053 H   0  0  0  0  0  0  0  0  0  0  0  0
   -1.8615   15.7113    0.3207 H   0  0  0  0  0  0  0  0  0  0  0  0
   -5.8955   14.0712   -3.7105 H   0  0  0  0  0  0  0  0  0  0  0  0
   -4.7355   12.7542   -3.4132 H   0  0  0  0  0  0  0  0  0  0  0  0
   -6.3283   12.7335   -2.6189 H   0  0  0  0  0  0  0  0  0  0  0  0
   -8.7314   10.6230    1.1946 H   0  0  0  0  0  0  0  0  0  0  0  0
   -8.8683   10.5452   -0.5784 H   0  0  0  0  0  0  0  0  0  0  0  0
   -9.6461    9.3014    0.4297 H   0  0  0  0  0  0  0  0  0  0  0  0
  1  2  1  0  0  0  0
  1 44  1  0  0  0  0
  1 45  1  0  0  0  0
  1 46  1  0  0  0  0
  2  7  2  0  0  0  0
  2  3  1  0  0  0  0
  3  4  2  0  0  0  0
  3 47  1  0  0  0  0
  4  5  1  0  0  0  0
  4  8  1  0  0  0  0
  5  6  2  0  0  0  0
  5 48  1  0  0  0  0
  6  7  1  0  0  0  0
  6 49  1  0  0  0  0
  8  9  1  0  0  0  0
  8 50  1  0  0  0  0
  8 51  1  0  0  0  0
  9 18  1  0  0  0  0
  9 10  1  0  0  0  0
 10 11  2  0  0  0  0
 10 40  1  0  0  0  0
 11 12  1  0  0  0  0
 11 28  1  0  0  0  0
 12 17  2  0  0  0  0
 12 13  1  0  0  0  0
 13 14  2  0  0  0  0
 13 52  1  0  0  0  0
 14 15  1  0  0  0  0
 14 53  1  0  0  0  0
 15 16  2  0  0  0  0
 16 17  1  0  0  0  0
 16 20  1  0  0  0  0
 17 18  1  0  0  0  0
 18 19  2  0  0  0  0
 20 21  1  0  0  0  0
 21 22  1  0  0  0  0
 21 54  1  0  0  0  0
 21 55  1  0  0  0  0
 22 27  2  0  0  0  0
 22 23  1  0  0  0  0
 23 24  2  0  0  0  0
 23 56  1  0  0  0  0
 24 25  1  0  0  0  0
 24 57  1  0  0  0  0
 25 26  2  0  0  0  0
 25 58  1  0  0  0  0
 26 27  1  0  0  0  0
 26 59  1  0  0  0  0
 28 33  2  0  0  0  0
 28 29  1  0  0  0  0
 29 30  2  0  0  0  0
 29 60  1  0  0  0  0
 30 31  1  0  0  0  0
 30 38  1  0  0  0  0
 31 32  2  0  0  0  0
 31 36  1  0  0  0  0
 32 33  1  0  0  0  0
 32 34  1  0  0  0  0
 33 61  1  0  0  0  0
 34 35  1  0  0  0  0
 35 62  1  0  0  0  0
 35 63  1  0  0  0  0
 35 64  1  0  0  0  0
 36 37  1  0  0  0  0
 37 65  1  0  0  0  0
 37 66  1  0  0  0  0
 37 67  1  0  0  0  0
 38 39  1  0  0  0  0
 39 68  1  0  0  0  0
 39 69  1  0  0  0  0
 39 70  1  0  0  0  0
 40 41  2  0  0  0  0
 40 42  1  0  0  0  0
 42 43  1  0  0  0  0
 43 71  1  0  0  0  0
 43 72  1  0  0  0  0
 43 73  1  0  0  0  0
M  END
$$$$
ZINC04199937
  -OEChem-08230709403D

 74 77  0     0  0  0  0  0  0999 V2000
    7.0151    5.3635   -0.2750 C   0  0  0  0  0  0  0  0  0  0  0  0
    6.4570    5.1053    1.0149 O   0  0  0  0  0  0  0  0  0  0  0  0
    5.2748    4.4367    1.0530 C   0  0  0  0  0  0  0  0  0  0  0  0
    4.6813    4.0475   -0.1132 C   0  0  0  0  0  0  0  0  0  0  0  0
    3.4582    3.3553   -0.0826 C   0  0  0  0  0  0  0  0  0  0  0  0
    2.8430    2.9527   -1.2817 C   0  0  0  0  0  0  0  0  0  0  0  0
    1.6416    2.2727   -1.2540 C   0  0  0  0  0  0  0  0  0  0  0  0
    1.0047    1.9691    0.0272 C   0  0  0  0  0  0  0  0  0  0  0  0
    1.6166    2.3755    1.2144 C   0  0  0  0  0  0  0  0  0  0  0  0
    2.8513    3.0676    1.1652 C   0  0  0  0  0  0  0  0  0  0  0  0
    3.4803    3.4773    2.3502 C   0  0  0  0  0  0  0  0  0  0  0  0
    4.6775    4.1534    2.2899 C   0  0  0  0  0  0  0  0  0  0  0  0
    5.2858    4.5502    3.4382 O   0  0  0  0  0  0  0  0  0  0  0  0
    4.6264    4.2313    4.6652 C   0  0  0  0  0  0  0  0  0  0  0  0
    0.9819    2.0804    2.5160 C   0  0  0  0  0  0  0  0  0  0  0  0
   -0.2425    2.6661    2.8462 C   0  0  0  0  0  0  0  0  0  0  0  0
   -0.8349    2.3836    4.0625 C   0  0  0  0  0  0  0  0  0  0  0  0
   -0.2059    1.5245    4.9612 C   0  0  0  0  0  0  0  0  0  0  0  0
    1.0135    0.9463    4.6356 C   0  0  0  0  0  0  0  0  0  0  0  0
    1.6075    1.2203    3.4204 C   0  0  0  0  0  0  0  0  0  0  0  0
    1.7924   -0.1238    5.7590 Cl  0  0  0  0  0  0  0  0  0  0  0  0
   -0.7876    1.2515    6.1589 O   0  0  0  0  0  0  0  0  0  0  0  0
   -0.4569    2.1110    7.2516 C   0  0  0  0  0  0  0  0  0  0  0  0
   -2.0296    2.9481    4.3842 O   0  0  0  0  0  0  0  0  0  0  0  0
   -2.6176    3.8188    3.4156 C   0  0  0  0  0  0  0  0  0  0  0  0
   -0.2758    1.2454    0.0644 C   0  0  0  0  0  0  0  0  0  0  0  0
   -0.2863    0.0313    0.1206 O   0  0  0  0  0  0  0  0  0  0  0  0
   -1.4375    1.9287    0.0306 O   0  0  0  0  0  0  0  0  0  0  0  0
   -2.6620    1.1491    0.0643 C   0  0  0  0  0  0  0  0  0  0  0  0
    1.0007    1.8522   -2.5162 C   0  0  0  0  0  0  0  0  0  0  0  0
   -0.1764    2.0877   -2.7082 O   0  0  0  0  0  0  0  0  0  0  0  0
    1.7209    1.2074   -3.4553 N   0  0  0  0  0  0  0  0  0  0  0  0
    3.1152    0.8151   -3.2002 C   0  0  0  0  0  0  0  0  0  0  0  0
    3.2665   -0.6760   -3.5405 C   0  0  0  0  0  0  0  0  0  0  0  0
    1.3662   -0.6060   -5.0457 C   0  0  0  0  0  0  0  0  0  0  0  0
    1.1351    0.8826   -4.7648 C   0  0  0  0  0  0  0  0  0  0  0  0
    3.0855   -2.2852   -5.3407 C   0  0  0  0  0  0  0  0  0  0  0  0
    3.0642   -2.3591   -6.8687 C   0  0  0  0  0  0  0  0  0  0  0  0
    4.1084   -1.5406   -7.3997 O   0  0  0  0  0  0  0  0  0  0  0  0
    7.1961    4.4190   -0.7882 H   0  0  0  0  0  0  0  0  0  0  0  0
    6.3188    5.9662   -0.8581 H   0  0  0  0  0  0  0  0  0  0  0  0
    7.9560    5.9021   -0.1626 H   0  0  0  0  0  0  0  0  0  0  0  0
    5.1514    4.2716   -1.0593 H   0  0  0  0  0  0  0  0  0  0  0  0
    3.3126    3.1761   -2.2282 H   0  0  0  0  0  0  0  0  0  0  0  0
    3.0265    3.2632    3.3065 H   0  0  0  0  0  0  0  0  0  0  0  0
    3.6409    4.6968    4.6798 H   0  0  0  0  0  0  0  0  0  0  0  0
    4.5187    3.1499    4.7494 H   0  0  0  0  0  0  0  0  0  0  0  0
    5.2166    4.6038    5.5024 H   0  0  0  0  0  0  0  0  0  0  0  0
   -0.7272    3.3354    2.1509 H   0  0  0  0  0  0  0  0  0  0  0  0
    2.5560    0.7692    3.1690 H   0  0  0  0  0  0  0  0  0  0  0  0
    0.6174    2.0722    7.4322 H   0  0  0  0  0  0  0  0  0  0  0  0
   -0.7481    3.1334    7.0108 H   0  0  0  0  0  0  0  0  0  0  0  0
   -0.9876    1.7830    8.1454 H   0  0  0  0  0  0  0  0  0  0  0  0
   -1.9432    4.6524    3.2195 H   0  0  0  0  0  0  0  0  0  0  0  0
   -2.7931    3.2684    2.4913 H   0  0  0  0  0  0  0  0  0  0  0  0
   -3.5649    4.1999    3.7971 H   0  0  0  0  0  0  0  0  0  0  0  0
   -3.5207    1.8197    0.0316 H   0  0  0  0  0  0  0  0  0  0  0  0
   -2.6906    0.4800   -0.7957 H   0  0  0  0  0  0  0  0  0  0  0  0
   -2.6940    0.5623    0.9823 H   0  0  0  0  0  0  0  0  0  0  0  0
    3.7825    1.4064   -3.8272 H   0  0  0  0  0  0  0  0  0  0  0  0
    3.3551    0.9784   -2.1495 H   0  0  0  0  0  0  0  0  0  0  0  0
    2.6736   -1.2723   -2.8469 H   0  0  0  0  0  0  0  0  0  0  0  0
    4.3154   -0.9618   -3.4611 H   0  0  0  0  0  0  0  0  0  0  0  0
    0.7997   -1.2032   -4.3311 H   0  0  0  0  0  0  0  0  0  0  0  0
    1.0366   -0.8406   -6.0578 H   0  0  0  0  0  0  0  0  0  0  0  0
    0.0652    1.0905   -4.7491 H   0  0  0  0  0  0  0  0  0  0  0  0
    1.6134    1.4828   -5.5389 H   0  0  0  0  0  0  0  0  0  0  0  0
    4.0694   -2.5804   -4.9763 H   0  0  0  0  0  0  0  0  0  0  0  0
    2.3305   -2.9580   -4.9339 H   0  0  0  0  0  0  0  0  0  0  0  0
    3.2153   -3.3912   -7.1847 H   0  0  0  0  0  0  0  0  0  0  0  0
    2.1015   -2.0038   -7.2363 H   0  0  0  0  0  0  0  0  0  0  0  0
    4.1545   -1.5395   -8.3656 H   0  0  0  0  0  0  0  0  0  0  0  0
    2.8130   -0.8917   -4.9318 N   0  3  0  0  0  0  0  0  0  0  0  0
    3.3276   -0.2555   -5.5520 H   0  0  0  0  0  0  0  0  0  0  0  0
  1  2  1  0  0  0  0
  1 40  1  0  0  0  0
  1 41  1  0  0  0  0
  1 42  1  0  0  0  0
  2  3  1  0  0  0  0
  3 12  2  0  0  0  0
  3  4  1  0  0  0  0
  4  5  2  0  0  0  0
  4 43  1  0  0  0  0
  5 10  1  0  0  0  0
  5  6  1  0  0  0  0
  6  7  2  0  0  0  0
  6 44  1  0  0  0  0
  7  8  1  0  0  0  0
  7 30  1  0  0  0  0
  8  9  2  0  0  0  0
  8 26  1  0  0  0  0
  9 10  1  0  0  0  0
  9 15  1  0  0  0  0
 10 11  2  0  0  0  0
 11 12  1  0  0  0  0
 11 45  1  0  0  0  0
 12 13  1  0  0  0  0
 13 14  1  0  0  0  0
 14 46  1  0  0  0  0
 14 47  1  0  0  0  0
 14 48  1  0  0  0  0
 15 20  2  0  0  0  0
 15 16  1  0  0  0  0
 16 17  2  0  0  0  0
 16 49  1  0  0  0  0
 17 18  1  0  0  0  0
 17 24  1  0  0  0  0
 18 19  2  0  0  0  0
 18 22  1  0  0  0  0
 19 20  1  0  0  0  0
 19 21  1  0  0  0  0
 20 50  1  0  0  0  0
 22 23  1  0  0  0  0
 23 51  1  0  0  0  0
 23 52  1  0  0  0  0
 23 53  1  0  0  0  0
 24 25  1  0  0  0  0
 25 54  1  0  0  0  0
 25 55  1  0  0  0  0
 25 56  1  0  0  0  0
 26 27  2  0  0  0  0
 26 28  1  0  0  0  0
 28 29  1  0  0  0  0
 29 57  1  0  0  0  0
 29 58  1  0  0  0  0
 29 59  1  0  0  0  0
 30 31  2  0  0  0  0
 30 32  1  0  0  0  0
 32 36  1  0  0  0  0
 32 33  1  0  0  0  0
 33 34  1  0  0  0  0
 33 60  1  0  0  0  0
 33 61  1  0  0  0  0
 34 62  1  0  0  0  0
 34 63  1  0  0  0  0
 34 73  1  0  0  0  0
 35 36  1  0  0  0  0
 35 64  1  0  0  0  0
 35 65  1  0  0  0  0
 35 73  1  0  0  0  0
 36 66  1  0  0  0  0
 36 67  1  0  0  0  0
 37 38  1  0  0  0  0
 37 68  1  0  0  0  0
 37 69  1  0  0  0  0
 37 73  1  0  0  0  0
 38 39  1  0  0  0  0
 38 70  1  0  0  0  0
 38 71  1  0  0  0  0
 39 72  1  0  0  0  0
 73 74  1  0  0  0  0
M  CHG  1  73   1
M  END
$$$$
ZINC04199938
  -OEChem-08230709403D

 72 76  0     0  0  0  0  0  0999 V2000
    5.4274    9.0296    4.0548 C   0  0  0  0  0  0  0  0  0  0  0  0
    4.4352    9.9531    3.3962 C   0  0  0  0  0  0  0  0  0  0  0  0
    4.1064    9.7665    2.0666 C   0  0  0  0  0  0  0  0  0  0  0  0
    3.1926   10.6216    1.4703 C   0  0  0  0  0  0  0  0  0  0  0  0
    2.6451   11.6402    2.2355 C   0  0  0  0  0  0  0  0  0  0  0  0
    3.0177   11.7616    3.5606 C   0  0  0  0  0  0  0  0  0  0  0  0
    3.8904   10.9295    4.0950 N   0  0  0  0  0  0  0  0  0  0  0  0
    2.8081   10.4520    0.0230 C   0  0  0  0  0  0  0  0  0  0  0  0
    1.5667    9.6791   -0.0651 N   0  0  0  0  0  0  0  0  0  0  0  0
    0.3613   10.3495   -0.0423 C   0  0  0  0  0  0  0  0  0  0  0  0
   -0.8422    9.6739   -0.1225 C   0  0  0  0  0  0  0  0  0  0  0  0
   -0.8327    8.2092   -0.2335 C   0  0  0  0  0  0  0  0  0  0  0  0
   -2.0175    7.4682   -0.3174 C   0  0  0  0  0  0  0  0  0  0  0  0
   -1.9205    6.1067   -0.4242 C   0  0  0  0  0  0  0  0  0  0  0  0
   -0.6616    5.5021   -0.4358 C   0  0  0  0  0  0  0  0  0  0  0  0
    0.4456    6.2155   -0.3558 N   0  0  0  0  0  0  0  0  0  0  0  0
    0.4063    7.5385   -0.2559 C   0  0  0  0  0  0  0  0  0  0  0  0
    1.6409    8.3391   -0.1659 C   0  0  0  0  0  0  0  0  0  0  0  0
    2.7264    7.7887   -0.1823 O   0  0  0  0  0  0  0  0  0  0  0  0
   -0.5750    4.1529   -0.5371 O   0  0  0  0  0  0  0  0  0  0  0  0
    0.7368    3.5862   -0.5504 C   0  0  0  0  0  0  0  0  0  0  0  0
    0.6352    2.0872   -0.6674 C   0  0  0  0  0  0  0  0  0  0  0  0
   -0.6069    1.4816   -0.7422 C   0  0  0  0  0  0  0  0  0  0  0  0
   -0.6958    0.1673   -0.8453 N   0  0  0  0  0  0  0  0  0  0  0  0
    0.4013   -0.5688   -0.8769 C   0  0  0  0  0  0  0  0  0  0  0  0
    1.6430    0.0367   -0.8026 C   0  0  0  0  0  0  0  0  0  0  0  0
    1.7320    1.3512   -0.6995 N   0  0  0  0  0  0  0  0  0  0  0  0
   -2.1206   10.4150   -0.0971 C   0  0  0  0  0  0  0  0  0  0  0  0
   -2.4985   11.1184    1.0486 C   0  0  0  0  0  0  0  0  0  0  0  0
   -3.6933   11.8147    1.0684 C   0  0  0  0  0  0  0  0  0  0  0  0
   -4.5232   11.8069   -0.0489 C   0  0  0  0  0  0  0  0  0  0  0  0
   -4.1513   11.1023   -1.1901 C   0  0  0  0  0  0  0  0  0  0  0  0
   -2.9553   10.4084   -1.2166 C   0  0  0  0  0  0  0  0  0  0  0  0
   -4.9648   11.0959   -2.2799 O   0  0  0  0  0  0  0  0  0  0  0  0
   -4.5211   10.3518   -3.4163 C   0  0  0  0  0  0  0  0  0  0  0  0
   -5.6997   12.4885   -0.0253 O   0  0  0  0  0  0  0  0  0  0  0  0
   -6.8520   11.7781    0.4327 C   0  0  0  0  0  0  0  0  0  0  0  0
   -4.0597   12.5038    2.1822 O   0  0  0  0  0  0  0  0  0  0  0  0
   -3.1602   12.4687    3.2920 C   0  0  0  0  0  0  0  0  0  0  0  0
    0.3564   11.8121    0.0691 C   0  0  0  0  0  0  0  0  0  0  0  0
   -0.6953   12.4084    0.1995 O   0  0  0  0  0  0  0  0  0  0  0  0
    1.5187   12.4957    0.0268 O   0  0  0  0  0  0  0  0  0  0  0  0
    1.4394   13.9179    0.1412 C   0  0  0  0  0  0  0  0  0  0  0  0
    6.4331    9.4327    3.9362 H   0  0  0  0  0  0  0  0  0  0  0  0
    5.1937    8.9424    5.1158 H   0  0  0  0  0  0  0  0  0  0  0  0
    5.3729    8.0458    3.5886 H   0  0  0  0  0  0  0  0  0  0  0  0
    4.5555    8.9645    1.4996 H   0  0  0  0  0  0  0  0  0  0  0  0
    1.9332   12.3273    1.8025 H   0  0  0  0  0  0  0  0  0  0  0  0
    2.5928   12.5498    4.1645 H   0  0  0  0  0  0  0  0  0  0  0  0
    3.6027    9.9245   -0.5046 H   0  0  0  0  0  0  0  0  0  0  0  0
    2.6590   11.4319   -0.4305 H   0  0  0  0  0  0  0  0  0  0  0  0
   -2.9805    7.9569   -0.3024 H   0  0  0  0  0  0  0  0  0  0  0  0
   -2.8131    5.5029   -0.4949 H   0  0  0  0  0  0  0  0  0  0  0  0
    1.2535    3.8443    0.3740 H   0  0  0  0  0  0  0  0  0  0  0  0
    1.2941    3.9801   -1.4003 H   0  0  0  0  0  0  0  0  0  0  0  0
   -1.5033    2.0835   -0.7209 H   0  0  0  0  0  0  0  0  0  0  0  0
    0.3285   -1.6430   -0.9611 H   0  0  0  0  0  0  0  0  0  0  0  0
    2.5395   -0.5648   -0.8291 H   0  0  0  0  0  0  0  0  0  0  0  0
   -1.8567   11.1214    1.9172 H   0  0  0  0  0  0  0  0  0  0  0  0
   -2.6673    9.8615   -2.1022 H   0  0  0  0  0  0  0  0  0  0  0  0
   -3.5690   10.7528   -3.7640 H   0  0  0  0  0  0  0  0  0  0  0  0
   -4.3950    9.3053   -3.1388 H   0  0  0  0  0  0  0  0  0  0  0  0
   -5.2608   10.4298   -4.2131 H   0  0  0  0  0  0  0  0  0  0  0  0
   -7.7206   12.4359    0.4014 H   0  0  0  0  0  0  0  0  0  0  0  0
   -7.0262   10.9153   -0.2102 H   0  0  0  0  0  0  0  0  0  0  0  0
   -6.6880   11.4413    1.4564 H   0  0  0  0  0  0  0  0  0  0  0  0
   -3.0244   11.4372    3.6172 H   0  0  0  0  0  0  0  0  0  0  0  0
   -2.1982   12.8851    2.9933 H   0  0  0  0  0  0  0  0  0  0  0  0
   -3.5718   13.0570    4.1121 H   0  0  0  0  0  0  0  0  0  0  0  0
    2.4419   14.3428    0.0922 H   0  0  0  0  0  0  0  0  0  0  0  0
    0.8362   14.3150   -0.6753 H   0  0  0  0  0  0  0  0  0  0  0  0
    0.9795   14.1807    1.0938 H   0  0  0  0  0  0  0  0  0  0  0  0
  1  2  1  0  0  0  0
  1 44  1  0  0  0  0
  1 45  1  0  0  0  0
  1 46  1  0  0  0  0
  2  7  2  0  0  0  0
  2  3  1  0  0  0  0
  3  4  2  0  0  0  0
  3 47  1  0  0  0  0
  4  5  1  0  0  0  0
  4  8  1  0  0  0  0
  5  6  2  0  0  0  0
  5 48  1  0  0  0  0
  6  7  1  0  0  0  0
  6 49  1  0  0  0  0
  8  9  1  0  0  0  0
  8 50  1  0  0  0  0
  8 51  1  0  0  0  0
  9 18  1  0  0  0  0
  9 10  1  0  0  0  0
 10 11  2  0  0  0  0
 10 40  1  0  0  0  0
 11 12  1  0  0  0  0
 11 28  1  0  0  0  0
 12 17  2  0  0  0  0
 12 13  1  0  0  0  0
 13 14  2  0  0  0  0
 13 52  1  0  0  0  0
 14 15  1  0  0  0  0
 14 53  1  0  0  0  0
 15 16  2  0  0  0  0
 15 20  1  0  0  0  0
 16 17  1  0  0  0  0
 17 18  1  0  0  0  0
 18 19  2  0  0  0  0
 20 21  1  0  0  0  0
 21 22  1  0  0  0  0
 21 54  1  0  0  0  0
 21 55  1  0  0  0  0
 22 27  2  0  0  0  0
 22 23  1  0  0  0  0
 23 24  2  0  0  0  0
 23 56  1  0  0  0  0
 24 25  1  0  0  0  0
 25 26  2  0  0  0  0
 25 57  1  0  0  0  0
 26 27  1  0  0  0  0
 26 58  1  0  0  0  0
 28 33  2  0  0  0  0
 28 29  1  0  0  0  0
 29 30  2  0  0  0  0
 29 59  1  0  0  0  0
 30 31  1  0  0  0  0
 30 38  1  0  0  0  0
 31 32  2  0  0  0  0
 31 36  1  0  0  0  0
 32 33  1  0  0  0  0
 32 34  1  0  0  0  0
 33 60  1  0  0  0  0
 34 35  1  0  0  0  0
 35 61  1  0  0  0  0
 35 62  1  0  0  0  0
 35 63  1  0  0  0  0
 36 37  1  0  0  0  0
 37 64  1  0  0  0  0
 37 65  1  0  0  0  0
 37 66  1  0  0  0  0
 38 39  1  0  0  0  0
 39 67  1  0  0  0  0
 39 68  1  0  0  0  0
 39 69  1  0  0  0  0
 40 41  2  0  0  0  0
 40 42  1  0  0  0  0
 42 43  1  0  0  0  0
 43 70  1  0  0  0  0
 43 71  1  0  0  0  0
 43 72  1  0  0  0  0
M  END
$$$$
ZINC04199939
  -OEChem-08230709403D

 47 49  0     0  0  0  0  0  0999 V2000
    1.1150    2.1981   -2.6387 C   0  0  0  0  0  0  0  0  0  0  0  0
   -0.3594    1.8894   -2.6831 C   0  0  0  0  0  0  0  0  0  0  0  0
   -0.8814    1.0598   -1.8140 C   0  0  0  0  0  0  0  0  0  0  0  0
    0.0101    0.3145   -0.8543 C   0  0  0  0  0  0  0  0  0  0  0  0
   -0.4656    0.5467    0.5567 C   0  0  0  0  0  0  0  0  0  0  0  0
    0.0347    1.6115    1.2899 C   0  0  0  0  0  0  0  0  0  0  0  0
   -0.3974    1.8411    2.5916 C   0  0  0  0  0  0  0  0  0  0  0  0
   -1.3279    1.0002    3.1732 C   0  0  0  0  0  0  0  0  0  0  0  0
   -1.8343   -0.0808    2.4400 C   0  0  0  0  0  0  0  0  0  0  0  0
   -1.3990   -0.3081    1.1225 C   0  0  0  0  0  0  0  0  0  0  0  0
   -1.8912   -1.3521    0.4233 O   0  0  0  0  0  0  0  0  0  0  0  0
   -2.7968   -2.2001    0.9401 C   0  0  0  0  0  0  0  0  0  0  0  0
   -3.2827   -2.0679    2.2062 C   0  0  0  0  0  0  0  0  0  0  0  0
   -2.8255   -1.0002    3.0213 C   0  0  0  0  0  0  0  0  0  0  0  0
   -3.2385   -0.8499    4.1602 O   0  0  0  0  0  0  0  0  0  0  0  0
   -4.1994   -2.9525    2.6850 O   0  0  0  0  0  0  0  0  0  0  0  0
   -3.2823   -3.3151    0.1062 C   0  0  0  0  0  0  0  0  0  0  0  0
   -3.3055   -4.6154    0.6187 C   0  0  0  0  0  0  0  0  0  0  0  0
   -3.7648   -5.6531   -0.1621 C   0  0  0  0  0  0  0  0  0  0  0  0
   -4.1943   -5.4106   -1.4611 C   0  0  0  0  0  0  0  0  0  0  0  0
   -4.1677   -4.1205   -1.9767 C   0  0  0  0  0  0  0  0  0  0  0  0
   -3.7154   -3.0758   -1.2012 C   0  0  0  0  0  0  0  0  0  0  0  0
   -4.6409   -6.4374   -2.2292 O   0  0  0  0  0  0  0  0  0  0  0  0
   -1.7473    1.2199    4.4451 O   0  0  0  0  0  0  0  0  0  0  0  0
   -1.1855    2.3421    5.1286 C   0  0  0  0  0  0  0  0  0  0  0  0
    0.9527    2.4405    0.7303 O   0  0  0  0  0  0  0  0  0  0  0  0
   -1.2334    2.5351   -3.7273 C   0  0  0  0  0  0  0  0  0  0  0  0
    1.6637    1.4294   -3.1830 H   0  0  0  0  0  0  0  0  0  0  0  0
    1.2969    3.1692   -3.0992 H   0  0  0  0  0  0  0  0  0  0  0  0
    1.4508    2.2190   -1.6020 H   0  0  0  0  0  0  0  0  0  0  0  0
   -1.9505    0.9099   -1.7852 H   0  0  0  0  0  0  0  0  0  0  0  0
   -0.0252   -0.7515   -1.0788 H   0  0  0  0  0  0  0  0  0  0  0  0
    1.0342    0.6736   -0.9562 H   0  0  0  0  0  0  0  0  0  0  0  0
   -0.0028    2.6767    3.1506 H   0  0  0  0  0  0  0  0  0  0  0  0
   -5.1170   -2.6964    2.5192 H   0  0  0  0  0  0  0  0  0  0  0  0
   -2.9676   -4.8055    1.6268 H   0  0  0  0  0  0  0  0  0  0  0  0
   -3.7875   -6.6573    0.2347 H   0  0  0  0  0  0  0  0  0  0  0  0
   -4.5024   -3.9366   -2.9869 H   0  0  0  0  0  0  0  0  0  0  0  0
   -3.6951   -2.0734   -1.6027 H   0  0  0  0  0  0  0  0  0  0  0  0
   -3.9492   -6.8703   -2.7481 H   0  0  0  0  0  0  0  0  0  0  0  0
   -0.1039    2.2240    5.1932 H   0  0  0  0  0  0  0  0  0  0  0  0
   -1.4193    3.2552    4.5812 H   0  0  0  0  0  0  0  0  0  0  0  0
   -1.6050    2.4030    6.1329 H   0  0  0  0  0  0  0  0  0  0  0  0
    0.5684    3.1956    0.2642 H   0  0  0  0  0  0  0  0  0  0  0  0
   -2.0113    3.1212   -3.2381 H   0  0  0  0  0  0  0  0  0  0  0  0
   -0.6272    3.1881   -4.3552 H   0  0  0  0  0  0  0  0  0  0  0  0
   -1.6937    1.7630   -4.3438 H   0  0  0  0  0  0  0  0  0  0  0  0
  1  2  1  0  0  0  0
  1 28  1  0  0  0  0
  1 29  1  0  0  0  0
  1 30  1  0  0  0  0
  2  3  2  0  0  0  0
  2 27  1  0  0  0  0
  3  4  1  0  0  0  0
  3 31  1  0  0  0  0
  4  5  1  0  0  0  0
  4 32  1  0  0  0  0
  4 33  1  0  0  0  0
  5 10  2  0  0  0  0
  5  6  1  0  0  0  0
  6  7  2  0  0  0  0
  6 26  1  0  0  0  0
  7  8  1  0  0  0  0
  7 34  1  0  0  0  0
  8  9  2  0  0  0  0
  8 24  1  0  0  0  0
  9 14  1  0  0  0  0
  9 10  1  0  0  0  0
 10 11  1  0  0  0  0
 11 12  1  0  0  0  0
 12 13  2  0  0  0  0
 12 17  1  0  0  0  0
 13 14  1  0  0  0  0
 13 16  1  0  0  0  0
 14 15  2  0  0  0  0
 16 35  1  0  0  0  0
 17 22  2  0  0  0  0
 17 18  1  0  0  0  0
 18 19  2  0  0  0  0
 18 36  1  0  0  0  0
 19 20  1  0  0  0  0
 19 37  1  0  0  0  0
 20 21  2  0  0  0  0
 20 23  1  0  0  0  0
 21 22  1  0  0  0  0
 21 38  1  0  0  0  0
 22 39  1  0  0  0  0
 23 40  1  0  0  0  0
 24 25  1  0  0  0  0
 25 41  1  0  0  0  0
 25 42  1  0  0  0  0
 25 43  1  0  0  0  0
 26 44  1  0  0  0  0
 27 45  1  0  0  0  0
 27 46  1  0  0  0  0
 27 47  1  0  0  0  0
M  END
$$$$
ZINC04199940
  -OEChem-08230709403D

 62 63  0     1  0  0  0  0  0999 V2000
  -10.4423    0.4074   -0.0381 C   0  0  0  0  0  0  0  0  0  0  0  0
  -10.0884    1.7393    0.5717 C   0  0  0  0  0  0  0  0  0  0  0  0
   -9.0434    1.8442    1.3548 C   0  0  0  0  0  0  0  0  0  0  0  0
   -8.1211    0.6673    1.5422 C   0  0  0  0  0  0  0  0  0  0  0  0
   -6.6835    1.0921    1.2361 C   0  0  1  0  0  0  0  0  0  0  0  0
   -6.4203    1.9528    1.8510 H   0  0  0  0  0  0  0  0  0  0  0  0
   -5.7326   -0.0658    1.5458 C   0  0  0  0  0  0  0  0  0  0  0  0
   -4.3076    0.3986    1.3883 C   0  0  0  0  0  0  0  0  0  0  0  0
   -3.6345    0.1761    0.1936 C   0  0  0  0  0  0  0  0  0  0  0  0
   -2.3212    0.6000    0.0383 C   0  0  0  0  0  0  0  0  0  0  0  0
   -1.6729    1.2484    1.0736 C   0  0  0  0  0  0  0  0  0  0  0  0
   -2.3442    1.4725    2.2860 C   0  0  0  0  0  0  0  0  0  0  0  0
   -3.6734    1.0445    2.4334 C   0  0  0  0  0  0  0  0  0  0  0  0
   -4.3322    1.2602    3.5998 O   0  0  0  0  0  0  0  0  0  0  0  0
   -1.6597    2.1565    3.3953 C   0  0  0  0  0  0  0  0  0  0  0  0
   -0.9616    1.5202    4.1654 O   0  0  0  0  0  0  0  0  0  0  0  0
   -1.8127    3.5559    3.5679 C   0  0  0  0  0  0  0  0  0  0  0  0
   -1.1036    4.2012    4.5221 C   0  0  0  0  0  0  0  0  0  0  0  0
   -1.2618    5.6486    4.7006 C   0  0  0  0  0  0  0  0  0  0  0  0
   -2.1420    6.3667    3.8810 C   0  0  0  0  0  0  0  0  0  0  0  0
   -2.2913    7.7130    4.0522 C   0  0  0  0  0  0  0  0  0  0  0  0
   -1.5646    8.3831    5.0321 C   0  0  0  0  0  0  0  0  0  0  0  0
   -0.6843    7.6885    5.8495 C   0  0  0  0  0  0  0  0  0  0  0  0
   -0.5265    6.3227    5.6912 C   0  0  0  0  0  0  0  0  0  0  0  0
    0.3332    5.6383    6.4872 O   0  0  0  0  0  0  0  0  0  0  0  0
   -1.7175    9.7227    5.1887 O   0  0  0  0  0  0  0  0  0  0  0  0
   -0.3898    1.6618    0.9199 O   0  0  0  0  0  0  0  0  0  0  0  0
    0.2316    1.3944   -0.3388 C   0  0  0  0  0  0  0  0  0  0  0  0
   -4.2641   -0.4588   -0.8276 O   0  0  0  0  0  0  0  0  0  0  0  0
   -6.5680    1.4612   -0.2204 C   0  0  0  0  0  0  0  0  0  0  0  0
   -6.1050    2.6377   -0.5633 C   0  0  0  0  0  0  0  0  0  0  0  0
   -6.9851    0.4768   -1.2825 C   0  0  0  0  0  0  0  0  0  0  0  0
  -10.9365    2.9505    0.2807 C   0  0  0  0  0  0  0  0  0  0  0  0
  -10.7109   -0.2940    0.7519 H   0  0  0  0  0  0  0  0  0  0  0  0
  -11.2865    0.5313   -0.7165 H   0  0  0  0  0  0  0  0  0  0  0  0
   -9.5856    0.0217   -0.5907 H   0  0  0  0  0  0  0  0  0  0  0  0
   -8.8429    2.7742    1.8660 H   0  0  0  0  0  0  0  0  0  0  0  0
   -8.4145   -0.1356    0.8658 H   0  0  0  0  0  0  0  0  0  0  0  0
   -8.1847    0.3162    2.5721 H   0  0  0  0  0  0  0  0  0  0  0  0
   -5.9250   -0.8881    0.8568 H   0  0  0  0  0  0  0  0  0  0  0  0
   -5.8934   -0.4042    2.5694 H   0  0  0  0  0  0  0  0  0  0  0  0
   -1.8049    0.4232   -0.8937 H   0  0  0  0  0  0  0  0  0  0  0  0
   -4.1746    0.5827    4.2716 H   0  0  0  0  0  0  0  0  0  0  0  0
   -2.4954    4.1063    2.9375 H   0  0  0  0  0  0  0  0  0  0  0  0
   -0.4209    3.6509    5.1525 H   0  0  0  0  0  0  0  0  0  0  0  0
   -2.7059    5.8543    3.1156 H   0  0  0  0  0  0  0  0  0  0  0  0
   -2.9742    8.2619    3.4207 H   0  0  0  0  0  0  0  0  0  0  0  0
   -0.1226    8.2132    6.6081 H   0  0  0  0  0  0  0  0  0  0  0  0
    1.2331    5.5827    6.1378 H   0  0  0  0  0  0  0  0  0  0  0  0
   -1.1110   10.2530    4.6538 H   0  0  0  0  0  0  0  0  0  0  0  0
    0.2474    0.3189   -0.5150 H   0  0  0  0  0  0  0  0  0  0  0  0
    1.2526    1.7758   -0.3283 H   0  0  0  0  0  0  0  0  0  0  0  0
   -0.3312    1.8845   -1.1333 H   0  0  0  0  0  0  0  0  0  0  0  0
   -4.1594   -1.4200   -0.8173 H   0  0  0  0  0  0  0  0  0  0  0  0
   -5.8061    3.3432    0.1978 H   0  0  0  0  0  0  0  0  0  0  0  0
   -6.0223    2.9022   -1.6071 H   0  0  0  0  0  0  0  0  0  0  0  0
   -8.0236    0.6589   -1.5590 H   0  0  0  0  0  0  0  0  0  0  0  0
   -6.3491    0.5973   -2.1595 H   0  0  0  0  0  0  0  0  0  0  0  0
   -6.8842   -0.5378   -0.8972 H   0  0  0  0  0  0  0  0  0  0  0  0
  -10.5283    3.8144    0.8052 H   0  0  0  0  0  0  0  0  0  0  0  0
  -10.9377    3.1440   -0.7920 H   0  0  0  0  0  0  0  0  0  0  0  0
  -11.9569    2.7692    0.6183 H   0  0  0  0  0  0  0  0  0  0  0  0
  1  2  1  0  0  0  0
  1 34  1  0  0  0  0
  1 35  1  0  0  0  0
  1 36  1  0  0  0  0
  2  3  2  0  0  0  0
  2 33  1  0  0  0  0
  3  4  1  0  0  0  0
  3 37  1  0  0  0  0
  4  5  1  0  0  0  0
  4 38  1  0  0  0  0
  4 39  1  0  0  0  0
  5  6  1  0  0  0  0
  5  7  1  0  0  0  0
  5 30  1  0  0  0  0
  7  8  1  0  0  0  0
  7 40  1  0  0  0  0
  7 41  1  0  0  0  0
  8 13  2  0  0  0  0
  8  9  1  0  0  0  0
  9 10  2  0  0  0  0
  9 29  1  0  0  0  0
 10 11  1  0  0  0  0
 10 42  1  0  0  0  0
 11 12  2  0  0  0  0
 11 27  1  0  0  0  0
 12 13  1  0  0  0  0
 12 15  1  0  0  0  0
 13 14  1  0  0  0  0
 14 43  1  0  0  0  0
 15 16  2  0  0  0  0
 15 17  1  0  0  0  0
 17 18  2  0  0  0  0
 17 44  1  0  0  0  0
 18 19  1  0  0  0  0
 18 45  1  0  0  0  0
 19 24  2  0  0  0  0
 19 20  1  0  0  0  0
 20 21  2  0  0  0  0
 20 46  1  0  0  0  0
 21 22  1  0  0  0  0
 21 47  1  0  0  0  0
 22 23  2  0  0  0  0
 22 26  1  0  0  0  0
 23 24  1  0  0  0  0
 23 48  1  0  0  0  0
 24 25  1  0  0  0  0
 25 49  1  0  0  0  0
 26 50  1  0  0  0  0
 27 28  1  0  0  0  0
 28 51  1  0  0  0  0
 28 52  1  0  0  0  0
 28 53  1  0  0  0  0
 29 54  1  0  0  0  0
 30 31  2  0  0  0  0
 30 32  1  0  0  0  0
 31 55  1  0  0  0  0
 31 56  1  0  0  0  0
 32 57  1  0  0  0  0
 32 58  1  0  0  0  0
 32 59  1  0  0  0  0
 33 60  1  0  0  0  0
 33 61  1  0  0  0  0
 33 62  1  0  0  0  0
M  END
$$$$
ZINC04199941
  -OEChem-08230709403D

 59 65  0     1  0  0  0  0  0999 V2000
    1.4641    6.1490    0.1734 C   0  0  0  0  0  0  0  0  0  0  0  0
    2.8218    6.2146    0.4407 C   0  0  0  0  0  0  0  0  0  0  0  0
    3.5755    5.0871    0.7171 C   0  0  0  0  0  0  0  0  0  0  0  0
    2.9064    3.8649    0.7157 C   0  0  0  0  0  0  0  0  0  0  0  0
    1.5159    3.8037    0.4420 C   0  0  0  0  0  0  0  0  0  0  0  0
    0.7787    4.9592    0.1658 C   0  0  0  0  0  0  0  0  0  0  0  0
    1.1525    2.4033    0.5247 C   0  0  0  0  0  0  0  0  0  0  0  0
    2.2791    1.7209    0.8234 C   0  0  0  0  0  0  0  0  0  0  0  0
    3.3325    2.5877    0.9417 N   0  0  0  0  0  0  0  0  0  0  0  0
    4.2441    2.3328    1.1538 H   0  0  0  0  0  0  0  0  0  0  0  0
    2.3245    0.2187    0.9928 C   0  0  1  0  0  0  0  0  0  0  0  0
    2.8402   -0.0350    1.9190 H   0  0  0  0  0  0  0  0  0  0  0  0
    0.9335   -0.2629    1.0466 N   0  0  0  0  0  0  0  0  0  0  0  0
   -0.0285    0.2753    0.0732 C   0  0  0  0  0  0  0  0  0  0  0  0
   -0.2043    1.7776    0.3253 C   0  0  0  0  0  0  0  0  0  0  0  0
    0.5524   -1.1738    1.9640 C   0  0  0  0  0  0  0  0  0  0  0  0
   -0.6215   -1.4781    2.0682 O   0  0  0  0  0  0  0  0  0  0  0  0
    1.5512   -1.7976    2.8359 C   0  0  0  0  0  0  0  0  0  0  0  0
    1.2898   -2.6625    3.8759 C   0  0  0  0  0  0  0  0  0  0  0  0
    2.5255   -3.0131    4.4294 C   0  0  0  0  0  0  0  0  0  0  0  0
    3.4855   -2.3494    3.7209 C   0  0  0  0  0  0  0  0  0  0  0  0
    2.8873   -1.6205    2.7639 O   0  0  0  0  0  0  0  0  0  0  0  0
    4.9403   -2.4205    3.9662 C   0  0  0  0  0  0  0  0  0  0  0  0
    5.4391   -3.2140    5.0015 C   0  0  0  0  0  0  0  0  0  0  0  0
    6.7990   -3.2800    5.2216 C   0  0  0  0  0  0  0  0  0  0  0  0
    7.6680   -2.5539    4.4260 C   0  0  0  0  0  0  0  0  0  0  0  0
    7.1802   -1.7613    3.4023 C   0  0  0  0  0  0  0  0  0  0  0  0
    5.8226   -1.6902    3.1677 C   0  0  0  0  0  0  0  0  0  0  0  0
    8.1172   -0.9875    2.5571 N   0  3  0  0  0  0  0  0  0  0  0  0
    7.6893   -0.2890    1.6558 O   0  0  0  0  0  0  0  0  0  0  0  0
    9.3160   -1.0493    2.7631 O   0  5  0  0  0  0  0  0  0  0  0  0
    3.0379   -0.4070   -0.1779 C   0  0  0  0  0  0  0  0  0  0  0  0
    2.5918   -0.1692   -1.4647 C   0  0  0  0  0  0  0  0  0  0  0  0
    3.2463   -0.7364   -2.5422 C   0  0  0  0  0  0  0  0  0  0  0  0
    4.3444   -1.5550   -2.3338 C   0  0  0  0  0  0  0  0  0  0  0  0
    4.7905   -1.7989   -1.0372 C   0  0  0  0  0  0  0  0  0  0  0  0
    4.1333   -1.2222    0.0375 C   0  0  0  0  0  0  0  0  0  0  0  0
    5.8746   -2.6262   -1.0972 O   0  0  0  0  0  0  0  0  0  0  0  0
    5.8383   -3.2128   -2.4117 C   0  0  0  0  0  0  0  0  0  0  0  0
    5.1491   -2.2294   -3.2061 O   0  0  0  0  0  0  0  0  0  0  0  0
    0.9276    7.0628   -0.0353 H   0  0  0  0  0  0  0  0  0  0  0  0
    3.3088    7.1785    0.4335 H   0  0  0  0  0  0  0  0  0  0  0  0
    4.6336    5.1516    0.9239 H   0  0  0  0  0  0  0  0  0  0  0  0
   -0.2799    4.9179   -0.0439 H   0  0  0  0  0  0  0  0  0  0  0  0
   -0.9876   -0.2291    0.1909 H   0  0  0  0  0  0  0  0  0  0  0  0
    0.3457    0.1164   -0.9381 H   0  0  0  0  0  0  0  0  0  0  0  0
   -0.6951    2.2366   -0.5329 H   0  0  0  0  0  0  0  0  0  0  0  0
   -0.8106    1.9292    1.2183 H   0  0  0  0  0  0  0  0  0  0  0  0
    0.3183   -3.0053    4.1999 H   0  0  0  0  0  0  0  0  0  0  0  0
    2.6892   -3.6795    5.2634 H   0  0  0  0  0  0  0  0  0  0  0  0
    4.7618   -3.7779    5.6258 H   0  0  0  0  0  0  0  0  0  0  0  0
    7.1865   -3.8967    6.0191 H   0  0  0  0  0  0  0  0  0  0  0  0
    8.7317   -2.6059    4.6054 H   0  0  0  0  0  0  0  0  0  0  0  0
    5.4432   -1.0714    2.3680 H   0  0  0  0  0  0  0  0  0  0  0  0
    1.7329    0.4647   -1.6287 H   0  0  0  0  0  0  0  0  0  0  0  0
    2.8982   -0.5455   -3.5466 H   0  0  0  0  0  0  0  0  0  0  0  0
    4.4773   -1.4093    1.0440 H   0  0  0  0  0  0  0  0  0  0  0  0
    5.2833   -4.1509   -2.3972 H   0  0  0  0  0  0  0  0  0  0  0  0
    6.8478   -3.3722   -2.7905 H   0  0  0  0  0  0  0  0  0  0  0  0
  1  6  2  0  0  0  0
  1  2  1  0  0  0  0
  1 41  1  0  0  0  0
  2  3  2  0  0  0  0
  2 42  1  0  0  0  0
  3  4  1  0  0  0  0
  3 43  1  0  0  0  0
  4  9  1  0  0  0  0
  4  5  2  0  0  0  0
  5  6  1  0  0  0  0
  5  7  1  0  0  0  0
  6 44  1  0  0  0  0
  7 15  1  0  0  0  0
  7  8  2  0  0  0  0
  8  9  1  0  0  0  0
  8 11  1  0  0  0  0
  9 10  1  0  0  0  0
 11 12  1  0  0  0  0
 11 13  1  0  0  0  0
 11 32  1  0  0  0  0
 13 14  1  0  0  0  0
 13 16  1  0  0  0  0
 14 15  1  0  0  0  0
 14 45  1  0  0  0  0
 14 46  1  0  0  0  0
 15 47  1  0  0  0  0
 15 48  1  0  0  0  0
 16 17  2  0  0  0  0
 16 18  1  0  0  0  0
 18 22  1  0  0  0  0
 18 19  2  0  0  0  0
 19 20  1  0  0  0  0
 19 49  1  0  0  0  0
 20 21  2  0  0  0  0
 20 50  1  0  0  0  0
 21 22  1  0  0  0  0
 21 23  1  0  0  0  0
 23 28  2  0  0  0  0
 23 24  1  0  0  0  0
 24 25  2  0  0  0  0
 24 51  1  0  0  0  0
 25 26  1  0  0  0  0
 25 52  1  0  0  0  0
 26 27  2  0  0  0  0
 26 53  1  0  0  0  0
 27 28  1  0  0  0  0
 27 29  1  0  0  0  0
 28 54  1  0  0  0  0
 29 30  2  0  0  0  0
 29 31  1  0  0  0  0
 32 37  2  0  0  0  0
 32 33  1  0  0  0  0
 33 34  2  0  0  0  0
 33 55  1  0  0  0  0
 34 35  1  0  0  0  0
 34 56  1  0  0  0  0
 35 40  1  0  0  0  0
 35 36  2  0  0  0  0
 36 37  1  0  0  0  0
 36 38  1  0  0  0  0
 37 57  1  0  0  0  0
 38 39  1  0  0  0  0
 39 40  1  0  0  0  0
 39 58  1  0  0  0  0
 39 59  1  0  0  0  0
M  CHG  2  29   1  31  -1
M  END
$$$$
ZINC04199942
  -OEChem-08230709403D

 59 65  0     1  0  0  0  0  0999 V2000
    0.2791    9.8478   -0.5759 C   0  0  0  0  0  0  0  0  0  0  0  0
   -1.0301    9.8721   -0.1238 C   0  0  0  0  0  0  0  0  0  0  0  0
   -1.7241    8.7169    0.1913 C   0  0  0  0  0  0  0  0  0  0  0  0
   -1.0458    7.5100    0.0345 C   0  0  0  0  0  0  0  0  0  0  0  0
    0.2956    7.4906   -0.4292 C   0  0  0  0  0  0  0  0  0  0  0  0
    0.9724    8.6742   -0.7402 C   0  0  0  0  0  0  0  0  0  0  0  0
    0.6803    6.0977   -0.4730 C   0  0  0  0  0  0  0  0  0  0  0  0
   -0.3847    5.3754   -0.0566 C   0  0  0  0  0  0  0  0  0  0  0  0
   -1.4217    6.2145    0.2483 N   0  0  0  0  0  0  0  0  0  0  0  0
   -2.2926    5.9317    0.5685 H   0  0  0  0  0  0  0  0  0  0  0  0
   -0.3698    3.8682    0.0394 C   0  0  1  0  0  0  0  0  0  0  0  0
   -0.9112    3.4420   -0.8052 H   0  0  0  0  0  0  0  0  0  0  0  0
    1.0294    3.4124    0.0106 N   0  0  2  0  0  0  0  0  0  0  0  0
    1.7566    3.9841   -1.1315 C   0  0  0  0  0  0  0  0  0  0  0  0
    1.9921    5.4813   -0.8894 C   0  0  0  0  0  0  0  0  0  0  0  0
    1.1010    2.0260    0.0024 C   0  0  0  0  0  0  0  0  0  0  0  0
    2.3461    1.4021   -0.0128 C   0  0  0  0  0  0  0  0  0  0  0  0
    2.4089    0.0234   -0.0208 C   0  0  0  0  0  0  0  0  0  0  0  0
    1.2088   -0.6981   -0.0132 C   0  0  0  0  0  0  0  0  0  0  0  0
    0.0021   -0.0041    0.0020 C   0  0  0  0  0  0  0  0  0  0  0  0
    1.2230   -2.1806   -0.0218 C   0  0  0  0  0  0  0  0  0  0  0  0
    0.0230   -2.8829   -0.1201 C   0  0  0  0  0  0  0  0  0  0  0  0
    0.0524   -4.2662   -0.1273 C   0  0  0  0  0  0  0  0  0  0  0  0
    1.2823   -4.9035   -0.0359 C   0  0  0  0  0  0  0  0  0  0  0  0
    2.4337   -4.1447    0.0590 C   0  0  0  0  0  0  0  0  0  0  0  0
    2.3784   -2.8280    0.0586 N   0  0  0  0  0  0  0  0  0  0  0  0
   -1.0164    3.4366    1.3304 C   0  0  0  0  0  0  0  0  0  0  0  0
   -0.3064    3.4955    2.5157 C   0  0  0  0  0  0  0  0  0  0  0  0
   -0.8939    3.1029    3.7002 C   0  0  0  0  0  0  0  0  0  0  0  0
   -2.2048    2.6323    3.7109 C   0  0  0  0  0  0  0  0  0  0  0  0
   -2.9079    2.5786    2.5144 C   0  0  0  0  0  0  0  0  0  0  0  0
   -2.3204    2.9745    1.3331 C   0  0  0  0  0  0  0  0  0  0  0  0
   -4.2920    2.0490    2.8358 C   0  0  0  0  0  0  0  0  0  0  0  0
   -4.3499    2.2177    4.3725 C   0  0  0  0  0  0  0  0  0  0  0  0
   -2.9627    2.1835    4.7489 O   0  0  0  0  0  0  0  0  0  0  0  0
    0.7700   10.7816   -0.8068 H   0  0  0  0  0  0  0  0  0  0  0  0
   -1.5262   10.8251   -0.0136 H   0  0  0  0  0  0  0  0  0  0  0  0
   -2.7448    8.7494    0.5427 H   0  0  0  0  0  0  0  0  0  0  0  0
    1.9931    8.6655   -1.0929 H   0  0  0  0  0  0  0  0  0  0  0  0
    2.7160    3.4784   -1.2414 H   0  0  0  0  0  0  0  0  0  0  0  0
    1.1693    3.8508   -2.0399 H   0  0  0  0  0  0  0  0  0  0  0  0
    2.7297    5.6151   -0.0981 H   0  0  0  0  0  0  0  0  0  0  0  0
    2.3464    5.9516   -1.8066 H   0  0  0  0  0  0  0  0  0  0  0  0
    3.2518    1.9903   -0.0187 H   0  0  0  0  0  0  0  0  0  0  0  0
    3.3607   -0.4868   -0.0323 H   0  0  0  0  0  0  0  0  0  0  0  0
   -0.9291   -0.5512    0.0076 H   0  0  0  0  0  0  0  0  0  0  0  0
   -0.9164   -2.3548   -0.1900 H   0  0  0  0  0  0  0  0  0  0  0  0
   -0.8611   -4.8374   -0.2020 H   0  0  0  0  0  0  0  0  0  0  0  0
    1.3389   -5.9820   -0.0393 H   0  0  0  0  0  0  0  0  0  0  0  0
    3.3920   -4.6376    0.1302 H   0  0  0  0  0  0  0  0  0  0  0  0
    0.7122    3.8545    2.5144 H   0  0  0  0  0  0  0  0  0  0  0  0
   -0.3339    3.1563    4.6221 H   0  0  0  0  0  0  0  0  0  0  0  0
   -2.8778    2.9247    0.4094 H   0  0  0  0  0  0  0  0  0  0  0  0
   -5.0612    2.6484    2.3488 H   0  0  0  0  0  0  0  0  0  0  0  0
   -4.3826    0.9997    2.5548 H   0  0  0  0  0  0  0  0  0  0  0  0
   -4.7989    3.1744    4.6393 H   0  0  0  0  0  0  0  0  0  0  0  0
   -4.8949    1.3928    4.8313 H   0  0  0  0  0  0  0  0  0  0  0  0
   -0.0861    1.3514    0.0102 N   0  3  0  0  0  0  0  0  0  0  0  0
   -0.9898    1.8387    0.0215 H   0  0  0  0  0  0  0  0  0  0  0  0
  1  6  2  0  0  0  0
  1  2  1  0  0  0  0
  1 36  1  0  0  0  0
  2  3  2  0  0  0  0
  2 37  1  0  0  0  0
  3  4  1  0  0  0  0
  3 38  1  0  0  0  0
  4  9  1  0  0  0  0
  4  5  2  0  0  0  0
  5  6  1  0  0  0  0
  5  7  1  0  0  0  0
  6 39  1  0  0  0  0
  7 15  1  0  0  0  0
  7  8  2  0  0  0  0
  8  9  1  0  0  0  0
  8 11  1  0  0  0  0
  9 10  1  0  0  0  0
 11 12  1  0  0  0  0
 11 13  1  0  0  0  0
 11 27  1  0  0  0  0
 13 14  1  0  0  0  0
 13 16  1  0  0  0  0
 14 15  1  0  0  0  0
 14 40  1  0  0  0  0
 14 41  1  0  0  0  0
 15 42  1  0  0  0  0
 15 43  1  0  0  0  0
 16 17  2  0  0  0  0
 16 58  1  0  0  0  0
 17 18  1  0  0  0  0
 17 44  1  0  0  0  0
 18 19  2  0  0  0  0
 18 45  1  0  0  0  0
 19 20  1  0  0  0  0
 19 21  1  0  0  0  0
 20 46  1  0  0  0  0
 20 58  2  0  0  0  0
 21 26  2  0  0  0  0
 21 22  1  0  0  0  0
 22 23  2  0  0  0  0
 22 47  1  0  0  0  0
 23 24  1  0  0  0  0
 23 48  1  0  0  0  0
 24 25  2  0  0  0  0
 24 49  1  0  0  0  0
 25 26  1  0  0  0  0
 25 50  1  0  0  0  0
 27 32  2  0  0  0  0
 27 28  1  0  0  0  0
 28 29  2  0  0  0  0
 28 51  1  0  0  0  0
 29 30  1  0  0  0  0
 29 52  1  0  0  0  0
 30 35  1  0  0  0  0
 30 31  2  0  0  0  0
 31 32  1  0  0  0  0
 31 33  1  0  0  0  0
 32 53  1  0  0  0  0
 33 34  1  0  0  0  0
 33 54  1  0  0  0  0
 33 55  1  0  0  0  0
 34 35  1  0  0  0  0
 34 56  1  0  0  0  0
 34 57  1  0  0  0  0
 58 59  1  0  0  0  0
M  CHG  1  58   1
M  END
$$$$
ZINC04199943
  -OEChem-08230709403D

 46 51  0     1  0  0  0  0  0999 V2000
    1.1617    2.0830    0.0022 C   0  0  0  0  0  0  0  0  0  0  0  0
    2.3753    1.4091   -0.0122 C   0  0  0  0  0  0  0  0  0  0  0  0
    2.4157    0.0323   -0.0204 C   0  0  0  0  0  0  0  0  0  0  0  0
    1.2273   -0.6932   -0.0134 C   0  0  0  0  0  0  0  0  0  0  0  0
    0.0021   -0.0041    0.0020 C   0  0  0  0  0  0  0  0  0  0  0  0
   -0.0168    1.3903    0.0097 C   0  0  0  0  0  0  0  0  0  0  0  0
   -1.2406   -0.7930    0.0091 C   0  0  0  0  0  0  0  0  0  0  0  0
   -2.3313   -0.2466    0.0229 O   0  0  0  0  0  0  0  0  0  0  0  0
   -1.1327   -2.2059   -0.0009 C   0  0  0  0  0  0  0  0  0  0  0  0
    0.0798   -2.7961   -0.0155 C   0  0  0  0  0  0  0  0  0  0  0  0
    1.2306   -2.0674   -0.0217 N   0  0  0  0  0  0  0  0  0  0  0  0
    2.1072   -2.5485   -0.0327 H   0  0  0  0  0  0  0  0  0  0  0  0
   -0.1035   -4.2973   -0.0229 C   0  0  1  0  0  0  0  0  0  0  0  0
    0.3616   -4.7308    0.8624 H   0  0  0  0  0  0  0  0  0  0  0  0
   -1.5440   -4.5695   -0.0114 N   0  0  0  0  0  0  0  0  0  0  0  0
   -2.2094   -3.2626    0.0026 C   0  0  0  0  0  0  0  0  0  0  0  0
   -2.1382   -5.7792   -0.0139 C   0  0  0  0  0  0  0  0  0  0  0  0
   -1.4604   -6.7900   -0.0269 O   0  0  0  0  0  0  0  0  0  0  0  0
   -3.6004   -5.8774   -0.0010 C   0  0  0  0  0  0  0  0  0  0  0  0
   -4.3271   -7.0340   -0.0074 C   0  0  0  0  0  0  0  0  0  0  0  0
   -5.6793   -6.6614    0.0126 C   0  0  0  0  0  0  0  0  0  0  0  0
   -5.7197   -5.3090    0.0217 C   0  0  0  0  0  0  0  0  0  0  0  0
   -4.4646   -4.8409    0.0135 O   0  0  0  0  0  0  0  0  0  0  0  0
   -7.2888   -4.2538    0.0416 Br  0  0  0  0  0  0  0  0  0  0  0  0
    0.5170   -4.8817   -1.2657 C   0  0  0  0  0  0  0  0  0  0  0  0
   -0.1657   -4.8308   -2.4669 C   0  0  0  0  0  0  0  0  0  0  0  0
    0.3994   -5.3651   -3.6097 C   0  0  0  0  0  0  0  0  0  0  0  0
    1.6528   -5.9529   -3.5538 C   0  0  0  0  0  0  0  0  0  0  0  0
    2.3405   -6.0041   -2.3439 C   0  0  0  0  0  0  0  0  0  0  0  0
    1.7699   -5.4623   -1.2035 C   0  0  0  0  0  0  0  0  0  0  0  0
    3.5386   -6.6250   -2.5490 O   0  0  0  0  0  0  0  0  0  0  0  0
    3.7523   -6.5877   -3.9724 C   0  0  0  0  0  0  0  0  0  0  0  0
    2.4201   -6.5416   -4.5170 O   0  0  0  0  0  0  0  0  0  0  0  0
    1.1486    3.1629    0.0077 H   0  0  0  0  0  0  0  0  0  0  0  0
    3.2978    1.9705   -0.0176 H   0  0  0  0  0  0  0  0  0  0  0  0
    3.3651   -0.4823   -0.0325 H   0  0  0  0  0  0  0  0  0  0  0  0
   -0.9578    1.9203    0.0170 H   0  0  0  0  0  0  0  0  0  0  0  0
   -2.8351   -3.1564   -0.8836 H   0  0  0  0  0  0  0  0  0  0  0  0
   -2.8203   -3.1680    0.9004 H   0  0  0  0  0  0  0  0  0  0  0  0
   -3.9361   -8.0407   -0.0229 H   0  0  0  0  0  0  0  0  0  0  0  0
   -6.5286   -7.3286    0.0155 H   0  0  0  0  0  0  0  0  0  0  0  0
   -1.1426   -4.3724   -2.5125 H   0  0  0  0  0  0  0  0  0  0  0  0
   -0.1361   -5.3240   -4.5467 H   0  0  0  0  0  0  0  0  0  0  0  0
    2.3029   -5.4967   -0.2648 H   0  0  0  0  0  0  0  0  0  0  0  0
    4.3116   -5.6950   -4.2525 H   0  0  0  0  0  0  0  0  0  0  0  0
    4.2737   -7.4852   -4.3051 H   0  0  0  0  0  0  0  0  0  0  0  0
  1  6  2  0  0  0  0
  1  2  1  0  0  0  0
  1 34  1  0  0  0  0
  2  3  2  0  0  0  0
  2 35  1  0  0  0  0
  3  4  1  0  0  0  0
  3 36  1  0  0  0  0
  4 11  1  0  0  0  0
  4  5  2  0  0  0  0
  5  6  1  0  0  0  0
  5  7  1  0  0  0  0
  6 37  1  0  0  0  0
  7  8  2  0  0  0  0
  7  9  1  0  0  0  0
  9 16  1  0  0  0  0
  9 10  2  0  0  0  0
 10 11  1  0  0  0  0
 10 13  1  0  0  0  0
 11 12  1  0  0  0  0
 13 14  1  0  0  0  0
 13 15  1  0  0  0  0
 13 25  1  0  0  0  0
 15 16  1  0  0  0  0
 15 17  1  0  0  0  0
 16 38  1  0  0  0  0
 16 39  1  0  0  0  0
 17 18  2  0  0  0  0
 17 19  1  0  0  0  0
 19 23  1  0  0  0  0
 19 20  2  0  0  0  0
 20 21  1  0  0  0  0
 20 40  1  0  0  0  0
 21 22  2  0  0  0  0
 21 41  1  0  0  0  0
 22 23  1  0  0  0  0
 22 24  1  0  0  0  0
 25 30  2  0  0  0  0
 25 26  1  0  0  0  0
 26 27  2  0  0  0  0
 26 42  1  0  0  0  0
 27 28  1  0  0  0  0
 27 43  1  0  0  0  0
 28 33  1  0  0  0  0
 28 29  2  0  0  0  0
 29 30  1  0  0  0  0
 29 31  1  0  0  0  0
 30 44  1  0  0  0  0
 31 32  1  0  0  0  0
 32 33  1  0  0  0  0
 32 45  1  0  0  0  0
 32 46  1  0  0  0  0
M  END
$$$$
ZINC04199943
  -OEChem-08230709403D

 46 51  0     1  0  0  0  0  0999 V2000
    1.1617    2.0830    0.0012 C   0  0  0  0  0  0  0  0  0  0  0  0
    2.3753    1.4091   -0.0140 C   0  0  0  0  0  0  0  0  0  0  0  0
    2.4157    0.0323   -0.0223 C   0  0  0  0  0  0  0  0  0  0  0  0
    1.2273   -0.6932   -0.0148 C   0  0  0  0  0  0  0  0  0  0  0  0
    0.0021   -0.0041    0.0023 C   0  0  0  0  0  0  0  0  0  0  0  0
   -0.0168    1.3903    0.0094 C   0  0  0  0  0  0  0  0  0  0  0  0
   -1.2406   -0.7930    0.0099 C   0  0  0  0  0  0  0  0  0  0  0  0
   -2.3313   -0.2466    0.0241 O   0  0  0  0  0  0  0  0  0  0  0  0
   -1.1327   -2.2059    0.0002 C   0  0  0  0  0  0  0  0  0  0  0  0
    0.0798   -2.7961   -0.0153 C   0  0  0  0  0  0  0  0  0  0  0  0
    1.2306   -2.0674   -0.0226 N   0  0  0  0  0  0  0  0  0  0  0  0
   -3.0516   -0.9403    0.0271 H   0  0  0  0  0  0  0  0  0  0  0  0
   -0.1035   -4.2973   -0.0220 C   0  0  1  0  0  0  0  0  0  0  0  0
    0.3623   -4.7305    0.8631 H   0  0  0  0  0  0  0  0  0  0  0  0
   -1.5440   -4.5695   -0.0094 N   0  0  0  0  0  0  0  0  0  0  0  0
   -2.2094   -3.2626    0.0042 C   0  0  0  0  0  0  0  0  0  0  0  0
   -2.1382   -5.7792   -0.0111 C   0  0  0  0  0  0  0  0  0  0  0  0
   -1.4604   -6.7900   -0.0244 O   0  0  0  0  0  0  0  0  0  0  0  0
   -3.6004   -5.8774    0.0030 C   0  0  0  0  0  0  0  0  0  0  0  0
   -4.3271   -7.0340   -0.0025 C   0  0  0  0  0  0  0  0  0  0  0  0
   -5.6792   -6.6614    0.0185 C   0  0  0  0  0  0  0  0  0  0  0  0
   -5.7196   -5.3090    0.0273 C   0  0  0  0  0  0  0  0  0  0  0  0
   -4.4646   -4.8409    0.0179 O   0  0  0  0  0  0  0  0  0  0  0  0
   -7.2887   -4.2538    0.0482 Br  0  0  0  0  0  0  0  0  0  0  0  0
    0.5161   -4.8822   -1.2650 C   0  0  0  0  0  0  0  0  0  0  0  0
   -0.1675   -4.8317   -2.4657 C   0  0  0  0  0  0  0  0  0  0  0  0
    0.3968   -5.3664   -3.6088 C   0  0  0  0  0  0  0  0  0  0  0  0
    1.6502   -5.9542   -3.5536 C   0  0  0  0  0  0  0  0  0  0  0  0
    2.3388   -6.0049   -2.3442 C   0  0  0  0  0  0  0  0  0  0  0  0
    1.7690   -5.4627   -1.2035 C   0  0  0  0  0  0  0  0  0  0  0  0
    3.5368   -6.6259   -2.5499 O   0  0  0  0  0  0  0  0  0  0  0  0
    3.7494   -6.5891   -3.9735 C   0  0  0  0  0  0  0  0  0  0  0  0
    2.4168   -6.5432   -4.5171 O   0  0  0  0  0  0  0  0  0  0  0  0
    1.1486    3.1629    0.0068 H   0  0  0  0  0  0  0  0  0  0  0  0
    3.2978    1.9705   -0.0199 H   0  0  0  0  0  0  0  0  0  0  0  0
    3.3651   -0.4823   -0.0351 H   0  0  0  0  0  0  0  0  0  0  0  0
   -0.9578    1.9203    0.0173 H   0  0  0  0  0  0  0  0  0  0  0  0
   -2.8353   -3.1566   -0.8819 H   0  0  0  0  0  0  0  0  0  0  0  0
   -2.8201   -3.1678    0.9021 H   0  0  0  0  0  0  0  0  0  0  0  0
   -3.9361   -8.0407   -0.0181 H   0  0  0  0  0  0  0  0  0  0  0  0
   -6.5285   -7.3286    0.0222 H   0  0  0  0  0  0  0  0  0  0  0  0
   -1.1444   -4.3733   -2.5108 H   0  0  0  0  0  0  0  0  0  0  0  0
   -0.1394   -5.3257   -4.5454 H   0  0  0  0  0  0  0  0  0  0  0  0
    2.3027   -5.4968   -0.2652 H   0  0  0  0  0  0  0  0  0  0  0  0
    4.3085   -5.6965   -4.2543 H   0  0  0  0  0  0  0  0  0  0  0  0
    4.2706   -7.4867   -4.3062 H   0  0  0  0  0  0  0  0  0  0  0  0
  1  6  2  0  0  0  0
  1  2  1  0  0  0  0
  1 34  1  0  0  0  0
  2  3  2  0  0  0  0
  2 35  1  0  0  0  0
  3  4  1  0  0  0  0
  3 36  1  0  0  0  0
  4 11  2  0  0  0  0
  4  5  1  0  0  0  0
  5  6  1  0  0  0  0
  5  7  2  0  0  0  0
  6 37  1  0  0  0  0
  7  8  1  0  0  0  0
  7  9  1  0  0  0  0
  8 12  1  0  0  0  0
  9 16  1  0  0  0  0
  9 10  2  0  0  0  0
 10 13  1  0  0  0  0
 10 11  1  0  0  0  0
 13 14  1  0  0  0  0
 13 15  1  0  0  0  0
 13 25  1  0  0  0  0
 15 16  1  0  0  0  0
 15 17  1  0  0  0  0
 16 38  1  0  0  0  0
 16 39  1  0  0  0  0
 17 18  2  0  0  0  0
 17 19  1  0  0  0  0
 19 23  1  0  0  0  0
 19 20  2  0  0  0  0
 20 21  1  0  0  0  0
 20 40  1  0  0  0  0
 21 22  2  0  0  0  0
 21 41  1  0  0  0  0
 22 23  1  0  0  0  0
 22 24  1  0  0  0  0
 25 30  2  0  0  0  0
 25 26  1  0  0  0  0
 26 27  2  0  0  0  0
 26 42  1  0  0  0  0
 27 28  1  0  0  0  0
 27 43  1  0  0  0  0
 28 33  1  0  0  0  0
 28 29  2  0  0  0  0
 29 30  1  0  0  0  0
 29 31  1  0  0  0  0
 30 44  1  0  0  0  0
 31 32  1  0  0  0  0
 32 33  1  0  0  0  0
 32 45  1  0  0  0  0
 32 46  1  0  0  0  0
M  END
$$$$
ZINC04199944
  -OEChem-08230709403D

 58 63  0     1  0  0  0  0  0999 V2000
    2.4257    4.1084    0.0005 C   0  0  0  0  0  0  0  0  0  0  0  0
    1.1601    3.4449    0.0090 O   0  0  0  0  0  0  0  0  0  0  0  0
    1.1759    2.0860    0.0020 C   0  0  0  0  0  0  0  0  0  0  0  0
   -0.0167    1.3772    0.0096 C   0  0  0  0  0  0  0  0  0  0  0  0
    0.0021   -0.0041    0.0020 C   0  0  0  0  0  0  0  0  0  0  0  0
    1.2080   -0.6802   -0.0131 C   0  0  0  0  0  0  0  0  0  0  0  0
    2.3980    0.0239   -0.0207 C   0  0  0  0  0  0  0  0  0  0  0  0
    2.3846    1.4052   -0.0127 C   0  0  0  0  0  0  0  0  0  0  0  0
    1.2256   -2.1871   -0.0209 C   0  0  2  0  0  0  0  0  0  0  0  0
    0.2645   -2.5705   -0.3637 H   0  0  0  0  0  0  0  0  0  0  0  0
    1.5297   -2.7114    1.3687 C   0  0  0  0  0  0  0  0  0  0  0  0
    2.5208   -3.5916    1.6334 C   0  0  0  0  0  0  0  0  0  0  0  0
    2.4820   -3.8450    3.0621 C   0  0  0  0  0  0  0  0  0  0  0  0
    3.2501   -4.6614    3.8977 C   0  0  0  0  0  0  0  0  0  0  0  0
    2.9306   -4.6560    5.2332 C   0  0  0  0  0  0  0  0  0  0  0  0
    1.8986   -3.8832    5.7400 C   0  0  0  0  0  0  0  0  0  0  0  0
    1.1223   -3.0674    4.9353 C   0  0  0  0  0  0  0  0  0  0  0  0
    1.4237   -3.0529    3.5748 C   0  0  0  0  0  0  0  0  0  0  0  0
    0.8734   -2.3808    2.5219 N   0  0  0  0  0  0  0  0  0  0  0  0
    0.1285   -1.7624    2.5819 H   0  0  0  0  0  0  0  0  0  0  0  0
    3.4722   -4.1829    0.6237 C   0  0  0  0  0  0  0  0  0  0  0  0
    2.8806   -4.0320   -0.7828 C   0  0  1  0  0  0  0  0  0  0  0  0
    2.1450   -4.8038   -1.0092 H   0  0  0  0  0  0  0  0  0  0  0  0
    2.3024   -2.6744   -0.8917 N   0  0  0  0  0  0  0  0  0  0  0  0
    2.9464   -2.0468   -1.8774 C   0  0  0  0  0  0  0  0  0  0  0  0
    2.6712   -0.9275   -2.2628 O   0  0  0  0  0  0  0  0  0  0  0  0
    3.9328   -2.7943   -2.3930 N   0  0  0  0  0  0  0  0  0  0  0  0
    3.9990   -4.0062   -1.8049 C   0  0  0  0  0  0  0  0  0  0  0  0
    4.7903   -4.8928   -2.0448 O   0  0  0  0  0  0  0  0  0  0  0  0
    4.8283   -2.3496   -3.4639 C   0  0  0  0  0  0  0  0  0  0  0  0
    6.0542   -1.6677   -2.8533 C   0  0  0  0  0  0  0  0  0  0  0  0
    6.9753   -1.2102   -3.9548 C   0  0  0  0  0  0  0  0  0  0  0  0
    7.3586    0.1164   -4.0180 C   0  0  0  0  0  0  0  0  0  0  0  0
    8.2110    0.5256   -5.0318 C   0  0  0  0  0  0  0  0  0  0  0  0
    8.6388   -0.4166   -5.9549 C   0  0  0  0  0  0  0  0  0  0  0  0
    8.2088   -1.7240   -5.8313 C   0  0  0  0  0  0  0  0  0  0  0  0
    7.4020   -2.0789   -4.8502 N   0  0  0  0  0  0  0  0  0  0  0  0
    2.9777    3.8266   -0.8961 H   0  0  0  0  0  0  0  0  0  0  0  0
    2.2703    5.1873    0.0074 H   0  0  0  0  0  0  0  0  0  0  0  0
    2.9944    3.8176    0.8838 H   0  0  0  0  0  0  0  0  0  0  0  0
   -0.9589    1.9049    0.0169 H   0  0  0  0  0  0  0  0  0  0  0  0
   -0.9260   -0.5563    0.0083 H   0  0  0  0  0  0  0  0  0  0  0  0
    3.3387   -0.5065   -0.0325 H   0  0  0  0  0  0  0  0  0  0  0  0
    3.3144    1.9547   -0.0186 H   0  0  0  0  0  0  0  0  0  0  0  0
    4.0560   -5.2676    3.5113 H   0  0  0  0  0  0  0  0  0  0  0  0
    3.5019   -5.2741    5.9100 H   0  0  0  0  0  0  0  0  0  0  0  0
    1.6928   -3.9183    6.7997 H   0  0  0  0  0  0  0  0  0  0  0  0
    0.3206   -2.4695    5.3428 H   0  0  0  0  0  0  0  0  0  0  0  0
    3.6241   -5.2398    0.8427 H   0  0  0  0  0  0  0  0  0  0  0  0
    4.4273   -3.6602    0.6743 H   0  0  0  0  0  0  0  0  0  0  0  0
    5.1466   -3.2102   -4.0522 H   0  0  0  0  0  0  0  0  0  0  0  0
    4.3028   -1.6440   -4.1073 H   0  0  0  0  0  0  0  0  0  0  0  0
    5.7359   -0.8070   -2.2650 H   0  0  0  0  0  0  0  0  0  0  0  0
    6.5797   -2.3733   -2.2098 H   0  0  0  0  0  0  0  0  0  0  0  0
    7.0019    0.8242   -3.2844 H   0  0  0  0  0  0  0  0  0  0  0  0
    8.5311    1.5546   -5.1033 H   0  0  0  0  0  0  0  0  0  0  0  0
    9.3000   -0.1323   -6.7601 H   0  0  0  0  0  0  0  0  0  0  0  0
    8.5375   -2.4638   -6.5462 H   0  0  0  0  0  0  0  0  0  0  0  0
  1  2  1  0  0  0  0
  1 38  1  0  0  0  0
  1 39  1  0  0  0  0
  1 40  1  0  0  0  0
  2  3  1  0  0  0  0
  3  8  2  0  0  0  0
  3  4  1  0  0  0  0
  4  5  2  0  0  0  0
  4 41  1  0  0  0  0
  5  6  1  0  0  0  0
  5 42  1  0  0  0  0
  6  7  2  0  0  0  0
  6  9  1  0  0  0  0
  7  8  1  0  0  0  0
  7 43  1  0  0  0  0
  8 44  1  0  0  0  0
  9 10  1  0  0  0  0
  9 24  1  0  0  0  0
  9 11  1  0  0  0  0
 11 19  1  0  0  0  0
 11 12  2  0  0  0  0
 12 13  1  0  0  0  0
 12 21  1  0  0  0  0
 13 18  2  0  0  0  0
 13 14  1  0  0  0  0
 14 15  2  0  0  0  0
 14 45  1  0  0  0  0
 15 16  1  0  0  0  0
 15 46  1  0  0  0  0
 16 17  2  0  0  0  0
 16 47  1  0  0  0  0
 17 18  1  0  0  0  0
 17 48  1  0  0  0  0
 18 19  1  0  0  0  0
 19 20  1  0  0  0  0
 21 22  1  0  0  0  0
 21 49  1  0  0  0  0
 21 50  1  0  0  0  0
 22 23  1  0  0  0  0
 22 28  1  0  0  0  0
 22 24  1  0  0  0  0
 24 25  1  0  0  0  0
 25 26  2  0  0  0  0
 25 27  1  0  0  0  0
 27 28  1  0  0  0  0
 27 30  1  0  0  0  0
 28 29  2  0  0  0  0
 30 31  1  0  0  0  0
 30 51  1  0  0  0  0
 30 52  1  0  0  0  0
 31 32  1  0  0  0  0
 31 53  1  0  0  0  0
 31 54  1  0  0  0  0
 32 37  2  0  0  0  0
 32 33  1  0  0  0  0
 33 34  2  0  0  0  0
 33 55  1  0  0  0  0
 34 35  1  0  0  0  0
 34 56  1  0  0  0  0
 35 36  2  0  0  0  0
 35 57  1  0  0  0  0
 36 37  1  0  0  0  0
 36 58  1  0  0  0  0
M  END
$$$$
ZINC04199945
  -OEChem-08230709403D

 65 71  0     1  0  0  0  0  0999 V2000
   -4.1383   -5.7913   -4.4074 C   0  0  0  0  0  0  0  0  0  0  0  0
   -4.7776   -4.5668   -4.5132 C   0  0  0  0  0  0  0  0  0  0  0  0
   -4.5896   -3.5531   -3.5899 C   0  0  0  0  0  0  0  0  0  0  0  0
   -3.7191   -3.8149   -2.5339 C   0  0  0  0  0  0  0  0  0  0  0  0
   -3.0678   -5.0708   -2.4300 C   0  0  0  0  0  0  0  0  0  0  0  0
   -3.2762   -6.0775   -3.3778 C   0  0  0  0  0  0  0  0  0  0  0  0
   -2.2531   -5.0018   -1.2338 C   0  0  0  0  0  0  0  0  0  0  0  0
   -2.4368   -3.7741   -0.7016 C   0  0  0  0  0  0  0  0  0  0  0  0
   -3.3135   -3.0579   -1.4726 N   0  0  0  0  0  0  0  0  0  0  0  0
   -3.6023   -2.1497   -1.2921 H   0  0  0  0  0  0  0  0  0  0  0  0
   -1.7543   -3.3018    0.5619 C   0  0  1  0  0  0  0  0  0  0  0  0
   -2.4868   -2.8585    1.2365 H   0  0  0  0  0  0  0  0  0  0  0  0
   -1.1354   -4.4838    1.1988 N   0  0  0  0  0  0  0  0  0  0  0  0
   -0.3908   -5.4082    0.3447 C   0  0  2  0  0  0  0  0  0  0  0  0
    0.3505   -4.8447   -0.2220 H   0  0  0  0  0  0  0  0  0  0  0  0
   -1.3580   -6.0649   -0.6504 C   0  0  0  0  0  0  0  0  0  0  0  0
    0.3082   -6.4654    1.1372 C   0  0  0  0  0  0  0  0  0  0  0  0
    1.0340   -7.2340    0.5427 O   0  0  0  0  0  0  0  0  0  0  0  0
    0.1843   -6.6174    2.4542 N   0  0  0  0  0  0  0  0  0  0  0  0
   -0.6450   -5.7669    3.2917 C   0  0  0  0  0  0  0  0  0  0  0  0
   -1.2809   -4.6614    2.5135 C   0  0  0  0  0  0  0  0  0  0  0  0
   -1.9765   -3.8723    3.1171 O   0  0  0  0  0  0  0  0  0  0  0  0
    0.9265   -7.7052    3.0962 C   0  0  0  0  0  0  0  0  0  0  0  0
    0.0659   -8.9701    3.1117 C   0  0  0  0  0  0  0  0  0  0  0  0
    1.9770  -10.4495    2.9501 C   0  0  0  0  0  0  0  0  0  0  0  0
    2.7552  -11.5445    3.6844 C   0  0  0  0  0  0  0  0  0  0  0  0
    1.8844  -12.6489    3.9440 O   0  0  0  0  0  0  0  0  0  0  0  0
    0.7375  -12.3061    4.7267 C   0  0  0  0  0  0  0  0  0  0  0  0
   -0.0611  -11.2188    4.0029 C   0  0  0  0  0  0  0  0  0  0  0  0
   -0.6921   -2.2882    0.2221 C   0  0  0  0  0  0  0  0  0  0  0  0
   -0.6810   -1.0608    0.8584 C   0  0  0  0  0  0  0  0  0  0  0  0
    0.2912   -0.1278    0.5501 C   0  0  0  0  0  0  0  0  0  0  0  0
    1.2579   -0.4212   -0.3980 C   0  0  0  0  0  0  0  0  0  0  0  0
    1.2465   -1.6573   -1.0393 C   0  0  0  0  0  0  0  0  0  0  0  0
    0.2688   -2.5874   -0.7256 C   0  0  0  0  0  0  0  0  0  0  0  0
    2.2891   -1.7020   -1.9193 O   0  0  0  0  0  0  0  0  0  0  0  0
    2.6931   -0.3326   -2.1064 C   0  0  0  0  0  0  0  0  0  0  0  0
    2.3076    0.3088   -0.8762 O   0  0  0  0  0  0  0  0  0  0  0  0
   -4.3237   -6.5446   -5.1588 H   0  0  0  0  0  0  0  0  0  0  0  0
   -5.4457   -4.3976   -5.3447 H   0  0  0  0  0  0  0  0  0  0  0  0
   -5.0945   -2.6030   -3.6835 H   0  0  0  0  0  0  0  0  0  0  0  0
   -2.7820   -7.0349   -3.3037 H   0  0  0  0  0  0  0  0  0  0  0  0
   -0.7910   -6.5434   -1.4490 H   0  0  0  0  0  0  0  0  0  0  0  0
   -1.9638   -6.8092   -0.1337 H   0  0  0  0  0  0  0  0  0  0  0  0
   -0.0277   -5.3357    4.0798 H   0  0  0  0  0  0  0  0  0  0  0  0
   -1.4268   -6.3746    3.7472 H   0  0  0  0  0  0  0  0  0  0  0  0
    1.8441   -7.8968    2.5399 H   0  0  0  0  0  0  0  0  0  0  0  0
    1.1743   -7.4217    4.1191 H   0  0  0  0  0  0  0  0  0  0  0  0
   -0.8517   -8.7785    3.6680 H   0  0  0  0  0  0  0  0  0  0  0  0
   -0.1819   -9.2535    2.0888 H   0  0  0  0  0  0  0  0  0  0  0  0
    1.6429  -10.8263    1.9834 H   0  0  0  0  0  0  0  0  0  0  0  0
    2.6212   -9.5830    2.8008 H   0  0  0  0  0  0  0  0  0  0  0  0
    3.1351  -11.1511    4.6273 H   0  0  0  0  0  0  0  0  0  0  0  0
    3.5889  -11.8761    3.0654 H   0  0  0  0  0  0  0  0  0  0  0  0
    1.0587  -11.9349    5.6998 H   0  0  0  0  0  0  0  0  0  0  0  0
    0.1117  -13.1882    4.8621 H   0  0  0  0  0  0  0  0  0  0  0  0
   -0.9048  -10.9139    4.6221 H   0  0  0  0  0  0  0  0  0  0  0  0
   -0.4285  -11.6075    3.0531 H   0  0  0  0  0  0  0  0  0  0  0  0
   -1.4334   -0.8307    1.5983 H   0  0  0  0  0  0  0  0  0  0  0  0
    0.2976    0.8301    1.0490 H   0  0  0  0  0  0  0  0  0  0  0  0
    0.2575   -3.5468   -1.2214 H   0  0  0  0  0  0  0  0  0  0  0  0
    3.7716   -0.2678   -2.2505 H   0  0  0  0  0  0  0  0  0  0  0  0
    2.1654    0.1104   -2.9510 H   0  0  0  0  0  0  0  0  0  0  0  0
    0.8199  -10.0530    3.7796 N   0  3  0  0  0  0  0  0  0  0  0  0
    1.1601   -9.7126    4.6866 H   0  0  0  0  0  0  0  0  0  0  0  0
  1  6  2  0  0  0  0
  1  2  1  0  0  0  0
  1 39  1  0  0  0  0
  2  3  2  0  0  0  0
  2 40  1  0  0  0  0
  3  4  1  0  0  0  0
  3 41  1  0  0  0  0
  4  9  1  0  0  0  0
  4  5  2  0  0  0  0
  5  6  1  0  0  0  0
  5  7  1  0  0  0  0
  6 42  1  0  0  0  0
  7 16  1  0  0  0  0
  7  8  2  0  0  0  0
  8  9  1  0  0  0  0
  8 11  1  0  0  0  0
  9 10  1  0  0  0  0
 11 12  1  0  0  0  0
 11 13  1  0  0  0  0
 11 30  1  0  0  0  0
 13 21  1  0  0  0  0
 13 14  1  0  0  0  0
 14 15  1  0  0  0  0
 14 16  1  0  0  0  0
 14 17  1  0  0  0  0
 16 43  1  0  0  0  0
 16 44  1  0  0  0  0
 17 18  2  0  0  0  0
 17 19  1  0  0  0  0
 19 20  1  0  0  0  0
 19 23  1  0  0  0  0
 20 21  1  0  0  0  0
 20 45  1  0  0  0  0
 20 46  1  0  0  0  0
 21 22  2  0  0  0  0
 23 24  1  0  0  0  0
 23 47  1  0  0  0  0
 23 48  1  0  0  0  0
 24 49  1  0  0  0  0
 24 50  1  0  0  0  0
 24 64  1  0  0  0  0
 25 26  1  0  0  0  0
 25 51  1  0  0  0  0
 25 52  1  0  0  0  0
 25 64  1  0  0  0  0
 26 27  1  0  0  0  0
 26 53  1  0  0  0  0
 26 54  1  0  0  0  0
 27 28  1  0  0  0  0
 28 29  1  0  0  0  0
 28 55  1  0  0  0  0
 28 56  1  0  0  0  0
 29 57  1  0  0  0  0
 29 58  1  0  0  0  0
 29 64  1  0  0  0  0
 30 35  2  0  0  0  0
 30 31  1  0  0  0  0
 31 32  2  0  0  0  0
 31 59  1  0  0  0  0
 32 33  1  0  0  0  0
 32 60  1  0  0  0  0
 33 38  1  0  0  0  0
 33 34  2  0  0  0  0
 34 35  1  0  0  0  0
 34 36  1  0  0  0  0
 35 61  1  0  0  0  0
 36 37  1  0  0  0  0
 37 38  1  0  0  0  0
 37 62  1  0  0  0  0
 37 63  1  0  0  0  0
 64 65  1  0  0  0  0
M  CHG  1  64   1
M  END
$$$$
ZINC04199946
  -OEChem-08230709403D

 71 77  0     1  0  0  0  0  0999 V2000
   -7.4104    1.9103   -1.5015 C   0  0  0  0  0  0  0  0  0  0  0  0
   -6.0079    2.2891   -1.1010 C   0  0  0  0  0  0  0  0  0  0  0  0
   -5.7256    3.5863   -0.7156 C   0  0  0  0  0  0  0  0  0  0  0  0
   -4.4391    3.9338   -0.3483 C   0  0  0  0  0  0  0  0  0  0  0  0
   -3.4350    2.9839   -0.3655 C   0  0  0  0  0  0  0  0  0  0  0  0
   -3.7162    1.6879   -0.7554 C   0  0  0  0  0  0  0  0  0  0  0  0
   -5.0036    1.3393   -1.1186 C   0  0  0  0  0  0  0  0  0  0  0  0
   -2.0324    3.3627    0.0351 C   0  0  1  0  0  0  0  0  0  0  0  0
   -2.0186    4.3825    0.4198 H   0  0  0  0  0  0  0  0  0  0  0  0
   -1.5237    2.4078    1.0912 C   0  0  0  0  0  0  0  0  0  0  0  0
   -0.5828    1.4654    0.8559 C   0  0  0  0  0  0  0  0  0  0  0  0
   -0.3722    0.7582    2.1009 C   0  0  0  0  0  0  0  0  0  0  0  0
    0.4660   -0.3030    2.4568 C   0  0  0  0  0  0  0  0  0  0  0  0
    0.4086   -0.7282    3.7611 C   0  0  0  0  0  0  0  0  0  0  0  0
   -0.4354   -0.1419    4.6901 C   0  0  0  0  0  0  0  0  0  0  0  0
   -1.2759    0.9087    4.3649 C   0  0  0  0  0  0  0  0  0  0  0  0
   -1.2398    1.3611    3.0474 C   0  0  0  0  0  0  0  0  0  0  0  0
   -1.9201    2.3526    2.4009 N   0  0  0  0  0  0  0  0  0  0  0  0
   -2.5842    2.9309    2.8079 H   0  0  0  0  0  0  0  0  0  0  0  0
    0.0848    1.2366   -0.4760 C   0  0  0  0  0  0  0  0  0  0  0  0
   -0.7477    1.9130   -1.5742 C   0  0  1  0  0  0  0  0  0  0  0  0
   -1.6575    1.3340   -1.7330 H   0  0  0  0  0  0  0  0  0  0  0  0
   -1.1297    3.2530   -1.1308 N   0  0  0  0  0  0  0  0  0  0  0  0
   -0.7079    4.3682   -1.7301 C   0  0  0  0  0  0  0  0  0  0  0  0
   -1.0306    5.4299   -1.2406 O   0  0  0  0  0  0  0  0  0  0  0  0
    0.1351    4.3972   -2.9633 C   0  0  0  0  0  0  0  0  0  0  0  0
    0.4242    3.0617   -3.4585 N   0  0  0  0  0  0  0  0  0  0  0  0
    0.0333    1.9447   -2.8483 C   0  0  0  0  0  0  0  0  0  0  0  0
    0.3301    0.8853   -3.3587 O   0  0  0  0  0  0  0  0  0  0  0  0
    1.1906    2.9373   -4.7008 C   0  0  1  0  0  0  0  0  0  0  0  0
    1.3438    1.8865   -4.9468 H   0  0  0  0  0  0  0  0  0  0  0  0
    0.4617    3.6568   -5.8544 C   0  0  0  0  0  0  0  0  0  0  0  0
    1.4389    4.7564   -6.3225 C   0  0  0  0  0  0  0  0  0  0  0  0
    2.5469    3.6627   -4.5690 C   0  0  0  0  0  0  0  0  0  0  0  0
    3.7397    5.3767   -5.8215 C   0  0  0  0  0  0  0  0  0  0  0  0
    4.0481    5.8802   -7.2080 C   0  0  0  0  0  0  0  0  0  0  0  0
    5.0984    5.3361   -7.9233 C   0  0  0  0  0  0  0  0  0  0  0  0
    5.3783    5.7947   -9.1970 C   0  0  0  0  0  0  0  0  0  0  0  0
    4.6141    6.8043   -9.7515 C   0  0  0  0  0  0  0  0  0  0  0  0
    3.5673    7.3524   -9.0340 C   0  0  0  0  0  0  0  0  0  0  0  0
    3.2841    6.8902   -7.7624 C   0  0  0  0  0  0  0  0  0  0  0  0
   -7.5358    2.0625   -2.5735 H   0  0  0  0  0  0  0  0  0  0  0  0
   -7.5865    0.8620   -1.2603 H   0  0  0  0  0  0  0  0  0  0  0  0
   -8.1233    2.5323   -0.9603 H   0  0  0  0  0  0  0  0  0  0  0  0
   -6.5102    4.3284   -0.7018 H   0  0  0  0  0  0  0  0  0  0  0  0
   -4.2185    4.9474   -0.0475 H   0  0  0  0  0  0  0  0  0  0  0  0
   -2.9308    0.9468   -0.7731 H   0  0  0  0  0  0  0  0  0  0  0  0
   -5.2242    0.3258   -1.4194 H   0  0  0  0  0  0  0  0  0  0  0  0
    1.1275   -0.7662    1.7396 H   0  0  0  0  0  0  0  0  0  0  0  0
    1.0420   -1.5456    4.0729 H   0  0  0  0  0  0  0  0  0  0  0  0
   -0.4380   -0.5176    5.7026 H   0  0  0  0  0  0  0  0  0  0  0  0
   -1.9298    1.3569    5.0984 H   0  0  0  0  0  0  0  0  0  0  0  0
    0.1488    0.1665   -0.6733 H   0  0  0  0  0  0  0  0  0  0  0  0
    1.0867    1.6657   -0.4608 H   0  0  0  0  0  0  0  0  0  0  0  0
    1.0743    4.9027   -2.7386 H   0  0  0  0  0  0  0  0  0  0  0  0
   -0.3911    4.9558   -3.7374 H   0  0  0  0  0  0  0  0  0  0  0  0
    0.2588    2.9596   -6.6673 H   0  0  0  0  0  0  0  0  0  0  0  0
   -0.4663    4.1025   -5.4962 H   0  0  0  0  0  0  0  0  0  0  0  0
    1.3952    4.8677   -7.4059 H   0  0  0  0  0  0  0  0  0  0  0  0
    1.2094    5.7026   -5.8326 H   0  0  0  0  0  0  0  0  0  0  0  0
    2.4908    4.4378   -3.8047 H   0  0  0  0  0  0  0  0  0  0  0  0
    3.3375    2.9506   -4.3321 H   0  0  0  0  0  0  0  0  0  0  0  0
    3.3116    6.1848   -5.2284 H   0  0  0  0  0  0  0  0  0  0  0  0
    4.6577    5.0265   -5.3496 H   0  0  0  0  0  0  0  0  0  0  0  0
    5.6981    4.5501   -7.4884 H   0  0  0  0  0  0  0  0  0  0  0  0
    6.1964    5.3667   -9.7573 H   0  0  0  0  0  0  0  0  0  0  0  0
    4.8351    7.1651  -10.7452 H   0  0  0  0  0  0  0  0  0  0  0  0
    2.9704    8.1414   -9.4672 H   0  0  0  0  0  0  0  0  0  0  0  0
    2.4663    7.3184   -7.2019 H   0  0  0  0  0  0  0  0  0  0  0  0
    2.7486    4.2568   -5.8884 N   0  3  2  0  0  0  0  0  0  0  0  0
    3.0886    3.5447   -6.5453 H   0  0  0  0  0  0  0  0  0  0  0  0
  1  2  1  0  0  0  0
  1 42  1  0  0  0  0
  1 43  1  0  0  0  0
  1 44  1  0  0  0  0
  2  7  2  0  0  0  0
  2  3  1  0  0  0  0
  3  4  2  0  0  0  0
  3 45  1  0  0  0  0
  4  5  1  0  0  0  0
  4 46  1  0  0  0  0
  5  6  2  0  0  0  0
  5  8  1  0  0  0  0
  6  7  1  0  0  0  0
  6 47  1  0  0  0  0
  7 48  1  0  0  0  0
  8  9  1  0  0  0  0
  8 23  1  0  0  0  0
  8 10  1  0  0  0  0
 10 18  1  0  0  0  0
 10 11  2  0  0  0  0
 11 12  1  0  0  0  0
 11 20  1  0  0  0  0
 12 17  2  0  0  0  0
 12 13  1  0  0  0  0
 13 14  2  0  0  0  0
 13 49  1  0  0  0  0
 14 15  1  0  0  0  0
 14 50  1  0  0  0  0
 15 16  2  0  0  0  0
 15 51  1  0  0  0  0
 16 17  1  0  0  0  0
 16 52  1  0  0  0  0
 17 18  1  0  0  0  0
 18 19  1  0  0  0  0
 20 21  1  0  0  0  0
 20 53  1  0  0  0  0
 20 54  1  0  0  0  0
 21 22  1  0  0  0  0
 21 28  1  0  0  0  0
 21 23  1  0  0  0  0
 23 24  1  0  0  0  0
 24 25  2  0  0  0  0
 24 26  1  0  0  0  0
 26 27  1  0  0  0  0
 26 55  1  0  0  0  0
 26 56  1  0  0  0  0
 27 28  1  0  0  0  0
 27 30  1  0  0  0  0
 28 29  2  0  0  0  0
 30 31  1  0  0  0  0
 30 34  1  0  0  0  0
 30 32  1  0  0  0  0
 32 33  1  0  0  0  0
 32 57  1  0  0  0  0
 32 58  1  0  0  0  0
 33 59  1  0  0  0  0
 33 60  1  0  0  0  0
 33 70  1  0  0  0  0
 34 61  1  0  0  0  0
 34 62  1  0  0  0  0
 34 70  1  0  0  0  0
 35 36  1  0  0  0  0
 35 63  1  0  0  0  0
 35 64  1  0  0  0  0
 35 70  1  0  0  0  0
 36 41  2  0  0  0  0
 36 37  1  0  0  0  0
 37 38  2  0  0  0  0
 37 65  1  0  0  0  0
 38 39  1  0  0  0  0
 38 66  1  0  0  0  0
 39 40  2  0  0  0  0
 39 67  1  0  0  0  0
 40 41  1  0  0  0  0
 40 68  1  0  0  0  0
 41 69  1  0  0  0  0
 70 71  1  0  0  0  0
M  CHG  1  70   1
M  END
$$$$
ZINC04199947
  -OEChem-08230709403D

 42 44  0     0  0  0  0  0  0999 V2000
    4.9495    3.9382    3.4839 C   0  0  0  0  0  0  0  0  0  0  0  0
    4.0278    4.7479    2.5697 C   0  0  0  0  0  0  0  0  0  0  0  0
    2.8880    3.9198    2.1681 N   0  0  0  0  0  0  0  0  0  0  0  0
    2.8328    3.1150    1.0650 C   0  0  0  0  0  0  0  0  0  0  0  0
    1.5615    2.5134    1.0749 C   0  0  0  0  0  0  0  0  0  0  0  0
    0.8822    2.9946    2.2179 C   0  0  0  0  0  0  0  0  0  0  0  0
    1.6696    3.8169    2.8490 N   0  0  0  0  0  0  0  0  0  0  0  0
    1.2164    1.6205    0.0424 C   0  0  0  0  0  0  0  0  0  0  0  0
    2.1755    1.3691   -0.9557 C   0  0  0  0  0  0  0  0  0  0  0  0
    3.4156    2.0179   -0.8865 C   0  0  0  0  0  0  0  0  0  0  0  0
    1.8791    0.4424   -2.0584 C   0  0  0  0  0  0  0  0  0  0  0  0
    0.7697   -0.0432   -2.1627 O   0  0  0  0  0  0  0  0  0  0  0  0
   -0.0191    1.0081    0.0135 N   0  0  0  0  0  0  0  0  0  0  0  0
   -0.0380   -0.1801    0.8770 C   0  0  0  0  0  0  0  0  0  0  0  0
   -1.3938   -0.8338    0.8024 C   0  0  0  0  0  0  0  0  0  0  0  0
   -2.3879   -0.4643    1.6897 C   0  0  0  0  0  0  0  0  0  0  0  0
   -3.6333   -1.0583    1.6207 C   0  0  0  0  0  0  0  0  0  0  0  0
   -3.8835   -2.0339    0.6670 C   0  0  0  0  0  0  0  0  0  0  0  0
   -2.8827   -2.4073   -0.2194 C   0  0  0  0  0  0  0  0  0  0  0  0
   -1.6397   -1.8058   -0.1494 C   0  0  0  0  0  0  0  0  0  0  0  0
   -3.1915   -3.6275   -1.4150 Cl  0  0  0  0  0  0  0  0  0  0  0  0
   -5.1066   -2.6230    0.6004 O   0  0  0  0  0  0  0  0  0  0  0  0
   -6.0880   -2.1892    1.5441 C   0  0  0  0  0  0  0  0  0  0  0  0
    5.7976    4.5543    3.7827 H   0  0  0  0  0  0  0  0  0  0  0  0
    4.3980    3.6247    4.3703 H   0  0  0  0  0  0  0  0  0  0  0  0
    5.3096    3.0587    2.9500 H   0  0  0  0  0  0  0  0  0  0  0  0
    4.5793    5.0614    1.6833 H   0  0  0  0  0  0  0  0  0  0  0  0
    3.6678    5.6274    3.1036 H   0  0  0  0  0  0  0  0  0  0  0  0
   -0.1200    2.7251    2.5169 H   0  0  0  0  0  0  0  0  0  0  0  0
    4.1536    1.8311   -1.6525 H   0  0  0  0  0  0  0  0  0  0  0  0
   -0.7493    1.6547    0.2721 H   0  0  0  0  0  0  0  0  0  0  0  0
    0.7238   -0.8844    0.5426 H   0  0  0  0  0  0  0  0  0  0  0  0
    0.1668    0.1152    1.9060 H   0  0  0  0  0  0  0  0  0  0  0  0
   -2.1916    0.2922    2.4351 H   0  0  0  0  0  0  0  0  0  0  0  0
   -4.4103   -0.7661    2.3115 H   0  0  0  0  0  0  0  0  0  0  0  0
   -0.8603   -2.0959   -0.8384 H   0  0  0  0  0  0  0  0  0  0  0  0
   -7.0158   -2.7378    1.3817 H   0  0  0  0  0  0  0  0  0  0  0  0
   -5.7273   -2.3767    2.5555 H   0  0  0  0  0  0  0  0  0  0  0  0
   -6.2694   -1.1222    1.4151 H   0  0  0  0  0  0  0  0  0  0  0  0
    3.7744    2.8802    0.0928 N   0  3  0  0  0  0  0  0  0  0  0  0
    4.6961    3.3324    0.1082 H   0  0  0  0  0  0  0  0  0  0  0  0
    2.8378    0.1314   -2.9535 O   0  5  0  0  0  0  0  0  0  0  0  0
  1  2  1  0  0  0  0
  1 24  1  0  0  0  0
  1 25  1  0  0  0  0
  1 26  1  0  0  0  0
  2  3  1  0  0  0  0
  2 27  1  0  0  0  0
  2 28  1  0  0  0  0
  3  7  1  0  0  0  0
  3  4  1  0  0  0  0
  4  5  2  0  0  0  0
  4 40  1  0  0  0  0
  5  6  1  0  0  0  0
  5  8  1  0  0  0  0
  6  7  2  0  0  0  0
  6 29  1  0  0  0  0
  8  9  2  0  0  0  0
  8 13  1  0  0  0  0
  9 10  1  0  0  0  0
  9 11  1  0  0  0  0
 10 30  1  0  0  0  0
 10 40  2  0  0  0  0
 11 12  2  0  0  0  0
 11 42  1  0  0  0  0
 13 14  1  0  0  0  0
 13 31  1  0  0  0  0
 14 15  1  0  0  0  0
 14 32  1  0  0  0  0
 14 33  1  0  0  0  0
 15 20  2  0  0  0  0
 15 16  1  0  0  0  0
 16 17  2  0  0  0  0
 16 34  1  0  0  0  0
 17 18  1  0  0  0  0
 17 35  1  0  0  0  0
 18 19  2  0  0  0  0
 18 22  1  0  0  0  0
 19 20  1  0  0  0  0
 19 21  1  0  0  0  0
 20 36  1  0  0  0  0
 22 23  1  0  0  0  0
 23 37  1  0  0  0  0
 23 38  1  0  0  0  0
 23 39  1  0  0  0  0
 40 41  1  0  0  0  0
M  CHG  2  40   1  42  -1
M  END
$$$$
ZINC04199948
  -OEChem-08230709403D

 36 38  0     0  0  0  0  0  0999 V2000
    1.1788   -4.7663    0.6012 C   0  0  0  0  0  0  0  0  0  0  0  0
    0.0609   -4.1300   -0.0212 O   0  0  0  0  0  0  0  0  0  0  0  0
    0.0413   -2.7709   -0.0133 C   0  0  0  0  0  0  0  0  0  0  0  0
    1.0768   -2.0645    0.5807 C   0  0  0  0  0  0  0  0  0  0  0  0
    1.0575   -0.6831    0.5824 C   0  0  0  0  0  0  0  0  0  0  0  0
    0.0021   -0.0041    0.0020 C   0  0  0  0  0  0  0  0  0  0  0  0
   -1.0316   -0.7049   -0.5909 C   0  0  0  0  0  0  0  0  0  0  0  0
   -1.0148   -2.0873   -0.6001 C   0  0  0  0  0  0  0  0  0  0  0  0
   -2.3132   -2.9672   -1.3442 Cl  0  0  0  0  0  0  0  0  0  0  0  0
   -0.0184    1.5028    0.0103 C   0  0  0  0  0  0  0  0  0  0  0  0
   -0.7041    1.9752    1.2156 N   0  0  0  0  0  0  0  0  0  0  0  0
   -0.8469    3.3335    1.4434 C   0  0  0  0  0  0  0  0  0  0  0  0
   -1.5069    3.8042    2.6032 C   0  0  0  0  0  0  0  0  0  0  0  0
   -2.0408    2.9449    3.5654 C   0  0  0  0  0  0  0  0  0  0  0  0
   -2.6740    3.4832    4.6774 C   0  0  0  0  0  0  0  0  0  0  0  0
   -2.7782    4.8766    4.8359 C   0  0  0  0  0  0  0  0  0  0  0  0
   -2.2631    5.7254    3.9071 C   0  0  0  0  0  0  0  0  0  0  0  0
   -1.6183    5.2091    2.7741 C   0  0  0  0  0  0  0  0  0  0  0  0
   -1.0638    6.0349    1.7772 C   0  0  0  0  0  0  0  0  0  0  0  0
   -0.4736    5.4806    0.7424 N   0  0  0  0  0  0  0  0  0  0  0  0
   -0.3647    4.2142    0.5844 N   0  0  0  0  0  0  0  0  0  0  0  0
   -1.1585    7.7629    1.9139 Cl  0  0  0  0  0  0  0  0  0  0  0  0
   -3.2252    2.6123    5.6715 C   0  0  0  0  0  0  0  0  0  0  0  0
   -3.6624    1.9214    6.4602 N   0  0  0  0  0  0  0  0  0  0  0  0
    2.0971   -4.4573    0.1019 H   0  0  0  0  0  0  0  0  0  0  0  0
    1.2220   -4.4788    1.6518 H   0  0  0  0  0  0  0  0  0  0  0  0
    1.0700   -5.8482    0.5247 H   0  0  0  0  0  0  0  0  0  0  0  0
    1.8995   -2.5941    1.0379 H   0  0  0  0  0  0  0  0  0  0  0  0
    1.8659   -0.1330    1.0410 H   0  0  0  0  0  0  0  0  0  0  0  0
   -1.8526   -0.1721   -1.0475 H   0  0  0  0  0  0  0  0  0  0  0  0
    1.0042    1.8801    0.0026 H   0  0  0  0  0  0  0  0  0  0  0  0
   -0.5455    1.8639   -0.8728 H   0  0  0  0  0  0  0  0  0  0  0  0
   -1.0580    1.3365    1.8541 H   0  0  0  0  0  0  0  0  0  0  0  0
   -1.9617    1.8744    3.4463 H   0  0  0  0  0  0  0  0  0  0  0  0
   -3.2746    5.2779    5.7071 H   0  0  0  0  0  0  0  0  0  0  0  0
   -2.3506    6.7935    4.0413 H   0  0  0  0  0  0  0  0  0  0  0  0
  1  2  1  0  0  0  0
  1 25  1  0  0  0  0
  1 26  1  0  0  0  0
  1 27  1  0  0  0  0
  2  3  1  0  0  0  0
  3  8  2  0  0  0  0
  3  4  1  0  0  0  0
  4  5  2  0  0  0  0
  4 28  1  0  0  0  0
  5  6  1  0  0  0  0
  5 29  1  0  0  0  0
  6  7  2  0  0  0  0
  6 10  1  0  0  0  0
  7  8  1  0  0  0  0
  7 30  1  0  0  0  0
  8  9  1  0  0  0  0
 10 11  1  0  0  0  0
 10 31  1  0  0  0  0
 10 32  1  0  0  0  0
 11 12  1  0  0  0  0
 11 33  1  0  0  0  0
 12 21  2  0  0  0  0
 12 13  1  0  0  0  0
 13 18  2  0  0  0  0
 13 14  1  0  0  0  0
 14 15  2  0  0  0  0
 14 34  1  0  0  0  0
 15 16  1  0  0  0  0
 15 23  1  0  0  0  0
 16 17  2  0  0  0  0
 16 35  1  0  0  0  0
 17 18  1  0  0  0  0
 17 36  1  0  0  0  0
 18 19  1  0  0  0  0
 19 20  2  0  0  0  0
 19 22  1  0  0  0  0
 20 21  1  0  0  0  0
 23 24  3  0  0  0  0
M  END
$$$$
ZINC04199949
  -OEChem-08230709403D

 36 39  0     0  0  0  0  0  0999 V2000
   -1.7494    0.8235   -1.7737 C   0  0  0  0  0  0  0  0  0  0  0  0
   -2.4247    1.2797   -2.8909 C   0  0  0  0  0  0  0  0  0  0  0  0
   -2.0847    2.4971   -3.4572 C   0  0  0  0  0  0  0  0  0  0  0  0
   -1.0652    3.2622   -2.8950 C   0  0  0  0  0  0  0  0  0  0  0  0
   -0.3967    2.8014   -1.7730 C   0  0  0  0  0  0  0  0  0  0  0  0
   -0.7416    1.5850   -1.2129 C   0  0  0  0  0  0  0  0  0  0  0  0
   -0.0127    1.0858    0.0080 C   0  0  0  0  0  0  0  0  0  0  0  0
   -0.6984    1.5583    1.2133 N   0  0  0  0  0  0  0  0  0  0  0  0
   -0.2084    1.2232    2.4657 C   0  0  0  0  0  0  0  0  0  0  0  0
   -0.8599    1.6721    3.6375 C   0  0  0  0  0  0  0  0  0  0  0  0
   -2.0129    2.4633    3.6068 C   0  0  0  0  0  0  0  0  0  0  0  0
   -2.5858    2.8578    4.7799 C   0  0  0  0  0  0  0  0  0  0  0  0
   -2.0410    2.4853    6.0064 C   0  0  0  0  0  0  0  0  0  0  0  0
   -0.9179    1.7151    6.0721 C   0  0  0  0  0  0  0  0  0  0  0  0
   -0.3044    1.2921    4.8865 C   0  0  0  0  0  0  0  0  0  0  0  0
    0.8568    0.4945    4.8720 C   0  0  0  0  0  0  0  0  0  0  0  0
    1.3725    0.1389    3.7173 N   0  0  0  0  0  0  0  0  0  0  0  0
    0.8727    0.4741    2.5866 N   0  0  0  0  0  0  0  0  0  0  0  0
    1.5954   -0.0117    6.3592 Cl  0  0  0  0  0  0  0  0  0  0  0  0
   -3.8063    3.6948    4.7491 N   0  3  0  0  0  0  0  0  0  0  0  0
   -4.2910    4.0258    3.6819 O   0  0  0  0  0  0  0  0  0  0  0  0
   -4.3258    4.0525    5.7911 O   0  5  0  0  0  0  0  0  0  0  0  0
   -0.9230    4.4051   -3.6277 O   0  0  0  0  0  0  0  0  0  0  0  0
   -1.5845    4.1440   -4.8797 C   0  0  0  0  0  0  0  0  0  0  0  0
   -2.5808    3.1610   -4.5418 O   0  0  0  0  0  0  0  0  0  0  0  0
   -2.0131   -0.1279   -1.3359 H   0  0  0  0  0  0  0  0  0  0  0  0
   -3.2146    0.6845   -3.3246 H   0  0  0  0  0  0  0  0  0  0  0  0
    0.3940    3.3925   -1.3351 H   0  0  0  0  0  0  0  0  0  0  0  0
    0.0021   -0.0041    0.0020 H   0  0  0  0  0  0  0  0  0  0  0  0
    1.0099    1.4631    0.0003 H   0  0  0  0  0  0  0  0  0  0  0  0
   -1.4954    2.1056    1.1349 H   0  0  0  0  0  0  0  0  0  0  0  0
   -2.4458    2.7589    2.6625 H   0  0  0  0  0  0  0  0  0  0  0  0
   -2.5155    2.8120    6.9199 H   0  0  0  0  0  0  0  0  0  0  0  0
   -0.5056    1.4332    7.0297 H   0  0  0  0  0  0  0  0  0  0  0  0
   -0.8806    3.7411   -5.6080 H   0  0  0  0  0  0  0  0  0  0  0  0
   -2.0547    5.0505   -5.2609 H   0  0  0  0  0  0  0  0  0  0  0  0
  1  6  2  0  0  0  0
  1  2  1  0  0  0  0
  1 26  1  0  0  0  0
  2  3  2  0  0  0  0
  2 27  1  0  0  0  0
  3 25  1  0  0  0  0
  3  4  1  0  0  0  0
  4  5  2  0  0  0  0
  4 23  1  0  0  0  0
  5  6  1  0  0  0  0
  5 28  1  0  0  0  0
  6  7  1  0  0  0  0
  7  8  1  0  0  0  0
  7 29  1  0  0  0  0
  7 30  1  0  0  0  0
  8  9  1  0  0  0  0
  8 31  1  0  0  0  0
  9 18  2  0  0  0  0
  9 10  1  0  0  0  0
 10 15  2  0  0  0  0
 10 11  1  0  0  0  0
 11 12  2  0  0  0  0
 11 32  1  0  0  0  0
 12 13  1  0  0  0  0
 12 20  1  0  0  0  0
 13 14  2  0  0  0  0
 13 33  1  0  0  0  0
 14 15  1  0  0  0  0
 14 34  1  0  0  0  0
 15 16  1  0  0  0  0
 16 17  2  0  0  0  0
 16 19  1  0  0  0  0
 17 18  1  0  0  0  0
 20 21  2  0  0  0  0
 20 22  1  0  0  0  0
 23 24  1  0  0  0  0
 24 25  1  0  0  0  0
 24 35  1  0  0  0  0
 24 36  1  0  0  0  0
M  CHG  2  20   1  22  -1
M  END
$$$$
ZINC04199950
  -OEChem-08230709403D

 43 46  0     0  0  0  0  0  0999 V2000
    1.1788   -4.7663    0.6012 C   0  0  0  0  0  0  0  0  0  0  0  0
    0.0609   -4.1300   -0.0212 O   0  0  0  0  0  0  0  0  0  0  0  0
    0.0413   -2.7709   -0.0133 C   0  0  0  0  0  0  0  0  0  0  0  0
    1.0768   -2.0645    0.5807 C   0  0  0  0  0  0  0  0  0  0  0  0
    1.0575   -0.6831    0.5824 C   0  0  0  0  0  0  0  0  0  0  0  0
    0.0021   -0.0041    0.0020 C   0  0  0  0  0  0  0  0  0  0  0  0
   -1.0316   -0.7049   -0.5909 C   0  0  0  0  0  0  0  0  0  0  0  0
   -1.0148   -2.0873   -0.6001 C   0  0  0  0  0  0  0  0  0  0  0  0
   -2.3132   -2.9672   -1.3442 Cl  0  0  0  0  0  0  0  0  0  0  0  0
   -0.0184    1.5028    0.0103 C   0  0  0  0  0  0  0  0  0  0  0  0
   -0.7041    1.9752    1.2156 N   0  0  0  0  0  0  0  0  0  0  0  0
   -0.8471    3.3348    1.4436 C   0  0  0  0  0  0  0  0  0  0  0  0
   -1.5126    3.8042    2.6012 C   0  0  0  0  0  0  0  0  0  0  0  0
   -2.0514    2.9436    3.5594 C   0  0  0  0  0  0  0  0  0  0  0  0
   -2.6902    3.4804    4.6690 C   0  0  0  0  0  0  0  0  0  0  0  0
   -2.7950    4.8734    4.8285 C   0  0  0  0  0  0  0  0  0  0  0  0
   -2.2664    5.7233    3.9074 C   0  0  0  0  0  0  0  0  0  0  0  0
   -1.6204    5.2083    2.7762 C   0  0  0  0  0  0  0  0  0  0  0  0
   -1.0644    6.0378    1.7767 C   0  0  0  0  0  0  0  0  0  0  0  0
   -0.4724    5.4808    0.7396 N   0  0  0  0  0  0  0  0  0  0  0  0
   -0.3695    4.2140    0.5817 N   0  0  0  0  0  0  0  0  0  0  0  0
   -1.1410    7.4288    1.8866 N   0  0  0  0  0  0  0  0  0  0  0  0
   -0.1908    8.3322    1.4838 C   0  0  0  0  0  0  0  0  0  0  0  0
   -0.6698    9.5569    1.7732 C   0  0  0  0  0  0  0  0  0  0  0  0
   -1.8748    9.4116    2.3444 N   0  0  0  0  0  0  0  0  0  0  0  0
   -2.1685    8.1421    2.4181 C   0  0  0  0  0  0  0  0  0  0  0  0
   -3.2466    2.6083    5.6593 C   0  0  0  0  0  0  0  0  0  0  0  0
   -3.6880    1.9165    6.4448 N   0  0  0  0  0  0  0  0  0  0  0  0
    2.0971   -4.4573    0.1019 H   0  0  0  0  0  0  0  0  0  0  0  0
    1.2220   -4.4788    1.6518 H   0  0  0  0  0  0  0  0  0  0  0  0
    1.0700   -5.8482    0.5247 H   0  0  0  0  0  0  0  0  0  0  0  0
    1.8995   -2.5941    1.0379 H   0  0  0  0  0  0  0  0  0  0  0  0
    1.8659   -0.1330    1.0410 H   0  0  0  0  0  0  0  0  0  0  0  0
   -1.8526   -0.1721   -1.0475 H   0  0  0  0  0  0  0  0  0  0  0  0
    1.0042    1.8801    0.0026 H   0  0  0  0  0  0  0  0  0  0  0  0
   -0.5455    1.8639   -0.8728 H   0  0  0  0  0  0  0  0  0  0  0  0
   -1.0580    1.3365    1.8541 H   0  0  0  0  0  0  0  0  0  0  0  0
   -1.9718    1.8732    3.4392 H   0  0  0  0  0  0  0  0  0  0  0  0
   -3.2952    5.2740    5.6978 H   0  0  0  0  0  0  0  0  0  0  0  0
   -2.3537    6.7912    4.0424 H   0  0  0  0  0  0  0  0  0  0  0  0
    0.7585    8.1050    1.0216 H   0  0  0  0  0  0  0  0  0  0  0  0
   -0.1685   10.4942    1.5821 H   0  0  0  0  0  0  0  0  0  0  0  0
   -3.0758    7.7279    2.8323 H   0  0  0  0  0  0  0  0  0  0  0  0
  1  2  1  0  0  0  0
  1 29  1  0  0  0  0
  1 30  1  0  0  0  0
  1 31  1  0  0  0  0
  2  3  1  0  0  0  0
  3  8  2  0  0  0  0
  3  4  1  0  0  0  0
  4  5  2  0  0  0  0
  4 32  1  0  0  0  0
  5  6  1  0  0  0  0
  5 33  1  0  0  0  0
  6  7  2  0  0  0  0
  6 10  1  0  0  0  0
  7  8  1  0  0  0  0
  7 34  1  0  0  0  0
  8  9  1  0  0  0  0
 10 11  1  0  0  0  0
 10 35  1  0  0  0  0
 10 36  1  0  0  0  0
 11 12  1  0  0  0  0
 11 37  1  0  0  0  0
 12 21  2  0  0  0  0
 12 13  1  0  0  0  0
 13 18  2  0  0  0  0
 13 14  1  0  0  0  0
 14 15  2  0  0  0  0
 14 38  1  0  0  0  0
 15 16  1  0  0  0  0
 15 27  1  0  0  0  0
 16 17  2  0  0  0  0
 16 39  1  0  0  0  0
 17 18  1  0  0  0  0
 17 40  1  0  0  0  0
 18 19  1  0  0  0  0
 19 20  2  0  0  0  0
 19 22  1  0  0  0  0
 20 21  1  0  0  0  0
 22 26  1  0  0  0  0
 22 23  1  0  0  0  0
 23 24  2  0  0  0  0
 23 41  1  0  0  0  0
 24 25  1  0  0  0  0
 24 42  1  0  0  0  0
 25 26  2  0  0  0  0
 26 43  1  0  0  0  0
 27 28  3  0  0  0  0
M  END
$$$$
ZINC04199950
  -OEChem-08230709403D

 43 46  0     0  0  0  0  0  0999 V2000
    1.1788   -4.7663    0.6012 C   0  0  0  0  0  0  0  0  0  0  0  0
    0.0609   -4.1300   -0.0212 O   0  0  0  0  0  0  0  0  0  0  0  0
    0.0413   -2.7709   -0.0133 C   0  0  0  0  0  0  0  0  0  0  0  0
    1.0768   -2.0645    0.5807 C   0  0  0  0  0  0  0  0  0  0  0  0
    1.0575   -0.6831    0.5824 C   0  0  0  0  0  0  0  0  0  0  0  0
    0.0021   -0.0041    0.0020 C   0  0  0  0  0  0  0  0  0  0  0  0
   -1.0316   -0.7049   -0.5909 C   0  0  0  0  0  0  0  0  0  0  0  0
   -1.0148   -2.0873   -0.6001 C   0  0  0  0  0  0  0  0  0  0  0  0
   -2.3132   -2.9672   -1.3442 Cl  0  0  0  0  0  0  0  0  0  0  0  0
   -0.0184    1.5028    0.0103 C   0  0  0  0  0  0  0  0  0  0  0  0
   -0.7041    1.9752    1.2156 N   0  0  0  0  0  0  0  0  0  0  0  0
   -0.8471    3.3348    1.4436 C   0  0  0  0  0  0  0  0  0  0  0  0
   -1.5126    3.8042    2.6012 C   0  0  0  0  0  0  0  0  0  0  0  0
   -2.0514    2.9436    3.5594 C   0  0  0  0  0  0  0  0  0  0  0  0
   -2.6902    3.4804    4.6690 C   0  0  0  0  0  0  0  0  0  0  0  0
   -2.7950    4.8734    4.8285 C   0  0  0  0  0  0  0  0  0  0  0  0
   -2.2664    5.7233    3.9074 C   0  0  0  0  0  0  0  0  0  0  0  0
   -1.6204    5.2083    2.7762 C   0  0  0  0  0  0  0  0  0  0  0  0
   -1.0644    6.0378    1.7767 C   0  0  0  0  0  0  0  0  0  0  0  0
   -0.4724    5.4808    0.7396 N   0  0  0  0  0  0  0  0  0  0  0  0
   -0.3695    4.2140    0.5817 N   0  0  0  0  0  0  0  0  0  0  0  0
   -1.1410    7.4288    1.8866 N   0  0  0  0  0  0  0  0  0  0  0  0
   -0.1908    8.3322    1.4838 C   0  0  0  0  0  0  0  0  0  0  0  0
   -0.6698    9.5569    1.7732 C   0  0  0  0  0  0  0  0  0  0  0  0
   -1.8748    9.4116    2.3444 N   0  0  0  0  0  0  0  0  0  0  0  0
   -2.1685    8.1421    2.4181 C   0  0  0  0  0  0  0  0  0  0  0  0
   -3.2466    2.6083    5.6593 C   0  0  0  0  0  0  0  0  0  0  0  0
   -3.6880    1.9165    6.4448 N   0  0  0  0  0  0  0  0  0  0  0  0
    2.0971   -4.4573    0.1019 H   0  0  0  0  0  0  0  0  0  0  0  0
    1.2220   -4.4788    1.6518 H   0  0  0  0  0  0  0  0  0  0  0  0
    1.0700   -5.8482    0.5247 H   0  0  0  0  0  0  0  0  0  0  0  0
    1.8995   -2.5941    1.0379 H   0  0  0  0  0  0  0  0  0  0  0  0
    1.8659   -0.1330    1.0410 H   0  0  0  0  0  0  0  0  0  0  0  0
   -1.8526   -0.1721   -1.0475 H   0  0  0  0  0  0  0  0  0  0  0  0
    1.0042    1.8801    0.0026 H   0  0  0  0  0  0  0  0  0  0  0  0
   -0.5455    1.8639   -0.8728 H   0  0  0  0  0  0  0  0  0  0  0  0
   -1.0580    1.3365    1.8541 H   0  0  0  0  0  0  0  0  0  0  0  0
   -1.9718    1.8732    3.4392 H   0  0  0  0  0  0  0  0  0  0  0  0
   -3.2952    5.2740    5.6978 H   0  0  0  0  0  0  0  0  0  0  0  0
   -2.3537    6.7912    4.0424 H   0  0  0  0  0  0  0  0  0  0  0  0
    0.7585    8.1050    1.0216 H   0  0  0  0  0  0  0  0  0  0  0  0
   -0.1685   10.4942    1.5821 H   0  0  0  0  0  0  0  0  0  0  0  0
   -3.0758    7.7279    2.8323 H   0  0  0  0  0  0  0  0  0  0  0  0
  1  2  1  0  0  0  0
  1 29  1  0  0  0  0
  1 30  1  0  0  0  0
  1 31  1  0  0  0  0
  2  3  1  0  0  0  0
  3  8  2  0  0  0  0
  3  4  1  0  0  0  0
  4  5  2  0  0  0  0
  4 32  1  0  0  0  0
  5  6  1  0  0  0  0
  5 33  1  0  0  0  0
  6  7  2  0  0  0  0
  6 10  1  0  0  0  0
  7  8  1  0  0  0  0
  7 34  1  0  0  0  0
  8  9  1  0  0  0  0
 10 11  1  0  0  0  0
 10 35  1  0  0  0  0
 10 36  1  0  0  0  0
 11 12  1  0  0  0  0
 11 37  1  0  0  0  0
 12 21  2  0  0  0  0
 12 13  1  0  0  0  0
 13 18  2  0  0  0  0
 13 14  1  0  0  0  0
 14 15  2  0  0  0  0
 14 38  1  0  0  0  0
 15 16  1  0  0  0  0
 15 27  1  0  0  0  0
 16 17  2  0  0  0  0
 16 39  1  0  0  0  0
 17 18  1  0  0  0  0
 17 40  1  0  0  0  0
 18 19  1  0  0  0  0
 19 20  2  0  0  0  0
 19 22  1  0  0  0  0
 20 21  1  0  0  0  0
 22 26  1  0  0  0  0
 22 23  1  0  0  0  0
 23 24  2  0  0  0  0
 23 41  1  0  0  0  0
 24 25  1  0  0  0  0
 24 42  1  0  0  0  0
 25 26  2  0  0  0  0
 26 43  1  0  0  0  0
 27 28  3  0  0  0  0
M  END
$$$$
ZINC04199951
  -OEChem-08230709403D

 54 57  0     0  0  0  0  0  0999 V2000
  -11.7612   -3.4698   -2.2915 C   0  0  0  0  0  0  0  0  0  0  0  0
  -11.2603   -3.2926   -0.9650 O   0  0  0  0  0  0  0  0  0  0  0  0
  -10.0505   -2.6861   -0.8380 C   0  0  0  0  0  0  0  0  0  0  0  0
   -9.3602   -2.2697   -1.9667 C   0  0  0  0  0  0  0  0  0  0  0  0
   -8.1334   -1.6483   -1.8349 C   0  0  0  0  0  0  0  0  0  0  0  0
   -7.5881   -1.4505   -0.5797 C   0  0  0  0  0  0  0  0  0  0  0  0
   -8.2733   -1.8642    0.5474 C   0  0  0  0  0  0  0  0  0  0  0  0
   -9.5039   -2.4819    0.4215 C   0  0  0  0  0  0  0  0  0  0  0  0
  -10.3640   -3.0019    1.8369 Cl  0  0  0  0  0  0  0  0  0  0  0  0
   -6.2472   -0.7770   -0.4398 C   0  0  0  0  0  0  0  0  0  0  0  0
   -5.1877   -1.7884   -0.4658 N   0  0  0  0  0  0  0  0  0  0  0  0
   -3.8572   -1.4040   -0.3521 C   0  0  0  0  0  0  0  0  0  0  0  0
   -2.8251   -2.3710   -0.3758 C   0  0  0  0  0  0  0  0  0  0  0  0
   -3.0749   -3.7404   -0.5110 C   0  0  0  0  0  0  0  0  0  0  0  0
   -2.0273   -4.6140   -0.5252 C   0  0  0  0  0  0  0  0  0  0  0  0
   -0.7152   -4.1629   -0.4072 C   0  0  0  0  0  0  0  0  0  0  0  0
   -0.4379   -2.8340   -0.2738 C   0  0  0  0  0  0  0  0  0  0  0  0
   -1.4891   -1.9117   -0.2556 C   0  0  0  0  0  0  0  0  0  0  0  0
   -1.2827   -0.5188   -0.1205 C   0  0  0  0  0  0  0  0  0  0  0  0
   -2.3298    0.2827   -0.1071 N   0  0  0  0  0  0  0  0  0  0  0  0
   -3.5363   -0.1317   -0.2207 N   0  0  0  0  0  0  0  0  0  0  0  0
    0.0021   -0.0041    0.0020 N   0  0  0  0  0  0  0  0  0  0  0  0
    0.3181    0.8938   -1.1162 C   0  0  0  0  0  0  0  0  0  0  0  0
    1.7836    1.3254   -1.0271 C   0  0  0  0  0  0  0  0  0  0  0  0
    2.0203    2.0385    0.3071 C   0  0  0  0  0  0  0  0  0  0  0  0
    1.6378    1.0989    1.4540 C   0  0  0  0  0  0  0  0  0  0  0  0
    0.1765    0.6738    1.2929 C   0  0  0  0  0  0  0  0  0  0  0  0
    3.3998    2.3937    0.4206 O   0  0  0  0  0  0  0  0  0  0  0  0
   -2.2941   -6.0900   -0.6713 C   0  0  0  0  0  0  0  0  0  0  0  0
   -2.2979   -6.4311   -2.0280 F   0  0  0  0  0  0  0  0  0  0  0  0
   -1.2938   -6.8122   -0.0117 F   0  0  0  0  0  0  0  0  0  0  0  0
   -3.5381   -6.3968   -0.1097 F   0  0  0  0  0  0  0  0  0  0  0  0
  -11.8692   -2.4973   -2.7719 H   0  0  0  0  0  0  0  0  0  0  0  0
  -11.0648   -4.0825   -2.8640 H   0  0  0  0  0  0  0  0  0  0  0  0
  -12.7315   -3.9646   -2.2505 H   0  0  0  0  0  0  0  0  0  0  0  0
   -9.7834   -2.4275   -2.9478 H   0  0  0  0  0  0  0  0  0  0  0  0
   -7.5978   -1.3200   -2.7135 H   0  0  0  0  0  0  0  0  0  0  0  0
   -7.8474   -1.7046    1.5270 H   0  0  0  0  0  0  0  0  0  0  0  0
   -6.2094   -0.2355    0.5055 H   0  0  0  0  0  0  0  0  0  0  0  0
   -6.1034   -0.0789   -1.2644 H   0  0  0  0  0  0  0  0  0  0  0  0
   -5.4149   -2.7265   -0.5624 H   0  0  0  0  0  0  0  0  0  0  0  0
   -4.0880   -4.1029   -0.6038 H   0  0  0  0  0  0  0  0  0  0  0  0
    0.0954   -4.8764   -0.4214 H   0  0  0  0  0  0  0  0  0  0  0  0
    0.5842   -2.4970   -0.1835 H   0  0  0  0  0  0  0  0  0  0  0  0
    0.1495    0.3731   -2.0588 H   0  0  0  0  0  0  0  0  0  0  0  0
   -0.3233    1.7738   -1.0678 H   0  0  0  0  0  0  0  0  0  0  0  0
    2.4261    0.4471   -1.0893 H   0  0  0  0  0  0  0  0  0  0  0  0
    2.0137    2.0042   -1.8483 H   0  0  0  0  0  0  0  0  0  0  0  0
    1.4074    2.9387    0.3538 H   0  0  0  0  0  0  0  0  0  0  0  0
    1.7637    1.6158    2.4053 H   0  0  0  0  0  0  0  0  0  0  0  0
    2.2780    0.2170    1.4308 H   0  0  0  0  0  0  0  0  0  0  0  0
   -0.4642    1.5548    1.3300 H   0  0  0  0  0  0  0  0  0  0  0  0
   -0.0946   -0.0067    2.1001 H   0  0  0  0  0  0  0  0  0  0  0  0
    3.7113    2.9888   -0.2751 H   0  0  0  0  0  0  0  0  0  0  0  0
  1  2  1  0  0  0  0
  1 33  1  0  0  0  0
  1 34  1  0  0  0  0
  1 35  1  0  0  0  0
  2  3  1  0  0  0  0
  3  8  2  0  0  0  0
  3  4  1  0  0  0  0
  4  5  2  0  0  0  0
  4 36  1  0  0  0  0
  5  6  1  0  0  0  0
  5 37  1  0  0  0  0
  6  7  2  0  0  0  0
  6 10  1  0  0  0  0
  7  8  1  0  0  0  0
  7 38  1  0  0  0  0
  8  9  1  0  0  0  0
 10 11  1  0  0  0  0
 10 39  1  0  0  0  0
 10 40  1  0  0  0  0
 11 12  1  0  0  0  0
 11 41  1  0  0  0  0
 12 21  2  0  0  0  0
 12 13  1  0  0  0  0
 13 18  2  0  0  0  0
 13 14  1  0  0  0  0
 14 15  2  0  0  0  0
 14 42  1  0  0  0  0
 15 16  1  0  0  0  0
 15 29  1  0  0  0  0
 16 17  2  0  0  0  0
 16 43  1  0  0  0  0
 17 18  1  0  0  0  0
 17 44  1  0  0  0  0
 18 19  1  0  0  0  0
 19 20  2  0  0  0  0
 19 22  1  0  0  0  0
 20 21  1  0  0  0  0
 22 27  1  0  0  0  0
 22 23  1  0  0  0  0
 23 24  1  0  0  0  0
 23 45  1  0  0  0  0
 23 46  1  0  0  0  0
 24 25  1  0  0  0  0
 24 47  1  0  0  0  0
 24 48  1  0  0  0  0
 25 26  1  0  0  0  0
 25 28  1  0  0  0  0
 25 49  1  0  0  0  0
 26 27  1  0  0  0  0
 26 50  1  0  0  0  0
 26 51  1  0  0  0  0
 27 52  1  0  0  0  0
 27 53  1  0  0  0  0
 28 54  1  0  0  0  0
 29 30  1  0  0  0  0
 29 31  1  0  0  0  0
 29 32  1  0  0  0  0
M  END
$$$$
ZINC04199952
  -OEChem-08230709403D

 59 63  0     0  0  0  0  0  0999 V2000
    0.2204    0.9639   -0.6493 C   0  0  0  0  0  0  0  0  0  0  0  0
    0.7789    0.6367    0.7371 C   0  0  0  0  0  0  0  0  0  0  0  0
   -0.0933    1.2131    1.7634 N   0  0  0  0  0  0  0  0  0  0  0  0
    0.0285    2.4617    2.3096 C   0  0  0  0  0  0  0  0  0  0  0  0
   -1.0165    2.5878    3.2428 C   0  0  0  0  0  0  0  0  0  0  0  0
   -1.7385    1.3796    3.2283 C   0  0  0  0  0  0  0  0  0  0  0  0
   -1.1902    0.5788    2.3578 N   0  0  0  0  0  0  0  0  0  0  0  0
   -1.1255    3.8401    3.9773 C   0  0  0  0  0  0  0  0  0  0  0  0
   -0.1733    4.8531    3.6993 C   0  0  0  0  0  0  0  0  0  0  0  0
    0.8201    4.6078    2.7410 C   0  0  0  0  0  0  0  0  0  0  0  0
    0.8807    3.4659    2.1037 N   0  0  0  0  0  0  0  0  0  0  0  0
   -0.2827    6.0650    4.4134 C   0  0  0  0  0  0  0  0  0  0  0  0
   -1.2557    6.1982    5.2975 N   0  0  0  0  0  0  0  0  0  0  0  0
   -2.1140    5.2798    5.5455 N   0  0  0  0  0  0  0  0  0  0  0  0
   -2.1124    4.1046    4.9412 C   0  0  0  0  0  0  0  0  0  0  0  0
   -3.0719    3.1465    5.2535 N   0  0  0  0  0  0  0  0  0  0  0  0
   -4.1645    3.4763    6.1721 C   0  0  0  0  0  0  0  0  0  0  0  0
   -5.0587    2.2751    6.3409 C   0  0  0  0  0  0  0  0  0  0  0  0
   -6.1388    2.0947    5.4966 C   0  0  0  0  0  0  0  0  0  0  0  0
   -6.9576    0.9920    5.6458 C   0  0  0  0  0  0  0  0  0  0  0  0
   -6.7021    0.0704    6.6504 C   0  0  0  0  0  0  0  0  0  0  0  0
   -5.6204    0.2560    7.5004 C   0  0  0  0  0  0  0  0  0  0  0  0
   -4.8011    1.3586    7.3433 C   0  0  0  0  0  0  0  0  0  0  0  0
   -5.2964   -0.8952    8.7587 Cl  0  0  0  0  0  0  0  0  0  0  0  0
   -7.5096   -1.0123    6.8027 O   0  0  0  0  0  0  0  0  0  0  0  0
   -8.6036   -1.1389    5.8920 C   0  0  0  0  0  0  0  0  0  0  0  0
    0.6157    7.0995    4.1909 N   0  0  0  0  0  0  0  0  0  0  0  0
    0.1110    8.0238    3.1674 C   0  0  0  0  0  0  0  0  0  0  0  0
    1.1851    9.0649    2.8441 C   0  0  0  0  0  0  0  0  0  0  0  0
    1.5450    9.8327    4.1191 C   0  0  0  0  0  0  0  0  0  0  0  0
    2.0217    8.8419    5.1848 C   0  0  0  0  0  0  0  0  0  0  0  0
    0.9234    7.8073    5.4402 C   0  0  0  0  0  0  0  0  0  0  0  0
    2.5879   10.7674    3.8353 O   0  0  0  0  0  0  0  0  0  0  0  0
   -0.7810    0.5443   -0.7459 H   0  0  0  0  0  0  0  0  0  0  0  0
    0.1749    2.0455   -0.7767 H   0  0  0  0  0  0  0  0  0  0  0  0
    0.8692    0.5350   -1.4129 H   0  0  0  0  0  0  0  0  0  0  0  0
    0.8243   -0.4449    0.8645 H   0  0  0  0  0  0  0  0  0  0  0  0
    1.7802    1.0563    0.8337 H   0  0  0  0  0  0  0  0  0  0  0  0
   -2.6018    1.1537    3.8367 H   0  0  0  0  0  0  0  0  0  0  0  0
    1.5486    5.3751    2.5243 H   0  0  0  0  0  0  0  0  0  0  0  0
   -3.0175    2.2602    4.8630 H   0  0  0  0  0  0  0  0  0  0  0  0
   -3.7520    3.7611    7.1400 H   0  0  0  0  0  0  0  0  0  0  0  0
   -4.7431    4.3058    5.7655 H   0  0  0  0  0  0  0  0  0  0  0  0
   -6.3404    2.8147    4.7172 H   0  0  0  0  0  0  0  0  0  0  0  0
   -7.7986    0.8498    4.9832 H   0  0  0  0  0  0  0  0  0  0  0  0
   -3.9595    1.5041    8.0043 H   0  0  0  0  0  0  0  0  0  0  0  0
   -9.2565   -0.2711    5.9856 H   0  0  0  0  0  0  0  0  0  0  0  0
   -8.2226   -1.1986    4.8725 H   0  0  0  0  0  0  0  0  0  0  0  0
   -9.1661   -2.0434    6.1234 H   0  0  0  0  0  0  0  0  0  0  0  0
   -0.1371    7.4656    2.2646 H   0  0  0  0  0  0  0  0  0  0  0  0
   -0.7814    8.5264    3.5403 H   0  0  0  0  0  0  0  0  0  0  0  0
    0.8046    9.7601    2.0958 H   0  0  0  0  0  0  0  0  0  0  0  0
    2.0730    8.5640    2.4582 H   0  0  0  0  0  0  0  0  0  0  0  0
    0.6673   10.3660    4.4842 H   0  0  0  0  0  0  0  0  0  0  0  0
    2.2388    9.3778    6.1088 H   0  0  0  0  0  0  0  0  0  0  0  0
    2.9227    8.3375    4.8356 H   0  0  0  0  0  0  0  0  0  0  0  0
    0.0271    8.3110    5.8024 H   0  0  0  0  0  0  0  0  0  0  0  0
    1.2653    7.0919    6.1881 H   0  0  0  0  0  0  0  0  0  0  0  0
    2.3546   11.4263    3.1671 H   0  0  0  0  0  0  0  0  0  0  0  0
  1  2  1  0  0  0  0
  1 34  1  0  0  0  0
  1 35  1  0  0  0  0
  1 36  1  0  0  0  0
  2  3  1  0  0  0  0
  2 37  1  0  0  0  0
  2 38  1  0  0  0  0
  3  7  1  0  0  0  0
  3  4  1  0  0  0  0
  4 11  2  0  0  0  0
  4  5  1  0  0  0  0
  5  6  1  0  0  0  0
  5  8  2  0  0  0  0
  6  7  2  0  0  0  0
  6 39  1  0  0  0  0
  8 15  1  0  0  0  0
  8  9  1  0  0  0  0
  9 10  2  0  0  0  0
  9 12  1  0  0  0  0
 10 11  1  0  0  0  0
 10 40  1  0  0  0  0
 12 13  2  0  0  0  0
 12 27  1  0  0  0  0
 13 14  1  0  0  0  0
 14 15  2  0  0  0  0
 15 16  1  0  0  0  0
 16 17  1  0  0  0  0
 16 41  1  0  0  0  0
 17 18  1  0  0  0  0
 17 42  1  0  0  0  0
 17 43  1  0  0  0  0
 18 23  2  0  0  0  0
 18 19  1  0  0  0  0
 19 20  2  0  0  0  0
 19 44  1  0  0  0  0
 20 21  1  0  0  0  0
 20 45  1  0  0  0  0
 21 22  2  0  0  0  0
 21 25  1  0  0  0  0
 22 23  1  0  0  0  0
 22 24  1  0  0  0  0
 23 46  1  0  0  0  0
 25 26  1  0  0  0  0
 26 47  1  0  0  0  0
 26 48  1  0  0  0  0
 26 49  1  0  0  0  0
 27 32  1  0  0  0  0
 27 28  1  0  0  0  0
 28 29  1  0  0  0  0
 28 50  1  0  0  0  0
 28 51  1  0  0  0  0
 29 30  1  0  0  0  0
 29 52  1  0  0  0  0
 29 53  1  0  0  0  0
 30 31  1  0  0  0  0
 30 33  1  0  0  0  0
 30 54  1  0  0  0  0
 31 32  1  0  0  0  0
 31 55  1  0  0  0  0
 31 56  1  0  0  0  0
 32 57  1  0  0  0  0
 32 58  1  0  0  0  0
 33 59  1  0  0  0  0
M  END
$$$$
ZINC04199953
  -OEChem-08230709403D

 50 54  0     0  0  0  0  0  0999 V2000
   -0.6551    4.5665    1.7723 C   0  0  0  0  0  0  0  0  0  0  0  0
   -1.4634    3.4213    2.1981 N   0  0  0  0  0  0  0  0  0  0  0  0
   -1.7635    2.3513    1.4440 C   0  0  0  0  0  0  0  0  0  0  0  0
   -2.5426    1.5148    2.2095 C   0  0  0  0  0  0  0  0  0  0  0  0
   -2.6970    2.1244    3.4830 C   0  0  0  0  0  0  0  0  0  0  0  0
   -2.0517    3.2610    3.4589 N   0  0  0  0  0  0  0  0  0  0  0  0
   -3.4481    1.4694    4.4597 N   0  0  0  0  0  0  0  0  0  0  0  0
   -3.7646    1.8794    5.8418 C   0  0  0  0  0  0  0  0  0  0  0  0
   -4.6112    0.7122    6.3609 C   0  0  0  0  0  0  0  0  0  0  0  0
   -6.0035    1.1969    6.7888 C   0  0  0  0  0  0  0  0  0  0  0  0
   -6.3459    0.3166    8.0185 C   0  0  0  0  0  0  0  0  0  0  0  0
   -4.9792    0.1798    8.7359 C   0  0  0  0  0  0  0  0  0  0  0  0
   -3.9567    0.0634    7.5840 C   0  0  0  0  0  0  0  0  0  0  0  0
   -4.0293    0.2526    4.2120 C   0  0  0  0  0  0  0  0  0  0  0  0
   -3.8851   -0.3569    2.9741 N   0  0  0  0  0  0  0  0  0  0  0  0
   -3.1767    0.2089    1.9812 C   0  0  0  0  0  0  0  0  0  0  0  0
   -3.0670   -0.3498    0.9065 O   0  0  0  0  0  0  0  0  0  0  0  0
   -4.5236   -1.6548    2.7419 C   0  0  0  0  0  0  0  0  0  0  0  0
   -1.3319    2.1138    0.0199 C   0  0  0  0  0  0  0  0  0  0  0  0
   -0.0167    1.3781    0.0096 C   0  0  0  0  0  0  0  0  0  0  0  0
    1.1709    2.0855    0.0021 C   0  0  0  0  0  0  0  0  0  0  0  0
    2.3773    1.4107   -0.0141 C   0  0  0  0  0  0  0  0  0  0  0  0
    2.3960    0.0285   -0.0217 C   0  0  0  0  0  0  0  0  0  0  0  0
    1.2084   -0.6789   -0.0136 C   0  0  0  0  0  0  0  0  0  0  0  0
    0.0021   -0.0041    0.0020 C   0  0  0  0  0  0  0  0  0  0  0  0
   -1.3026    5.3245    1.3317 H   0  0  0  0  0  0  0  0  0  0  0  0
   -0.1381    4.9871    2.6349 H   0  0  0  0  0  0  0  0  0  0  0  0
    0.0769    4.2400    1.0337 H   0  0  0  0  0  0  0  0  0  0  0  0
   -2.8535    1.9867    6.4304 H   0  0  0  0  0  0  0  0  0  0  0  0
   -4.3371    2.8070    5.8473 H   0  0  0  0  0  0  0  0  0  0  0  0
   -5.9720    2.2497    7.0694 H   0  0  0  0  0  0  0  0  0  0  0  0
   -6.7268    1.0349    5.9896 H   0  0  0  0  0  0  0  0  0  0  0  0
   -6.7159   -0.6591    7.7037 H   0  0  0  0  0  0  0  0  0  0  0  0
   -7.0708    0.8164    8.6611 H   0  0  0  0  0  0  0  0  0  0  0  0
   -4.9610   -0.7176    9.3543 H   0  0  0  0  0  0  0  0  0  0  0  0
   -4.7735    1.0630    9.3408 H   0  0  0  0  0  0  0  0  0  0  0  0
   -3.7398   -0.9852    7.3805 H   0  0  0  0  0  0  0  0  0  0  0  0
   -3.0389    0.5919    7.8420 H   0  0  0  0  0  0  0  0  0  0  0  0
   -5.5293   -1.5002    2.3509 H   0  0  0  0  0  0  0  0  0  0  0  0
   -3.9371   -2.2245    2.0210 H   0  0  0  0  0  0  0  0  0  0  0  0
   -4.5795   -2.2055    3.6809 H   0  0  0  0  0  0  0  0  0  0  0  0
   -1.2169    3.0707   -0.4893 H   0  0  0  0  0  0  0  0  0  0  0  0
   -2.0859    1.5173   -0.4937 H   0  0  0  0  0  0  0  0  0  0  0  0
    1.1563    3.1654    0.0081 H   0  0  0  0  0  0  0  0  0  0  0  0
    3.3051    1.9634   -0.0207 H   0  0  0  0  0  0  0  0  0  0  0  0
    3.3385   -0.4987   -0.0343 H   0  0  0  0  0  0  0  0  0  0  0  0
    1.2231   -1.7587   -0.0199 H   0  0  0  0  0  0  0  0  0  0  0  0
   -0.9258   -0.5567    0.0079 H   0  0  0  0  0  0  0  0  0  0  0  0
   -4.6944   -0.2209    5.2397 N   0  3  0  0  0  0  0  0  0  0  0  0
   -5.1988   -1.1151    5.2537 H   0  0  0  0  0  0  0  0  0  0  0  0
  1  2  1  0  0  0  0
  1 26  1  0  0  0  0
  1 27  1  0  0  0  0
  1 28  1  0  0  0  0
  2  6  1  0  0  0  0
  2  3  1  0  0  0  0
  3  4  2  0  0  0  0
  3 19  1  0  0  0  0
  4 16  1  0  0  0  0
  4  5  1  0  0  0  0
  5  6  2  0  0  0  0
  5  7  1  0  0  0  0
  7 14  1  0  0  0  0
  7  8  1  0  0  0  0
  8  9  1  0  0  0  0
  8 29  1  0  0  0  0
  8 30  1  0  0  0  0
  9 13  1  0  0  0  0
  9 10  1  0  0  0  0
  9 49  1  0  0  0  0
 10 11  1  0  0  0  0
 10 31  1  0  0  0  0
 10 32  1  0  0  0  0
 11 12  1  0  0  0  0
 11 33  1  0  0  0  0
 11 34  1  0  0  0  0
 12 13  1  0  0  0  0
 12 35  1  0  0  0  0
 12 36  1  0  0  0  0
 13 37  1  0  0  0  0
 13 38  1  0  0  0  0
 14 15  1  0  0  0  0
 14 49  2  0  0  0  0
 15 16  1  0  0  0  0
 15 18  1  0  0  0  0
 16 17  2  0  0  0  0
 18 39  1  0  0  0  0
 18 40  1  0  0  0  0
 18 41  1  0  0  0  0
 19 20  1  0  0  0  0
 19 42  1  0  0  0  0
 19 43  1  0  0  0  0
 20 25  2  0  0  0  0
 20 21  1  0  0  0  0
 21 22  2  0  0  0  0
 21 44  1  0  0  0  0
 22 23  1  0  0  0  0
 22 45  1  0  0  0  0
 23 24  2  0  0  0  0
 23 46  1  0  0  0  0
 24 25  1  0  0  0  0
 24 47  1  0  0  0  0
 25 48  1  0  0  0  0
 49 50  1  0  0  0  0
M  CHG  1  49   1
M  END
$$$$
ZINC04199954
  -OEChem-08230709403D

 56 61  0     1  0  0  0  0  0999 V2000
    1.3822   -8.3722   -0.0579 C   0  0  0  0  0  0  0  0  0  0  0  0
    0.6822   -7.0854   -0.0418 N   0  0  0  0  0  0  0  0  0  0  0  0
    1.3963   -5.9464   -0.0437 C   0  0  0  0  0  0  0  0  0  0  0  0
    2.6137   -5.9899   -0.0575 O   0  0  0  0  0  0  0  0  0  0  0  0
    0.7349   -4.7018   -0.0303 C   0  0  0  0  0  0  0  0  0  0  0  0
   -0.6552   -4.6687   -0.0163 C   0  0  0  0  0  0  0  0  0  0  0  0
   -1.0297   -3.3906   -0.0063 N   0  0  0  0  0  0  0  0  0  0  0  0
    0.0374   -2.6098   -0.0123 C   0  0  0  0  0  0  0  0  0  0  0  0
    1.1604   -3.3855   -0.0331 N   0  0  0  0  0  0  0  0  0  0  0  0
    2.5477   -2.9152   -0.0512 C   0  0  0  0  0  0  0  0  0  0  0  0
    3.0447   -2.7621    1.3633 C   0  0  0  0  0  0  0  0  0  0  0  0
    2.8935   -1.5564    2.0223 C   0  0  0  0  0  0  0  0  0  0  0  0
    3.3454   -1.4173    3.3213 C   0  0  0  0  0  0  0  0  0  0  0  0
    3.9567   -2.4811    3.9580 C   0  0  0  0  0  0  0  0  0  0  0  0
    4.1127   -3.6852    3.2971 C   0  0  0  0  0  0  0  0  0  0  0  0
    3.6568   -3.8256    1.9997 C   0  0  0  0  0  0  0  0  0  0  0  0
    0.0180   -1.1779   -0.0044 C   0  0  0  0  0  0  0  0  0  0  0  0
    0.0021   -0.0041    0.0020 C   0  0  0  0  0  0  0  0  0  0  0  0
   -0.0173    1.4278    0.0099 C   0  0  0  0  0  0  0  0  0  0  0  0
   -1.2356    2.1139    0.0194 C   0  0  0  0  0  0  0  0  0  0  0  0
   -1.2460    3.4928    0.0322 C   0  0  0  0  0  0  0  0  0  0  0  0
   -0.0549    4.1975    0.0242 C   0  0  0  0  0  0  0  0  0  0  0  0
    1.1549    3.5255    0.0095 C   0  0  0  0  0  0  0  0  0  0  0  0
    1.1818    2.1468    0.0023 C   0  0  0  0  0  0  0  0  0  0  0  0
   -1.3631   -5.8632   -0.0141 N   0  0  0  0  0  0  0  0  0  0  0  0
   -0.7043   -7.0658   -0.0254 C   0  0  0  0  0  0  0  0  0  0  0  0
   -2.9093   -7.6544   -0.0024 C   0  0  1  0  0  0  0  0  0  0  0  0
   -3.4450   -8.0333    0.8680 H   0  0  0  0  0  0  0  0  0  0  0  0
   -2.8141   -6.1107    0.0012 C   0  0  2  0  0  0  0  0  0  0  0  0
   -3.3084   -5.6661    0.8650 H   0  0  0  0  0  0  0  0  0  0  0  0
   -3.4324   -5.6542   -1.3612 C   0  0  0  0  0  0  0  0  0  0  0  0
   -3.3035   -6.8899   -2.2854 C   0  0  0  0  0  0  0  0  0  0  0  0
   -3.5910   -8.0682   -1.3224 C   0  0  0  0  0  0  0  0  0  0  0  0
    2.4585   -8.2001   -0.0698 H   0  0  0  0  0  0  0  0  0  0  0  0
    1.1153   -8.9421    0.8321 H   0  0  0  0  0  0  0  0  0  0  0  0
    1.0938   -8.9317   -0.9477 H   0  0  0  0  0  0  0  0  0  0  0  0
    3.1697   -3.6384   -0.5786 H   0  0  0  0  0  0  0  0  0  0  0  0
    2.5985   -1.9527   -0.5603 H   0  0  0  0  0  0  0  0  0  0  0  0
    2.4192   -0.7241    1.5235 H   0  0  0  0  0  0  0  0  0  0  0  0
    3.2233   -0.4767    3.8377 H   0  0  0  0  0  0  0  0  0  0  0  0
    4.3122   -2.3716    4.9719 H   0  0  0  0  0  0  0  0  0  0  0  0
    4.5903   -4.5163    3.7946 H   0  0  0  0  0  0  0  0  0  0  0  0
    3.7787   -4.7663    1.4834 H   0  0  0  0  0  0  0  0  0  0  0  0
   -2.1659    1.5654    0.0208 H   0  0  0  0  0  0  0  0  0  0  0  0
   -2.1862    4.0242    0.0437 H   0  0  0  0  0  0  0  0  0  0  0  0
   -0.0696    5.2774    0.0297 H   0  0  0  0  0  0  0  0  0  0  0  0
    2.0803    4.0823    0.0040 H   0  0  0  0  0  0  0  0  0  0  0  0
    2.1266    1.6238   -0.0095 H   0  0  0  0  0  0  0  0  0  0  0  0
   -2.8744   -4.8122   -1.7709 H   0  0  0  0  0  0  0  0  0  0  0  0
   -4.4804   -5.3865   -1.2268 H   0  0  0  0  0  0  0  0  0  0  0  0
   -2.2960   -6.9627   -2.6949 H   0  0  0  0  0  0  0  0  0  0  0  0
   -4.0427   -6.8560   -3.0857 H   0  0  0  0  0  0  0  0  0  0  0  0
   -3.1524   -8.9895   -1.7056 H   0  0  0  0  0  0  0  0  0  0  0  0
   -4.6645   -8.1878   -1.1760 H   0  0  0  0  0  0  0  0  0  0  0  0
   -1.5079   -8.0998   -0.0181 N   0  3  0  0  0  0  0  0  0  0  0  0
   -1.2033   -9.0804   -0.0228 H   0  0  0  0  0  0  0  0  0  0  0  0
  1  2  1  0  0  0  0
  1 34  1  0  0  0  0
  1 35  1  0  0  0  0
  1 36  1  0  0  0  0
  2 26  1  0  0  0  0
  2  3  1  0  0  0  0
  3  4  2  0  0  0  0
  3  5  1  0  0  0  0
  5  9  1  0  0  0  0
  5  6  2  0  0  0  0
  6  7  1  0  0  0  0
  6 25  1  0  0  0  0
  7  8  2  0  0  0  0
  8  9  1  0  0  0  0
  8 17  1  0  0  0  0
  9 10  1  0  0  0  0
 10 11  1  0  0  0  0
 10 37  1  0  0  0  0
 10 38  1  0  0  0  0
 11 16  2  0  0  0  0
 11 12  1  0  0  0  0
 12 13  2  0  0  0  0
 12 39  1  0  0  0  0
 13 14  1  0  0  0  0
 13 40  1  0  0  0  0
 14 15  2  0  0  0  0
 14 41  1  0  0  0  0
 15 16  1  0  0  0  0
 15 42  1  0  0  0  0
 16 43  1  0  0  0  0
 17 18  3  0  0  0  0
 18 19  1  0  0  0  0
 19 24  2  0  0  0  0
 19 20  1  0  0  0  0
 20 21  2  0  0  0  0
 20 44  1  0  0  0  0
 21 22  1  0  0  0  0
 21 45  1  0  0  0  0
 22 23  2  0  0  0  0
 22 46  1  0  0  0  0
 23 24  1  0  0  0  0
 23 47  1  0  0  0  0
 24 48  1  0  0  0  0
 25 29  1  0  0  0  0
 25 26  1  0  0  0  0
 26 55  2  0  0  0  0
 27 28  1  0  0  0  0
 27 33  1  0  0  0  0
 27 29  1  0  0  0  0
 27 55  1  0  0  0  0
 29 30  1  0  0  0  0
 29 31  1  0  0  0  0
 31 32  1  0  0  0  0
 31 49  1  0  0  0  0
 31 50  1  0  0  0  0
 32 33  1  0  0  0  0
 32 51  1  0  0  0  0
 32 52  1  0  0  0  0
 33 53  1  0  0  0  0
 33 54  1  0  0  0  0
 55 56  1  0  0  0  0
M  CHG  1  55   1
M  END
$$$$
ZINC04199954
  -OEChem-08230709403D

 56 61  0     1  0  0  0  0  0999 V2000
    1.3822   -8.3722   -0.0579 C   0  0  0  0  0  0  0  0  0  0  0  0
    0.6822   -7.0854   -0.0418 N   0  0  0  0  0  0  0  0  0  0  0  0
    1.3963   -5.9464   -0.0437 C   0  0  0  0  0  0  0  0  0  0  0  0
    2.6137   -5.9899   -0.0575 O   0  0  0  0  0  0  0  0  0  0  0  0
    0.7349   -4.7018   -0.0303 C   0  0  0  0  0  0  0  0  0  0  0  0
   -0.6552   -4.6687   -0.0163 C   0  0  0  0  0  0  0  0  0  0  0  0
   -1.0297   -3.3906   -0.0063 N   0  0  0  0  0  0  0  0  0  0  0  0
    0.0374   -2.6098   -0.0123 C   0  0  0  0  0  0  0  0  0  0  0  0
    1.1604   -3.3855   -0.0331 N   0  0  0  0  0  0  0  0  0  0  0  0
    2.5477   -2.9152   -0.0512 C   0  0  0  0  0  0  0  0  0  0  0  0
    3.0447   -2.7621    1.3633 C   0  0  0  0  0  0  0  0  0  0  0  0
    2.8935   -1.5564    2.0223 C   0  0  0  0  0  0  0  0  0  0  0  0
    3.3454   -1.4173    3.3213 C   0  0  0  0  0  0  0  0  0  0  0  0
    3.9567   -2.4811    3.9580 C   0  0  0  0  0  0  0  0  0  0  0  0
    4.1127   -3.6852    3.2971 C   0  0  0  0  0  0  0  0  0  0  0  0
    3.6568   -3.8256    1.9997 C   0  0  0  0  0  0  0  0  0  0  0  0
    0.0180   -1.1779   -0.0044 C   0  0  0  0  0  0  0  0  0  0  0  0
    0.0021   -0.0041    0.0020 C   0  0  0  0  0  0  0  0  0  0  0  0
   -0.0173    1.4278    0.0099 C   0  0  0  0  0  0  0  0  0  0  0  0
   -1.2356    2.1139    0.0194 C   0  0  0  0  0  0  0  0  0  0  0  0
   -1.2460    3.4928    0.0322 C   0  0  0  0  0  0  0  0  0  0  0  0
   -0.0549    4.1975    0.0242 C   0  0  0  0  0  0  0  0  0  0  0  0
    1.1549    3.5255    0.0095 C   0  0  0  0  0  0  0  0  0  0  0  0
    1.1818    2.1468    0.0023 C   0  0  0  0  0  0  0  0  0  0  0  0
   -1.3631   -5.8632   -0.0141 N   0  0  0  0  0  0  0  0  0  0  0  0
   -0.7043   -7.0658   -0.0254 C   0  0  0  0  0  0  0  0  0  0  0  0
   -2.9093   -7.6544   -0.0024 C   0  0  1  0  0  0  0  0  0  0  0  0
   -3.4450   -8.0333    0.8680 H   0  0  0  0  0  0  0  0  0  0  0  0
   -2.8141   -6.1107    0.0012 C   0  0  2  0  0  0  0  0  0  0  0  0
   -3.3084   -5.6661    0.8650 H   0  0  0  0  0  0  0  0  0  0  0  0
   -3.4324   -5.6542   -1.3612 C   0  0  0  0  0  0  0  0  0  0  0  0
   -3.3035   -6.8899   -2.2854 C   0  0  0  0  0  0  0  0  0  0  0  0
   -3.5910   -8.0682   -1.3224 C   0  0  0  0  0  0  0  0  0  0  0  0
    2.4585   -8.2001   -0.0698 H   0  0  0  0  0  0  0  0  0  0  0  0
    1.1153   -8.9421    0.8321 H   0  0  0  0  0  0  0  0  0  0  0  0
    1.0938   -8.9317   -0.9477 H   0  0  0  0  0  0  0  0  0  0  0  0
    3.1697   -3.6384   -0.5786 H   0  0  0  0  0  0  0  0  0  0  0  0
    2.5985   -1.9527   -0.5603 H   0  0  0  0  0  0  0  0  0  0  0  0
    2.4192   -0.7241    1.5235 H   0  0  0  0  0  0  0  0  0  0  0  0
    3.2233   -0.4767    3.8377 H   0  0  0  0  0  0  0  0  0  0  0  0
    4.3122   -2.3716    4.9719 H   0  0  0  0  0  0  0  0  0  0  0  0
    4.5903   -4.5163    3.7946 H   0  0  0  0  0  0  0  0  0  0  0  0
    3.7787   -4.7663    1.4834 H   0  0  0  0  0  0  0  0  0  0  0  0
   -2.1659    1.5654    0.0208 H   0  0  0  0  0  0  0  0  0  0  0  0
   -2.1862    4.0242    0.0437 H   0  0  0  0  0  0  0  0  0  0  0  0
   -0.0696    5.2774    0.0297 H   0  0  0  0  0  0  0  0  0  0  0  0
    2.0803    4.0823    0.0040 H   0  0  0  0  0  0  0  0  0  0  0  0
    2.1266    1.6238   -0.0095 H   0  0  0  0  0  0  0  0  0  0  0  0
   -2.8744   -4.8122   -1.7709 H   0  0  0  0  0  0  0  0  0  0  0  0
   -4.4804   -5.3865   -1.2268 H   0  0  0  0  0  0  0  0  0  0  0  0
   -2.2960   -6.9627   -2.6949 H   0  0  0  0  0  0  0  0  0  0  0  0
   -4.0427   -6.8560   -3.0857 H   0  0  0  0  0  0  0  0  0  0  0  0
   -3.1524   -8.9895   -1.7056 H   0  0  0  0  0  0  0  0  0  0  0  0
   -4.6645   -8.1878   -1.1760 H   0  0  0  0  0  0  0  0  0  0  0  0
   -1.5079   -8.0998   -0.0181 N   0  3  0  0  0  0  0  0  0  0  0  0
   -1.2033   -9.0804   -0.0228 H   0  0  0  0  0  0  0  0  0  0  0  0
  1  2  1  0  0  0  0
  1 34  1  0  0  0  0
  1 35  1  0  0  0  0
  1 36  1  0  0  0  0
  2 26  1  0  0  0  0
  2  3  1  0  0  0  0
  3  4  2  0  0  0  0
  3  5  1  0  0  0  0
  5  9  1  0  0  0  0
  5  6  2  0  0  0  0
  6  7  1  0  0  0  0
  6 25  1  0  0  0  0
  7  8  2  0  0  0  0
  8  9  1  0  0  0  0
  8 17  1  0  0  0  0
  9 10  1  0  0  0  0
 10 11  1  0  0  0  0
 10 37  1  0  0  0  0
 10 38  1  0  0  0  0
 11 16  2  0  0  0  0
 11 12  1  0  0  0  0
 12 13  2  0  0  0  0
 12 39  1  0  0  0  0
 13 14  1  0  0  0  0
 13 40  1  0  0  0  0
 14 15  2  0  0  0  0
 14 41  1  0  0  0  0
 15 16  1  0  0  0  0
 15 42  1  0  0  0  0
 16 43  1  0  0  0  0
 17 18  3  0  0  0  0
 18 19  1  0  0  0  0
 19 24  2  0  0  0  0
 19 20  1  0  0  0  0
 20 21  2  0  0  0  0
 20 44  1  0  0  0  0
 21 22  1  0  0  0  0
 21 45  1  0  0  0  0
 22 23  2  0  0  0  0
 22 46  1  0  0  0  0
 23 24  1  0  0  0  0
 23 47  1  0  0  0  0
 24 48  1  0  0  0  0
 25 29  1  0  0  0  0
 25 26  1  0  0  0  0
 26 55  2  0  0  0  0
 27 28  1  0  0  0  0
 27 33  1  0  0  0  0
 27 29  1  0  0  0  0
 27 55  1  0  0  0  0
 29 30  1  0  0  0  0
 29 31  1  0  0  0  0
 31 32  1  0  0  0  0
 31 49  1  0  0  0  0
 31 50  1  0  0  0  0
 32 33  1  0  0  0  0
 32 51  1  0  0  0  0
 32 52  1  0  0  0  0
 33 53  1  0  0  0  0
 33 54  1  0  0  0  0
 55 56  1  0  0  0  0
M  CHG  1  55   1
M  END
$$$$
ZINC04199955
  -OEChem-08230709403D

 46 49  0     1  0  0  0  0  0999 V2000
    8.2907   -3.9581   -2.9452 C   0  0  0  0  0  0  0  0  0  0  0  0
    7.2360   -3.5460   -3.9741 C   0  0  0  0  0  0  0  0  0  0  0  0
    6.2400   -4.6908   -4.1702 C   0  0  0  0  0  0  0  0  0  0  0  0
    6.4941   -2.3045   -3.4748 C   0  0  0  0  0  0  0  0  0  0  0  0
    5.5270   -1.8189   -4.5563 C   0  0  0  0  0  0  0  0  0  0  0  0
    4.7963   -0.5961   -4.0645 C   0  0  0  0  0  0  0  0  0  0  0  0
    4.7531    0.5900   -4.7015 N   0  0  0  0  0  0  0  0  0  0  0  0
    5.1928    0.8149   -5.5711 H   0  0  0  0  0  0  0  0  0  0  0  0
    3.9857    1.4369   -3.9248 C   0  0  0  0  0  0  0  0  0  0  0  0
    3.5888    0.6985   -2.8199 C   0  0  0  0  0  0  0  0  0  0  0  0
    4.1074   -0.5259   -2.9542 N   0  0  0  0  0  0  0  0  0  0  0  0
    2.7963    1.2959   -1.8503 N   0  0  0  0  0  0  0  0  0  0  0  0
    2.2423    0.7483   -0.6010 C   0  0  2  0  0  0  0  0  0  0  0  0
    3.0178    0.3687    0.0643 H   0  0  0  0  0  0  0  0  0  0  0  0
    1.1884   -0.3243   -0.9403 C   0  0  0  0  0  0  0  0  0  0  0  0
    0.0021   -0.0041    0.0020 C   0  0  0  0  0  0  0  0  0  0  0  0
   -0.0189    1.5441    0.0105 C   0  0  0  0  0  0  0  0  0  0  0  0
    1.4697    1.9464   -0.0015 C   0  0  2  0  0  0  0  0  0  0  0  0
    1.8284    2.2076    0.9941 H   0  0  0  0  0  0  0  0  0  0  0  0
    2.4101    2.6058   -1.9740 C   0  0  0  0  0  0  0  0  0  0  0  0
    2.8113    3.3345   -3.0838 N   0  0  0  0  0  0  0  0  0  0  0  0
    3.5760    2.7818   -4.0419 C   0  0  0  0  0  0  0  0  0  0  0  0
    3.9138    3.4408   -5.0089 O   0  0  0  0  0  0  0  0  0  0  0  0
    2.3942    4.7327   -3.2146 C   0  0  0  0  0  0  0  0  0  0  0  0
    7.8040   -4.1829   -1.9961 H   0  0  0  0  0  0  0  0  0  0  0  0
    8.8192   -4.8426   -3.3010 H   0  0  0  0  0  0  0  0  0  0  0  0
    9.0002   -3.1426   -2.8056 H   0  0  0  0  0  0  0  0  0  0  0  0
    7.7226   -3.3213   -4.9232 H   0  0  0  0  0  0  0  0  0  0  0  0
    5.7534   -4.9156   -3.2211 H   0  0  0  0  0  0  0  0  0  0  0  0
    5.4887   -4.3972   -4.9032 H   0  0  0  0  0  0  0  0  0  0  0  0
    6.7685   -5.5753   -4.5259 H   0  0  0  0  0  0  0  0  0  0  0  0
    7.2136   -1.5170   -3.2506 H   0  0  0  0  0  0  0  0  0  0  0  0
    5.9352   -2.5536   -2.5728 H   0  0  0  0  0  0  0  0  0  0  0  0
    4.8075   -2.6064   -4.7806 H   0  0  0  0  0  0  0  0  0  0  0  0
    6.0860   -1.5699   -5.4584 H   0  0  0  0  0  0  0  0  0  0  0  0
    1.5794   -1.3211   -0.7360 H   0  0  0  0  0  0  0  0  0  0  0  0
    0.8803   -0.2427   -1.9826 H   0  0  0  0  0  0  0  0  0  0  0  0
    0.1878   -0.3934    1.0030 H   0  0  0  0  0  0  0  0  0  0  0  0
   -0.9309   -0.4009   -0.3983 H   0  0  0  0  0  0  0  0  0  0  0  0
   -0.5232    1.9232   -0.8783 H   0  0  0  0  0  0  0  0  0  0  0  0
   -0.5061    1.9136    0.9129 H   0  0  0  0  0  0  0  0  0  0  0  0
    2.7966    5.1469   -4.1390 H   0  0  0  0  0  0  0  0  0  0  0  0
    1.3057    4.7866   -3.2359 H   0  0  0  0  0  0  0  0  0  0  0  0
    2.7698    5.3048   -2.3663 H   0  0  0  0  0  0  0  0  0  0  0  0
    1.6732    3.0280   -0.9772 N   0  3  0  0  0  0  0  0  0  0  0  0
    1.2923    3.9774   -0.8893 H   0  0  0  0  0  0  0  0  0  0  0  0
  1  2  1  0  0  0  0
  1 25  1  0  0  0  0
  1 26  1  0  0  0  0
  1 27  1  0  0  0  0
  2  3  1  0  0  0  0
  2  4  1  0  0  0  0
  2 28  1  0  0  0  0
  3 29  1  0  0  0  0
  3 30  1  0  0  0  0
  3 31  1  0  0  0  0
  4  5  1  0  0  0  0
  4 32  1  0  0  0  0
  4 33  1  0  0  0  0
  5  6  1  0  0  0  0
  5 34  1  0  0  0  0
  5 35  1  0  0  0  0
  6 11  2  0  0  0  0
  6  7  1  0  0  0  0
  7  8  1  0  0  0  0
  7  9  1  0  0  0  0
  9 22  1  0  0  0  0
  9 10  2  0  0  0  0
 10 11  1  0  0  0  0
 10 12  1  0  0  0  0
 12 20  1  0  0  0  0
 12 13  1  0  0  0  0
 13 14  1  0  0  0  0
 13 18  1  0  0  0  0
 13 15  1  0  0  0  0
 15 16  1  0  0  0  0
 15 36  1  0  0  0  0
 15 37  1  0  0  0  0
 16 17  1  0  0  0  0
 16 38  1  0  0  0  0
 16 39  1  0  0  0  0
 17 18  1  0  0  0  0
 17 40  1  0  0  0  0
 17 41  1  0  0  0  0
 18 19  1  0  0  0  0
 18 45  1  0  0  0  0
 20 21  1  0  0  0  0
 20 45  2  0  0  0  0
 21 22  1  0  0  0  0
 21 24  1  0  0  0  0
 22 23  2  0  0  0  0
 24 42  1  0  0  0  0
 24 43  1  0  0  0  0
 24 44  1  0  0  0  0
 45 46  1  0  0  0  0
M  CHG  1  45   1
M  END
$$$$
ZINC04199955
  -OEChem-08230709403D

 46 49  0     1  0  0  0  0  0999 V2000
    8.2907   -3.9581   -2.9452 C   0  0  0  0  0  0  0  0  0  0  0  0
    7.2360   -3.5460   -3.9741 C   0  0  0  0  0  0  0  0  0  0  0  0
    6.2400   -4.6908   -4.1702 C   0  0  0  0  0  0  0  0  0  0  0  0
    6.4941   -2.3045   -3.4748 C   0  0  0  0  0  0  0  0  0  0  0  0
    5.5270   -1.8189   -4.5563 C   0  0  0  0  0  0  0  0  0  0  0  0
    4.7963   -0.5961   -4.0645 C   0  0  0  0  0  0  0  0  0  0  0  0
    4.7531    0.5900   -4.7015 N   0  0  0  0  0  0  0  0  0  0  0  0
    5.1928    0.8149   -5.5711 H   0  0  0  0  0  0  0  0  0  0  0  0
    3.9857    1.4369   -3.9248 C   0  0  0  0  0  0  0  0  0  0  0  0
    3.5888    0.6985   -2.8199 C   0  0  0  0  0  0  0  0  0  0  0  0
    4.1074   -0.5259   -2.9542 N   0  0  0  0  0  0  0  0  0  0  0  0
    2.7963    1.2959   -1.8503 N   0  0  0  0  0  0  0  0  0  0  0  0
    2.2423    0.7483   -0.6010 C   0  0  2  0  0  0  0  0  0  0  0  0
    3.0178    0.3687    0.0643 H   0  0  0  0  0  0  0  0  0  0  0  0
    1.1884   -0.3243   -0.9403 C   0  0  0  0  0  0  0  0  0  0  0  0
    0.0021   -0.0041    0.0020 C   0  0  0  0  0  0  0  0  0  0  0  0
   -0.0189    1.5441    0.0105 C   0  0  0  0  0  0  0  0  0  0  0  0
    1.4697    1.9464   -0.0015 C   0  0  2  0  0  0  0  0  0  0  0  0
    1.8284    2.2076    0.9941 H   0  0  0  0  0  0  0  0  0  0  0  0
    2.4101    2.6058   -1.9740 C   0  0  0  0  0  0  0  0  0  0  0  0
    2.8113    3.3345   -3.0838 N   0  0  0  0  0  0  0  0  0  0  0  0
    3.5760    2.7818   -4.0419 C   0  0  0  0  0  0  0  0  0  0  0  0
    3.9138    3.4408   -5.0089 O   0  0  0  0  0  0  0  0  0  0  0  0
    2.3942    4.7327   -3.2146 C   0  0  0  0  0  0  0  0  0  0  0  0
    7.8040   -4.1829   -1.9961 H   0  0  0  0  0  0  0  0  0  0  0  0
    8.8192   -4.8426   -3.3010 H   0  0  0  0  0  0  0  0  0  0  0  0
    9.0002   -3.1426   -2.8056 H   0  0  0  0  0  0  0  0  0  0  0  0
    7.7226   -3.3213   -4.9232 H   0  0  0  0  0  0  0  0  0  0  0  0
    5.7534   -4.9156   -3.2211 H   0  0  0  0  0  0  0  0  0  0  0  0
    5.4887   -4.3972   -4.9032 H   0  0  0  0  0  0  0  0  0  0  0  0
    6.7685   -5.5753   -4.5259 H   0  0  0  0  0  0  0  0  0  0  0  0
    7.2136   -1.5170   -3.2506 H   0  0  0  0  0  0  0  0  0  0  0  0
    5.9352   -2.5536   -2.5728 H   0  0  0  0  0  0  0  0  0  0  0  0
    4.8075   -2.6064   -4.7806 H   0  0  0  0  0  0  0  0  0  0  0  0
    6.0860   -1.5699   -5.4584 H   0  0  0  0  0  0  0  0  0  0  0  0
    1.5794   -1.3211   -0.7360 H   0  0  0  0  0  0  0  0  0  0  0  0
    0.8803   -0.2427   -1.9826 H   0  0  0  0  0  0  0  0  0  0  0  0
    0.1878   -0.3934    1.0030 H   0  0  0  0  0  0  0  0  0  0  0  0
   -0.9309   -0.4009   -0.3983 H   0  0  0  0  0  0  0  0  0  0  0  0
   -0.5232    1.9232   -0.8783 H   0  0  0  0  0  0  0  0  0  0  0  0
   -0.5061    1.9136    0.9129 H   0  0  0  0  0  0  0  0  0  0  0  0
    2.7966    5.1469   -4.1390 H   0  0  0  0  0  0  0  0  0  0  0  0
    1.3057    4.7866   -3.2359 H   0  0  0  0  0  0  0  0  0  0  0  0
    2.7698    5.3048   -2.3663 H   0  0  0  0  0  0  0  0  0  0  0  0
    1.6732    3.0280   -0.9772 N   0  3  0  0  0  0  0  0  0  0  0  0
    1.2923    3.9774   -0.8893 H   0  0  0  0  0  0  0  0  0  0  0  0
  1  2  1  0  0  0  0
  1 25  1  0  0  0  0
  1 26  1  0  0  0  0
  1 27  1  0  0  0  0
  2  3  1  0  0  0  0
  2  4  1  0  0  0  0
  2 28  1  0  0  0  0
  3 29  1  0  0  0  0
  3 30  1  0  0  0  0
  3 31  1  0  0  0  0
  4  5  1  0  0  0  0
  4 32  1  0  0  0  0
  4 33  1  0  0  0  0
  5  6  1  0  0  0  0
  5 34  1  0  0  0  0
  5 35  1  0  0  0  0
  6 11  2  0  0  0  0
  6  7  1  0  0  0  0
  7  8  1  0  0  0  0
  7  9  1  0  0  0  0
  9 22  1  0  0  0  0
  9 10  2  0  0  0  0
 10 11  1  0  0  0  0
 10 12  1  0  0  0  0
 12 20  1  0  0  0  0
 12 13  1  0  0  0  0
 13 14  1  0  0  0  0
 13 18  1  0  0  0  0
 13 15  1  0  0  0  0
 15 16  1  0  0  0  0
 15 36  1  0  0  0  0
 15 37  1  0  0  0  0
 16 17  1  0  0  0  0
 16 38  1  0  0  0  0
 16 39  1  0  0  0  0
 17 18  1  0  0  0  0
 17 40  1  0  0  0  0
 17 41  1  0  0  0  0
 18 19  1  0  0  0  0
 18 45  1  0  0  0  0
 20 21  1  0  0  0  0
 20 45  2  0  0  0  0
 21 22  1  0  0  0  0
 21 24  1  0  0  0  0
 22 23  2  0  0  0  0
 24 42  1  0  0  0  0
 24 43  1  0  0  0  0
 24 44  1  0  0  0  0
 45 46  1  0  0  0  0
M  CHG  1  45   1
M  END
$$$$
ZINC04642455
  -OEChem-08230709403D

 33 35  0     0  0  0  0  0  0999 V2000
    7.2719    1.4056   -0.0633 C   0  0  0  0  0  0  0  0  0  0  0  0
    5.9865    2.2353   -0.0455 C   0  0  0  0  0  0  0  0  0  0  0  0
    4.7758    1.2998   -0.0385 C   0  0  0  0  0  0  0  0  0  0  0  0
    3.5752    2.0747   -0.0219 O   0  0  0  0  0  0  0  0  0  0  0  0
    2.4019    1.3928   -0.0137 C   0  0  0  0  0  0  0  0  0  0  0  0
    2.4022    0.0064   -0.0216 C   0  0  0  0  0  0  0  0  0  0  0  0
    1.2074   -0.6864   -0.0135 C   0  0  0  0  0  0  0  0  0  0  0  0
    0.0021   -0.0041    0.0023 C   0  0  0  0  0  0  0  0  0  0  0  0
   -0.0166    1.3741    0.0099 C   0  0  0  0  0  0  0  0  0  0  0  0
    1.1846    2.0869    0.0017 C   0  0  0  0  0  0  0  0  0  0  0  0
    1.1719    3.5623    0.0092 C   0  0  0  0  0  0  0  0  0  0  0  0
   -0.0319    4.2084    0.0187 N   0  0  0  0  0  0  0  0  0  0  0  0
   -0.8809    3.6800    0.0172 H   0  0  0  0  0  0  0  0  0  0  0  0
   -0.0794    5.5603    0.0301 C   0  0  0  0  0  0  0  0  0  0  0  0
   -1.1437    6.1532    0.0423 O   0  0  0  0  0  0  0  0  0  0  0  0
    1.1922    6.2870    0.0218 C   0  0  0  0  0  0  0  0  0  0  0  0
    2.3777    5.5386    0.0070 C   0  0  0  0  0  0  0  0  0  0  0  0
    2.3174    4.2028    0.0010 N   0  0  0  0  0  0  0  0  0  0  0  0
    3.3962    6.4459    0.0018 N   0  0  0  0  0  0  0  0  0  0  0  0
    3.2961    8.5867    0.0158 H   0  0  0  0  0  0  0  0  0  0  0  0
    2.8025    7.7170    0.0148 N   0  0  0  0  0  0  0  0  0  0  0  0
    1.5215    7.5866    0.0253 N   0  0  0  0  0  0  0  0  0  0  0  0
    8.1344    2.0721   -0.0683 H   0  0  0  0  0  0  0  0  0  0  0  0
    7.3076    0.7718    0.8227 H   0  0  0  0  0  0  0  0  0  0  0  0
    7.2895    0.7820   -0.9571 H   0  0  0  0  0  0  0  0  0  0  0  0
    5.9508    2.8691   -0.9315 H   0  0  0  0  0  0  0  0  0  0  0  0
    5.9689    2.8589    0.8483 H   0  0  0  0  0  0  0  0  0  0  0  0
    4.8115    0.6660    0.8476 H   0  0  0  0  0  0  0  0  0  0  0  0
    4.7933    0.6762   -0.9323 H   0  0  0  0  0  0  0  0  0  0  0  0
    3.3380   -0.5326   -0.0339 H   0  0  0  0  0  0  0  0  0  0  0  0
    1.2129   -1.7663   -0.0197 H   0  0  0  0  0  0  0  0  0  0  0  0
   -0.9272   -0.5544    0.0083 H   0  0  0  0  0  0  0  0  0  0  0  0
   -0.9587    1.9021    0.0176 H   0  0  0  0  0  0  0  0  0  0  0  0
  1  2  1  0  0  0  0
  1 23  1  0  0  0  0
  1 24  1  0  0  0  0
  1 25  1  0  0  0  0
  2  3  1  0  0  0  0
  2 26  1  0  0  0  0
  2 27  1  0  0  0  0
  3  4  1  0  0  0  0
  3 28  1  0  0  0  0
  3 29  1  0  0  0  0
  4  5  1  0  0  0  0
  5 10  2  0  0  0  0
  5  6  1  0  0  0  0
  6  7  2  0  0  0  0
  6 30  1  0  0  0  0
  7  8  1  0  0  0  0
  7 31  1  0  0  0  0
  8  9  2  0  0  0  0
  8 32  1  0  0  0  0
  9 10  1  0  0  0  0
  9 33  1  0  0  0  0
 10 11  1  0  0  0  0
 11 18  2  0  0  0  0
 11 12  1  0  0  0  0
 12 13  1  0  0  0  0
 12 14  1  0  0  0  0
 14 15  2  0  0  0  0
 14 16  1  0  0  0  0
 16 17  1  0  0  0  0
 16 22  2  0  0  0  0
 17 18  1  0  0  0  0
 17 19  2  0  0  0  0
 19 21  1  0  0  0  0
 20 21  1  0  0  0  0
 21 22  1  0  0  0  0
M  END
$$$$
ZINC04642455
  -OEChem-08230709403D

 33 35  0     0  0  0  0  0  0999 V2000
    7.2719    1.4056   -0.0633 C   0  0  0  0  0  0  0  0  0  0  0  0
    5.9865    2.2353   -0.0455 C   0  0  0  0  0  0  0  0  0  0  0  0
    4.7758    1.2998   -0.0385 C   0  0  0  0  0  0  0  0  0  0  0  0
    3.5752    2.0747   -0.0219 O   0  0  0  0  0  0  0  0  0  0  0  0
    2.4019    1.3928   -0.0137 C   0  0  0  0  0  0  0  0  0  0  0  0
    2.4022    0.0064   -0.0216 C   0  0  0  0  0  0  0  0  0  0  0  0
    1.2074   -0.6864   -0.0135 C   0  0  0  0  0  0  0  0  0  0  0  0
    0.0021   -0.0041    0.0023 C   0  0  0  0  0  0  0  0  0  0  0  0
   -0.0166    1.3741    0.0099 C   0  0  0  0  0  0  0  0  0  0  0  0
    1.1846    2.0869    0.0017 C   0  0  0  0  0  0  0  0  0  0  0  0
    1.1719    3.5623    0.0092 C   0  0  0  0  0  0  0  0  0  0  0  0
   -0.0319    4.2084    0.0187 N   0  0  0  0  0  0  0  0  0  0  0  0
   -0.8809    3.6800    0.0172 H   0  0  0  0  0  0  0  0  0  0  0  0
   -0.0794    5.5603    0.0301 C   0  0  0  0  0  0  0  0  0  0  0  0
   -1.1437    6.1532    0.0423 O   0  0  0  0  0  0  0  0  0  0  0  0
    1.1922    6.2870    0.0218 C   0  0  0  0  0  0  0  0  0  0  0  0
    2.3777    5.5386    0.0070 C   0  0  0  0  0  0  0  0  0  0  0  0
    2.3174    4.2028    0.0010 N   0  0  0  0  0  0  0  0  0  0  0  0
    3.3962    6.4459    0.0018 N   0  0  0  0  0  0  0  0  0  0  0  0
    3.2961    8.5867    0.0158 H   0  0  0  0  0  0  0  0  0  0  0  0
    2.8025    7.7170    0.0148 N   0  0  0  0  0  0  0  0  0  0  0  0
    1.5215    7.5866    0.0253 N   0  0  0  0  0  0  0  0  0  0  0  0
    8.1344    2.0721   -0.0683 H   0  0  0  0  0  0  0  0  0  0  0  0
    7.3076    0.7718    0.8227 H   0  0  0  0  0  0  0  0  0  0  0  0
    7.2895    0.7820   -0.9571 H   0  0  0  0  0  0  0  0  0  0  0  0
    5.9508    2.8691   -0.9315 H   0  0  0  0  0  0  0  0  0  0  0  0
    5.9689    2.8589    0.8483 H   0  0  0  0  0  0  0  0  0  0  0  0
    4.8115    0.6660    0.8476 H   0  0  0  0  0  0  0  0  0  0  0  0
    4.7933    0.6762   -0.9323 H   0  0  0  0  0  0  0  0  0  0  0  0
    3.3380   -0.5326   -0.0339 H   0  0  0  0  0  0  0  0  0  0  0  0
    1.2129   -1.7663   -0.0197 H   0  0  0  0  0  0  0  0  0  0  0  0
   -0.9272   -0.5544    0.0083 H   0  0  0  0  0  0  0  0  0  0  0  0
   -0.9587    1.9021    0.0176 H   0  0  0  0  0  0  0  0  0  0  0  0
  1  2  1  0  0  0  0
  1 23  1  0  0  0  0
  1 24  1  0  0  0  0
  1 25  1  0  0  0  0
  2  3  1  0  0  0  0
  2 26  1  0  0  0  0
  2 27  1  0  0  0  0
  3  4  1  0  0  0  0
  3 28  1  0  0  0  0
  3 29  1  0  0  0  0
  4  5  1  0  0  0  0
  5 10  2  0  0  0  0
  5  6  1  0  0  0  0
  6  7  2  0  0  0  0
  6 30  1  0  0  0  0
  7  8  1  0  0  0  0
  7 31  1  0  0  0  0
  8  9  2  0  0  0  0
  8 32  1  0  0  0  0
  9 10  1  0  0  0  0
  9 33  1  0  0  0  0
 10 11  1  0  0  0  0
 11 18  2  0  0  0  0
 11 12  1  0  0  0  0
 12 13  1  0  0  0  0
 12 14  1  0  0  0  0
 14 15  2  0  0  0  0
 14 16  1  0  0  0  0
 16 17  1  0  0  0  0
 16 22  2  0  0  0  0
 17 18  1  0  0  0  0
 17 19  2  0  0  0  0
 19 21  1  0  0  0  0
 20 21  1  0  0  0  0
 21 22  1  0  0  0  0
M  END
$$$$
